data_Molecule from HDF5

_cell_length_a		16.303348
_cell_length_b		16.253375
_cell_length_c		16.303816
_cell_angle_alpha	89.813859
_cell_angle_beta	90.144055
_cell_angle_gamma	89.958651
_symmetry_space_group_name_H-M	'P 1'
_symmetry_Int_Tables_number		1

loop_
	_symmetry_equiv_pos_as_xyz
	x,y,z

loop_
	_atom_site_label
	_atom_site_type_symbol
	_atom_site_fract_x
	_atom_site_fract_y
	_atom_site_fract_z
	H0	H	0.407925	0.829629	0.720486
	H1	H	0.604554	0.157454	0.720795
	H2	H	0.604693	0.830346	0.291482
	H3	H	0.406462	0.157735	0.289950
	H4	H	0.719313	0.395712	0.841542
	H5	H	0.721257	0.593072	0.166995
	H6	H	0.288520	0.592714	0.842030
	H7	H	0.290862	0.393876	0.168513
	H8	H	0.841630	0.709275	0.405298
	H9	H	0.168998	0.706246	0.603247
	H10	H	0.841739	0.278620	0.603114
	H11	H	0.168908	0.281127	0.409033
	H12	H	0.841299	0.394487	0.719714
	H13	H	0.168570	0.591792	0.719945
	H14	H	0.841456	0.594034	0.289048
	H15	H	0.167326	0.393185	0.290409
	H16	H	0.404684	0.709076	0.841830
	H17	H	0.605265	0.708465	0.168053
	H18	H	0.602797	0.280017	0.841411
	H19	H	0.407350	0.278813	0.168574
	H20	H	0.719594	0.830234	0.407739
	H21	H	0.720435	0.157725	0.604261
	H22	H	0.290908	0.829724	0.605167
	H23	H	0.290515	0.157947	0.406086
	H24	H	0.905686	0.329598	0.220572
	H25	H	0.104660	0.656785	0.220882
	H26	H	0.102149	0.329359	0.792419
	H27	H	0.904563	0.656771	0.788723
	H28	H	0.220443	0.894289	0.342008
	H29	H	0.219883	0.091182	0.668805
	H30	H	0.789292	0.092965	0.342295
	H31	H	0.790858	0.894014	0.668781
	H32	H	0.341663	0.208465	0.906170
	H33	H	0.668405	0.208644	0.104052
	H34	H	0.341541	0.778885	0.103847
	H35	H	0.668098	0.777780	0.905915
	H36	H	0.342234	0.894418	0.220814
	H37	H	0.669053	0.092791	0.220364
	H38	H	0.342511	0.094945	0.788539
	H39	H	0.668713	0.893998	0.791495
	H40	H	0.905022	0.209864	0.341867
	H41	H	0.102750	0.206395	0.669394
	H42	H	0.103684	0.778349	0.341739
	H43	H	0.907186	0.778086	0.668924
	H44	H	0.218835	0.329433	0.907632
	H45	H	0.219778	0.657045	0.104638
	H46	H	0.790132	0.329791	0.104002
	H47	H	0.788854	0.657250	0.904382
	H48	H	0.414514	0.110397	0.601178
	H49	H	0.597080	0.876194	0.602514
	H50	H	0.600655	0.110435	0.415645
	H51	H	0.420763	0.877486	0.404559
	H52	H	0.592362	0.408312	0.117010
	H53	H	0.602574	0.587317	0.886959
	H54	H	0.415459	0.598247	0.122951
	H55	H	0.410554	0.408217	0.890983
	H56	H	0.119377	0.586420	0.415643
	H57	H	0.887794	0.580559	0.604184
	H58	H	0.125018	0.392378	0.602959
	H59	H	0.888527	0.404775	0.409939
	H60	H	0.118747	0.400331	0.591105
	H61	H	0.885833	0.593979	0.598390
	H62	H	0.118737	0.582191	0.413503
	H63	H	0.887345	0.397124	0.411390
	H64	H	0.400110	0.582813	0.124130
	H65	H	0.594665	0.580351	0.891031
	H66	H	0.594396	0.391415	0.122375
	H67	H	0.416259	0.397452	0.889502
	H68	H	0.598933	0.112319	0.409713
	H69	H	0.596051	0.878947	0.596425
	H70	H	0.413892	0.108788	0.594454
	H71	H	0.416140	0.881032	0.423274
	H72	H	0.908332	0.611085	0.096552
	H73	H	0.087545	0.378342	0.104546
	H74	H	0.099066	0.611627	0.908903
	H75	H	0.917263	0.381675	0.921952
	H76	H	0.098155	0.898526	0.621593
	H77	H	0.092851	0.082589	0.391983
	H78	H	0.909175	0.090227	0.623289
	H79	H	0.910602	0.911999	0.391992
	H80	H	0.619699	0.087234	0.918124
	H81	H	0.389722	0.090387	0.090603
	H82	H	0.622587	0.902496	0.103669
	H83	H	0.390918	0.901495	0.917048
	H84	H	0.622620	0.896200	0.097418
	H85	H	0.391237	0.078045	0.099584
	H86	H	0.620703	0.081642	0.911040
	H87	H	0.388940	0.905941	0.908376
	H88	H	0.910418	0.080437	0.620148
	H89	H	0.096318	0.094237	0.387431
	H90	H	0.099875	0.900819	0.621445
	H91	H	0.922167	0.897655	0.391752
	H92	H	0.092523	0.609269	0.912751
	H93	H	0.097473	0.380114	0.087506
	H94	H	0.915364	0.610022	0.101145
	H95	H	0.900294	0.373540	0.913002
	H96	H	0.408255	0.110872	0.597751
	H97	H	0.602071	0.877034	0.598589
	H98	H	0.594911	0.109705	0.413803
	H99	H	0.402917	0.873898	0.411207
	H100	H	0.607947	0.402709	0.123541
	H101	H	0.592382	0.591634	0.888439
	H102	H	0.420076	0.578083	0.116316
	H103	H	0.405016	0.398784	0.886150
	H104	H	0.121215	0.585606	0.410999
	H105	H	0.892163	0.583135	0.589455
	H106	H	0.120535	0.407164	0.604651
	H107	H	0.889975	0.401814	0.417371
	H108	H	0.915202	0.607605	0.092974
	H109	H	0.106548	0.372374	0.103685
	H110	H	0.099388	0.609551	0.916123
	H111	H	0.917674	0.375611	0.902753
	H112	H	0.096613	0.901370	0.620187
	H113	H	0.104833	0.085454	0.387669
	H114	H	0.918729	0.087416	0.619372
	H115	H	0.904150	0.895557	0.385367
	H116	H	0.622640	0.089795	0.910360
	H117	H	0.386199	0.090924	0.105273
	H118	H	0.618857	0.904043	0.095196
	H119	H	0.386325	0.896251	0.909564
	C120	C	0.384263	0.001728	0.626676
	C121	C	0.627225	0.985552	0.627735
	C122	C	0.626634	0.002641	0.384570
	C123	C	0.383877	0.985480	0.383667
	C124	C	0.626662	0.372058	0.013132
	C125	C	0.626262	0.615291	0.996290
	C126	C	0.382728	0.615160	0.013458
	C127	C	0.382858	0.372377	0.996967
	C128	C	0.012552	0.614894	0.383588
	C129	C	0.996472	0.614649	0.626848
	C130	C	0.013382	0.371159	0.627809
	C131	C	0.996368	0.372216	0.384215
	C132	C	0.883874	0.501696	0.126117
	C133	C	0.126542	0.484991	0.127476
	C134	C	0.125499	0.501620	0.884466
	C135	C	0.882744	0.485328	0.883402
	C136	C	0.127059	0.871383	0.513170
	C137	C	0.126739	0.115270	0.497184
	C138	C	0.883314	0.115461	0.513493
	C139	C	0.883487	0.871985	0.497012
	C140	C	0.513339	0.115337	0.883729
	C141	C	0.497103	0.115556	0.127137
	C142	C	0.513354	0.872073	0.127280
	C143	C	0.496921	0.872512	0.883719
	C144	C	0.387283	0.878423	0.682243
	C145	C	0.625002	0.108843	0.682799
	C146	C	0.624607	0.879270	0.329469
	C147	C	0.385851	0.108881	0.328135
	C148	C	0.681770	0.374628	0.890479
	C149	C	0.682697	0.613258	0.118706
	C150	C	0.326879	0.613046	0.890650
	C151	C	0.328533	0.373857	0.119718
	C152	C	0.890202	0.671221	0.385312
	C153	C	0.119776	0.669342	0.624375
	C154	C	0.890306	0.316386	0.624294
	C155	C	0.119678	0.317600	0.387546
	C156	C	0.890337	0.373700	0.682365
	C157	C	0.119628	0.611998	0.682021
	C158	C	0.890253	0.613937	0.327409
	C159	C	0.119037	0.374035	0.329001
	C160	C	0.384304	0.671032	0.890600
	C161	C	0.624747	0.670549	0.119195
	C162	C	0.623524	0.317466	0.890198
	C163	C	0.386421	0.316604	0.119797
	C164	C	0.681668	0.879103	0.387254
	C165	C	0.682737	0.108703	0.625216
	C166	C	0.329255	0.878372	0.624951
	C167	C	0.328540	0.108969	0.386035
	C168	C	0.885660	0.378396	0.182055
	C169	C	0.124749	0.608044	0.182849
	C170	C	0.122501	0.378267	0.830312
	C171	C	0.884288	0.608170	0.827070
	C172	C	0.182282	0.873915	0.390606
	C173	C	0.181776	0.111642	0.620099
	C174	C	0.827260	0.113594	0.390800
	C175	C	0.828700	0.873825	0.619956
	C176	C	0.390529	0.170734	0.885534
	C177	C	0.619770	0.170821	0.124646
	C178	C	0.390441	0.817053	0.124268
	C179	C	0.619566	0.816323	0.886066
	C180	C	0.390727	0.874565	0.182274
	C181	C	0.620073	0.113379	0.182518
	C182	C	0.391033	0.114039	0.827228
	C183	C	0.619875	0.874117	0.829139
	C184	C	0.884819	0.171523	0.390600
	C185	C	0.123769	0.169134	0.620389
	C186	C	0.124527	0.816278	0.390517
	C187	C	0.886524	0.816339	0.620255
	C188	C	0.180643	0.378361	0.887433
	C189	C	0.181768	0.608211	0.124879
	C190	C	0.828435	0.378498	0.124115
	C191	C	0.827139	0.608392	0.884928
	C192	C	0.405851	0.087761	0.604301
	C193	C	0.604983	0.899675	0.605644
	C194	C	0.604624	0.088723	0.406550
	C195	C	0.406504	0.899820	0.406358
	C196	C	0.604531	0.394094	0.098983
	C197	C	0.603272	0.593011	0.910974
	C198	C	0.405153	0.592895	0.098958
	C199	C	0.404272	0.394760	0.911037
	C200	C	0.097841	0.591568	0.406679
	C201	C	0.910753	0.592501	0.604013
	C202	C	0.099138	0.393438	0.606170
	C203	C	0.910698	0.394603	0.406377
	C204	C	0.906316	0.587393	0.103597
	C205	C	0.103893	0.399307	0.105364
	C206	C	0.103477	0.587937	0.906326
	C207	C	0.905159	0.399144	0.905956
	C208	C	0.104800	0.893667	0.598996
	C209	C	0.104434	0.093649	0.411235
	C210	C	0.906210	0.092702	0.598825
	C211	C	0.905794	0.894893	0.411722
	C212	C	0.598962	0.092710	0.906501
	C213	C	0.411231	0.093089	0.104823
	C214	C	0.599206	0.894380	0.105297
	C215	C	0.410977	0.894825	0.905288
	Zn216	Zn	0.505674	-0.006426	0.755508
	Zn217	Zn	0.506030	-0.006014	0.255803
	Zn218	Zn	0.755009	0.494142	0.004872
	Zn219	Zn	0.254091	0.493385	0.005608
	Zn220	Zn	0.005100	0.743015	0.505024
	Zn221	Zn	0.004976	0.244175	0.505350
	Zn222	Zn	0.004665	0.493555	0.755716
	Zn223	Zn	0.004555	0.493166	0.255434
	Zn224	Zn	0.504919	0.743755	0.004833
	Zn225	Zn	0.504603	0.243846	0.004967
	Zn226	Zn	0.755126	-0.006363	0.505600
	Zn227	Zn	0.255480	-0.006842	0.505086
	N228	N	0.420843	0.956074	0.683401
	N229	N	0.591440	0.031268	0.684545
	N230	N	0.591095	0.956978	0.327645
	N231	N	0.419418	0.031236	0.326315
	N232	N	0.683361	0.408289	0.967702
	N233	N	0.683620	0.579683	0.041533
	N234	N	0.325895	0.579041	0.968008
	N235	N	0.326252	0.407567	0.042414
	N236	N	0.967419	0.671890	0.419489
	N237	N	0.042364	0.671000	0.590456
	N238	N	0.967758	0.314773	0.591142
	N239	N	0.042366	0.316574	0.421140
	N240	N	0.967774	0.407312	0.684392
	N241	N	0.041963	0.578680	0.683646
	N242	N	0.967322	0.579659	0.326247
	N243	N	0.041334	0.407063	0.326780
	N244	N	0.418589	0.672574	0.967807
	N245	N	0.590132	0.671836	0.042022
	N246	N	0.590543	0.315218	0.967854
	N247	N	0.419759	0.315590	0.042275
	N248	N	0.682913	0.956795	0.420727
	N249	N	0.684023	0.031140	0.591439
	N250	N	0.327146	0.956049	0.591244
	N251	N	0.327246	0.031271	0.419854
	N252	N	0.919301	0.455926	0.183604
	N253	N	0.090985	0.530515	0.184649
	N254	N	0.089228	0.455996	0.828338
	N255	N	0.918319	0.530699	0.826286
	N256	N	0.183954	0.907319	0.467917
	N257	N	0.183635	0.078802	0.542416
	N258	N	0.826247	0.079544	0.468108
	N259	N	0.826834	0.907839	0.542631
	N260	N	0.467507	0.171648	0.920038
	N261	N	0.542231	0.172101	0.090944
	N262	N	0.467895	0.815265	0.090974
	N263	N	0.542085	0.815231	0.919447
	N264	N	0.468385	0.907779	0.184527
	N265	N	0.542775	0.079677	0.184086
	N266	N	0.468517	0.080201	0.826080
	N267	N	0.542588	0.908050	0.827403
	N268	N	0.919176	0.172677	0.467739
	N269	N	0.090321	0.171557	0.542891
	N270	N	0.090675	0.814818	0.467847
	N271	N	0.919987	0.814921	0.542788
	N272	N	0.182487	0.456393	0.920292
	N273	N	0.182921	0.530754	0.091102
	N274	N	0.827106	0.455984	0.090057
	N275	N	0.826148	0.530962	0.919247
	O276	O	1.008754	0.958047	0.023618
	H277	H	1.004348	0.952877	0.028527
	H278	H	1.015293	0.953015	0.023532
	O279	O	-0.015570	-0.008048	0.006451
	H280	H	-0.021051	-0.007468	0.007242
	H281	H	-0.010987	-0.002547	0.007761
	O282	O	0.027693	0.032346	0.976701
	H283	H	0.019997	0.029029	0.977140
	H284	H	0.031289	0.034466	0.977991
	O285	O	0.488909	0.489146	0.462694
	H286	H	0.494662	0.481044	0.457418
	H287	H	0.486423	0.480778	0.471964
	O288	O	0.545853	0.548235	0.457177
	H289	H	0.543891	0.552993	0.453173
	H290	H	0.532441	0.543657	0.451368
	O291	O	0.469677	0.585003	0.478840
	H292	H	0.462716	0.586801	0.478294
	H293	H	0.475961	0.594509	0.475300
	O294	O	0.022823	-0.038930	0.009852
	H295	H	0.020045	-0.042366	0.008768
	H296	H	0.016632	-0.043888	0.015163
	O297	O	0.490732	0.540241	0.483569
	H298	H	0.494004	0.550741	0.484917
	H299	H	0.489706	0.556560	0.476944
	O300	O	-0.002792	0.982036	0.986236
	H301	H	0.006113	0.990105	0.986545
	H302	H	-0.008154	0.989190	0.988092
	O303	O	0.432048	0.568776	0.419474
	H304	H	0.431927	0.557077	0.415844
	H305	H	0.435427	0.574068	0.419885
	O306	O	-0.496090	0.445307	0.439530
	H307	H	-0.494362	0.440945	0.444880
	H308	H	-0.493654	0.447911	0.435811
	O309	O	0.961064	1.024927	0.969074
	H310	H	0.962503	1.032098	0.956806
	H311	H	0.949514	1.031967	0.967298
	O312	O	0.468857	0.549627	0.468821
	H313	H	0.476312	0.545354	0.465712
	H314	H	0.473620	0.547266	0.476893
	O315	O	0.503010	0.526835	0.461236
	H316	H	0.493422	0.521142	0.460065
	H317	H	0.499216	0.532864	0.465000
	O318	O	0.035395	0.956702	0.002020
	H319	H	0.037909	0.951806	-0.013073
	H320	H	0.035825	0.953194	0.005628
	O321	O	0.965564	0.953442	-0.005229
	H322	H	0.965709	0.952130	-0.007756
	H323	H	0.970425	0.953324	-0.000043
