data_Molecule from HDF5

_cell_length_a		16.073725
_cell_length_b		16.266135
_cell_length_c		16.390145
_cell_angle_alpha	89.708413
_cell_angle_beta	89.994154
_cell_angle_gamma	89.691994
_symmetry_space_group_name_H-M	'P 1'
_symmetry_Int_Tables_number		1

loop_
	_symmetry_equiv_pos_as_xyz
	x,y,z

loop_
	_atom_site_label
	_atom_site_type_symbol
	_atom_site_fract_x
	_atom_site_fract_y
	_atom_site_fract_z
	H0	H	0.399180	0.839695	0.727757
	H1	H	0.601290	0.165221	0.721929
	H2	H	0.604468	0.839152	0.290480
	H3	H	0.398128	0.163663	0.290170
	H4	H	0.716693	0.402704	0.842586
	H5	H	0.716776	0.598252	0.168714
	H6	H	0.286947	0.600654	0.842420
	H7	H	0.286881	0.404572	0.169714
	H8	H	0.836425	0.718168	0.402738
	H9	H	0.166673	0.711415	0.602406
	H10	H	0.835415	0.288767	0.603273
	H11	H	0.166712	0.285912	0.407165
	H12	H	0.838045	0.396621	0.722710
	H13	H	0.165486	0.599328	0.719706
	H14	H	0.836311	0.603203	0.287821
	H15	H	0.166490	0.400266	0.290365
	H16	H	0.396857	0.722142	0.844836
	H17	H	0.599915	0.715494	0.169614
	H18	H	0.602583	0.283695	0.844761
	H19	H	0.402114	0.286859	0.169656
	H20	H	0.713930	0.835934	0.412704
	H21	H	0.714258	0.165796	0.603030
	H22	H	0.289545	0.835569	0.606801
	H23	H	0.288029	0.164984	0.410687
	H24	H	0.898743	0.338726	0.222795
	H25	H	0.102791	0.663181	0.221070
	H26	H	0.104686	0.336242	0.789680
	H27	H	0.897151	0.661750	0.784000
	H28	H	0.218740	0.902265	0.342939
	H29	H	0.214541	0.095973	0.670075
	H30	H	0.784958	0.100515	0.343576
	H31	H	0.788778	0.902208	0.668866
	H32	H	0.335150	0.216629	0.909063
	H33	H	0.666405	0.214284	0.106455
	H34	H	0.334384	0.789521	0.106075
	H35	H	0.666135	0.786891	0.909217
	H36	H	0.336119	0.900848	0.223565
	H37	H	0.665780	0.100126	0.221817
	H38	H	0.336830	0.105288	0.789718
	H39	H	0.665819	0.901345	0.793201
	H40	H	0.898932	0.218482	0.343383
	H41	H	0.101990	0.217074	0.667576
	H42	H	0.102928	0.784090	0.342481
	H43	H	0.899381	0.780474	0.666104
	H44	H	0.217031	0.336871	0.909495
	H45	H	0.210831	0.666780	0.098724
	H46	H	0.789464	0.336693	0.102573
	H47	H	0.786459	0.664494	0.905011
	H48	H	0.407479	0.114079	0.588725
	H49	H	0.590071	0.885918	0.603623
	H50	H	0.593849	0.118465	0.413513
	H51	H	0.415799	0.884754	0.409465
	H52	H	0.591065	0.413624	0.118686
	H53	H	0.600579	0.597657	0.888394
	H54	H	0.400940	0.594818	0.122747
	H55	H	0.405711	0.405010	0.888827
	H56	H	0.114522	0.584353	0.418141
	H57	H	0.884631	0.590543	0.590218
	H58	H	0.117886	0.417411	0.602198
	H59	H	0.883072	0.412535	0.407045
	H60	H	0.124438	0.399152	0.603622
	H61	H	0.884242	0.586038	0.598563
	H62	H	0.120729	0.588277	0.402085
	H63	H	0.881227	0.405515	0.412530
	H64	H	0.410016	0.591151	0.120307
	H65	H	0.589211	0.586972	0.894006
	H66	H	0.590498	0.402281	0.120962
	H67	H	0.408415	0.412796	0.891534
	H68	H	0.590523	0.117514	0.411139
	H69	H	0.594638	0.886173	0.597827
	H70	H	0.398894	0.121824	0.604466
	H71	H	0.412447	0.885801	0.420001
	H72	H	0.917916	0.613593	0.091930
	H73	H	0.095314	0.384808	0.096154
	H74	H	0.093898	0.619343	0.901751
	H75	H	0.904288	0.382407	0.912612
	H76	H	0.091825	0.906945	0.618863
	H77	H	0.088360	0.098944	0.390984
	H78	H	0.913333	0.093303	0.619551
	H79	H	0.905652	0.905001	0.388120
	H80	H	0.619310	0.096827	0.915428
	H81	H	0.379843	0.101040	0.100914
	H82	H	0.617893	0.907167	0.097783
	H83	H	0.381059	0.911488	0.911171
	H84	H	0.617719	0.910241	0.100173
	H85	H	0.385456	0.092206	0.093320
	H86	H	0.617410	0.090889	0.916666
	H87	H	0.383608	0.909036	0.920196
	H88	H	0.908687	0.099235	0.622855
	H89	H	0.099837	0.093878	0.389011
	H90	H	0.092267	0.901211	0.621350
	H91	H	0.907600	0.914265	0.391014
	H92	H	0.084127	0.614227	0.910354
	H93	H	0.095716	0.383163	0.101991
	H94	H	0.900617	0.618946	0.091880
	H95	H	0.913295	0.383476	0.906860
	H96	H	0.418289	0.116250	0.606120
	H97	H	0.595824	0.883563	0.603829
	H98	H	0.590523	0.116769	0.414946
	H99	H	0.405135	0.881612	0.412764
	H100	H	0.600667	0.407974	0.122955
	H101	H	0.585399	0.602819	0.890901
	H102	H	0.408574	0.600474	0.122733
	H103	H	0.414148	0.406357	0.891352
	H104	H	0.119888	0.600524	0.414642
	H105	H	0.881931	0.595026	0.597942
	H106	H	0.116979	0.405292	0.586690
	H107	H	0.885431	0.412740	0.416080
	H108	H	0.910520	0.620231	0.106684
	H109	H	0.090848	0.385256	0.099206
	H110	H	0.097460	0.616003	0.914892
	H111	H	0.913798	0.386060	0.917402
	H112	H	0.097229	0.905003	0.621330
	H113	H	0.090396	0.086824	0.393599
	H114	H	0.904994	0.091911	0.620962
	H115	H	0.914836	0.908125	0.391186
	H116	H	0.619561	0.091938	0.909930
	H117	H	0.382095	0.089374	0.105267
	H118	H	0.619471	0.906736	0.101287
	H119	H	0.385209	0.918033	0.917182
	C120	C	0.379442	0.009408	0.629575
	C121	C	0.622749	0.993358	0.629510
	C122	C	0.622359	0.009694	0.385144
	C123	C	0.380163	0.992064	0.385631
	C124	C	0.623459	0.378665	0.013898
	C125	C	0.621913	0.623468	0.998312
	C126	C	0.377837	0.624763	0.014404
	C127	C	0.379925	0.379911	0.998176
	C128	C	0.009475	0.621500	0.382338
	C129	C	0.992445	0.619759	0.624604
	C130	C	0.010558	0.378139	0.626819
	C131	C	0.992512	0.379899	0.383361
	C132	C	0.880139	0.509769	0.126400
	C133	C	0.122405	0.492605	0.126561
	C134	C	0.122450	0.508484	0.881992
	C135	C	0.879908	0.491508	0.882166
	C136	C	0.124169	0.876408	0.513518
	C137	C	0.122228	0.121781	0.498207
	C138	C	0.878640	0.124037	0.514242
	C139	C	0.880010	0.878992	0.497305
	C140	C	0.509761	0.123431	0.885394
	C141	C	0.491999	0.122428	0.128280
	C142	C	0.509220	0.879619	0.129108
	C143	C	0.492202	0.882017	0.886704
	C144	C	0.379888	0.887543	0.688110
	C145	C	0.620779	0.116291	0.683926
	C146	C	0.622969	0.887290	0.329580
	C147	C	0.379685	0.114918	0.329072
	C148	C	0.678841	0.381794	0.891393
	C149	C	0.678371	0.619510	0.120226
	C150	C	0.323446	0.621954	0.891643
	C151	C	0.324580	0.383400	0.120958
	C152	C	0.885553	0.679304	0.383318
	C153	C	0.116832	0.674807	0.623049
	C154	C	0.885438	0.324902	0.623986
	C155	C	0.117014	0.323589	0.386333
	C156	C	0.886807	0.378637	0.683484
	C157	C	0.116334	0.618837	0.681239
	C158	C	0.885672	0.622517	0.325660
	C159	C	0.116831	0.380261	0.327988
	C160	C	0.378122	0.682423	0.892794
	C161	C	0.620451	0.678098	0.120640
	C162	C	0.622579	0.322072	0.892710
	C163	C	0.381612	0.324507	0.120893
	C164	C	0.677476	0.885776	0.390261
	C165	C	0.676897	0.116742	0.624722
	C166	C	0.325501	0.885607	0.627840
	C167	C	0.324893	0.115778	0.389093
	C168	C	0.880115	0.387236	0.183460
	C169	C	0.121573	0.615031	0.182284
	C170	C	0.123304	0.385454	0.827542
	C171	C	0.878840	0.613797	0.824012
	C172	C	0.180802	0.880439	0.391594
	C173	C	0.177389	0.117719	0.620947
	C174	C	0.822774	0.121389	0.392023
	C175	C	0.825477	0.881178	0.619798
	C176	C	0.384905	0.179234	0.888121
	C177	C	0.616878	0.176873	0.126365
	C178	C	0.384411	0.826037	0.126659
	C179	C	0.616769	0.825506	0.889001
	C180	C	0.385359	0.882078	0.184762
	C181	C	0.616446	0.120350	0.184068
	C182	C	0.385762	0.123985	0.828837
	C183	C	0.616474	0.882364	0.831264
	C184	C	0.879207	0.180249	0.392144
	C185	C	0.121383	0.177876	0.619694
	C186	C	0.122959	0.821926	0.391182
	C187	C	0.880552	0.820552	0.618287
	C188	C	0.179314	0.385668	0.887004
	C189	C	0.175372	0.616880	0.121390
	C190	C	0.825627	0.386172	0.123649
	C191	C	0.823459	0.615034	0.883899
	C192	C	0.401629	0.095180	0.606559
	C193	C	0.600169	0.907342	0.608071
	C194	C	0.598671	0.095297	0.406895
	C195	C	0.404010	0.906264	0.407735
	C196	C	0.600821	0.401349	0.098928
	C197	C	0.598630	0.601954	0.913037
	C198	C	0.400365	0.602361	0.099688
	C199	C	0.402702	0.401666	0.912768
	C200	C	0.095844	0.597716	0.405170
	C201	C	0.905930	0.597229	0.602004
	C202	C	0.097242	0.400702	0.604146
	C203	C	0.905697	0.403321	0.405438
	C204	C	0.902953	0.595346	0.103528
	C205	C	0.100408	0.406376	0.105266
	C206	C	0.098655	0.594490	0.902821
	C207	C	0.903580	0.406239	0.905415
	C208	C	0.100585	0.897886	0.598439
	C209	C	0.099476	0.099722	0.413278
	C210	C	0.902066	0.101352	0.599110
	C211	C	0.902550	0.902428	0.412188
	C212	C	0.596264	0.100121	0.907583
	C213	C	0.405219	0.100674	0.106240
	C214	C	0.596069	0.901435	0.106369
	C215	C	0.405662	0.905821	0.909584
	Zn216	Zn	0.500832	0.002101	0.757899
	Zn217	Zn	0.500727	0.001330	0.256148
	Zn218	Zn	0.752380	0.500981	0.005182
	Zn219	Zn	0.250509	0.502028	0.005389
	Zn220	Zn	0.000844	0.748007	0.504337
	Zn221	Zn	0.000480	0.252733	0.505421
	Zn222	Zn	0.001058	0.499333	0.753073
	Zn223	Zn	0.001210	0.501000	0.254625
	Zn224	Zn	0.499370	0.753371	0.007020
	Zn225	Zn	0.501385	0.249814	0.007615
	Zn226	Zn	0.751020	0.001132	0.506874
	Zn227	Zn	0.252406	-0.000411	0.506751
	N228	N	0.412436	0.965580	0.689473
	N229	N	0.587856	0.038298	0.686936
	N230	N	0.589393	0.965106	0.326269
	N231	N	0.413652	0.037057	0.327063
	N232	N	0.679525	0.416405	0.967842
	N233	N	0.679427	0.586443	0.043132
	N234	N	0.322946	0.586732	0.968157
	N235	N	0.323065	0.416915	0.043593
	N236	N	0.963536	0.678991	0.417549
	N237	N	0.038838	0.675608	0.588517
	N238	N	0.963647	0.324469	0.589587
	N239	N	0.038560	0.323126	0.419765
	N240	N	0.965582	0.411196	0.685125
	N241	N	0.038115	0.585258	0.682361
	N242	N	0.963780	0.587228	0.325030
	N243	N	0.038317	0.414628	0.326121
	N244	N	0.411059	0.684323	0.970220
	N245	N	0.586006	0.680728	0.043679
	N246	N	0.588865	0.320238	0.969787
	N247	N	0.415109	0.322286	0.043629
	N248	N	0.677264	0.963074	0.424119
	N249	N	0.678164	0.039376	0.591585
	N250	N	0.324969	0.962337	0.592044
	N251	N	0.325026	0.038403	0.423384
	N252	N	0.913146	0.465117	0.185387
	N253	N	0.089231	0.536774	0.185309
	N254	N	0.088859	0.463010	0.824284
	N255	N	0.912948	0.536122	0.822626
	N256	N	0.181478	0.913808	0.468522
	N257	N	0.177989	0.083303	0.544471
	N258	N	0.821909	0.087340	0.469016
	N259	N	0.825261	0.917091	0.543550
	N260	N	0.462928	0.179061	0.922518
	N261	N	0.538682	0.178178	0.092409
	N262	N	0.462507	0.824508	0.092438
	N263	N	0.538352	0.825119	0.922734
	N264	N	0.464187	0.914565	0.186436
	N265	N	0.537897	0.087011	0.185343
	N266	N	0.464208	0.089716	0.827191
	N267	N	0.538023	0.916820	0.829953
	N268	N	0.913195	0.182121	0.469148
	N269	N	0.087711	0.180516	0.542612
	N270	N	0.088845	0.819005	0.468136
	N271	N	0.913909	0.819367	0.541112
	N272	N	0.178868	0.463093	0.920163
	N273	N	0.175752	0.539793	0.087206
	N274	N	0.825560	0.463208	0.088713
	N275	N	0.823939	0.538211	0.919468
	O276	O	0.646730	0.526206	0.507710
	H277	H	0.647922	0.534543	0.500304
	H278	H	0.658139	0.525714	0.506972
	O279	O	0.574094	0.455227	0.465510
	H280	H	0.573753	0.452440	0.470554
	H281	H	0.574560	0.453569	0.462138
	O282	O	0.521790	0.576987	-0.532185
	H283	H	0.520727	0.581112	-0.528466
	H284	H	0.516764	0.585566	-0.530261
	O285	O	1.079065	0.013209	1.105970
	H286	H	1.085350	0.018162	1.119799
	H287	H	1.074170	0.010815	1.105882
	O288	O	0.513503	0.593874	0.476457
	H289	H	0.498670	0.594104	0.475898
	H290	H	0.519649	0.593023	0.477087
	O291	O	0.133276	1.120813	0.125466
	H292	H	0.132637	1.124437	0.120201
	H293	H	0.129682	1.110343	0.125763
	O294	O	0.492806	0.548055	0.502864
	H295	H	0.499786	0.554662	0.505217
	H296	H	0.489211	0.550067	0.494910
	O297	O	0.064723	-0.053925	0.969538
	H298	H	0.057445	-0.052134	0.972990
	H299	H	0.075143	-0.054016	0.960700
	O300	O	0.533697	0.528865	0.585268
	H301	H	0.521743	0.531969	0.589444
	H302	H	0.531587	0.526478	0.590224
	O303	O	0.949700	1.037929	-0.047775
	H304	H	0.938803	1.042989	-0.042884
	H305	H	0.949599	1.028294	-0.051921
	O306	O	0.049768	0.874192	1.137519
	H307	H	0.044718	0.875043	1.134899
	H308	H	0.052252	0.876035	1.142829
	O309	O	0.451052	0.462360	0.525958
	H310	H	0.440275	0.442471	0.533234
	H311	H	0.442819	0.477379	0.528227
	O312	O	-0.097838	0.044224	-0.006564
	H313	H	-0.098907	0.037619	-0.003405
	H314	H	-0.089507	0.041632	0.005361
	O315	O	1.036556	0.017905	0.127015
	H316	H	1.039477	0.020370	0.125949
	H317	H	1.041139	0.014072	0.120154
	O318	O	0.920685	1.043501	1.056815
	H319	H	0.913237	1.049840	1.049387
	H320	H	0.926782	1.044596	1.067707
	O321	O	-0.081448	0.092876	0.914419
	H322	H	-0.076186	0.102622	0.900492
	H323	H	-0.080861	0.099551	0.917764
	O324	O	1.154879	0.020974	-0.064188
	H325	H	1.159401	0.016244	-0.057255
	H326	H	1.156014	0.025416	-0.061172
	O327	O	-0.044648	-0.096199	-0.080485
	H328	H	-0.044543	-0.092516	-0.079712
	H329	H	-0.055809	-0.086193	-0.085114
	O330	O	0.536303	0.377486	0.482669
	H331	H	0.561816	0.382587	0.484957
	H332	H	0.537096	0.378805	0.488386
	O333	O	-0.005905	0.987439	1.073354
	H334	H	-0.002032	0.984370	1.062604
	H335	H	-0.014101	0.987305	1.069802
	O336	O	-0.053706	-0.036035	-0.048694
	H337	H	-0.051894	-0.026359	-0.052285
	H338	H	-0.063412	-0.038037	-0.049047
	O339	O	0.576554	0.624591	0.528362
	H340	H	0.565038	0.620377	0.534440
	H341	H	0.577713	0.622595	0.527395
	O342	O	1.409883	1.516398	1.475005
	H343	H	1.411486	1.516058	1.465393
	H344	H	1.412283	1.521202	1.464855
	O345	O	0.976731	0.930281	-0.019812
	H346	H	0.953379	0.930927	-0.014661
	H347	H	0.986770	0.922193	-0.016445
	O348	O	0.422019	0.551811	0.619679
	H349	H	0.411390	0.547630	0.635114
	H350	H	0.426685	0.539424	0.609691
	O351	O	0.524657	0.539242	0.495851
	H352	H	0.524280	0.542565	0.490681
	H353	H	0.513416	0.538375	0.503759
	O354	O	0.474358	0.409384	0.601604
	H355	H	0.473268	0.411665	0.599814
	H356	H	0.471011	0.406465	0.601890
	O357	O	0.495465	-0.598494	0.519241
	H358	H	0.497127	-0.598413	0.518706
	H359	H	0.507040	-0.602646	0.527336
	O360	O	0.439690	0.519741	0.565464
	H361	H	0.453207	0.521447	0.567700
	H362	H	0.435191	0.514380	0.563599
	O363	O	0.461928	0.545163	0.492847
	H364	H	0.462224	0.545621	0.495499
	H365	H	0.455091	0.550847	0.487467
	O366	O	1.071785	1.013392	0.874420
	H367	H	1.071669	1.002697	0.880205
	H368	H	1.076263	1.010057	0.861005
	O369	O	1.036308	0.000340	0.918371
	H370	H	1.036599	0.000359	0.919102
	H371	H	1.033706	0.002491	0.934895
	O372	O	-0.090953	-0.101436	0.022187
	H373	H	-0.093376	-0.100129	0.024289
	H374	H	-0.084541	-0.096321	0.020135
	O375	O	0.951855	0.109639	-0.008983
	H376	H	0.949163	0.094666	-0.008481
	H377	H	0.954779	0.110599	-0.015329
	O378	O	0.843581	0.774605	0.765444
	H379	H	0.846565	0.777570	0.768814
	H380	H	0.832743	0.770267	0.757828
	O381	O	0.476734	0.506719	0.393879
	H382	H	0.480403	0.502931	0.394913
	H383	H	0.483044	0.499122	0.400111
