data_Molecule from HDF5

_cell_length_a		16.299707
_cell_length_b		16.290586
_cell_length_c		16.244732
_cell_angle_alpha	89.968103
_cell_angle_beta	90.037482
_cell_angle_gamma	90.291796
_symmetry_space_group_name_H-M	'P 1'
_symmetry_Int_Tables_number		1

loop_
	_symmetry_equiv_pos_as_xyz
	x,y,z

loop_
	_atom_site_label
	_atom_site_type_symbol
	_atom_site_fract_x
	_atom_site_fract_y
	_atom_site_fract_z
	H0	H	0.404404	0.829517	0.715236
	H1	H	0.602620	0.156365	0.712817
	H2	H	0.601175	0.828540	0.285188
	H3	H	0.407867	0.157338	0.285612
	H4	H	0.716811	0.395643	0.835068
	H5	H	0.718474	0.592367	0.164138
	H6	H	0.288414	0.592193	0.835505
	H7	H	0.288730	0.394970	0.163772
	H8	H	0.839149	0.705596	0.400339
	H9	H	0.165513	0.708401	0.598994
	H10	H	0.839192	0.278142	0.596047
	H11	H	0.166672	0.278947	0.401032
	H12	H	0.838883	0.394202	0.712196
	H13	H	0.166861	0.591000	0.712476
	H14	H	0.839490	0.589222	0.284841
	H15	H	0.167218	0.396512	0.286435
	H16	H	0.404972	0.707681	0.835708
	H17	H	0.602481	0.708144	0.163820
	H18	H	0.600254	0.280322	0.835231
	H19	H	0.404976	0.278419	0.163643
	H20	H	0.717905	0.828916	0.400202
	H21	H	0.718697	0.156143	0.597241
	H22	H	0.287162	0.829383	0.599388
	H23	H	0.288845	0.156584	0.399445
	H24	H	0.904203	0.328817	0.212851
	H25	H	0.101061	0.656510	0.213180
	H26	H	0.098255	0.328360	0.786694
	H27	H	0.905976	0.657013	0.784608
	H28	H	0.216727	0.894907	0.335578
	H29	H	0.217770	0.091375	0.663819
	H30	H	0.790827	0.088952	0.335548
	H31	H	0.788309	0.892995	0.663768
	H32	H	0.339123	0.205731	0.900645
	H33	H	0.666835	0.209293	0.098073
	H34	H	0.340518	0.776738	0.098394
	H35	H	0.667341	0.779039	0.900375
	H36	H	0.340571	0.892462	0.214966
	H37	H	0.668191	0.093149	0.213841
	H38	H	0.340208	0.091412	0.784057
	H39	H	0.667722	0.895502	0.784611
	H40	H	0.906126	0.204618	0.335185
	H41	H	0.101850	0.206814	0.663226
	H42	H	0.099381	0.779909	0.335627
	H43	H	0.904652	0.777893	0.664067
	H44	H	0.216742	0.329265	0.900601
	H45	H	0.219906	0.656507	0.099928
	H46	H	0.786958	0.330271	0.097994
	H47	H	0.789289	0.657283	0.900148
	H48	H	0.413930	0.108461	0.593711
	H49	H	0.600013	0.875607	0.590740
	H50	H	0.604104	0.113356	0.397162
	H51	H	0.416845	0.878197	0.403912
	H52	H	0.595193	0.398487	0.116842
	H53	H	0.590926	0.591692	0.882638
	H54	H	0.417371	0.592528	0.116277
	H55	H	0.401861	0.390727	0.877709
	H56	H	0.120693	0.593161	0.408262
	H57	H	0.890073	0.577054	0.588473
	H58	H	0.122559	0.396874	0.602076
	H59	H	0.886374	0.400336	0.404776
	H60	H	0.119571	0.393311	0.585199
	H61	H	0.884272	0.584319	0.601913
	H62	H	0.117245	0.582738	0.411219
	H63	H	0.885371	0.395936	0.403512
	H64	H	0.402301	0.587570	0.118448
	H65	H	0.603715	0.588480	0.881365
	H66	H	0.598419	0.402786	0.116748
	H67	H	0.404233	0.409773	0.884242
	H68	H	0.585798	0.106015	0.405566
	H69	H	0.595515	0.874347	0.597005
	H70	H	0.411411	0.107656	0.588345
	H71	H	0.408767	0.879032	0.415142
	H72	H	0.908291	0.611424	0.095106
	H73	H	0.094660	0.375676	0.097667
	H74	H	0.096495	0.609820	0.904593
	H75	H	0.906937	0.375273	0.903928
	H76	H	0.087201	0.890470	0.616820
	H77	H	0.102680	0.084296	0.381082
	H78	H	0.914014	0.082291	0.614945
	H79	H	0.910061	0.894080	0.381544
	H80	H	0.621348	0.090833	0.903565
	H81	H	0.385741	0.087610	0.097716
	H82	H	0.616613	0.900605	0.082953
	H83	H	0.390244	0.903699	0.909290
	H84	H	0.619149	0.908567	0.097541
	H85	H	0.388430	0.088849	0.087881
	H86	H	0.619423	0.088945	0.910575
	H87	H	0.386727	0.900320	0.903417
	H88	H	0.912823	0.091261	0.617631
	H89	H	0.092479	0.080580	0.386195
	H90	H	0.107681	0.898249	0.620763
	H91	H	0.905672	0.901179	0.382226
	H92	H	0.095596	0.607839	0.908024
	H93	H	0.092443	0.378399	0.088651
	H94	H	0.915531	0.608680	0.094353
	H95	H	0.911088	0.377920	0.905415
	H96	H	0.407559	0.110158	0.593104
	H97	H	0.592750	0.878398	0.590379
	H98	H	0.603374	0.106615	0.417377
	H99	H	0.403137	0.874308	0.403280
	H100	H	0.593471	0.402825	0.114919
	H101	H	0.594966	0.579619	0.885571
	H102	H	0.412690	0.577192	0.113064
	H103	H	0.420176	0.397036	0.885428
	H104	H	0.120229	0.585189	0.400836
	H105	H	0.884918	0.592792	0.587584
	H106	H	0.116484	0.409264	0.591474
	H107	H	0.886373	0.397613	0.408102
	H108	H	0.910323	0.608337	0.088089
	H109	H	0.101760	0.375832	0.091011
	H110	H	0.099395	0.609919	0.907045
	H111	H	0.907378	0.376674	0.908812
	H112	H	0.091999	0.911716	0.611665
	H113	H	0.093432	0.091445	0.381462
	H114	H	0.905397	0.085131	0.618041
	H115	H	0.913475	0.901074	0.385336
	H116	H	0.618730	0.083730	0.905480
	H117	H	0.389618	0.079635	0.092496
	H118	H	0.623648	0.892673	0.095924
	H119	H	0.388067	0.896626	0.909706
	C120	C	0.381623	0.001100	0.621393
	C121	C	0.625131	0.984214	0.620892
	C122	C	0.625547	0.000547	0.378273
	C123	C	0.381692	0.985098	0.377862
	C124	C	0.623594	0.372931	0.007546
	C125	C	0.625238	0.615446	0.991513
	C126	C	0.382160	0.614238	0.007706
	C127	C	0.380752	0.371118	0.991161
	C128	C	0.011079	0.614497	0.377950
	C129	C	0.994407	0.613966	0.621453
	C130	C	0.011194	0.371009	0.620931
	C131	C	0.994534	0.370774	0.377413
	C132	C	0.881970	0.501253	0.120951
	C133	C	0.125072	0.484546	0.121056
	C134	C	0.124956	0.501191	0.877661
	C135	C	0.881072	0.485225	0.877507
	C136	C	0.124252	0.871436	0.508299
	C137	C	0.125343	0.114621	0.491116
	C138	C	0.882519	0.113497	0.508220
	C139	C	0.880866	0.870249	0.491240
	C140	C	0.511533	0.115270	0.877615
	C141	C	0.496067	0.114817	0.121128
	C142	C	0.512068	0.871012	0.121358
	C143	C	0.495888	0.871950	0.878141
	C144	C	0.383963	0.878091	0.676828
	C145	C	0.623038	0.107496	0.675310
	C146	C	0.622415	0.877695	0.322616
	C147	C	0.386328	0.108361	0.323348
	C148	C	0.678653	0.375363	0.884031
	C149	C	0.680746	0.613249	0.114969
	C150	C	0.327158	0.611786	0.884224
	C151	C	0.326079	0.373916	0.114729
	C152	C	0.887955	0.668128	0.380105
	C153	C	0.116991	0.670187	0.619125
	C154	C	0.888045	0.315591	0.617584
	C155	C	0.117869	0.316612	0.380584
	C156	C	0.887937	0.373496	0.674933
	C157	C	0.117535	0.611755	0.675672
	C158	C	0.888280	0.610307	0.322496
	C159	C	0.118186	0.374888	0.323552
	C160	C	0.384677	0.669392	0.884364
	C161	C	0.622676	0.670354	0.115015
	C162	C	0.620922	0.317894	0.884172
	C163	C	0.383672	0.315994	0.114630
	C164	C	0.680110	0.877802	0.379969
	C165	C	0.681077	0.106996	0.618233
	C166	C	0.325632	0.878165	0.619501
	C167	C	0.327287	0.108044	0.380050
	C168	C	0.884072	0.377977	0.175401
	C169	C	0.122520	0.607726	0.175977
	C170	C	0.120498	0.377714	0.823213
	C171	C	0.884947	0.608184	0.822396
	C172	C	0.178871	0.874301	0.384568
	C173	C	0.180406	0.112066	0.614509
	C174	C	0.827930	0.109948	0.384618
	C175	C	0.826255	0.872716	0.614872
	C176	C	0.388306	0.168730	0.880165
	C177	C	0.618520	0.170870	0.118538
	C178	C	0.389168	0.815128	0.118956
	C179	C	0.618686	0.816634	0.879842
	C180	C	0.389260	0.872695	0.176513
	C181	C	0.619209	0.112836	0.175828
	C182	C	0.388912	0.111744	0.822160
	C183	C	0.618931	0.874783	0.822644
	C184	C	0.885552	0.167432	0.384384
	C185	C	0.122829	0.169629	0.614191
	C186	C	0.120688	0.817158	0.384591
	C187	C	0.883842	0.815436	0.614907
	C188	C	0.178736	0.377878	0.880403
	C189	C	0.181285	0.607661	0.119455
	C190	C	0.825765	0.378581	0.118430
	C191	C	0.826849	0.608314	0.879630
	C192	C	0.404315	0.086587	0.598543
	C193	C	0.602562	0.898231	0.598959
	C194	C	0.604117	0.086585	0.400252
	C195	C	0.403173	0.899348	0.400758
	C196	C	0.601897	0.394770	0.093773
	C197	C	0.603106	0.593158	0.905510
	C198	C	0.404326	0.592175	0.093659
	C199	C	0.402306	0.392943	0.904943
	C200	C	0.097129	0.593248	0.400274
	C201	C	0.908334	0.591432	0.599190
	C202	C	0.097115	0.393238	0.599317
	C203	C	0.908378	0.391776	0.398958
	C204	C	0.904730	0.587366	0.098947
	C205	C	0.102863	0.398772	0.099050
	C206	C	0.103732	0.587035	0.899891
	C207	C	0.902127	0.398853	0.899648
	C208	C	0.102274	0.893686	0.594136
	C209	C	0.102935	0.092081	0.405014
	C210	C	0.904180	0.092270	0.594664
	C211	C	0.902849	0.892318	0.405364
	C212	C	0.597428	0.094244	0.899973
	C213	C	0.410128	0.091991	0.099126
	C214	C	0.597588	0.893792	0.098767
	C215	C	0.410418	0.893828	0.900790
	Zn216	Zn	0.503940	-0.006737	0.749487
	Zn217	Zn	0.504487	-0.007180	0.249501
	Zn218	Zn	0.752903	0.493814	-0.000359
	Zn219	Zn	0.253304	0.493189	-0.000573
	Zn220	Zn	0.002424	0.742356	0.499566
	Zn221	Zn	0.003221	0.242596	0.499049
	Zn222	Zn	0.002888	0.492775	0.749611
	Zn223	Zn	0.003486	0.492889	0.249402
	Zn224	Zn	0.503609	0.743160	-0.000643
	Zn225	Zn	0.503141	0.243738	-0.000501
	Zn226	Zn	0.753492	-0.008079	0.499712
	Zn227	Zn	0.252900	-0.007010	0.499648
	N228	N	0.418104	0.955411	0.677997
	N229	N	0.589018	0.030188	0.676972
	N230	N	0.589092	0.955150	0.321562
	N231	N	0.419076	0.030700	0.321683
	N232	N	0.680480	0.409091	0.961615
	N233	N	0.682389	0.579739	0.037135
	N234	N	0.325244	0.578510	0.962048
	N235	N	0.324116	0.407142	0.036893
	N236	N	0.965605	0.670934	0.413725
	N237	N	0.039375	0.671382	0.585837
	N238	N	0.965841	0.313735	0.584910
	N239	N	0.040014	0.313893	0.413189
	N240	N	0.965399	0.407297	0.677145
	N241	N	0.040231	0.577707	0.677220
	N242	N	0.965821	0.577663	0.321256
	N243	N	0.040488	0.407587	0.321274
	N244	N	0.418344	0.671181	0.962046
	N245	N	0.589121	0.671976	0.037315
	N246	N	0.587363	0.316618	0.961902
	N247	N	0.416814	0.313964	0.036756
	N248	N	0.681867	0.955079	0.413955
	N249	N	0.682328	0.029287	0.584934
	N250	N	0.324200	0.955583	0.585527
	N251	N	0.324438	0.030276	0.413334
	N252	N	0.918482	0.455417	0.177001
	N253	N	0.088358	0.530383	0.177217
	N254	N	0.087465	0.455281	0.821872
	N255	N	0.917717	0.530514	0.821009
	N256	N	0.181439	0.907186	0.462461
	N257	N	0.182227	0.078702	0.536727
	N258	N	0.826068	0.077030	0.462584
	N259	N	0.824328	0.906088	0.537034
	N260	N	0.465747	0.171090	0.913961
	N261	N	0.540877	0.172099	0.085258
	N262	N	0.466514	0.814133	0.085203
	N263	N	0.541303	0.814791	0.913654
	N264	N	0.466693	0.906704	0.178219
	N265	N	0.541898	0.078462	0.177444
	N266	N	0.466493	0.079164	0.820495
	N267	N	0.541577	0.908264	0.821328
	N268	N	0.918704	0.169763	0.462224
	N269	N	0.089196	0.171139	0.536500
	N270	N	0.087542	0.815088	0.462463
	N271	N	0.916805	0.813475	0.537086
	N272	N	0.181735	0.455668	0.913355
	N273	N	0.182819	0.530073	0.085918
	N274	N	0.824947	0.456128	0.084903
	N275	N	0.824610	0.530730	0.913426
	O276	O	1.057569	1.018838	0.029933
	H277	H	1.067438	1.021727	0.034689
	H278	H	1.056806	1.012178	0.019445
	O279	O	0.045850	-0.072328	-0.001037
	H280	H	0.048920	-0.071309	-0.003068
	H281	H	0.044592	-0.077170	-0.002335
	O282	O	0.000497	-0.012862	0.988738
	H283	H	0.007263	-0.019524	0.993164
	H284	H	-0.013624	-0.021939	0.994218
	O285	O	0.477564	0.509962	0.551995
	H286	H	0.465699	0.510813	0.552736
	H287	H	0.479170	0.509420	0.555904
	O288	O	0.476467	0.554585	0.494758
	H289	H	0.467862	0.550910	0.497200
	H290	H	0.478894	0.553032	0.486120
	O291	O	0.484815	0.490124	0.531331
	H292	H	0.481615	0.491725	0.530738
	H293	H	0.480030	0.494311	0.530917
	O294	O	0.096114	0.052361	0.064059
	H295	H	0.107202	0.054317	0.071769
	H296	H	0.093740	0.060249	0.059838
	O297	O	0.503493	0.526347	0.548535
	H298	H	0.510928	0.536386	0.546432
	H299	H	0.500333	0.524694	0.548789
	O300	O	0.006818	1.018282	1.051223
	H301	H	0.004402	1.009999	1.041472
	H302	H	0.014844	1.024297	1.057578
	O303	O	0.445244	0.504505	0.511326
	H304	H	0.450781	0.499849	0.519717
	H305	H	0.449713	0.499866	0.508599
	O306	O	-0.533488	0.540630	0.577156
	H307	H	-0.532574	0.539460	0.584474
	H308	H	-0.530582	0.548167	0.573919
	O309	O	1.066341	1.030225	1.010260
	H310	H	1.072703	1.049568	1.008882
	H311	H	1.067367	1.035161	1.021956
	O312	O	0.454698	0.473408	0.514500
	H313	H	0.447760	0.476758	0.518719
	H314	H	0.455421	0.473983	0.516750
	O315	O	0.502076	0.559592	0.559373
	H316	H	0.501569	0.560645	0.557094
	H317	H	0.501204	0.572686	0.553535
	O318	O	0.070473	1.039209	0.003706
	H319	H	0.056520	1.034544	0.009694
	H320	H	0.076653	1.038144	0.002396
	O321	O	1.007390	0.985382	0.093329
	H322	H	1.003198	0.994422	0.094029
	H323	H	1.003135	0.986017	0.082051
