data_Molecule from HDF5

_cell_length_a		16.709803
_cell_length_b		16.466431
_cell_length_c		16.599126
_cell_angle_alpha	90.080081
_cell_angle_beta	89.998572
_cell_angle_gamma	90.128389
_symmetry_space_group_name_H-M	'P 1'
_symmetry_Int_Tables_number		1

loop_
	_symmetry_equiv_pos_as_xyz
	x,y,z

loop_
	_atom_site_label
	_atom_site_type_symbol
	_atom_site_fract_x
	_atom_site_fract_y
	_atom_site_fract_z
	H0	H	0.381700	0.843820	0.706647
	H1	H	0.590292	0.159315	0.708545
	H2	H	0.590673	0.846895	0.265442
	H3	H	0.381601	0.159053	0.267934
	H4	H	0.706078	0.397201	0.832225
	H5	H	0.704028	0.605181	0.144758
	H6	H	0.262843	0.607186	0.831909
	H7	H	0.263467	0.396513	0.144092
	H8	H	0.827307	0.718722	0.388473
	H9	H	0.140614	0.722088	0.591328
	H10	H	0.829321	0.282048	0.590210
	H11	H	0.141915	0.282582	0.384600
	H12	H	0.830179	0.396804	0.708622
	H13	H	0.139357	0.607909	0.710183
	H14	H	0.827485	0.602718	0.269982
	H15	H	0.141509	0.398262	0.266701
	H16	H	0.383107	0.720233	0.830144
	H17	H	0.585486	0.719583	0.144814
	H18	H	0.586118	0.284007	0.830012
	H19	H	0.381708	0.282728	0.144885
	H20	H	0.707058	0.846796	0.381300
	H21	H	0.705837	0.159799	0.593057
	H22	H	0.264176	0.844309	0.593396
	H23	H	0.263360	0.157895	0.381811
	H24	H	0.882645	0.343599	0.205757
	H25	H	0.085079	0.661483	0.203920
	H26	H	0.089674	0.345202	0.765774
	H27	H	0.880554	0.659576	0.768215
	H28	H	0.206862	0.895065	0.333134
	H29	H	0.208513	0.108728	0.642914
	H30	H	0.763085	0.108445	0.332591
	H31	H	0.760614	0.894914	0.643145
	H32	H	0.329164	0.223279	0.880805
	H33	H	0.639085	0.223636	0.090973
	H34	H	0.331924	0.779422	0.091667
	H35	H	0.641678	0.780277	0.881262
	H36	H	0.332852	0.893243	0.210743
	H37	H	0.637452	0.111089	0.211187
	H38	H	0.329523	0.106306	0.764492
	H39	H	0.640144	0.895168	0.763655
	H40	H	0.882150	0.221249	0.330698
	H41	H	0.091137	0.223904	0.643615
	H42	H	0.084862	0.784435	0.330644
	H43	H	0.878249	0.779674	0.643842
	H44	H	0.206282	0.344531	0.880245
	H45	H	0.203517	0.659814	0.090774
	H46	H	0.765382	0.343918	0.091527
	H47	H	0.763548	0.658733	0.882785
	H48	H	0.400095	0.112391	0.574786
	H49	H	0.571819	0.890398	0.577079
	H50	H	0.566397	0.110774	0.402451
	H51	H	0.400406	0.890775	0.398590
	H52	H	0.572991	0.416239	0.097329
	H53	H	0.573327	0.589114	0.876105
	H54	H	0.391681	0.591591	0.100417
	H55	H	0.393043	0.414779	0.875392
	H56	H	0.099851	0.597614	0.389299
	H57	H	0.870115	0.597235	0.582475
	H58	H	0.095701	0.409674	0.571394
	H59	H	0.871474	0.408162	0.393450
	H60	H	0.092799	0.421106	0.576175
	H61	H	0.875629	0.591615	0.569852
	H62	H	0.095980	0.598084	0.401570
	H63	H	0.875442	0.410595	0.402094
	H64	H	0.393897	0.587237	0.097862
	H65	H	0.577300	0.593077	0.874181
	H66	H	0.572086	0.408956	0.100545
	H67	H	0.395151	0.414904	0.876801
	H68	H	0.579846	0.115868	0.406512
	H69	H	0.573876	0.890854	0.572866
	H70	H	0.394531	0.113943	0.572122
	H71	H	0.393959	0.890081	0.402883
	H72	H	0.897093	0.613587	0.076327
	H73	H	0.075480	0.388327	0.078257
	H74	H	0.073797	0.614637	0.897618
	H75	H	0.897155	0.390085	0.900148
	H76	H	0.073710	0.916233	0.599626
	H77	H	0.072230	0.089253	0.377777
	H78	H	0.892969	0.094087	0.602238
	H79	H	0.895051	0.915636	0.377167
	H80	H	0.595893	0.091978	0.896606
	H81	H	0.372152	0.093920	0.078272
	H82	H	0.598869	0.909435	0.078292
	H83	H	0.373527	0.910570	0.895577
	H84	H	0.596002	0.913521	0.071724
	H85	H	0.373444	0.089823	0.074108
	H86	H	0.595184	0.092112	0.898462
	H87	H	0.375947	0.911401	0.899519
	H88	H	0.893944	0.086919	0.598747
	H89	H	0.076579	0.093340	0.374368
	H90	H	0.073649	0.909252	0.600846
	H91	H	0.896424	0.914294	0.377990
	H92	H	0.071079	0.611937	0.902386
	H93	H	0.073814	0.388489	0.077769
	H94	H	0.889707	0.616406	0.076468
	H95	H	0.896058	0.390260	0.901248
	H96	H	0.395405	0.115282	0.577801
	H97	H	0.576281	0.887969	0.575797
	H98	H	0.574396	0.117952	0.392163
	H99	H	0.394045	0.887217	0.395786
	H100	H	0.579100	0.413490	0.101624
	H101	H	0.578729	0.587003	0.874735
	H102	H	0.397045	0.591543	0.099535
	H103	H	0.394659	0.412368	0.876451
	H104	H	0.095411	0.586955	0.394985
	H105	H	0.873620	0.582870	0.581469
	H106	H	0.099136	0.412479	0.582999
	H107	H	0.875824	0.416939	0.394696
	H108	H	0.894146	0.616736	0.083429
	H109	H	0.075026	0.388594	0.076497
	H110	H	0.077079	0.613627	0.902337
	H111	H	0.895396	0.389657	0.899957
	H112	H	0.079531	0.912748	0.602137
	H113	H	0.078430	0.087137	0.376183
	H114	H	0.899965	0.092089	0.598699
	H115	H	0.895220	0.913639	0.377071
	H116	H	0.594306	0.090522	0.897498
	H117	H	0.372661	0.087769	0.080037
	H118	H	0.596347	0.917374	0.079243
	H119	H	0.375687	0.914216	0.896634
	C120	C	0.364682	0.009784	0.607779
	C121	C	0.606200	0.993756	0.608205
	C122	C	0.606210	0.011600	0.367033
	C123	C	0.363842	0.992875	0.366338
	C124	C	0.606014	0.380920	-0.003667
	C125	C	0.606413	0.621707	0.978869
	C126	C	0.363351	0.622385	-0.004350
	C127	C	0.362544	0.380933	0.979418
	C128	C	-0.007026	0.623924	0.365978
	C129	C	0.976000	0.622991	0.609443
	C130	C	-0.006289	0.380953	0.609193
	C131	C	0.977412	0.380621	0.365633
	C132	C	0.863258	0.510766	0.109372
	C133	C	0.105735	0.493417	0.108835
	C134	C	0.106011	0.510023	0.867222
	C135	C	0.864467	0.494074	0.868147
	C136	C	0.105974	0.880992	0.497146
	C137	C	0.107777	0.123018	0.479160
	C138	C	0.864119	0.123163	0.496389
	C139	C	0.862419	0.881017	0.480088
	C140	C	0.492830	0.123356	0.865223
	C141	C	0.475316	0.123478	0.108995
	C142	C	0.494872	0.880612	0.108466
	C143	C	0.477332	0.879598	0.864935
	C144	C	0.363079	0.891105	0.667189
	C145	C	0.608479	0.112069	0.668597
	C146	C	0.608835	0.893538	0.306009
	C147	C	0.362259	0.111448	0.306921
	C148	C	0.665495	0.378832	0.878719
	C149	C	0.664162	0.623609	0.097702
	C150	C	0.303873	0.624703	0.878217
	C151	C	0.303447	0.378399	0.097083
	C152	C	0.874389	0.680281	0.367870
	C153	C	0.093543	0.682680	0.610609
	C154	C	0.876444	0.321176	0.609845
	C155	C	0.095077	0.322109	0.365265
	C156	C	0.876755	0.378293	0.668625
	C157	C	0.092882	0.625994	0.669739
	C158	C	0.874396	0.622545	0.309360
	C159	C	0.094939	0.379945	0.307000
	C160	C	0.363354	0.681054	0.877526
	C161	C	0.605421	0.680247	0.097747
	C162	C	0.605897	0.322702	0.877670
	C163	C	0.362304	0.321796	0.097440
	C164	C	0.666660	0.893889	0.363396
	C165	C	0.666109	0.112160	0.611165
	C166	C	0.304879	0.891305	0.610553
	C167	C	0.303635	0.110895	0.363666
	C168	C	0.863345	0.391159	0.166867
	C169	C	0.105355	0.613388	0.165899
	C170	C	0.108020	0.392143	0.806170
	C171	C	0.862190	0.612217	0.808150
	C172	C	0.165693	0.877781	0.379495
	C173	C	0.168271	0.126886	0.596279
	C174	C	0.803662	0.126182	0.379248
	C175	C	0.801341	0.877093	0.596677
	C176	C	0.375897	0.183228	0.862700
	C177	C	0.592133	0.184073	0.110432
	C178	C	0.378462	0.819510	0.110635
	C179	C	0.594428	0.819792	0.862617
	C180	C	0.378959	0.876135	0.169713
	C181	C	0.591601	0.127884	0.169859
	C182	C	0.376114	0.125166	0.804750
	C183	C	0.593819	0.877273	0.804263
	C184	C	0.863180	0.182057	0.378072
	C185	C	0.109864	0.184071	0.596387
	C186	C	0.105395	0.822518	0.378414
	C187	C	0.859650	0.819833	0.596962
	C188	C	0.165905	0.391832	0.863311
	C189	C	0.163985	0.612519	0.109413
	C190	C	0.804984	0.391485	0.110197
	C191	C	0.803852	0.611798	0.864918
	C192	C	0.389531	0.092472	0.582254
	C193	C	0.580971	0.911127	0.582621
	C194	C	0.580842	0.093609	0.392937
	C195	C	0.389016	0.910546	0.391672
	C196	C	0.581860	0.405748	0.078549
	C197	C	0.583158	0.596917	0.896640
	C198	C	0.387442	0.597377	0.077856
	C199	C	0.387184	0.406550	0.897504
	C200	C	0.075576	0.600888	0.388613
	C201	C	0.894592	0.597803	0.585058
	C202	C	0.074788	0.406949	0.583960
	C203	C	0.895540	0.404899	0.389805
	C204	C	0.886888	0.593958	0.085553
	C205	C	0.081650	0.410068	0.084634
	C206	C	0.081043	0.592222	0.893421
	C207	C	0.889233	0.411504	0.893364
	C208	C	0.082400	0.905661	0.579477
	C209	C	0.083021	0.097111	0.397512
	C210	C	0.888703	0.098294	0.578432
	C211	C	0.888098	0.907116	0.398615
	C212	C	0.573964	0.098597	0.890259
	C213	C	0.393882	0.097659	0.084503
	C214	C	0.575861	0.906291	0.083586
	C215	C	0.396189	0.904957	0.890082
	Zn216	Zn	0.485258	0.001560	0.736073
	Zn217	Zn	0.485456	0.002553	0.238037
	Zn218	Zn	0.735527	0.501937	-0.011834
	Zn219	Zn	0.233520	0.501664	-0.012282
	Zn220	Zn	-0.016221	0.752875	0.488649
	Zn221	Zn	-0.014209	0.251487	0.487482
	Zn222	Zn	-0.015602	0.501985	0.739437
	Zn223	Zn	-0.015440	0.502132	0.236580
	Zn224	Zn	0.486022	0.751061	-0.013383
	Zn225	Zn	0.483816	0.252423	-0.012728
	Zn226	Zn	0.734557	0.002641	0.488000
	Zn227	Zn	0.236049	0.001375	0.488254
	N228	N	0.399609	0.965944	0.665707
	N229	N	0.571876	0.037238	0.666926
	N230	N	0.571872	0.967833	0.308045
	N231	N	0.398957	0.036894	0.308424
	N232	N	0.665849	0.414043	0.953647
	N233	N	0.665306	0.588266	0.022764
	N234	N	0.303246	0.589366	0.953203
	N235	N	0.303279	0.414325	0.022476
	N236	N	0.949150	0.681485	0.402129
	N237	N	0.019915	0.681079	0.573722
	N238	N	0.950389	0.322268	0.573904
	N239	N	0.021054	0.322457	0.400915
	N240	N	0.950674	0.414714	0.668446
	N241	N	0.018777	0.589898	0.669427
	N242	N	0.949393	0.588726	0.307618
	N243	N	0.020617	0.415508	0.306858
	N244	N	0.399526	0.679757	0.951648
	N245	N	0.570388	0.679346	0.022950
	N246	N	0.569668	0.323647	0.951963
	N247	N	0.398242	0.323177	0.023092
	N248	N	0.665235	0.968308	0.400417
	N249	N	0.664885	0.037476	0.574441
	N250	N	0.305787	0.966207	0.574326
	N251	N	0.304419	0.035890	0.399835
	N252	N	0.898653	0.466511	0.166688
	N253	N	0.070109	0.537940	0.165958
	N254	N	0.071432	0.466725	0.808437
	N255	N	0.899188	0.537823	0.809997
	N256	N	0.166420	0.913339	0.454322
	N257	N	0.167352	0.089694	0.522145
	N258	N	0.803845	0.090563	0.453955
	N259	N	0.802911	0.914484	0.522759
	N260	N	0.449522	0.182504	0.899481
	N261	N	0.518740	0.181771	0.073321
	N262	N	0.451458	0.822251	0.073036
	N263	N	0.520907	0.820820	0.899470
	N264	N	0.452408	0.913431	0.168962
	N265	N	0.517869	0.091064	0.169168
	N266	N	0.450009	0.089023	0.805793
	N267	N	0.519954	0.913700	0.805420
	N268	N	0.900119	0.180543	0.452023
	N269	N	0.072946	0.181894	0.522575
	N270	N	0.069229	0.824055	0.452650
	N271	N	0.897109	0.822402	0.523331
	N272	N	0.164590	0.466218	0.900894
	N273	N	0.164511	0.536721	0.074966
	N274	N	0.804644	0.466957	0.075236
	N275	N	0.805272	0.537227	0.901675
	O276	O	0.027407	1.021411	-0.150715
	H277	H	0.013342	1.020783	-0.147329
	H278	H	0.026739	1.025249	-0.158450
	O279	O	0.700446	0.470685	-0.728431
	H280	H	0.695831	0.440137	-0.728925
	H281	H	0.721594	0.448548	-0.749083
	O282	O	1.210674	-0.212465	0.958740
	H283	H	1.221402	-0.233742	0.950295
	H284	H	1.206477	-0.221884	0.933069
	O285	O	0.546635	0.694880	0.399127
	H286	H	0.548070	0.687195	0.411846
	H287	H	0.545791	0.694394	0.405690
	O288	O	0.197960	0.925822	1.042340
	H289	H	0.206063	0.899297	1.033317
	H290	H	0.196329	0.937841	1.032387
	O291	O	0.480067	0.611338	0.631210
	H292	H	0.489884	0.603234	0.621033
	H293	H	0.485754	0.621972	0.644240
	O294	O	0.446466	-0.308348	1.522949
	H295	H	0.445218	-0.316374	1.530159
	H296	H	0.447334	-0.301146	1.517702
	O297	O	0.017349	0.874415	1.128872
	H298	H	0.005940	0.890672	1.119461
	H299	H	-0.014051	0.857227	1.149835
	O300	O	0.257957	0.276374	0.711310
	H301	H	0.252274	0.276897	0.709338
	H302	H	0.261700	0.299983	0.716974
	O303	O	0.760925	-0.028309	0.206324
	H304	H	0.734430	-0.032248	0.230052
	H305	H	0.771969	-0.039443	0.197262
	O306	O	0.990361	0.951544	1.148705
	H307	H	0.997022	0.960285	1.138045
	H308	H	0.986627	0.949110	1.147742
	O309	O	0.057967	0.214171	0.193102
	H310	H	0.069753	0.222882	0.198716
	H311	H	0.073953	0.222003	0.199570
	O312	O	0.497569	0.329110	0.303094
	H313	H	0.489503	0.318649	0.292913
	H314	H	0.486307	0.334688	0.303109
	O315	O	1.451686	0.708691	1.280085
	H316	H	1.449877	0.711747	1.291090
	H317	H	1.466862	0.715468	1.267807
	O318	O	0.207728	0.040041	0.943941
	H319	H	0.204169	0.051441	0.947710
	H320	H	0.214306	0.045562	0.948741
	O321	O	0.206026	0.217199	0.019067
	H322	H	0.194487	0.225484	0.003579
	H323	H	0.217614	0.237991	0.017731
	O324	O	1.196859	0.966395	-0.226396
	H325	H	1.202962	0.964722	-0.225137
	H326	H	1.203458	0.972222	-0.229025
	O327	O	-0.229664	0.040896	0.778395
	H328	H	-0.238477	0.031104	0.766798
	H329	H	-0.232680	0.020650	0.792912
	O330	O	1.185521	0.810612	1.181640
	H331	H	1.161343	0.827976	1.166754
	H332	H	1.171398	0.830879	1.160738
	O333	O	-0.010976	-0.078088	-0.172334
	H334	H	-0.019783	-0.099371	-0.164289
	H335	H	-0.000491	-0.087737	-0.167588
	O336	O	0.770676	-0.209890	0.198304
	H337	H	0.773168	-0.191534	0.178186
	H338	H	0.737345	-0.242004	0.229994
	O339	O	1.694335	-0.427572	0.526806
	H340	H	1.696124	-0.440724	0.525453
	H341	H	1.697052	-0.443984	0.522853
	O342	O	0.264104	0.538874	-0.730488
	H343	H	0.263864	0.559978	-0.732582
	H344	H	0.248167	0.545141	-0.751600
	O345	O	-0.085114	1.207851	1.045373
	H346	H	-0.072049	1.208397	1.061568
	H347	H	-0.080112	1.206536	1.027826
	O348	O	0.262720	0.717416	0.449878
	H349	H	0.267325	0.722447	0.415113
	H350	H	0.244054	0.743954	0.436343
	O351	O	0.882484	0.815507	-0.064561
	H352	H	0.891792	0.815839	-0.069156
	H353	H	0.887088	0.814696	-0.065176
	O354	O	-0.045877	0.220005	0.770330
	H355	H	-0.065711	0.239148	0.749928
	H356	H	-0.051932	0.212146	0.762080
	O357	O	-0.219923	0.989297	0.939579
	H358	H	-0.217489	0.994352	0.940741
	H359	H	-0.216692	0.995032	0.940035
	O360	O	0.978482	0.030697	0.810765
	H361	H	0.987711	0.017542	0.813298
	H362	H	0.967279	0.021806	0.811633
	O363	O	-0.803236	-0.208362	-0.219174
	H364	H	-0.814333	-0.179345	-0.218781
	H365	H	-0.771734	-0.239328	-0.252975
	O366	O	0.372855	0.378115	0.523944
	H367	H	0.358487	0.360848	0.531570
	H368	H	0.370708	0.379593	0.523557
	O369	O	1.281186	-0.293587	0.281462
	H370	H	1.252258	-0.259463	0.247373
	H371	H	1.315316	-0.303693	0.276060
	O372	O	1.555260	1.625452	0.604914
	H373	H	1.559487	1.619158	0.599465
	H374	H	1.573746	1.634845	0.602786
	O375	O	0.774535	0.210921	-0.218579
	H376	H	0.774212	0.166898	-0.218193
	H377	H	0.772256	0.220648	-0.219189
	O378	O	-0.069730	0.024583	0.907148
	H379	H	-0.068389	0.023410	0.902094
	H380	H	-0.073627	0.024850	0.903664
	O381	O	-0.229334	1.051512	1.048257
	H382	H	-0.223410	1.046188	1.052921
	H383	H	-0.217933	1.057774	1.046058
	O384	O	1.118559	0.170136	0.821169
	H385	H	1.124952	0.172019	0.804660
	H386	H	1.098159	0.159311	0.820574
	O387	O	1.594834	0.522057	0.438711
	H388	H	1.593108	0.513040	0.430683
	H389	H	1.602934	0.501226	0.445088
	O390	O	0.452819	0.495562	0.454811
	H391	H	0.444690	0.501091	0.458419
	H392	H	0.453923	0.501899	0.445679
	O393	O	0.031731	0.847357	0.973081
	H394	H	0.036796	0.856519	0.986863
	H395	H	0.044613	0.842135	0.975456
	O396	O	0.229569	1.244093	1.209088
	H397	H	0.248843	1.245747	1.201286
	H398	H	0.234465	1.218594	1.197058
	O399	O	-0.310194	0.495399	0.487380
	H400	H	-0.315313	0.478279	0.509495
	H401	H	-0.298316	0.466163	0.468365
	O402	O	0.355672	0.297448	0.358623
	H403	H	0.358757	0.306032	0.375347
	H404	H	0.344884	0.299806	0.362832
	O405	O	1.031578	0.197428	0.934493
	H406	H	1.030298	0.196401	0.919768
	H407	H	1.016302	0.199673	0.931921
	O408	O	0.018975	-0.212987	-0.230489
	H409	H	0.033025	-0.228498	-0.235748
	H410	H	0.035281	-0.220448	-0.229277
	O411	O	1.055173	1.065153	1.034651
	H412	H	1.062276	1.063848	1.043538
	H413	H	1.057806	1.066573	1.024655
	O414	O	1.209007	0.028580	0.209597
	H415	H	1.212725	0.032308	0.215420
	H416	H	1.225046	0.024539	0.214797
	O417	O	0.407206	0.600045	0.701967
	H418	H	0.409077	0.613099	0.695199
	H419	H	0.424394	0.602524	0.717520
	O420	O	0.523088	0.496485	0.428135
	H421	H	0.527963	0.510098	0.421691
	H422	H	0.516165	0.500769	0.442164
	O423	O	0.275078	-0.604983	1.613837
	H424	H	0.273481	-0.600674	1.606797
	H425	H	0.263738	-0.585808	1.625798
	O426	O	0.760025	-0.215288	0.026431
	H427	H	0.773699	-0.208249	0.037664
	H428	H	0.740274	-0.245877	0.025500
	O429	O	0.813042	0.827751	0.807537
	H430	H	0.802352	0.828896	0.816797
	H431	H	0.835825	0.825986	0.817567
	O432	O	0.449701	0.456949	0.647996
	H433	H	0.433877	0.473397	0.640147
	H434	H	0.440066	0.432074	0.640309
	O435	O	0.483405	0.405850	0.600957
	H436	H	0.478055	0.414856	0.589141
	H437	H	0.468410	0.397541	0.608494
	O438	O	-0.058481	0.108686	0.197145
	H439	H	-0.055736	0.119594	0.206141
	H440	H	-0.062765	0.098215	0.199692
	O441	O	0.699479	0.288075	0.449195
	H442	H	0.693397	0.277967	0.439441
	H443	H	0.713746	0.274052	0.443759
	O444	O	0.673097	0.322194	0.675197
	H445	H	0.683252	0.313598	0.681690
	H446	H	0.647934	0.337659	0.668447
	O447	O	-0.058791	0.782342	1.210949
	H448	H	-0.088567	0.785115	1.214443
	H449	H	-0.063030	0.759226	1.235287
	O450	O	-0.353853	1.298066	1.279763
	H451	H	-0.324549	1.273186	1.257723
	H452	H	-0.385019	1.283817	1.281489
	O453	O	0.315802	0.515566	0.456479
	H454	H	0.326924	0.512628	0.443205
	H455	H	0.305793	0.526448	0.436352
	O456	O	-0.209675	0.188890	1.177915
	H457	H	-0.201375	0.157638	1.166435
	H458	H	-0.181850	0.184831	1.152795
	O459	O	0.978638	0.964050	0.136780
	H460	H	0.969917	0.972443	0.135002
	H461	H	0.991589	0.957656	0.135105
	O462	O	1.507583	0.325462	0.569481
	H463	H	1.509282	0.335046	0.566512
	H464	H	1.507283	0.311564	0.573517
	O465	O	0.762352	0.219938	-0.047581
	H466	H	0.756365	0.229018	-0.059206
	H467	H	0.756781	0.232880	-0.049716
	O468	O	0.449464	0.283340	0.702089
	H469	H	0.453807	0.261619	0.720603
	H470	H	0.429608	0.277715	0.695227
	O471	O	0.669972	0.689663	0.299791
	H472	H	0.657333	0.677123	0.330252
	H473	H	0.649938	0.666044	0.310465
	O474	O	0.295221	0.688045	0.675061
	H475	H	0.314171	0.672160	0.656410
	H476	H	0.310208	0.669540	0.652624
	O477	O	0.501952	0.526896	1.270589
	H478	H	0.514623	0.522980	1.263408
	H479	H	0.491687	0.536905	1.270848
	O480	O	0.640625	0.572564	0.704754
	H481	H	0.647162	0.570387	0.689096
	H482	H	0.643558	0.578992	0.710009
	O483	O	0.298679	0.534255	0.476786
	H484	H	0.310416	0.549784	0.471358
	H485	H	0.292295	0.522200	0.471525
	O486	O	0.471876	0.408322	0.463986
	H487	H	0.471244	0.406965	0.464343
	H488	H	0.453132	0.405455	0.460910
	O489	O	0.689706	1.640676	-0.310748
	H490	H	0.696602	1.634802	-0.305983
	H491	H	0.677041	1.633726	-0.313407
