data_Molecule from HDF5

_cell_length_a		16.352720
_cell_length_b		16.185511
_cell_length_c		16.280492
_cell_angle_alpha	89.620723
_cell_angle_beta	90.069329
_cell_angle_gamma	89.760061
_symmetry_space_group_name_H-M	'P 1'
_symmetry_Int_Tables_number		1

loop_
	_symmetry_equiv_pos_as_xyz
	x,y,z

loop_
	_atom_site_label
	_atom_site_type_symbol
	_atom_site_fract_x
	_atom_site_fract_y
	_atom_site_fract_z
	H0	H	0.393440	0.843713	0.711431
	H1	H	0.594761	0.170362	0.711109
	H2	H	0.593584	0.842007	0.282505
	H3	H	0.393486	0.170870	0.279274
	H4	H	0.709909	0.402809	0.834922
	H5	H	0.705808	0.607796	0.157600
	H6	H	0.269688	0.609938	0.833798
	H7	H	0.272292	0.402984	0.158451
	H8	H	0.830193	0.726055	0.395610
	H9	H	0.154854	0.720697	0.595794
	H10	H	0.829366	0.289454	0.596250
	H11	H	0.155005	0.293590	0.398530
	H12	H	0.828149	0.403790	0.713423
	H13	H	0.152586	0.606132	0.714932
	H14	H	0.828957	0.610861	0.280227
	H15	H	0.152465	0.406291	0.278585
	H16	H	0.387204	0.724484	0.833258
	H17	H	0.588013	0.719478	0.158564
	H18	H	0.589866	0.292139	0.832166
	H19	H	0.390733	0.289048	0.158092
	H20	H	0.710508	0.844391	0.395297
	H21	H	0.708851	0.170289	0.595119
	H22	H	0.276076	0.844108	0.597416
	H23	H	0.276215	0.170846	0.392163
	H24	H	0.889987	0.344791	0.214429
	H25	H	0.087800	0.672649	0.207469
	H26	H	0.089023	0.342425	0.784031
	H27	H	0.886027	0.669307	0.777650
	H28	H	0.208643	0.908243	0.332534
	H29	H	0.209820	0.107013	0.657601
	H30	H	0.777053	0.109512	0.333191
	H31	H	0.775694	0.903135	0.657149
	H32	H	0.328126	0.222590	0.895104
	H33	H	0.652715	0.221980	0.094805
	H34	H	0.327007	0.792544	0.094507
	H35	H	0.652260	0.788975	0.897081
	H36	H	0.329684	0.904514	0.214685
	H37	H	0.654279	0.104122	0.208665
	H38	H	0.330087	0.109717	0.775733
	H39	H	0.654328	0.905427	0.781003
	H40	H	0.893041	0.224286	0.333241
	H41	H	0.091148	0.219770	0.659798
	H42	H	0.092784	0.793164	0.332329
	H43	H	0.895939	0.792639	0.659283
	H44	H	0.204933	0.343675	0.897559
	H45	H	0.206661	0.670032	0.097081
	H46	H	0.775596	0.344172	0.098060
	H47	H	0.771168	0.669786	0.893306
	H48	H	0.408334	0.119511	0.581194
	H49	H	0.583283	0.890248	0.589403
	H50	H	0.575411	0.121823	0.401495
	H51	H	0.398956	0.889934	0.405058
	H52	H	0.578437	0.413714	0.109983
	H53	H	0.588133	0.592033	0.878654
	H54	H	0.401106	0.604128	0.111999
	H55	H	0.384384	0.421176	0.877119
	H56	H	0.106141	0.600499	0.406980
	H57	H	0.876587	0.604676	0.580537
	H58	H	0.106583	0.411479	0.589226
	H59	H	0.876353	0.420182	0.402101
	H60	H	0.105088	0.417740	0.587872
	H61	H	0.878825	0.591198	0.586101
	H62	H	0.106889	0.593806	0.398978
	H63	H	0.874505	0.412126	0.404070
	H64	H	0.389033	0.597031	0.114058
	H65	H	0.572938	0.593671	0.882941
	H66	H	0.584267	0.410461	0.113303
	H67	H	0.405101	0.423872	0.885234
	H68	H	0.589324	0.123099	0.409444
	H69	H	0.584728	0.892264	0.584416
	H70	H	0.394549	0.124120	0.579452
	H71	H	0.403555	0.891017	0.403513
	H72	H	0.894947	0.621853	0.076291
	H73	H	0.087829	0.387843	0.092239
	H74	H	0.078287	0.622697	0.905983
	H75	H	0.900296	0.391920	0.907346
	H76	H	0.089133	0.909015	0.614138
	H77	H	0.085493	0.107876	0.376497
	H78	H	0.897797	0.095679	0.613049
	H79	H	0.902465	0.926108	0.382219
	H80	H	0.606187	0.097573	0.902229
	H81	H	0.374612	0.091059	0.096579
	H82	H	0.606218	0.919994	0.093705
	H83	H	0.374249	0.919429	0.894511
	H84	H	0.610859	0.903414	0.094054
	H85	H	0.372621	0.107388	0.088035
	H86	H	0.607024	0.099154	0.901237
	H87	H	0.373773	0.909152	0.904402
	H88	H	0.902686	0.095377	0.610886
	H89	H	0.091183	0.095625	0.378985
	H90	H	0.089540	0.920320	0.611483
	H91	H	0.907055	0.910301	0.379971
	H92	H	0.080953	0.623708	0.905461
	H93	H	0.074759	0.391076	0.092486
	H94	H	0.887001	0.629704	0.092746
	H95	H	0.896431	0.389993	0.906919
	H96	H	0.401269	0.125857	0.592764
	H97	H	0.587972	0.889520	0.587529
	H98	H	0.588788	0.127987	0.393267
	H99	H	0.402350	0.891321	0.408530
	H100	H	0.584133	0.417646	0.111435
	H101	H	0.581314	0.605618	0.877162
	H102	H	0.400587	0.590130	0.108151
	H103	H	0.399096	0.404167	0.876981
	H104	H	0.110277	0.604206	0.397335
	H105	H	0.873961	0.602107	0.594978
	H106	H	0.106792	0.416767	0.593974
	H107	H	0.877788	0.417401	0.409965
	H108	H	0.905914	0.623907	0.092568
	H109	H	0.081367	0.392809	0.080741
	H110	H	0.079659	0.623563	0.903591
	H111	H	0.899038	0.389725	0.903496
	H112	H	0.079464	0.914001	0.609871
	H113	H	0.077981	0.097831	0.382449
	H114	H	0.900906	0.100124	0.612574
	H115	H	0.891896	0.915348	0.375813
	H116	H	0.607102	0.099416	0.903642
	H117	H	0.378992	0.093050	0.078678
	H118	H	0.604776	0.910253	0.080341
	H119	H	0.378794	0.921911	0.907574
	C120	C	0.371595	0.015561	0.615297
	C121	C	0.615120	0.998460	0.616734
	C122	C	0.614255	0.015892	0.373453
	C123	C	0.371617	0.998744	0.374181
	C124	C	0.612232	0.384465	0.004334
	C125	C	0.609962	0.626676	0.986976
	C126	C	0.366600	0.628294	0.004271
	C127	C	0.367662	0.385549	0.987307
	C128	C	0.000474	0.629989	0.373196
	C129	C	0.983532	0.627879	0.617150
	C130	C	-0.000624	0.384552	0.619445
	C131	C	0.983376	0.386645	0.375356
	C132	C	0.867477	0.516892	0.118058
	C133	C	0.110993	0.498739	0.117420
	C134	C	0.109839	0.515146	0.876052
	C135	C	0.867525	0.498054	0.874630
	C136	C	0.115339	0.885386	0.504096
	C137	C	0.113988	0.128940	0.487146
	C138	C	0.871129	0.127970	0.504518
	C139	C	0.871585	0.886128	0.486768
	C140	C	0.500068	0.129490	0.872021
	C141	C	0.482724	0.126627	0.116124
	C142	C	0.499493	0.882952	0.118681
	C143	C	0.482628	0.885985	0.873787
	C144	C	0.373080	0.892545	0.673078
	C145	C	0.613658	0.121539	0.672335
	C146	C	0.613177	0.891807	0.319408
	C147	C	0.372968	0.121602	0.316952
	C148	C	0.670151	0.384611	0.882844
	C149	C	0.666754	0.626566	0.109198
	C150	C	0.308956	0.628788	0.882344
	C151	C	0.311272	0.384425	0.109830
	C152	C	0.878512	0.687508	0.375561
	C153	C	0.105892	0.683236	0.616201
	C154	C	0.877757	0.327421	0.617254
	C155	C	0.105937	0.331104	0.377445
	C156	C	0.877034	0.384687	0.675246
	C157	C	0.104726	0.626498	0.675444
	C158	C	0.877931	0.630185	0.318170
	C159	C	0.104497	0.387268	0.317884
	C160	C	0.367281	0.685832	0.881888
	C161	C	0.607993	0.682037	0.109694
	C162	C	0.610357	0.329425	0.881467
	C163	C	0.369834	0.327588	0.109643
	C164	C	0.671447	0.892786	0.375514
	C165	C	0.670985	0.121329	0.615134
	C166	C	0.314884	0.892829	0.616175
	C167	C	0.314984	0.121776	0.373576
	C168	C	0.870032	0.393668	0.175404
	C169	C	0.108860	0.622605	0.171525
	C170	C	0.108995	0.391904	0.821165
	C171	C	0.866956	0.620553	0.816602
	C172	C	0.170872	0.887693	0.381247
	C173	C	0.170358	0.126642	0.609678
	C174	C	0.815150	0.128655	0.381846
	C175	C	0.814949	0.885208	0.609013
	C176	C	0.377308	0.185323	0.873949
	C177	C	0.604494	0.183219	0.114573
	C178	C	0.376334	0.829296	0.115680
	C179	C	0.604161	0.827906	0.876421
	C180	C	0.377885	0.884954	0.175597
	C181	C	0.605249	0.124644	0.171172
	C182	C	0.378370	0.128833	0.814798
	C183	C	0.605252	0.885949	0.818838
	C184	C	0.872899	0.185748	0.382006
	C185	C	0.111714	0.182868	0.610604
	C186	C	0.112966	0.830706	0.381227
	C187	C	0.874446	0.829716	0.609862
	C188	C	0.166582	0.392407	0.877758
	C189	C	0.167763	0.621472	0.116312
	C190	C	0.813054	0.393217	0.117675
	C191	C	0.809716	0.620805	0.874122
	C192	C	0.394636	0.101194	0.591242
	C193	C	0.591981	0.912683	0.593703
	C194	C	0.591400	0.101952	0.395068
	C195	C	0.394845	0.913069	0.398705
	C196	C	0.589026	0.407231	0.089659
	C197	C	0.587287	0.603778	0.901634
	C198	C	0.390062	0.604185	0.089334
	C199	C	0.389823	0.409581	0.902000
	C200	C	0.085626	0.606395	0.394839
	C201	C	0.898616	0.605870	0.593931
	C202	C	0.084165	0.408353	0.596935
	C203	C	0.898366	0.409868	0.398696
	C204	C	0.889506	0.602777	0.094286
	C205	C	0.088070	0.412847	0.095039
	C206	C	0.086400	0.601159	0.898476
	C207	C	0.891350	0.412748	0.899071
	C208	C	0.092909	0.907830	0.589638
	C209	C	0.091523	0.106892	0.401549
	C210	C	0.893779	0.104006	0.589936
	C211	C	0.893920	0.910158	0.401485
	C212	C	0.584862	0.105832	0.895455
	C213	C	0.397454	0.103993	0.093963
	C214	C	0.585026	0.904708	0.096122
	C215	C	0.397623	0.909778	0.895878
	Zn216	Zn	0.493025	0.007165	0.743692
	Zn217	Zn	0.492277	0.005878	0.246036
	Zn218	Zn	0.739347	0.506939	-0.004044
	Zn219	Zn	0.238410	0.506720	-0.003351
	Zn220	Zn	-0.006654	0.757653	0.495209
	Zn221	Zn	-0.007796	0.256940	0.496741
	Zn222	Zn	-0.010206	0.506278	0.747580
	Zn223	Zn	-0.009748	0.508153	0.245162
	Zn224	Zn	0.489288	0.755478	-0.004920
	Zn225	Zn	0.490040	0.256654	-0.004601
	Zn226	Zn	0.742498	0.007169	0.494932
	Zn227	Zn	0.242588	0.007436	0.494559
	N228	N	0.407703	0.969792	0.672551
	N229	N	0.579581	0.044052	0.673547
	N230	N	0.578301	0.969212	0.317865
	N231	N	0.407494	0.044011	0.317306
	N232	N	0.671379	0.418016	0.960308
	N233	N	0.668017	0.592792	0.031969
	N234	N	0.308458	0.593887	0.959604
	N235	N	0.309743	0.419620	0.032858
	N236	N	0.955706	0.687602	0.409169
	N237	N	0.029556	0.684208	0.580829
	N238	N	0.954693	0.327121	0.583283
	N239	N	0.029483	0.330371	0.412354
	N240	N	0.953712	0.419422	0.676761
	N241	N	0.027664	0.592782	0.676339
	N242	N	0.954755	0.595123	0.316372
	N243	N	0.027289	0.421276	0.316563
	N244	N	0.402313	0.685661	0.958628
	N245	N	0.573307	0.682327	0.032549
	N246	N	0.574808	0.329365	0.958064
	N247	N	0.404207	0.328004	0.032424
	N248	N	0.672323	0.970789	0.408512
	N249	N	0.672026	0.043661	0.581382
	N250	N	0.313715	0.970407	0.581090
	N251	N	0.313921	0.044232	0.408530
	N252	N	0.903163	0.471613	0.175918
	N253	N	0.074182	0.545338	0.172289
	N254	N	0.074169	0.469295	0.820171
	N255	N	0.901966	0.543133	0.816655
	N256	N	0.172135	0.921225	0.458685
	N257	N	0.171929	0.093937	0.531946
	N258	N	0.813870	0.093825	0.458902
	N259	N	0.812682	0.919373	0.531383
	N260	N	0.453837	0.185609	0.908918
	N261	N	0.527145	0.184808	0.081096
	N262	N	0.452958	0.827850	0.080995
	N263	N	0.526997	0.827880	0.910054
	N264	N	0.455603	0.917362	0.177619
	N265	N	0.528543	0.090192	0.172306
	N266	N	0.455856	0.095223	0.813111
	N267	N	0.528646	0.921344	0.816824
	N268	N	0.907136	0.185483	0.459312
	N269	N	0.077308	0.184369	0.533483
	N270	N	0.079342	0.829057	0.458595
	N271	N	0.909106	0.830284	0.533076
	N272	N	0.167378	0.470353	0.910927
	N273	N	0.169373	0.543301	0.083531
	N274	N	0.810994	0.470852	0.083046
	N275	N	0.810122	0.543505	0.909695
	O276	O	0.986739	0.065529	1.105320
	H277	H	1.000182	0.071609	1.114079
	H278	H	0.992744	0.060572	1.098366
	O279	O	0.347810	0.625539	0.495565
	H280	H	0.335465	0.640978	0.489910
	H281	H	0.363215	0.626320	0.478155
	O282	O	0.576966	0.621392	0.656114
	H283	H	0.589618	0.615076	0.651480
	H284	H	0.575478	0.627664	0.659100
	O285	O	0.555177	0.474897	0.514867
	H286	H	0.557136	0.474423	0.510869
	H287	H	0.561669	0.472270	0.514847
	O288	O	0.588908	0.657953	0.506375
	H289	H	0.591794	0.664304	0.506827
	H290	H	0.590706	0.651223	0.508069
	O291	O	0.087750	0.008081	1.045248
	H292	H	0.081133	0.010272	1.039361
	H293	H	0.082372	0.004953	1.042506
	O294	O	1.030707	0.985558	-0.087430
	H295	H	1.035634	0.983777	-0.080422
	H296	H	1.032381	0.987147	-0.082178
	O297	O	0.968402	0.949801	0.001609
	H298	H	0.969025	0.956142	0.003822
	H299	H	0.971858	0.954355	0.002915
	O300	O	0.374710	0.401478	0.588520
	H301	H	0.349497	0.409094	0.580499
	H302	H	0.372773	0.392606	0.588671
	O303	O	0.311051	0.494724	0.440593
	H304	H	0.309533	0.501874	0.428724
	H305	H	0.308464	0.508240	0.420471
	O306	O	0.497723	0.518438	0.462804
	H307	H	0.491832	0.524840	0.465267
	H308	H	0.515818	0.529186	0.464574
	O309	O	0.440044	0.509529	0.583339
	H310	H	0.440259	0.508122	0.590805
	H311	H	0.435896	0.502417	0.595671
	O312	O	0.931677	1.034286	0.965623
	H313	H	0.923201	1.044080	0.958861
	H314	H	0.921124	1.038557	0.968685
	O315	O	0.914338	0.978476	0.031820
	H316	H	0.913472	0.983036	0.035490
	H317	H	0.913865	0.969205	0.029115
	O318	O	0.644325	0.419571	0.491586
	H319	H	0.645458	0.405965	0.500058
	H320	H	0.644994	0.416343	0.491089
	O321	O	0.486264	0.521830	0.638806
	H322	H	0.497283	0.522685	0.637014
	H323	H	0.486240	0.518115	0.629939
	O324	O	0.031785	0.992769	1.010802
	H325	H	0.034575	0.984881	1.002907
	H326	H	0.019609	1.000838	1.000980
	O327	O	0.030865	0.954638	0.946955
	H328	H	0.032277	0.953926	0.944819
	H329	H	0.030938	0.952370	0.940586
	O330	O	-0.091776	-0.132039	0.012756
	H331	H	-0.093857	-0.127557	0.003857
	H332	H	-0.091530	-0.135384	0.025933
	O333	O	0.411868	0.583705	0.488883
	H334	H	0.398822	0.569973	0.497680
	H335	H	0.394332	0.582983	0.488072
	O336	O	-0.059997	0.056573	0.037675
	H337	H	-0.060211	0.044005	0.028044
	H338	H	-0.065047	0.057663	0.039312
	O339	O	-0.044149	0.078814	-0.041535
	H340	H	-0.052153	0.086077	-0.041097
	H341	H	-0.036586	0.088963	-0.042198
	O342	O	0.570903	0.553348	0.523906
	H343	H	0.570628	0.549760	0.527314
	H344	H	0.568716	0.558881	0.517331
	O345	O	0.085696	0.989186	0.955671
	H346	H	0.074429	0.996318	0.966522
	H347	H	0.086108	0.981656	0.953025
	O348	O	0.559208	0.482577	0.367327
	H349	H	0.551413	0.500313	0.359613
	H350	H	0.562593	0.480101	0.361496
	O351	O	0.534961	0.342284	0.450310
	H352	H	0.521353	0.340975	0.458606
	H353	H	0.540738	0.348942	0.442518
	O354	O	0.062380	1.028572	0.039757
	H355	H	0.065097	1.032224	0.037081
	H356	H	0.060127	1.034705	0.039030
	O357	O	0.458921	0.384746	0.604403
	H358	H	0.460925	0.398158	0.601967
	H359	H	0.449139	0.391172	0.596213
	O360	O	0.959251	0.059302	0.978776
	H361	H	0.951593	0.060969	0.965884
	H362	H	0.960658	0.063049	0.973205
	O363	O	0.430701	0.470685	0.495620
	H364	H	0.431302	0.488079	0.493651
	H365	H	0.425109	0.462091	0.510274
	O366	O	0.411312	0.647061	0.399453
	H367	H	0.439495	0.641700	0.398486
	H368	H	0.417147	0.637074	0.397405
	O369	O	0.983057	-0.024605	-0.115311
	H370	H	1.001593	-0.022214	-0.126462
	H371	H	0.976789	-0.037744	-0.113463
	O372	O	0.567606	0.495045	0.336998
	H373	H	0.561313	0.498223	0.339567
	H374	H	0.575346	0.481678	0.333716
	O375	O	0.939662	0.014082	1.026790
	H376	H	0.932933	0.012828	1.033399
	H377	H	0.934673	0.015604	1.032183
	O378	O	0.512321	0.510948	0.523333
	H379	H	0.496564	0.500585	0.524563
	H380	H	0.508768	0.520637	0.541027
	O381	O	0.454999	0.440444	0.369577
	H382	H	0.465035	0.434017	0.377548
	H383	H	0.447350	0.437272	0.375693
	O384	O	1.534244	0.481884	0.596280
	H385	H	1.536798	0.483124	0.595551
	H386	H	1.536348	0.486134	0.605603
	O387	O	0.910821	0.072363	0.894475
	H388	H	0.918130	0.082455	0.899666
	H389	H	0.907227	0.068168	0.892475
	O390	O	1.026556	1.062379	0.019359
	H391	H	1.030245	1.062882	0.031072
	H392	H	1.035414	1.064251	0.023537
	O393	O	0.483626	0.537117	0.332992
	H394	H	0.492751	0.543546	0.338755
	H395	H	0.488162	0.534185	0.333718
