data_Molecule from HDF5

_cell_length_a		16.118573
_cell_length_b		16.369889
_cell_length_c		16.453862
_cell_angle_alpha	90.128628
_cell_angle_beta	90.218678
_cell_angle_gamma	90.150506
_symmetry_space_group_name_H-M	'P 1'
_symmetry_Int_Tables_number		1

loop_
	_symmetry_equiv_pos_as_xyz
	x,y,z

loop_
	_atom_site_label
	_atom_site_type_symbol
	_atom_site_fract_x
	_atom_site_fract_y
	_atom_site_fract_z
	H0	H	0.374743	0.831713	0.715644
	H1	H	0.581746	0.153736	0.717644
	H2	H	0.583990	0.832744	0.276264
	H3	H	0.373090	0.152576	0.276040
	H4	H	0.693352	0.389623	0.835872
	H5	H	0.694729	0.590990	0.157875
	H6	H	0.260264	0.589982	0.835558
	H7	H	0.262778	0.393970	0.160022
	H8	H	0.814769	0.708742	0.392461
	H9	H	0.140749	0.710694	0.597773
	H10	H	0.814198	0.278696	0.593886
	H11	H	0.142074	0.278457	0.395220
	H12	H	0.815250	0.389077	0.712636
	H13	H	0.140790	0.595348	0.714030
	H14	H	0.815768	0.594283	0.277217
	H15	H	0.142537	0.393361	0.282012
	H16	H	0.372807	0.710081	0.836590
	H17	H	0.583924	0.712371	0.155996
	H18	H	0.576870	0.272673	0.837122
	H19	H	0.374167	0.272703	0.158269
	H20	H	0.695103	0.831375	0.397817
	H21	H	0.692008	0.157012	0.594933
	H22	H	0.261432	0.830772	0.595966
	H23	H	0.263929	0.156190	0.399175
	H24	H	0.872150	0.331844	0.217336
	H25	H	0.086342	0.651193	0.218341
	H26	H	0.081553	0.331877	0.775980
	H27	H	0.869761	0.651616	0.774510
	H28	H	0.195725	0.892753	0.336048
	H29	H	0.196417	0.095166	0.657822
	H30	H	0.758722	0.095210	0.336806
	H31	H	0.763978	0.895259	0.659455
	H32	H	0.314174	0.206876	0.895495
	H33	H	0.640336	0.209948	0.100495
	H34	H	0.314326	0.773181	0.099085
	H35	H	0.640475	0.774115	0.895107
	H36	H	0.315533	0.887966	0.215726
	H37	H	0.638763	0.098801	0.217265
	H38	H	0.315485	0.094042	0.778926
	H39	H	0.642780	0.891218	0.782856
	H40	H	0.873710	0.212663	0.336789
	H41	H	0.084061	0.215125	0.655941
	H42	H	0.084356	0.770911	0.337964
	H43	H	0.871486	0.771397	0.655292
	H44	H	0.190740	0.328781	0.899028
	H45	H	0.195124	0.653347	0.096554
	H46	H	0.761666	0.328496	0.095032
	H47	H	0.758346	0.652898	0.895018
	H48	H	0.395311	0.106338	0.593669
	H49	H	0.574299	0.877214	0.589855
	H50	H	0.570401	0.108250	0.407110
	H51	H	0.394330	0.881982	0.409018
	H52	H	0.569250	0.401093	0.111410
	H53	H	0.562942	0.587295	0.882449
	H54	H	0.384052	0.587821	0.113189
	H55	H	0.380496	0.396931	0.882292
	H56	H	0.095602	0.594343	0.416166
	H57	H	0.861581	0.580327	0.585764
	H58	H	0.095497	0.397513	0.583696
	H59	H	0.863109	0.403930	0.407290
	H60	H	0.091737	0.411021	0.584121
	H61	H	0.860982	0.582721	0.588018
	H62	H	0.088023	0.570286	0.412199
	H63	H	0.860343	0.403341	0.401637
	H64	H	0.385299	0.577588	0.109706
	H65	H	0.571404	0.583041	0.880714
	H66	H	0.567923	0.399431	0.111584
	H67	H	0.386627	0.399911	0.885079
	H68	H	0.563829	0.106807	0.402627
	H69	H	0.570168	0.876597	0.594816
	H70	H	0.387993	0.105149	0.583233
	H71	H	0.382706	0.878366	0.409616
	H72	H	0.887374	0.607811	0.093941
	H73	H	0.063638	0.380933	0.080935
	H74	H	0.065602	0.605108	0.907968
	H75	H	0.890424	0.378859	0.902472
	H76	H	0.069840	0.897019	0.612508
	H77	H	0.073522	0.075312	0.384039
	H78	H	0.883359	0.076596	0.609699
	H79	H	0.883175	0.903573	0.382435
	H80	H	0.596605	0.081687	0.899755
	H81	H	0.364090	0.079213	0.080908
	H82	H	0.590636	0.908022	0.084665
	H83	H	0.362185	0.905328	0.903969
	H84	H	0.596079	0.902458	0.092284
	H85	H	0.360657	0.074869	0.091296
	H86	H	0.596246	0.090142	0.910664
	H87	H	0.359976	0.898274	0.902985
	H88	H	0.899185	0.090672	0.608237
	H89	H	0.057222	0.087953	0.385796
	H90	H	0.070967	0.907977	0.609083
	H91	H	0.890549	0.903586	0.384993
	H92	H	0.071678	0.607475	0.905321
	H93	H	0.080601	0.372892	0.089925
	H94	H	0.896813	0.602286	0.086324
	H95	H	0.886224	0.377649	0.906237
	H96	H	0.383500	0.110758	0.593918
	H97	H	0.567704	0.878795	0.589433
	H98	H	0.564469	0.104922	0.410378
	H99	H	0.389271	0.876509	0.399215
	H100	H	0.569338	0.399737	0.111896
	H101	H	0.563936	0.578973	0.885084
	H102	H	0.394156	0.584524	0.109848
	H103	H	0.386406	0.393016	0.881434
	H104	H	0.099201	0.583851	0.393819
	H105	H	0.860847	0.583281	0.584737
	H106	H	0.097877	0.405007	0.595415
	H107	H	0.860355	0.398935	0.405419
	H108	H	0.883625	0.604785	0.081142
	H109	H	0.062468	0.374826	0.100532
	H110	H	0.066500	0.607586	0.901081
	H111	H	0.885670	0.375848	0.901542
	H112	H	0.061026	0.902425	0.608039
	H113	H	0.075255	0.095231	0.378315
	H114	H	0.880648	0.096013	0.615964
	H115	H	0.887342	0.897345	0.382074
	H116	H	0.591474	0.077354	0.911446
	H117	H	0.358879	0.086308	0.089078
	H118	H	0.593759	0.897554	0.082199
	H119	H	0.362907	0.900734	0.909419
	C120	C	0.357659	0.000967	0.619496
	C121	C	0.600500	0.984683	0.620672
	C122	C	0.599096	0.000884	0.375559
	C123	C	0.356533	0.984670	0.375156
	C124	C	0.598530	0.369213	0.005395
	C125	C	0.598631	0.613486	0.988302
	C126	C	0.356329	0.613055	0.004848
	C127	C	0.354452	0.367800	0.989394
	C128	C	-0.012945	0.613624	0.374981
	C129	C	0.968614	0.614052	0.617569
	C130	C	-0.013212	0.373067	0.616844
	C131	C	0.969473	0.372192	0.375002
	C132	C	0.857624	0.498988	0.117492
	C133	C	0.099756	0.483030	0.119266
	C134	C	0.098261	0.500136	0.875073
	C135	C	0.855474	0.483410	0.873415
	C136	C	0.098834	0.871461	0.504537
	C137	C	0.100066	0.116416	0.488440
	C138	C	0.856273	0.117057	0.505378
	C139	C	0.855868	0.871297	0.488927
	C140	C	0.486761	0.112652	0.876626
	C141	C	0.468754	0.112280	0.117927
	C142	C	0.486087	0.871000	0.117668
	C143	C	0.469279	0.870562	0.875627
	C144	C	0.356297	0.879786	0.676461
	C145	C	0.600790	0.105990	0.677924
	C146	C	0.601558	0.880613	0.316476
	C147	C	0.355094	0.105231	0.316625
	C148	C	0.654662	0.369969	0.884157
	C149	C	0.656988	0.611979	0.109162
	C150	C	0.298779	0.610798	0.883732
	C151	C	0.299710	0.372258	0.111362
	C152	C	0.863955	0.670753	0.373443
	C153	C	0.091764	0.671785	0.617483
	C154	C	0.863583	0.315972	0.614894
	C155	C	0.093053	0.316298	0.376020
	C156	C	0.864002	0.371340	0.673695
	C157	C	0.091734	0.614413	0.675107
	C158	C	0.864532	0.613692	0.316185
	C159	C	0.093258	0.373621	0.319577
	C160	C	0.354812	0.670675	0.884479
	C161	C	0.601590	0.672196	0.108400
	C162	C	0.597239	0.311492	0.885008
	C163	C	0.355109	0.311825	0.110392
	C164	C	0.656906	0.879960	0.377184
	C165	C	0.655563	0.107601	0.616926
	C166	C	0.299993	0.879277	0.616710
	C167	C	0.300166	0.106696	0.377301
	C168	C	0.855033	0.379104	0.176862
	C169	C	0.102725	0.603602	0.177855
	C170	C	0.099154	0.379574	0.816299
	C171	C	0.852532	0.603812	0.814738
	C172	C	0.157410	0.872171	0.384404
	C173	C	0.158063	0.115464	0.609459
	C174	C	0.797704	0.115324	0.384872
	C175	C	0.800461	0.873864	0.610347
	C176	C	0.363480	0.168977	0.876227
	C177	C	0.591136	0.171330	0.119262
	C178	C	0.363530	0.812119	0.118099
	C179	C	0.591922	0.813032	0.875874
	C180	C	0.363873	0.869354	0.176200
	C181	C	0.590767	0.115737	0.177263
	C182	C	0.364264	0.113010	0.817965
	C183	C	0.592876	0.871181	0.819848
	C184	C	0.854995	0.173779	0.384801
	C185	C	0.101840	0.174895	0.608586
	C186	C	0.101596	0.811809	0.385186
	C187	C	0.854477	0.812334	0.608399
	C188	C	0.153516	0.377797	0.877656
	C189	C	0.157141	0.604812	0.117229
	C190	C	0.799853	0.377421	0.115907
	C191	C	0.796814	0.604334	0.874691
	C192	C	0.381854	0.085445	0.596923
	C193	C	0.577397	0.899673	0.598132
	C194	C	0.573637	0.084956	0.399545
	C195	C	0.381511	0.900868	0.398859
	C196	C	0.575524	0.392980	0.089806
	C197	C	0.573502	0.589831	0.904299
	C198	C	0.380603	0.590115	0.089039
	C199	C	0.377542	0.390102	0.904833
	C200	C	0.072035	0.589844	0.399979
	C201	C	0.883200	0.589392	0.593176
	C202	C	0.072787	0.397328	0.594246
	C203	C	0.883575	0.395279	0.397969
	C204	C	0.882206	0.582964	0.093914
	C205	C	0.075665	0.398124	0.096851
	C206	C	0.074766	0.584831	0.898125
	C207	C	0.880224	0.399309	0.896715
	C208	C	0.074217	0.895557	0.588107
	C209	C	0.075770	0.092970	0.404511
	C210	C	0.880669	0.094238	0.589587
	C211	C	0.880063	0.894742	0.404937
	C212	C	0.572468	0.089623	0.900339
	C213	C	0.383374	0.087502	0.094054
	C214	C	0.571465	0.895650	0.093587
	C215	C	0.383960	0.894444	0.898768
	Zn216	Zn	0.478916	-0.007608	0.749076
	Zn217	Zn	0.477488	-0.007426	0.245619
	Zn218	Zn	0.727486	0.490732	-0.003756
	Zn219	Zn	0.226890	0.491166	-0.003086
	Zn220	Zn	-0.023014	0.741169	0.495984
	Zn221	Zn	-0.021256	0.245862	0.495972
	Zn222	Zn	-0.022513	0.492729	0.745380
	Zn223	Zn	-0.021500	0.492025	0.247851
	Zn224	Zn	0.477607	0.742791	-0.003364
	Zn225	Zn	0.476860	0.239480	-0.001788
	Zn226	Zn	0.728200	-0.006315	0.498156
	Zn227	Zn	0.228371	-0.006490	0.497607
	N228	N	0.391353	0.956386	0.678160
	N229	N	0.567683	0.028499	0.680445
	N230	N	0.566205	0.957106	0.315498
	N231	N	0.389400	0.028404	0.315268
	N232	N	0.655709	0.404928	0.960116
	N233	N	0.655570	0.576457	0.033348
	N234	N	0.299655	0.575539	0.959488
	N235	N	0.298826	0.406186	0.034794
	N236	N	0.941203	0.670920	0.409368
	N237	N	0.014172	0.671604	0.582562
	N238	N	0.941154	0.316955	0.580427
	N239	N	0.014792	0.315103	0.409571
	N240	N	0.941720	0.406100	0.674960
	N241	N	0.013953	0.579668	0.675643
	N242	N	0.941975	0.579238	0.316868
	N243	N	0.015458	0.407466	0.318775
	N244	N	0.389611	0.672199	0.960940
	N245	N	0.566151	0.673437	0.032194
	N246	N	0.563362	0.310893	0.961586
	N247	N	0.388150	0.309010	0.033648
	N248	N	0.655498	0.955823	0.413048
	N249	N	0.655393	0.031170	0.581874
	N250	N	0.300463	0.955697	0.582197
	N251	N	0.300935	0.030904	0.413151
	N252	N	0.890467	0.455652	0.177712
	N253	N	0.067711	0.526889	0.179185
	N254	N	0.065635	0.456744	0.814641
	N255	N	0.888132	0.527619	0.813749
	N256	N	0.155791	0.908676	0.459640
	N257	N	0.157081	0.079693	0.533859
	N258	N	0.798508	0.080561	0.460841
	N259	N	0.801250	0.909723	0.534970
	N260	N	0.440553	0.168966	0.911992
	N261	N	0.514206	0.169274	0.083035
	N262	N	0.440608	0.812999	0.082579
	N263	N	0.514285	0.812539	0.910131
	N264	N	0.440957	0.905235	0.175949
	N265	N	0.513763	0.079511	0.176568
	N266	N	0.441864	0.078446	0.818465
	N267	N	0.515417	0.906192	0.819358
	N268	N	0.890896	0.174885	0.460750
	N269	N	0.066421	0.175637	0.532480
	N270	N	0.065742	0.811324	0.460941
	N271	N	0.888198	0.810496	0.531667
	N272	N	0.152897	0.453622	0.913786
	N273	N	0.155467	0.528904	0.081472
	N274	N	0.801442	0.452853	0.079510
	N275	N	0.798351	0.528462	0.910493
	O276	O	-0.020654	-0.181437	0.015805
	H277	H	0.004156	-0.192345	0.008417
	H278	H	-0.038433	-0.186075	0.027798
	O279	O	0.099628	1.036600	0.181015
	H280	H	0.101672	1.011552	0.192039
	H281	H	0.091990	1.031374	0.190271
	O282	O	0.961020	0.024594	-0.125056
	H283	H	0.945487	0.040174	-0.143239
	H284	H	0.948840	0.011841	-0.118998
	O285	O	-0.087966	1.102587	0.006180
	H286	H	-0.081483	1.101064	0.007138
	H287	H	-0.093064	1.096250	0.013077
	O288	O	0.598723	0.377862	0.401669
	H289	H	0.605657	0.381950	0.391115
	H290	H	0.603508	0.375128	0.400772
	O291	O	1.044751	0.155430	0.984803
	H292	H	1.045400	0.170296	0.973771
	H293	H	1.031433	0.164237	0.989393
	O294	O	1.368370	0.565671	0.428404
	H295	H	1.361852	0.569578	0.454659
	H296	H	1.362967	0.557431	0.423901
	O297	O	0.067646	-0.166276	0.043020
	H298	H	0.054249	-0.159138	0.038350
	H299	H	0.058531	-0.176079	0.064996
	O300	O	1.025201	1.048251	0.953533
	H301	H	1.029739	1.036456	0.940260
	H302	H	1.026319	1.051686	0.947625
	O303	O	-0.147979	0.882478	0.938501
	H304	H	-0.122810	0.873345	0.935623
	H305	H	-0.152354	0.875803	0.920269
	O306	O	0.508881	0.419023	0.586336
	H307	H	0.517888	0.411247	0.584973
	H308	H	0.502825	0.421230	0.584919
	O309	O	1.102667	0.052139	-0.043902
	H310	H	1.096495	0.061937	-0.043292
	H311	H	1.114273	0.054039	-0.054673
	O312	O	-0.190595	0.090330	0.879120
	H313	H	-0.181806	0.092233	0.894866
	H314	H	-0.195940	0.086008	0.878535
	O315	O	0.406062	0.491154	0.562006
	H316	H	0.403844	0.502628	0.562540
	H317	H	0.414208	0.481961	0.560446
	O318	O	0.531655	0.426702	0.520697
	H319	H	0.537519	0.428179	0.509670
	H320	H	0.536530	0.432962	0.512942
	O321	O	0.366470	0.425373	0.494865
	H322	H	0.362461	0.410540	0.513122
	H323	H	0.362619	0.424208	0.501122
	O324	O	0.469320	0.526067	0.579114
	H325	H	0.480267	0.535604	0.587642
	H326	H	0.474446	0.523396	0.582965
	O327	O	-0.193283	0.966049	1.126354
	H328	H	-0.193051	0.973687	1.110995
	H329	H	-0.191104	0.984131	1.140217
	O330	O	0.478825	0.555283	0.662377
	H331	H	0.488533	0.553551	0.661718
	H332	H	0.485551	0.548919	0.665034
	O333	O	0.005918	0.896207	0.891307
	H334	H	0.012877	0.898076	0.889024
	H335	H	0.004479	0.900890	0.903821
	O336	O	2.044897	1.021629	0.080495
	H337	H	2.047412	1.005756	0.097282
	H338	H	2.048064	1.036272	0.073905
	O339	O	0.592751	0.569979	0.482917
	H340	H	0.592773	0.592925	0.468070
	H341	H	0.590441	0.577971	0.481452
	O342	O	0.833862	-0.085117	-0.001562
	H343	H	0.834490	-0.069864	-0.004073
	H344	H	0.832054	-0.086182	-0.014249
	O345	O	0.444555	0.467594	0.505015
	H346	H	0.442271	0.452064	0.503567
	H347	H	0.436974	0.471561	0.522522
	O348	O	1.014987	0.786807	0.818941
	H349	H	1.053577	0.792389	0.823489
	H350	H	1.021092	0.772040	0.799488
	O351	O	1.409614	1.617785	0.371502
	H352	H	1.386501	1.615395	0.381822
	H353	H	1.390693	1.623646	0.357459
	O354	O	0.975398	0.011357	0.955326
	H355	H	0.985359	0.005819	0.955711
	H356	H	0.971561	0.008814	0.949593
	O357	O	0.433313	0.476157	0.440846
	H358	H	0.419475	0.481620	0.442673
	H359	H	0.433052	0.470106	0.450628
	O360	O	0.038770	-0.009235	0.033226
	H361	H	0.032328	-0.008456	0.024616
	H362	H	0.038819	-0.007509	0.027335
	O363	O	0.445547	0.431424	0.332924
	H364	H	0.448986	0.430192	0.333986
	H365	H	0.448606	0.440497	0.318601
	O366	O	0.644491	0.499133	0.568431
	H367	H	0.645242	0.508494	0.553432
	H368	H	0.645462	0.508271	0.584494
	O369	O	0.517130	0.616132	0.459546
	H370	H	0.507073	0.619238	0.462689
	H371	H	0.515915	0.615560	0.451259
	O372	O	0.026425	1.114821	1.115932
	H373	H	0.026438	1.121242	1.118961
	H374	H	0.034409	1.109023	1.125884
	O375	O	1.443870	0.494260	0.555090
	H376	H	1.443608	0.485749	0.553655
	H377	H	1.444110	0.494565	0.561084
	O378	O	0.614449	0.506182	0.463805
	H379	H	0.611822	0.508680	0.452461
	H380	H	0.621289	0.504702	0.451389
	O381	O	0.800077	0.012851	0.160579
	H382	H	0.793168	0.026082	0.157379
	H383	H	0.804811	0.021241	0.164048
	O384	O	0.113145	0.943744	0.166451
	H385	H	0.092096	0.945850	0.153956
	H386	H	0.110604	0.936017	0.180531
	O387	O	1.151290	-0.185851	0.844030
	H388	H	1.165430	-0.167323	0.846175
	H389	H	1.153570	-0.183814	0.869812
	O390	O	-0.163672	1.140502	-0.091419
	H391	H	-0.186220	1.142678	-0.103247
	H392	H	-0.170251	1.156544	-0.094085
	O393	O	1.393813	1.468381	0.574139
	H394	H	1.396287	1.470613	0.584489
	H395	H	1.411544	1.466520	0.584180
	O396	O	0.535518	0.639196	0.591471
	H397	H	0.539501	0.639925	0.589990
	H398	H	0.544279	0.648878	0.605732
	O399	O	-0.103832	0.854089	1.116500
	H400	H	-0.125209	0.855738	1.124767
	H401	H	-0.102247	0.829300	1.124537
	O402	O	1.040336	1.133948	1.034512
	H403	H	1.047150	1.132561	1.034350
	H404	H	1.043008	1.132426	1.046543
	O405	O	-0.023781	0.998755	-0.098718
	H406	H	-0.011126	0.995483	-0.096496
	H407	H	-0.031532	1.009001	-0.095865
