data_Molecule from HDF5

_cell_length_a		16.303787
_cell_length_b		16.261448
_cell_length_c		16.339521
_cell_angle_alpha	89.953371
_cell_angle_beta	90.007088
_cell_angle_gamma	90.064098
_symmetry_space_group_name_H-M	'P 1'
_symmetry_Int_Tables_number		1

loop_
	_symmetry_equiv_pos_as_xyz
	x,y,z

loop_
	_atom_site_label
	_atom_site_type_symbol
	_atom_site_fract_x
	_atom_site_fract_y
	_atom_site_fract_z
	H0	H	0.402509	0.836172	0.713559
	H1	H	0.597523	0.164059	0.713389
	H2	H	0.597661	0.836608	0.286674
	H3	H	0.401660	0.164171	0.285816
	H4	H	0.714867	0.400835	0.836751
	H5	H	0.715349	0.598587	0.162502
	H6	H	0.286666	0.596840	0.836682
	H7	H	0.284217	0.400112	0.162625
	H8	H	0.836205	0.714101	0.402675
	H9	H	0.163265	0.715171	0.598465
	H10	H	0.836431	0.286671	0.597221
	H11	H	0.164223	0.287726	0.403931
	H12	H	0.836547	0.401417	0.714252
	H13	H	0.163429	0.598214	0.714380
	H14	H	0.836681	0.599295	0.285212
	H15	H	0.163106	0.402345	0.286061
	H16	H	0.403125	0.713624	0.836457
	H17	H	0.598060	0.713398	0.163463
	H18	H	0.597346	0.286144	0.836467
	H19	H	0.402044	0.284934	0.163136
	H20	H	0.713105	0.836351	0.402547
	H21	H	0.713166	0.164765	0.596701
	H22	H	0.286526	0.836093	0.597968
	H23	H	0.286507	0.164006	0.402643
	H24	H	0.900779	0.336346	0.215020
	H25	H	0.097596	0.664055	0.213780
	H26	H	0.097740	0.336178	0.785633
	H27	H	0.902133	0.663717	0.785970
	H28	H	0.214006	0.902135	0.336964
	H29	H	0.214705	0.098663	0.663442
	H30	H	0.785406	0.099047	0.337160
	H31	H	0.785582	0.902210	0.663227
	H32	H	0.335722	0.212962	0.903051
	H33	H	0.663653	0.212982	0.096994
	H34	H	0.336280	0.786164	0.096764
	H35	H	0.663792	0.786980	0.903820
	H36	H	0.336778	0.900484	0.214921
	H37	H	0.663125	0.097495	0.213948
	H38	H	0.335891	0.097476	0.785977
	H39	H	0.664009	0.902191	0.786868
	H40	H	0.903856	0.213331	0.336289
	H41	H	0.097698	0.215125	0.663970
	H42	H	0.097170	0.786770	0.336505
	H43	H	0.904252	0.787636	0.663651
	H44	H	0.214175	0.335991	0.902178
	H45	H	0.213530	0.663873	0.097566
	H46	H	0.784998	0.336223	0.098951
	H47	H	0.786048	0.663438	0.901523
	H48	H	0.410035	0.115211	0.589704
	H49	H	0.593677	0.882465	0.595872
	H50	H	0.592724	0.116199	0.409613
	H51	H	0.417446	0.889451	0.417935
	H52	H	0.599902	0.391717	0.121868
	H53	H	0.601376	0.609235	0.876891
	H54	H	0.406122	0.593874	0.116396
	H55	H	0.401229	0.411776	0.884228
	H56	H	0.117582	0.594539	0.404096
	H57	H	0.886266	0.581698	0.595560
	H58	H	0.113734	0.413768	0.588283
	H59	H	0.883519	0.409852	0.404230
	H60	H	0.118655	0.408662	0.602272
	H61	H	0.878876	0.600366	0.602556
	H62	H	0.115970	0.594765	0.408025
	H63	H	0.881939	0.403298	0.404079
	H64	H	0.406497	0.591513	0.116499
	H65	H	0.603993	0.578260	0.885520
	H66	H	0.603409	0.420028	0.115178
	H67	H	0.412863	0.407220	0.886128
	H68	H	0.596109	0.118567	0.405396
	H69	H	0.591410	0.884127	0.592569
	H70	H	0.402377	0.117999	0.592095
	H71	H	0.390981	0.880367	0.411875
	H72	H	0.910170	0.616671	0.095963
	H73	H	0.091683	0.385179	0.089935
	H74	H	0.090017	0.616761	0.903050
	H75	H	0.907393	0.382351	0.904158
	H76	H	0.096531	0.906494	0.617344
	H77	H	0.104910	0.088414	0.383287
	H78	H	0.905808	0.091941	0.615834
	H79	H	0.912750	0.903275	0.384647
	H80	H	0.620069	0.092728	0.891408
	H81	H	0.382195	0.091256	0.100891
	H82	H	0.615733	0.914149	0.096376
	H83	H	0.381370	0.903262	0.901556
	H84	H	0.619235	0.901425	0.099336
	H85	H	0.382073	0.099199	0.091557
	H86	H	0.617871	0.106670	0.913301
	H87	H	0.383995	0.904085	0.910766
	H88	H	0.908030	0.094117	0.616246
	H89	H	0.084149	0.087357	0.388975
	H90	H	0.093439	0.910038	0.614399
	H91	H	0.899860	0.902749	0.380738
	H92	H	0.091903	0.614888	0.911246
	H93	H	0.096400	0.381459	0.093883
	H94	H	0.907522	0.614905	0.089102
	H95	H	0.909280	0.384331	0.907801
	H96	H	0.408583	0.117821	0.597740
	H97	H	0.595896	0.883390	0.591708
	H98	H	0.590569	0.116753	0.404722
	H99	H	0.411312	0.879879	0.391638
	H100	H	0.577211	0.406909	0.110753
	H101	H	0.576016	0.593049	0.888891
	H102	H	0.407872	0.592408	0.116046
	H103	H	0.403897	0.400058	0.881006
	H104	H	0.116012	0.591410	0.405987
	H105	H	0.885340	0.598394	0.582490
	H106	H	0.118280	0.398928	0.590615
	H107	H	0.884355	0.405967	0.409840
	H108	H	0.903157	0.617907	0.094059
	H109	H	0.089628	0.383108	0.096502
	H110	H	0.098195	0.617832	0.906080
	H111	H	0.904703	0.383134	0.908178
	H112	H	0.091365	0.905179	0.615931
	H113	H	0.092294	0.105932	0.381454
	H114	H	0.904529	0.095153	0.617259
	H115	H	0.904945	0.913948	0.385102
	H116	H	0.610779	0.081651	0.912488
	H117	H	0.385662	0.087340	0.089488
	H118	H	0.614956	0.904108	0.086881
	H119	H	0.384614	0.911439	0.905176
	C120	C	0.378922	0.008516	0.621370
	C121	C	0.621417	0.991756	0.621568
	C122	C	0.621535	0.009006	0.378454
	C123	C	0.378120	0.991670	0.378405
	C124	C	0.621474	0.377878	0.007935
	C125	C	0.622219	0.621859	0.991598
	C126	C	0.378773	0.620886	0.008154
	C127	C	0.378033	0.377961	0.991643
	C128	C	0.008130	0.621916	0.378198
	C129	C	0.991632	0.621698	0.621686
	C130	C	0.008716	0.378734	0.621804
	C131	C	0.991723	0.378454	0.378444
	C132	C	0.878435	0.508102	0.121317
	C133	C	0.121341	0.491573	0.121492
	C134	C	0.121257	0.508207	0.878757
	C135	C	0.878857	0.491454	0.878542
	C136	C	0.121632	0.878776	0.507911
	C137	C	0.122025	0.122256	0.492454
	C138	C	0.878545	0.121845	0.508404
	C139	C	0.878493	0.878493	0.491502
	C140	C	0.507756	0.121556	0.878250
	C141	C	0.491546	0.120810	0.121549
	C142	C	0.508695	0.877901	0.122158
	C143	C	0.491604	0.878436	0.878279
	C144	C	0.381869	0.884842	0.675625
	C145	C	0.618245	0.115254	0.675834
	C146	C	0.618267	0.885405	0.324247
	C147	C	0.381303	0.115232	0.323881
	C148	C	0.676488	0.380614	0.885273
	C149	C	0.677209	0.618780	0.114143
	C150	C	0.324250	0.617919	0.885285
	C151	C	0.322918	0.380245	0.114198
	C152	C	0.885166	0.676306	0.381668
	C153	C	0.114768	0.676892	0.618794
	C154	C	0.885374	0.323862	0.618440
	C155	C	0.115048	0.324394	0.382057
	C156	C	0.885469	0.380985	0.676496
	C157	C	0.114628	0.619253	0.676619
	C158	C	0.885125	0.619270	0.323405
	C159	C	0.114822	0.381830	0.324043
	C160	C	0.381813	0.675962	0.885301
	C161	C	0.618922	0.675791	0.114408
	C162	C	0.618086	0.323540	0.885086
	C163	C	0.381453	0.323258	0.114584
	C164	C	0.675585	0.885348	0.381961
	C165	C	0.675839	0.115548	0.618174
	C166	C	0.324237	0.885033	0.618226
	C167	C	0.323855	0.115211	0.381555
	C168	C	0.880688	0.385058	0.176625
	C169	C	0.118422	0.615005	0.176127
	C170	C	0.118669	0.385044	0.823580
	C171	C	0.881734	0.614818	0.823717
	C172	C	0.176234	0.881504	0.385452
	C173	C	0.177022	0.119485	0.615026
	C174	C	0.823915	0.119068	0.385422
	C175	C	0.823568	0.881280	0.614434
	C176	C	0.384583	0.175557	0.881969
	C177	C	0.614790	0.175182	0.117794
	C178	C	0.385128	0.823907	0.117843
	C179	C	0.614857	0.824143	0.882277
	C180	C	0.385302	0.880592	0.176548
	C181	C	0.614373	0.118409	0.176504
	C182	C	0.384593	0.118211	0.823877
	C183	C	0.615091	0.881703	0.824518
	C184	C	0.882435	0.175988	0.385288
	C185	C	0.118579	0.176982	0.615087
	C186	C	0.117960	0.824429	0.385252
	C187	C	0.882423	0.824511	0.614683
	C188	C	0.176138	0.384773	0.881597
	C189	C	0.176250	0.614977	0.118647
	C190	C	0.823239	0.384968	0.118901
	C191	C	0.824224	0.614752	0.881297
	C192	C	0.400767	0.094608	0.599561
	C193	C	0.600048	0.905623	0.599700
	C194	C	0.599582	0.094898	0.400187
	C195	C	0.400026	0.905415	0.400474
	C196	C	0.599946	0.399819	0.093949
	C197	C	0.600400	0.599935	0.905743
	C198	C	0.400312	0.598965	0.094049
	C199	C	0.399808	0.399922	0.905695
	C200	C	0.094215	0.599928	0.399536
	C201	C	0.905895	0.599818	0.599956
	C202	C	0.094629	0.400637	0.600303
	C203	C	0.905546	0.399849	0.399688
	C204	C	0.900414	0.594348	0.099636
	C205	C	0.099154	0.405542	0.099811
	C206	C	0.099711	0.594085	0.900545
	C207	C	0.900571	0.405424	0.900377
	C208	C	0.100147	0.900828	0.593869
	C209	C	0.100296	0.100375	0.406592
	C210	C	0.899740	0.100201	0.594304
	C211	C	0.899618	0.900254	0.405663
	C212	C	0.593984	0.100134	0.899420
	C213	C	0.405328	0.098982	0.100303
	C214	C	0.594627	0.900016	0.100617
	C215	C	0.405554	0.899935	0.899422
	Zn216	Zn	0.499892	-0.000222	0.749504
	Zn217	Zn	0.499677	-0.000148	0.250499
	Zn218	Zn	0.750328	0.499469	-0.000232
	Zn219	Zn	0.249613	0.499583	0.000044
	Zn220	Zn	0.000282	0.749946	0.499804
	Zn221	Zn	0.000143	0.250598	0.500240
	Zn222	Zn	-0.000047	0.499974	0.750239
	Zn223	Zn	-0.000522	0.500077	0.249825
	Zn224	Zn	0.500122	0.749911	0.000135
	Zn225	Zn	0.499682	0.249734	0.000058
	Zn226	Zn	0.749623	0.000459	0.499817
	Zn227	Zn	0.250248	0.000266	0.499834
	N228	N	0.415007	0.962491	0.677565
	N229	N	0.585301	0.037333	0.678088
	N230	N	0.585370	0.963210	0.322112
	N231	N	0.414220	0.037425	0.321784
	N232	N	0.678361	0.414007	0.962582
	N233	N	0.679455	0.585888	0.036674
	N234	N	0.322292	0.584613	0.962612
	N235	N	0.320917	0.413620	0.036950
	N236	N	0.962645	0.677934	0.414868
	N237	N	0.037433	0.678400	0.585310
	N238	N	0.962714	0.322515	0.584849
	N239	N	0.037660	0.322572	0.415221
	N240	N	0.962925	0.414508	0.678573
	N241	N	0.037319	0.585589	0.678499
	N242	N	0.962624	0.585956	0.321278
	N243	N	0.037126	0.414725	0.321719
	N244	N	0.415253	0.677641	0.962534
	N245	N	0.585526	0.677694	0.037249
	N246	N	0.584795	0.321872	0.962373
	N247	N	0.414878	0.321841	0.037321
	N248	N	0.677759	0.962999	0.414983
	N249	N	0.677929	0.037889	0.585120
	N250	N	0.322228	0.962833	0.585099
	N251	N	0.322211	0.037581	0.415047
	N252	N	0.914197	0.462548	0.178209
	N253	N	0.084993	0.537314	0.178031
	N254	N	0.085401	0.462605	0.821798
	N255	N	0.914888	0.537270	0.821931
	N256	N	0.178485	0.914712	0.462757
	N257	N	0.179359	0.086435	0.537573
	N258	N	0.821320	0.086268	0.462938
	N259	N	0.820977	0.914370	0.536963
	N260	N	0.462078	0.177632	0.914971
	N261	N	0.537314	0.176767	0.084276
	N262	N	0.462827	0.822040	0.084969
	N263	N	0.537349	0.822284	0.915293
	N264	N	0.463032	0.913408	0.179520
	N265	N	0.536835	0.085373	0.178634
	N266	N	0.462284	0.085414	0.821365
	N267	N	0.537605	0.914626	0.821767
	N268	N	0.915724	0.177730	0.462576
	N269	N	0.085347	0.178652	0.537805
	N270	N	0.084742	0.822757	0.462547
	N271	N	0.915526	0.822561	0.537396
	N272	N	0.178142	0.462334	0.914976
	N273	N	0.178135	0.537301	0.085543
	N274	N	0.821977	0.462384	0.085064
	N275	N	0.822243	0.537108	0.914696
