data_Molecule from HDF5

_cell_length_a		16.219096
_cell_length_b		16.333820
_cell_length_c		16.210037
_cell_angle_alpha	90.171138
_cell_angle_beta	90.045767
_cell_angle_gamma	90.101018
_symmetry_space_group_name_H-M	'P 1'
_symmetry_Int_Tables_number		1

loop_
	_symmetry_equiv_pos_as_xyz
	x,y,z

loop_
	_atom_site_label
	_atom_site_type_symbol
	_atom_site_fract_x
	_atom_site_fract_y
	_atom_site_fract_z
	H0	H	0.416546	0.833696	0.709349
	H1	H	0.615861	0.159964	0.711768
	H2	H	0.615593	0.834972	0.278720
	H3	H	0.417369	0.161214	0.280754
	H4	H	0.726607	0.399892	0.830551
	H5	H	0.728027	0.596791	0.159215
	H6	H	0.300025	0.594116	0.830387
	H7	H	0.300030	0.400071	0.160088
	H8	H	0.851597	0.713173	0.396410
	H9	H	0.178778	0.713052	0.595318
	H10	H	0.851834	0.281174	0.596228
	H11	H	0.179029	0.283726	0.394670
	H12	H	0.849221	0.401515	0.707103
	H13	H	0.178136	0.596510	0.710168
	H14	H	0.849839	0.596102	0.282734
	H15	H	0.178739	0.400100	0.280547
	H16	H	0.413337	0.712979	0.831209
	H17	H	0.612589	0.712690	0.158806
	H18	H	0.613230	0.282479	0.831640
	H19	H	0.412197	0.282163	0.158972
	H20	H	0.729968	0.833857	0.396392
	H21	H	0.731660	0.160364	0.595100
	H22	H	0.299023	0.835017	0.594281
	H23	H	0.300929	0.161613	0.396255
	H24	H	0.913629	0.335224	0.209472
	H25	H	0.112710	0.661482	0.209880
	H26	H	0.112584	0.335196	0.779128
	H27	H	0.914856	0.661133	0.779762
	H28	H	0.228621	0.900474	0.330196
	H29	H	0.229934	0.096393	0.659715
	H30	H	0.801801	0.095216	0.330529
	H31	H	0.803286	0.900073	0.659196
	H32	H	0.349725	0.211287	0.895900
	H33	H	0.677303	0.215919	0.096835
	H34	H	0.350401	0.783082	0.096447
	H35	H	0.678243	0.782252	0.896181
	H36	H	0.350420	0.901141	0.209102
	H37	H	0.679943	0.097591	0.208748
	H38	H	0.350421	0.093886	0.780769
	H39	H	0.679662	0.898618	0.782546
	H40	H	0.915437	0.212439	0.331170
	H41	H	0.116720	0.214994	0.658321
	H42	H	0.115636	0.781966	0.331264
	H43	H	0.915519	0.784044	0.658475
	H44	H	0.228326	0.334464	0.895484
	H45	H	0.229550	0.660635	0.094776
	H46	H	0.797421	0.335324	0.093953
	H47	H	0.799838	0.661306	0.895970
	H48	H	0.430680	0.113247	0.595058
	H49	H	0.604240	0.883344	0.586550
	H50	H	0.603460	0.109466	0.411289
	H51	H	0.414098	0.879430	0.402647
	H52	H	0.601277	0.402217	0.111620
	H53	H	0.604680	0.595256	0.876566
	H54	H	0.412352	0.588898	0.114208
	H55	H	0.422370	0.400792	0.877514
	H56	H	0.131588	0.595491	0.407275
	H57	H	0.898795	0.592082	0.586013
	H58	H	0.129889	0.409832	0.585301
	H59	H	0.898153	0.407482	0.399804
	H60	H	0.132104	0.406623	0.590295
	H61	H	0.896805	0.591770	0.589384
	H62	H	0.130400	0.586064	0.403419
	H63	H	0.896329	0.400339	0.401860
	H64	H	0.427829	0.584013	0.108446
	H65	H	0.610428	0.589692	0.876527
	H66	H	0.610592	0.404750	0.114620
	H67	H	0.418076	0.405129	0.878144
	H68	H	0.619842	0.116336	0.404660
	H69	H	0.614279	0.880789	0.584302
	H70	H	0.424730	0.110847	0.580237
	H71	H	0.427156	0.880842	0.394930
	H72	H	0.924113	0.611746	0.084185
	H73	H	0.111829	0.380350	0.088512
	H74	H	0.111029	0.617310	0.893373
	H75	H	0.922532	0.378723	0.891253
	H76	H	0.109382	0.904909	0.612518
	H77	H	0.119747	0.086563	0.375588
	H78	H	0.932112	0.087361	0.608552
	H79	H	0.916436	0.901620	0.373979
	H80	H	0.631408	0.090700	0.906030
	H81	H	0.398218	0.092943	0.084022
	H82	H	0.631752	0.901820	0.082161
	H83	H	0.398924	0.905684	0.904791
	H84	H	0.630351	0.909224	0.086884
	H85	H	0.399666	0.086322	0.087624
	H86	H	0.631645	0.090451	0.903048
	H87	H	0.396923	0.905487	0.899391
	H88	H	0.923700	0.099725	0.614713
	H89	H	0.098530	0.083649	0.383496
	H90	H	0.107024	0.906647	0.611721
	H91	H	0.923675	0.911837	0.380061
	H92	H	0.096910	0.610784	0.902941
	H93	H	0.102982	0.381351	0.092044
	H94	H	0.915002	0.616145	0.088252
	H95	H	0.927385	0.385642	0.907111
	H96	H	0.415853	0.116022	0.591954
	H97	H	0.610504	0.878870	0.594187
	H98	H	0.604996	0.114679	0.392588
	H99	H	0.426600	0.885217	0.409122
	H100	H	0.604707	0.411635	0.110503
	H101	H	0.603140	0.587288	0.879701
	H102	H	0.425503	0.600723	0.113244
	H103	H	0.423687	0.405817	0.879970
	H104	H	0.134410	0.593206	0.397680
	H105	H	0.896178	0.594526	0.586505
	H106	H	0.131439	0.403934	0.585389
	H107	H	0.899115	0.404987	0.407617
	H108	H	0.923641	0.615426	0.094388
	H109	H	0.104532	0.383768	0.083596
	H110	H	0.113343	0.613587	0.911201
	H111	H	0.911120	0.380277	0.904344
	H112	H	0.106602	0.903655	0.611654
	H113	H	0.105097	0.103461	0.375647
	H114	H	0.916488	0.086257	0.612854
	H115	H	0.929741	0.899371	0.377815
	H116	H	0.631139	0.093112	0.904535
	H117	H	0.396651	0.092082	0.091987
	H118	H	0.632980	0.901592	0.092104
	H119	H	0.396628	0.901811	0.902578
	C120	C	0.394106	0.005551	0.617248
	C121	C	0.638484	0.988686	0.617502
	C122	C	0.637921	0.005976	0.373524
	C123	C	0.394130	0.989856	0.373537
	C124	C	0.634708	0.376823	0.003720
	C125	C	0.635000	0.619434	0.986127
	C126	C	0.392119	0.619345	0.003565
	C127	C	0.392058	0.375860	0.987113
	C128	C	0.023435	0.619722	0.374107
	C129	C	1.005944	0.620624	0.616779
	C130	C	0.023012	0.377431	0.616270
	C131	C	1.006467	0.376141	0.373858
	C132	C	0.891628	0.506517	0.117086
	C133	C	0.135380	0.489469	0.116988
	C134	C	0.135674	0.506366	0.873278
	C135	C	0.892168	0.489712	0.872819
	C136	C	0.136936	0.876163	0.503399
	C137	C	0.137133	0.120097	0.486397
	C138	C	0.894769	0.119199	0.503362
	C139	C	0.894674	0.876517	0.485975
	C140	C	0.522735	0.119035	0.874891
	C141	C	0.506253	0.120066	0.117195
	C142	C	0.523030	0.876206	0.116468
	C143	C	0.506443	0.875545	0.873873
	C144	C	0.396243	0.882731	0.671697
	C145	C	0.636269	0.111398	0.673434
	C146	C	0.635389	0.883488	0.317237
	C147	C	0.396655	0.112394	0.318243
	C148	C	0.689676	0.378739	0.880077
	C149	C	0.690416	0.617233	0.109788
	C150	C	0.337545	0.615658	0.879590
	C151	C	0.337326	0.379268	0.110830
	C152	C	0.900164	0.675118	0.376027
	C153	C	0.129596	0.675263	0.615172
	C154	C	0.900141	0.320319	0.615291
	C155	C	0.129796	0.321138	0.374997
	C156	C	0.898827	0.379991	0.670509
	C157	C	0.129297	0.617465	0.672367
	C158	C	0.899412	0.616957	0.319569
	C159	C	0.129602	0.379295	0.318223
	C160	C	0.393666	0.674481	0.880086
	C161	C	0.633295	0.674858	0.109651
	C162	C	0.633064	0.320774	0.880460
	C163	C	0.393100	0.320727	0.110442
	C164	C	0.692961	0.883013	0.375143
	C165	C	0.693789	0.111516	0.615382
	C166	C	0.337703	0.883501	0.614561
	C167	C	0.339232	0.112809	0.376157
	C168	C	0.893359	0.384127	0.172113
	C169	C	0.133348	0.612503	0.172504
	C170	C	0.133177	0.383644	0.817569
	C171	C	0.894903	0.612460	0.817967
	C172	C	0.191926	0.878905	0.379765
	C173	C	0.192509	0.117349	0.610384
	C174	C	0.839501	0.115792	0.379847
	C175	C	0.840149	0.879613	0.609867
	C176	C	0.398993	0.173522	0.875978
	C177	C	0.628979	0.177174	0.116179
	C178	C	0.399661	0.820890	0.115749
	C179	C	0.629237	0.819564	0.875627
	C180	C	0.399642	0.879584	0.172141
	C181	C	0.630310	0.118167	0.171909
	C182	C	0.399395	0.115122	0.818746
	C183	C	0.630126	0.878012	0.819461
	C184	C	0.895952	0.174131	0.380035
	C185	C	0.136341	0.176415	0.609641
	C186	C	0.135688	0.820083	0.380157
	C187	C	0.896038	0.821655	0.609457
	C188	C	0.190399	0.383234	0.875596
	C189	C	0.191112	0.612292	0.114885
	C190	C	0.835859	0.384046	0.114119
	C191	C	0.837482	0.612444	0.875755
	C192	C	0.416945	0.091199	0.595378
	C193	C	0.616226	0.903191	0.595135
	C194	C	0.615966	0.091286	0.396301
	C195	C	0.416246	0.904117	0.395665
	C196	C	0.612188	0.399502	0.089943
	C197	C	0.612606	0.597243	0.899861
	C198	C	0.414892	0.597712	0.089681
	C199	C	0.414801	0.397561	0.900781
	C200	C	0.109668	0.597905	0.396114
	C201	C	0.919636	0.598954	0.593932
	C202	C	0.108938	0.400158	0.593712
	C203	C	0.920119	0.397864	0.396594
	C204	C	0.914355	0.592350	0.095355
	C205	C	0.112939	0.404051	0.094609
	C206	C	0.113709	0.591772	0.895874
	C207	C	0.914073	0.403751	0.894435
	C208	C	0.114360	0.898414	0.589509
	C209	C	0.114539	0.097858	0.400488
	C210	C	0.917366	0.097512	0.589735
	C211	C	0.917086	0.898029	0.399459
	C212	C	0.609242	0.097593	0.897758
	C213	C	0.420559	0.097098	0.094490
	C214	C	0.609196	0.897874	0.093745
	C215	C	0.419923	0.897753	0.895847
	Zn216	Zn	0.515781	-0.003215	0.746059
	Zn217	Zn	0.515782	-0.002036	0.244774
	Zn218	Zn	0.763057	0.497952	-0.005377
	Zn219	Zn	0.264490	0.497371	-0.004672
	Zn220	Zn	0.015072	0.748730	0.494747
	Zn221	Zn	0.015240	0.248306	0.495145
	Zn222	Zn	0.013768	0.498470	0.744469
	Zn223	Zn	0.013846	0.497840	0.245994
	Zn224	Zn	0.513756	0.747509	-0.005323
	Zn225	Zn	0.513576	0.248579	-0.004116
	Zn226	Zn	0.767191	-0.002614	0.495250
	Zn227	Zn	0.265354	-0.001848	0.494849
	N228	N	0.430651	0.959770	0.673351
	N229	N	0.602415	0.034063	0.674856
	N230	N	0.602010	0.960901	0.315949
	N231	N	0.430383	0.034989	0.316849
	N232	N	0.690650	0.412905	0.957589
	N233	N	0.691484	0.583396	0.031979
	N234	N	0.336424	0.582268	0.957349
	N235	N	0.336688	0.413023	0.033133
	N236	N	0.978182	0.676995	0.409260
	N237	N	0.051812	0.677379	0.581289
	N238	N	0.978250	0.318671	0.582191
	N239	N	0.052074	0.319198	0.408908
	N240	N	0.976082	0.414909	0.671098
	N241	N	0.051364	0.584352	0.673426
	N242	N	0.976969	0.582907	0.318409
	N243	N	0.051827	0.412687	0.317380
	N244	N	0.426875	0.677021	0.958197
	N245	N	0.599367	0.676258	0.031875
	N246	N	0.599646	0.319416	0.958553
	N247	N	0.426531	0.318516	0.032508
	N248	N	0.694530	0.960025	0.409707
	N249	N	0.695293	0.034270	0.581354
	N250	N	0.336311	0.960875	0.581407
	N251	N	0.337526	0.035514	0.409672
	N252	N	0.927536	0.461209	0.173873
	N253	N	0.099257	0.535279	0.173958
	N254	N	0.099714	0.460918	0.816070
	N255	N	0.928404	0.535128	0.816311
	N256	N	0.192727	0.913189	0.457251
	N257	N	0.193150	0.083047	0.532849
	N258	N	0.838546	0.082415	0.457640
	N259	N	0.839165	0.912905	0.532001
	N260	N	0.476678	0.175849	0.910319
	N261	N	0.550915	0.178557	0.082848
	N262	N	0.477293	0.818634	0.081758
	N263	N	0.551063	0.818090	0.908701
	N264	N	0.477424	0.913164	0.172754
	N265	N	0.553027	0.083297	0.172775
	N266	N	0.477360	0.081975	0.818069
	N267	N	0.552540	0.911914	0.818096
	N268	N	0.929562	0.176380	0.458005
	N269	N	0.102807	0.178438	0.531618
	N270	N	0.102138	0.818421	0.458136
	N271	N	0.929141	0.819515	0.531280
	N272	N	0.192301	0.460658	0.909414
	N273	N	0.192581	0.534940	0.081110
	N274	N	0.834556	0.461442	0.080679
	N275	N	0.835596	0.535006	0.909050
	O276	O	1.051407	0.997073	0.004421
	H277	H	1.053932	0.995085	-0.007621
	H278	H	1.055312	1.002673	0.002146
	O279	O	0.031690	-0.008160	0.949492
	H280	H	0.026013	-0.015972	0.947247
	H281	H	0.041458	-0.005541	0.950908
	O282	O	-0.468008	0.528547	0.584126
	H283	H	-0.462051	0.531737	0.582782
	H284	H	-0.474391	0.522037	0.586433
	O285	O	0.492967	0.584260	0.429011
	H286	H	0.498962	0.579089	0.429088
	H287	H	0.494167	0.582451	0.418478
	O288	O	0.032443	0.024506	-0.009901
	H289	H	0.033641	0.023923	-0.007234
	H290	H	0.042259	0.018417	-0.013610
	O291	O	0.025265	1.032359	0.016793
	H292	H	0.017493	1.028692	0.018550
	H293	H	0.025547	1.039526	0.021439
	O294	O	0.057319	0.971859	-0.026263
	H295	H	0.062113	0.984449	-0.023479
	H296	H	0.064833	0.966570	-0.028426
	O297	O	0.521423	0.457260	0.511787
	H298	H	0.521431	0.467351	0.518668
	H299	H	0.517140	0.445089	0.520024
	O300	O	0.517457	0.483905	0.465323
	H301	H	0.517532	0.480570	0.469903
	H302	H	0.525200	0.487616	0.471822
	O303	O	0.455751	-0.597731	1.564676
	H304	H	0.455940	-0.585576	1.562235
	H305	H	0.456043	-0.594940	1.578965
	O306	O	0.018815	1.073569	1.006815
	H307	H	0.011940	1.071120	1.019551
	H308	H	0.019943	1.074837	0.999405
	O309	O	-0.078578	1.031619	0.961809
	H310	H	-0.082874	1.031138	0.959687
	H311	H	-0.079636	1.029771	0.959683
	O312	O	0.034350	-0.015128	0.922434
	H313	H	0.045955	-0.013183	0.927651
	H314	H	0.030480	-0.008550	0.922400
	O315	O	0.512283	0.394937	0.459659
	H316	H	0.516080	0.402836	0.475936
	H317	H	0.502094	0.374678	0.458956
	O318	O	0.018006	0.027983	1.040555
	H319	H	0.017048	0.022563	1.041091
	H320	H	0.011552	0.025878	1.044211
	O321	O	0.521319	0.526825	0.456117
	H322	H	0.514455	0.519756	0.455781
	H323	H	0.519252	0.532223	0.459960
	O324	O	1.029866	-0.070078	0.986628
	H325	H	1.035143	-0.068540	0.980389
	H326	H	1.029048	-0.074105	0.992159
	O327	O	1.087246	1.001492	1.013665
	H328	H	1.084292	0.995721	1.010590
	H329	H	1.080029	1.002831	1.021166
	O330	O	0.468656	0.497752	0.532810
	H331	H	0.469060	0.510545	0.523971
	H332	H	0.473446	0.502065	0.530882
	O333	O	0.506412	0.554511	0.435404
	H334	H	0.507686	0.556998	0.439459
	H335	H	0.501580	0.553243	0.427290
	O336	O	0.475620	0.567405	0.525932
	H337	H	0.467573	0.568325	0.519349
	H338	H	0.473522	0.563050	0.520542
	O339	O	-0.519813	0.489146	-0.514266
	H340	H	-0.512734	0.484041	-0.513084
	H341	H	-0.522216	0.489085	-0.516433
	O342	O	0.501372	0.433593	0.472307
	H343	H	0.495304	0.418578	0.470482
	H344	H	0.497621	0.430781	0.466525
	O345	O	0.497728	0.491865	0.533572
	H346	H	0.499436	0.497655	0.529491
	H347	H	0.490574	0.488178	0.529313
