data_Molecule from HDF5

_cell_length_a		16.415647
_cell_length_b		16.401904
_cell_length_c		16.397639
_cell_angle_alpha	90.101698
_cell_angle_beta	90.115647
_cell_angle_gamma	90.046417
_symmetry_space_group_name_H-M	'P 1'
_symmetry_Int_Tables_number		1

loop_
	_symmetry_equiv_pos_as_xyz
	x,y,z

loop_
	_atom_site_label
	_atom_site_type_symbol
	_atom_site_fract_x
	_atom_site_fract_y
	_atom_site_fract_z
	H0	H	0.392712	0.836957	0.723905
	H1	H	0.600100	0.156429	0.723224
	H2	H	0.599911	0.837237	0.285034
	H3	H	0.390879	0.154357	0.282281
	H4	H	0.717764	0.389992	0.844364
	H5	H	0.717952	0.600054	0.162726
	H6	H	0.276475	0.598784	0.844370
	H7	H	0.275921	0.390206	0.163008
	H8	H	0.837843	0.714265	0.401334
	H9	H	0.154522	0.719042	0.611645
	H10	H	0.838379	0.274369	0.609547
	H11	H	0.154569	0.272734	0.397614
	H12	H	0.836968	0.392397	0.723094
	H13	H	0.154816	0.601943	0.726671
	H14	H	0.837178	0.596344	0.286154
	H15	H	0.153740	0.387596	0.281590
	H16	H	0.393248	0.714697	0.844093
	H17	H	0.600480	0.715651	0.162635
	H18	H	0.600371	0.275203	0.844050
	H19	H	0.392928	0.275612	0.163238
	H20	H	0.713945	0.836148	0.403255
	H21	H	0.716981	0.155512	0.609506
	H22	H	0.275487	0.837591	0.608476
	H23	H	0.274072	0.154186	0.397676
	H24	H	0.891807	0.335722	0.223921
	H25	H	0.100636	0.655353	0.224680
	H26	H	0.103177	0.337958	0.779486
	H27	H	0.893757	0.654834	0.785505
	H28	H	0.217689	0.890973	0.344472
	H29	H	0.219326	0.103258	0.662863
	H30	H	0.774312	0.102300	0.345388
	H31	H	0.778558	0.894007	0.663337
	H32	H	0.338179	0.217791	0.897831
	H33	H	0.655962	0.217826	0.110053
	H34	H	0.338910	0.773625	0.111325
	H35	H	0.656387	0.776776	0.900377
	H36	H	0.338277	0.891267	0.225102
	H37	H	0.656130	0.101725	0.224989
	H38	H	0.338367	0.102181	0.782006
	H39	H	0.656176	0.892781	0.785250
	H40	H	0.889714	0.218097	0.345926
	H41	H	0.102675	0.218944	0.662509
	H42	H	0.101496	0.775407	0.344330
	H43	H	0.892501	0.776282	0.662453
	H44	H	0.216799	0.335767	0.897954
	H45	H	0.217017	0.655251	0.109247
	H46	H	0.774734	0.336962	0.109508
	H47	H	0.777268	0.654085	0.900111
	H48	H	0.413528	0.107189	0.591446
	H49	H	0.587327	0.880885	0.599199
	H50	H	0.584592	0.112399	0.408600
	H51	H	0.402861	0.880803	0.416167
	H52	H	0.585834	0.411330	0.115314
	H53	H	0.586342	0.583308	0.890559
	H54	H	0.406730	0.585331	0.118607
	H55	H	0.411135	0.408233	0.891997
	H56	H	0.110601	0.582428	0.413833
	H57	H	0.881898	0.586379	0.596497
	H58	H	0.109903	0.406354	0.590922
	H59	H	0.881314	0.401614	0.414290
	H60	H	0.107643	0.409377	0.588367
	H61	H	0.882755	0.588770	0.591248
	H62	H	0.111915	0.587501	0.412762
	H63	H	0.885623	0.408353	0.419743
	H64	H	0.407212	0.584782	0.117507
	H65	H	0.584714	0.587556	0.889602
	H66	H	0.583211	0.406960	0.116268
	H67	H	0.406363	0.402323	0.888324
	H68	H	0.583526	0.108439	0.419396
	H69	H	0.583435	0.884098	0.592107
	H70	H	0.402982	0.110231	0.588892
	H71	H	0.411032	0.882624	0.409523
	H72	H	0.901132	0.611472	0.094649
	H73	H	0.081150	0.382353	0.099441
	H74	H	0.083804	0.607230	0.916918
	H75	H	0.911075	0.383599	0.915977
	H76	H	0.084640	0.904828	0.617554
	H77	H	0.079923	0.075828	0.395997
	H78	H	0.904323	0.088981	0.620043
	H79	H	0.903379	0.901201	0.387604
	H80	H	0.610477	0.088714	0.915761
	H81	H	0.384973	0.084211	0.090653
	H82	H	0.609744	0.911193	0.095876
	H83	H	0.385603	0.908901	0.920118
	H84	H	0.612967	0.902897	0.095516
	H85	H	0.384633	0.084234	0.094256
	H86	H	0.608997	0.083928	0.916015
	H87	H	0.382083	0.910178	0.907238
	H88	H	0.905317	0.080819	0.616607
	H89	H	0.080179	0.092323	0.390979
	H90	H	0.088397	0.908170	0.617660
	H91	H	0.902255	0.909584	0.389052
	H92	H	0.088142	0.608756	0.915984
	H93	H	0.083686	0.384628	0.086586
	H94	H	0.911887	0.609701	0.098955
	H95	H	0.902973	0.380365	0.916264
	H96	H	0.407260	0.111167	0.599273
	H97	H	0.592067	0.882162	0.590937
	H98	H	0.593405	0.111935	0.416053
	H99	H	0.412058	0.885690	0.419533
	H100	H	0.588112	0.406824	0.117053
	H101	H	0.588843	0.586272	0.888833
	H102	H	0.407423	0.585698	0.117149
	H103	H	0.403794	0.409137	0.890711
	H104	H	0.109881	0.585970	0.417154
	H105	H	0.884463	0.583314	0.592320
	H106	H	0.108834	0.410951	0.592968
	H107	H	0.882584	0.410185	0.410710
	H108	H	0.909235	0.605971	0.087742
	H109	H	0.093020	0.379634	0.094306
	H110	H	0.084663	0.609243	0.913005
	H111	H	0.907066	0.380184	0.908698
	H112	H	0.083518	0.909418	0.615600
	H113	H	0.093940	0.082210	0.389193
	H114	H	0.912255	0.086802	0.616788
	H115	H	0.909732	0.905838	0.390185
	H116	H	0.611514	0.084886	0.912005
	H117	H	0.383301	0.086406	0.092668
	H118	H	0.608212	0.906425	0.088826
	H119	H	0.380647	0.898273	0.913310
	C120	C	0.375685	0.004658	0.625267
	C121	C	0.618451	0.987883	0.625805
	C122	C	0.618608	0.005390	0.383052
	C123	C	0.375663	0.987960	0.382813
	C124	C	0.618111	0.374839	0.011605
	C125	C	0.618653	0.617155	0.994711
	C126	C	0.375361	0.616813	0.012282
	C127	C	0.374978	0.374182	0.995504
	C128	C	0.005107	0.615928	0.383510
	C129	C	0.987635	0.618668	0.626250
	C130	C	0.004420	0.376209	0.623722
	C131	C	0.987640	0.373541	0.382201
	C132	C	0.875437	0.503804	0.125607
	C133	C	0.118238	0.487049	0.125890
	C134	C	0.118131	0.503843	0.881994
	C135	C	0.875428	0.486535	0.882318
	C136	C	0.117823	0.874933	0.511807
	C137	C	0.118016	0.117529	0.496197
	C138	C	0.874844	0.117714	0.512768
	C139	C	0.874821	0.874894	0.494730
	C140	C	0.505116	0.117599	0.882821
	C141	C	0.488753	0.117819	0.125684
	C142	C	0.505389	0.874656	0.125513
	C143	C	0.488250	0.874485	0.882261
	C144	C	0.373844	0.884868	0.684539
	C145	C	0.619386	0.108089	0.684602
	C146	C	0.618794	0.885002	0.324572
	C147	C	0.372691	0.107020	0.322418
	C148	C	0.677733	0.371980	0.892024
	C149	C	0.677769	0.618552	0.114959
	C150	C	0.316315	0.617774	0.892255
	C151	C	0.315724	0.372432	0.115133
	C152	C	0.885451	0.674782	0.382302
	C153	C	0.107103	0.678918	0.629162
	C154	C	0.885275	0.315469	0.627072
	C155	C	0.106721	0.312914	0.379624
	C156	C	0.884685	0.374312	0.683402
	C157	C	0.107090	0.620665	0.686554
	C158	C	0.884828	0.616049	0.325287
	C159	C	0.106664	0.370041	0.321591
	C160	C	0.374315	0.675561	0.892009
	C161	C	0.619591	0.676176	0.114901
	C162	C	0.619281	0.314774	0.891931
	C163	C	0.374099	0.315261	0.115183
	C164	C	0.675663	0.884501	0.383003
	C165	C	0.677287	0.107870	0.627464
	C166	C	0.315775	0.884954	0.626874
	C167	C	0.314633	0.106749	0.380081
	C168	C	0.873574	0.383756	0.184573
	C169	C	0.119721	0.607192	0.185379
	C170	C	0.121086	0.384937	0.820469
	C171	C	0.874797	0.606807	0.824503
	C172	C	0.177706	0.872772	0.392219
	C173	C	0.179196	0.121229	0.615129
	C174	C	0.814003	0.120431	0.393423
	C175	C	0.817057	0.874395	0.615375
	C176	C	0.385761	0.177662	0.880223
	C177	C	0.608242	0.178026	0.128293
	C178	C	0.386330	0.814019	0.128563
	C179	C	0.608362	0.815995	0.881479
	C180	C	0.386097	0.872705	0.185453
	C181	C	0.608296	0.120166	0.185514
	C182	C	0.385895	0.120002	0.822375
	C183	C	0.608189	0.873680	0.823926
	C184	C	0.872116	0.177856	0.393414
	C185	C	0.120899	0.178850	0.615110
	C186	C	0.119910	0.815137	0.392134
	C187	C	0.873981	0.815938	0.614655
	C188	C	0.177706	0.384043	0.879479
	C189	C	0.177495	0.607162	0.127629
	C190	C	0.815193	0.384253	0.127745
	C191	C	0.816585	0.606362	0.881191
	C192	C	0.400612	0.087919	0.600269
	C193	C	0.594344	0.904257	0.601218
	C194	C	0.594123	0.089126	0.407384
	C195	C	0.401285	0.904684	0.407946
	C196	C	0.592827	0.400969	0.094660
	C197	C	0.593973	0.592607	0.911512
	C198	C	0.400168	0.592332	0.095781
	C199	C	0.399892	0.399492	0.912016
	C200	C	0.089058	0.592115	0.407679
	C201	C	0.904696	0.593392	0.600891
	C202	C	0.087061	0.401609	0.598332
	C203	C	0.904717	0.399211	0.407468
	C204	C	0.900211	0.587213	0.100911
	C205	C	0.093272	0.403825	0.100949
	C206	C	0.092967	0.586755	0.907601
	C207	C	0.899930	0.403014	0.906645
	C208	C	0.092926	0.900277	0.595177
	C209	C	0.092128	0.091179	0.413444
	C210	C	0.900050	0.092748	0.596046
	C211	C	0.898462	0.898760	0.410952
	C212	C	0.588457	0.092899	0.907532
	C213	C	0.405904	0.092484	0.100068
	C214	C	0.588641	0.899513	0.100580
	C215	C	0.404526	0.898657	0.906616
	Zn216	Zn	0.496999	-0.003462	0.753769
	Zn217	Zn	0.497368	-0.003325	0.254185
	Zn218	Zn	0.747715	0.495308	0.003566
	Zn219	Zn	0.246384	0.495427	0.003805
	Zn220	Zn	-0.003425	0.746313	0.503580
	Zn221	Zn	-0.003659	0.246094	0.504339
	Zn222	Zn	-0.003533	0.495663	0.753904
	Zn223	Zn	-0.003602	0.495284	0.254175
	Zn224	Zn	0.496880	0.746185	0.003652
	Zn225	Zn	0.497340	0.245915	0.004118
	Zn226	Zn	0.746701	-0.003491	0.504242
	Zn227	Zn	0.246739	-0.003985	0.503756
	N228	N	0.409994	0.960453	0.683824
	N229	N	0.583559	0.032439	0.683863
	N230	N	0.584176	0.961318	0.324380
	N231	N	0.410226	0.032160	0.324305
	N232	N	0.677226	0.408539	0.967526
	N233	N	0.677555	0.582501	0.039138
	N234	N	0.316577	0.582394	0.968120
	N235	N	0.316232	0.408176	0.039412
	N236	N	0.961530	0.674873	0.417324
	N237	N	0.031805	0.677899	0.592334
	N238	N	0.960385	0.316540	0.590549
	N239	N	0.031624	0.314852	0.416543
	N240	N	0.959891	0.411347	0.681620
	N241	N	0.031843	0.584155	0.685030
	N242	N	0.960424	0.580460	0.325766
	N243	N	0.031733	0.407057	0.323132
	N244	N	0.410346	0.675154	0.967769
	N245	N	0.583667	0.675503	0.039398
	N246	N	0.583179	0.316411	0.967476
	N247	N	0.410090	0.316117	0.039550
	N248	N	0.675638	0.960351	0.418520
	N249	N	0.676962	0.032046	0.591675
	N250	N	0.316622	0.960490	0.590911
	N251	N	0.316720	0.031707	0.416992
	N252	N	0.910187	0.459202	0.183471
	N253	N	0.083897	0.531328	0.184832
	N254	N	0.084876	0.460328	0.821975
	N255	N	0.910578	0.531224	0.824959
	N256	N	0.176634	0.909097	0.467706
	N257	N	0.177345	0.083612	0.540278
	N258	N	0.815739	0.083710	0.468724
	N259	N	0.817309	0.910405	0.539764
	N260	N	0.460800	0.176220	0.917320
	N261	N	0.532982	0.176547	0.091588
	N262	N	0.461467	0.815238	0.091763
	N263	N	0.532625	0.816120	0.916894
	N264	N	0.461023	0.910052	0.183483
	N265	N	0.532928	0.083491	0.184247
	N266	N	0.461106	0.083274	0.824018
	N267	N	0.532416	0.909465	0.824260
	N268	N	0.909065	0.176409	0.468521
	N269	N	0.083786	0.176717	0.539960
	N270	N	0.083497	0.816291	0.467563
	N271	N	0.909276	0.816185	0.538848
	N272	N	0.175988	0.459051	0.917143
	N273	N	0.176848	0.531518	0.091547
	N274	N	0.816273	0.459821	0.091735
	N275	N	0.817017	0.530515	0.916611
	O276	O	0.625290	0.310366	0.387758
	H277	H	0.637153	0.311791	0.410873
	H278	H	0.607792	0.296464	0.383508
	O279	O	0.662961	0.477248	0.316429
	H280	H	0.659015	0.453933	0.319293
	H281	H	0.675338	0.464675	0.304305
	O282	O	0.479884	0.621577	0.618517
	H283	H	0.474327	0.625669	0.615314
	H284	H	0.488202	0.620608	0.627075
	O285	O	0.802736	0.992607	-0.135480
	H286	H	0.816309	0.973909	-0.128062
	H287	H	0.793220	0.991535	-0.130412
	O288	O	0.489708	0.687220	0.375295
	H289	H	0.499213	0.662558	0.369472
	H290	H	0.508075	0.697558	0.363639
	O291	O	0.363239	0.571788	0.600328
	H292	H	0.373572	0.582853	0.584812
	H293	H	0.356284	0.564162	0.575920
	O294	O	0.802831	1.131946	0.946480
	H295	H	0.777365	1.143607	0.939297
	H296	H	0.812328	1.127537	0.940455
	O297	O	0.310799	0.305504	0.578577
	H298	H	0.301809	0.311156	0.562173
	H299	H	0.302699	0.310100	0.569176
	O300	O	0.546499	0.521200	0.319063
	H301	H	0.571607	0.508679	0.323591
	H302	H	0.535433	0.505661	0.327725
	O303	O	0.283290	0.706370	0.482187
	H304	H	0.258746	0.719255	0.481104
	H305	H	0.288113	0.707509	0.450993
	O306	O	0.035773	0.164096	0.858486
	H307	H	0.054604	0.171262	0.867862
	H308	H	0.040710	0.168775	0.880842
	O309	O	0.950842	0.010315	0.106826
	H310	H	0.931125	0.003898	0.105951
	H311	H	0.953791	0.014917	0.101418
	O312	O	0.445515	0.340846	0.440003
	H313	H	0.447275	0.323838	0.431753
	H314	H	0.448545	0.331300	0.458140
	O315	O	0.684147	0.554207	0.553917
	H316	H	0.702002	0.555040	0.560782
	H317	H	0.678019	0.542062	0.562152
	O318	O	-0.102380	0.065397	0.171893
	H319	H	-0.093912	0.074551	0.161386
	H320	H	-0.116309	0.062260	0.177559
	O321	O	0.635298	0.398622	0.569098
	H322	H	0.626887	0.397425	0.572231
	H323	H	0.644470	0.406680	0.587953
	O324	O	1.049005	0.100063	0.959690
	H325	H	1.061468	0.110375	0.969120
	H326	H	1.053316	0.103933	0.964319
	O327	O	0.582650	0.548947	0.626501
	H328	H	0.590950	0.572292	0.632721
	H329	H	0.570614	0.547836	0.631151
	O330	O	0.211298	0.962822	0.900893
	H331	H	0.206673	0.965911	0.914736
	H332	H	0.235489	0.967597	0.870875
	O333	O	0.076584	0.885124	0.125647
	H334	H	0.084758	0.889336	0.110773
	H335	H	0.080074	0.858428	0.125720
	O336	O	1.184693	0.799852	0.002940
	H337	H	1.179438	0.793698	-0.025354
	H338	H	1.197063	0.777787	-0.013871
	O339	O	0.176467	1.015767	1.152565
	H340	H	0.169681	0.996539	1.158035
	H341	H	0.186953	1.003987	1.134920
	O342	O	0.298139	0.552207	0.299859
	H343	H	0.300426	0.541182	0.324141
	H344	H	0.278239	0.545195	0.279747
	O345	O	-0.184077	0.051084	0.984607
	H346	H	-0.174539	0.054204	0.979434
	H347	H	-0.186249	0.059142	0.987698
	O348	O	0.468258	0.339483	0.593420
	H349	H	0.463303	0.340894	0.603930
	H350	H	0.485512	0.347264	0.602117
	O351	O	0.878915	0.862909	0.155104
	H352	H	0.876073	0.861347	0.167122
	H353	H	0.883824	0.868461	0.156862
	O354	O	0.860473	1.155942	0.811246
	H355	H	0.863349	1.142293	0.803307
	H356	H	0.853835	1.154806	0.827896
	O357	O	-0.082329	-0.083777	0.070779
	H358	H	-0.090330	-0.084490	0.073559
	H359	H	-0.083276	-0.094984	0.068841
	O360	O	0.625899	0.299137	0.527558
	H361	H	0.654256	0.299524	0.533306
	H362	H	0.606522	0.300415	0.559128
	O363	O	0.868651	-0.072660	-0.070373
	H364	H	0.871691	-0.068561	-0.068189
	H365	H	0.890179	-0.060765	-0.073530
	O366	O	0.050002	-0.079409	0.869764
	H367	H	0.063305	-0.083384	0.861172
	H368	H	0.059861	-0.059926	0.871656
	O369	O	0.659340	-0.274973	0.739115
	H370	H	0.661485	-0.279333	0.744945
	H371	H	0.664300	-0.254181	0.740191
	O372	O	0.361510	0.532055	0.692802
	H373	H	0.352231	0.551660	0.687919
	H374	H	0.345124	0.540393	0.679141
	O375	O	0.110737	0.088910	0.888899
	H376	H	0.104908	0.091195	0.904787
	H377	H	0.099736	0.107849	0.906723
	O378	O	0.367044	0.361340	0.692349
	H379	H	0.353337	0.358456	0.708115
	H380	H	0.341956	0.364911	0.673584
	O381	O	0.185214	1.167018	0.028786
	H382	H	0.195045	1.176797	0.046161
	H383	H	0.194499	1.166253	0.044206
	O384	O	0.684103	0.684045	0.593240
	H385	H	0.697861	0.692707	0.608339
	H386	H	0.676908	0.678944	0.590011
	O387	O	0.575759	0.545039	0.697907
	H388	H	0.570639	0.553075	0.704634
	H389	H	0.577643	0.548013	0.707519
	O390	O	0.999289	0.843184	0.178013
	H391	H	0.995337	0.842636	0.193037
	H392	H	0.988240	0.836804	0.185587
	O393	O	0.970688	0.039050	1.070752
	H394	H	0.970507	0.034277	1.061731
	H395	H	0.974012	0.038827	1.083717
	O396	O	0.868884	0.792347	0.071006
	H397	H	0.871854	0.792883	0.082434
	H398	H	0.869760	0.799302	0.059249
	O399	O	0.633711	0.639236	0.374125
	H400	H	0.633963	0.645013	0.390274
	H401	H	0.617533	0.618956	0.360563
	O402	O	0.803669	0.851445	0.078514
	H403	H	0.804458	0.857935	0.103624
	H404	H	0.796468	0.831204	0.091067
	O405	O	0.290971	0.482776	0.432816
	H406	H	0.318480	0.492253	0.440131
	H407	H	0.283514	0.492488	0.418939
	O408	O	0.459087	0.384711	0.602949
	H409	H	0.456858	0.375296	0.615671
	H410	H	0.446891	0.403869	0.618445
	O411	O	0.934882	1.170915	1.048979
	H412	H	0.939865	1.172602	1.062505
	H413	H	0.914653	1.160205	1.052150
	O414	O	0.404851	0.409998	0.357663
	H415	H	0.413774	0.414439	0.356197
	H416	H	0.403444	0.424811	0.367940
	O417	O	0.075690	0.991157	0.812560
	H418	H	0.077524	1.011112	0.814466
	H419	H	0.065192	1.006702	0.814047
	O420	O	0.077703	0.852572	0.835726
	H421	H	0.067580	0.859907	0.834954
	H422	H	0.084683	0.855116	0.839858
	O423	O	0.187125	1.164533	0.190685
	H424	H	0.182133	1.124310	0.191911
	H425	H	0.179931	1.166287	0.211937
	O426	O	0.366643	0.686706	0.320652
	H427	H	0.387959	0.688667	0.305589
	H428	H	0.362357	0.661276	0.314229
	O429	O	0.526264	0.597670	0.525058
	H430	H	0.531185	0.602894	0.540426
	H431	H	0.534006	0.604014	0.520577
	O432	O	0.577211	0.422402	0.481819
	H433	H	0.585051	0.413054	0.484460
	H434	H	0.582268	0.417764	0.479366
	O435	O	0.038117	0.134946	0.170710
	H436	H	0.037719	0.143129	0.177677
	H437	H	0.055065	0.127840	0.162620
	O438	O	0.113328	0.798600	0.838738
	H439	H	0.105596	0.783454	0.825156
	H440	H	0.114503	0.823965	0.824567
	O441	O	0.518326	0.306983	0.344005
	H442	H	0.515141	0.314448	0.345249
	H443	H	0.520564	0.300454	0.346642
