data_Molecule from HDF5

_cell_length_a		16.493902
_cell_length_b		16.018168
_cell_length_c		16.389995
_cell_angle_alpha	90.120453
_cell_angle_beta	90.224289
_cell_angle_gamma	90.059838
_symmetry_space_group_name_H-M	'P 1'
_symmetry_Int_Tables_number		1

loop_
	_symmetry_equiv_pos_as_xyz
	x,y,z

loop_
	_atom_site_label
	_atom_site_type_symbol
	_atom_site_fract_x
	_atom_site_fract_y
	_atom_site_fract_z
	H0	H	0.386267	0.833117	0.705733
	H1	H	0.585202	0.163962	0.711346
	H2	H	0.585329	0.833804	0.277474
	H3	H	0.381959	0.162803	0.277518
	H4	H	0.702786	0.390698	0.834085
	H5	H	0.703624	0.602971	0.154673
	H6	H	0.261303	0.601938	0.834714
	H7	H	0.262939	0.391428	0.154797
	H8	H	0.822458	0.713413	0.396567
	H9	H	0.145484	0.713296	0.593825
	H10	H	0.822199	0.281615	0.592073
	H11	H	0.145765	0.283531	0.397593
	H12	H	0.822783	0.393539	0.712585
	H13	H	0.142210	0.602941	0.716412
	H14	H	0.825124	0.604123	0.273474
	H15	H	0.142879	0.392954	0.274733
	H16	H	0.385714	0.710093	0.830454
	H17	H	0.580640	0.713369	0.157327
	H18	H	0.577389	0.284701	0.830402
	H19	H	0.386893	0.283157	0.156977
	H20	H	0.702808	0.835259	0.390532
	H21	H	0.701317	0.164098	0.596766
	H22	H	0.268236	0.835231	0.596800
	H23	H	0.268307	0.163602	0.393591
	H24	H	0.884405	0.332504	0.209108
	H25	H	0.085373	0.662317	0.211000
	H26	H	0.084011	0.333355	0.777465
	H27	H	0.882825	0.662879	0.779701
	H28	H	0.204374	0.895254	0.334483
	H29	H	0.204264	0.103371	0.656194
	H30	H	0.761869	0.106853	0.336290
	H31	H	0.764309	0.893040	0.653890
	H32	H	0.321163	0.212790	0.893526
	H33	H	0.644464	0.213693	0.092498
	H34	H	0.321167	0.782615	0.092147
	H35	H	0.644888	0.782358	0.897252
	H36	H	0.324398	0.892310	0.214711
	H37	H	0.641480	0.104983	0.215914
	H38	H	0.324129	0.100189	0.774145
	H39	H	0.643590	0.893173	0.774995
	H40	H	0.888565	0.210773	0.331479
	H41	H	0.082154	0.212681	0.658085
	H42	H	0.083034	0.782871	0.332046
	H43	H	0.890290	0.786990	0.657779
	H44	H	0.198910	0.333100	0.892957
	H45	H	0.201405	0.661119	0.097720
	H46	H	0.766362	0.333346	0.096634
	H47	H	0.765798	0.661939	0.893009
	H48	H	0.391080	0.118470	0.588589
	H49	H	0.579397	0.881692	0.582996
	H50	H	0.574695	0.115463	0.405207
	H51	H	0.388482	0.881448	0.407882
	H52	H	0.571890	0.401831	0.108985
	H53	H	0.573882	0.585943	0.881061
	H54	H	0.393646	0.584210	0.106615
	H55	H	0.395804	0.407791	0.882617
	H56	H	0.098354	0.583996	0.396079
	H57	H	0.870380	0.587383	0.585863
	H58	H	0.096321	0.413483	0.587509
	H59	H	0.869415	0.402732	0.402555
	H60	H	0.098105	0.406794	0.592780
	H61	H	0.868082	0.588970	0.590794
	H62	H	0.101280	0.596490	0.400223
	H63	H	0.872310	0.410714	0.402708
	H64	H	0.392171	0.592403	0.109995
	H65	H	0.576183	0.591879	0.877972
	H66	H	0.583231	0.407314	0.111233
	H67	H	0.385718	0.398683	0.875785
	H68	H	0.572566	0.115485	0.405297
	H69	H	0.574328	0.881167	0.586698
	H70	H	0.397185	0.115925	0.586516
	H71	H	0.394863	0.880181	0.398916
	H72	H	0.887920	0.616579	0.083960
	H73	H	0.067746	0.382174	0.084378
	H74	H	0.076821	0.615916	0.905996
	H75	H	0.894671	0.381163	0.904182
	H76	H	0.080234	0.908886	0.610183
	H77	H	0.073096	0.093311	0.381191
	H78	H	0.893278	0.090444	0.610127
	H79	H	0.892395	0.911029	0.380513
	H80	H	0.596348	0.091750	0.906925
	H81	H	0.365021	0.100628	0.086359
	H82	H	0.597964	0.907354	0.088316
	H83	H	0.366798	0.899894	0.895733
	H84	H	0.596557	0.907661	0.084185
	H85	H	0.374291	0.083233	0.076844
	H86	H	0.595020	0.083620	0.902058
	H87	H	0.370549	0.906997	0.903540
	H88	H	0.890095	0.087975	0.609937
	H89	H	0.084688	0.092464	0.377172
	H90	H	0.077900	0.909478	0.608515
	H91	H	0.893092	0.905305	0.378879
	H92	H	0.072607	0.614875	0.902678
	H93	H	0.077090	0.381162	0.080091
	H94	H	0.896033	0.615531	0.088324
	H95	H	0.889679	0.381064	0.906383
	H96	H	0.392171	0.117092	0.581792
	H97	H	0.574204	0.883711	0.581926
	H98	H	0.573263	0.114383	0.406753
	H99	H	0.398857	0.884633	0.407715
	H100	H	0.574002	0.414521	0.105506
	H101	H	0.580042	0.586755	0.878820
	H102	H	0.386162	0.586195	0.109879
	H103	H	0.381758	0.413639	0.879555
	H104	H	0.096257	0.587771	0.407985
	H105	H	0.868800	0.593266	0.586790
	H106	H	0.097142	0.405075	0.584965
	H107	H	0.868557	0.407872	0.396990
	H108	H	0.895250	0.611902	0.080027
	H109	H	0.075264	0.377824	0.089646
	H110	H	0.071607	0.613407	0.908294
	H111	H	0.890923	0.378870	0.900822
	H112	H	0.078362	0.906484	0.609686
	H113	H	0.079046	0.082903	0.381064
	H114	H	0.893377	0.086260	0.609338
	H115	H	0.888296	0.908338	0.378318
	H116	H	0.599680	0.091479	0.897772
	H117	H	0.367556	0.081891	0.096951
	H118	H	0.595337	0.910226	0.087168
	H119	H	0.368711	0.910933	0.893465
	C120	C	0.364165	0.008090	0.614874
	C121	C	0.605888	0.990904	0.614985
	C122	C	0.604687	0.007208	0.373970
	C123	C	0.363374	0.990267	0.374057
	C124	C	0.604880	0.376399	0.001885
	C125	C	0.605634	0.619570	0.986021
	C126	C	0.361118	0.618570	0.002399
	C127	C	0.359692	0.375430	0.985932
	C128	C	-0.007327	0.620504	0.371906
	C129	C	0.975339	0.620317	0.617567
	C130	C	-0.008496	0.376910	0.617107
	C131	C	0.975907	0.376186	0.371870
	C132	C	0.862869	0.506278	0.114914
	C133	C	0.104378	0.488738	0.115459
	C134	C	0.103710	0.506029	0.874387
	C135	C	0.862009	0.489104	0.873949
	C136	C	0.107852	0.876957	0.502946
	C137	C	0.107612	0.120288	0.486762
	C138	C	0.862737	0.119738	0.503461
	C139	C	0.862588	0.877464	0.485657
	C140	C	0.491050	0.118970	0.872066
	C141	C	0.474434	0.120422	0.116887
	C142	C	0.490848	0.877251	0.115810
	C143	C	0.475215	0.875585	0.870277
	C144	C	0.366166	0.882885	0.669086
	C145	C	0.605433	0.114432	0.673013
	C146	C	0.604981	0.883499	0.315912
	C147	C	0.363374	0.113805	0.316652
	C148	C	0.662364	0.374282	0.881468
	C149	C	0.663531	0.621237	0.107015
	C150	C	0.302231	0.619894	0.881896
	C151	C	0.302545	0.373705	0.106776
	C152	C	0.871200	0.676574	0.374937
	C153	C	0.096728	0.676074	0.615212
	C154	C	0.870440	0.319620	0.613546
	C155	C	0.097279	0.320781	0.375871
	C156	C	0.870954	0.375319	0.673692
	C157	C	0.094953	0.621440	0.676357
	C158	C	0.872348	0.621854	0.313969
	C159	C	0.095751	0.375058	0.314738
	C160	C	0.364074	0.673666	0.879751
	C161	C	0.602434	0.676080	0.108323
	C162	C	0.600256	0.320785	0.879784
	C163	C	0.364207	0.319891	0.107990
	C164	C	0.663414	0.884110	0.372280
	C165	C	0.663020	0.114768	0.615902
	C166	C	0.307162	0.884204	0.615016
	C167	C	0.306886	0.114392	0.374517
	C168	C	0.864232	0.382016	0.171285
	C169	C	0.104681	0.612785	0.172829
	C170	C	0.103129	0.382428	0.816647
	C171	C	0.862995	0.613597	0.817668
	C172	C	0.164849	0.876402	0.382354
	C173	C	0.164475	0.121057	0.608301
	C174	C	0.803394	0.123113	0.383132
	C175	C	0.805042	0.875833	0.606496
	C176	C	0.369572	0.174806	0.873642
	C177	C	0.595777	0.176642	0.113928
	C178	C	0.369787	0.820261	0.113094
	C179	C	0.596565	0.819642	0.874847
	C180	C	0.371349	0.874950	0.174211
	C181	C	0.594235	0.122705	0.175596
	C182	C	0.371170	0.119168	0.813647
	C183	C	0.595655	0.874776	0.814072
	C184	C	0.866048	0.175043	0.380872
	C185	C	0.103937	0.175809	0.609170
	C186	C	0.104400	0.820584	0.381035
	C187	C	0.867215	0.822631	0.608520
	C188	C	0.160434	0.382430	0.874212
	C189	C	0.162413	0.612138	0.116371
	C190	C	0.805457	0.382461	0.115353
	C191	C	0.805077	0.612982	0.874116
	C192	C	0.386953	0.094575	0.592360
	C193	C	0.582814	0.904762	0.590752
	C194	C	0.580555	0.092895	0.398647
	C195	C	0.387101	0.904285	0.397926
	C196	C	0.582786	0.400694	0.086678
	C197	C	0.583387	0.595378	0.901323
	C198	C	0.383952	0.594731	0.086877
	C199	C	0.381343	0.399521	0.901166
	C200	C	0.076788	0.596334	0.394646
	C201	C	0.890966	0.596642	0.594555
	C202	C	0.075452	0.401382	0.594852
	C203	C	0.891791	0.400127	0.394153
	C204	C	0.886225	0.592535	0.091127
	C205	C	0.080311	0.402769	0.091820
	C206	C	0.080298	0.592498	0.898609
	C207	C	0.885144	0.402785	0.896896
	C208	C	0.085359	0.901166	0.587663
	C209	C	0.085442	0.096760	0.401853
	C210	C	0.885579	0.095255	0.587682
	C211	C	0.884650	0.901230	0.401208
	C212	C	0.575069	0.095724	0.895344
	C213	C	0.390557	0.095690	0.093631
	C214	C	0.574569	0.901347	0.093037
	C215	C	0.390711	0.898946	0.891657
	Zn216	Zn	0.484152	-0.001600	0.741482
	Zn217	Zn	0.483412	-0.001974	0.246257
	Zn218	Zn	0.734709	0.497501	-0.005591
	Zn219	Zn	0.231639	0.497369	-0.004894
	Zn220	Zn	-0.015805	0.748715	0.494492
	Zn221	Zn	-0.015417	0.247896	0.494722
	Zn222	Zn	-0.017604	0.498209	0.746779
	Zn223	Zn	-0.016539	0.498324	0.242800
	Zn224	Zn	0.482669	0.747732	-0.006268
	Zn225	Zn	0.482512	0.247937	-0.006543
	Zn226	Zn	0.733825	-0.000608	0.494303
	Zn227	Zn	0.236916	-0.000652	0.495534
	N228	N	0.400865	0.960876	0.669179
	N229	N	0.570720	0.036289	0.672682
	N230	N	0.569298	0.961063	0.316779
	N231	N	0.397960	0.035792	0.316452
	N232	N	0.665364	0.408283	0.958586
	N233	N	0.665607	0.586894	0.030100
	N234	N	0.300229	0.586381	0.959148
	N235	N	0.299747	0.407758	0.029777
	N236	N	0.947089	0.675946	0.410153
	N237	N	0.021328	0.675593	0.579276
	N238	N	0.946324	0.320260	0.579250
	N239	N	0.021824	0.321538	0.410843
	N240	N	0.947278	0.410127	0.676209
	N241	N	0.018352	0.587556	0.677967
	N242	N	0.948846	0.587674	0.312079
	N243	N	0.019288	0.409240	0.312341
	N244	N	0.400002	0.672948	0.955632
	N245	N	0.567194	0.675402	0.032105
	N246	N	0.565128	0.322199	0.955640
	N247	N	0.398686	0.320689	0.031767
	N248	N	0.663613	0.962134	0.407509
	N249	N	0.663387	0.036850	0.580530
	N250	N	0.305911	0.962969	0.581715
	N251	N	0.306512	0.036355	0.409354
	N252	N	0.899018	0.460120	0.171239
	N253	N	0.069208	0.534963	0.172407
	N254	N	0.068446	0.460479	0.816736
	N255	N	0.897915	0.535623	0.817721
	N256	N	0.167027	0.910655	0.459333
	N257	N	0.167147	0.087557	0.531100
	N258	N	0.801356	0.089439	0.460126
	N259	N	0.801646	0.909127	0.529146
	N260	N	0.445112	0.174727	0.909381
	N261	N	0.520269	0.175496	0.078225
	N262	N	0.445174	0.821479	0.077462
	N263	N	0.520634	0.819811	0.908816
	N264	N	0.447519	0.909778	0.175974
	N265	N	0.517784	0.088368	0.177527
	N266	N	0.447610	0.085220	0.812627
	N267	N	0.519082	0.908777	0.810991
	N268	N	0.902202	0.173439	0.456713
	N269	N	0.069310	0.175603	0.532665
	N270	N	0.069907	0.820667	0.457214
	N271	N	0.902059	0.823376	0.532491
	N272	N	0.160930	0.460511	0.909045
	N273	N	0.162437	0.534109	0.081521
	N274	N	0.804602	0.460620	0.081038
	N275	N	0.804282	0.534732	0.908316
	O276	O	0.022918	0.066522	-0.042318
	H277	H	0.028281	0.063325	-0.032094
	H278	H	0.023438	0.072974	-0.037582
	O279	O	-0.174216	0.988743	-0.147824
	H280	H	-0.173159	0.998878	-0.159652
	H281	H	-0.174300	0.992828	-0.133485
	O282	O	0.892663	-0.062436	0.130843
	H283	H	0.895739	-0.059855	0.134953
	H284	H	0.894747	-0.081214	0.127556
	O285	O	-0.102757	0.821243	0.067463
	H286	H	-0.110792	0.823634	0.056517
	H287	H	-0.086563	0.822679	0.046740
	O288	O	0.491011	0.340678	0.445031
	H289	H	0.505377	0.332679	0.431751
	H290	H	0.483434	0.334724	0.450723
	O291	O	1.028227	-0.052981	0.998904
	H292	H	1.034380	-0.065940	1.000430
	H293	H	1.027334	-0.062807	0.990835
	O294	O	1.323895	0.580126	0.443051
	H295	H	1.316400	0.602602	0.441019
	H296	H	1.320019	0.581256	0.422673
	O297	O	-0.119817	-0.054800	0.010732
	H298	H	-0.122213	-0.048857	0.013526
	H299	H	-0.121790	-0.052369	0.013009
	O300	O	0.996957	0.876262	0.938106
	H301	H	0.996024	0.879687	0.932662
	H302	H	0.999867	0.880420	0.937866
	O303	O	-0.016486	1.019391	0.897794
	H304	H	-0.008313	1.030295	0.891120
	H305	H	-0.015864	1.024597	0.914424
	O306	O	0.498724	0.467636	0.474574
	H307	H	0.495521	0.456734	0.468496
	H308	H	0.500429	0.469498	0.479205
	O309	O	1.092332	0.144929	-0.055496
	H310	H	1.103023	0.156448	-0.048755
	H311	H	1.087933	0.137333	-0.044640
	O312	O	-0.069439	0.170177	0.970256
	H313	H	-0.061365	0.170493	0.971895
	H314	H	-0.075779	0.181392	0.975489
	O315	O	0.417193	0.625240	0.330036
	H316	H	0.425867	0.616185	0.334011
	H317	H	0.428910	0.624341	0.322930
	O318	O	0.330052	0.609260	0.331339
	H319	H	0.326156	0.603684	0.328787
	H320	H	0.314949	0.601465	0.351118
	O321	O	0.354332	0.445329	0.541718
	H322	H	0.354007	0.448000	0.534125
	H323	H	0.356395	0.438486	0.545372
	O324	O	-0.050414	0.013790	0.097769
	H325	H	-0.038671	0.004157	0.098674
	H326	H	-0.055802	0.015046	0.095449
	O327	O	0.082101	0.959166	0.968796
	H328	H	0.075498	0.964564	0.967136
	H329	H	0.083830	0.967705	0.967229
	O330	O	0.475030	0.470713	0.509298
	H331	H	0.478159	0.469676	0.515421
	H332	H	0.489416	0.472219	0.506744
	O333	O	-0.084928	1.042649	0.904876
	H334	H	-0.080757	1.041516	0.913189
	H335	H	-0.072027	1.046995	0.912676
	O336	O	1.414013	0.523323	0.526072
	H337	H	1.411342	0.528049	0.529193
	H338	H	1.419796	0.514810	0.528759
	O339	O	0.527466	0.580841	0.630618
	H340	H	0.529287	0.577490	0.623942
	H341	H	0.528688	0.581455	0.634448
	O342	O	1.055151	0.076843	0.144362
	H343	H	1.059416	0.074775	0.142245
	H344	H	1.055627	0.087566	0.146311
	O345	O	0.400621	0.523304	0.392262
	H346	H	0.386250	0.530814	0.410611
	H347	H	0.401338	0.539255	0.384382
	O348	O	1.108335	1.102467	1.018371
	H349	H	1.099115	1.102649	1.016045
	H350	H	1.115970	1.106123	1.022049
	O351	O	1.570688	1.484816	0.500340
	H352	H	1.575659	1.493908	0.508553
	H353	H	1.575513	1.497285	0.507393
	O354	O	1.057593	-0.023542	1.003901
	H355	H	1.045540	-0.023156	0.995820
	H356	H	1.056758	-0.030256	1.003536
	O357	O	0.615821	0.602875	0.598213
	H358	H	0.628883	0.615182	0.607275
	H359	H	0.605988	0.606812	0.601315
	O360	O	-0.173178	0.026355	0.149928
	H361	H	-0.181858	0.013419	0.159481
	H362	H	-0.170205	0.005273	0.161713
	O363	O	0.468325	0.461017	0.518404
	H364	H	0.474778	0.457238	0.521786
	H365	H	0.463013	0.450852	0.521995
	O366	O	0.506157	0.534422	0.386602
	H367	H	0.510880	0.521326	0.401840
	H368	H	0.515102	0.530622	0.392484
	O369	O	0.523847	0.410860	0.380122
	H370	H	0.509757	0.412717	0.380185
	H371	H	0.523967	0.413661	0.375394
	O372	O	-0.063957	0.919249	0.907369
	H373	H	-0.043954	0.919058	0.908552
	H374	H	-0.080628	0.917847	0.905361
	O375	O	1.591932	0.378674	0.438489
	H376	H	1.589396	0.388844	0.442102
	H377	H	1.595990	0.383556	0.433534
	O378	O	0.462628	0.506278	0.508781
	H379	H	0.473468	0.519721	0.505034
	H380	H	0.457365	0.520850	0.507231
	O381	O	0.838433	0.074240	-0.163361
	H382	H	0.836710	0.096897	-0.153870
	H383	H	0.830283	0.074567	-0.167429
	O384	O	0.568295	1.478725	0.403168
	H385	H	0.578457	1.469499	0.397030
	H386	H	0.557384	1.470776	0.405131
	O387	O	1.242193	-0.268938	0.796800
	H388	H	1.247608	-0.279308	0.805051
	H389	H	1.232172	-0.283283	0.780004
	O390	O	-0.028583	0.901301	0.154722
	H391	H	-0.028098	0.890240	0.153669
	H392	H	-0.031248	0.902457	0.164218
	O393	O	1.549487	1.518535	0.629959
	H394	H	1.542650	1.524160	0.632970
	H395	H	1.555265	1.519255	0.626567
	O396	O	0.456878	0.530937	0.590386
	H397	H	0.465592	0.528611	0.583269
	H398	H	0.446589	0.531023	0.603356
	O399	O	-0.400994	0.611432	1.648523
	H400	H	-0.394156	0.617189	1.648949
	H401	H	-0.400944	0.607068	1.647814
	O402	O	1.114568	0.977599	1.008127
	H403	H	1.128290	0.973983	1.022774
	H404	H	1.119141	0.989621	1.000261
	O405	O	-0.080562	0.930527	-0.051115
	H406	H	-0.070982	0.934663	-0.062284
	H407	H	-0.082432	0.936468	-0.035400
