data_Molecule from HDF5

_cell_length_a		16.396019
_cell_length_b		16.150851
_cell_length_c		16.300966
_cell_angle_alpha	90.137500
_cell_angle_beta	89.865901
_cell_angle_gamma	90.240604
_symmetry_space_group_name_H-M	'P 1'
_symmetry_Int_Tables_number		1

loop_
	_symmetry_equiv_pos_as_xyz
	x,y,z

loop_
	_atom_site_label
	_atom_site_type_symbol
	_atom_site_fract_x
	_atom_site_fract_y
	_atom_site_fract_z
	H0	H	0.387632	0.842029	0.714447
	H1	H	0.589636	0.170603	0.714452
	H2	H	0.589921	0.841242	0.281739
	H3	H	0.391367	0.169969	0.283953
	H4	H	0.708228	0.403177	0.835657
	H5	H	0.709357	0.609388	0.160177
	H6	H	0.273422	0.606826	0.836030
	H7	H	0.268403	0.399127	0.158740
	H8	H	0.826615	0.718391	0.401287
	H9	H	0.151024	0.725107	0.599259
	H10	H	0.827808	0.289096	0.598175
	H11	H	0.151215	0.289300	0.396699
	H12	H	0.828247	0.403752	0.716441
	H13	H	0.151960	0.608841	0.714818
	H14	H	0.828605	0.608192	0.280135
	H15	H	0.150192	0.402694	0.278530
	H16	H	0.392471	0.719222	0.835616
	H17	H	0.588308	0.720273	0.162562
	H18	H	0.588715	0.289686	0.835188
	H19	H	0.390295	0.290964	0.162170
	H20	H	0.704139	0.841206	0.397706
	H21	H	0.708024	0.168830	0.601463
	H22	H	0.269238	0.843810	0.602216
	H23	H	0.272898	0.169332	0.394733
	H24	H	0.890421	0.341476	0.212731
	H25	H	0.091470	0.669554	0.213722
	H26	H	0.089417	0.342727	0.781673
	H27	H	0.893049	0.670609	0.784680
	H28	H	0.208179	0.902868	0.336329
	H29	H	0.208439	0.110869	0.659611
	H30	H	0.772147	0.106555	0.335632
	H31	H	0.770705	0.903574	0.660799
	H32	H	0.327235	0.219462	0.902031
	H33	H	0.651272	0.222960	0.099699
	H34	H	0.327129	0.788914	0.098925
	H35	H	0.652656	0.791016	0.898739
	H36	H	0.328159	0.904538	0.215660
	H37	H	0.651516	0.107303	0.215566
	H38	H	0.326800	0.106868	0.782781
	H39	H	0.650132	0.903959	0.778358
	H40	H	0.891350	0.219828	0.334183
	H41	H	0.087485	0.221425	0.661405
	H42	H	0.086955	0.790949	0.334329
	H43	H	0.891389	0.792337	0.662185
	H44	H	0.204383	0.341480	0.896461
	H45	H	0.207882	0.668116	0.099584
	H46	H	0.773091	0.342433	0.099009
	H47	H	0.776470	0.670039	0.897776
	H48	H	0.401332	0.123018	0.593023
	H49	H	0.580205	0.889020	0.590428
	H50	H	0.580954	0.123761	0.403166
	H51	H	0.399010	0.893058	0.415677
	H52	H	0.574679	0.417077	0.110676
	H53	H	0.592252	0.600883	0.879190
	H54	H	0.400232	0.599178	0.114288
	H55	H	0.398098	0.408727	0.881920
	H56	H	0.103499	0.599378	0.411805
	H57	H	0.873264	0.599999	0.595583
	H58	H	0.105904	0.413375	0.592916
	H59	H	0.876799	0.417235	0.409276
	H60	H	0.104006	0.414331	0.587274
	H61	H	0.875541	0.598806	0.589353
	H62	H	0.103362	0.592183	0.404742
	H63	H	0.873250	0.414957	0.400085
	H64	H	0.392639	0.595474	0.116017
	H65	H	0.583571	0.589036	0.885093
	H66	H	0.584697	0.407521	0.116424
	H67	H	0.394465	0.416745	0.882950
	H68	H	0.579042	0.120179	0.410950
	H69	H	0.578120	0.890866	0.588275
	H70	H	0.401099	0.120628	0.585759
	H71	H	0.391032	0.886905	0.405088
	H72	H	0.892258	0.625019	0.089023
	H73	H	0.074737	0.391705	0.084619
	H74	H	0.069426	0.619142	0.905778
	H75	H	0.892347	0.388562	0.911460
	H76	H	0.082491	0.912660	0.614706
	H77	H	0.080719	0.101612	0.381095
	H78	H	0.903960	0.096706	0.611773
	H79	H	0.897683	0.912805	0.382865
	H80	H	0.605914	0.092991	0.897804
	H81	H	0.376327	0.094409	0.086809
	H82	H	0.605280	0.911006	0.092359
	H83	H	0.379077	0.918831	0.914484
	H84	H	0.603525	0.914559	0.087146
	H85	H	0.374179	0.093072	0.099001
	H86	H	0.605970	0.105144	0.908051
	H87	H	0.373146	0.916089	0.896429
	H88	H	0.892961	0.101005	0.615388
	H89	H	0.087579	0.096467	0.380787
	H90	H	0.082999	0.921319	0.612467
	H91	H	0.893784	0.910614	0.381218
	H92	H	0.091218	0.621383	0.920203
	H93	H	0.086383	0.387318	0.084891
	H94	H	0.902666	0.624189	0.096885
	H95	H	0.896735	0.386484	0.900197
	H96	H	0.394763	0.123066	0.589113
	H97	H	0.581276	0.889788	0.587477
	H98	H	0.586960	0.123020	0.409246
	H99	H	0.404057	0.889067	0.403242
	H100	H	0.588770	0.421954	0.113883
	H101	H	0.577763	0.602777	0.883189
	H102	H	0.399336	0.591157	0.112507
	H103	H	0.402712	0.415057	0.884665
	H104	H	0.107026	0.602063	0.401874
	H105	H	0.875401	0.594075	0.593161
	H106	H	0.103551	0.419250	0.590336
	H107	H	0.873484	0.408303	0.407118
	H108	H	0.903868	0.619506	0.084488
	H109	H	0.079240	0.386744	0.095660
	H110	H	0.091338	0.629338	0.894881
	H111	H	0.903531	0.391821	0.908980
	H112	H	0.075440	0.916610	0.611374
	H113	H	0.080349	0.093243	0.384380
	H114	H	0.894485	0.089336	0.612205
	H115	H	0.893795	0.914963	0.382610
	H116	H	0.600705	0.090816	0.913214
	H117	H	0.372172	0.104586	0.093355
	H118	H	0.604543	0.918135	0.092869
	H119	H	0.372274	0.901267	0.909360
	C120	C	0.367975	0.014453	0.619500
	C121	C	0.610754	0.997509	0.619957
	C122	C	0.611570	0.013880	0.377004
	C123	C	0.369039	0.997836	0.377907
	C124	C	0.612075	0.384447	0.006331
	C125	C	0.613246	0.627635	0.989991
	C126	C	0.368706	0.625480	0.006972
	C127	C	0.368093	0.383065	0.990112
	C128	C	-0.002070	0.627064	0.377136
	C129	C	0.981578	0.628242	0.621475
	C130	C	-0.002118	0.384688	0.620354
	C131	C	0.981186	0.383897	0.375885
	C132	C	0.869279	0.514498	0.119765
	C133	C	0.111132	0.496506	0.119251
	C134	C	0.112495	0.514921	0.876371
	C135	C	0.869478	0.497537	0.877512
	C136	C	0.110483	0.885315	0.506015
	C137	C	0.112003	0.127904	0.489330
	C138	C	0.867972	0.126042	0.506011
	C139	C	0.866417	0.883366	0.489862
	C140	C	0.497506	0.126522	0.877437
	C141	C	0.481273	0.127538	0.121994
	C142	C	0.497452	0.884405	0.120377
	C143	C	0.481483	0.882989	0.876440
	C144	C	0.367847	0.891247	0.676443
	C145	C	0.610249	0.120982	0.676927
	C146	C	0.609726	0.890554	0.320127
	C147	C	0.370817	0.121020	0.321443
	C148	C	0.669010	0.384278	0.884241
	C149	C	0.670211	0.628030	0.112012
	C150	C	0.312456	0.625373	0.884620
	C151	C	0.308833	0.381714	0.110923
	C152	C	0.875460	0.681771	0.380128
	C153	C	0.102839	0.686301	0.619383
	C154	C	0.876451	0.327508	0.618604
	C155	C	0.102880	0.327349	0.376780
	C156	C	0.876687	0.384514	0.677527
	C157	C	0.103370	0.628378	0.676824
	C158	C	0.876635	0.626597	0.319813
	C159	C	0.102282	0.383757	0.317924
	C160	C	0.371633	0.681560	0.884287
	C161	C	0.610010	0.683267	0.113190
	C162	C	0.609731	0.327395	0.884193
	C163	C	0.369736	0.327894	0.112932
	C164	C	0.666952	0.890437	0.377509
	C165	C	0.668771	0.120383	0.620360
	C166	C	0.309100	0.892337	0.620578
	C167	C	0.312050	0.120607	0.376975
	C168	C	0.870253	0.390729	0.175035
	C169	C	0.111123	0.619828	0.176034
	C170	C	0.109648	0.391479	0.820072
	C171	C	0.872712	0.621546	0.822537
	C172	C	0.168464	0.884291	0.384425
	C173	C	0.169004	0.129152	0.611353
	C174	C	0.811221	0.125943	0.384012
	C175	C	0.809875	0.884572	0.612370
	C176	C	0.375398	0.181995	0.880718
	C177	C	0.603118	0.184392	0.119663
	C178	C	0.375933	0.827128	0.119056
	C179	C	0.603483	0.827950	0.878016
	C180	C	0.376269	0.884721	0.177136
	C181	C	0.603133	0.127069	0.177472
	C182	C	0.375458	0.125990	0.821471
	C183	C	0.602287	0.883968	0.818112
	C184	C	0.870505	0.182050	0.383216
	C185	C	0.109006	0.184347	0.612255
	C186	C	0.108350	0.828434	0.383479
	C187	C	0.869872	0.829215	0.613161
	C188	C	0.167183	0.391099	0.876772
	C189	C	0.168835	0.619341	0.118839
	C190	C	0.811866	0.391407	0.118683
	C191	C	0.814397	0.621205	0.878399
	C192	C	0.392128	0.099917	0.596244
	C193	C	0.586684	0.912019	0.595944
	C194	C	0.588967	0.099925	0.400829
	C195	C	0.391488	0.912104	0.401349
	C196	C	0.589093	0.408434	0.091627
	C197	C	0.591124	0.604327	0.904737
	C198	C	0.390783	0.602182	0.092113
	C199	C	0.391626	0.406567	0.905250
	C200	C	0.082724	0.604430	0.399696
	C201	C	0.896807	0.604591	0.599245
	C202	C	0.082567	0.408669	0.597217
	C203	C	0.896563	0.406705	0.398877
	C204	C	0.892840	0.600607	0.096945
	C205	C	0.087096	0.410672	0.095508
	C206	C	0.090487	0.601036	0.899955
	C207	C	0.891267	0.411274	0.900040
	C208	C	0.087108	0.909837	0.590884
	C209	C	0.089534	0.104154	0.404225
	C210	C	0.890624	0.102583	0.590991
	C211	C	0.888504	0.906160	0.404352
	C212	C	0.582104	0.103259	0.899704
	C213	C	0.396323	0.104298	0.099718
	C214	C	0.582487	0.907801	0.097489
	C215	C	0.396734	0.905524	0.899884
	Zn216	Zn	0.488617	0.006357	0.747791
	Zn217	Zn	0.489910	0.005735	0.250237
	Zn218	Zn	0.741550	0.506376	-0.001998
	Zn219	Zn	0.239238	0.504286	-0.002247
	Zn220	Zn	-0.011054	0.756093	0.498565
	Zn221	Zn	-0.010276	0.255453	0.497727
	Zn222	Zn	-0.009519	0.506558	0.749894
	Zn223	Zn	-0.010168	0.505941	0.247533
	Zn224	Zn	0.489979	0.754521	-0.000530
	Zn225	Zn	0.489769	0.255188	-0.000745
	Zn226	Zn	0.738188	0.005251	0.498231
	Zn227	Zn	0.240423	0.006566	0.498171
	N228	N	0.403697	0.968386	0.676035
	N229	N	0.574825	0.043667	0.676634
	N230	N	0.576186	0.968568	0.319650
	N231	N	0.405749	0.043762	0.322038
	N232	N	0.670490	0.418944	0.961276
	N233	N	0.672382	0.594353	0.034431
	N234	N	0.310451	0.591240	0.961816
	N235	N	0.307755	0.415521	0.033544
	N236	N	0.951723	0.682072	0.415084
	N237	N	0.025984	0.686454	0.585654
	N238	N	0.952807	0.327438	0.583832
	N239	N	0.026630	0.327163	0.412194
	N240	N	0.953445	0.419333	0.678727
	N241	N	0.026956	0.593190	0.678509
	N242	N	0.953739	0.593277	0.317885
	N243	N	0.025806	0.418335	0.317432
	N244	N	0.405935	0.681822	0.961281
	N245	N	0.575328	0.683387	0.036401
	N246	N	0.574953	0.327463	0.961188
	N247	N	0.406051	0.328660	0.036812
	N248	N	0.668187	0.968222	0.412077
	N249	N	0.669244	0.042644	0.585686
	N250	N	0.308987	0.969870	0.586034
	N251	N	0.310978	0.042974	0.411557
	N252	N	0.905010	0.468401	0.175922
	N253	N	0.076094	0.542321	0.176396
	N254	N	0.076444	0.469461	0.819584
	N255	N	0.906011	0.543595	0.821698
	N256	N	0.170023	0.918716	0.461685
	N257	N	0.171251	0.095062	0.534054
	N258	N	0.809382	0.091908	0.461296
	N259	N	0.807716	0.917611	0.534796
	N260	N	0.452148	0.182544	0.914715
	N261	N	0.526240	0.184978	0.085889
	N262	N	0.452495	0.826829	0.084470
	N263	N	0.527375	0.827127	0.913563
	N264	N	0.452879	0.919510	0.178053
	N265	N	0.526470	0.092740	0.179190
	N266	N	0.452311	0.092192	0.819368
	N267	N	0.525355	0.917461	0.816930
	N268	N	0.904803	0.182763	0.460257
	N269	N	0.074519	0.183926	0.535428
	N270	N	0.073121	0.829055	0.460223
	N271	N	0.904272	0.828299	0.536201
	N272	N	0.169071	0.469019	0.910875
	N273	N	0.168799	0.541672	0.084109
	N274	N	0.811498	0.469347	0.084750
	N275	N	0.812195	0.543051	0.911824
	O276	O	0.900852	0.078135	0.955547
	H277	H	0.892676	0.089728	0.965133
	H278	H	0.910689	0.075968	0.959678
	O279	O	0.428048	0.557824	0.326599
	H280	H	0.406641	0.565496	0.333308
	H281	H	0.415145	0.574133	0.312377
	O282	O	0.479384	0.479348	0.606771
	H283	H	0.481195	0.465145	0.607115
	H284	H	0.482972	0.484913	0.619966
	O285	O	0.597279	0.466908	0.601767
	H286	H	0.608425	0.466123	0.598384
	H287	H	0.589097	0.471954	0.621486
	O288	O	0.590797	0.664962	0.515346
	H289	H	0.588696	0.655987	0.525231
	H290	H	0.592729	0.672908	0.515051
	O291	O	0.002746	0.014313	1.037772
	H292	H	-0.009614	0.018593	1.037653
	H293	H	0.005446	0.007973	1.032527
	O294	O	0.982820	0.953116	-0.147049
	H295	H	0.980801	0.949998	-0.137728
	H296	H	0.990383	0.955530	-0.144073
	O297	O	0.932262	0.878101	0.079328
	H298	H	0.922221	0.866276	0.076093
	H299	H	0.937591	0.884407	0.079222
	O300	O	0.361517	0.536557	0.496944
	H301	H	0.353803	0.530466	0.508660
	H302	H	0.352609	0.522054	0.502434
	O303	O	0.321344	0.521230	0.518634
	H304	H	0.307921	0.525253	0.526932
	H305	H	0.332246	0.532400	0.518582
	O306	O	0.454516	0.372127	0.449427
	H307	H	0.441657	0.372808	0.456571
	H308	H	0.453348	0.377753	0.446482
	O309	O	0.593988	0.422316	0.501007
	H310	H	0.604123	0.423319	0.495664
	H311	H	0.582937	0.418655	0.490606
	O312	O	0.900247	0.981550	1.017720
	H313	H	0.898800	0.976685	1.021420
	H314	H	0.894967	0.988262	1.019231
	O315	O	1.008350	1.032616	0.017930
	H316	H	1.005905	1.040527	0.013587
	H317	H	1.002009	1.031743	0.022753
	O318	O	0.556888	0.387047	0.470823
	H319	H	0.561898	0.400908	0.457093
	H320	H	0.553668	0.375748	0.455709
	O321	O	0.567571	0.585503	0.539918
	H322	H	0.573736	0.596899	0.554255
	H323	H	0.567398	0.588303	0.537979
	O324	O	-0.068988	0.926169	1.035538
	H325	H	-0.080547	0.924917	1.026289
	H326	H	-0.070994	0.919017	1.043625
	O327	O	-0.022853	1.093123	0.985541
	H328	H	-0.025409	1.101622	0.978618
	H329	H	-0.014811	1.094917	0.979405
	O330	O	-0.003107	0.073229	-0.111766
	H331	H	0.004350	0.070213	-0.105001
	H332	H	-0.002634	0.068608	-0.121795
	O333	O	0.536124	0.562447	0.366288
	H334	H	0.538939	0.579255	0.369137
	H335	H	0.523896	0.547543	0.365044
	O336	O	-0.051468	0.119672	0.004330
	H337	H	-0.047134	0.110800	-0.009787
	H338	H	-0.050891	0.121042	0.001533
	O339	O	0.275125	0.376935	-0.263712
	H340	H	0.289187	0.370264	-0.280735
	H341	H	0.283328	0.375673	-0.259453
	O342	O	0.455888	0.603878	0.432103
	H343	H	0.456477	0.597402	0.439699
	H344	H	0.440113	0.604491	0.416179
	O345	O	0.031143	0.973653	0.936664
	H346	H	0.029047	0.990345	0.941043
	H347	H	0.032218	0.984551	0.948210
	O348	O	0.588972	0.555253	0.405823
	H349	H	0.585008	0.556477	0.402844
	H350	H	0.584442	0.552713	0.401036
	O351	O	0.482115	0.599116	0.527068
	H352	H	0.488448	0.602027	0.514593
	H353	H	0.486936	0.594684	0.530922
	O354	O	-0.052489	0.913707	0.012987
	H355	H	-0.058057	0.911528	0.015168
	H356	H	-0.045712	0.921359	0.021216
	O357	O	0.378383	0.369642	0.510695
	H358	H	0.393943	0.375231	0.533956
	H359	H	0.370420	0.368210	0.512172
	O360	O	1.011026	-0.050698	1.034158
	H361	H	1.001772	-0.061424	1.045547
	H362	H	1.002485	-0.053419	1.021622
	O363	O	0.513238	0.500667	0.487872
	H364	H	0.507470	0.498883	0.485200
	H365	H	0.515484	0.500431	0.480659
	O366	O	0.412266	0.530496	0.574890
	H367	H	0.423760	0.520828	0.583440
	H368	H	0.411442	0.533096	0.592558
	O369	O	0.953341	0.026872	-0.026448
	H370	H	0.959933	0.030794	-0.030101
	H371	H	0.957871	0.015096	-0.035327
	O372	O	0.618978	0.534969	0.557710
	H373	H	0.620935	0.534435	0.564560
	H374	H	0.618104	0.534441	0.536890
	O375	O	0.977471	0.036837	0.937754
	H376	H	0.970214	0.038554	0.930369
	H377	H	0.967192	0.036242	0.940996
	O378	O	0.425790	0.537705	0.445049
	H379	H	0.427996	0.536531	0.449893
	H380	H	0.422173	0.511204	0.443509
	O381	O	0.511056	0.471097	0.343192
	H382	H	0.508560	0.463177	0.321150
	H383	H	0.521870	0.477348	0.347708
	O384	O	1.454165	0.405941	0.658449
	H385	H	1.466444	0.413267	0.650475
	H386	H	1.451636	0.413086	0.653227
	O387	O	1.102683	-0.034624	1.005553
	H388	H	1.118438	-0.034933	1.013845
	H389	H	1.092403	-0.026526	1.007559
	O390	O	1.068295	1.019799	-0.068272
	H391	H	1.073875	1.018448	-0.070498
	H392	H	1.072083	1.007658	-0.076503
	O393	O	0.434267	0.453817	0.493950
	H394	H	0.431198	0.447060	0.495756
	H395	H	0.439641	0.462719	0.505439
