data_Molecule from HDF5

_cell_length_a		16.259064
_cell_length_b		16.268656
_cell_length_c		16.312431
_cell_angle_alpha	90.125806
_cell_angle_beta	90.020375
_cell_angle_gamma	90.153584
_symmetry_space_group_name_H-M	'P 1'
_symmetry_Int_Tables_number		1

loop_
	_symmetry_equiv_pos_as_xyz
	x,y,z

loop_
	_atom_site_label
	_atom_site_type_symbol
	_atom_site_fract_x
	_atom_site_fract_y
	_atom_site_fract_z
	H0	H	0.392570	0.842495	0.716763
	H1	H	0.592929	0.168944	0.715612
	H2	H	0.594199	0.842750	0.283888
	H3	H	0.395126	0.168659	0.286499
	H4	H	0.708113	0.404946	0.837112
	H5	H	0.708817	0.603916	0.163810
	H6	H	0.278999	0.602069	0.837305
	H7	H	0.278756	0.406408	0.164688
	H8	H	0.831227	0.720004	0.401216
	H9	H	0.157380	0.720069	0.601540
	H10	H	0.829813	0.290436	0.597778
	H11	H	0.158599	0.292261	0.402997
	H12	H	0.830657	0.403785	0.715356
	H13	H	0.157489	0.604940	0.716594
	H14	H	0.830603	0.604294	0.285280
	H15	H	0.156553	0.404697	0.284556
	H16	H	0.393687	0.719927	0.837345
	H17	H	0.593115	0.721090	0.163947
	H18	H	0.590708	0.289977	0.837766
	H19	H	0.394966	0.291402	0.164543
	H20	H	0.707999	0.841533	0.401479
	H21	H	0.708653	0.168842	0.599532
	H22	H	0.277175	0.842698	0.601221
	H23	H	0.279504	0.169328	0.402650
	H24	H	0.893594	0.341162	0.215343
	H25	H	0.093975	0.667827	0.216356
	H26	H	0.091727	0.341051	0.786365
	H27	H	0.894434	0.667403	0.784997
	H28	H	0.208017	0.906550	0.338308
	H29	H	0.207989	0.103391	0.664720
	H30	H	0.779799	0.102559	0.337607
	H31	H	0.779987	0.906722	0.665214
	H32	H	0.329352	0.218260	0.903374
	H33	H	0.656933	0.221119	0.100156
	H34	H	0.330366	0.789755	0.098967
	H35	H	0.657402	0.790965	0.901391
	H36	H	0.330140	0.905549	0.215662
	H37	H	0.657262	0.105286	0.215433
	H38	H	0.330812	0.105014	0.785403
	H39	H	0.656939	0.906305	0.784797
	H40	H	0.896237	0.218089	0.337013
	H41	H	0.092795	0.219730	0.664291
	H42	H	0.093544	0.789280	0.338449
	H43	H	0.895382	0.789355	0.664215
	H44	H	0.208045	0.341110	0.902009
	H45	H	0.208809	0.668688	0.100117
	H46	H	0.778045	0.341084	0.098649
	H47	H	0.779351	0.668288	0.901542
	H48	H	0.404245	0.121041	0.593055
	H49	H	0.582362	0.889996	0.593472
	H50	H	0.587711	0.123884	0.403640
	H51	H	0.409921	0.890498	0.403140
	H52	H	0.588226	0.410576	0.118324
	H53	H	0.583386	0.610364	0.882154
	H54	H	0.405645	0.602702	0.116167
	H55	H	0.398715	0.410587	0.884356
	H56	H	0.107964	0.592798	0.412153
	H57	H	0.878618	0.595400	0.591980
	H58	H	0.110680	0.413106	0.596475
	H59	H	0.878160	0.409519	0.413262
	H60	H	0.112276	0.409173	0.594055
	H61	H	0.877698	0.596053	0.593407
	H62	H	0.111529	0.595301	0.402949
	H63	H	0.878420	0.417051	0.405749
	H64	H	0.395283	0.599885	0.118947
	H65	H	0.598110	0.594933	0.881874
	H66	H	0.588226	0.417141	0.116391
	H67	H	0.399967	0.413473	0.885338
	H68	H	0.582676	0.119464	0.410583
	H69	H	0.588497	0.888642	0.591125
	H70	H	0.399574	0.122122	0.592207
	H71	H	0.400366	0.891927	0.418546
	H72	H	0.907918	0.619503	0.093104
	H73	H	0.090589	0.384315	0.104004
	H74	H	0.083349	0.619734	0.911074
	H75	H	0.888907	0.385831	0.911625
	H76	H	0.090852	0.910113	0.619918
	H77	H	0.071965	0.089146	0.391566
	H78	H	0.895592	0.098205	0.619024
	H79	H	0.904114	0.915029	0.387698
	H80	H	0.611341	0.101545	0.909606
	H81	H	0.377184	0.099604	0.091620
	H82	H	0.610361	0.911429	0.092497
	H83	H	0.378107	0.915294	0.909910
	H84	H	0.610408	0.914647	0.094240
	H85	H	0.377930	0.094675	0.095260
	H86	H	0.608189	0.096159	0.911089
	H87	H	0.376808	0.912767	0.904589
	H88	H	0.903435	0.093719	0.615353
	H89	H	0.085739	0.116615	0.379262
	H90	H	0.086740	0.919485	0.615319
	H91	H	0.901994	0.906108	0.383692
	H92	H	0.089989	0.621802	0.909234
	H93	H	0.073187	0.391858	0.092716
	H94	H	0.896732	0.620219	0.088635
	H95	H	0.903203	0.385194	0.896301
	H96	H	0.401483	0.122894	0.596767
	H97	H	0.587485	0.887008	0.597419
	H98	H	0.591405	0.121822	0.412268
	H99	H	0.392814	0.885200	0.403682
	H100	H	0.582321	0.413307	0.115971
	H101	H	0.578222	0.590477	0.888743
	H102	H	0.402772	0.591980	0.114587
	H103	H	0.401822	0.411325	0.885563
	H104	H	0.111077	0.602612	0.410463
	H105	H	0.877923	0.597610	0.591991
	H106	H	0.110311	0.412841	0.591515
	H107	H	0.874650	0.407020	0.403736
	H108	H	0.899769	0.623314	0.099652
	H109	H	0.093055	0.389495	0.082599
	H110	H	0.085153	0.622460	0.903890
	H111	H	0.908988	0.393120	0.915123
	H112	H	0.080348	0.909916	0.616311
	H113	H	0.103834	0.089115	0.382388
	H114	H	0.903982	0.102946	0.618344
	H115	H	0.894885	0.913512	0.383951
	H116	H	0.611030	0.096542	0.905060
	H117	H	0.375292	0.098907	0.097236
	H118	H	0.611752	0.911649	0.095706
	H119	H	0.376390	0.909780	0.909427
	C120	C	0.371945	0.014305	0.622995
	C121	C	0.615043	0.996638	0.622363
	C122	C	0.615563	0.013871	0.379589
	C123	C	0.372405	0.997044	0.379758
	C124	C	0.614596	0.384145	0.009059
	C125	C	0.615462	0.627382	0.992216
	C126	C	0.371909	0.626724	0.008846
	C127	C	0.371177	0.383044	0.992791
	C128	C	0.002515	0.625980	0.379276
	C129	C	0.985932	0.626017	0.622208
	C130	C	0.002597	0.383112	0.621933
	C131	C	0.985327	0.382922	0.379058
	C132	C	0.872182	0.513037	0.122204
	C133	C	0.114955	0.496424	0.122171
	C134	C	0.114671	0.513200	0.879413
	C135	C	0.871714	0.496039	0.878531
	C136	C	0.115466	0.883778	0.509808
	C137	C	0.115870	0.127073	0.492709
	C138	C	0.872490	0.126647	0.509379
	C139	C	0.871889	0.882747	0.493017
	C140	C	0.502017	0.126920	0.879639
	C141	C	0.484961	0.127283	0.123311
	C142	C	0.502673	0.883783	0.122468
	C143	C	0.485175	0.883876	0.879098
	C144	C	0.372867	0.891386	0.678858
	C145	C	0.612997	0.120101	0.677446
	C146	C	0.613533	0.891047	0.323093
	C147	C	0.374903	0.120114	0.324618
	C148	C	0.670053	0.385283	0.886370
	C149	C	0.671172	0.625069	0.114806
	C150	C	0.316456	0.623455	0.886294
	C151	C	0.316322	0.385964	0.115657
	C152	C	0.879755	0.681821	0.381036
	C153	C	0.108592	0.682099	0.621311
	C154	C	0.879238	0.327713	0.618918
	C155	C	0.108965	0.328637	0.381738
	C156	C	0.879450	0.383963	0.677359
	C157	C	0.108522	0.624734	0.678553
	C158	C	0.879483	0.623748	0.323721
	C159	C	0.108255	0.384840	0.323217
	C160	C	0.373552	0.682030	0.886277
	C161	C	0.613308	0.682837	0.115015
	C162	C	0.612160	0.327708	0.886611
	C163	C	0.373899	0.328488	0.115647
	C164	C	0.670301	0.890530	0.381324
	C165	C	0.670795	0.119785	0.620089
	C166	C	0.315448	0.891509	0.621320
	C167	C	0.317179	0.120319	0.382083
	C168	C	0.873313	0.390079	0.177571
	C169	C	0.113956	0.619282	0.178228
	C170	C	0.112496	0.389998	0.823943
	C171	C	0.873922	0.618697	0.823024
	C172	C	0.170430	0.885758	0.387020
	C173	C	0.170926	0.124488	0.615594
	C174	C	0.817594	0.123449	0.386436
	C175	C	0.816980	0.885467	0.615992
	C176	C	0.378657	0.181321	0.882453
	C177	C	0.608087	0.183137	0.120881
	C178	C	0.379087	0.828392	0.119407
	C179	C	0.608326	0.828845	0.881165
	C180	C	0.379033	0.885815	0.177328
	C181	C	0.608228	0.125548	0.178009
	C182	C	0.379268	0.124802	0.824095
	C183	C	0.608262	0.885929	0.823060
	C184	C	0.875633	0.180682	0.386116
	C185	C	0.113218	0.182078	0.615463
	C186	C	0.113544	0.827336	0.387303
	C187	C	0.874599	0.827555	0.615716
	C188	C	0.169689	0.389782	0.881926
	C189	C	0.171013	0.619608	0.120288
	C190	C	0.816411	0.389877	0.119179
	C191	C	0.816648	0.619062	0.880800
	C192	C	0.395138	0.099891	0.600639
	C193	C	0.592566	0.910701	0.600534
	C194	C	0.593615	0.099401	0.402211
	C195	C	0.394493	0.911494	0.401998
	C196	C	0.592581	0.406975	0.094825
	C197	C	0.593086	0.605133	0.906362
	C198	C	0.394593	0.604611	0.094427
	C199	C	0.393572	0.405343	0.907121
	C200	C	0.087977	0.603420	0.402005
	C201	C	0.900237	0.603107	0.599025
	C202	C	0.088739	0.405386	0.600378
	C203	C	0.899427	0.405065	0.401047
	C204	C	0.894789	0.598860	0.100191
	C205	C	0.092284	0.410737	0.099595
	C206	C	0.092491	0.599124	0.901546
	C207	C	0.893880	0.410146	0.901057
	C208	C	0.092664	0.906506	0.595200
	C209	C	0.093770	0.104582	0.406617
	C210	C	0.894543	0.104825	0.595398
	C211	C	0.893910	0.904827	0.407390
	C212	C	0.587903	0.104662	0.902067
	C213	C	0.398995	0.104612	0.101084
	C214	C	0.588631	0.906207	0.100613
	C215	C	0.399268	0.906077	0.901289
	Zn216	Zn	0.493972	0.005798	0.750827
	Zn217	Zn	0.494082	0.005452	0.251069
	Zn218	Zn	0.743768	0.505133	0.000306
	Zn219	Zn	0.242726	0.504831	0.000888
	Zn220	Zn	-0.005664	0.754419	0.501368
	Zn221	Zn	-0.005622	0.254965	0.500428
	Zn222	Zn	-0.006244	0.504407	0.750209
	Zn223	Zn	-0.005891	0.504499	0.250797
	Zn224	Zn	0.493823	0.755590	0.000537
	Zn225	Zn	0.493293	0.255126	0.001478
	Zn226	Zn	0.743688	0.004621	0.501323
	Zn227	Zn	0.244122	0.005536	0.501288
	N228	N	0.407597	0.968701	0.679978
	N229	N	0.579168	0.042488	0.679225
	N230	N	0.580036	0.968611	0.321901
	N231	N	0.408524	0.042500	0.322874
	N232	N	0.671766	0.419647	0.963683
	N233	N	0.672622	0.591449	0.037385
	N234	N	0.315370	0.589733	0.963549
	N235	N	0.314435	0.419115	0.038118
	N236	N	0.957189	0.683180	0.414952
	N237	N	0.031362	0.682990	0.586976
	N238	N	0.956782	0.327103	0.585177
	N239	N	0.031608	0.327257	0.415798
	N240	N	0.957178	0.417850	0.679432
	N241	N	0.031062	0.590517	0.679279
	N242	N	0.956862	0.589706	0.322586
	N243	N	0.030501	0.418068	0.321577
	N244	N	0.407183	0.684293	0.963660
	N245	N	0.579520	0.684425	0.037636
	N246	N	0.578136	0.327206	0.963827
	N247	N	0.407371	0.326564	0.038275
	N248	N	0.671890	0.967871	0.415615
	N249	N	0.672055	0.042181	0.586615
	N250	N	0.315107	0.968684	0.587125
	N251	N	0.315598	0.042947	0.415719
	N252	N	0.907356	0.467559	0.179401
	N253	N	0.079547	0.541871	0.179275
	N254	N	0.078763	0.467540	0.822524
	N255	N	0.907458	0.541178	0.821486
	N256	N	0.172000	0.919822	0.464082
	N257	N	0.172391	0.090954	0.538042
	N258	N	0.815412	0.090552	0.464062
	N259	N	0.814985	0.918755	0.538568
	N260	N	0.456167	0.182521	0.916357
	N261	N	0.530448	0.184091	0.087316
	N262	N	0.456753	0.827064	0.086072
	N263	N	0.530978	0.827583	0.915071
	N264	N	0.456858	0.919535	0.179426
	N265	N	0.530671	0.091719	0.179606
	N266	N	0.456999	0.091544	0.822273
	N267	N	0.530609	0.919581	0.821628
	N268	N	0.908834	0.182949	0.463761
	N269	N	0.079946	0.183851	0.537889
	N270	N	0.079971	0.826019	0.464820
	N271	N	0.907893	0.825663	0.538213
	N272	N	0.171270	0.467384	0.915509
	N273	N	0.171827	0.542240	0.086280
	N274	N	0.815418	0.467391	0.085572
	N275	N	0.815386	0.541737	0.914636
	O276	O	0.473391	0.568530	0.494006
	H277	H	0.468877	0.573147	0.486790
	H278	H	0.479081	0.568855	0.498801
	O279	O	0.510909	0.537804	0.564982
	H280	H	0.498982	0.545857	0.564486
	H281	H	0.516560	0.544778	0.552438
	O282	O	0.488030	0.587127	0.505029
	H283	H	0.492703	0.585138	0.496075
	H284	H	0.486383	0.594818	0.508944
	O285	O	0.535301	0.508274	1.464531
	H286	H	0.535555	0.509753	1.463891
	H287	H	0.533757	0.510827	1.471783
	O288	O	0.044163	-0.031984	1.019842
	H289	H	0.042552	-0.042037	1.021008
	H290	H	0.043678	-0.031159	1.017621
	O291	O	-0.486929	0.542761	0.477726
	H292	H	-0.477512	0.551099	0.483269
	H293	H	-0.479317	0.547196	0.482903
	O294	O	0.527998	0.545931	0.450749
	H295	H	0.527933	0.547338	0.459995
	H296	H	0.523047	0.539515	0.452208
	O297	O	0.460560	0.548718	0.462697
	H298	H	0.462251	0.539429	0.453474
	H299	H	0.458483	0.544176	0.470814
	O300	O	0.503608	0.476291	0.477801
	H301	H	0.494518	0.474231	0.476513
	H302	H	0.509734	0.464362	0.473084
	O303	O	0.544276	0.489113	0.499151
	H304	H	0.551556	0.497425	0.489858
	H305	H	0.554311	0.490779	0.499926
	O306	O	1.000499	-0.003765	0.985598
	H307	H	0.999988	0.000533	0.992685
	H308	H	1.005610	-0.006811	0.986237
	O309	O	0.478372	0.476140	0.533108
	H310	H	0.474823	0.466955	0.532621
	H311	H	0.482508	0.472681	0.532047
	O312	O	0.568479	0.597913	0.532238
	H313	H	0.562033	0.599673	0.531143
	H314	H	0.562908	0.597293	0.535628
	O315	O	1.021100	-0.045288	1.044602
	H316	H	1.028054	-0.041628	1.044262
	H317	H	1.022871	-0.038001	1.045206
	O318	O	0.477670	-0.511688	-0.486603
	H319	H	0.472897	-0.511928	-0.488830
	H320	H	0.482006	-0.517491	-0.484781
	O321	O	0.902291	0.914220	0.078331
	H322	H	0.890393	0.919716	0.076209
	H323	H	0.903493	0.918267	0.076242
	O324	O	0.969756	-0.012677	0.032172
	H325	H	0.971793	-0.021115	0.016747
	H326	H	0.968027	-0.010688	0.037295
	O327	O	0.947805	0.978882	-0.002506
	H328	H	0.952187	0.983351	0.015006
	H329	H	0.947282	0.972917	-0.003789
	O330	O	0.561557	0.472597	0.467908
	H331	H	0.566916	0.468206	0.463066
	H332	H	0.565575	0.474292	0.466291
	O333	O	0.481294	0.470261	0.516488
	H334	H	0.479374	0.463863	0.526107
	H335	H	0.476498	0.480398	0.518639
