data_Molecule from HDF5

_cell_length_a		16.200197
_cell_length_b		16.368420
_cell_length_c		16.282799
_cell_angle_alpha	89.938916
_cell_angle_beta	90.135401
_cell_angle_gamma	89.935639
_symmetry_space_group_name_H-M	'P 1'
_symmetry_Int_Tables_number		1

loop_
	_symmetry_equiv_pos_as_xyz
	x,y,z

loop_
	_atom_site_label
	_atom_site_type_symbol
	_atom_site_fract_x
	_atom_site_fract_y
	_atom_site_fract_z
	H0	H	0.408279	0.839789	0.718392
	H1	H	0.607760	0.165372	0.718904
	H2	H	0.605191	0.839804	0.288368
	H3	H	0.407976	0.165186	0.288314
	H4	H	0.719707	0.405243	0.840505
	H5	H	0.719510	0.599079	0.168426
	H6	H	0.292326	0.600205	0.839971
	H7	H	0.294118	0.405504	0.168082
	H8	H	0.842595	0.717491	0.404077
	H9	H	0.171192	0.716163	0.602363
	H10	H	0.842926	0.286784	0.603453
	H11	H	0.170865	0.289433	0.405169
	H12	H	0.841965	0.404158	0.717199
	H13	H	0.170723	0.600603	0.718189
	H14	H	0.841812	0.601396	0.289304
	H15	H	0.170286	0.404747	0.289826
	H16	H	0.405391	0.718907	0.841048
	H17	H	0.605582	0.717640	0.167647
	H18	H	0.609225	0.285149	0.842170
	H19	H	0.406919	0.287471	0.166922
	H20	H	0.721188	0.838419	0.405521
	H21	H	0.721544	0.165795	0.600177
	H22	H	0.292792	0.838970	0.600062
	H23	H	0.292362	0.165487	0.404345
	H24	H	0.906584	0.340456	0.219665
	H25	H	0.103851	0.665759	0.217576
	H26	H	0.106013	0.339884	0.789414
	H27	H	0.906778	0.665857	0.788209
	H28	H	0.218445	0.905995	0.338114
	H29	H	0.221484	0.098619	0.666658
	H30	H	0.794270	0.099022	0.338664
	H31	H	0.794127	0.904928	0.667566
	H32	H	0.342784	0.218634	0.902634
	H33	H	0.670311	0.216716	0.103633
	H34	H	0.342078	0.790719	0.100477
	H35	H	0.670265	0.787516	0.904826
	H36	H	0.342168	0.905376	0.215992
	H37	H	0.670917	0.099786	0.217710
	H38	H	0.342556	0.101172	0.788476
	H39	H	0.672232	0.905173	0.791484
	H40	H	0.907751	0.218178	0.340081
	H41	H	0.108775	0.218365	0.666047
	H42	H	0.106294	0.786869	0.340243
	H43	H	0.907011	0.786481	0.666168
	H44	H	0.221326	0.339525	0.906853
	H45	H	0.220548	0.665628	0.101803
	H46	H	0.792607	0.339561	0.101027
	H47	H	0.790629	0.666086	0.905251
	H48	H	0.414259	0.120074	0.601679
	H49	H	0.596868	0.889265	0.593214
	H50	H	0.599133	0.120443	0.401148
	H51	H	0.408495	0.887026	0.416780
	H52	H	0.598306	0.410807	0.119685
	H53	H	0.605785	0.589836	0.887477
	H54	H	0.412261	0.603685	0.123424
	H55	H	0.414698	0.420853	0.891018
	H56	H	0.126909	0.599136	0.403884
	H57	H	0.891075	0.588388	0.598261
	H58	H	0.125218	0.396285	0.588137
	H59	H	0.892708	0.417901	0.415754
	H60	H	0.117616	0.422662	0.590996
	H61	H	0.886982	0.601373	0.599210
	H62	H	0.123378	0.600080	0.417230
	H63	H	0.886870	0.410775	0.402256
	H64	H	0.409418	0.593570	0.121094
	H65	H	0.588392	0.593902	0.890949
	H66	H	0.597585	0.407084	0.121144
	H67	H	0.424501	0.403736	0.888223
	H68	H	0.592265	0.114158	0.414817
	H69	H	0.605358	0.886130	0.595738
	H70	H	0.419262	0.116165	0.593894
	H71	H	0.406965	0.882255	0.401612
	H72	H	0.902993	0.619257	0.090753
	H73	H	0.093563	0.388315	0.094319
	H74	H	0.093274	0.621022	0.897548
	H75	H	0.911446	0.388254	0.914238
	H76	H	0.103248	0.908276	0.620704
	H77	H	0.099400	0.096345	0.387004
	H78	H	0.910035	0.088479	0.618797
	H79	H	0.904803	0.909233	0.384640
	H80	H	0.626462	0.100625	0.906754
	H81	H	0.394479	0.083460	0.090540
	H82	H	0.623960	0.909738	0.093821
	H83	H	0.390811	0.914017	0.908228
	H84	H	0.624137	0.911183	0.097732
	H85	H	0.385355	0.096448	0.109715
	H86	H	0.622361	0.097389	0.918330
	H87	H	0.387345	0.907000	0.906592
	H88	H	0.923773	0.094757	0.616414
	H89	H	0.098789	0.098656	0.385540
	H90	H	0.098361	0.911790	0.617981
	H91	H	0.918762	0.916085	0.389575
	H92	H	0.091348	0.612815	0.921418
	H93	H	0.106224	0.385923	0.093287
	H94	H	0.913168	0.622652	0.108402
	H95	H	0.910321	0.386102	0.907246
	H96	H	0.409301	0.118144	0.592963
	H97	H	0.598625	0.886470	0.601697
	H98	H	0.608068	0.118783	0.414634
	H99	H	0.420968	0.887861	0.406859
	H100	H	0.601387	0.408996	0.121025
	H101	H	0.599552	0.606067	0.884840
	H102	H	0.419671	0.596582	0.119107
	H103	H	0.404833	0.405228	0.883885
	H104	H	0.121658	0.587749	0.410551
	H105	H	0.891669	0.597285	0.587385
	H106	H	0.127693	0.409150	0.612761
	H107	H	0.888725	0.401978	0.416116
	H108	H	0.923419	0.614235	0.091973
	H109	H	0.100083	0.385061	0.104733
	H110	H	0.113351	0.621990	0.912897
	H111	H	0.917264	0.388386	0.909501
	H112	H	0.096961	0.905556	0.619973
	H113	H	0.101232	0.097120	0.385765
	H114	H	0.912438	0.103432	0.622698
	H115	H	0.918161	0.900661	0.385391
	H116	H	0.622689	0.089134	0.909145
	H117	H	0.387786	0.107232	0.087267
	H118	H	0.624850	0.907222	0.097746
	H119	H	0.390580	0.908679	0.914116
	C120	C	0.385334	0.010569	0.624649
	C121	C	0.629789	0.994325	0.625512
	C122	C	0.628610	0.010292	0.381684
	C123	C	0.384507	0.993641	0.380602
	C124	C	0.627933	0.380623	0.012630
	C125	C	0.626969	0.624272	0.996046
	C126	C	0.384696	0.625212	0.012663
	C127	C	0.385925	0.381480	0.995835
	C128	C	0.015233	0.624348	0.381955
	C129	C	0.998125	0.624072	0.624333
	C130	C	0.015227	0.380635	0.625710
	C131	C	0.997947	0.381563	0.382750
	C132	C	0.884543	0.511134	0.125729
	C133	C	0.128487	0.494169	0.125830
	C134	C	0.128448	0.511101	0.882387
	C135	C	0.884276	0.495058	0.881539
	C136	C	0.127857	0.880871	0.511117
	C137	C	0.129055	0.124860	0.494288
	C138	C	0.886132	0.124186	0.511267
	C139	C	0.885501	0.880521	0.494879
	C140	C	0.515200	0.124387	0.882027
	C141	C	0.498021	0.123701	0.124491
	C142	C	0.515335	0.881535	0.124671
	C143	C	0.497998	0.880968	0.881463
	C144	C	0.388155	0.888211	0.679811
	C145	C	0.627411	0.116626	0.680910
	C146	C	0.625687	0.887899	0.326883
	C147	C	0.387579	0.116571	0.326064
	C148	C	0.682627	0.383931	0.889512
	C149	C	0.682077	0.620714	0.119469
	C150	C	0.329700	0.621323	0.889239
	C151	C	0.331516	0.384741	0.119024
	C152	C	0.891724	0.679715	0.383769
	C153	C	0.121914	0.678692	0.622734
	C154	C	0.891814	0.324979	0.623604
	C155	C	0.121616	0.326730	0.384922
	C156	C	0.891248	0.383253	0.680075
	C157	C	0.121813	0.620933	0.680070
	C158	C	0.891263	0.621983	0.326738
	C159	C	0.121356	0.384150	0.327740
	C160	C	0.386049	0.680160	0.889585
	C161	C	0.625471	0.679387	0.118815
	C162	C	0.627141	0.324579	0.890490
	C163	C	0.387403	0.325767	0.118315
	C164	C	0.683287	0.887313	0.385043
	C165	C	0.684132	0.117159	0.621971
	C166	C	0.330704	0.887707	0.621169
	C167	C	0.330161	0.116756	0.383741
	C168	C	0.886751	0.388772	0.180889
	C169	C	0.124880	0.617026	0.180178
	C170	C	0.126178	0.388282	0.827494
	C171	C	0.886355	0.617327	0.826021
	C172	C	0.181725	0.884816	0.387415
	C173	C	0.184067	0.120504	0.617813
	C174	C	0.831208	0.120779	0.387846
	C175	C	0.830855	0.883536	0.618279
	C176	C	0.391759	0.180028	0.883165
	C177	C	0.621567	0.178459	0.122943
	C178	C	0.391277	0.827886	0.121335
	C179	C	0.621598	0.825915	0.884578
	C180	C	0.391318	0.885001	0.178715
	C181	C	0.621668	0.120795	0.179957
	C182	C	0.391800	0.122008	0.826140
	C183	C	0.622544	0.884294	0.828261
	C184	C	0.887550	0.179937	0.388556
	C185	C	0.128107	0.179912	0.617325
	C186	C	0.126218	0.825399	0.388453
	C187	C	0.886977	0.824576	0.617441
	C188	C	0.183748	0.388237	0.885605
	C189	C	0.182987	0.616894	0.122739
	C190	C	0.830121	0.388251	0.121980
	C191	C	0.828837	0.617451	0.884400
	C192	C	0.407599	0.095940	0.602508
	C193	C	0.607096	0.909190	0.603373
	C194	C	0.606524	0.095793	0.403587
	C195	C	0.405826	0.907974	0.402084
	C196	C	0.605732	0.402763	0.098506
	C197	C	0.604576	0.602873	0.910163
	C198	C	0.407051	0.604082	0.099003
	C199	C	0.408180	0.403560	0.909824
	C200	C	0.101687	0.602238	0.404155
	C201	C	0.912151	0.602034	0.601684
	C202	C	0.101262	0.402948	0.603717
	C203	C	0.911567	0.403781	0.404964
	C204	C	0.906538	0.596773	0.103641
	C205	C	0.106434	0.408558	0.103965
	C206	C	0.105918	0.596253	0.904128
	C207	C	0.906523	0.409540	0.903681
	C208	C	0.105989	0.902451	0.597162
	C209	C	0.106388	0.103534	0.408362
	C210	C	0.908901	0.101996	0.597155
	C211	C	0.907528	0.902254	0.409027
	C212	C	0.601410	0.102249	0.904858
	C213	C	0.411512	0.102215	0.102266
	C214	C	0.601879	0.902902	0.102926
	C215	C	0.411840	0.903180	0.903385
	Zn216	Zn	0.507429	0.002424	0.753886
	Zn217	Zn	0.506504	0.002385	0.252727
	Zn218	Zn	0.755517	0.503085	0.004091
	Zn219	Zn	0.257340	0.502778	0.004359
	Zn220	Zn	0.007220	0.752509	0.503163
	Zn221	Zn	0.007054	0.253311	0.503718
	Zn222	Zn	0.006269	0.502445	0.753176
	Zn223	Zn	0.006369	0.502791	0.254244
	Zn224	Zn	0.506274	0.753673	0.003778
	Zn225	Zn	0.506273	0.252187	0.004121
	Zn226	Zn	0.757638	0.002242	0.503302
	Zn227	Zn	0.256478	0.002102	0.502422
	N228	N	0.421387	0.965451	0.682059
	N229	N	0.594288	0.039219	0.683102
	N230	N	0.592346	0.965141	0.324663
	N231	N	0.420894	0.039161	0.324128
	N232	N	0.683406	0.418152	0.966629
	N233	N	0.683130	0.587161	0.042204
	N234	N	0.328874	0.587986	0.966846
	N235	N	0.330668	0.418778	0.041848
	N236	N	0.969675	0.681203	0.417379
	N237	N	0.044166	0.680696	0.588754
	N238	N	0.969857	0.323141	0.590718
	N239	N	0.043721	0.325121	0.418463
	N240	N	0.968831	0.417303	0.681450
	N241	N	0.043840	0.587670	0.681326
	N242	N	0.969053	0.588037	0.325613
	N243	N	0.043422	0.417521	0.326193
	N244	N	0.419424	0.682892	0.967330
	N245	N	0.592110	0.681701	0.040960
	N246	N	0.593881	0.322481	0.967987
	N247	N	0.420644	0.323692	0.040608
	N248	N	0.684911	0.964484	0.418622
	N249	N	0.685751	0.040268	0.588246
	N250	N	0.328629	0.964937	0.587787
	N251	N	0.328274	0.039487	0.417091
	N252	N	0.919901	0.466050	0.183094
	N253	N	0.091604	0.539701	0.182062
	N254	N	0.092665	0.465582	0.825052
	N255	N	0.920073	0.540141	0.824364
	N256	N	0.182997	0.918564	0.464788
	N257	N	0.184803	0.087070	0.540408
	N258	N	0.829961	0.087033	0.465359
	N259	N	0.830033	0.917826	0.541205
	N260	N	0.469702	0.181840	0.917075
	N261	N	0.543749	0.180347	0.089326
	N262	N	0.469233	0.825838	0.088320
	N263	N	0.543210	0.823649	0.917033
	N264	N	0.469384	0.917859	0.180696
	N265	N	0.543798	0.087255	0.180993
	N266	N	0.469626	0.088369	0.825239
	N267	N	0.544794	0.917823	0.826227
	N268	N	0.921110	0.181963	0.466173
	N269	N	0.094650	0.182683	0.539558
	N270	N	0.093520	0.822876	0.466228
	N271	N	0.920206	0.822643	0.539752
	N272	N	0.185223	0.465339	0.919018
	N273	N	0.185342	0.539554	0.089778
	N274	N	0.828695	0.465501	0.088305
	N275	N	0.827357	0.540387	0.918233
	O276	O	0.504742	0.470733	0.552893
	H277	H	0.504844	0.475433	0.552053
	H278	H	0.511546	0.473531	0.550096
	O279	O	-0.019353	0.037541	-0.074370
	H280	H	-0.029848	0.027267	-0.069302
	H281	H	-0.011260	0.042230	-0.079503
	O282	O	0.519817	0.499871	0.606254
	H283	H	0.517709	0.509593	0.619505
	H284	H	0.520893	0.500513	0.600941
	O285	O	0.534777	0.475260	0.565264
	H286	H	0.535115	0.458781	0.569770
	H287	H	0.528944	0.474403	0.563836
	O288	O	1.447063	0.452828	-0.426550
	H289	H	1.439586	0.450620	-0.426066
	H290	H	1.458801	0.453640	-0.419285
	O291	O	-0.499694	0.471194	-0.427573
	H292	H	-0.517800	0.468036	-0.430044
	H293	H	-0.502349	0.467418	-0.413381
	O294	O	0.560948	0.522933	0.550423
	H295	H	0.559199	0.525306	0.543627
	H296	H	0.553856	0.515442	0.553663
	O297	O	-0.060801	1.042557	-0.057638
	H298	H	-0.069952	1.038761	-0.058987
	H299	H	-0.065540	1.043778	-0.060626
	O300	O	0.807960	0.271172	0.759223
	H301	H	0.817900	0.276459	0.752266
	H302	H	0.808016	0.279162	0.758949
	O303	O	0.480329	0.509739	0.618472
	H304	H	0.490290	0.518250	0.615870
	H305	H	0.495575	0.507458	0.624320
	O306	O	-0.047154	1.015380	0.950153
	H307	H	-0.044473	1.021592	0.940808
	H308	H	-0.042714	1.017116	0.953670
	O309	O	0.116022	0.200411	0.805131
	H310	H	0.111246	0.203790	0.807414
	H311	H	0.120505	0.200780	0.803625
