data_Molecule from HDF5

_cell_length_a		16.264102
_cell_length_b		16.248944
_cell_length_c		16.334646
_cell_angle_alpha	89.739642
_cell_angle_beta	90.188458
_cell_angle_gamma	90.015319
_symmetry_space_group_name_H-M	'P 1'
_symmetry_Int_Tables_number		1

loop_
	_symmetry_equiv_pos_as_xyz
	x,y,z

loop_
	_atom_site_label
	_atom_site_type_symbol
	_atom_site_fract_x
	_atom_site_fract_y
	_atom_site_fract_z
	H0	H	0.409927	0.831817	0.719181
	H1	H	0.607968	0.159386	0.718440
	H2	H	0.608440	0.831585	0.288754
	H3	H	0.409600	0.158122	0.288177
	H4	H	0.721493	0.397716	0.839816
	H5	H	0.723835	0.592140	0.167333
	H6	H	0.292966	0.592626	0.840332
	H7	H	0.293619	0.395241	0.167608
	H8	H	0.844395	0.710274	0.404661
	H9	H	0.172760	0.707310	0.601953
	H10	H	0.844684	0.279143	0.603361
	H11	H	0.172363	0.283749	0.408534
	H12	H	0.843811	0.396543	0.717406
	H13	H	0.171229	0.593475	0.719522
	H14	H	0.844602	0.595842	0.287636
	H15	H	0.170809	0.395497	0.289974
	H16	H	0.408196	0.710367	0.840359
	H17	H	0.607102	0.708970	0.167548
	H18	H	0.605981	0.281155	0.839991
	H19	H	0.410744	0.279729	0.168003
	H20	H	0.721404	0.830877	0.407671
	H21	H	0.723578	0.159187	0.601531
	H22	H	0.295362	0.831214	0.602609
	H23	H	0.294898	0.158972	0.404340
	H24	H	0.907576	0.331716	0.220636
	H25	H	0.106763	0.658866	0.218531
	H26	H	0.105333	0.331371	0.791390
	H27	H	0.907808	0.658765	0.788836
	H28	H	0.222561	0.898254	0.340478
	H29	H	0.224950	0.093300	0.666310
	H30	H	0.793060	0.095805	0.340973
	H31	H	0.793403	0.894909	0.666892
	H32	H	0.343587	0.208390	0.905450
	H33	H	0.672360	0.207506	0.101029
	H34	H	0.343117	0.780318	0.102041
	H35	H	0.671494	0.780927	0.907520
	H36	H	0.343831	0.895294	0.219530
	H37	H	0.671600	0.094242	0.218382
	H38	H	0.345001	0.095280	0.788016
	H39	H	0.672115	0.896067	0.790744
	H40	H	0.909681	0.210624	0.341254
	H41	H	0.107524	0.207912	0.667544
	H42	H	0.108205	0.780038	0.341192
	H43	H	0.910980	0.780044	0.667298
	H44	H	0.219620	0.330296	0.908662
	H45	H	0.222933	0.658518	0.102791
	H46	H	0.794376	0.330350	0.102211
	H47	H	0.793885	0.658838	0.904587
	H48	H	0.413465	0.112437	0.594531
	H49	H	0.595952	0.881227	0.596281
	H50	H	0.603649	0.114328	0.405038
	H51	H	0.411719	0.876756	0.412128
	H52	H	0.598112	0.404886	0.117052
	H53	H	0.599005	0.585173	0.890370
	H54	H	0.419972	0.600045	0.122218
	H55	H	0.418117	0.392474	0.886303
	H56	H	0.124776	0.587492	0.410255
	H57	H	0.891800	0.587346	0.595455
	H58	H	0.125977	0.398606	0.599917
	H59	H	0.892469	0.407078	0.413078
	H60	H	0.123269	0.403006	0.596230
	H61	H	0.890774	0.587765	0.598445
	H62	H	0.124709	0.588612	0.412559
	H63	H	0.890406	0.401905	0.408112
	H64	H	0.402024	0.582834	0.122686
	H65	H	0.598003	0.591749	0.887738
	H66	H	0.599693	0.395374	0.120911
	H67	H	0.403593	0.403786	0.885969
	H68	H	0.594940	0.110044	0.410198
	H69	H	0.606732	0.878244	0.595008
	H70	H	0.415569	0.113395	0.600126
	H71	H	0.419276	0.877558	0.406946
	H72	H	0.913764	0.611682	0.092810
	H73	H	0.100593	0.378229	0.099924
	H74	H	0.108347	0.616040	0.904786
	H75	H	0.920228	0.381289	0.918101
	H76	H	0.105264	0.908584	0.618564
	H77	H	0.105805	0.087878	0.386718
	H78	H	0.918951	0.089685	0.619849
	H79	H	0.918065	0.902598	0.387973
	H80	H	0.617823	0.078234	0.925523
	H81	H	0.392871	0.081105	0.099197
	H82	H	0.625920	0.892403	0.096461
	H83	H	0.392372	0.903554	0.914646
	H84	H	0.620363	0.906466	0.090344
	H85	H	0.388357	0.091491	0.100051
	H86	H	0.627301	0.079733	0.894739
	H87	H	0.391239	0.905559	0.907551
	H88	H	0.913404	0.086828	0.620922
	H89	H	0.098872	0.088045	0.388616
	H90	H	0.096234	0.897834	0.619377
	H91	H	0.914207	0.901989	0.387676
	H92	H	0.090233	0.610453	0.906917
	H93	H	0.099892	0.378330	0.098040
	H94	H	0.915007	0.612421	0.099205
	H95	H	0.904994	0.376103	0.912270
	H96	H	0.419248	0.111276	0.595956
	H97	H	0.601598	0.876418	0.604831
	H98	H	0.604214	0.111308	0.414491
	H99	H	0.418891	0.880393	0.415172
	H100	H	0.607566	0.402299	0.119948
	H101	H	0.605006	0.588928	0.886984
	H102	H	0.424999	0.576940	0.112964
	H103	H	0.419544	0.410178	0.892474
	H104	H	0.123279	0.585877	0.412719
	H105	H	0.890870	0.590488	0.595859
	H106	H	0.124259	0.404725	0.601822
	H107	H	0.891332	0.400863	0.415603
	H108	H	0.919936	0.609607	0.094710
	H109	H	0.101861	0.377307	0.098193
	H110	H	0.101987	0.608770	0.921677
	H111	H	0.918075	0.376157	0.901685
	H112	H	0.108750	0.895688	0.623535
	H113	H	0.102385	0.093868	0.385952
	H114	H	0.917681	0.083680	0.618767
	H115	H	0.915216	0.905537	0.389240
	H116	H	0.629326	0.106085	0.913684
	H117	H	0.392646	0.087937	0.090397
	H118	H	0.624934	0.905456	0.105592
	H119	H	0.390064	0.898237	0.910197
	C120	C	0.387644	0.003932	0.625609
	C121	C	0.630573	0.986754	0.626737
	C122	C	0.629798	0.003640	0.381942
	C123	C	0.387678	0.986320	0.382312
	C124	C	0.630120	0.372908	0.011598
	C125	C	0.629940	0.616979	0.996043
	C126	C	0.386055	0.616035	0.012060
	C127	C	0.385570	0.372496	0.996003
	C128	C	0.016346	0.617063	0.382362
	C129	C	0.999479	0.616392	0.625400
	C130	C	0.016162	0.373086	0.626943
	C131	C	0.999662	0.374795	0.383953
	C132	C	0.886879	0.503373	0.124796
	C133	C	0.129987	0.486342	0.126945
	C134	C	0.128351	0.503319	0.883127
	C135	C	0.885768	0.486275	0.882065
	C136	C	0.131087	0.873295	0.512374
	C137	C	0.130886	0.117008	0.495530
	C138	C	0.886997	0.116770	0.512260
	C139	C	0.887053	0.873813	0.495768
	C140	C	0.516282	0.116637	0.882242
	C141	C	0.499812	0.115869	0.124957
	C142	C	0.515481	0.873064	0.125868
	C143	C	0.499580	0.873683	0.882774
	C144	C	0.389987	0.880570	0.680846
	C145	C	0.628223	0.110396	0.680817
	C146	C	0.628342	0.880490	0.326932
	C147	C	0.389325	0.109484	0.326374
	C148	C	0.684260	0.376589	0.888732
	C149	C	0.685849	0.613505	0.118658
	C150	C	0.330193	0.614190	0.889259
	C151	C	0.331123	0.374333	0.118925
	C152	C	0.893391	0.672944	0.384025
	C153	C	0.123278	0.670424	0.622691
	C154	C	0.893402	0.317248	0.623850
	C155	C	0.123079	0.320416	0.387396
	C156	C	0.892853	0.375788	0.680465
	C157	C	0.122643	0.613846	0.680991
	C158	C	0.893381	0.615799	0.326045
	C159	C	0.122357	0.376102	0.328528
	C160	C	0.387963	0.672154	0.889165
	C161	C	0.627736	0.671379	0.118852
	C162	C	0.626733	0.318663	0.888765
	C163	C	0.389497	0.317264	0.118996
	C164	C	0.684642	0.880262	0.385679
	C165	C	0.685384	0.110316	0.622650
	C166	C	0.332908	0.880375	0.622939
	C167	C	0.332611	0.109946	0.384325
	C168	C	0.887823	0.380303	0.181669
	C169	C	0.127681	0.609761	0.181389
	C170	C	0.126084	0.380175	0.828762
	C171	C	0.887679	0.609595	0.826514
	C172	C	0.185503	0.876593	0.389482
	C173	C	0.186475	0.113617	0.617974
	C174	C	0.831026	0.115406	0.389917
	C175	C	0.831415	0.875068	0.618295
	C176	C	0.392746	0.171193	0.884784
	C177	C	0.623103	0.170522	0.121906
	C178	C	0.392031	0.817924	0.123241
	C179	C	0.622749	0.818707	0.886337
	C180	C	0.392442	0.875215	0.181208
	C181	C	0.622894	0.114057	0.180280
	C182	C	0.393262	0.114418	0.826706
	C183	C	0.622960	0.875920	0.828391
	C184	C	0.889030	0.172617	0.389916
	C185	C	0.128130	0.170708	0.618486
	C186	C	0.128441	0.818107	0.389838
	C187	C	0.889812	0.817968	0.618551
	C188	C	0.182899	0.379572	0.887058
	C189	C	0.185176	0.609619	0.123401
	C190	C	0.831958	0.379650	0.122549
	C191	C	0.831148	0.609854	0.884283
	C192	C	0.409493	0.090029	0.603300
	C193	C	0.608167	0.900787	0.605016
	C194	C	0.607463	0.089646	0.403534
	C195	C	0.410005	0.900451	0.404824
	C196	C	0.608333	0.394448	0.097302
	C197	C	0.607271	0.595135	0.910578
	C198	C	0.408923	0.593274	0.097229
	C199	C	0.407300	0.395395	0.910439
	C200	C	0.101894	0.593997	0.405069
	C201	C	0.913324	0.594873	0.603324
	C202	C	0.102396	0.395480	0.605438
	C203	C	0.913708	0.396903	0.405763
	C204	C	0.909625	0.589070	0.102379
	C205	C	0.107327	0.400190	0.105230
	C206	C	0.106629	0.589552	0.904720
	C207	C	0.907825	0.400216	0.904261
	C208	C	0.109755	0.894439	0.598275
	C209	C	0.108787	0.095957	0.409217
	C210	C	0.910078	0.093535	0.597773
	C211	C	0.909323	0.896686	0.410430
	C212	C	0.602489	0.094523	0.904776
	C213	C	0.413603	0.093418	0.103092
	C214	C	0.601448	0.895071	0.104033
	C215	C	0.413604	0.896040	0.904339
	Zn216	Zn	0.508419	-0.004437	0.754246
	Zn217	Zn	0.508061	-0.005048	0.253816
	Zn218	Zn	0.758680	0.494473	0.003307
	Zn219	Zn	0.257162	0.494282	0.004381
	Zn220	Zn	0.008425	0.745026	0.503910
	Zn221	Zn	0.008610	0.245546	0.504526
	Zn222	Zn	0.007215	0.495362	0.754672
	Zn223	Zn	0.007535	0.494900	0.253976
	Zn224	Zn	0.507191	0.745035	0.004344
	Zn225	Zn	0.507635	0.244340	0.003836
	Zn226	Zn	0.757984	-0.004573	0.503840
	Zn227	Zn	0.259768	-0.004672	0.503614
	N228	N	0.423339	0.958341	0.682416
	N229	N	0.595031	0.032485	0.683572
	N230	N	0.594969	0.958320	0.324407
	N231	N	0.422979	0.031939	0.325284
	N232	N	0.686482	0.409406	0.966186
	N233	N	0.687549	0.580622	0.041238
	N234	N	0.329254	0.579792	0.966332
	N235	N	0.328837	0.408092	0.041630
	N236	N	0.970842	0.673891	0.418044
	N237	N	0.045675	0.672162	0.588737
	N238	N	0.971245	0.315557	0.591162
	N239	N	0.045812	0.319539	0.421239
	N240	N	0.970341	0.409757	0.682560
	N241	N	0.044781	0.580897	0.682680
	N242	N	0.970836	0.581710	0.324820
	N243	N	0.044563	0.409135	0.325989
	N244	N	0.422053	0.673420	0.966485
	N245	N	0.593892	0.673785	0.041645
	N246	N	0.593675	0.316228	0.966196
	N247	N	0.422692	0.316020	0.041567
	N248	N	0.685678	0.957830	0.419104
	N249	N	0.687251	0.032407	0.590096
	N250	N	0.331419	0.958097	0.589225
	N251	N	0.331458	0.032371	0.418431
	N252	N	0.921416	0.458057	0.183175
	N253	N	0.094038	0.532152	0.183487
	N254	N	0.093037	0.457967	0.826333
	N255	N	0.921026	0.531750	0.825042
	N256	N	0.187326	0.910198	0.466598
	N257	N	0.188053	0.080987	0.540440
	N258	N	0.829726	0.081249	0.467229
	N259	N	0.829500	0.909040	0.540971
	N260	N	0.470232	0.172626	0.918586
	N261	N	0.545471	0.171583	0.088181
	N262	N	0.469472	0.816560	0.089539
	N263	N	0.545088	0.817350	0.919592
	N264	N	0.470280	0.908541	0.183126
	N265	N	0.545062	0.080876	0.182164
	N266	N	0.471113	0.081327	0.825052
	N267	N	0.545366	0.909714	0.826314
	N268	N	0.923207	0.173458	0.466978
	N269	N	0.094332	0.173041	0.541074
	N270	N	0.095336	0.815893	0.467319
	N271	N	0.923708	0.817163	0.541543
	N272	N	0.184494	0.457401	0.920217
	N273	N	0.186875	0.531708	0.090709
	N274	N	0.830982	0.457113	0.088239
	N275	N	0.829903	0.532287	0.918117
	O276	O	0.993359	1.039584	-0.033544
	H277	H	0.998261	1.038806	-0.027711
	H278	H	0.992646	1.043598	-0.032022
	O279	O	-0.077258	-0.037570	0.023655
	H280	H	-0.075003	-0.042652	0.034511
	H281	H	-0.085673	-0.048429	0.022139
	O282	O	-0.030228	-0.026080	1.041800
	H283	H	-0.038610	-0.024997	1.035813
	H284	H	-0.028531	-0.023106	1.042957
	O285	O	0.519924	0.500636	0.448345
	H286	H	0.513922	0.501277	0.446830
	H287	H	0.514339	0.507985	0.442134
	O288	O	0.500554	0.595712	0.508468
	H289	H	0.504281	0.591096	0.517284
	H290	H	0.504205	0.597234	0.514642
	O291	O	0.467660	0.531979	0.480472
	H292	H	0.469225	0.536198	0.472156
	H293	H	0.466881	0.527996	0.487877
	O294	O	-0.064944	-0.041452	-0.090737
	H295	H	-0.069239	-0.045982	-0.101901
	H296	H	-0.073033	-0.041725	-0.089208
	O297	O	0.531148	0.450439	0.518165
	H298	H	0.523053	0.445906	0.516045
	H299	H	0.531430	0.449017	0.513724
	O300	O	-0.054032	1.004839	0.958576
	H301	H	-0.061298	1.001135	0.953604
	H302	H	-0.046704	1.010994	0.960062
	O303	O	0.460958	0.535728	0.456312
	H304	H	0.461436	0.547545	0.451777
	H305	H	0.450220	0.537268	0.453901
	O306	O	-0.669225	0.309784	0.651593
	H307	H	-0.672673	0.304598	0.646875
	H308	H	-0.665315	0.310739	0.647610
	O309	O	0.933919	0.924239	0.974840
	H310	H	0.929835	0.921072	0.967133
	H311	H	0.933296	0.919444	0.975470
	O312	O	0.492816	0.528465	0.418495
	H313	H	0.492077	0.544726	0.419877
	H314	H	0.499946	0.518396	0.421105
	O315	O	0.546752	0.551873	0.484176
	H316	H	0.548598	0.549919	0.485639
	H317	H	0.541738	0.543627	0.479265
	O318	O	-0.070089	1.033089	-0.002357
	H319	H	-0.076119	1.028853	-0.001449
	H320	H	-0.076129	1.035532	-0.005831
	O321	O	0.944916	1.002705	-0.010247
	H322	H	0.944237	1.005548	-0.006745
	H323	H	0.936955	1.006694	0.000034
