data_Molecule from HDF5

_cell_length_a		16.274455
_cell_length_b		16.157375
_cell_length_c		16.303687
_cell_angle_alpha	90.105821
_cell_angle_beta	90.191453
_cell_angle_gamma	89.989643
_symmetry_space_group_name_H-M	'P 1'
_symmetry_Int_Tables_number		1

loop_
	_symmetry_equiv_pos_as_xyz
	x,y,z

loop_
	_atom_site_label
	_atom_site_type_symbol
	_atom_site_fract_x
	_atom_site_fract_y
	_atom_site_fract_z
	H0	H	0.405056	0.841181	0.710689
	H1	H	0.606385	0.168642	0.712818
	H2	H	0.605333	0.841412	0.279582
	H3	H	0.403288	0.169368	0.279983
	H4	H	0.723920	0.404791	0.833656
	H5	H	0.723634	0.606429	0.160109
	H6	H	0.288860	0.607140	0.834804
	H7	H	0.292974	0.407049	0.160457
	H8	H	0.841736	0.718855	0.398865
	H9	H	0.170116	0.720716	0.596279
	H10	H	0.841829	0.291885	0.593990
	H11	H	0.170236	0.289787	0.399653
	H12	H	0.842966	0.405972	0.711520
	H13	H	0.170004	0.605673	0.712636
	H14	H	0.844485	0.605686	0.279285
	H15	H	0.170618	0.404212	0.283197
	H16	H	0.409430	0.717120	0.832464
	H17	H	0.604729	0.721534	0.160323
	H18	H	0.605833	0.290509	0.832839
	H19	H	0.410318	0.292711	0.160777
	H20	H	0.720230	0.841361	0.396215
	H21	H	0.718812	0.169765	0.596205
	H22	H	0.293377	0.840752	0.593205
	H23	H	0.290839	0.169510	0.396553
	H24	H	0.909241	0.340663	0.209924
	H25	H	0.108121	0.669310	0.213409
	H26	H	0.106091	0.341102	0.782346
	H27	H	0.907249	0.669947	0.782619
	H28	H	0.220975	0.904820	0.332990
	H29	H	0.222802	0.105646	0.659400
	H30	H	0.788476	0.105053	0.333370
	H31	H	0.788842	0.904857	0.659743
	H32	H	0.342996	0.220376	0.898978
	H33	H	0.670456	0.219288	0.096720
	H34	H	0.341940	0.792084	0.092045
	H35	H	0.669938	0.792065	0.897837
	H36	H	0.341898	0.905511	0.209692
	H37	H	0.667696	0.106810	0.214181
	H38	H	0.343366	0.106695	0.779934
	H39	H	0.668400	0.904395	0.780866
	H40	H	0.907920	0.218831	0.332836
	H41	H	0.103140	0.218298	0.661593
	H42	H	0.102723	0.790720	0.332996
	H43	H	0.907739	0.792497	0.660904
	H44	H	0.219887	0.340549	0.899597
	H45	H	0.220307	0.670919	0.095554
	H46	H	0.792677	0.341094	0.095849
	H47	H	0.794609	0.671120	0.899156
	H48	H	0.416496	0.122586	0.588490
	H49	H	0.601531	0.884130	0.595154
	H50	H	0.597015	0.123134	0.403854
	H51	H	0.412638	0.884179	0.392306
	H52	H	0.592224	0.409638	0.111068
	H53	H	0.592637	0.593328	0.884083
	H54	H	0.414225	0.604275	0.114383
	H55	H	0.415656	0.415401	0.882200
	H56	H	0.127532	0.603329	0.395378
	H57	H	0.887894	0.599161	0.591799
	H58	H	0.121239	0.418441	0.589972
	H59	H	0.889886	0.413687	0.399180
	H60	H	0.125339	0.410713	0.596572
	H61	H	0.890410	0.599365	0.588279
	H62	H	0.122329	0.605202	0.414820
	H63	H	0.889736	0.410465	0.402854
	H64	H	0.410028	0.596931	0.114402
	H65	H	0.600694	0.608476	0.877086
	H66	H	0.609092	0.408316	0.116912
	H67	H	0.413676	0.410797	0.879417
	H68	H	0.594621	0.121515	0.403884
	H69	H	0.589956	0.889794	0.589485
	H70	H	0.414293	0.122615	0.586724
	H71	H	0.422382	0.891624	0.405967
	H72	H	0.916574	0.620127	0.080858
	H73	H	0.098867	0.388089	0.092429
	H74	H	0.102370	0.625396	0.900846
	H75	H	0.915206	0.388165	0.901641
	H76	H	0.091613	0.917203	0.609368
	H77	H	0.108047	0.103476	0.376034
	H78	H	0.913582	0.092859	0.611138
	H79	H	0.922594	0.920497	0.385901
	H80	H	0.622919	0.094238	0.899578
	H81	H	0.387357	0.102250	0.092369
	H82	H	0.623027	0.911985	0.091172
	H83	H	0.387271	0.915504	0.895535
	H84	H	0.621899	0.913515	0.086030
	H85	H	0.389471	0.101783	0.084082
	H86	H	0.624937	0.103096	0.903145
	H87	H	0.386433	0.904742	0.902046
	H88	H	0.915370	0.104372	0.613968
	H89	H	0.099698	0.084898	0.383932
	H90	H	0.101322	0.904135	0.615777
	H91	H	0.913731	0.897618	0.376817
	H92	H	0.093271	0.621727	0.903195
	H93	H	0.101925	0.388124	0.087769
	H94	H	0.907352	0.625987	0.092776
	H95	H	0.916594	0.388621	0.905089
	H96	H	0.413841	0.123306	0.589730
	H97	H	0.601214	0.888037	0.582390
	H98	H	0.596403	0.122136	0.405903
	H99	H	0.405601	0.887686	0.408237
	H100	H	0.603399	0.424282	0.110138
	H101	H	0.610160	0.592370	0.879594
	H102	H	0.417963	0.597516	0.111443
	H103	H	0.410186	0.415278	0.879757
	H104	H	0.119291	0.586750	0.404966
	H105	H	0.890530	0.595768	0.589996
	H106	H	0.122721	0.408406	0.585850
	H107	H	0.891215	0.414825	0.404265
	H108	H	0.922985	0.623060	0.096954
	H109	H	0.104069	0.386176	0.093305
	H110	H	0.100732	0.622282	0.910559
	H111	H	0.912726	0.387864	0.904354
	H112	H	0.108531	0.920153	0.613414
	H113	H	0.087091	0.103317	0.382421
	H114	H	0.904753	0.099423	0.615507
	H115	H	0.898016	0.918076	0.378006
	H116	H	0.621329	0.095556	0.908278
	H117	H	0.390781	0.094733	0.089156
	H118	H	0.621046	0.918164	0.089054
	H119	H	0.391250	0.915293	0.907546
	C120	C	0.385614	0.014056	0.617106
	C121	C	0.626513	0.996178	0.618044
	C122	C	0.625569	0.013852	0.375188
	C123	C	0.384048	0.996361	0.373617
	C124	C	0.629904	0.384342	0.004928
	C125	C	0.629647	0.628223	0.988114
	C126	C	0.384914	0.627954	0.005430
	C127	C	0.385400	0.384970	0.988643
	C128	C	0.015076	0.626965	0.375687
	C129	C	0.997817	0.627116	0.618861
	C130	C	0.014749	0.383832	0.618592
	C131	C	0.998318	0.383406	0.375067
	C132	C	0.886904	0.514172	0.118451
	C133	C	0.129745	0.496667	0.119745
	C134	C	0.127699	0.514211	0.876043
	C135	C	0.886025	0.497224	0.875281
	C136	C	0.128369	0.883743	0.504742
	C137	C	0.127764	0.126774	0.488666
	C138	C	0.882999	0.127305	0.505307
	C139	C	0.883280	0.883614	0.488438
	C140	C	0.515071	0.127132	0.874742
	C141	C	0.497234	0.127982	0.118452
	C142	C	0.514071	0.884997	0.116844
	C143	C	0.496757	0.883397	0.873743
	C144	C	0.385936	0.890387	0.672708
	C145	C	0.625934	0.119583	0.674610
	C146	C	0.624825	0.890429	0.318159
	C147	C	0.384315	0.120178	0.318048
	C148	C	0.685139	0.385341	0.881982
	C149	C	0.684971	0.626426	0.111327
	C150	C	0.328093	0.626133	0.883063
	C151	C	0.331017	0.387183	0.111795
	C152	C	0.891195	0.681574	0.378035
	C153	C	0.121119	0.682728	0.616604
	C154	C	0.891152	0.329224	0.615176
	C155	C	0.121638	0.327918	0.379046
	C156	C	0.891681	0.386146	0.673503
	C157	C	0.120936	0.625664	0.674711
	C158	C	0.892562	0.625538	0.318668
	C159	C	0.121488	0.384564	0.320914
	C160	C	0.387996	0.681074	0.881750
	C161	C	0.626260	0.683913	0.111199
	C162	C	0.626487	0.328528	0.881852
	C163	C	0.389343	0.330119	0.111769
	C164	C	0.681859	0.890082	0.376243
	C165	C	0.681946	0.120054	0.616440
	C166	C	0.330039	0.890126	0.614543
	C167	C	0.327866	0.120158	0.375734
	C168	C	0.889281	0.389941	0.172455
	C169	C	0.127579	0.620346	0.175077
	C170	C	0.126007	0.390148	0.820371
	C171	C	0.887524	0.620949	0.820390
	C172	C	0.183114	0.884856	0.381972
	C173	C	0.184327	0.125526	0.610954
	C174	C	0.827022	0.125181	0.382231
	C175	C	0.827625	0.885673	0.611179
	C176	C	0.391954	0.182728	0.877539
	C177	C	0.620913	0.182229	0.116769
	C178	C	0.390669	0.829956	0.113184
	C179	C	0.620308	0.828762	0.876997
	C180	C	0.391031	0.886149	0.171799
	C181	C	0.619504	0.126411	0.175479
	C182	C	0.391971	0.125824	0.818806
	C183	C	0.619884	0.885295	0.819203
	C184	C	0.886279	0.181798	0.381724
	C185	C	0.124657	0.181420	0.612046
	C186	C	0.124172	0.828285	0.381933
	C187	C	0.886690	0.829481	0.611721
	C188	C	0.182619	0.389954	0.878600
	C189	C	0.183526	0.621264	0.116664
	C190	C	0.831209	0.390246	0.115677
	C191	C	0.831297	0.621425	0.878317
	C192	C	0.408364	0.100287	0.594932
	C193	C	0.604069	0.909773	0.595592
	C194	C	0.602686	0.099940	0.397955
	C195	C	0.406929	0.910199	0.395654
	C196	C	0.608005	0.407223	0.090613
	C197	C	0.607710	0.605068	0.902435
	C198	C	0.407513	0.606149	0.091319
	C199	C	0.406873	0.407280	0.902735
	C200	C	0.100695	0.604861	0.398288
	C201	C	0.911888	0.604626	0.596469
	C202	C	0.100831	0.405951	0.597068
	C203	C	0.912388	0.406160	0.396029
	C204	C	0.909035	0.600759	0.096698
	C205	C	0.107967	0.409812	0.097647
	C206	C	0.105198	0.600706	0.898224
	C207	C	0.908390	0.410605	0.897299
	C208	C	0.106947	0.907047	0.590642
	C209	C	0.104941	0.104005	0.402862
	C210	C	0.904927	0.105487	0.591181
	C211	C	0.905061	0.905670	0.402451
	C212	C	0.600772	0.104340	0.896974
	C213	C	0.411245	0.105916	0.095292
	C214	C	0.599906	0.907869	0.095118
	C215	C	0.410570	0.905401	0.895314
	Zn216	Zn	0.506120	0.004885	0.745885
	Zn217	Zn	0.504828	0.005855	0.245945
	Zn218	Zn	0.758702	0.505798	-0.003327
	Zn219	Zn	0.256361	0.506431	-0.002621
	Zn220	Zn	0.005643	0.755744	0.497600
	Zn221	Zn	0.005985	0.255461	0.496871
	Zn222	Zn	0.006793	0.505822	0.747561
	Zn223	Zn	0.007909	0.505158	0.246789
	Zn224	Zn	0.505923	0.756259	-0.004145
	Zn225	Zn	0.507500	0.255995	-0.003338
	Zn226	Zn	0.753989	0.005096	0.496904
	Zn227	Zn	0.257417	0.005154	0.496220
	N228	N	0.420028	0.968484	0.674373
	N229	N	0.592313	0.041559	0.675792
	N230	N	0.590690	0.968271	0.317357
	N231	N	0.418330	0.042261	0.316399
	N232	N	0.687597	0.419094	0.959494
	N233	N	0.687310	0.592731	0.033766
	N234	N	0.326140	0.593809	0.960993
	N235	N	0.328419	0.420564	0.034163
	N236	N	0.968331	0.682656	0.412894
	N237	N	0.043558	0.683695	0.582781
	N238	N	0.968662	0.327612	0.581967
	N239	N	0.043936	0.326955	0.411905
	N240	N	0.969599	0.419394	0.675801
	N241	N	0.043464	0.591655	0.676200
	N242	N	0.970395	0.592402	0.317084
	N243	N	0.043874	0.418468	0.318400
	N244	N	0.422654	0.682233	0.958900
	N245	N	0.592541	0.685184	0.033659
	N246	N	0.592965	0.327717	0.959315
	N247	N	0.422321	0.328528	0.034142
	N248	N	0.682650	0.967730	0.410865
	N249	N	0.682188	0.042333	0.581768
	N250	N	0.329771	0.967789	0.580422
	N251	N	0.327757	0.042398	0.409914
	N252	N	0.923080	0.467981	0.174121
	N253	N	0.094896	0.541777	0.177194
	N254	N	0.092600	0.468391	0.818660
	N255	N	0.920771	0.542644	0.818365
	N256	N	0.185816	0.918683	0.459415
	N257	N	0.186299	0.092169	0.533257
	N258	N	0.824929	0.092205	0.459894
	N259	N	0.825265	0.918446	0.533351
	N260	N	0.469236	0.183446	0.911651
	N261	N	0.543860	0.183300	0.081850
	N262	N	0.468150	0.829077	0.079779
	N263	N	0.542803	0.827665	0.910473
	N264	N	0.468731	0.919665	0.174261
	N265	N	0.541590	0.093340	0.176525
	N266	N	0.469653	0.091971	0.816898
	N267	N	0.542044	0.918369	0.817010
	N268	N	0.920262	0.183413	0.459190
	N269	N	0.090290	0.182406	0.534786
	N270	N	0.090975	0.827302	0.459444
	N271	N	0.920703	0.828232	0.534495
	N272	N	0.183990	0.468044	0.912396
	N273	N	0.184817	0.543340	0.082658
	N274	N	0.829715	0.468571	0.082616
	N275	N	0.830601	0.543480	0.912084
	O276	O	0.049045	0.015348	0.038948
	H277	H	0.056990	0.030501	0.034743
	H278	H	0.054022	0.023028	0.038438
	O279	O	0.590134	0.469464	0.530391
	H280	H	0.586646	0.460872	0.525792
	H281	H	0.592197	0.467097	0.532890
	O282	O	0.590734	0.516525	0.486959
	H283	H	0.593312	0.513203	0.477267
	H284	H	0.586064	0.514828	0.483220
	O285	O	1.009093	0.015358	1.030711
	H286	H	1.013583	0.024333	1.031135
	H287	H	1.004435	0.015801	1.042526
	O288	O	0.988592	0.066183	0.020870
	H289	H	0.992715	0.063907	0.010415
	H290	H	0.989658	0.067543	0.007349
	O291	O	0.446938	0.492159	0.443293
	H292	H	0.437254	0.499243	0.436874
	H293	H	0.455476	0.479381	0.441858
	O294	O	1.010396	0.003676	0.922448
	H295	H	1.006377	0.000376	0.917279
	H296	H	1.004859	0.002827	0.932774
	O297	O	-0.072717	-0.028363	0.024613
	H298	H	-0.084468	-0.022441	0.020323
	H299	H	-0.078124	-0.035934	0.031556
	O300	O	0.556307	0.508465	0.460328
	H301	H	0.552789	0.510533	0.466279
	H302	H	0.548039	0.506831	0.460818
	O303	O	0.520415	0.472904	0.566853
	H304	H	0.512875	0.476755	0.573840
	H305	H	0.532051	0.483500	0.578534
	O306	O	1.042320	0.005083	0.049068
	H307	H	1.036759	0.003449	0.053241
	H308	H	1.038475	0.009569	0.054041
	O309	O	-0.119313	-0.105533	1.040706
	H310	H	-0.114118	-0.111040	1.049356
	H311	H	-0.117304	-0.104317	1.044037
	O312	O	0.997381	0.989787	1.007999
	H313	H	1.009301	0.999598	1.012623
	H314	H	0.992447	0.993926	1.005411
	O315	O	0.529120	0.461537	0.514474
	H316	H	0.541687	0.460112	0.508822
	H317	H	0.528520	0.467759	0.508044
	O318	O	0.500909	0.526972	0.503969
	H319	H	0.501448	0.529869	0.506891
	H320	H	0.496795	0.531991	0.500165
	O321	O	-0.033188	1.029015	0.977022
	H322	H	-0.032352	1.032191	0.973676
	H323	H	-0.043392	1.030716	0.981239
	O324	O	0.393413	0.432022	0.584542
	H325	H	0.390379	0.429043	0.582018
	H326	H	0.405142	0.439806	0.575008
	O327	O	0.560415	0.460905	0.490921
	H328	H	0.554354	0.453176	0.492286
	H329	H	0.552453	0.462060	0.488587
	O330	O	0.419710	0.564197	0.491940
	H331	H	0.416955	0.574316	0.487216
	H332	H	0.421264	0.571078	0.485978
	O333	O	0.496692	0.456091	0.500675
	H334	H	0.493090	0.459567	0.509802
	H335	H	0.497865	0.455883	0.511688
	O336	O	0.488138	0.540501	0.433432
	H337	H	0.484906	0.541886	0.421388
	H338	H	0.492126	0.534449	0.424263
	O339	O	0.982374	1.040308	0.015329
	H340	H	0.991646	1.040066	0.002949
	H341	H	0.987087	1.037007	0.016330
	O342	O	0.421878	0.473655	0.481944
	H343	H	0.422497	0.467419	0.487083
	H344	H	0.427263	0.483358	0.483573
	O345	O	0.562315	0.471887	0.425519
	H346	H	0.571178	0.455902	0.427363
	H347	H	0.564534	0.464764	0.424901
	O348	O	0.053728	-0.020943	0.019845
	H349	H	0.059760	-0.028056	0.020180
	H350	H	0.060758	-0.019403	0.015793
	O351	O	-0.031342	0.972305	0.950977
	H352	H	-0.036563	0.963773	0.957997
	H353	H	-0.040373	0.965344	0.953176
	O354	O	0.456817	0.577424	0.439359
	H355	H	0.465780	0.577154	0.451987
	H356	H	0.457338	0.573782	0.436147
	O357	O	-0.022360	1.064201	1.008396
	H358	H	-0.026159	1.065512	1.006268
	H359	H	-0.012211	1.057295	1.007214
