data_Molecule from HDF5

_cell_length_a		16.307818
_cell_length_b		16.158824
_cell_length_c		16.298363
_cell_angle_alpha	90.030705
_cell_angle_beta	90.166641
_cell_angle_gamma	90.194083
_symmetry_space_group_name_H-M	'P 1'
_symmetry_Int_Tables_number		1

loop_
	_symmetry_equiv_pos_as_xyz
	x,y,z

loop_
	_atom_site_label
	_atom_site_type_symbol
	_atom_site_fract_x
	_atom_site_fract_y
	_atom_site_fract_z
	H0	H	0.402431	0.836033	0.716936
	H1	H	0.601347	0.164810	0.717440
	H2	H	0.600315	0.836856	0.288181
	H3	H	0.401489	0.165414	0.286981
	H4	H	0.717715	0.399273	0.842363
	H5	H	0.716396	0.602004	0.168172
	H6	H	0.281968	0.600693	0.842071
	H7	H	0.285479	0.399714	0.168320
	H8	H	0.835662	0.711954	0.410120
	H9	H	0.163741	0.717035	0.607075
	H10	H	0.836949	0.284671	0.604150
	H11	H	0.163895	0.287607	0.409494
	H12	H	0.837242	0.398619	0.721317
	H13	H	0.163863	0.600651	0.723938
	H14	H	0.837086	0.599405	0.290274
	H15	H	0.161783	0.398547	0.289291
	H16	H	0.401748	0.712977	0.839297
	H17	H	0.598298	0.716632	0.167132
	H18	H	0.597680	0.288005	0.840044
	H19	H	0.402704	0.285449	0.167652
	H20	H	0.715838	0.836233	0.405396
	H21	H	0.715742	0.165319	0.602770
	H22	H	0.286445	0.836069	0.601711
	H23	H	0.284145	0.164365	0.401185
	H24	H	0.900651	0.334923	0.219277
	H25	H	0.099879	0.664394	0.221546
	H26	H	0.099472	0.336086	0.792705
	H27	H	0.899902	0.663803	0.790539
	H28	H	0.215540	0.900071	0.340846
	H29	H	0.221092	0.103264	0.666022
	H30	H	0.785897	0.101391	0.342286
	H31	H	0.783771	0.899992	0.667819
	H32	H	0.336736	0.214340	0.904143
	H33	H	0.664460	0.216235	0.101754
	H34	H	0.336736	0.785918	0.100219
	H35	H	0.664246	0.786089	0.904211
	H36	H	0.337919	0.898728	0.219745
	H37	H	0.663576	0.103593	0.220302
	H38	H	0.338743	0.101199	0.784888
	H39	H	0.664393	0.902696	0.789262
	H40	H	0.901966	0.216369	0.342660
	H41	H	0.100953	0.214573	0.669135
	H42	H	0.098289	0.784436	0.341433
	H43	H	0.902833	0.786463	0.670475
	H44	H	0.214802	0.336569	0.905913
	H45	H	0.217185	0.664220	0.107405
	H46	H	0.784570	0.336241	0.105646
	H47	H	0.786374	0.664666	0.906790
	H48	H	0.416584	0.115275	0.594811
	H49	H	0.598378	0.881191	0.594010
	H50	H	0.588104	0.116539	0.407851
	H51	H	0.402087	0.883504	0.415244
	H52	H	0.597641	0.395936	0.125434
	H53	H	0.594459	0.599317	0.885761
	H54	H	0.406025	0.589180	0.120217
	H55	H	0.408768	0.404932	0.888022
	H56	H	0.116925	0.595055	0.413843
	H57	H	0.882948	0.593235	0.603318
	H58	H	0.116526	0.408741	0.602472
	H59	H	0.884588	0.410522	0.410908
	H60	H	0.117529	0.406691	0.600248
	H61	H	0.885239	0.594803	0.596057
	H62	H	0.114616	0.590315	0.417203
	H63	H	0.881332	0.404364	0.410265
	H64	H	0.412079	0.593165	0.119098
	H65	H	0.601226	0.587533	0.887635
	H66	H	0.601782	0.419956	0.120062
	H67	H	0.401156	0.407922	0.886482
	H68	H	0.594715	0.116288	0.418076
	H69	H	0.593102	0.882222	0.601495
	H70	H	0.407073	0.116290	0.588545
	H71	H	0.408372	0.882831	0.403696
	H72	H	0.913902	0.615958	0.099847
	H73	H	0.098674	0.385062	0.089561
	H74	H	0.085290	0.613775	0.917694
	H75	H	0.911323	0.383504	0.911549
	H76	H	0.093247	0.904542	0.621939
	H77	H	0.089919	0.087728	0.391663
	H78	H	0.904998	0.094230	0.623382
	H79	H	0.916420	0.908045	0.392486
	H80	H	0.619223	0.096005	0.904605
	H81	H	0.390466	0.078629	0.092393
	H82	H	0.614273	0.907838	0.086154
	H83	H	0.385914	0.906798	0.913635
	H84	H	0.615503	0.918364	0.099847
	H85	H	0.379966	0.096253	0.108966
	H86	H	0.616277	0.097973	0.914443
	H87	H	0.384766	0.911918	0.905856
	H88	H	0.907041	0.088577	0.620777
	H89	H	0.088436	0.098689	0.389801
	H90	H	0.100611	0.911391	0.621418
	H91	H	0.905058	0.900236	0.386948
	H92	H	0.095664	0.617344	0.919556
	H93	H	0.097263	0.378149	0.107364
	H94	H	0.905139	0.616221	0.094131
	H95	H	0.907688	0.383907	0.918698
	H96	H	0.407026	0.120258	0.599724
	H97	H	0.589704	0.884526	0.593662
	H98	H	0.599688	0.120395	0.408479
	H99	H	0.415116	0.886721	0.414011
	H100	H	0.579908	0.410280	0.115448
	H101	H	0.588622	0.588996	0.890601
	H102	H	0.406505	0.596691	0.121891
	H103	H	0.406695	0.412505	0.889840
	H104	H	0.116265	0.590437	0.411009
	H105	H	0.886150	0.587454	0.599272
	H106	H	0.115911	0.410163	0.600003
	H107	H	0.884248	0.406524	0.416329
	H108	H	0.905256	0.620214	0.103745
	H109	H	0.082405	0.385533	0.098904
	H110	H	0.090971	0.618748	0.910022
	H111	H	0.903075	0.381301	0.912687
	H112	H	0.091632	0.913528	0.617729
	H113	H	0.097571	0.093957	0.386031
	H114	H	0.911217	0.093738	0.621511
	H115	H	0.902879	0.914173	0.390167
	H116	H	0.615575	0.088358	0.910834
	H117	H	0.385138	0.102084	0.084577
	H118	H	0.619274	0.901761	0.101670
	H119	H	0.381594	0.902970	0.906300
	C120	C	0.380469	0.008825	0.623679
	C121	C	0.622746	0.991690	0.625247
	C122	C	0.622788	0.009273	0.382305
	C123	C	0.379387	0.992793	0.381378
	C124	C	0.621881	0.379536	0.012558
	C125	C	0.622901	0.621918	0.995918
	C126	C	0.378403	0.621888	0.012405
	C127	C	0.377764	0.378924	0.996219
	C128	C	0.008146	0.621279	0.384926
	C129	C	0.992508	0.621842	0.629297
	C130	C	0.009044	0.378049	0.629131
	C131	C	0.991263	0.378268	0.384280
	C132	C	0.878915	0.508811	0.127439
	C133	C	0.122240	0.491160	0.128631
	C134	C	0.120372	0.508534	0.886087
	C135	C	0.878487	0.491434	0.884642
	C136	C	0.122958	0.879515	0.512590
	C137	C	0.122781	0.122890	0.496259
	C138	C	0.879293	0.121874	0.514039
	C139	C	0.879016	0.878851	0.498004
	C140	C	0.509175	0.122842	0.880817
	C141	C	0.492730	0.122561	0.124740
	C142	C	0.508721	0.879510	0.124661
	C143	C	0.492314	0.878616	0.880843
	C144	C	0.381989	0.885237	0.679406
	C145	C	0.621166	0.115628	0.679933
	C146	C	0.620981	0.885981	0.326080
	C147	C	0.381199	0.116350	0.325270
	C148	C	0.678597	0.380089	0.890518
	C149	C	0.678145	0.621579	0.119032
	C150	C	0.321157	0.620453	0.890265
	C151	C	0.323253	0.379848	0.119344
	C152	C	0.884956	0.675569	0.388217
	C153	C	0.115049	0.678687	0.627681
	C154	C	0.885985	0.322289	0.625374
	C155	C	0.114596	0.324209	0.388034
	C156	C	0.885993	0.378797	0.683845
	C157	C	0.115036	0.620773	0.685667
	C158	C	0.885598	0.618969	0.329205
	C159	C	0.113462	0.379360	0.328388
	C160	C	0.380795	0.675990	0.888643
	C161	C	0.619581	0.678464	0.118633
	C162	C	0.618931	0.324588	0.889356
	C163	C	0.381782	0.323293	0.119204
	C164	C	0.678191	0.885571	0.384317
	C165	C	0.678111	0.115769	0.623100
	C166	C	0.324448	0.885197	0.622019
	C167	C	0.322778	0.115804	0.381618
	C168	C	0.880226	0.384747	0.182453
	C169	C	0.120356	0.615075	0.183980
	C170	C	0.119161	0.385175	0.830438
	C171	C	0.879923	0.614652	0.828402
	C172	C	0.177871	0.879931	0.389893
	C173	C	0.181317	0.122135	0.618011
	C174	C	0.823491	0.120898	0.391300
	C175	C	0.822732	0.880313	0.619862
	C176	C	0.386193	0.177433	0.883187
	C177	C	0.615536	0.178695	0.122365
	C178	C	0.385616	0.823793	0.121538
	C179	C	0.615385	0.824007	0.884041
	C180	C	0.386455	0.879594	0.181192
	C181	C	0.614980	0.122522	0.181431
	C182	C	0.387105	0.121104	0.823902
	C183	C	0.615395	0.881944	0.826731
	C184	C	0.881600	0.177893	0.391144
	C185	C	0.121574	0.177673	0.619711
	C186	C	0.119343	0.822678	0.390249
	C187	C	0.881953	0.823973	0.621227
	C188	C	0.176543	0.385484	0.886960
	C189	C	0.178617	0.615175	0.127129
	C190	C	0.822513	0.385129	0.125753
	C191	C	0.823397	0.615160	0.886104
	C192	C	0.403493	0.094931	0.601035
	C193	C	0.600242	0.905197	0.603027
	C194	C	0.600558	0.095352	0.404781
	C195	C	0.401988	0.906898	0.404420
	C196	C	0.599825	0.402138	0.098108
	C197	C	0.601167	0.598868	0.910295
	C198	C	0.401653	0.599633	0.098156
	C199	C	0.399104	0.401839	0.910381
	C200	C	0.093798	0.598761	0.407649
	C201	C	0.907024	0.598635	0.606249
	C202	C	0.094394	0.401506	0.607325
	C203	C	0.905486	0.400568	0.405961
	C204	C	0.901349	0.595031	0.105595
	C205	C	0.099511	0.405240	0.105569
	C206	C	0.097291	0.594615	0.909118
	C207	C	0.900883	0.405269	0.907568
	C208	C	0.101426	0.902941	0.598209
	C209	C	0.098963	0.100168	0.411326
	C210	C	0.901284	0.098977	0.599557
	C211	C	0.901423	0.901038	0.412130
	C212	C	0.594762	0.100675	0.903491
	C213	C	0.407319	0.099182	0.101877
	C214	C	0.594007	0.902553	0.102379
	C215	C	0.406401	0.900691	0.902285
	Zn216	Zn	0.501496	0.000598	0.752591
	Zn217	Zn	0.501021	0.001483	0.253433
	Zn218	Zn	0.751316	0.500258	0.005972
	Zn219	Zn	0.249331	0.500436	0.005527
	Zn220	Zn	0.000626	0.750331	0.506323
	Zn221	Zn	0.000846	0.251031	0.506408
	Zn222	Zn	0.000412	0.499356	0.757596
	Zn223	Zn	-0.000579	0.499560	0.255465
	Zn224	Zn	0.500299	0.750157	0.002705
	Zn225	Zn	0.500416	0.251255	0.003397
	Zn226	Zn	0.750484	0.000556	0.505078
	Zn227	Zn	0.251570	0.001241	0.502780
	N228	N	0.416197	0.963066	0.680402
	N229	N	0.587267	0.037464	0.681421
	N230	N	0.587440	0.963806	0.324631
	N231	N	0.415514	0.038758	0.324799
	N232	N	0.680483	0.413521	0.968172
	N233	N	0.680346	0.587209	0.041896
	N234	N	0.319507	0.587664	0.968235
	N235	N	0.320659	0.413643	0.041945
	N236	N	0.962338	0.677015	0.422249
	N237	N	0.038016	0.679422	0.593233
	N238	N	0.963348	0.321773	0.592069
	N239	N	0.037599	0.323316	0.422020
	N240	N	0.963480	0.412800	0.686432
	N241	N	0.037647	0.586367	0.686965
	N242	N	0.963327	0.586171	0.326916
	N243	N	0.035860	0.412447	0.325965
	N244	N	0.415445	0.677071	0.965771
	N245	N	0.586248	0.679076	0.040954
	N246	N	0.584243	0.324242	0.966243
	N247	N	0.414791	0.322156	0.041456
	N248	N	0.679650	0.963343	0.418507
	N249	N	0.679115	0.037715	0.589792
	N250	N	0.323261	0.963140	0.588105
	N251	N	0.321448	0.038016	0.415626
	N252	N	0.914644	0.462409	0.183565
	N253	N	0.086265	0.537076	0.185113
	N254	N	0.084782	0.462729	0.829933
	N255	N	0.913486	0.536564	0.827324
	N256	N	0.179961	0.914602	0.466915
	N257	N	0.182342	0.088774	0.540389
	N258	N	0.821859	0.086754	0.468650
	N259	N	0.820911	0.913494	0.542226
	N260	N	0.463183	0.178596	0.917954
	N261	N	0.538525	0.178854	0.087760
	N262	N	0.462596	0.823327	0.087220
	N263	N	0.537756	0.821848	0.916815
	N264	N	0.463933	0.913585	0.183305
	N265	N	0.537590	0.088313	0.182889
	N266	N	0.464575	0.087883	0.822331
	N267	N	0.537753	0.914933	0.824478
	N268	N	0.915590	0.178874	0.468422
	N269	N	0.085865	0.178395	0.543158
	N270	N	0.086072	0.822149	0.467707
	N271	N	0.916399	0.823165	0.544259
	N272	N	0.177155	0.463334	0.921106
	N273	N	0.180014	0.537168	0.093258
	N274	N	0.821483	0.463260	0.092193
	N275	N	0.822390	0.537512	0.920405
	O276	O	0.528115	0.611757	0.497267
	H277	H	0.527283	0.614602	0.490696
	H278	H	0.523185	0.604163	0.490299
	O279	O	0.449422	0.517360	0.573891
	H280	H	0.450966	0.508424	0.580823
	H281	H	0.448862	0.511377	0.566465
	O282	O	0.465034	0.505131	-0.446358
	H283	H	0.465374	0.502496	-0.449152
	H284	H	0.453510	0.498778	-0.443738
	O285	O	1.033262	0.022106	0.956641
	H286	H	1.027756	0.026357	0.954735
	H287	H	1.041933	0.014297	0.955506
	O288	O	0.515441	0.387235	0.452970
	H289	H	0.512256	0.390060	0.448235
	H290	H	0.508092	0.389434	0.458008
	O291	O	-0.075792	0.954010	-0.089975
	H292	H	-0.090173	0.960799	-0.083113
	H293	H	-0.079115	0.948537	-0.087298
	O294	O	0.394511	0.475225	0.480036
	H295	H	0.401015	0.476032	0.479492
	H296	H	0.382106	0.461661	0.483650
	O297	O	0.135775	0.012745	1.035696
	H298	H	0.146011	0.020605	1.043691
	H299	H	0.127946	0.027314	1.031539
	O300	O	0.521874	0.596804	0.405145
	H301	H	0.525887	0.594967	0.403296
	H302	H	0.528649	0.604320	0.412506
	O303	O	1.096774	1.030256	0.085921
	H304	H	1.079661	1.035194	0.074951
	H305	H	1.098305	1.025861	0.087189
	O306	O	-0.020179	0.911695	0.882099
	H307	H	-0.029680	0.907856	0.885497
	H308	H	-0.022425	0.919690	0.876261
	O309	O	0.450590	0.516172	0.572534
	H310	H	0.452449	0.518457	0.574198
	H311	H	0.451671	0.511769	0.567629
	O312	O	-0.066021	-0.045873	0.073187
	H313	H	-0.062978	-0.049429	0.081236
	H314	H	-0.056348	-0.049274	0.067806
	O315	O	0.998042	0.026982	0.118380
	H316	H	0.996634	0.020874	0.119160
	H317	H	1.002262	0.023549	0.120992
	O318	O	0.938580	1.016484	1.040380
	H319	H	0.939709	1.014888	1.041947
	H320	H	0.939820	1.012040	1.054023
	O321	O	0.148452	-0.088383	0.918633
	H322	H	0.147190	-0.090345	0.907073
	H323	H	0.160510	-0.104685	0.909358
	O324	O	0.950310	-0.006180	0.024132
	H325	H	0.947254	-0.010618	0.033291
	H326	H	0.953295	-0.002830	0.027996
	O327	O	-0.027544	0.065659	-0.008527
	H328	H	-0.031609	0.055502	-0.007708
	H329	H	-0.019913	0.065168	-0.008748
	O330	O	0.542099	0.421778	0.553494
	H331	H	0.545814	0.419900	0.547846
	H332	H	0.530096	0.428911	0.548955
	O333	O	-0.055809	1.002685	1.141060
	H334	H	-0.051894	1.004138	1.145235
	H335	H	-0.053931	0.992737	1.143059
	O336	O	0.092984	0.040469	0.049752
	H337	H	0.087343	0.048713	0.042747
	H338	H	0.092719	0.055032	0.044429
	O339	O	0.552566	0.527750	0.417370
	H340	H	0.548075	0.526880	0.422361
	H341	H	0.551305	0.528148	0.407571
	O342	O	1.530476	1.586110	1.606140
	H343	H	1.525624	1.586821	1.599966
	H344	H	1.537352	1.587583	1.615473
	O345	O	1.005771	0.999803	0.033506
	H346	H	1.012446	1.005842	0.041500
	H347	H	1.003188	0.996749	0.039964
	O348	O	0.530574	0.435388	0.505446
	H349	H	0.519396	0.432451	0.504407
	H350	H	0.528683	0.442717	0.507529
	O351	O	0.489164	0.471886	0.554459
	H352	H	0.482368	0.465824	0.557938
	H353	H	0.487732	0.477609	0.554893
	O354	O	0.460209	0.523559	0.470245
	H355	H	0.460636	0.532485	0.460948
	H356	H	0.472351	0.524300	0.472933
	O357	O	0.560175	-0.430972	0.613106
	H358	H	0.562891	-0.432954	0.629434
	H359	H	0.571380	-0.420543	0.624591
	O360	O	0.454412	0.525304	0.463994
	H361	H	0.445158	0.531260	0.459701
	H362	H	0.460237	0.535160	0.470008
	O363	O	0.570989	0.393561	0.399088
	H364	H	0.572377	0.387730	0.393213
	H365	H	0.573894	0.384215	0.399199
	O366	O	0.997218	0.957141	0.972365
	H367	H	0.993528	0.955858	0.971469
	H368	H	1.002236	0.959490	0.968690
	O369	O	0.960019	-0.016605	1.012325
	H370	H	0.977740	-0.011794	1.013756
	H371	H	0.951242	-0.017167	1.003683
	O372	O	-0.079545	-0.009177	-0.042840
	H373	H	-0.082655	-0.012685	-0.041052
	H374	H	-0.078878	-0.004881	-0.050916
	O375	O	1.071761	-0.035947	-0.030478
	H376	H	1.074249	-0.037820	-0.023946
	H377	H	1.075523	-0.028597	-0.042935
	O378	O	1.042576	1.074639	1.006955
	H379	H	1.038384	1.061978	1.010921
	H380	H	1.043444	1.076755	1.012434
	O381	O	0.351198	0.573847	0.390211
	H382	H	0.345350	0.578178	0.381895
	H383	H	0.366705	0.578215	0.391023
