data_Molecule from HDF5

_cell_length_a		16.560997
_cell_length_b		16.597211
_cell_length_c		16.479285
_cell_angle_alpha	89.934849
_cell_angle_beta	90.075847
_cell_angle_gamma	90.005595
_symmetry_space_group_name_H-M	'P 1'
_symmetry_Int_Tables_number		1

loop_
	_symmetry_equiv_pos_as_xyz
	x,y,z

loop_
	_atom_site_label
	_atom_site_type_symbol
	_atom_site_fract_x
	_atom_site_fract_y
	_atom_site_fract_z
	H0	H	0.383386	0.838775	0.717455
	H1	H	0.593783	0.150662	0.714994
	H2	H	0.594360	0.838879	0.271383
	H3	H	0.383981	0.150299	0.272970
	H4	H	0.711622	0.388020	0.836274
	H5	H	0.709680	0.596974	0.150728
	H6	H	0.264610	0.601366	0.837732
	H7	H	0.269043	0.388417	0.150931
	H8	H	0.834009	0.715866	0.386483
	H9	H	0.144381	0.718811	0.603865
	H10	H	0.834040	0.269773	0.602676
	H11	H	0.144356	0.268653	0.386762
	H12	H	0.834122	0.386406	0.718535
	H13	H	0.145484	0.600263	0.717277
	H14	H	0.833221	0.597208	0.272540
	H15	H	0.145532	0.386439	0.272236
	H16	H	0.377959	0.719714	0.838917
	H17	H	0.594854	0.715305	0.149712
	H18	H	0.594478	0.272934	0.836247
	H19	H	0.383389	0.270932	0.149954
	H20	H	0.710682	0.838174	0.388768
	H21	H	0.712172	0.149826	0.600149
	H22	H	0.265689	0.838601	0.602330
	H23	H	0.265219	0.148582	0.386412
	H24	H	0.887113	0.335741	0.212891
	H25	H	0.094885	0.649787	0.215569
	H26	H	0.095103	0.337461	0.771315
	H27	H	0.882565	0.648858	0.770369
	H28	H	0.213623	0.884780	0.338822
	H29	H	0.211812	0.099547	0.651590
	H30	H	0.768823	0.097397	0.337219
	H31	H	0.768389	0.888189	0.651717
	H32	H	0.333508	0.218346	0.884476
	H33	H	0.645869	0.215251	0.098340
	H34	H	0.335100	0.768477	0.104102
	H35	H	0.644421	0.771366	0.887375
	H36	H	0.333362	0.886839	0.217695
	H37	H	0.644915	0.099508	0.215682
	H38	H	0.333827	0.101511	0.769259
	H39	H	0.646189	0.890605	0.773986
	H40	H	0.883345	0.214913	0.337746
	H41	H	0.095924	0.215755	0.651601
	H42	H	0.095625	0.771075	0.337840
	H43	H	0.883275	0.770540	0.650513
	H44	H	0.211386	0.336884	0.888026
	H45	H	0.212773	0.648671	0.101223
	H46	H	0.769416	0.336094	0.097977
	H47	H	0.765188	0.648199	0.885820
	H48	H	0.400867	0.103262	0.577022
	H49	H	0.572216	0.882623	0.587452
	H50	H	0.580350	0.105291	0.407948
	H51	H	0.399174	0.880642	0.403556
	H52	H	0.579706	0.407076	0.105216
	H53	H	0.579143	0.577503	0.881398
	H54	H	0.398442	0.585788	0.108041
	H55	H	0.398083	0.405802	0.880718
	H56	H	0.103721	0.578427	0.395798
	H57	H	0.877357	0.583886	0.582636
	H58	H	0.100260	0.403960	0.580590
	H59	H	0.877928	0.403332	0.406943
	H60	H	0.099833	0.406415	0.580088
	H61	H	0.879671	0.581766	0.578796
	H62	H	0.104283	0.594395	0.408504
	H63	H	0.877313	0.405151	0.403827
	H64	H	0.399627	0.574876	0.102937
	H65	H	0.572198	0.583211	0.882567
	H66	H	0.575223	0.402198	0.105457
	H67	H	0.402344	0.409203	0.882285
	H68	H	0.580936	0.107445	0.402600
	H69	H	0.579174	0.884397	0.576128
	H70	H	0.398671	0.106060	0.581894
	H71	H	0.404588	0.884153	0.405383
	H72	H	0.894269	0.606966	0.083253
	H73	H	0.078962	0.381018	0.082666
	H74	H	0.072662	0.602089	0.908690
	H75	H	0.903171	0.383439	0.907435
	H76	H	0.077256	0.905218	0.606772
	H77	H	0.081205	0.080990	0.381621
	H78	H	0.908364	0.081124	0.604615
	H79	H	0.901527	0.900730	0.380912
	H80	H	0.597745	0.078465	0.910213
	H81	H	0.376533	0.084745	0.082146
	H82	H	0.603948	0.896291	0.081725
	H83	H	0.379847	0.909830	0.912299
	H84	H	0.596501	0.908997	0.074946
	H85	H	0.378475	0.082354	0.079437
	H86	H	0.602827	0.081439	0.898270
	H87	H	0.376816	0.910196	0.901134
	H88	H	0.898655	0.089022	0.610472
	H89	H	0.074653	0.077057	0.385175
	H90	H	0.076440	0.906618	0.605010
	H91	H	0.895993	0.906996	0.381060
	H92	H	0.081667	0.604549	0.910010
	H93	H	0.080481	0.380566	0.083784
	H94	H	0.900589	0.607455	0.088415
	H95	H	0.898995	0.381877	0.908413
	H96	H	0.404131	0.104808	0.582353
	H97	H	0.585393	0.879753	0.586894
	H98	H	0.575862	0.105164	0.404231
	H99	H	0.399515	0.883627	0.410017
	H100	H	0.581352	0.400770	0.108155
	H101	H	0.580261	0.586364	0.878739
	H102	H	0.409120	0.582308	0.103349
	H103	H	0.403048	0.403729	0.881263
	H104	H	0.096615	0.576511	0.415402
	H105	H	0.878738	0.579468	0.582578
	H106	H	0.100775	0.405650	0.582279
	H107	H	0.876230	0.401795	0.404146
	H108	H	0.901679	0.604176	0.080382
	H109	H	0.079238	0.381255	0.084944
	H110	H	0.077080	0.606090	0.901984
	H111	H	0.900774	0.381675	0.904306
	H112	H	0.075546	0.905202	0.606040
	H113	H	0.074051	0.085014	0.382729
	H114	H	0.895406	0.076469	0.607067
	H115	H	0.903528	0.908227	0.384031
	H116	H	0.602303	0.090649	0.907946
	H117	H	0.378124	0.080910	0.082948
	H118	H	0.601636	0.909850	0.090434
	H119	H	0.375447	0.900134	0.907225
	C120	C	0.367979	0.002290	0.614894
	C121	C	0.611213	0.985659	0.615535
	C122	C	0.610790	0.002621	0.372853
	C123	C	0.367606	0.985303	0.372614
	C124	C	0.610746	0.372004	0.001930
	C125	C	0.609956	0.614297	0.984969
	C126	C	0.367748	0.615307	0.002232
	C127	C	0.369102	0.373112	0.985328
	C128	C	-0.002090	0.614762	0.373297
	C129	C	0.981136	0.615196	0.615316
	C130	C	-0.002333	0.372209	0.614944
	C131	C	0.980246	0.370968	0.372515
	C132	C	0.867997	0.501990	0.115383
	C133	C	0.111437	0.484543	0.116063
	C134	C	0.110150	0.501222	0.873422
	C135	C	0.867676	0.484918	0.872562
	C136	C	0.110031	0.872188	0.502798
	C137	C	0.109945	0.114229	0.486686
	C138	C	0.868056	0.114753	0.503422
	C139	C	0.867889	0.872178	0.485773
	C140	C	0.497791	0.116556	0.871657
	C141	C	0.480803	0.114991	0.114305
	C142	C	0.497785	0.872100	0.115703
	C143	C	0.480581	0.873714	0.873413
	C144	C	0.365339	0.885258	0.676631
	C145	C	0.612803	0.103727	0.675013
	C146	C	0.612630	0.885326	0.312110
	C147	C	0.365051	0.102941	0.312395
	C148	C	0.670994	0.369993	0.883493
	C149	C	0.669820	0.616095	0.103441
	C150	C	0.305027	0.619601	0.884914
	C151	C	0.309079	0.370468	0.103871
	C152	C	0.880540	0.674854	0.369335
	C153	C	0.097992	0.677141	0.620187
	C154	C	0.880560	0.310758	0.619592
	C155	C	0.097773	0.309714	0.369198
	C156	C	0.880705	0.368854	0.677229
	C157	C	0.098386	0.618347	0.677031
	C158	C	0.880487	0.616159	0.312407
	C159	C	0.098282	0.368330	0.312104
	C160	C	0.361889	0.678201	0.885406
	C161	C	0.612851	0.674782	0.102858
	C162	C	0.612959	0.312529	0.883178
	C163	C	0.365703	0.311776	0.103123
	C164	C	0.670477	0.884915	0.370193
	C165	C	0.671516	0.103187	0.618007
	C166	C	0.306861	0.885369	0.619280
	C167	C	0.305947	0.102001	0.368908
	C168	C	0.867319	0.383316	0.174228
	C169	C	0.113404	0.602337	0.176200
	C170	C	0.113458	0.384206	0.811714
	C171	C	0.864279	0.601892	0.810807
	C172	C	0.172321	0.867911	0.385505
	C173	C	0.171176	0.117356	0.604467
	C174	C	0.808405	0.116257	0.384743
	C175	C	0.808012	0.869705	0.604370
	C176	C	0.380593	0.177730	0.867405
	C177	C	0.598660	0.175176	0.116875
	C178	C	0.381203	0.809885	0.120407
	C179	C	0.597848	0.812514	0.869907
	C180	C	0.380434	0.868989	0.177032
	C181	C	0.598308	0.117619	0.175245
	C182	C	0.380557	0.119711	0.809908
	C183	C	0.598735	0.871512	0.813329
	C184	C	0.865305	0.174754	0.385124
	C185	C	0.113428	0.175021	0.604626
	C186	C	0.113982	0.810986	0.384911
	C187	C	0.865171	0.811242	0.603659
	C188	C	0.171377	0.383988	0.869730
	C189	C	0.171923	0.601995	0.119062
	C190	C	0.808934	0.383685	0.116768
	C191	C	0.805995	0.601737	0.868224
	C192	C	0.393874	0.083581	0.588187
	C193	C	0.586065	0.903653	0.590726
	C194	C	0.585987	0.084645	0.397769
	C195	C	0.393532	0.903999	0.398764
	C196	C	0.585815	0.396477	0.084606
	C197	C	0.584428	0.589473	0.902423
	C198	C	0.394714	0.588428	0.083646
	C199	C	0.394089	0.398907	0.902986
	C200	C	0.080188	0.590259	0.399227
	C201	C	0.899772	0.589116	0.588753
	C202	C	0.079104	0.397885	0.588387
	C203	C	0.898289	0.396145	0.397815
	C204	C	0.892056	0.584657	0.090957
	C205	C	0.086686	0.402366	0.090925
	C206	C	0.084395	0.582760	0.899322
	C207	C	0.893696	0.403585	0.898997
	C208	C	0.083793	0.898173	0.584631
	C209	C	0.084072	0.088340	0.404600
	C210	C	0.893566	0.089515	0.586022
	C211	C	0.893163	0.897910	0.403426
	C212	C	0.579632	0.090653	0.897890
	C213	C	0.398892	0.089718	0.088706
	C214	C	0.579460	0.897895	0.089838
	C215	C	0.398879	0.899384	0.899332
	Zn216	Zn	0.489387	-0.005443	0.744314
	Zn217	Zn	0.489028	-0.006057	0.243743
	Zn218	Zn	0.739115	0.493136	-0.006204
	Zn219	Zn	0.239688	0.493204	-0.006119
	Zn220	Zn	-0.010523	0.743718	0.493988
	Zn221	Zn	-0.010497	0.242857	0.494774
	Zn222	Zn	-0.010751	0.493605	0.744052
	Zn223	Zn	-0.009992	0.493048	0.244322
	Zn224	Zn	0.488883	0.743833	-0.006297
	Zn225	Zn	0.488934	0.244320	-0.007165
	Zn226	Zn	0.739732	-0.006649	0.494671
	Zn227	Zn	0.238417	-0.006673	0.494356
	N228	N	0.402465	0.959164	0.674228
	N229	N	0.575896	0.029724	0.673687
	N230	N	0.576315	0.959643	0.313610
	N231	N	0.402684	0.029319	0.314604
	N232	N	0.669523	0.406356	0.958273
	N233	N	0.668278	0.579199	0.029012
	N234	N	0.308312	0.581307	0.958748
	N235	N	0.310939	0.407914	0.029580
	N236	N	0.954673	0.674054	0.406583
	N237	N	0.023942	0.675352	0.582606
	N238	N	0.954317	0.312782	0.581703
	N239	N	0.023386	0.311083	0.406036
	N240	N	0.954457	0.406466	0.674607
	N241	N	0.024684	0.580494	0.674270
	N242	N	0.954757	0.579527	0.314687
	N243	N	0.024443	0.405808	0.314057
	N244	N	0.400325	0.675600	0.959212
	N245	N	0.576241	0.673631	0.028125
	N246	N	0.576279	0.313540	0.957884
	N247	N	0.402341	0.313503	0.028463
	N248	N	0.669496	0.958910	0.407298
	N249	N	0.670668	0.028713	0.581908
	N250	N	0.308392	0.959136	0.581667
	N251	N	0.306982	0.027740	0.405611
	N252	N	0.903166	0.458037	0.173577
	N253	N	0.076878	0.528001	0.174734
	N254	N	0.076305	0.458226	0.813535
	N255	N	0.901917	0.528238	0.813343
	N256	N	0.169992	0.905317	0.459727
	N257	N	0.169310	0.080435	0.530050
	N258	N	0.809837	0.079804	0.459522
	N259	N	0.809593	0.906766	0.529934
	N260	N	0.454579	0.175640	0.905111
	N261	N	0.524571	0.173776	0.079678
	N262	N	0.455188	0.811801	0.082916
	N263	N	0.523464	0.813878	0.906530
	N264	N	0.453865	0.907171	0.174102
	N265	N	0.524008	0.080958	0.173802
	N266	N	0.454434	0.082307	0.812451
	N267	N	0.524631	0.908824	0.815071
	N268	N	0.901500	0.174156	0.460117
	N269	N	0.076208	0.173150	0.530151
	N270	N	0.076103	0.813458	0.459015
	N271	N	0.901655	0.812648	0.528937
	N272	N	0.169581	0.457862	0.907132
	N273	N	0.171015	0.527625	0.082561
	N274	N	0.808947	0.458563	0.081029
	N275	N	0.807880	0.527792	0.905753
	O276	O	1.104290	1.193392	-0.138896
	H277	H	1.104252	1.191941	-0.118074
	H278	H	1.104589	1.184812	-0.136846
	O279	O	-0.040364	0.208383	0.875404
	H280	H	-0.048129	0.210633	0.870762
	H281	H	-0.037549	0.207840	0.868419
	O282	O	0.273880	0.464565	0.711293
	H283	H	0.248129	0.471419	0.730797
	H284	H	0.266233	0.457677	0.697473
	O285	O	0.301914	0.306783	0.675719
	H286	H	0.320559	0.297148	0.656085
	H287	H	0.287696	0.323203	0.697049
	O288	O	1.360548	-0.716023	1.364537
	H289	H	1.378318	-0.718128	1.352994
	H290	H	1.389669	-0.711763	1.377623
	O291	O	0.703472	0.278434	0.459631
	H292	H	0.715348	0.289945	0.469843
	H293	H	0.724597	0.276252	0.469522
	O294	O	0.273321	0.282651	0.512389
	H295	H	0.306247	0.281969	0.513532
	H296	H	0.247325	0.248816	0.526438
	O297	O	0.759099	-0.232040	-0.229720
	H298	H	0.729721	-0.232317	-0.246395
	H299	H	0.770068	-0.224027	-0.211985
	O300	O	0.202808	-0.005639	-0.110353
	H301	H	0.195808	-0.012016	-0.102647
	H302	H	0.212640	0.016036	-0.101296
	O303	O	-0.200188	-0.127639	0.017512
	H304	H	-0.203520	-0.145541	0.039555
	H305	H	-0.201529	-0.125440	0.026277
	O306	O	0.838052	0.082988	-0.211571
	H307	H	0.843072	0.067982	-0.213858
	H308	H	0.839905	0.080365	-0.208071
	O309	O	0.143158	0.865274	0.064288
	H310	H	0.134114	0.866137	0.035598
	H311	H	0.158826	0.855164	0.061195
	O312	O	0.543688	0.573961	0.672929
	H313	H	0.532910	0.576993	0.682144
	H314	H	0.546445	0.585605	0.663819
	O315	O	0.513164	0.566147	0.368599
	H316	H	0.513061	0.570513	0.351807
	H317	H	0.508616	0.548245	0.362477
	O318	O	0.796947	0.979103	0.092876
	H319	H	0.802670	0.977240	0.093579
	H320	H	0.797842	0.983702	0.079397
	O321	O	0.044538	0.819639	1.172673
	H322	H	0.042048	0.805665	1.163641
	H323	H	0.066987	0.799277	1.170176
	O324	O	0.965936	0.099275	1.218341
	H325	H	0.966236	0.095913	1.237823
	H326	H	0.972134	0.078728	1.214883
	O327	O	0.208969	0.961619	1.025382
	H328	H	0.209691	0.960226	1.035194
	H329	H	0.207944	0.959412	1.040216
	O330	O	0.622686	0.327913	0.607327
	H331	H	0.605113	0.342163	0.595316
	H332	H	0.613447	0.341242	0.595880
	O333	O	0.688514	1.292041	1.289590
	H334	H	0.703916	1.277335	1.321470
	H335	H	0.713111	1.290408	1.273095
	O336	O	0.463461	0.369780	0.271683
	H337	H	0.475984	0.370073	0.256516
	H338	H	0.476538	0.379300	0.265065
	O339	O	0.717033	0.425738	0.546190
	H340	H	0.720059	0.431658	0.569968
	H341	H	0.708110	0.458231	0.528253
	O342	O	-0.062095	0.764271	-0.060266
	H343	H	-0.067945	0.764200	-0.074339
	H344	H	-0.080521	0.768681	-0.075998
	O345	O	0.431392	0.594806	0.462380
	H346	H	0.427026	0.592612	0.440656
	H347	H	0.441800	0.578660	0.470450
	O348	O	0.267674	0.523758	0.276258
	H349	H	0.256987	0.524745	0.265879
	H350	H	0.249487	0.507829	0.277420
	O351	O	0.497206	-0.626349	1.585826
	H352	H	0.498631	-0.630527	1.593567
	H353	H	0.509893	-0.637755	1.569711
	O354	O	0.785409	0.195570	0.976553
	H355	H	0.799401	0.197772	0.951431
	H356	H	0.769819	0.207328	0.972023
	O357	O	0.661694	0.658746	0.281676
	H358	H	0.672723	0.675289	0.276918
	H359	H	0.641305	0.657043	0.291724
	O360	O	1.011632	0.778268	0.778835
	H361	H	1.030736	0.761873	0.765849
	H362	H	1.044892	0.772253	0.779728
	O363	O	0.935879	0.947403	-0.207459
	H364	H	0.942188	0.930091	-0.207840
	H365	H	0.944694	0.942686	-0.210293
	O366	O	0.702250	0.516221	0.702168
	H367	H	0.714140	0.519380	0.713615
	H368	H	0.690665	0.513248	0.707939
	O369	O	0.180381	-0.201815	0.922595
	H370	H	0.200027	-0.196819	0.901749
	H371	H	0.179771	-0.183150	0.938839
	O372	O	0.167020	0.976676	1.208643
	H373	H	0.177258	0.978734	1.219721
	H374	H	0.163989	0.995333	1.213792
	O375	O	1.017909	0.128565	0.024191
	H376	H	1.020043	0.126526	0.022057
	H377	H	1.016654	0.118071	0.022155
	O378	O	0.453687	0.705551	0.297771
	H379	H	0.456526	0.715157	0.275003
	H380	H	0.439345	0.706463	0.305433
	O381	O	0.274609	0.417524	0.417496
	H382	H	0.275870	0.388790	0.434927
	H383	H	0.277166	0.416148	0.421383
	O384	O	0.295411	0.685462	0.298446
	H385	H	0.284847	0.653105	0.300654
	H386	H	0.316127	0.689546	0.316918
	O387	O	0.186188	1.190356	1.187927
	H388	H	0.157490	1.195875	1.172262
	H389	H	0.194307	1.181783	1.209126
	O390	O	-0.192672	0.925878	1.180546
	H391	H	-0.221810	0.921889	1.195277
	H392	H	-0.198634	0.925338	1.164003
	O393	O	1.034716	0.007508	-0.004018
	H394	H	1.040528	0.015154	-0.003634
	H395	H	1.036832	-0.003955	-0.000768
	O396	O	0.525468	0.428721	0.681503
	H397	H	0.518549	0.428444	0.663707
	H398	H	0.520755	0.427481	0.685256
	O399	O	0.470121	0.345159	0.283447
	H400	H	0.476733	0.326629	0.272324
	H401	H	0.487343	0.352066	0.279292
	O402	O	1.205268	0.204965	1.017950
	H403	H	1.211206	0.225430	1.018207
	H404	H	1.202024	0.196909	1.042227
	O405	O	0.504324	0.570393	0.528626
	H406	H	0.499340	0.561613	0.515689
	H407	H	0.504679	0.571333	0.518706
	O408	O	0.998066	0.942912	0.921883
	H409	H	0.992639	0.951075	0.919071
	H410	H	0.997304	0.921562	0.938344
	O411	O	1.002645	1.161334	0.177880
	H412	H	0.990682	1.149648	0.170251
	H413	H	0.989864	1.163345	0.189776
	O414	O	-0.138315	0.114190	0.188469
	H415	H	-0.120991	0.111849	0.178495
	H416	H	-0.125783	0.099647	0.179118
	O417	O	0.778066	-0.113805	-0.070347
	H418	H	0.777738	-0.118354	-0.055230
	H419	H	0.777763	-0.112492	-0.078361
	O420	O	1.150221	0.062703	1.032837
	H421	H	1.149212	0.058143	1.030401
	H422	H	1.152261	0.060408	1.039319
	O423	O	0.887796	1.097695	0.049474
	H424	H	0.899346	1.094942	0.042019
	H425	H	0.883823	1.090403	0.040921
	O426	O	0.661984	0.572570	0.455538
	H427	H	0.668131	0.583505	0.443712
	H428	H	0.649768	0.570418	0.442584
	O429	O	0.444388	0.387053	0.446680
	H430	H	0.427191	0.373415	0.433439
	H431	H	0.454967	0.392381	0.431603
	O432	O	0.789044	0.192805	0.799113
	H433	H	0.796328	0.163823	0.790425
	H434	H	0.781501	0.202956	0.794469
	O435	O	0.467200	0.289032	0.698094
	H436	H	0.465081	0.291352	0.690796
	H437	H	0.467748	0.268859	0.702295
	O438	O	0.851497	0.794259	0.200210
	H439	H	0.855322	0.804068	0.208134
	H440	H	0.857632	0.785870	0.187352
	O441	O	0.419741	0.641436	0.704743
	H442	H	0.416623	0.616286	0.707219
	H443	H	0.426198	0.649401	0.702750
	O444	O	0.700385	0.650674	0.481789
	H445	H	0.693132	0.656735	0.501248
	H446	H	0.704439	0.660675	0.480518
	O447	O	0.699361	0.700814	0.626154
	H448	H	0.682950	0.702620	0.628282
	H449	H	0.707383	0.682689	0.630244
	O450	O	1.194012	-0.147296	-0.210565
	H451	H	1.196852	-0.122295	-0.183901
	H452	H	1.224310	-0.142902	-0.237422
	O453	O	0.354306	0.561961	0.605687
	H454	H	0.352063	0.547544	0.608897
	H455	H	0.360447	0.554707	0.605247
	O456	O	-0.184745	0.992022	0.951517
	H457	H	-0.187442	0.994344	0.949579
	H458	H	-0.165942	0.996517	0.942926
	O459	O	0.701722	0.458774	0.281675
	H460	H	0.721329	0.450352	0.264571
	H461	H	0.706203	0.447199	0.288354
	O462	O	0.282486	0.669683	0.497940
	H463	H	0.272930	0.685784	0.491029
	H464	H	0.289720	0.671722	0.498931
	O465	O	0.571482	0.497412	0.378971
	H466	H	0.587680	0.488824	0.373802
	H467	H	0.557539	0.508226	0.382622
	O468	O	0.034558	0.781336	0.050923
	H469	H	0.039080	0.778507	0.025896
	H470	H	0.040545	0.781116	0.029594
	O471	O	0.430072	0.702051	0.625289
	H472	H	0.427581	0.681022	0.610532
	H473	H	0.439727	0.716742	0.645300
	O474	O	1.095725	1.026148	-0.222015
	H475	H	1.098702	1.019209	-0.220711
	H476	H	1.088589	1.030892	-0.220281
	O477	O	0.447320	0.708076	0.473996
	H478	H	0.457167	0.702852	0.470622
	H479	H	0.450941	0.705736	0.476654
