data_Molecule from HDF5

_cell_length_a		16.713524
_cell_length_b		16.538681
_cell_length_c		16.677182
_cell_angle_alpha	90.138391
_cell_angle_beta	89.968347
_cell_angle_gamma	90.246120
_symmetry_space_group_name_H-M	'P 1'
_symmetry_Int_Tables_number		1

loop_
	_symmetry_equiv_pos_as_xyz
	x,y,z

loop_
	_atom_site_label
	_atom_site_type_symbol
	_atom_site_fract_x
	_atom_site_fract_y
	_atom_site_fract_z
	H0	H	0.381272	0.843682	0.726836
	H1	H	0.590868	0.156636	0.727345
	H2	H	0.589370	0.843683	0.288374
	H3	H	0.383050	0.157336	0.287200
	H4	H	0.705939	0.397469	0.850864
	H5	H	0.706974	0.605670	0.162864
	H6	H	0.263700	0.605611	0.853542
	H7	H	0.265374	0.393725	0.163221
	H8	H	0.829258	0.717628	0.406947
	H9	H	0.140715	0.722844	0.612487
	H10	H	0.832630	0.278838	0.611993
	H11	H	0.142423	0.281060	0.404028
	H12	H	0.832092	0.395055	0.729006
	H13	H	0.139521	0.608303	0.730253
	H14	H	0.830023	0.602878	0.288525
	H15	H	0.142342	0.397039	0.287010
	H16	H	0.382595	0.718452	0.851657
	H17	H	0.587548	0.718363	0.163893
	H18	H	0.588006	0.282272	0.849926
	H19	H	0.382664	0.279435	0.163577
	H20	H	0.705236	0.843683	0.402966
	H21	H	0.704814	0.157939	0.609633
	H22	H	0.265191	0.844117	0.611288
	H23	H	0.264710	0.155588	0.399897
	H24	H	0.883691	0.342764	0.225457
	H25	H	0.088115	0.658431	0.224084
	H26	H	0.093318	0.346099	0.783691
	H27	H	0.883066	0.657152	0.787877
	H28	H	0.207324	0.894762	0.351813
	H29	H	0.211702	0.108468	0.660349
	H30	H	0.765860	0.106019	0.353663
	H31	H	0.769245	0.899668	0.664788
	H32	H	0.332361	0.220269	0.901645
	H33	H	0.643555	0.218371	0.108094
	H34	H	0.331417	0.778803	0.111186
	H35	H	0.642886	0.781250	0.905434
	H36	H	0.333781	0.892300	0.231395
	H37	H	0.643372	0.102951	0.225120
	H38	H	0.332942	0.105053	0.784232
	H39	H	0.642544	0.896391	0.786951
	H40	H	0.885088	0.219330	0.352346
	H41	H	0.095528	0.224310	0.661476
	H42	H	0.087722	0.781372	0.351093
	H43	H	0.885657	0.783605	0.664618
	H44	H	0.207577	0.344927	0.900043
	H45	H	0.204893	0.657708	0.109869
	H46	H	0.767799	0.342316	0.109245
	H47	H	0.767433	0.657184	0.904018
	H48	H	0.401579	0.111680	0.598270
	H49	H	0.573230	0.888988	0.594941
	H50	H	0.579066	0.115112	0.414486
	H51	H	0.401496	0.888555	0.414791
	H52	H	0.578561	0.404697	0.120681
	H53	H	0.577650	0.586642	0.896164
	H54	H	0.398157	0.588163	0.117823
	H55	H	0.396719	0.410525	0.895950
	H56	H	0.098557	0.592116	0.413963
	H57	H	0.874051	0.590521	0.600678
	H58	H	0.097086	0.408756	0.591459
	H59	H	0.878653	0.416420	0.420039
	H60	H	0.095211	0.420737	0.594655
	H61	H	0.874438	0.592176	0.596223
	H62	H	0.099230	0.593647	0.415052
	H63	H	0.873353	0.410390	0.409080
	H64	H	0.396196	0.590584	0.119896
	H65	H	0.575871	0.591704	0.895466
	H66	H	0.583696	0.412096	0.120277
	H67	H	0.396158	0.411138	0.897163
	H68	H	0.576070	0.112663	0.417254
	H69	H	0.582538	0.887225	0.593624
	H70	H	0.402570	0.109390	0.591983
	H71	H	0.399044	0.890949	0.422290
	H72	H	0.897212	0.611301	0.093600
	H73	H	0.072965	0.387921	0.098142
	H74	H	0.080444	0.614846	0.916476
	H75	H	0.896094	0.386079	0.913203
	H76	H	0.085280	0.910155	0.622189
	H77	H	0.084614	0.094064	0.392061
	H78	H	0.897947	0.087380	0.618065
	H79	H	0.893165	0.913742	0.396802
	H80	H	0.595797	0.089834	0.923420
	H81	H	0.374746	0.089807	0.097649
	H82	H	0.595408	0.919443	0.099751
	H83	H	0.374129	0.907321	0.918063
	H84	H	0.602013	0.904936	0.103914
	H85	H	0.376165	0.087981	0.096374
	H86	H	0.597515	0.083266	0.912931
	H87	H	0.377533	0.912355	0.917035
	H88	H	0.899229	0.091647	0.620056
	H89	H	0.078102	0.077833	0.400018
	H90	H	0.076346	0.920765	0.615911
	H91	H	0.898012	0.909099	0.396290
	H92	H	0.068305	0.610663	0.917474
	H93	H	0.077009	0.388256	0.094174
	H94	H	0.890642	0.615309	0.099992
	H95	H	0.901349	0.390162	0.919688
	H96	H	0.396609	0.112007	0.594282
	H97	H	0.578015	0.884755	0.601942
	H98	H	0.579962	0.114310	0.419183
	H99	H	0.393792	0.886821	0.417076
	H100	H	0.575262	0.412755	0.117145
	H101	H	0.580794	0.590561	0.893779
	H102	H	0.394907	0.587058	0.119413
	H103	H	0.397359	0.411273	0.896979
	H104	H	0.097890	0.591974	0.416155
	H105	H	0.876537	0.588076	0.596986
	H106	H	0.099847	0.412693	0.602802
	H107	H	0.874256	0.403005	0.420658
	H108	H	0.899576	0.613445	0.102863
	H109	H	0.078252	0.385524	0.099503
	H110	H	0.076633	0.609853	0.928493
	H111	H	0.892242	0.388076	0.921834
	H112	H	0.071041	0.906698	0.618193
	H113	H	0.066572	0.093381	0.397961
	H114	H	0.894944	0.089662	0.620412
	H115	H	0.892676	0.907722	0.393392
	H116	H	0.601217	0.095316	0.913504
	H117	H	0.375137	0.087543	0.098806
	H118	H	0.596225	0.907387	0.088774
	H119	H	0.374532	0.909695	0.913170
	C120	C	0.366787	0.008077	0.627221
	C121	C	0.608336	0.991280	0.628014
	C122	C	0.608586	0.009529	0.386068
	C123	C	0.366150	0.992047	0.385586
	C124	C	0.608755	0.379178	0.015314
	C125	C	0.608606	0.621409	0.998392
	C126	C	0.365086	0.620425	0.016194
	C127	C	0.365048	0.378459	0.999441
	C128	C	-0.005321	0.622517	0.385542
	C129	C	0.977417	0.622788	0.629816
	C130	C	-0.004563	0.380278	0.629009
	C131	C	0.978810	0.379237	0.385785
	C132	C	0.864962	0.508940	0.129001
	C133	C	0.106985	0.491680	0.128083
	C134	C	0.107405	0.508937	0.887066
	C135	C	0.866110	0.492394	0.887180
	C136	C	0.108197	0.879551	0.515830
	C137	C	0.109345	0.121854	0.498801
	C138	C	0.866343	0.121533	0.516772
	C139	C	0.864656	0.879548	0.499381
	C140	C	0.495594	0.121071	0.885074
	C141	C	0.478740	0.120402	0.128053
	C142	C	0.495381	0.878389	0.129111
	C143	C	0.478781	0.878465	0.885373
	C144	C	0.363324	0.890582	0.687000
	C145	C	0.609260	0.109666	0.687199
	C146	C	0.608801	0.891180	0.327468
	C147	C	0.364335	0.110058	0.326427
	C148	C	0.666264	0.378698	0.897568
	C149	C	0.667006	0.623584	0.116070
	C150	C	0.304671	0.623021	0.899778
	C151	C	0.305309	0.375758	0.116432
	C152	C	0.876361	0.678961	0.386983
	C153	C	0.093942	0.682997	0.631213
	C154	C	0.878953	0.319269	0.630735
	C155	C	0.095876	0.320687	0.384931
	C156	C	0.878752	0.377030	0.688770
	C157	C	0.093561	0.626050	0.689660
	C158	C	0.876966	0.621986	0.328128
	C159	C	0.095576	0.378254	0.326732
	C160	C	0.363757	0.679343	0.898848
	C161	C	0.607762	0.679641	0.116606
	C162	C	0.607676	0.321497	0.897216
	C163	C	0.363769	0.319032	0.116677
	C164	C	0.666345	0.891253	0.384567
	C165	C	0.665774	0.110395	0.628797
	C166	C	0.305837	0.890745	0.629465
	C167	C	0.305708	0.109207	0.382666
	C168	C	0.864624	0.389808	0.186275
	C169	C	0.107273	0.610782	0.185409
	C170	C	0.110630	0.392346	0.825040
	C171	C	0.864718	0.610288	0.828002
	C172	C	0.166823	0.877149	0.398279
	C173	C	0.170840	0.125961	0.614318
	C174	C	0.806795	0.124005	0.399816
	C175	C	0.807940	0.880131	0.617739
	C176	C	0.378931	0.180458	0.883332
	C177	C	0.596862	0.178484	0.127086
	C178	C	0.378176	0.818776	0.130345
	C179	C	0.596106	0.820308	0.885203
	C180	C	0.379237	0.875374	0.189767
	C181	C	0.596750	0.121315	0.185486
	C182	C	0.379185	0.123210	0.824792
	C183	C	0.595865	0.877546	0.826679
	C184	C	0.866069	0.180192	0.399168
	C185	C	0.113014	0.183445	0.614821
	C186	C	0.107735	0.820508	0.398189
	C187	C	0.865890	0.822696	0.617681
	C188	C	0.167512	0.391921	0.882901
	C189	C	0.165525	0.610180	0.128818
	C190	C	0.807117	0.389728	0.128745
	C191	C	0.807406	0.610308	0.885667
	C192	C	0.392714	0.089849	0.601805
	C193	C	0.584622	0.908582	0.603844
	C194	C	0.584935	0.092567	0.410133
	C195	C	0.391094	0.910078	0.410695
	C196	C	0.585880	0.403031	0.097764
	C197	C	0.584838	0.596654	0.916425
	C198	C	0.389512	0.595779	0.097885
	C199	C	0.389602	0.403679	0.918074
	C200	C	0.077034	0.599366	0.408531
	C201	C	0.896073	0.597458	0.605054
	C202	C	0.076216	0.406379	0.603727
	C203	C	0.896863	0.403067	0.409715
	C204	C	0.888737	0.591696	0.105433
	C205	C	0.082787	0.408753	0.104106
	C206	C	0.082281	0.590643	0.913279
	C207	C	0.890089	0.409472	0.911219
	C208	C	0.084293	0.905134	0.597464
	C209	C	0.083634	0.095672	0.417659
	C210	C	0.890377	0.096774	0.598166
	C211	C	0.887897	0.903384	0.416976
	C212	C	0.577052	0.096412	0.909517
	C213	C	0.396683	0.095670	0.104525
	C214	C	0.576615	0.903463	0.104477
	C215	C	0.396742	0.902660	0.909445
	Zn216	Zn	0.487178	-0.000701	0.755934
	Zn217	Zn	0.487554	0.000774	0.257954
	Zn218	Zn	0.737712	0.500360	0.007529
	Zn219	Zn	0.236181	0.499113	0.007946
	Zn220	Zn	-0.014008	0.750710	0.507785
	Zn221	Zn	-0.011958	0.250505	0.508048
	Zn222	Zn	-0.013307	0.501246	0.758602
	Zn223	Zn	-0.013713	0.500326	0.256678
	Zn224	Zn	0.486747	0.749353	0.007046
	Zn225	Zn	0.486726	0.250007	0.007468
	Zn226	Zn	0.736441	0.000330	0.507512
	Zn227	Zn	0.237982	0.000302	0.506738
	N228	N	0.400582	0.964699	0.685816
	N229	N	0.574324	0.034494	0.687031
	N230	N	0.573720	0.966068	0.328142
	N231	N	0.400986	0.035922	0.327774
	N232	N	0.667308	0.413581	0.972284
	N233	N	0.667830	0.588061	0.041582
	N234	N	0.305232	0.587059	0.973835
	N235	N	0.305658	0.411946	0.042378
	N236	N	0.950864	0.679741	0.421638
	N237	N	0.020647	0.680975	0.594671
	N238	N	0.952513	0.321091	0.594272
	N239	N	0.022010	0.320938	0.421026
	N240	N	0.952202	0.414171	0.688054
	N241	N	0.019967	0.589186	0.689025
	N242	N	0.951769	0.587848	0.326727
	N243	N	0.021525	0.413594	0.326980
	N244	N	0.400728	0.677876	0.972302
	N245	N	0.572554	0.678825	0.042171
	N246	N	0.572590	0.321610	0.971502
	N247	N	0.399895	0.320136	0.042838
	N248	N	0.666696	0.966208	0.420251
	N249	N	0.665543	0.035657	0.592932
	N250	N	0.307706	0.964998	0.593091
	N251	N	0.306428	0.034733	0.418564
	N252	N	0.899619	0.465043	0.186831
	N253	N	0.071672	0.535867	0.185229
	N254	N	0.073900	0.466222	0.827309
	N255	N	0.900562	0.535785	0.828956
	N256	N	0.167512	0.913063	0.472575
	N257	N	0.168706	0.088084	0.541039
	N258	N	0.806411	0.088319	0.473931
	N259	N	0.806796	0.914492	0.542881
	N260	N	0.452408	0.179627	0.919904
	N261	N	0.522314	0.178278	0.092389
	N262	N	0.451339	0.820662	0.093014
	N263	N	0.522050	0.820647	0.920894
	N264	N	0.453051	0.911768	0.189085
	N265	N	0.522064	0.086351	0.186518
	N266	N	0.452974	0.086998	0.825553
	N267	N	0.521566	0.912655	0.826439
	N268	N	0.902443	0.178890	0.472804
	N269	N	0.075678	0.181168	0.541703
	N270	N	0.072041	0.821825	0.472326
	N271	N	0.900222	0.822069	0.542932
	N272	N	0.165891	0.465528	0.920716
	N273	N	0.165723	0.534907	0.094060
	N274	N	0.806846	0.464995	0.094198
	N275	N	0.808047	0.535872	0.921756
	O276	O	-0.058783	1.210974	0.081942
	H277	H	-0.038845	1.217790	0.083088
	H278	H	-0.058218	1.212871	0.062431
	O279	O	0.263813	0.724028	0.467839
	H280	H	0.251948	0.735502	0.450868
	H281	H	0.264674	0.737119	0.465506
	O282	O	0.762267	0.225151	0.970269
	H283	H	0.748264	0.243077	0.948028
	H284	H	0.758092	0.235323	0.944308
	O285	O	0.520976	0.472246	0.446201
	H286	H	0.519047	0.486075	0.445285
	H287	H	0.517408	0.463240	0.450408
	O288	O	0.148310	0.214867	0.228342
	H289	H	0.130865	0.190341	0.229164
	H290	H	0.168447	0.244600	0.259447
	O291	O	0.534591	0.394290	0.474559
	H292	H	0.538801	0.399268	0.470108
	H293	H	0.537105	0.389907	0.463164
	O294	O	1.435035	0.456681	0.286835
	H295	H	1.448563	0.438819	0.292068
	H296	H	1.440527	0.455663	0.280334
	O297	O	0.270584	0.283129	0.531857
	H298	H	0.251617	0.257565	0.548135
	H299	H	0.278219	0.294154	0.545908
	O300	O	0.123404	0.173289	1.083853
	H301	H	0.121120	0.176968	1.088779
	H302	H	0.127507	0.176169	1.070142
	O303	O	0.702198	0.711138	0.688965
	H304	H	0.659841	0.711377	0.701098
	H305	H	0.731802	0.745701	0.717249
	O306	O	0.255789	0.457112	0.450290
	H307	H	0.260080	0.452909	0.443610
	H308	H	0.250324	0.456682	0.443102
	O309	O	0.364549	0.671304	0.537757
	H310	H	0.353918	0.667384	0.549187
	H311	H	0.370773	0.668656	0.516843
	O312	O	0.918788	1.014188	-0.007848
	H313	H	0.924768	1.022605	-0.005938
	H314	H	0.922770	1.015192	-0.013419
	O315	O	0.781136	0.798177	0.800208
	H316	H	0.799390	0.814206	0.829245
	H317	H	0.792640	0.806269	0.813302
	O318	O	0.258845	0.527753	0.641622
	H319	H	0.243306	0.534626	0.646632
	H320	H	0.262606	0.518980	0.637805
	O321	O	-0.105705	0.939855	1.089314
	H322	H	-0.105650	0.952924	1.091941
	H323	H	-0.087987	0.938688	1.092465
	O324	O	1.020689	0.977728	-0.197496
	H325	H	1.000373	0.971410	-0.190540
	H326	H	1.036236	0.974607	-0.196245
	O327	O	0.284790	-0.298611	0.712008
	H328	H	0.266824	-0.286204	0.729236
	H329	H	0.274927	-0.323008	0.702168
	O330	O	0.444941	0.548296	0.432007
	H331	H	0.433186	0.548995	0.431354
	H332	H	0.451614	0.559190	0.426492
	O333	O	0.563322	0.446160	0.727621
	H334	H	0.570237	0.461550	0.702436
	H335	H	0.562447	0.447452	0.733750
	O336	O	0.693688	0.292905	0.295097
	H337	H	0.700944	0.287030	0.350098
	H338	H	0.729019	0.258182	0.268737
	O339	O	0.764871	-0.052029	0.932850
	H340	H	0.779347	-0.033566	0.954656
	H341	H	0.757004	-0.063880	0.966008
	O342	O	-0.035792	0.017291	-0.216465
	H343	H	-0.042112	0.010584	-0.214947
	H344	H	-0.046630	0.018021	-0.216764
	O345	O	0.197914	0.786845	0.967641
	H346	H	0.203035	0.803442	0.982129
	H347	H	0.201153	0.765773	0.978587
	O348	O	0.674038	0.380117	0.565140
	H349	H	0.662027	0.408475	0.557961
	H350	H	0.667106	0.391567	0.579060
	O351	O	0.295260	0.316982	0.328031
	H352	H	0.319165	0.327218	0.343803
	H353	H	0.294588	0.327003	0.341257
	O354	O	-0.233730	0.042362	0.789849
	H355	H	-0.259093	0.024466	0.782240
	H356	H	-0.228853	0.020751	0.807338
	O357	O	0.279284	0.707934	0.297981
	H358	H	0.265686	0.702838	0.294872
	H359	H	0.305591	0.698604	0.305975
	O360	O	0.432014	0.312794	0.530707
	H361	H	0.447550	0.309186	0.534859
	H362	H	0.449227	0.310189	0.516057
	O363	O	-0.049105	0.190670	-0.141477
	H364	H	-0.052972	0.199070	-0.159808
	H365	H	-0.071146	0.190415	-0.136163
	O366	O	0.486434	0.273495	0.676369
	H367	H	0.481569	0.268470	0.686005
	H368	H	0.490944	0.273019	0.669964
	O369	O	1.206894	-0.032172	-0.207885
	H370	H	1.204172	-0.017148	-0.221878
	H371	H	1.216506	-0.038361	-0.215405
	O372	O	0.996109	1.224234	-0.128159
	H373	H	0.980300	1.233786	-0.130993
	H374	H	0.989036	1.233985	-0.146920
	O375	O	0.779519	0.086133	0.059986
	H376	H	0.769889	0.100258	0.059346
	H377	H	0.791328	0.099675	0.056126
	O378	O	0.701725	0.285099	0.460757
	H379	H	0.718117	0.264186	0.475444
	H380	H	0.691070	0.305695	0.487197
	O381	O	0.413861	0.613111	0.709359
	H382	H	0.422793	0.595401	0.702323
	H383	H	0.393111	0.618108	0.717024
	O384	O	1.179508	0.188672	0.817979
	H385	H	1.153271	0.174235	0.824650
	H386	H	1.180521	0.201522	0.797984
	O387	O	0.769771	0.971924	0.222090
	H388	H	0.770173	0.950206	0.226625
	H389	H	0.762277	0.959591	0.239120
	O390	O	0.210715	0.024850	0.227963
	H391	H	0.235861	0.029162	0.247387
	H392	H	0.204148	0.033240	0.220568
	O393	O	0.505377	0.501322	0.579812
	H394	H	0.500004	0.488870	0.572670
	H395	H	0.501454	0.502106	0.563742
	O396	O	0.032696	1.174370	1.188377
	H397	H	0.035085	1.192437	1.200694
	H398	H	0.037292	1.163883	1.182480
	O399	O	-0.052756	-0.219778	1.230426
	H400	H	-0.042131	-0.219583	1.239181
	H401	H	-0.067332	-0.234073	1.242206
	O402	O	0.445994	0.711716	0.292933
	H403	H	0.458346	0.728747	0.287904
	H404	H	0.436446	0.713892	0.300087
	O405	O	0.795371	0.187114	1.204043
	H406	H	0.819842	0.168061	1.196166
	H407	H	0.810855	0.170849	1.176030
	O408	O	0.107529	-0.110922	-0.136342
	H409	H	0.124258	-0.099370	-0.134540
	H410	H	0.110262	-0.111471	-0.152369
	O411	O	0.673838	0.314143	0.694452
	H412	H	0.656244	0.331378	0.684461
	H413	H	0.659775	0.334982	0.683611
	O414	O	1.153481	0.168530	1.043188
	H415	H	1.148643	0.166761	1.047805
	H416	H	1.179411	0.186690	1.039459
	O417	O	0.259915	0.537302	0.285478
	H418	H	0.248446	0.548619	0.274147
	H419	H	0.271152	0.529273	0.270414
	O420	O	-0.064215	-0.041186	0.114583
	H421	H	-0.053964	-0.055368	0.100925
	H422	H	-0.064407	-0.048436	0.123755
	O423	O	0.046778	-0.042710	1.236355
	H424	H	0.042859	-0.036611	1.239924
	H425	H	0.064292	-0.035477	1.226798
	O426	O	0.439477	0.472810	0.685456
	H427	H	0.454806	0.454145	0.677328
	H428	H	0.427368	0.478578	0.678777
	O429	O	1.001377	0.781724	1.040270
	H430	H	0.993582	0.784772	1.048156
	H431	H	1.008945	0.785863	1.055084
	O432	O	0.561480	0.558779	0.291905
	H433	H	0.561638	0.565049	0.295633
	H434	H	0.572519	0.541992	0.281198
	O435	O	0.530973	0.717789	0.723960
	H436	H	0.523788	0.733479	0.729401
	H437	H	0.514984	0.706175	0.725681
	O438	O	0.096426	0.001131	-0.010020
	H439	H	0.121683	0.008651	-0.022659
	H440	H	0.099612	0.010775	0.009929
	O441	O	0.709630	0.469952	0.285234
	H442	H	0.719255	0.435572	0.277894
	H443	H	0.719674	0.451752	0.270617
	O444	O	0.525447	0.274373	0.277428
	H445	H	0.559610	0.267275	0.267618
	H446	H	0.544193	0.255145	0.259277
	O447	O	0.174849	0.812199	1.198474
	H448	H	0.196472	0.816137	1.195844
	H449	H	0.161591	0.827021	1.194058
	O450	O	-0.107050	0.802630	0.917350
	H451	H	-0.100236	0.799787	0.930334
	H452	H	-0.106370	0.795469	0.907466
	O453	O	0.294852	0.457784	0.643316
	H454	H	0.307998	0.472356	0.635716
	H455	H	0.280554	0.466978	0.659953
	O456	O	0.176027	-0.206624	0.798339
	H457	H	0.176350	-0.216781	0.820904
	H458	H	0.175254	-0.176566	0.807119
	O459	O	0.764985	0.859895	0.056103
	H460	H	0.759399	0.840821	0.064135
	H461	H	0.776929	0.861191	0.068175
	O462	O	0.705087	0.579030	0.474527
	H463	H	0.710657	0.592357	0.473951
	H464	H	0.710394	0.590503	0.466471
	O465	O	1.275262	0.290598	-0.282191
	H466	H	1.291165	0.278662	-0.269700
	H467	H	1.272917	0.326625	-0.292090
	O468	O	0.525878	0.684044	0.444028
	H469	H	0.519949	0.686995	0.442742
	H470	H	0.529184	0.689479	0.462222
	O471	O	0.508057	0.613516	0.542084
	H472	H	0.506655	0.618265	0.550308
	H473	H	0.501885	0.608581	0.534100
	O474	O	0.676467	0.688699	0.315377
	H475	H	0.662604	0.661371	0.313880
	H476	H	0.662232	0.695571	0.342523
	O477	O	0.518158	0.346044	1.532271
	H478	H	0.519428	0.348450	1.519481
	H479	H	0.505217	0.349291	1.520789
	O480	O	0.775512	0.793901	0.218714
	H481	H	0.797533	0.798864	0.208178
	H482	H	0.751144	0.768891	0.233380
	O483	O	0.713397	0.515209	0.695995
	H484	H	0.739630	0.518213	0.716360
	H485	H	0.708892	0.554056	0.684183
	O486	O	1.060838	0.046058	0.918188
	H487	H	1.066289	0.034576	0.923431
	H488	H	1.049231	0.058413	0.909077
	O489	O	1.120756	0.956353	0.051517
	H490	H	1.104827	0.970040	0.046354
	H491	H	1.126082	0.948810	0.040865
	O492	O	-0.223154	0.209750	-0.200519
	H493	H	-0.222754	0.163505	-0.207796
	H494	H	-0.253160	0.224994	-0.227420
	O495	O	0.097290	1.022174	0.966256
	H496	H	0.104331	1.034515	0.961599
	H497	H	0.086355	1.027216	0.974474
	O498	O	1.128234	0.867191	1.085459
	H499	H	1.130041	0.897029	1.093267
	H500	H	1.115896	0.862613	1.100340
	O501	O	0.670609	0.722699	0.513399
	H502	H	0.705090	0.749664	0.524478
	H503	H	0.656630	0.718083	0.556153
