data_Molecule from HDF5

_cell_length_a		16.653196
_cell_length_b		16.570331
_cell_length_c		16.559299
_cell_angle_alpha	90.086905
_cell_angle_beta	90.122865
_cell_angle_gamma	90.009266
_symmetry_space_group_name_H-M	'P 1'
_symmetry_Int_Tables_number		1

loop_
	_symmetry_equiv_pos_as_xyz
	x,y,z

loop_
	_atom_site_label
	_atom_site_type_symbol
	_atom_site_fract_x
	_atom_site_fract_y
	_atom_site_fract_z
	H0	H	0.381426	0.846325	0.707792
	H1	H	0.586823	0.160867	0.710530
	H2	H	0.584558	0.847886	0.268493
	H3	H	0.375656	0.160652	0.267879
	H4	H	0.704808	0.398588	0.835142
	H5	H	0.701879	0.607569	0.149174
	H6	H	0.258015	0.611857	0.836096
	H7	H	0.260865	0.397401	0.145503
	H8	H	0.827437	0.724640	0.384982
	H9	H	0.137378	0.726511	0.598771
	H10	H	0.826686	0.281222	0.595702
	H11	H	0.137293	0.279525	0.384676
	H12	H	0.826968	0.397391	0.712917
	H13	H	0.137287	0.609617	0.715095
	H14	H	0.826878	0.607271	0.270215
	H15	H	0.137392	0.395973	0.268429
	H16	H	0.378320	0.723517	0.833915
	H17	H	0.586150	0.724264	0.147567
	H18	H	0.586992	0.284255	0.833678
	H19	H	0.379727	0.283394	0.145747
	H20	H	0.700489	0.846548	0.386022
	H21	H	0.702949	0.160857	0.594080
	H22	H	0.263824	0.846846	0.592198
	H23	H	0.258913	0.159793	0.383041
	H24	H	0.880528	0.344942	0.209561
	H25	H	0.089858	0.657972	0.215124
	H26	H	0.090810	0.349425	0.766251
	H27	H	0.875563	0.658344	0.768723
	H28	H	0.201603	0.898925	0.334091
	H29	H	0.206457	0.110670	0.646385
	H30	H	0.761824	0.107519	0.334099
	H31	H	0.762274	0.899047	0.647732
	H32	H	0.328257	0.229234	0.880062
	H33	H	0.636937	0.227482	0.096611
	H34	H	0.328553	0.780042	0.095639
	H35	H	0.637910	0.782196	0.885231
	H36	H	0.326737	0.898507	0.210574
	H37	H	0.635520	0.113125	0.214265
	H38	H	0.327272	0.109886	0.766664
	H39	H	0.638508	0.900470	0.770331
	H40	H	0.877825	0.224331	0.334533
	H41	H	0.090683	0.227061	0.646930
	H42	H	0.083527	0.785088	0.333915
	H43	H	0.878354	0.783161	0.647272
	H44	H	0.209702	0.351174	0.879480
	H45	H	0.207411	0.657267	0.101231
	H46	H	0.762736	0.346010	0.094690
	H47	H	0.761448	0.659669	0.886246
	H48	H	0.402819	0.112681	0.578024
	H49	H	0.572435	0.891494	0.581844
	H50	H	0.567305	0.115198	0.399173
	H51	H	0.400037	0.894583	0.396600
	H52	H	0.570444	0.409190	0.104770
	H53	H	0.577511	0.587492	0.878894
	H54	H	0.394162	0.592894	0.102468
	H55	H	0.394209	0.412433	0.876193
	H56	H	0.093415	0.589511	0.401093
	H57	H	0.870756	0.597920	0.577878
	H58	H	0.094817	0.408074	0.577617
	H59	H	0.871212	0.413331	0.398844
	H60	H	0.090171	0.419469	0.574909
	H61	H	0.874750	0.587798	0.574035
	H62	H	0.096797	0.596246	0.400135
	H63	H	0.871715	0.412124	0.405599
	H64	H	0.393864	0.589967	0.101865
	H65	H	0.567287	0.592472	0.880466
	H66	H	0.578343	0.417204	0.104478
	H67	H	0.390214	0.421266	0.878634
	H68	H	0.572181	0.115085	0.406511
	H69	H	0.573223	0.891640	0.578678
	H70	H	0.388563	0.114862	0.569855
	H71	H	0.390210	0.894792	0.408342
	H72	H	0.895014	0.615729	0.086438
	H73	H	0.071320	0.391426	0.078823
	H74	H	0.069942	0.612567	0.909509
	H75	H	0.893300	0.391426	0.902821
	H76	H	0.075657	0.917142	0.603716
	H77	H	0.070761	0.091051	0.380369
	H78	H	0.890639	0.087030	0.601416
	H79	H	0.894736	0.909625	0.377288
	H80	H	0.591234	0.091166	0.904521
	H81	H	0.371750	0.092083	0.075748
	H82	H	0.595950	0.908109	0.078148
	H83	H	0.370189	0.916971	0.894835
	H84	H	0.590338	0.919305	0.073799
	H85	H	0.371996	0.091561	0.075845
	H86	H	0.593817	0.090779	0.897509
	H87	H	0.367877	0.908086	0.898611
	H88	H	0.898342	0.091765	0.600871
	H89	H	0.070161	0.089521	0.380663
	H90	H	0.070403	0.916547	0.602416
	H91	H	0.885091	0.910210	0.375399
	H92	H	0.069235	0.615516	0.902437
	H93	H	0.070155	0.391871	0.077648
	H94	H	0.892694	0.613558	0.077069
	H95	H	0.893640	0.391904	0.903781
	H96	H	0.390230	0.119364	0.585492
	H97	H	0.574845	0.891050	0.580336
	H98	H	0.575086	0.118334	0.399005
	H99	H	0.386140	0.888821	0.395283
	H100	H	0.568860	0.419174	0.099312
	H101	H	0.575815	0.598648	0.875861
	H102	H	0.396491	0.591429	0.101423
	H103	H	0.399639	0.419910	0.880970
	H104	H	0.093327	0.594735	0.406993
	H105	H	0.871061	0.589144	0.585417
	H106	H	0.095004	0.417369	0.586348
	H107	H	0.873974	0.417769	0.402867
	H108	H	0.885819	0.617811	0.083531
	H109	H	0.072454	0.392696	0.076998
	H110	H	0.063659	0.611713	0.905884
	H111	H	0.892590	0.391800	0.903589
	H112	H	0.073074	0.912203	0.605185
	H113	H	0.069197	0.090417	0.380276
	H114	H	0.891288	0.094994	0.604546
	H115	H	0.890140	0.917696	0.379576
	H116	H	0.594791	0.097133	0.901493
	H117	H	0.372261	0.092123	0.076495
	H118	H	0.595103	0.918230	0.086102
	H119	H	0.372595	0.915139	0.904113
	C120	C	0.362330	0.012050	0.609866
	C121	C	0.604670	0.995242	0.611857
	C122	C	0.602708	0.012252	0.369174
	C123	C	0.359822	0.995925	0.367901
	C124	C	0.604299	0.383142	-0.000644
	C125	C	0.604721	0.624703	0.982420
	C126	C	0.361403	0.624716	-0.000705
	C127	C	0.361768	0.383481	0.981200
	C128	C	-0.008342	0.624779	0.369659
	C129	C	0.974226	0.625013	0.613063
	C130	C	-0.009174	0.381621	0.612373
	C131	C	0.974565	0.381412	0.369847
	C132	C	0.861033	0.511355	0.112867
	C133	C	0.104156	0.494575	0.112011
	C134	C	0.102132	0.511684	0.871010
	C135	C	0.861036	0.494833	0.870438
	C136	C	0.103115	0.883524	0.499741
	C137	C	0.103875	0.124217	0.482877
	C138	C	0.861700	0.123601	0.498897
	C139	C	0.859833	0.881378	0.481745
	C140	C	0.491084	0.126007	0.867595
	C141	C	0.473903	0.125423	0.109779
	C142	C	0.490963	0.882932	0.111179
	C143	C	0.473753	0.882204	0.868307
	C144	C	0.361658	0.893703	0.668687
	C145	C	0.605466	0.113792	0.670637
	C146	C	0.603712	0.894574	0.308861
	C147	C	0.357244	0.113475	0.307705
	C148	C	0.664685	0.380161	0.881884
	C149	C	0.663002	0.626359	0.101264
	C150	C	0.299655	0.628730	0.882370
	C151	C	0.301590	0.379777	0.098588
	C152	C	0.874270	0.684406	0.367066
	C153	C	0.090866	0.686070	0.616632
	C154	C	0.873544	0.321130	0.614517
	C155	C	0.090975	0.320142	0.366905
	C156	C	0.873700	0.378801	0.672686
	C157	C	0.090677	0.628060	0.674555
	C158	C	0.874129	0.626223	0.309552
	C159	C	0.091063	0.377920	0.308991
	C160	C	0.359114	0.684570	0.881390
	C161	C	0.605378	0.684167	0.100816
	C162	C	0.605954	0.323661	0.881040
	C163	C	0.360369	0.323071	0.098895
	C164	C	0.661275	0.893881	0.367132
	C165	C	0.663455	0.113679	0.613115
	C166	C	0.303498	0.893804	0.611218
	C167	C	0.299007	0.112921	0.364840
	C168	C	0.861013	0.392444	0.170552
	C169	C	0.107509	0.611184	0.174222
	C170	C	0.107655	0.395649	0.807367
	C171	C	0.857895	0.611772	0.809380
	C172	C	0.161719	0.881091	0.381255
	C173	C	0.165660	0.128398	0.599747
	C174	C	0.801673	0.126285	0.381108
	C175	C	0.801607	0.880403	0.600239
	C176	C	0.374669	0.187730	0.863183
	C177	C	0.590278	0.186873	0.114205
	C178	C	0.374442	0.821440	0.113585
	C179	C	0.591206	0.822677	0.866676
	C180	C	0.373633	0.880218	0.170546
	C181	C	0.589395	0.129885	0.172857
	C182	C	0.374047	0.128722	0.806412
	C183	C	0.591493	0.881108	0.809314
	C184	C	0.859487	0.183889	0.381381
	C185	C	0.108083	0.186173	0.599850
	C186	C	0.103056	0.824532	0.381102
	C187	C	0.859544	0.822953	0.600191
	C188	C	0.166711	0.396683	0.863797
	C189	C	0.166095	0.610909	0.117451
	C190	C	0.802401	0.393060	0.113587
	C191	C	0.801201	0.612439	0.867907
	C192	C	0.386881	0.094290	0.584947
	C193	C	0.580445	0.912727	0.587363
	C194	C	0.578614	0.094759	0.394338
	C195	C	0.385084	0.913938	0.392898
	C196	C	0.579542	0.408168	0.081504
	C197	C	0.580456	0.600008	0.899861
	C198	C	0.387423	0.598796	0.080641
	C199	C	0.387421	0.410107	0.899765
	C200	C	0.073178	0.600249	0.395220
	C201	C	0.893278	0.598847	0.586719
	C202	C	0.072025	0.407421	0.586987
	C203	C	0.893439	0.407184	0.395286
	C204	C	0.884560	0.594078	0.089248
	C205	C	0.078474	0.413097	0.085429
	C206	C	0.075209	0.592228	0.898353
	C207	C	0.886149	0.412897	0.896145
	C208	C	0.079614	0.908233	0.582237
	C209	C	0.077499	0.097928	0.401427
	C210	C	0.886333	0.098351	0.580826
	C211	C	0.883321	0.905510	0.399015
	C212	C	0.572124	0.100175	0.893578
	C213	C	0.392986	0.099498	0.083354
	C214	C	0.572369	0.908147	0.086412
	C215	C	0.391573	0.906302	0.892364
	Zn216	Zn	0.482675	0.004101	0.739194
	Zn217	Zn	0.481427	0.004795	0.239988
	Zn218	Zn	0.732537	0.503917	-0.008633
	Zn219	Zn	0.232474	0.504015	-0.009262
	Zn220	Zn	-0.017521	0.754057	0.491553
	Zn221	Zn	-0.017364	0.252648	0.491153
	Zn222	Zn	-0.017883	0.503036	0.741550
	Zn223	Zn	-0.016814	0.502323	0.240999
	Zn224	Zn	0.483241	0.753068	-0.009649
	Zn225	Zn	0.482810	0.254821	-0.010987
	Zn226	Zn	0.732145	0.003239	0.489822
	Zn227	Zn	0.232629	0.004046	0.490220
	N228	N	0.397486	0.968315	0.668139
	N229	N	0.570012	0.038983	0.670376
	N230	N	0.568298	0.969291	0.309881
	N231	N	0.394462	0.039556	0.309416
	N232	N	0.663969	0.416101	0.956616
	N233	N	0.662731	0.590402	0.026558
	N234	N	0.300841	0.592504	0.956813
	N235	N	0.302173	0.416344	0.024262
	N236	N	0.948366	0.684135	0.403556
	N237	N	0.017185	0.684457	0.579142
	N238	N	0.947588	0.322407	0.578103
	N239	N	0.017378	0.322114	0.403974
	N240	N	0.947576	0.415587	0.671673
	N241	N	0.017283	0.590634	0.672312
	N242	N	0.948312	0.589952	0.310684
	N243	N	0.017622	0.415249	0.310666
	N244	N	0.396999	0.682461	0.955126
	N245	N	0.569959	0.683604	0.025723
	N246	N	0.569187	0.325181	0.955128
	N247	N	0.396861	0.325020	0.024486
	N248	N	0.660918	0.968361	0.403860
	N249	N	0.663277	0.038865	0.577504
	N250	N	0.303737	0.968589	0.575690
	N251	N	0.300537	0.038744	0.401611
	N252	N	0.896704	0.467252	0.170360
	N253	N	0.069519	0.537756	0.170877
	N254	N	0.068048	0.468076	0.811859
	N255	N	0.894542	0.537618	0.810922
	N256	N	0.162139	0.917129	0.455992
	N257	N	0.163131	0.090663	0.525924
	N258	N	0.802907	0.089352	0.455176
	N259	N	0.801537	0.916162	0.525435
	N260	N	0.448351	0.186274	0.900478
	N261	N	0.517344	0.184240	0.075476
	N262	N	0.448374	0.822992	0.077069
	N263	N	0.516903	0.822890	0.902328
	N264	N	0.446926	0.917834	0.169085
	N265	N	0.516081	0.092156	0.170198
	N266	N	0.447512	0.090972	0.808974
	N267	N	0.517337	0.917311	0.809915
	N268	N	0.896168	0.182356	0.455615
	N269	N	0.070223	0.183750	0.526086
	N270	N	0.067355	0.825652	0.455735
	N271	N	0.894876	0.823341	0.525411
	N272	N	0.163205	0.469583	0.903078
	N273	N	0.163964	0.537373	0.079191
	N274	N	0.802084	0.468086	0.078680
	N275	N	0.802817	0.538482	0.905167
	O276	O	-0.240986	0.808020	0.006262
	H277	H	-0.242743	0.809644	0.033916
	H278	H	-0.265417	0.802002	0.016250
	O279	O	0.707402	0.465413	-0.731479
	H280	H	0.694912	0.425952	-0.725045
	H281	H	0.742127	0.462581	-0.767386
	O282	O	1.076878	0.018474	0.845542
	H283	H	1.061706	-0.005358	0.848787
	H284	H	1.096235	0.022442	0.848108
	O285	O	0.485753	0.598883	0.294411
	H286	H	0.483757	0.600851	0.302501
	H287	H	0.472803	0.595347	0.306375
	O288	O	0.175386	0.934187	0.871661
	H289	H	0.185378	0.934005	0.887515
	H290	H	0.191462	0.955274	0.880438
	O291	O	0.520015	0.716931	0.706367
	H292	H	0.520246	0.720997	0.710896
	H293	H	0.513885	0.730688	0.716881
	O294	O	0.471822	-0.550024	1.301344
	H295	H	0.492044	-0.556118	1.300275
	H296	H	0.481577	-0.529178	1.308930
	O297	O	0.171269	0.781281	0.985973
	H298	H	0.187199	0.786397	0.978413
	H299	H	0.180622	0.766607	0.972140
	O300	O	0.283737	0.315026	0.687143
	H301	H	0.301529	0.307782	0.680447
	H302	H	0.301251	0.317891	0.669709
	O303	O	0.765891	-0.030243	0.202060
	H304	H	0.752776	-0.014049	0.202626
	H305	H	0.756550	-0.007396	0.192049
	O306	O	0.886743	0.959604	1.004702
	H307	H	0.886223	0.948635	0.998805
	H308	H	0.886402	0.955864	1.006543
	O309	O	0.097009	0.232203	0.216831
	H310	H	0.106128	0.257114	0.229867
	H311	H	0.103423	0.223371	0.224980
	O312	O	0.525398	0.330274	0.309347
	H313	H	0.515221	0.336230	0.302404
	H314	H	0.514934	0.325505	0.315664
	O315	O	1.378363	0.701771	1.276622
	H316	H	1.376107	0.721397	1.273313
	H317	H	1.393854	0.706676	1.282951
	O318	O	0.201912	0.044287	0.885867
	H319	H	0.210383	0.040612	0.910665
	H320	H	0.198286	0.054340	0.900183
	O321	O	0.121060	0.205444	0.179502
	H322	H	0.139851	0.216860	0.182855
	H323	H	0.115775	0.213213	0.158015
	O324	O	1.034022	0.976876	-0.072558
	H325	H	1.036066	0.977557	-0.075591
	H326	H	1.037760	0.961451	-0.048704
	O327	O	-0.237499	0.036689	0.768726
	H328	H	-0.246475	0.055109	0.757541
	H329	H	-0.254420	0.051032	0.763786
	O330	O	1.182377	0.883023	1.111760
	H331	H	1.171823	0.884511	1.100640
	H332	H	1.170848	0.907994	1.107524
	O333	O	-0.041779	0.001268	-0.231666
	H334	H	-0.064170	0.003603	-0.222306
	H335	H	-0.037638	0.000101	-0.241434
	O336	O	0.771470	-0.201269	0.199419
	H337	H	0.779745	-0.165053	0.198384
	H338	H	0.797130	-0.193082	0.202419
	O339	O	1.689785	-0.540829	0.543381
	H340	H	1.684193	-0.537536	0.544047
	H341	H	1.700283	-0.519077	0.522457
	O342	O	0.334968	0.521116	-0.721973
	H343	H	0.334871	0.545105	-0.733325
	H344	H	0.336622	0.540308	-0.730604
	O345	O	0.199480	1.219555	1.016789
	H346	H	0.207339	1.250259	1.008959
	H347	H	0.181560	1.224756	1.007067
	O348	O	0.365078	0.713765	0.463468
	H349	H	0.359518	0.725733	0.463963
	H350	H	0.368813	0.709098	0.446201
	O351	O	1.009867	0.773367	0.018808
	H352	H	1.003023	0.773982	0.001848
	H353	H	1.007332	0.760735	0.007283
	O354	O	-0.050299	0.224063	0.771105
	H355	H	-0.056997	0.240079	0.749680
	H356	H	-0.029211	0.212988	0.758882
	O357	O	-0.085385	1.074797	0.999762
	H358	H	-0.072224	1.062512	1.002227
	H359	H	-0.084256	1.087761	0.988360
	O360	O	1.114520	0.097502	0.939479
	H361	H	1.124394	0.092308	0.944421
	H362	H	1.133583	0.100996	0.934733
	O363	O	-0.653349	-0.284011	-0.356285
	H364	H	-0.653997	-0.294932	-0.358145
	H365	H	-0.646265	-0.292964	-0.353695
	O366	O	0.383660	0.390256	0.396120
	H367	H	0.375551	0.400653	0.399983
	H368	H	0.391534	0.401676	0.387275
	O369	O	1.238373	-0.255324	0.255001
	H370	H	1.218679	-0.234694	0.231736
	H371	H	1.254265	-0.237925	0.246081
	O372	O	1.702881	1.723830	0.523863
	H373	H	1.724068	1.736197	0.526733
	H374	H	1.707496	1.725308	0.536401
	O375	O	0.789965	0.193577	-0.158847
	H376	H	0.831047	0.190897	-0.160510
	H377	H	0.785321	0.198539	-0.134878
	O378	O	-0.082850	-0.169621	0.894669
	H379	H	-0.103413	-0.171404	0.882614
	H380	H	-0.101811	-0.172955	0.895932
	O381	O	-0.228916	1.041068	1.038775
	H382	H	-0.227065	1.038691	1.021669
	H383	H	-0.219803	1.050929	1.027140
	O384	O	0.918526	0.225156	1.024624
	H385	H	0.931598	0.225487	1.027595
	H386	H	0.922777	0.210525	1.034605
	O387	O	1.580526	0.517003	0.404322
	H388	H	1.570867	0.503081	0.406360
	H389	H	1.596546	0.506449	0.395357
	O390	O	0.456984	0.590942	0.632495
	H391	H	0.456810	0.600942	0.633274
	H392	H	0.469897	0.591483	0.620696
	O393	O	0.165267	0.818923	0.804948
	H394	H	0.151927	0.818881	0.797119
	H395	H	0.154851	0.845647	0.800018
	O396	O	0.031270	0.970701	1.188559
	H397	H	0.026963	0.984876	1.189547
	H398	H	0.029849	0.970816	1.188477
	O399	O	-0.490009	0.483404	0.568677
	H400	H	-0.489458	0.479933	0.556254
	H401	H	-0.490147	0.477800	0.564800
	O402	O	0.367750	0.292213	0.479788
	H403	H	0.347866	0.286713	0.483176
	H404	H	0.367006	0.303542	0.494784
	O405	O	1.040556	0.237392	0.939595
	H406	H	1.027065	0.233674	0.919675
	H407	H	1.034523	0.242856	0.924257
	O408	O	-0.005004	-0.203008	-0.212456
	H409	H	-0.014797	-0.193561	-0.214628
	H410	H	0.006106	-0.209689	-0.220490
	O411	O	0.837700	1.147923	1.164277
	H412	H	0.833097	1.140097	1.153733
	H413	H	0.838835	1.157832	1.164927
	O414	O	1.208873	-0.031371	0.087263
	H415	H	1.212361	-0.031874	0.110240
	H416	H	1.202891	-0.021233	0.099640
	O417	O	0.253277	0.547210	0.555913
	H418	H	0.255666	0.558198	0.568237
	H419	H	0.248880	0.559664	0.570934
	O420	O	0.661008	0.593738	0.441522
	H421	H	0.663543	0.603750	0.418013
	H422	H	0.664412	0.611317	0.424624
	O423	O	0.274052	-0.641593	1.489335
	H424	H	0.272623	-0.619384	1.470958
	H425	H	0.251958	-0.643965	1.492643
	O426	O	1.002022	0.010770	-0.017352
	H427	H	0.996546	0.008899	-0.012155
	H428	H	1.004641	0.016832	-0.036724
	O429	O	0.794929	0.815207	0.804129
	H430	H	0.793121	0.811271	0.797808
	H431	H	0.805600	0.828160	0.817863
	O432	O	0.407881	0.680510	0.562114
	H433	H	0.404644	0.695117	0.572050
	H434	H	0.411102	0.668061	0.564245
	O435	O	0.299083	0.485887	0.699103
	H436	H	0.306030	0.470206	0.695213
	H437	H	0.295542	0.487254	0.709900
	O438	O	-0.099918	-0.040613	-0.015607
	H439	H	-0.093555	-0.048303	-0.017985
	H440	H	-0.105234	-0.039160	-0.010968
	O441	O	0.698997	0.292987	0.447739
	H442	H	0.694265	0.289762	0.466906
	H443	H	0.710888	0.286713	0.460990
	O444	O	0.688358	0.292710	0.712296
	H445	H	0.683936	0.303795	0.707546
	H446	H	0.692177	0.308339	0.736990
	O447	O	-0.045498	0.786944	1.200081
	H448	H	-0.043694	0.766552	1.218325
	H449	H	-0.034280	0.785149	1.188396
	O450	O	-0.310639	1.296578	1.283453
	H451	H	-0.301102	1.285646	1.308520
	H452	H	-0.345148	1.294675	1.295707
	O453	O	0.272992	0.481492	0.393439
	H454	H	0.271034	0.499131	0.359756
	H455	H	0.256913	0.501479	0.402017
	O456	O	0.149109	0.039594	1.146125
	H457	H	0.161647	0.068553	1.154435
	H458	H	0.147096	0.046706	1.149733
	O459	O	0.959293	1.042121	0.218115
	H460	H	0.947385	1.029692	0.218152
	H461	H	0.957466	1.060015	0.219930
	O462	O	1.596336	0.297189	0.587171
	H463	H	1.578969	0.302000	0.587356
	H464	H	1.598449	0.300742	0.594167
	O465	O	0.756059	0.179026	-0.020277
	H466	H	0.749340	0.199838	-0.022031
	H467	H	0.768278	0.183204	-0.026053
	O468	O	0.448216	0.292471	0.692907
	H469	H	0.458471	0.306794	0.691499
	H470	H	0.454224	0.278278	0.713980
	O471	O	0.660417	0.676031	0.318738
	H472	H	0.671369	0.694953	0.301464
	H473	H	0.637093	0.673644	0.318335
	O474	O	0.308944	0.707343	0.539984
	H475	H	0.300615	0.705369	0.540092
	H476	H	0.310931	0.707004	0.549716
	O477	O	0.387708	0.324300	1.373201
	H478	H	0.392835	0.334860	1.374143
	H479	H	0.375855	0.326205	1.379125
	O480	O	0.517913	0.479963	0.715647
	H481	H	0.516005	0.490530	0.704989
	H482	H	0.528583	0.485391	0.716353
	O483	O	0.657848	0.563683	0.670337
	H484	H	0.668805	0.573638	0.675099
	H485	H	0.659881	0.565402	0.662807
	O486	O	0.508053	0.450970	0.489427
	H487	H	0.516239	0.453627	0.492663
	H488	H	0.496825	0.449523	0.490439
	O489	O	0.690600	1.706869	-0.301969
	H490	H	0.699998	1.703091	-0.289994
	H491	H	0.663134	1.703017	-0.314333
