data_Molecule from HDF5

_cell_length_a		16.367514
_cell_length_b		16.167888
_cell_length_c		16.382986
_cell_angle_alpha	90.426716
_cell_angle_beta	89.656526
_cell_angle_gamma	89.684168
_symmetry_space_group_name_H-M	'P 1'
_symmetry_Int_Tables_number		1

loop_
	_symmetry_equiv_pos_as_xyz
	x,y,z

loop_
	_atom_site_label
	_atom_site_type_symbol
	_atom_site_fract_x
	_atom_site_fract_y
	_atom_site_fract_z
	H0	H	0.377859	0.834848	0.708519
	H1	H	0.580156	0.160432	0.709084
	H2	H	0.584022	0.835014	0.271580
	H3	H	0.378177	0.160608	0.277936
	H4	H	0.698463	0.392433	0.829826
	H5	H	0.694088	0.600652	0.151883
	H6	H	0.259324	0.603363	0.829238
	H7	H	0.257776	0.399189	0.151213
	H8	H	0.816369	0.713419	0.393106
	H9	H	0.141601	0.712006	0.588061
	H10	H	0.816545	0.282553	0.589144
	H11	H	0.139133	0.277139	0.385594
	H12	H	0.817885	0.394205	0.709725
	H13	H	0.139559	0.600988	0.708344
	H14	H	0.816060	0.599898	0.274669
	H15	H	0.138104	0.391689	0.267361
	H16	H	0.379354	0.714856	0.828291
	H17	H	0.574001	0.713515	0.153610
	H18	H	0.580375	0.278456	0.829150
	H19	H	0.376600	0.285026	0.153432
	H20	H	0.694936	0.832905	0.390633
	H21	H	0.695070	0.160123	0.593715
	H22	H	0.263047	0.833277	0.593187
	H23	H	0.259698	0.157942	0.390137
	H24	H	0.873485	0.335088	0.206889
	H25	H	0.077086	0.660729	0.208265
	H26	H	0.083363	0.335243	0.770095
	H27	H	0.877699	0.661294	0.775542
	H28	H	0.202228	0.888273	0.330812
	H29	H	0.195293	0.100883	0.651420
	H30	H	0.759454	0.099582	0.330895
	H31	H	0.761061	0.895823	0.652269
	H32	H	0.316451	0.215290	0.892458
	H33	H	0.641080	0.215430	0.090124
	H34	H	0.315435	0.786722	0.091343
	H35	H	0.639938	0.780919	0.889919
	H36	H	0.318730	0.897140	0.212114
	H37	H	0.640455	0.103280	0.210624
	H38	H	0.319338	0.105919	0.770790
	H39	H	0.639614	0.893311	0.770641
	H40	H	0.877478	0.212498	0.328904
	H41	H	0.079453	0.217045	0.650477
	H42	H	0.080629	0.778019	0.328020
	H43	H	0.880750	0.783295	0.653043
	H44	H	0.198597	0.336647	0.884572
	H45	H	0.189376	0.662934	0.089873
	H46	H	0.761620	0.334691	0.089104
	H47	H	0.760675	0.660956	0.890189
	H48	H	0.381681	0.114289	0.581088
	H49	H	0.571285	0.880115	0.581722
	H50	H	0.568551	0.109778	0.410339
	H51	H	0.379827	0.878300	0.405320
	H52	H	0.558030	0.404970	0.102699
	H53	H	0.575080	0.590235	0.873756
	H54	H	0.376269	0.589779	0.105916
	H55	H	0.387335	0.413269	0.877183
	H56	H	0.089787	0.581744	0.404618
	H57	H	0.865732	0.585116	0.579802
	H58	H	0.094529	0.406192	0.581402
	H59	H	0.863330	0.400174	0.404772
	H60	H	0.092785	0.406364	0.577206
	H61	H	0.862807	0.587309	0.588036
	H62	H	0.093737	0.579984	0.387492
	H63	H	0.866613	0.414998	0.398465
	H64	H	0.386945	0.588891	0.102142
	H65	H	0.569434	0.581969	0.878306
	H66	H	0.578527	0.400886	0.110476
	H67	H	0.393770	0.406518	0.877447
	H68	H	0.579383	0.117913	0.399301
	H69	H	0.568968	0.881137	0.581660
	H70	H	0.388464	0.114029	0.587001
	H71	H	0.394032	0.877281	0.388684
	H72	H	0.885813	0.614681	0.084202
	H73	H	0.063334	0.381935	0.083274
	H74	H	0.062725	0.610781	0.901682
	H75	H	0.887344	0.380125	0.895292
	H76	H	0.068118	0.910126	0.602204
	H77	H	0.070070	0.082423	0.377200
	H78	H	0.885662	0.090918	0.606594
	H79	H	0.881051	0.910561	0.375014
	H80	H	0.593067	0.095976	0.908096
	H81	H	0.362066	0.097673	0.088448
	H82	H	0.593639	0.909228	0.086052
	H83	H	0.362045	0.910201	0.893050
	H84	H	0.594512	0.903548	0.081267
	H85	H	0.366986	0.089361	0.080973
	H86	H	0.588954	0.076282	0.902388
	H87	H	0.363212	0.903900	0.902207
	H88	H	0.885819	0.085344	0.604612
	H89	H	0.070067	0.085958	0.375969
	H90	H	0.067702	0.899918	0.605063
	H91	H	0.893827	0.906232	0.377969
	H92	H	0.074044	0.616155	0.901442
	H93	H	0.065478	0.385055	0.071112
	H94	H	0.886685	0.613523	0.081888
	H95	H	0.892166	0.382828	0.898677
	H96	H	0.390147	0.111053	0.578631
	H97	H	0.571090	0.881453	0.580304
	H98	H	0.563425	0.113960	0.394631
	H99	H	0.401055	0.886854	0.407753
	H100	H	0.573275	0.421735	0.102864
	H101	H	0.564384	0.591595	0.875915
	H102	H	0.383668	0.598652	0.107601
	H103	H	0.385607	0.404200	0.875115
	H104	H	0.095860	0.595240	0.395524
	H105	H	0.862943	0.593500	0.581954
	H106	H	0.091496	0.410351	0.579663
	H107	H	0.858918	0.402887	0.389555
	H108	H	0.883822	0.615124	0.081929
	H109	H	0.075584	0.380320	0.077834
	H110	H	0.066616	0.616267	0.891994
	H111	H	0.886661	0.381735	0.901762
	H112	H	0.076289	0.905168	0.607513
	H113	H	0.072460	0.083619	0.375337
	H114	H	0.890741	0.088727	0.604045
	H115	H	0.884871	0.897169	0.372233
	H116	H	0.597172	0.089877	0.888444
	H117	H	0.363723	0.085762	0.091166
	H118	H	0.592329	0.910040	0.078761
	H119	H	0.366727	0.914831	0.902335
	C120	C	0.357341	0.005593	0.612795
	C121	C	0.599997	0.988662	0.612078
	C122	C	0.601134	0.006105	0.370210
	C123	C	0.359740	0.988136	0.371180
	C124	C	0.600454	0.376546	-0.001216
	C125	C	0.598968	0.619258	0.982562
	C126	C	0.354128	0.622496	-0.001182
	C127	C	0.357310	0.378843	0.983233
	C128	C	-0.013702	0.617211	0.368321
	C129	C	0.970697	0.619084	0.612214
	C130	C	-0.013337	0.376862	0.610396
	C131	C	0.969130	0.374455	0.365973
	C132	C	0.855974	0.506519	0.111344
	C133	C	0.097596	0.489775	0.109313
	C134	C	0.100075	0.507082	0.867349
	C135	C	0.857364	0.489177	0.868799
	C136	C	0.102022	0.873027	0.498765
	C137	C	0.100384	0.117355	0.481844
	C138	C	0.856484	0.118891	0.499033
	C139	C	0.857236	0.875497	0.482210
	C140	C	0.487143	0.119568	0.869616
	C141	C	0.470893	0.121207	0.115302
	C142	C	0.486916	0.878185	0.112736
	C143	C	0.470365	0.877667	0.868915
	C144	C	0.358239	0.883302	0.670082
	C145	C	0.599076	0.111649	0.669811
	C146	C	0.602389	0.883596	0.311143
	C147	C	0.358715	0.111183	0.315337
	C148	C	0.659075	0.374198	0.877905
	C149	C	0.655355	0.619533	0.103885
	C150	C	0.298057	0.622302	0.877390
	C151	C	0.297666	0.379615	0.103471
	C152	C	0.864612	0.674863	0.371795
	C153	C	0.092628	0.674824	0.609225
	C154	C	0.865215	0.320198	0.609769
	C155	C	0.090708	0.316071	0.365679
	C156	C	0.865867	0.376100	0.669513
	C157	C	0.091687	0.619352	0.668984
	C158	C	0.864610	0.618371	0.313053
	C159	C	0.089961	0.372834	0.306756
	C160	C	0.357755	0.678192	0.877073
	C161	C	0.595387	0.675489	0.104838
	C162	C	0.600141	0.317486	0.877610
	C163	C	0.357089	0.322937	0.104689
	C164	C	0.657458	0.882410	0.370539
	C165	C	0.656803	0.111364	0.612894
	C166	C	0.300923	0.882624	0.612619
	C167	C	0.299610	0.109814	0.371022
	C168	C	0.855398	0.383747	0.167927
	C169	C	0.096304	0.612246	0.168414
	C170	C	0.101834	0.384411	0.809178
	C171	C	0.857359	0.612146	0.813157
	C172	C	0.161706	0.870542	0.378410
	C173	C	0.156771	0.119238	0.603060
	C174	C	0.798667	0.118529	0.378651
	C175	C	0.800117	0.876532	0.603945
	C176	C	0.365679	0.177380	0.871636
	C177	C	0.592592	0.177881	0.111858
	C178	C	0.364731	0.823246	0.111736
	C179	C	0.591654	0.819515	0.869892
	C180	C	0.366261	0.878569	0.171847
	C181	C	0.592144	0.121810	0.171480
	C182	C	0.366973	0.122861	0.810900
	C183	C	0.591394	0.875282	0.810305
	C184	C	0.857534	0.174784	0.377686
	C185	C	0.099097	0.177183	0.602467
	C186	C	0.101167	0.815720	0.376872
	C187	C	0.859774	0.820521	0.604492
	C188	C	0.159140	0.384960	0.866176
	C189	C	0.152540	0.613225	0.109580
	C190	C	0.799666	0.383410	0.109288
	C191	C	0.799116	0.611919	0.869938
	C192	C	0.380121	0.090983	0.589123
	C193	C	0.577104	0.903184	0.588140
	C194	C	0.577318	0.091595	0.394216
	C195	C	0.384528	0.903050	0.393959
	C196	C	0.576730	0.401711	0.083334
	C197	C	0.576285	0.594975	0.898002
	C198	C	0.375785	0.599276	0.083362
	C199	C	0.381681	0.401578	0.898613
	C200	C	0.071101	0.592759	0.389779
	C201	C	0.885886	0.595584	0.589852
	C202	C	0.071042	0.400751	0.586355
	C203	C	0.884873	0.398868	0.390540
	C204	C	0.878879	0.592122	0.089218
	C205	C	0.074752	0.404549	0.084551
	C206	C	0.075218	0.592395	0.891504
	C207	C	0.881476	0.403645	0.891758
	C208	C	0.077752	0.897897	0.582933
	C209	C	0.077328	0.091459	0.397913
	C210	C	0.880431	0.095242	0.583266
	C211	C	0.879994	0.898117	0.397259
	C212	C	0.571318	0.094641	0.892820
	C213	C	0.386148	0.097849	0.093330
	C214	C	0.571643	0.900983	0.088848
	C215	C	0.385763	0.902643	0.892381
	Zn216	Zn	0.479112	-0.001804	0.740129
	Zn217	Zn	0.480650	-0.001705	0.242865
	Zn218	Zn	0.729058	0.498146	-0.010067
	Zn219	Zn	0.226476	0.499324	-0.010853
	Zn220	Zn	-0.021249	0.746471	0.489857
	Zn221	Zn	-0.021578	0.247111	0.489289
	Zn222	Zn	-0.021393	0.497645	0.740707
	Zn223	Zn	-0.023161	0.496890	0.238379
	Zn224	Zn	0.477777	0.749608	-0.009092
	Zn225	Zn	0.478469	0.248329	-0.008170
	Zn226	Zn	0.728295	-0.003171	0.491507
	Zn227	Zn	0.229927	-0.004769	0.491152
	N228	N	0.392514	0.960767	0.670456
	N229	N	0.564606	0.034311	0.669509
	N230	N	0.568047	0.961505	0.310886
	N231	N	0.395378	0.034466	0.315356
	N232	N	0.659429	0.410096	0.954304
	N233	N	0.657728	0.585360	0.026702
	N234	N	0.295517	0.588666	0.954073
	N235	N	0.297689	0.413464	0.026629
	N236	N	0.941286	0.674298	0.405496
	N237	N	0.016340	0.674672	0.574502
	N238	N	0.941182	0.320778	0.573507
	N239	N	0.014706	0.316897	0.401842
	N240	N	0.942608	0.410474	0.670231
	N241	N	0.014809	0.585504	0.671004
	N242	N	0.941412	0.583492	0.310659
	N243	N	0.013423	0.408235	0.306837
	N244	N	0.391602	0.678781	0.953679
	N245	N	0.561137	0.675576	0.028402
	N246	N	0.564458	0.318744	0.953907
	N247	N	0.393501	0.322387	0.028888
	N248	N	0.657160	0.959543	0.406268
	N249	N	0.657374	0.033917	0.577729
	N250	N	0.300205	0.959807	0.577886
	N251	N	0.300083	0.032424	0.405173
	N252	N	0.889691	0.461135	0.169331
	N253	N	0.062873	0.534409	0.168509
	N254	N	0.065570	0.461353	0.809941
	N255	N	0.892830	0.534831	0.812193
	N256	N	0.162287	0.905474	0.455210
	N257	N	0.157743	0.082426	0.527072
	N258	N	0.797970	0.084340	0.455166
	N259	N	0.798581	0.909920	0.527006
	N260	N	0.441379	0.175555	0.907419
	N261	N	0.516077	0.177715	0.077545
	N262	N	0.440856	0.822916	0.075583
	N263	N	0.515340	0.820653	0.905405
	N264	N	0.443259	0.911818	0.172565
	N265	N	0.515406	0.087712	0.174073
	N266	N	0.443505	0.087499	0.809417
	N267	N	0.514815	0.910705	0.809701
	N268	N	0.893075	0.174858	0.453444
	N269	N	0.064756	0.176260	0.526172
	N270	N	0.064588	0.817227	0.452568
	N271	N	0.894644	0.819623	0.527828
	N272	N	0.158205	0.462354	0.901470
	N273	N	0.153348	0.536157	0.073457
	N274	N	0.799835	0.460611	0.074843
	N275	N	0.799184	0.534417	0.903871
	O276	O	-0.195081	-0.023826	0.040761
	H277	H	-0.180371	-0.020274	0.033180
	H278	H	-0.196957	-0.035033	0.033073
	O279	O	-0.109380	1.062472	0.018945
	H280	H	-0.120186	1.070778	0.025129
	H281	H	-0.110830	1.074405	0.012493
	O282	O	1.026874	-0.177119	-0.128661
	H283	H	1.008726	-0.169560	-0.123766
	H284	H	1.017064	-0.186444	-0.141127
	O285	O	0.082770	0.912386	0.019902
	H286	H	0.104629	0.902604	0.015791
	H287	H	0.088944	0.900932	0.005178
	O288	O	0.334951	0.491280	0.460723
	H289	H	0.330358	0.488578	0.452977
	H290	H	0.339853	0.491817	0.453035
	O291	O	1.165143	0.127385	1.061734
	H292	H	1.174919	0.126608	1.070038
	H293	H	1.170685	0.130115	1.054397
	O294	O	1.327754	0.438891	0.546788
	H295	H	1.336439	0.420446	0.545463
	H296	H	1.301985	0.432264	0.562561
	O297	O	-0.140835	0.051111	0.036533
	H298	H	-0.133961	0.050598	0.046729
	H299	H	-0.135702	0.053617	0.023730
	O300	O	0.946853	0.881098	0.923325
	H301	H	0.939351	0.887006	0.920732
	H302	H	0.946074	0.903610	0.931001
	O303	O	-0.128622	1.081749	1.062351
	H304	H	-0.119332	1.074358	1.060363
	H305	H	-0.120863	1.091047	1.082292
	O306	O	0.592653	0.425138	0.329180
	H307	H	0.589219	0.445643	0.315758
	H308	H	0.585498	0.425045	0.327222
	O309	O	0.916868	0.175652	-0.012282
	H310	H	0.923157	0.186502	-0.010560
	H311	H	0.916213	0.186744	-0.014913
	O312	O	0.106256	0.031843	0.927932
	H313	H	0.105077	0.032106	0.909316
	H314	H	0.099658	0.022316	0.925142
	O315	O	0.397632	0.520900	0.393088
	H316	H	0.400179	0.529226	0.396395
	H317	H	0.385441	0.516587	0.402858
	O318	O	0.531986	0.458443	0.398803
	H319	H	0.509995	0.462344	0.382995
	H320	H	0.541547	0.458681	0.401072
	O321	O	0.329685	0.559214	0.521412
	H322	H	0.334620	0.564699	0.512846
	H323	H	0.329363	0.554759	0.533283
	O324	O	0.425136	0.442537	0.534166
	H325	H	0.441527	0.434210	0.527733
	H326	H	0.427212	0.435708	0.530411
	O327	O	-0.079241	0.904502	1.108429
	H328	H	-0.068807	0.906215	1.112496
	H329	H	-0.077864	0.888566	1.120976
	O330	O	0.467591	0.504435	0.352119
	H331	H	0.459649	0.501882	0.366080
	H332	H	0.470235	0.516014	0.352271
	O333	O	0.084294	1.085048	0.894515
	H334	H	0.075366	1.095438	0.897810
	H335	H	0.101734	1.068401	0.885935
	O336	O	1.533812	0.595703	0.473243
	H337	H	1.528898	0.593015	0.484836
	H338	H	1.534913	0.596496	0.465168
	O339	O	0.531716	0.381883	0.363100
	H340	H	0.526591	0.389051	0.366369
	H341	H	0.518837	0.376103	0.355008
	O342	O	1.075784	-0.013135	0.173908
	H343	H	1.082132	-0.031248	0.168373
	H344	H	1.067469	-0.018210	0.181241
	O345	O	0.538825	0.390958	0.556393
	H346	H	0.562210	0.401906	0.564570
	H347	H	0.546222	0.390945	0.552010
	O348	O	1.133470	0.979992	0.956346
	H349	H	1.133476	0.972076	0.938666
	H350	H	1.129915	0.981244	0.956933
	O351	O	1.345470	1.485003	0.548578
	H352	H	1.366225	1.477265	0.557190
	H353	H	1.333292	1.482184	0.524829
	O354	O	0.980341	0.071162	1.070321
	H355	H	0.990073	0.052469	1.068775
	H356	H	0.962258	0.086428	1.084970
	O357	O	0.459939	0.434793	0.459283
	H358	H	0.463448	0.426101	0.462008
	H359	H	0.460266	0.434986	0.468803
	O360	O	-0.059816	-0.068835	-0.007175
	H361	H	-0.043343	-0.076409	-0.028883
	H362	H	-0.054206	-0.050659	0.003593
	O363	O	0.570688	0.605435	0.580847
	H364	H	0.568857	0.609621	0.593434
	H365	H	0.584495	0.605972	0.570557
	O366	O	0.490178	0.512285	0.449661
	H367	H	0.488943	0.516215	0.463504
	H368	H	0.489433	0.511168	0.444864
	O369	O	0.865056	0.225497	0.261644
	H370	H	0.868259	0.215314	0.243306
	H371	H	0.858319	0.222135	0.265503
	O372	O	0.164909	0.809130	0.902868
	H373	H	0.164491	0.797554	0.890627
	H374	H	0.171558	0.813510	0.889602
	O375	O	1.542645	0.604284	0.591926
	H376	H	1.544747	0.605251	0.581207
	H377	H	1.543709	0.609296	0.615335
	O378	O	0.487014	0.336311	0.584295
	H379	H	0.487650	0.333804	0.555985
	H380	H	0.496880	0.333752	0.578348
	O381	O	0.940424	0.060487	-0.116362
	H382	H	0.940295	0.070083	-0.108019
	H383	H	0.935567	0.075439	-0.118169
	O384	O	0.514063	1.579004	0.559003
	H385	H	0.513696	1.571637	0.560761
	H386	H	0.513115	1.579606	0.560944
	O387	O	0.817755	-0.103510	1.082707
	H388	H	0.814810	-0.097578	1.094784
	H389	H	0.812615	-0.122469	1.096876
	O390	O	-0.021687	0.906778	-0.016885
	H391	H	-0.021814	0.913844	-0.004785
	H392	H	-0.027900	0.910093	-0.015353
	O393	O	1.472152	1.373318	0.628081
	H394	H	1.477057	1.369555	0.633129
	H395	H	1.467075	1.378889	0.626295
	O396	O	0.426318	0.532211	0.559764
	H397	H	0.421925	0.521223	0.558907
	H398	H	0.424782	0.519079	0.562131
	O399	O	-0.350003	0.598583	1.643637
	H400	H	-0.342166	0.616863	1.658119
	H401	H	-0.346225	0.602988	1.646194
	O402	O	0.990647	1.118685	0.956284
	H403	H	1.000229	1.131259	0.964506
	H404	H	0.994472	1.111436	0.978440
	O405	O	-0.024303	1.039504	-0.212069
	H406	H	-0.021638	1.037223	-0.216822
	H407	H	-0.023010	1.040772	-0.215519
