data_Molecule from HDF5

_cell_length_a		16.264790
_cell_length_b		16.188206
_cell_length_c		16.306183
_cell_angle_alpha	90.055959
_cell_angle_beta	90.068056
_cell_angle_gamma	89.940647
_symmetry_space_group_name_H-M	'P 1'
_symmetry_Int_Tables_number		1

loop_
	_symmetry_equiv_pos_as_xyz
	x,y,z

loop_
	_atom_site_label
	_atom_site_type_symbol
	_atom_site_fract_x
	_atom_site_fract_y
	_atom_site_fract_z
	H0	H	0.404487	0.835251	0.707290
	H1	H	0.603495	0.163814	0.708340
	H2	H	0.603975	0.835233	0.277597
	H3	H	0.404125	0.164030	0.276675
	H4	H	0.721360	0.399301	0.831139
	H5	H	0.717179	0.598865	0.157776
	H6	H	0.285694	0.600409	0.830960
	H7	H	0.289505	0.399687	0.157110
	H8	H	0.839540	0.713281	0.398334
	H9	H	0.167257	0.717652	0.595181
	H10	H	0.839643	0.284356	0.594313
	H11	H	0.167540	0.286299	0.396173
	H12	H	0.840222	0.401120	0.709699
	H13	H	0.167387	0.602012	0.711219
	H14	H	0.840545	0.601253	0.280218
	H15	H	0.166412	0.399406	0.278291
	H16	H	0.406497	0.711826	0.828256
	H17	H	0.602209	0.715137	0.155788
	H18	H	0.603454	0.285191	0.828764
	H19	H	0.406225	0.284179	0.156207
	H20	H	0.718595	0.835865	0.393308
	H21	H	0.717389	0.164218	0.591732
	H22	H	0.289739	0.835101	0.590559
	H23	H	0.287702	0.163776	0.392180
	H24	H	0.905605	0.335926	0.209180
	H25	H	0.101689	0.664909	0.208933
	H26	H	0.105950	0.336759	0.777131
	H27	H	0.903123	0.664333	0.779559
	H28	H	0.218658	0.898602	0.330473
	H29	H	0.220819	0.101213	0.655863
	H30	H	0.788788	0.099406	0.328893
	H31	H	0.787611	0.901848	0.655876
	H32	H	0.341005	0.215715	0.892340
	H33	H	0.668507	0.212281	0.089727
	H34	H	0.339859	0.786475	0.088680
	H35	H	0.668589	0.785101	0.894297
	H36	H	0.341260	0.899399	0.207438
	H37	H	0.667625	0.099225	0.207642
	H38	H	0.340584	0.099687	0.777835
	H39	H	0.668510	0.900096	0.777737
	H40	H	0.903514	0.216476	0.330136
	H41	H	0.103137	0.215565	0.656617
	H42	H	0.100770	0.786847	0.329566
	H43	H	0.905467	0.787601	0.656953
	H44	H	0.217823	0.335435	0.895464
	H45	H	0.219575	0.664255	0.094911
	H46	H	0.791054	0.334610	0.092216
	H47	H	0.789635	0.664288	0.896385
	H48	H	0.415113	0.114409	0.582768
	H49	H	0.595073	0.879588	0.595673
	H50	H	0.605436	0.119538	0.403448
	H51	H	0.412152	0.885216	0.406399
	H52	H	0.595206	0.412479	0.107109
	H53	H	0.589579	0.594540	0.878700
	H54	H	0.421514	0.583735	0.103406
	H55	H	0.410647	0.412377	0.878531
	H56	H	0.123126	0.601092	0.402211
	H57	H	0.886079	0.592684	0.593486
	H58	H	0.123186	0.406763	0.596842
	H59	H	0.888976	0.417432	0.399819
	H60	H	0.120131	0.399664	0.579248
	H61	H	0.886828	0.599434	0.585693
	H62	H	0.117551	0.588493	0.407814
	H63	H	0.883255	0.403402	0.394699
	H64	H	0.415128	0.606630	0.112241
	H65	H	0.604303	0.596573	0.873193
	H66	H	0.592596	0.399834	0.109717
	H67	H	0.414478	0.407074	0.878405
	H68	H	0.593297	0.119262	0.388670
	H69	H	0.587342	0.887052	0.579591
	H70	H	0.408262	0.117135	0.583369
	H71	H	0.405290	0.880590	0.396891
	H72	H	0.916787	0.615983	0.088391
	H73	H	0.098020	0.382754	0.085090
	H74	H	0.091058	0.614247	0.906312
	H75	H	0.914397	0.380386	0.893047
	H76	H	0.088284	0.912860	0.605298
	H77	H	0.100906	0.101928	0.372420
	H78	H	0.918351	0.088634	0.605553
	H79	H	0.906655	0.900599	0.372829
	H80	H	0.618551	0.089856	0.905285
	H81	H	0.387310	0.092344	0.084424
	H82	H	0.622037	0.905227	0.087493
	H83	H	0.385653	0.891022	0.905355
	H84	H	0.621384	0.905312	0.084128
	H85	H	0.388114	0.090974	0.085314
	H86	H	0.620500	0.087374	0.894154
	H87	H	0.394330	0.918449	0.907974
	H88	H	0.909739	0.101358	0.612278
	H89	H	0.102106	0.083892	0.377977
	H90	H	0.097468	0.900115	0.613065
	H91	H	0.905058	0.912311	0.376858
	H92	H	0.100451	0.617408	0.904789
	H93	H	0.097053	0.382174	0.090293
	H94	H	0.906431	0.616486	0.082394
	H95	H	0.919198	0.387302	0.906767
	H96	H	0.412465	0.117206	0.588844
	H97	H	0.605673	0.881285	0.579923
	H98	H	0.587274	0.112802	0.405592
	H99	H	0.417347	0.883178	0.395037
	H100	H	0.604889	0.404967	0.111571
	H101	H	0.599754	0.582384	0.878848
	H102	H	0.397049	0.587915	0.112156
	H103	H	0.408453	0.406541	0.876821
	H104	H	0.122371	0.589529	0.393523
	H105	H	0.889807	0.589354	0.584799
	H106	H	0.114837	0.418610	0.583592
	H107	H	0.888227	0.405296	0.410426
	H108	H	0.906874	0.619814	0.093906
	H109	H	0.093318	0.385259	0.086878
	H110	H	0.093773	0.617923	0.897536
	H111	H	0.904562	0.381745	0.905191
	H112	H	0.105422	0.915261	0.610259
	H113	H	0.086047	0.093607	0.380499
	H114	H	0.902153	0.086551	0.609443
	H115	H	0.916282	0.907240	0.378592
	H116	H	0.623932	0.097620	0.898058
	H117	H	0.386648	0.092291	0.086630
	H118	H	0.620795	0.907659	0.086318
	H119	H	0.383697	0.909134	0.882432
	C120	C	0.382535	0.007958	0.613965
	C121	C	0.624787	0.991467	0.613775
	C122	C	0.624602	0.008296	0.370774
	C123	C	0.381884	0.991483	0.370016
	C124	C	0.626583	0.376977	0.001628
	C125	C	0.626141	0.620659	0.984982
	C126	C	0.382011	0.621327	0.001193
	C127	C	0.382620	0.378619	0.985237
	C128	C	0.012369	0.622148	0.373165
	C129	C	0.995644	0.622896	0.616726
	C130	C	0.011925	0.378718	0.616028
	C131	C	0.994875	0.378886	0.372607
	C132	C	0.881875	0.508819	0.116711
	C133	C	0.125286	0.491816	0.116461
	C134	C	0.124692	0.508448	0.873278
	C135	C	0.883223	0.491602	0.873335
	C136	C	0.125282	0.879195	0.501776
	C137	C	0.125638	0.122150	0.484894
	C138	C	0.881494	0.121645	0.501265
	C139	C	0.881236	0.878765	0.484315
	C140	C	0.512694	0.121054	0.870812
	C141	C	0.495728	0.120807	0.113951
	C142	C	0.512877	0.877613	0.113805
	C143	C	0.496054	0.877467	0.870036
	C144	C	0.384620	0.884450	0.669169
	C145	C	0.623027	0.114927	0.669741
	C146	C	0.623461	0.884484	0.315572
	C147	C	0.383759	0.114803	0.314635
	C148	C	0.682797	0.379314	0.879257
	C149	C	0.679911	0.618861	0.108417
	C150	C	0.325272	0.619568	0.878983
	C151	C	0.327621	0.379985	0.108138
	C152	C	0.888835	0.676333	0.376987
	C153	C	0.118610	0.678892	0.614732
	C154	C	0.888585	0.323116	0.613940
	C155	C	0.118058	0.323313	0.375166
	C156	C	0.888888	0.380710	0.671699
	C157	C	0.118662	0.621450	0.672708
	C158	C	0.889348	0.620623	0.318059
	C159	C	0.117797	0.379856	0.316835
	C160	C	0.385088	0.675222	0.877657
	C161	C	0.622737	0.676751	0.107658
	C162	C	0.624318	0.322408	0.878273
	C163	C	0.385645	0.322570	0.107694
	C164	C	0.680394	0.884909	0.373178
	C165	C	0.679835	0.115171	0.611853
	C166	C	0.327554	0.884262	0.611074
	C167	C	0.325795	0.114769	0.372143
	C168	C	0.884742	0.384890	0.171550
	C169	C	0.122457	0.615880	0.171027
	C170	C	0.124142	0.385258	0.816313
	C171	C	0.884191	0.615274	0.817958
	C172	C	0.180292	0.879786	0.378848
	C173	C	0.182043	0.120694	0.607304
	C174	C	0.826307	0.119787	0.377993
	C175	C	0.825755	0.881415	0.607221
	C176	C	0.389789	0.177350	0.872745
	C177	C	0.619315	0.175141	0.110675
	C178	C	0.389246	0.823512	0.109833
	C179	C	0.619404	0.822365	0.872967
	C180	C	0.389858	0.879671	0.168775
	C181	C	0.618815	0.119175	0.169543
	C182	C	0.389591	0.119827	0.815444
	C183	C	0.619375	0.879650	0.815113
	C184	C	0.883534	0.177638	0.378501
	C185	C	0.123368	0.177429	0.607709
	C186	C	0.121812	0.823603	0.378771
	C187	C	0.884360	0.824748	0.607929
	C188	C	0.180263	0.384553	0.874840
	C189	C	0.181029	0.615282	0.114347
	C190	C	0.828282	0.384223	0.113108
	C191	C	0.827551	0.615259	0.875952
	C192	C	0.405128	0.094020	0.591421
	C193	C	0.602606	0.905052	0.591539
	C194	C	0.601930	0.094800	0.392780
	C195	C	0.404812	0.905317	0.392717
	C196	C	0.604163	0.399170	0.087285
	C197	C	0.604354	0.597813	0.899279
	C198	C	0.404578	0.599179	0.087089
	C199	C	0.404620	0.401896	0.899812
	C200	C	0.098628	0.599628	0.394892
	C201	C	0.909767	0.600373	0.594726
	C202	C	0.097315	0.401518	0.593341
	C203	C	0.909005	0.401875	0.394917
	C204	C	0.903595	0.595111	0.094814
	C205	C	0.102656	0.405730	0.094074
	C206	C	0.101833	0.594413	0.896199
	C207	C	0.905937	0.405462	0.895227
	C208	C	0.103520	0.902565	0.587536
	C209	C	0.102980	0.099810	0.399077
	C210	C	0.903686	0.099006	0.586779
	C211	C	0.902995	0.900254	0.398332
	C212	C	0.598737	0.098276	0.892731
	C213	C	0.409566	0.098390	0.091986
	C214	C	0.599095	0.899528	0.092241
	C215	C	0.410028	0.899817	0.892086
	Zn216	Zn	0.504349	-0.000349	0.742289
	Zn217	Zn	0.504419	-0.000552	0.241954
	Zn218	Zn	0.754735	0.499314	-0.006063
	Zn219	Zn	0.252829	0.499577	-0.006226
	Zn220	Zn	0.003986	0.750848	0.494093
	Zn221	Zn	0.002982	0.250144	0.493763
	Zn222	Zn	0.004006	0.500203	0.744680
	Zn223	Zn	0.003482	0.500524	0.244743
	Zn224	Zn	0.504762	0.749212	-0.007893
	Zn225	Zn	0.504235	0.249037	-0.007331
	Zn226	Zn	0.752407	0.000481	0.492330
	Zn227	Zn	0.253923	-0.000529	0.492292
	N228	N	0.417992	0.962469	0.671220
	N229	N	0.589429	0.037019	0.670996
	N230	N	0.589306	0.962365	0.314158
	N231	N	0.417776	0.037046	0.313212
	N232	N	0.684216	0.412652	0.956884
	N233	N	0.682112	0.584645	0.031202
	N234	N	0.323188	0.586946	0.956866
	N235	N	0.325692	0.414097	0.030897
	N236	N	0.966487	0.677437	0.410382
	N237	N	0.041152	0.679970	0.580682
	N238	N	0.966095	0.321662	0.580021
	N239	N	0.040653	0.322580	0.409089
	N240	N	0.966296	0.414793	0.672936
	N241	N	0.041143	0.587393	0.674259
	N242	N	0.967324	0.587522	0.315660
	N243	N	0.040251	0.413870	0.315226
	N244	N	0.419459	0.676711	0.954872
	N245	N	0.590009	0.677983	0.029943
	N246	N	0.590261	0.320682	0.955387
	N247	N	0.419310	0.321714	0.030417
	N248	N	0.681248	0.962844	0.406810
	N249	N	0.680881	0.037368	0.577703
	N250	N	0.326220	0.962129	0.577376
	N251	N	0.324588	0.036914	0.405845
	N252	N	0.917243	0.463297	0.173987
	N253	N	0.088392	0.538176	0.172434
	N254	N	0.090452	0.463229	0.815178
	N255	N	0.917981	0.537299	0.815996
	N256	N	0.182669	0.913455	0.456284
	N257	N	0.183556	0.087079	0.529670
	N258	N	0.824683	0.085755	0.455258
	N259	N	0.823729	0.914219	0.529530
	N260	N	0.467402	0.178263	0.906236
	N261	N	0.541728	0.176235	0.076985
	N262	N	0.466819	0.822123	0.076303
	N263	N	0.541765	0.820794	0.906270
	N264	N	0.467761	0.912608	0.171307
	N265	N	0.540860	0.086063	0.171515
	N266	N	0.466927	0.085284	0.814228
	N267	N	0.541533	0.913098	0.813081
	N268	N	0.917102	0.178930	0.455973
	N269	N	0.089154	0.178523	0.530559
	N270	N	0.088162	0.823216	0.456293
	N271	N	0.918009	0.822667	0.530577
	N272	N	0.180729	0.462026	0.909527
	N273	N	0.182795	0.537135	0.081062
	N274	N	0.826210	0.462268	0.079789
	N275	N	0.826788	0.537463	0.909565
	O276	O	0.066127	-0.010320	-0.001024
	H277	H	0.067411	-0.009114	0.003849
	H278	H	0.071348	-0.002352	-0.005647
	O279	O	0.434849	0.536177	0.400757
	H280	H	0.438313	0.537080	0.398435
	H281	H	0.445128	0.535369	0.389689
	O282	O	0.481392	0.447892	0.427963
	H283	H	0.471418	0.448567	0.416468
	H284	H	0.484459	0.450259	0.430092
	O285	O	1.136247	-0.056466	0.942773
	H286	H	1.144674	-0.049945	0.943002
	H287	H	1.140497	-0.060794	0.953425
	O288	O	0.934188	0.079570	0.013054
	H289	H	0.930073	0.075010	0.017768
	H290	H	0.935110	0.073517	-0.002966
	O291	O	0.512898	0.438956	0.482629
	H292	H	0.515657	0.433954	0.480168
	H293	H	0.518880	0.447734	0.476085
	O294	O	1.041797	-0.041192	0.915795
	H295	H	1.062441	-0.046060	0.918713
	H296	H	1.048843	-0.042031	0.918880
	O297	O	0.035215	0.091557	0.017971
	H298	H	0.035881	0.104174	0.019362
	H299	H	0.032715	0.089098	0.014948
	O300	O	0.515024	0.454843	0.561948
	H301	H	0.504592	0.459245	0.556581
	H302	H	0.526350	0.452713	0.558723
	O303	O	1.051633	-0.078377	0.040296
	H304	H	1.061097	-0.079186	0.041677
	H305	H	1.033419	-0.080799	0.035059
	O306	O	0.960243	-0.026833	0.028559
	H307	H	0.961303	-0.023022	0.029867
	H308	H	0.958359	-0.028277	0.025069
	O309	O	-0.030290	0.038366	0.987366
	H310	H	-0.029399	0.049729	0.984610
	H311	H	-0.026737	0.017479	0.985042
	O312	O	1.085987	1.022953	1.022612
	H313	H	1.087734	1.023160	1.034484
	H314	H	1.074741	1.032209	1.027226
	O315	O	0.574273	0.423061	0.513928
	H316	H	0.572829	0.423707	0.512395
	H317	H	0.566042	0.413149	0.522141
	O318	O	0.479500	0.470270	0.448204
	H319	H	0.490584	0.461085	0.440024
	H320	H	0.463384	0.466915	0.438757
	O321	O	0.028017	0.953400	0.922505
	H322	H	0.039705	0.947169	0.922162
	H323	H	0.034729	0.945926	0.915851
	O324	O	0.478588	0.470684	0.548399
	H325	H	0.491040	0.469970	0.564756
	H326	H	0.475709	0.460658	0.548168
	O327	O	0.600608	0.522449	0.485580
	H328	H	0.596253	0.520862	0.494548
	H329	H	0.596328	0.526456	0.487043
	O330	O	0.038113	1.060005	0.953971
	H331	H	0.040259	1.061738	0.957897
	H332	H	0.024334	1.057585	0.960673
	O333	O	0.482809	0.476013	0.423006
	H334	H	0.472009	0.471480	0.428704
	H335	H	0.473473	0.481977	0.427162
	O336	O	0.503769	0.449704	0.416861
	H337	H	0.492472	0.454560	0.419514
	H338	H	0.503732	0.452484	0.428757
	O339	O	1.021721	1.045703	-0.021728
	H340	H	1.018849	1.038870	-0.021343
	H341	H	1.019329	1.050350	-0.033653
	O342	O	0.461119	0.455085	0.486047
	H343	H	0.469736	0.450687	0.478737
	H344	H	0.467847	0.459300	0.484668
	O345	O	0.466075	0.545282	0.558956
	H346	H	0.460641	0.539629	0.558154
	H347	H	0.474706	0.548760	0.565086
	O348	O	0.450213	0.490176	0.480047
	H349	H	0.460669	0.488396	0.481410
	H350	H	0.454148	0.485171	0.488041
	O351	O	-0.047945	1.032567	0.914371
	H352	H	-0.044543	1.038663	0.910304
	H353	H	-0.043260	1.025013	0.910086
	O354	O	0.479644	0.519252	0.554025
	H355	H	0.482037	0.512262	0.552963
	H356	H	0.476386	0.525743	0.555472
	O357	O	-0.470183	1.522795	1.445091
	H358	H	-0.469198	1.527628	1.451033
	H359	H	-0.472625	1.517239	1.436822
