data_Molecule from HDF5

_cell_length_a		16.351325
_cell_length_b		16.179887
_cell_length_c		16.305245
_cell_angle_alpha	90.353512
_cell_angle_beta	89.815138
_cell_angle_gamma	90.122258
_symmetry_space_group_name_H-M	'P 1'
_symmetry_Int_Tables_number		1

loop_
	_symmetry_equiv_pos_as_xyz
	x,y,z

loop_
	_atom_site_label
	_atom_site_type_symbol
	_atom_site_fract_x
	_atom_site_fract_y
	_atom_site_fract_z
	H0	H	0.397299	0.844659	0.711393
	H1	H	0.596504	0.173861	0.714987
	H2	H	0.597393	0.846037	0.281663
	H3	H	0.399160	0.174534	0.286207
	H4	H	0.713618	0.407047	0.836122
	H5	H	0.713682	0.614091	0.160859
	H6	H	0.281837	0.608780	0.835384
	H7	H	0.279331	0.409965	0.160895
	H8	H	0.833563	0.723811	0.402036
	H9	H	0.161085	0.725353	0.596601
	H10	H	0.834487	0.295167	0.597022
	H11	H	0.161139	0.295972	0.399712
	H12	H	0.834902	0.409952	0.714750
	H13	H	0.160461	0.611505	0.715497
	H14	H	0.834895	0.609448	0.283716
	H15	H	0.159322	0.409041	0.281200
	H16	H	0.399583	0.721816	0.834174
	H17	H	0.594389	0.726186	0.161628
	H18	H	0.594063	0.295165	0.835515
	H19	H	0.397179	0.296701	0.162706
	H20	H	0.713049	0.845702	0.397595
	H21	H	0.712454	0.173571	0.600349
	H22	H	0.281799	0.846367	0.597333
	H23	H	0.284401	0.174065	0.400775
	H24	H	0.896418	0.345110	0.212564
	H25	H	0.095099	0.673645	0.214054
	H26	H	0.095725	0.345391	0.782767
	H27	H	0.900276	0.674821	0.787267
	H28	H	0.213519	0.909878	0.336378
	H29	H	0.213705	0.112175	0.661692
	H30	H	0.781006	0.111567	0.336816
	H31	H	0.778930	0.909436	0.661248
	H32	H	0.332803	0.222143	0.904599
	H33	H	0.660408	0.226615	0.097980
	H34	H	0.333555	0.796489	0.096368
	H35	H	0.659970	0.795569	0.899256
	H36	H	0.334326	0.911587	0.214439
	H37	H	0.659673	0.112048	0.215828
	H38	H	0.334166	0.108925	0.783925
	H39	H	0.659356	0.909431	0.781647
	H40	H	0.902815	0.220420	0.334584
	H41	H	0.095409	0.225613	0.662260
	H42	H	0.096027	0.795204	0.335920
	H43	H	0.899074	0.797440	0.663445
	H44	H	0.210314	0.345131	0.898479
	H45	H	0.210510	0.674036	0.097642
	H46	H	0.779552	0.346403	0.098083
	H47	H	0.782646	0.673770	0.900468
	H48	H	0.395511	0.130915	0.595456
	H49	H	0.581619	0.895002	0.591312
	H50	H	0.587889	0.127113	0.403734
	H51	H	0.408343	0.895544	0.411882
	H52	H	0.590297	0.416043	0.116353
	H53	H	0.583632	0.604921	0.883452
	H54	H	0.404095	0.604827	0.114214
	H55	H	0.403297	0.425419	0.885143
	H56	H	0.110648	0.604284	0.414456
	H57	H	0.880609	0.601333	0.597851
	H58	H	0.111973	0.412008	0.581390
	H59	H	0.882694	0.421987	0.402917
	H60	H	0.109604	0.429753	0.591392
	H61	H	0.881017	0.607273	0.592014
	H62	H	0.110994	0.593308	0.402722
	H63	H	0.879191	0.411329	0.402777
	H64	H	0.400227	0.602873	0.114680
	H65	H	0.597331	0.605215	0.878894
	H66	H	0.592434	0.422838	0.114688
	H67	H	0.412020	0.409412	0.882306
	H68	H	0.587431	0.124938	0.412462
	H69	H	0.592623	0.894167	0.582344
	H70	H	0.414606	0.126775	0.600433
	H71	H	0.398377	0.890993	0.406715
	H72	H	0.897544	0.632006	0.102767
	H73	H	0.083454	0.396158	0.083222
	H74	H	0.085586	0.625028	0.908145
	H75	H	0.913750	0.395916	0.908356
	H76	H	0.100366	0.918161	0.618660
	H77	H	0.098536	0.090338	0.384431
	H78	H	0.901760	0.103007	0.615709
	H79	H	0.900800	0.917527	0.382821
	H80	H	0.610617	0.095580	0.905622
	H81	H	0.380600	0.105436	0.095655
	H82	H	0.614064	0.915422	0.095032
	H83	H	0.378717	0.910777	0.901279
	H84	H	0.611747	0.916102	0.085761
	H85	H	0.382104	0.103188	0.090967
	H86	H	0.615120	0.104739	0.900761
	H87	H	0.381511	0.915474	0.909886
	H88	H	0.905014	0.099926	0.614471
	H89	H	0.080742	0.102766	0.385968
	H90	H	0.087254	0.927761	0.611988
	H91	H	0.906336	0.920160	0.384174
	H92	H	0.094739	0.627150	0.910540
	H93	H	0.098768	0.389777	0.088626
	H94	H	0.917581	0.622893	0.094453
	H95	H	0.898559	0.393178	0.914107
	H96	H	0.407855	0.122650	0.580990
	H97	H	0.593424	0.889212	0.595689
	H98	H	0.595010	0.127552	0.408432
	H99	H	0.408838	0.891723	0.400655
	H100	H	0.584882	0.420500	0.113572
	H101	H	0.591564	0.592729	0.885023
	H102	H	0.404806	0.600419	0.113361
	H103	H	0.394776	0.410962	0.878031
	H104	H	0.116337	0.608418	0.399870
	H105	H	0.884040	0.599247	0.590986
	H106	H	0.117913	0.413949	0.600787
	H107	H	0.883700	0.416047	0.412279
	H108	H	0.899023	0.625074	0.080712
	H109	H	0.085607	0.389979	0.099446
	H110	H	0.091059	0.628739	0.901545
	H111	H	0.902177	0.388929	0.897560
	H112	H	0.084971	0.910654	0.616216
	H113	H	0.098644	0.111164	0.377883
	H114	H	0.905789	0.104949	0.615269
	H115	H	0.906054	0.913852	0.383051
	H116	H	0.611017	0.105104	0.911128
	H117	H	0.380775	0.100313	0.095453
	H118	H	0.611860	0.924036	0.091243
	H119	H	0.381107	0.920882	0.901287
	C120	C	0.376330	0.018249	0.620184
	C121	C	0.618366	1.001086	0.619962
	C122	C	0.619287	0.018234	0.377752
	C123	C	0.376810	1.001408	0.378139
	C124	C	0.618087	0.389278	0.007229
	C125	C	0.619319	0.631512	0.990178
	C126	C	0.374705	0.631093	0.006218
	C127	C	0.374723	0.387342	0.990028
	C128	C	0.005043	0.631050	0.377808
	C129	C	0.989638	0.632213	0.621648
	C130	C	0.005819	0.388686	0.620544
	C131	C	0.989055	0.387228	0.376534
	C132	C	0.875063	0.518137	0.120695
	C133	C	0.117723	0.500685	0.119516
	C134	C	0.118766	0.518208	0.876815
	C135	C	0.876351	0.501426	0.878313
	C136	C	0.119585	0.889056	0.507743
	C137	C	0.120554	0.131557	0.490329
	C138	C	0.876090	0.131045	0.507431
	C139	C	0.875625	0.888430	0.491197
	C140	C	0.504642	0.130794	0.877623
	C141	C	0.489030	0.132514	0.121859
	C142	C	0.505281	0.889050	0.119868
	C143	C	0.488236	0.887143	0.875547
	C144	C	0.377880	0.894235	0.673979
	C145	C	0.616795	0.124760	0.676624
	C146	C	0.617131	0.894766	0.320711
	C147	C	0.379758	0.125310	0.324148
	C148	C	0.674577	0.388774	0.884615
	C149	C	0.674848	0.632234	0.112492
	C150	C	0.319873	0.628713	0.883781
	C151	C	0.318351	0.390234	0.112574
	C152	C	0.882607	0.686266	0.381154
	C153	C	0.112293	0.687621	0.618208
	C154	C	0.883276	0.333034	0.617638
	C155	C	0.111913	0.333062	0.379129
	C156	C	0.883424	0.390181	0.676277
	C157	C	0.111910	0.631048	0.677103
	C158	C	0.882831	0.629153	0.322510
	C159	C	0.111095	0.389187	0.320007
	C160	C	0.378749	0.684827	0.883171
	C161	C	0.615849	0.688276	0.112810
	C162	C	0.615234	0.333036	0.884290
	C163	C	0.376901	0.333805	0.113447
	C164	C	0.674708	0.894658	0.378229
	C165	C	0.674377	0.124649	0.619512
	C166	C	0.320060	0.894972	0.617512
	C167	C	0.322184	0.124945	0.380897
	C168	C	0.876302	0.394261	0.175239
	C169	C	0.115623	0.624503	0.175836
	C170	C	0.116114	0.394445	0.820755
	C171	C	0.879020	0.625260	0.823916
	C172	C	0.175331	0.889981	0.384968
	C173	C	0.175540	0.131494	0.613215
	C174	C	0.819954	0.130125	0.385046
	C175	C	0.818340	0.889729	0.613127
	C176	C	0.381893	0.185372	0.882171
	C177	C	0.611631	0.188546	0.118602
	C178	C	0.382458	0.833898	0.117418
	C179	C	0.611098	0.832387	0.878100
	C180	C	0.382939	0.891004	0.176260
	C181	C	0.611489	0.131558	0.177029
	C182	C	0.382357	0.128802	0.822606
	C183	C	0.610646	0.889169	0.819770
	C184	C	0.880147	0.184672	0.383998
	C185	C	0.117012	0.188065	0.613327
	C186	C	0.116815	0.833009	0.384704
	C187	C	0.878239	0.834417	0.614229
	C188	C	0.173003	0.394298	0.878086
	C189	C	0.172660	0.624743	0.117879
	C190	C	0.818305	0.394890	0.118450
	C191	C	0.821134	0.624981	0.880772
	C192	C	0.399259	0.104583	0.598604
	C193	C	0.595928	0.915017	0.596709
	C194	C	0.596733	0.104346	0.401332
	C195	C	0.398778	0.914979	0.400026
	C196	C	0.595935	0.413164	0.092609
	C197	C	0.597309	0.607981	0.904763
	C198	C	0.396585	0.609035	0.092114
	C199	C	0.396852	0.408906	0.904111
	C200	C	0.090577	0.608498	0.399227
	C201	C	0.903976	0.609349	0.600047
	C202	C	0.091148	0.411850	0.597878
	C203	C	0.903795	0.409969	0.399222
	C204	C	0.898010	0.604243	0.098967
	C205	C	0.095789	0.414301	0.096887
	C206	C	0.096826	0.604561	0.899907
	C207	C	0.898406	0.414889	0.900389
	C208	C	0.097233	0.912081	0.593442
	C209	C	0.098956	0.108216	0.405079
	C210	C	0.897620	0.109107	0.593086
	C211	C	0.897888	0.910731	0.405460
	C212	C	0.590292	0.108328	0.899298
	C213	C	0.403463	0.109875	0.100279
	C214	C	0.590403	0.911665	0.097222
	C215	C	0.402675	0.909087	0.897660
	Zn216	Zn	0.496788	0.009037	0.747853
	Zn217	Zn	0.497848	0.010239	0.249852
	Zn218	Zn	0.747633	0.509916	-0.000990
	Zn219	Zn	0.246226	0.509320	-0.002060
	Zn220	Zn	-0.002388	0.760467	0.499273
	Zn221	Zn	-0.002242	0.259207	0.498502
	Zn222	Zn	-0.002626	0.510037	0.750243
	Zn223	Zn	-0.003583	0.509020	0.248481
	Zn224	Zn	0.496790	0.759352	-0.001953
	Zn225	Zn	0.497028	0.260341	-0.000159
	Zn226	Zn	0.747018	0.009979	0.499038
	Zn227	Zn	0.248816	0.010154	0.499415
	N228	N	0.412152	0.971957	0.675686
	N229	N	0.582651	0.046911	0.677110
	N230	N	0.583350	0.972612	0.320352
	N231	N	0.412993	0.047264	0.322123
	N232	N	0.676438	0.423194	0.962168
	N233	N	0.677084	0.597630	0.035326
	N234	N	0.317445	0.595906	0.961360
	N235	N	0.316685	0.422835	0.034766
	N236	N	0.959549	0.687281	0.414876
	N237	N	0.035193	0.688421	0.584400
	N238	N	0.960465	0.332088	0.583685
	N239	N	0.035026	0.331844	0.413623
	N240	N	0.960529	0.424258	0.678079
	N241	N	0.034538	0.597248	0.679446
	N242	N	0.959999	0.595619	0.320093
	N243	N	0.033583	0.422212	0.318244
	N244	N	0.412436	0.686215	0.960373
	N245	N	0.582002	0.688039	0.035658
	N246	N	0.580715	0.333223	0.961295
	N247	N	0.411156	0.331990	0.036419
	N248	N	0.676093	0.972512	0.412756
	N249	N	0.675175	0.046950	0.584697
	N250	N	0.319151	0.973094	0.584638
	N251	N	0.320550	0.046952	0.414069
	N252	N	0.910956	0.471914	0.176744
	N253	N	0.081973	0.546487	0.177017
	N254	N	0.083108	0.472602	0.819979
	N255	N	0.912458	0.547235	0.822240
	N256	N	0.177078	0.924235	0.462408
	N257	N	0.178030	0.097142	0.535840
	N258	N	0.817279	0.097532	0.462834
	N259	N	0.816510	0.922618	0.535356
	N260	N	0.459104	0.186641	0.915561
	N261	N	0.534344	0.189294	0.085249
	N262	N	0.459438	0.832541	0.083052
	N263	N	0.533881	0.830872	0.912016
	N264	N	0.460365	0.924480	0.177961
	N265	N	0.534357	0.097502	0.179353
	N266	N	0.459705	0.095530	0.819764
	N267	N	0.533334	0.922382	0.818051
	N268	N	0.914268	0.185490	0.460917
	N269	N	0.083507	0.188312	0.536087
	N270	N	0.082939	0.832474	0.462026
	N271	N	0.912955	0.833456	0.537345
	N272	N	0.174629	0.472178	0.912273
	N273	N	0.174258	0.546823	0.083759
	N274	N	0.817291	0.472942	0.085674
	N275	N	0.819410	0.546938	0.913806
	O276	O	0.602448	0.501154	0.494201
	H277	H	0.603896	0.503194	0.483716
	H278	H	0.600405	0.495672	0.494185
	O279	O	0.529096	0.517819	0.510196
	H280	H	0.520202	0.525539	0.515222
	H281	H	0.528635	0.522651	0.502963
	O282	O	0.612785	0.579298	0.566867
	H283	H	0.625008	0.565764	0.572472
	H284	H	0.622777	0.565768	0.562062
	O285	O	0.390294	0.528848	1.460282
	H286	H	0.381208	0.521228	1.460919
	H287	H	0.382711	0.530102	1.449030
	O288	O	-0.498366	-0.553586	1.555767
	H289	H	-0.498878	-0.549815	1.564941
	H290	H	-0.495158	-0.551566	1.564498
	O291	O	-0.523895	0.540390	0.516544
	H292	H	-0.523756	0.532226	0.507583
	H293	H	-0.517574	0.540280	0.516428
	O294	O	0.480532	0.498659	0.366884
	H295	H	0.482815	0.498582	0.351984
	H296	H	0.479850	0.502551	0.385993
	O297	O	0.497987	0.501265	0.477482
	H298	H	0.503418	0.501997	0.477957
	H299	H	0.514145	0.501049	0.487608
	O300	O	0.587439	0.553501	0.424395
	H301	H	0.594019	0.563243	0.426636
	H302	H	0.574031	0.544783	0.421894
	O303	O	0.497221	0.530326	0.505748
	H304	H	0.501439	0.531108	0.505081
	H305	H	0.488184	0.522869	0.506601
	O306	O	0.942799	-0.018929	1.066035
	H307	H	0.937787	-0.011186	1.068975
	H308	H	0.950819	-0.022249	1.061967
	O309	O	0.503160	0.477860	0.452982
	H310	H	0.512808	0.483229	0.453226
	H311	H	0.498492	0.480673	0.453066
	O312	O	0.468132	0.476089	0.542293
	H313	H	0.456594	0.481074	0.544943
	H314	H	0.472969	0.491005	0.541195
	O315	O	0.923787	-0.060456	1.000937
	H316	H	0.922373	-0.069196	0.997145
	H317	H	0.920086	-0.061514	1.012498
	O318	O	0.473589	-0.493898	-0.521117
	H319	H	0.478459	-0.497639	-0.520098
	H320	H	0.467481	-0.493592	-0.511398
	O321	O	0.966583	0.957228	0.030496
	H322	H	0.971751	0.955833	0.021671
	H323	H	0.964069	0.961423	0.033072
	O324	O	0.974768	-0.010645	0.045723
	H325	H	0.980689	-0.014787	0.045912
	H326	H	0.979102	-0.011214	0.050088
	O327	O	0.956148	0.989384	0.030156
	H328	H	0.952523	0.982841	0.030443
	H329	H	0.950829	0.993434	0.032048
	O330	O	0.568862	0.413966	0.447085
	H331	H	0.566144	0.401094	0.450060
	H332	H	0.572165	0.426532	0.438769
	O333	O	0.524859	0.455188	0.445231
	H334	H	0.527873	0.450021	0.438891
	H335	H	0.546088	0.446485	0.445728
