data_Molecule from HDF5

_cell_length_a		16.543726
_cell_length_b		16.543208
_cell_length_c		16.411144
_cell_angle_alpha	89.996596
_cell_angle_beta	89.916536
_cell_angle_gamma	89.973092
_symmetry_space_group_name_H-M	'P 1'
_symmetry_Int_Tables_number		1

loop_
	_symmetry_equiv_pos_as_xyz
	x,y,z

loop_
	_atom_site_label
	_atom_site_type_symbol
	_atom_site_fract_x
	_atom_site_fract_y
	_atom_site_fract_z
	H0	H	0.394548	0.851955	0.716525
	H1	H	0.607271	0.164876	0.716690
	H2	H	0.611090	0.852845	0.266637
	H3	H	0.392741	0.163899	0.268408
	H4	H	0.722887	0.401359	0.833343
	H5	H	0.723067	0.614241	0.148773
	H6	H	0.276511	0.614046	0.835824
	H7	H	0.275557	0.397949	0.147738
	H8	H	0.845330	0.732273	0.381994
	H9	H	0.154595	0.732356	0.601737
	H10	H	0.845838	0.279682	0.604042
	H11	H	0.156404	0.284006	0.385707
	H12	H	0.844999	0.396682	0.717406
	H13	H	0.155299	0.612867	0.714862
	H14	H	0.842471	0.610304	0.272408
	H15	H	0.157032	0.401346	0.270371
	H16	H	0.393439	0.730124	0.835337
	H17	H	0.606155	0.729112	0.149628
	H18	H	0.607149	0.285197	0.833507
	H19	H	0.393765	0.284550	0.148536
	H20	H	0.726486	0.853526	0.382925
	H21	H	0.726038	0.162944	0.603949
	H22	H	0.276306	0.852916	0.602801
	H23	H	0.276161	0.163483	0.385227
	H24	H	0.897763	0.349283	0.210017
	H25	H	0.104042	0.665308	0.212599
	H26	H	0.108167	0.351041	0.766955
	H27	H	0.892241	0.662880	0.766151
	H28	H	0.225453	0.899952	0.335979
	H29	H	0.222080	0.113643	0.651018
	H30	H	0.777423	0.113739	0.336050
	H31	H	0.776809	0.898509	0.650322
	H32	H	0.344609	0.231008	0.886444
	H33	H	0.656662	0.230611	0.099236
	H34	H	0.344139	0.783308	0.101504
	H35	H	0.655999	0.782042	0.882839
	H36	H	0.344185	0.898998	0.218347
	H37	H	0.657838	0.110157	0.212162
	H38	H	0.342280	0.111688	0.774370
	H39	H	0.657044	0.901260	0.769878
	H40	H	0.896941	0.226426	0.334418
	H41	H	0.107941	0.231235	0.649750
	H42	H	0.109079	0.785108	0.334653
	H43	H	0.891751	0.781644	0.648108
	H44	H	0.225212	0.351865	0.883174
	H45	H	0.222023	0.664257	0.097713
	H46	H	0.779359	0.351089	0.096034
	H47	H	0.775691	0.663248	0.881970
	H48	H	0.412856	0.121905	0.588255
	H49	H	0.585904	0.899129	0.576926
	H50	H	0.584149	0.115709	0.409044
	H51	H	0.413258	0.896877	0.406361
	H52	H	0.590518	0.421598	0.103127
	H53	H	0.587839	0.594787	0.878969
	H54	H	0.414543	0.598146	0.105415
	H55	H	0.415350	0.415632	0.878066
	H56	H	0.114873	0.599596	0.400019
	H57	H	0.889072	0.594854	0.576774
	H58	H	0.109112	0.421907	0.576682
	H59	H	0.887669	0.412397	0.405507
	H60	H	0.112161	0.418802	0.580745
	H61	H	0.890087	0.594096	0.576376
	H62	H	0.112014	0.598504	0.406203
	H63	H	0.889274	0.420902	0.404738
	H64	H	0.407847	0.595069	0.106043
	H65	H	0.588024	0.595251	0.879642
	H66	H	0.587173	0.418704	0.103759
	H67	H	0.408030	0.420597	0.877703
	H68	H	0.592975	0.119705	0.407636
	H69	H	0.593039	0.895875	0.580143
	H70	H	0.416195	0.117484	0.578161
	H71	H	0.415110	0.897695	0.406396
	H72	H	0.915615	0.620515	0.084569
	H73	H	0.097682	0.392408	0.081735
	H74	H	0.090301	0.618393	0.906858
	H75	H	0.909264	0.395277	0.904876
	H76	H	0.092869	0.919883	0.606806
	H77	H	0.089732	0.093626	0.380576
	H78	H	0.907611	0.093222	0.607480
	H79	H	0.918192	0.923170	0.383156
	H80	H	0.615152	0.103025	0.902292
	H81	H	0.384759	0.103293	0.080904
	H82	H	0.612276	0.915925	0.080508
	H83	H	0.389906	0.918705	0.908864
	H84	H	0.610308	0.918677	0.075687
	H85	H	0.391036	0.094380	0.072332
	H86	H	0.610487	0.096182	0.910869
	H87	H	0.389630	0.920281	0.904262
	H88	H	0.916037	0.089406	0.603127
	H89	H	0.087130	0.095035	0.380667
	H90	H	0.084737	0.924779	0.602051
	H91	H	0.913461	0.916504	0.379062
	H92	H	0.085460	0.617613	0.901497
	H93	H	0.085339	0.394129	0.086782
	H94	H	0.910849	0.618460	0.075372
	H95	H	0.912765	0.396173	0.902447
	H96	H	0.405858	0.122030	0.579042
	H97	H	0.585682	0.896141	0.584639
	H98	H	0.586552	0.120278	0.399962
	H99	H	0.413961	0.897632	0.407926
	H100	H	0.591080	0.417532	0.105207
	H101	H	0.587980	0.594770	0.879917
	H102	H	0.413270	0.591175	0.102952
	H103	H	0.415698	0.423666	0.881384
	H104	H	0.112238	0.593783	0.401629
	H105	H	0.889170	0.594328	0.576866
	H106	H	0.111510	0.416838	0.575707
	H107	H	0.885938	0.416669	0.398192
	H108	H	0.905845	0.622793	0.082869
	H109	H	0.087884	0.398024	0.074360
	H110	H	0.083521	0.615538	0.907823
	H111	H	0.912905	0.396889	0.906583
	H112	H	0.083782	0.914828	0.604663
	H113	H	0.089427	0.096283	0.379740
	H114	H	0.915775	0.099116	0.605994
	H115	H	0.909128	0.924930	0.380713
	H116	H	0.612821	0.091844	0.899641
	H117	H	0.388704	0.090170	0.085914
	H118	H	0.610253	0.921064	0.080656
	H119	H	0.388210	0.915485	0.905327
	C120	C	0.378884	0.017040	0.615081
	C121	C	0.621839	0.999999	0.614878
	C122	C	0.622012	0.016341	0.371359
	C123	C	0.379611	1.000066	0.372104
	C124	C	0.621922	0.386500	-0.000317
	C125	C	0.621215	0.628470	0.983494
	C126	C	0.378930	0.628015	0.001048
	C127	C	0.379734	0.386516	0.983066
	C128	C	0.009545	0.629692	0.369787
	C129	C	0.991626	0.628418	0.611701
	C130	C	0.008782	0.384585	0.613132
	C131	C	0.991627	0.385088	0.370696
	C132	C	0.878825	0.516286	0.112948
	C133	C	0.122545	0.498664	0.113918
	C134	C	0.120945	0.514765	0.870788
	C135	C	0.878214	0.498854	0.869804
	C136	C	0.121971	0.886299	0.500799
	C137	C	0.122110	0.128552	0.484302
	C138	C	0.879439	0.127942	0.501775
	C139	C	0.879165	0.886231	0.484207
	C140	C	0.509187	0.129027	0.871783
	C141	C	0.491910	0.128729	0.112760
	C142	C	0.508192	0.885191	0.114333
	C143	C	0.492152	0.885228	0.871555
	C144	C	0.376257	0.899154	0.676171
	C145	C	0.625207	0.117514	0.676404
	C146	C	0.627028	0.899552	0.308393
	C147	C	0.375289	0.117062	0.309688
	C148	C	0.682562	0.383504	0.880782
	C149	C	0.682664	0.632084	0.101711
	C150	C	0.317431	0.631967	0.882744
	C151	C	0.317145	0.381334	0.100676
	C152	C	0.892208	0.691285	0.365138
	C153	C	0.108040	0.690877	0.617879
	C154	C	0.892321	0.321378	0.619750
	C155	C	0.109665	0.324851	0.368092
	C156	C	0.891948	0.379970	0.676310
	C157	C	0.108381	0.631690	0.674623
	C158	C	0.890602	0.630530	0.310528
	C159	C	0.109938	0.383292	0.310613
	C160	C	0.375537	0.689413	0.882466
	C161	C	0.624390	0.689190	0.102023
	C162	C	0.625035	0.325665	0.880962
	C163	C	0.375965	0.324824	0.101216
	C164	C	0.685114	0.899878	0.366008
	C165	C	0.684675	0.116536	0.620187
	C166	C	0.317561	0.899722	0.619210
	C167	C	0.317274	0.116828	0.367876
	C168	C	0.878420	0.397165	0.171349
	C169	C	0.123476	0.617460	0.173409
	C170	C	0.125585	0.397892	0.808067
	C171	C	0.874523	0.615915	0.806975
	C172	C	0.184860	0.882237	0.383121
	C173	C	0.182862	0.132208	0.603032
	C174	C	0.818216	0.131318	0.383199
	C175	C	0.817264	0.881140	0.602504
	C176	C	0.391173	0.189910	0.868646
	C177	C	0.609782	0.189738	0.116716
	C178	C	0.391108	0.823731	0.118964
	C179	C	0.609393	0.823158	0.866413
	C180	C	0.391376	0.881225	0.177402
	C181	C	0.610353	0.130139	0.173006
	C182	C	0.390086	0.130514	0.812801
	C183	C	0.609837	0.882607	0.810059
	C184	C	0.877300	0.187563	0.382303
	C185	C	0.125478	0.190323	0.602591
	C186	C	0.126718	0.824941	0.382517
	C187	C	0.874658	0.823077	0.601685
	C188	C	0.183650	0.398011	0.865997
	C189	C	0.182413	0.616789	0.116328
	C190	C	0.819380	0.397967	0.114703
	C191	C	0.816712	0.616310	0.864932
	C192	C	0.404398	0.099136	0.589356
	C193	C	0.595569	0.918387	0.588190
	C194	C	0.595543	0.097594	0.398153
	C195	C	0.406573	0.918599	0.399130
	C196	C	0.596609	0.412030	0.082544
	C197	C	0.595365	0.602435	0.901027
	C198	C	0.404666	0.602048	0.083479
	C199	C	0.405796	0.412498	0.900579
	C200	C	0.091576	0.604570	0.395270
	C201	C	0.910515	0.602090	0.584447
	C202	C	0.089915	0.411462	0.585554
	C203	C	0.909224	0.409651	0.395728
	C204	C	0.903651	0.598946	0.087831
	C205	C	0.097428	0.416516	0.088410
	C206	C	0.094135	0.595987	0.897944
	C207	C	0.904317	0.417302	0.896903
	C208	C	0.094940	0.912297	0.582892
	C209	C	0.096290	0.102273	0.401994
	C210	C	0.905629	0.101651	0.584060
	C211	C	0.905914	0.913440	0.402269
	C212	C	0.591459	0.104132	0.897004
	C213	C	0.409793	0.103505	0.087074
	C214	C	0.589799	0.911266	0.086917
	C215	C	0.410558	0.910821	0.898255
	Zn216	Zn	0.500269	0.008541	0.743548
	Zn217	Zn	0.500450	0.007764	0.242026
	Zn218	Zn	0.750267	0.507986	-0.008537
	Zn219	Zn	0.250901	0.506706	-0.008740
	Zn220	Zn	0.000400	0.758169	0.491168
	Zn221	Zn	0.000053	0.256026	0.492512
	Zn222	Zn	0.000098	0.506790	0.741400
	Zn223	Zn	-0.000098	0.507094	0.241887
	Zn224	Zn	0.500065	0.756400	-0.007552
	Zn225	Zn	0.500956	0.257886	-0.008421
	Zn226	Zn	0.750735	0.007391	0.493626
	Zn227	Zn	0.250008	0.007778	0.493067
	N228	N	0.413495	0.973259	0.673870
	N229	N	0.587087	0.043869	0.673285
	N230	N	0.588278	0.972991	0.311689
	N231	N	0.413225	0.043262	0.312255
	N232	N	0.680525	0.420989	0.955610
	N233	N	0.680963	0.595151	0.026851
	N234	N	0.319674	0.594512	0.957335
	N235	N	0.319690	0.419316	0.026350
	N236	N	0.967302	0.691156	0.401135
	N237	N	0.034383	0.689031	0.579770
	N238	N	0.965919	0.324190	0.581025
	N239	N	0.035060	0.325825	0.404681
	N240	N	0.965343	0.418828	0.672272
	N241	N	0.035014	0.593264	0.670825
	N242	N	0.964593	0.593106	0.313083
	N243	N	0.035572	0.420167	0.312117
	N244	N	0.413012	0.687146	0.957105
	N245	N	0.587158	0.687168	0.027373
	N246	N	0.587965	0.327533	0.955919
	N247	N	0.414551	0.328223	0.027132
	N248	N	0.682039	0.973257	0.404975
	N249	N	0.682707	0.042315	0.582411
	N250	N	0.319118	0.973989	0.581820
	N251	N	0.319877	0.042894	0.405944
	N252	N	0.914577	0.471938	0.170579
	N253	N	0.087349	0.542708	0.172532
	N254	N	0.087265	0.471392	0.811037
	N255	N	0.911968	0.541792	0.809823
	N256	N	0.182169	0.919487	0.457839
	N257	N	0.180927	0.094631	0.528506
	N258	N	0.819149	0.095359	0.458672
	N259	N	0.820048	0.919783	0.528438
	N260	N	0.466176	0.189229	0.904308
	N261	N	0.535032	0.189058	0.080298
	N262	N	0.465029	0.825863	0.080699
	N263	N	0.535155	0.824773	0.904161
	N264	N	0.465433	0.918610	0.174604
	N265	N	0.536045	0.093124	0.170880
	N266	N	0.464433	0.093453	0.814619
	N267	N	0.536033	0.920447	0.813012
	N268	N	0.914546	0.185583	0.457079
	N269	N	0.088418	0.188172	0.527608
	N270	N	0.088168	0.827292	0.456758
	N271	N	0.912299	0.826168	0.527078
	N272	N	0.180801	0.471711	0.904318
	N273	N	0.182248	0.541704	0.080466
	N274	N	0.819399	0.473203	0.079445
	N275	N	0.818981	0.542547	0.903262
	O276	O	-0.069230	-0.053802	-0.215247
	H277	H	-0.092629	-0.053082	-0.218925
	H278	H	-0.069244	-0.063808	-0.188144
	O279	O	0.714322	0.723715	0.513588
	H280	H	0.731963	0.727830	0.515942
	H281	H	0.722459	0.721972	0.517627
	O282	O	0.959333	0.819379	-0.021637
	H283	H	0.961073	0.811287	-0.001941
	H284	H	0.961083	0.827365	-0.027064
	O285	O	0.646978	0.441498	0.513142
	H286	H	0.642185	0.444643	0.502286
	H287	H	0.641252	0.447324	0.500925
	O288	O	-0.529557	0.395751	0.699204
	H289	H	-0.524433	0.367522	0.720598
	H290	H	-0.517761	0.405723	0.683187
	O291	O	1.191762	1.197971	1.187863
	H292	H	1.204460	1.185895	1.201486
	H293	H	1.193617	1.197730	1.151370
	O294	O	0.062437	0.867300	0.129972
	H295	H	0.049417	0.856899	0.128604
	H296	H	0.056197	0.878772	0.144402
	O297	O	0.531192	0.290436	1.273852
	H298	H	0.546548	0.277137	1.252201
	H299	H	0.548130	0.293057	1.263231
	O300	O	0.278283	0.532559	0.269828
	H301	H	0.304293	0.538974	0.275816
	H302	H	0.244196	0.532938	0.228736
	O303	O	0.601143	0.602716	0.346568
	H304	H	0.613788	0.595068	0.348989
	H305	H	0.602482	0.607083	0.347556
	O306	O	0.023622	0.797614	0.779583
	H307	H	0.026179	0.814136	0.784812
	H308	H	0.029279	0.773519	0.758378
	O309	O	0.416083	0.289572	0.401056
	H310	H	0.413423	0.293629	0.379630
	H311	H	0.417947	0.285343	0.389603
	O312	O	0.724003	0.289258	0.469678
	H313	H	0.703313	0.266670	0.484931
	H314	H	0.726687	0.260259	0.475097
	O315	O	-0.120199	-0.202982	0.946755
	H316	H	-0.125456	-0.211715	0.934509
	H317	H	-0.124468	-0.216530	0.956025
	O318	O	-0.010923	0.842955	0.143225
	H319	H	-0.023297	0.834305	0.160911
	H320	H	-0.000820	0.857274	0.155806
	O321	O	-0.101115	1.231214	1.098168
	H322	H	-0.092264	1.230651	1.099437
	H323	H	-0.118456	1.246785	1.084031
	O324	O	0.814609	0.081760	1.080623
	H325	H	0.823904	0.089337	1.063532
	H326	H	0.830045	0.080707	1.076129
	O327	O	1.196683	-0.188697	0.796369
	H328	H	1.198050	-0.207115	0.808001
	H329	H	1.200976	-0.210790	0.798207
	O330	O	1.152659	0.210416	0.078096
	H331	H	1.154527	0.220373	0.072691
	H332	H	1.170524	0.201882	0.069638
	O333	O	0.618774	0.701958	0.297609
	H334	H	0.625198	0.697395	0.305756
	H335	H	0.626327	0.704353	0.301762
	O336	O	1.051281	0.206229	1.148147
	H337	H	1.046543	0.221162	1.141571
	H338	H	1.071211	0.201480	1.154065
	O339	O	0.376134	0.309400	0.692451
	H340	H	0.395478	0.321448	0.703637
	H341	H	0.370377	0.304747	0.676969
	O342	O	0.331015	0.546996	0.512034
	H343	H	0.329636	0.536521	0.493369
	H344	H	0.320139	0.554320	0.494576
	O345	O	0.057332	0.059340	-0.216938
	H346	H	0.055173	0.028072	-0.220670
	H347	H	0.076392	0.036888	-0.219946
	O348	O	0.473052	0.462613	0.358943
	H349	H	0.476633	0.467018	0.355118
	H350	H	0.477981	0.459458	0.352338
	O351	O	0.938111	1.070128	0.042858
	H352	H	0.958892	1.073945	0.058371
	H353	H	0.949082	1.070240	0.013113
	O354	O	0.288439	0.403469	0.388460
	H355	H	0.288842	0.410326	0.375551
	H356	H	0.295286	0.392907	0.390530
	O357	O	1.116055	1.215490	0.902846
	H358	H	1.114417	1.223019	0.901405
	H359	H	1.121459	1.202798	0.899170
	O360	O	0.296315	0.495120	0.698088
	H361	H	0.289512	0.483451	0.695336
	H362	H	0.273095	0.505210	0.683976
	O363	O	0.511635	0.545705	0.392944
	H364	H	0.500576	0.552694	0.410143
	H365	H	0.503252	0.551269	0.391718
	O366	O	1.014804	-0.019477	1.111547
	H367	H	1.033022	-0.008517	1.109160
	H368	H	1.019707	-0.002191	1.110391
	O369	O	0.392040	0.431515	0.465868
	H370	H	0.376836	0.433836	0.474605
	H371	H	0.401282	0.425420	0.461229
	O372	O	0.542324	0.284577	0.515107
	H373	H	0.530165	0.285680	0.534679
	H374	H	0.510357	0.291990	0.499047
	O375	O	-0.468378	1.739382	1.463191
	H376	H	-0.458602	1.737832	1.470455
	H377	H	-0.462888	1.732584	1.476120
	O378	O	0.721722	0.471965	0.322439
	H379	H	0.726856	0.453086	0.312721
	H380	H	0.717900	0.466381	0.312198
	O381	O	1.305286	-0.691027	-0.439285
	H382	H	1.322040	-0.697133	-0.429331
	H383	H	1.278514	-0.703633	-0.435592
	O384	O	-0.141085	-0.091199	1.184073
	H385	H	-0.153276	-0.106867	1.207639
	H386	H	-0.140758	-0.070282	1.185600
	O387	O	-0.211186	1.028566	0.782637
	H388	H	-0.226564	1.016128	0.792522
	H389	H	-0.224181	1.042811	0.773684
	O390	O	-0.205528	0.216471	0.974709
	H391	H	-0.200661	0.227061	0.958282
	H392	H	-0.218565	0.210615	0.973858
	O393	O	1.212061	0.797518	-0.025291
	H394	H	1.216183	0.778937	-0.013859
	H395	H	1.216704	0.798251	-0.023739
	O396	O	0.738115	0.729861	-0.256990
	H397	H	0.750420	0.737021	-0.276296
	H398	H	0.759380	0.698937	-0.264998
	O399	O	0.856674	0.802168	1.097575
	H400	H	0.859151	0.800881	1.098924
	H401	H	0.863324	0.804954	1.098809
	O402	O	0.214979	-0.018706	0.781555
	H403	H	0.244838	-0.028368	0.756878
	H404	H	0.209935	-0.062681	0.783224
	O405	O	-0.111055	0.038278	0.076260
	H406	H	-0.114852	0.023219	0.080852
	H407	H	-0.115570	0.070652	0.071293
	O408	O	0.906627	1.053089	1.190665
	H409	H	0.896500	1.071971	1.185224
	H410	H	0.897766	1.074059	1.190600
	O411	O	1.285736	0.726663	0.471516
	H412	H	1.263480	0.764584	0.471052
	H413	H	1.312453	0.732555	0.466760
	O414	O	0.721320	0.508544	0.501089
	H415	H	0.718331	0.476790	0.501938
	H416	H	0.719471	0.518420	0.486527
	O417	O	0.093177	0.052934	0.898649
	H418	H	0.082651	0.031703	0.916793
	H419	H	0.095010	0.057068	0.902612
	O420	O	0.302356	0.669534	0.650259
	H421	H	0.317615	0.647114	0.632658
	H422	H	0.309153	0.665517	0.626890
	O423	O	-0.019310	0.210232	0.792029
	H424	H	-0.007346	0.221255	0.777046
	H425	H	-0.000743	0.178480	0.777312
	O426	O	0.788169	0.995364	0.994873
	H427	H	0.774262	0.987652	1.006254
	H428	H	0.797194	0.978724	0.991510
	O429	O	0.209871	0.030046	0.202824
	H430	H	0.225349	0.037435	0.204619
	H431	H	0.215138	0.025288	0.200848
	O432	O	0.579007	0.434649	0.702284
	H433	H	0.598063	0.432930	0.706725
	H434	H	0.565497	0.454845	0.691681
	O435	O	0.515942	-0.280456	-0.296876
	H436	H	0.531977	-0.290838	-0.288558
	H437	H	0.526866	-0.266655	-0.279714
	O438	O	0.541191	-0.407058	-0.312907
	H439	H	0.513630	-0.423835	-0.306943
	H440	H	0.533712	-0.380915	-0.307037
	O441	O	0.716843	0.531718	0.702716
	H442	H	0.732997	0.521797	0.716033
	H443	H	0.731505	0.511280	0.688107
	O444	O	0.509506	1.437205	0.392608
	H445	H	0.517156	1.421701	0.390854
	H446	H	0.515844	1.450708	0.405383
	O447	O	0.697401	0.339428	0.295335
	H448	H	0.685435	0.340597	0.319046
	H449	H	0.716663	0.344801	0.299348
	O450	O	0.402944	0.682055	0.539473
	H451	H	0.408966	0.685191	0.542309
	H452	H	0.413571	0.676994	0.529960
	O453	O	0.818787	0.189782	0.810739
	H454	H	0.868743	0.197243	0.804225
	H455	H	0.809464	0.165948	0.825509
	O456	O	1.164357	0.027271	-0.012048
	H457	H	1.144507	0.025235	-0.000710
	H458	H	1.155837	0.027798	-0.035346
	O459	O	0.472389	0.672444	0.330144
	H460	H	0.478295	0.673774	0.336348
	H461	H	0.475763	0.693715	0.335314
	O462	O	0.312450	0.691480	0.305953
	H463	H	0.329733	0.673697	0.299442
	H464	H	0.326541	0.698879	0.328053
	O465	O	1.213713	-0.082973	0.091613
	H466	H	1.212135	-0.088047	0.083959
	H467	H	1.212182	-0.081315	0.082136
