data_Molecule from HDF5

_cell_length_a		16.256929
_cell_length_b		16.293571
_cell_length_c		16.199404
_cell_angle_alpha	90.281536
_cell_angle_beta	90.511464
_cell_angle_gamma	90.409396
_symmetry_space_group_name_H-M	'P 1'
_symmetry_Int_Tables_number		1

loop_
	_symmetry_equiv_pos_as_xyz
	x,y,z

loop_
	_atom_site_label
	_atom_site_type_symbol
	_atom_site_fract_x
	_atom_site_fract_y
	_atom_site_fract_z
	H0	H	0.401300	0.839304	0.706138
	H1	H	0.602385	0.165948	0.711140
	H2	H	0.594847	0.839233	0.279699
	H3	H	0.402738	0.167136	0.280120
	H4	H	0.711308	0.404896	0.830990
	H5	H	0.718752	0.606121	0.158670
	H6	H	0.284003	0.600397	0.832463
	H7	H	0.288833	0.405692	0.161849
	H8	H	0.836736	0.715189	0.396513
	H9	H	0.163496	0.723133	0.599954
	H10	H	0.838260	0.285154	0.595820
	H11	H	0.164471	0.288320	0.394907
	H12	H	0.836658	0.403017	0.708217
	H13	H	0.164093	0.606350	0.714853
	H14	H	0.838064	0.602142	0.277856
	H15	H	0.165827	0.405696	0.283469
	H16	H	0.399223	0.716559	0.830541
	H17	H	0.602661	0.720711	0.159031
	H18	H	0.597409	0.288311	0.831367
	H19	H	0.401317	0.287745	0.160361
	H20	H	0.713132	0.839497	0.394193
	H21	H	0.717841	0.166147	0.596047
	H22	H	0.284079	0.840307	0.591094
	H23	H	0.285818	0.166758	0.393409
	H24	H	0.901938	0.339296	0.208673
	H25	H	0.101955	0.666728	0.211394
	H26	H	0.097665	0.339511	0.780204
	H27	H	0.901675	0.666853	0.780352
	H28	H	0.209663	0.905084	0.328984
	H29	H	0.219147	0.105338	0.657606
	H30	H	0.785507	0.100080	0.330391
	H31	H	0.786236	0.904950	0.659144
	H32	H	0.336185	0.216058	0.894489
	H33	H	0.663551	0.220546	0.097798
	H34	H	0.337900	0.786461	0.093382
	H35	H	0.664031	0.788172	0.896145
	H36	H	0.335709	0.905200	0.204874
	H37	H	0.664418	0.103750	0.211504
	H38	H	0.336773	0.100269	0.778532
	H39	H	0.665468	0.905617	0.782580
	H40	H	0.899922	0.217372	0.330605
	H41	H	0.102998	0.220830	0.658098
	H42	H	0.097675	0.787420	0.331706
	H43	H	0.901059	0.788680	0.659795
	H44	H	0.212880	0.338677	0.898181
	H45	H	0.219032	0.665646	0.098012
	H46	H	0.783967	0.340491	0.093284
	H47	H	0.785191	0.667058	0.895118
	H48	H	0.417062	0.115338	0.580428
	H49	H	0.591291	0.883837	0.597114
	H50	H	0.599791	0.120558	0.402452
	H51	H	0.402720	0.885804	0.398128
	H52	H	0.590290	0.410711	0.111524
	H53	H	0.592316	0.600231	0.876418
	H54	H	0.418700	0.594639	0.109895
	H55	H	0.404354	0.406852	0.878942
	H56	H	0.118394	0.602074	0.406700
	H57	H	0.885178	0.594434	0.587248
	H58	H	0.119539	0.406670	0.590502
	H59	H	0.884459	0.412433	0.399785
	H60	H	0.114642	0.414733	0.582525
	H61	H	0.883843	0.596608	0.589302
	H62	H	0.115661	0.594365	0.408834
	H63	H	0.884784	0.407495	0.401194
	H64	H	0.409064	0.605592	0.115452
	H65	H	0.596168	0.593876	0.877888
	H66	H	0.595173	0.409559	0.113934
	H67	H	0.404156	0.412594	0.879961
	H68	H	0.589505	0.119402	0.397130
	H69	H	0.586110	0.890314	0.581448
	H70	H	0.399603	0.121451	0.581972
	H71	H	0.404195	0.886255	0.398112
	H72	H	0.915590	0.616214	0.085828
	H73	H	0.093290	0.386639	0.089067
	H74	H	0.092501	0.617522	0.909408
	H75	H	0.906308	0.388083	0.901830
	H76	H	0.106524	0.918870	0.613956
	H77	H	0.088563	0.093757	0.379238
	H78	H	0.906550	0.091300	0.611011
	H79	H	0.909675	0.899690	0.375926
	H80	H	0.621425	0.105337	0.899026
	H81	H	0.383105	0.093672	0.091027
	H82	H	0.619126	0.909212	0.090400
	H83	H	0.380738	0.906215	0.894983
	H84	H	0.616619	0.911511	0.083278
	H85	H	0.382209	0.100939	0.086820
	H86	H	0.614534	0.098324	0.913547
	H87	H	0.384959	0.905811	0.906519
	H88	H	0.915631	0.096260	0.608916
	H89	H	0.090958	0.101883	0.375561
	H90	H	0.084150	0.923001	0.605953
	H91	H	0.896535	0.910677	0.375591
	H92	H	0.097717	0.619639	0.903902
	H93	H	0.096297	0.385245	0.090114
	H94	H	0.907161	0.619591	0.083979
	H95	H	0.904537	0.386974	0.902239
	H96	H	0.411288	0.122108	0.596970
	H97	H	0.602330	0.884685	0.583603
	H98	H	0.590499	0.116565	0.409402
	H99	H	0.404000	0.886984	0.398538
	H100	H	0.594979	0.414723	0.112332
	H101	H	0.588262	0.594522	0.880040
	H102	H	0.403688	0.591231	0.113067
	H103	H	0.409825	0.409793	0.880288
	H104	H	0.118942	0.595661	0.401393
	H105	H	0.884197	0.597148	0.586519
	H106	H	0.116639	0.418778	0.593667
	H107	H	0.885713	0.412033	0.405184
	H108	H	0.909663	0.621035	0.092688
	H109	H	0.093899	0.385968	0.092230
	H110	H	0.090601	0.618491	0.902427
	H111	H	0.905422	0.386917	0.900414
	H112	H	0.090679	0.901365	0.614855
	H113	H	0.097216	0.095369	0.375890
	H114	H	0.907121	0.101822	0.614014
	H115	H	0.911893	0.916195	0.382355
	H116	H	0.616222	0.088498	0.898978
	H117	H	0.384603	0.094513	0.082966
	H118	H	0.616697	0.916806	0.089948
	H119	H	0.386248	0.915734	0.899505
	C120	C	0.379370	0.011644	0.614774
	C121	C	0.623136	0.994288	0.616797
	C122	C	0.621135	0.011252	0.373440
	C123	C	0.376821	0.994749	0.370559
	C124	C	0.620950	0.382789	0.004026
	C125	C	0.622523	0.626055	0.986474
	C126	C	0.379883	0.624755	0.004169
	C127	C	0.378283	0.381155	0.988373
	C128	C	0.009745	0.625163	0.374625
	C129	C	0.992312	0.626493	0.618680
	C130	C	0.008936	0.382889	0.616788
	C131	C	0.993065	0.382055	0.373683
	C132	C	0.880214	0.511312	0.116464
	C133	C	0.123717	0.494141	0.119284
	C134	C	0.121460	0.510964	0.875389
	C135	C	0.877641	0.495353	0.872961
	C136	C	0.120845	0.884196	0.503223
	C137	C	0.122697	0.126292	0.485526
	C138	C	0.879466	0.124941	0.503184
	C139	C	0.878275	0.881148	0.486716
	C140	C	0.508817	0.125110	0.873416
	C141	C	0.491836	0.125360	0.116859
	C142	C	0.509408	0.882668	0.115473
	C143	C	0.492062	0.881118	0.872436
	C144	C	0.380583	0.888497	0.669400
	C145	C	0.622266	0.117127	0.673220
	C146	C	0.616738	0.888121	0.317555
	C147	C	0.381200	0.118047	0.316781
	C148	C	0.674406	0.384647	0.880177
	C149	C	0.679820	0.625223	0.109836
	C150	C	0.322716	0.621025	0.881047
	C151	C	0.324818	0.384216	0.112242
	C152	C	0.886059	0.678720	0.375799
	C153	C	0.114735	0.684189	0.619265
	C154	C	0.886814	0.324615	0.615036
	C155	C	0.115826	0.326596	0.375331
	C156	C	0.885830	0.383469	0.671194
	C157	C	0.115043	0.626027	0.676288
	C158	C	0.886702	0.622041	0.317159
	C159	C	0.116450	0.385082	0.319823
	C160	C	0.380097	0.678728	0.880112
	C161	C	0.622386	0.682543	0.109786
	C162	C	0.617718	0.326842	0.880407
	C163	C	0.380987	0.325667	0.111471
	C164	C	0.675341	0.888297	0.374584
	C165	C	0.679922	0.117167	0.616017
	C166	C	0.322318	0.889075	0.611917
	C167	C	0.322986	0.117854	0.373242
	C168	C	0.881440	0.388463	0.171258
	C169	C	0.122651	0.617475	0.174336
	C170	C	0.118335	0.388143	0.818947
	C171	C	0.880957	0.618223	0.818045
	C172	C	0.173430	0.884954	0.378711
	C173	C	0.180339	0.125295	0.608637
	C174	C	0.822872	0.121468	0.379607
	C175	C	0.823492	0.883919	0.610228
	C176	C	0.385597	0.179130	0.874377
	C177	C	0.614812	0.181835	0.116730
	C178	C	0.386215	0.825602	0.112972
	C179	C	0.615182	0.825975	0.875400
	C180	C	0.385198	0.884538	0.168380
	C181	C	0.615195	0.124009	0.173505
	C182	C	0.385846	0.121208	0.816796
	C183	C	0.615863	0.884388	0.818892
	C184	C	0.880021	0.179586	0.379603
	C185	C	0.122238	0.182143	0.609148
	C186	C	0.117710	0.826419	0.380239
	C187	C	0.880511	0.826288	0.610488
	C188	C	0.175540	0.387796	0.877463
	C189	C	0.180681	0.616991	0.117932
	C190	C	0.822681	0.389043	0.114018
	C191	C	0.822898	0.618132	0.875035
	C192	C	0.402584	0.097489	0.593044
	C193	C	0.600038	0.908456	0.594049
	C194	C	0.599661	0.096837	0.396316
	C195	C	0.397539	0.908619	0.391911
	C196	C	0.599865	0.405301	0.090184
	C197	C	0.599099	0.603122	0.900463
	C198	C	0.403649	0.603531	0.090452
	C199	C	0.399774	0.403219	0.902033
	C200	C	0.095525	0.603770	0.398768
	C201	C	0.906612	0.602845	0.594677
	C202	C	0.094838	0.406536	0.595364
	C203	C	0.907190	0.404114	0.395674
	C204	C	0.903760	0.596854	0.094134
	C205	C	0.101093	0.408274	0.096959
	C206	C	0.099780	0.596381	0.898517
	C207	C	0.899080	0.409484	0.894974
	C208	C	0.099917	0.907524	0.589230
	C209	C	0.099210	0.103570	0.399190
	C210	C	0.902892	0.103013	0.589350
	C211	C	0.899839	0.902366	0.400502
	C212	C	0.595118	0.103635	0.896922
	C213	C	0.405737	0.102881	0.093852
	C214	C	0.595232	0.905539	0.094206
	C215	C	0.406211	0.902847	0.894018
	Zn216	Zn	0.500833	0.002522	0.744421
	Zn217	Zn	0.499818	0.003460	0.243767
	Zn218	Zn	0.749826	0.503644	-0.004925
	Zn219	Zn	0.250872	0.502787	-0.002777
	Zn220	Zn	0.000668	0.754300	0.496257
	Zn221	Zn	0.001068	0.254214	0.494251
	Zn222	Zn	0.000369	0.503711	0.745399
	Zn223	Zn	0.001870	0.503506	0.246287
	Zn224	Zn	0.501102	0.753660	-0.005438
	Zn225	Zn	0.500307	0.253541	-0.003995
	Zn226	Zn	0.750845	0.003063	0.494947
	Zn227	Zn	0.249753	0.004096	0.492613
	N228	N	0.415469	0.965600	0.671107
	N229	N	0.587462	0.039840	0.673800
	N230	N	0.583807	0.965486	0.316622
	N231	N	0.414106	0.040485	0.314892
	N232	N	0.676466	0.418937	0.957966
	N233	N	0.680148	0.590776	0.032027
	N234	N	0.322462	0.588143	0.959143
	N235	N	0.323006	0.417981	0.034533
	N236	N	0.963484	0.680677	0.411105
	N237	N	0.037309	0.684598	0.584263
	N238	N	0.964371	0.324225	0.581783
	N239	N	0.038175	0.324803	0.408465
	N240	N	0.962884	0.419131	0.672295
	N241	N	0.037649	0.591095	0.676084
	N242	N	0.964661	0.589744	0.316201
	N243	N	0.039078	0.418918	0.318530
	N244	N	0.415014	0.681167	0.957766
	N245	N	0.587522	0.683202	0.032212
	N246	N	0.585194	0.325471	0.958458
	N247	N	0.413457	0.323577	0.033313
	N248	N	0.678086	0.965873	0.408687
	N249	N	0.680659	0.039796	0.581667
	N250	N	0.321474	0.966785	0.578675
	N251	N	0.320257	0.040272	0.405993
	N252	N	0.916432	0.465652	0.172883
	N253	N	0.088103	0.540194	0.175262
	N254	N	0.085392	0.465620	0.817562
	N255	N	0.914256	0.540906	0.816423
	N256	N	0.175538	0.920355	0.456051
	N257	N	0.180707	0.091189	0.530580
	N258	N	0.822449	0.088205	0.457622
	N259	N	0.821859	0.917224	0.532393
	N260	N	0.463213	0.181527	0.909071
	N261	N	0.537107	0.182978	0.082460
	N262	N	0.464197	0.824398	0.080665
	N263	N	0.537189	0.823574	0.907970
	N264	N	0.462642	0.919366	0.170137
	N265	N	0.537698	0.089311	0.173534
	N266	N	0.463626	0.088471	0.816142
	N267	N	0.538266	0.917525	0.816739
	N268	N	0.914643	0.181767	0.457417
	N269	N	0.087256	0.182980	0.531558
	N270	N	0.085585	0.825853	0.458521
	N271	N	0.913824	0.824296	0.532751
	N272	N	0.177735	0.465267	0.911869
	N273	N	0.181662	0.539197	0.084390
	N274	N	0.821885	0.466594	0.080749
	N275	N	0.820373	0.540526	0.908112
	O276	O	-0.039561	-0.095717	0.013589
	H277	H	-0.047170	-0.101053	0.013286
	H278	H	-0.032261	-0.091988	0.018263
	O279	O	0.526965	0.535538	0.607432
	H280	H	0.532151	0.535434	0.612820
	H281	H	0.533900	0.551011	0.611765
	O282	O	0.570038	0.545669	0.451576
	H283	H	0.572516	0.546675	0.463553
	H284	H	0.578830	0.554985	0.446492
	O285	O	0.937259	0.004724	0.957821
	H286	H	0.938165	0.011027	0.962474
	H287	H	0.951085	0.004584	0.955725
	O288	O	1.025330	-0.001516	-0.021477
	H289	H	1.019920	0.007923	-0.022877
	H290	H	1.020225	-0.000251	-0.021434
	O291	O	0.529793	0.494487	0.576177
	H292	H	0.524268	0.502321	0.578127
	H293	H	0.538442	0.500073	0.572244
	O294	O	0.924010	-0.010440	0.930537
	H295	H	0.914164	-0.012456	0.913035
	H296	H	0.925087	-0.015414	0.937909
	O297	O	0.046929	-0.039344	-0.033789
	H298	H	0.046899	-0.029287	-0.029354
	H299	H	0.039183	-0.042863	-0.030995
	O300	O	0.551262	0.509372	0.528099
	H301	H	0.544303	0.513185	0.527486
	H302	H	0.561162	0.511998	0.536878
	O303	O	0.977540	-0.027864	-0.048823
	H304	H	0.970541	-0.042658	-0.049104
	H305	H	0.979107	-0.037644	-0.051602
	O306	O	1.027789	-0.024964	0.009246
	H307	H	1.027597	-0.019467	0.010223
	H308	H	1.036460	-0.020681	0.013908
	O309	O	0.027510	0.038769	0.947800
	H310	H	0.028218	0.037828	0.944516
	H311	H	0.020949	0.033255	0.949189
	O312	O	1.045709	0.976226	0.962594
	H313	H	1.045418	0.975144	0.968560
	H314	H	1.058044	0.975570	0.965285
	O315	O	0.453714	0.510481	0.541310
	H316	H	0.446232	0.511260	0.537987
	H317	H	0.453989	0.525935	0.542749
	O318	O	0.454492	0.491096	0.523364
	H319	H	0.450335	0.493581	0.518260
	H320	H	0.456226	0.485339	0.527406
	O321	O	0.004491	0.970707	0.956287
	H322	H	0.013733	0.970967	0.950549
	H323	H	-0.008271	0.972785	0.965219
	O324	O	0.477364	0.486971	0.437383
	H325	H	0.484190	0.483528	0.443819
	H326	H	0.474631	0.489370	0.430309
	O327	O	0.516829	0.444531	0.429749
	H328	H	0.504991	0.443090	0.435037
	H329	H	0.523699	0.445285	0.424035
	O330	O	0.542746	0.548925	0.474261
	H331	H	0.537310	0.538127	0.472008
	H332	H	0.548520	0.544859	0.472940
	O333	O	0.554338	0.522108	0.557838
	H334	H	0.533826	0.521993	0.552949
	H335	H	0.556457	0.524980	0.553696
	O336	O	0.590412	0.403639	0.447806
	H337	H	0.595077	0.403823	0.445828
	H338	H	0.592939	0.397954	0.447810
	O339	O	1.029234	0.992227	-0.016543
	H340	H	1.029201	0.995135	-0.025222
	H341	H	1.029915	0.989342	-0.020103
	O342	O	0.452706	0.430732	0.430308
	H343	H	0.447515	0.428471	0.438365
	H344	H	0.448891	0.423647	0.440835
	O345	O	0.512416	0.509387	0.466356
	H346	H	0.502407	0.511325	0.481525
	H347	H	0.521323	0.513976	0.469602
	O348	O	0.435446	0.554809	0.557172
	H349	H	0.446787	0.533534	0.551853
	H350	H	0.430579	0.553635	0.560386
	O351	O	0.045093	1.004101	0.980380
	H352	H	0.058955	1.007836	0.977094
	H353	H	0.043660	1.006555	0.979748
	O354	O	0.588234	0.438099	0.464727
	H355	H	0.592606	0.437506	0.459316
	H356	H	0.587251	0.437416	0.471294
	O357	O	-0.533442	1.572837	1.558651
	H358	H	-0.529273	1.576438	1.552601
	H359	H	-0.537917	1.563227	1.557359
