data_Molecule from HDF5

_cell_length_a		16.516641
_cell_length_b		16.206639
_cell_length_c		16.391503
_cell_angle_alpha	89.971049
_cell_angle_beta	90.089249
_cell_angle_gamma	90.075374
_symmetry_space_group_name_H-M	'P 1'
_symmetry_Int_Tables_number		1

loop_
	_symmetry_equiv_pos_as_xyz
	x,y,z

loop_
	_atom_site_label
	_atom_site_type_symbol
	_atom_site_fract_x
	_atom_site_fract_y
	_atom_site_fract_z
	H0	H	0.396935	0.837726	0.713863
	H1	H	0.603827	0.161134	0.711435
	H2	H	0.603086	0.838995	0.273670
	H3	H	0.398014	0.161555	0.276053
	H4	H	0.723639	0.393769	0.836691
	H5	H	0.723847	0.608075	0.153309
	H6	H	0.278883	0.607851	0.837420
	H7	H	0.280048	0.392377	0.153898
	H8	H	0.840867	0.718025	0.390173
	H9	H	0.159449	0.719088	0.597161
	H10	H	0.840149	0.282376	0.593287
	H11	H	0.159595	0.277762	0.391468
	H12	H	0.842678	0.393033	0.715428
	H13	H	0.157951	0.606244	0.716925
	H14	H	0.842045	0.602168	0.272422
	H15	H	0.158957	0.391625	0.272660
	H16	H	0.401934	0.716919	0.834057
	H17	H	0.603790	0.718358	0.155266
	H18	H	0.601670	0.284597	0.833823
	H19	H	0.402664	0.284357	0.156081
	H20	H	0.720527	0.838421	0.387127
	H21	H	0.722442	0.159050	0.599089
	H22	H	0.280445	0.838230	0.599332
	H23	H	0.278475	0.158911	0.386531
	H24	H	0.897306	0.336740	0.212293
	H25	H	0.105844	0.658720	0.216575
	H26	H	0.106976	0.338537	0.774835
	H27	H	0.896733	0.659418	0.772855
	H28	H	0.224799	0.888113	0.336932
	H29	H	0.222397	0.104995	0.653165
	H30	H	0.778411	0.104594	0.335562
	H31	H	0.776294	0.888370	0.652327
	H32	H	0.340980	0.219246	0.892104
	H33	H	0.660589	0.220827	0.097673
	H34	H	0.341570	0.780315	0.095751
	H35	H	0.659844	0.778445	0.888834
	H36	H	0.341671	0.894376	0.213759
	H37	H	0.657657	0.107718	0.218705
	H38	H	0.342063	0.105152	0.774112
	H39	H	0.659523	0.894416	0.771701
	H40	H	0.898546	0.215872	0.333869
	H41	H	0.101162	0.214913	0.655899
	H42	H	0.104730	0.776581	0.335397
	H43	H	0.898139	0.779120	0.654668
	H44	H	0.222399	0.339525	0.890150
	H45	H	0.222133	0.660348	0.101760
	H46	H	0.777791	0.340221	0.102448
	H47	H	0.779313	0.659299	0.886583
	H48	H	0.410606	0.115843	0.587136
	H49	H	0.592635	0.883357	0.581717
	H50	H	0.590088	0.114613	0.404239
	H51	H	0.415056	0.887037	0.407756
	H52	H	0.583556	0.419699	0.103224
	H53	H	0.596006	0.586423	0.880874
	H54	H	0.409751	0.585886	0.108448
	H55	H	0.411243	0.404451	0.878629
	H56	H	0.113871	0.583536	0.399188
	H57	H	0.887056	0.585854	0.585688
	H58	H	0.117494	0.403117	0.590432
	H59	H	0.889055	0.408434	0.405578
	H60	H	0.112549	0.406145	0.578369
	H61	H	0.887339	0.587506	0.585024
	H62	H	0.114010	0.592803	0.407358
	H63	H	0.887286	0.410454	0.398863
	H64	H	0.413257	0.590284	0.109186
	H65	H	0.588887	0.584375	0.882564
	H66	H	0.588147	0.401600	0.111548
	H67	H	0.402223	0.414736	0.879859
	H68	H	0.588009	0.113486	0.407757
	H69	H	0.587189	0.883783	0.586656
	H70	H	0.415752	0.111568	0.580385
	H71	H	0.406771	0.883918	0.406651
	H72	H	0.908524	0.615098	0.083242
	H73	H	0.092630	0.384361	0.082841
	H74	H	0.095583	0.616634	0.904993
	H75	H	0.917652	0.386427	0.906037
	H76	H	0.088621	0.911383	0.606468
	H77	H	0.082065	0.091977	0.381605
	H78	H	0.905996	0.083820	0.608806
	H79	H	0.903665	0.913418	0.380723
	H80	H	0.615321	0.096277	0.905064
	H81	H	0.385793	0.094703	0.087001
	H82	H	0.615975	0.905158	0.084142
	H83	H	0.388225	0.910887	0.902378
	H84	H	0.610539	0.914890	0.078345
	H85	H	0.389708	0.091919	0.080872
	H86	H	0.611539	0.087056	0.905540
	H87	H	0.388987	0.910020	0.905191
	H88	H	0.912576	0.086765	0.607203
	H89	H	0.099337	0.090337	0.375896
	H90	H	0.091302	0.907910	0.608376
	H91	H	0.914852	0.912851	0.383258
	H92	H	0.085628	0.614067	0.902321
	H93	H	0.091772	0.383301	0.084216
	H94	H	0.916884	0.613145	0.085615
	H95	H	0.909096	0.385941	0.912591
	H96	H	0.406702	0.114393	0.578152
	H97	H	0.586372	0.885769	0.579771
	H98	H	0.592041	0.114248	0.408107
	H99	H	0.412368	0.882504	0.400110
	H100	H	0.601867	0.416619	0.110770
	H101	H	0.590895	0.591362	0.880410
	H102	H	0.408378	0.590686	0.111175
	H103	H	0.415343	0.417026	0.884608
	H104	H	0.109312	0.582429	0.410235
	H105	H	0.888133	0.586525	0.584051
	H106	H	0.112642	0.415236	0.588236
	H107	H	0.885819	0.403449	0.401427
	H108	H	0.914708	0.611510	0.077671
	H109	H	0.090951	0.384614	0.082921
	H110	H	0.089382	0.611582	0.912045
	H111	H	0.908868	0.381526	0.902065
	H112	H	0.093111	0.912284	0.607672
	H113	H	0.090983	0.075977	0.384572
	H114	H	0.907366	0.090823	0.610022
	H115	H	0.909446	0.904070	0.378812
	H116	H	0.615029	0.090207	0.897275
	H117	H	0.388323	0.087550	0.086969
	H118	H	0.613888	0.915910	0.090813
	H119	H	0.389958	0.912487	0.904125
	C120	C	0.379526	0.007593	0.614433
	C121	C	0.621488	0.990400	0.614836
	C122	C	0.621477	0.008273	0.373128
	C123	C	0.379133	0.990635	0.372809
	C124	C	0.622799	0.379929	0.003679
	C125	C	0.623748	0.621061	0.986371
	C126	C	0.379940	0.621019	0.004012
	C127	C	0.379298	0.379578	0.986556
	C128	C	0.008151	0.618914	0.372969
	C129	C	0.991768	0.620014	0.616489
	C130	C	0.009117	0.376970	0.616256
	C131	C	0.992207	0.375291	0.371525
	C132	C	0.880489	0.507383	0.114910
	C133	C	0.123200	0.490006	0.116192
	C134	C	0.122752	0.508166	0.873746
	C135	C	0.880085	0.490719	0.873988
	C136	C	0.122577	0.877051	0.502526
	C137	C	0.122165	0.118722	0.486244
	C138	C	0.878142	0.118777	0.502860
	C139	C	0.878079	0.876959	0.485984
	C140	C	0.509049	0.122702	0.871897
	C141	C	0.492797	0.122909	0.116497
	C142	C	0.508790	0.879347	0.115562
	C143	C	0.493635	0.878387	0.871986
	C144	C	0.378566	0.886147	0.674017
	C145	C	0.623147	0.112231	0.673109
	C146	C	0.622345	0.887239	0.312758
	C147	C	0.378102	0.112496	0.314090
	C148	C	0.683113	0.376335	0.884221
	C149	C	0.683682	0.625149	0.105635
	C150	C	0.319834	0.624550	0.884435
	C151	C	0.320794	0.376184	0.106548
	C152	C	0.888652	0.678292	0.371352
	C153	C	0.111459	0.679817	0.616869
	C154	C	0.888419	0.319955	0.614467
	C155	C	0.111730	0.316476	0.371659
	C156	C	0.889862	0.375192	0.675193
	C157	C	0.110781	0.623623	0.676513
	C158	C	0.889353	0.620968	0.312487
	C159	C	0.111501	0.373739	0.312931
	C160	C	0.380692	0.678943	0.882767
	C161	C	0.623880	0.680370	0.106506
	C162	C	0.622539	0.321958	0.882480
	C163	C	0.381632	0.321923	0.107563
	C164	C	0.680506	0.886879	0.369623
	C165	C	0.682011	0.111090	0.617241
	C166	C	0.320416	0.886261	0.617070
	C167	C	0.318636	0.111001	0.369241
	C168	C	0.878332	0.385839	0.173980
	C169	C	0.124649	0.610969	0.176878
	C170	C	0.124972	0.387088	0.814146
	C171	C	0.878253	0.611259	0.812844
	C172	C	0.183424	0.872111	0.384003
	C173	C	0.182035	0.122208	0.605738
	C174	C	0.818634	0.121744	0.383161
	C175	C	0.817579	0.872286	0.605266
	C176	C	0.389286	0.180729	0.872671
	C177	C	0.612440	0.181790	0.117111
	C178	C	0.389503	0.819476	0.115585
	C179	C	0.612434	0.818524	0.870387
	C180	C	0.389564	0.876473	0.174528
	C181	C	0.611099	0.125511	0.177451
	C182	C	0.389575	0.124144	0.813450
	C183	C	0.612028	0.876212	0.811744
	C184	C	0.878536	0.177293	0.382412
	C185	C	0.121756	0.177096	0.606987
	C186	C	0.123549	0.816430	0.383166
	C187	C	0.878228	0.817646	0.606396
	C188	C	0.182489	0.387653	0.871858
	C189	C	0.182182	0.611767	0.119529
	C190	C	0.818652	0.387601	0.119180
	C191	C	0.819889	0.611228	0.869653
	C192	C	0.404041	0.091926	0.589147
	C193	C	0.596125	0.906287	0.589907
	C194	C	0.597181	0.092165	0.399000
	C195	C	0.404120	0.906548	0.397718
	C196	C	0.598418	0.405297	0.086791
	C197	C	0.599161	0.594867	0.902882
	C198	C	0.403532	0.595995	0.087853
	C199	C	0.402664	0.404903	0.902897
	C200	C	0.090708	0.593669	0.398229
	C201	C	0.909229	0.594173	0.591897
	C202	C	0.092505	0.401211	0.592605
	C203	C	0.909028	0.400158	0.395128
	C204	C	0.906131	0.591267	0.089459
	C205	C	0.099041	0.405900	0.090535
	C206	C	0.097360	0.592400	0.899040
	C207	C	0.904779	0.406510	0.899819
	C208	C	0.098064	0.903169	0.585824
	C209	C	0.097866	0.093367	0.402428
	C210	C	0.901907	0.094033	0.586863
	C211	C	0.902289	0.902617	0.402827
	C212	C	0.592267	0.098076	0.895723
	C213	C	0.409670	0.098263	0.091962
	C214	C	0.591926	0.904815	0.091402
	C215	C	0.410588	0.903809	0.896829
	Zn216	Zn	0.500300	0.000629	0.742769
	Zn217	Zn	0.499949	-0.000082	0.245585
	Zn218	Zn	0.751991	0.500120	-0.004792
	Zn219	Zn	0.250666	0.500287	-0.004538
	Zn220	Zn	-0.000004	0.748775	0.494191
	Zn221	Zn	0.000376	0.247273	0.494653
	Zn222	Zn	0.001079	0.498441	0.745754
	Zn223	Zn	0.000964	0.497593	0.242596
	Zn224	Zn	0.501671	0.749253	-0.005307
	Zn225	Zn	0.501155	0.251500	-0.006100
	Zn226	Zn	0.749365	-0.002414	0.494245
	Zn227	Zn	0.251182	-0.001564	0.493705
	N228	N	0.414525	0.962701	0.672684
	N229	N	0.585967	0.036427	0.671683
	N230	N	0.586287	0.963698	0.314838
	N231	N	0.414837	0.036587	0.316052
	N232	N	0.683456	0.411544	0.960525
	N233	N	0.683763	0.589214	0.029699
	N234	N	0.319057	0.589442	0.960918
	N235	N	0.319276	0.411378	0.030230
	N236	N	0.963573	0.677525	0.407840
	N237	N	0.036606	0.677798	0.580300
	N238	N	0.963750	0.320488	0.578786
	N239	N	0.036471	0.317359	0.407348
	N240	N	0.965858	0.409731	0.676516
	N241	N	0.035536	0.587068	0.676428
	N242	N	0.964772	0.584951	0.313173
	N243	N	0.036009	0.409352	0.312420
	N244	N	0.417404	0.676952	0.958037
	N245	N	0.587381	0.678130	0.031126
	N246	N	0.585828	0.323750	0.957648
	N247	N	0.417129	0.323657	0.031789
	N248	N	0.680296	0.962921	0.406322
	N249	N	0.681094	0.034281	0.581673
	N250	N	0.320999	0.962599	0.580627
	N251	N	0.319102	0.034146	0.404955
	N252	N	0.916291	0.461236	0.171337
	N253	N	0.088605	0.534501	0.175072
	N254	N	0.088252	0.463187	0.815474
	N255	N	0.915033	0.535294	0.815459
	N256	N	0.182892	0.908937	0.459377
	N257	N	0.182440	0.086832	0.529416
	N258	N	0.818395	0.085995	0.459241
	N259	N	0.817309	0.908428	0.529434
	N260	N	0.464769	0.180028	0.908161
	N261	N	0.537847	0.180281	0.080055
	N262	N	0.464570	0.821194	0.079642
	N263	N	0.537668	0.819777	0.907025
	N264	N	0.464777	0.913103	0.174526
	N265	N	0.535683	0.089614	0.177248
	N266	N	0.465179	0.088804	0.812716
	N267	N	0.536959	0.912872	0.812816
	N268	N	0.914883	0.175634	0.457851
	N269	N	0.085353	0.175269	0.531541
	N270	N	0.086188	0.819456	0.457923
	N271	N	0.915196	0.820392	0.531275
	N272	N	0.181289	0.464129	0.908047
	N273	N	0.181357	0.535657	0.082547
	N274	N	0.820038	0.464044	0.082977
	N275	N	0.821051	0.535298	0.907177
	O276	O	0.678821	0.646810	0.595403
	H277	H	0.658853	0.646397	0.613448
	H278	H	0.683067	0.649287	0.604348
	O279	O	0.655621	0.569551	0.523995
	H280	H	0.659233	0.547620	0.530127
	H281	H	0.666755	0.595565	0.527733
	O282	O	0.565935	0.554689	0.378106
	H283	H	0.574422	0.555019	0.381137
	H284	H	0.562549	0.552056	0.393781
	O285	O	1.020116	-0.011941	-0.121400
	H286	H	1.035444	-0.006148	-0.110829
	H287	H	1.030397	-0.025621	-0.128251
	O288	O	-0.152300	-0.023180	0.840673
	H289	H	-0.147349	-0.053447	0.848234
	H290	H	-0.152227	-0.025907	0.821447
	O291	O	0.376253	0.668517	0.599369
	H292	H	0.374156	0.673671	0.585777
	H293	H	0.373400	0.673621	0.590157
	O294	O	0.670195	0.491408	0.390221
	H295	H	0.667496	0.484896	0.384400
	H296	H	0.668645	0.502252	0.396815
	O297	O	0.975301	0.870149	0.913725
	H298	H	0.984064	0.864219	0.898960
	H299	H	0.961441	0.858060	0.936309
	O300	O	-0.051727	0.105906	0.196247
	H301	H	-0.047901	0.121734	0.209584
	H302	H	-0.053389	0.100276	0.206275
	O303	O	0.621028	0.524364	0.648399
	H304	H	0.626794	0.511828	0.646577
	H305	H	0.620354	0.528237	0.655724
	O306	O	0.926718	-0.016348	0.004739
	H307	H	0.935961	-0.016544	0.011566
	H308	H	0.915947	-0.003711	0.010349
	O309	O	0.337554	0.505518	0.630782
	H310	H	0.340376	0.484391	0.623104
	H311	H	0.328044	0.521820	0.640137
	O312	O	1.008986	0.800508	0.179828
	H313	H	1.007918	0.778995	0.199780
	H314	H	0.974353	0.813355	0.167554
	O315	O	0.619428	0.410766	0.522504
	H316	H	0.621501	0.418422	0.514587
	H317	H	0.607513	0.410916	0.509223
	O318	O	0.314701	0.554909	0.326014
	H319	H	0.312803	0.545957	0.311603
	H320	H	0.319541	0.540426	0.327077
	O321	O	0.960088	-0.048232	0.908201
	H322	H	0.959883	-0.030948	0.901669
	H323	H	0.981024	-0.062198	0.916459
	O324	O	0.141043	0.020278	1.190678
	H325	H	0.130032	0.023296	1.171632
	H326	H	0.136808	0.019665	1.205526
	O327	O	0.575062	0.552579	0.508697
	H328	H	0.579623	0.562392	0.507737
	H329	H	0.569211	0.557240	0.505294
	O330	O	0.531124	0.687163	0.657989
	H331	H	0.516324	0.689339	0.664933
	H332	H	0.508219	0.698069	0.647759
	O333	O	0.801707	1.180435	0.940106
	H334	H	0.811229	1.196758	0.934608
	H335	H	0.806883	1.170344	0.942235
	O336	O	0.589583	0.393078	0.648672
	H337	H	0.605328	0.397878	0.647271
	H338	H	0.587729	0.387456	0.646188
	O339	O	0.893598	0.125295	0.807424
	H340	H	0.879732	0.120654	0.831167
	H341	H	0.886528	0.117097	0.802815
	O342	O	0.076432	0.803239	0.902512
	H343	H	0.069613	0.802706	0.911435
	H344	H	0.068604	0.797414	0.923814
	O345	O	0.046467	0.886706	1.115512
	H346	H	0.035418	0.867367	1.125959
	H347	H	0.043774	0.903133	1.122439
	O348	O	0.386395	0.497637	0.650876
	H349	H	0.394032	0.503368	0.650261
	H350	H	0.383075	0.504273	0.648899
	O351	O	-0.209790	-0.111199	0.063653
	H352	H	-0.220178	-0.106452	0.060787
	H353	H	-0.209529	-0.101759	0.055519
	O354	O	1.163626	0.887562	-0.042513
	H355	H	1.151053	0.898549	-0.021303
	H356	H	1.161080	0.889661	-0.034194
	O357	O	0.011840	1.202226	0.015517
	H358	H	0.013683	1.222735	0.026413
	H359	H	0.032926	1.203755	0.013570
	O360	O	0.417108	0.307471	0.430325
	H361	H	0.402331	0.299519	0.438765
	H362	H	0.408043	0.302182	0.454198
	O363	O	0.564325	0.545580	0.345866
	H364	H	0.565272	0.543109	0.341348
	H365	H	0.563296	0.541693	0.341540
	O366	O	0.402138	0.375712	0.482475
	H367	H	0.395145	0.376775	0.493379
	H368	H	0.407657	0.380788	0.485623
	O369	O	0.409241	0.445396	0.522472
	H370	H	0.407631	0.449202	0.525692
	H371	H	0.415427	0.444633	0.532592
	O372	O	0.521168	0.400657	0.400435
	H373	H	0.516447	0.389790	0.402766
	H374	H	0.518714	0.417077	0.396732
	O375	O	0.441876	0.397254	0.404398
	H376	H	0.444300	0.376115	0.410092
	H377	H	0.437766	0.402358	0.419864
	O378	O	0.353130	0.574320	0.487931
	H379	H	0.358757	0.583922	0.476021
	H380	H	0.343619	0.572755	0.481490
	O381	O	0.460555	0.385233	0.488334
	H382	H	0.457226	0.384151	0.502096
	H383	H	0.464547	0.385600	0.488472
	O384	O	0.015554	1.118740	0.982889
	H385	H	0.013618	1.138999	0.982210
	H386	H	0.027137	1.099396	0.974672
	O387	O	1.205750	0.994650	0.132561
	H388	H	1.221044	0.994480	0.163629
	H389	H	1.182540	0.977289	0.142012
	O390	O	0.350671	0.669832	0.409698
	H391	H	0.345020	0.671763	0.402035
	H392	H	0.348351	0.661677	0.401038
	O393	O	0.904829	0.129720	1.006475
	H394	H	0.907636	0.143553	1.005535
	H395	H	0.905746	0.129028	0.980491
	O396	O	0.124566	0.934002	0.950069
	H397	H	0.132489	0.934807	0.963394
	H398	H	0.119562	0.941878	0.961473
	O399	O	0.432318	0.409013	0.645871
	H400	H	0.430450	0.402779	0.640634
	H401	H	0.431231	0.405895	0.643261
	O402	O	0.824706	-0.051774	1.147237
	H403	H	0.797158	-0.052399	1.143467
	H404	H	0.831773	-0.038542	1.137962
	O405	O	-0.184898	0.030829	0.005131
	H406	H	-0.190091	0.020232	-0.013891
	H407	H	-0.180977	0.038316	-0.010918
	O408	O	0.832554	0.816609	1.178070
	H409	H	0.818448	0.823192	1.144087
	H410	H	0.831292	0.846814	1.191957
	O411	O	1.132360	0.988451	-0.091373
	H412	H	1.131311	0.977018	-0.086375
	H413	H	1.129248	0.977724	-0.077533
	O414	O	0.174179	0.152343	1.068755
	H415	H	0.172405	0.129202	1.068466
	H416	H	0.173721	0.148186	1.044435
	O417	O	0.456515	0.605544	0.355535
	H418	H	0.466911	0.598506	0.356043
	H419	H	0.457260	0.607358	0.359359
	O420	O	0.203401	0.887387	-0.123585
	H421	H	0.201515	0.870698	-0.131224
	H422	H	0.218237	0.877249	-0.119480
	O423	O	1.200451	0.165626	0.023677
	H424	H	1.191746	0.166529	0.012574
	H425	H	1.215176	0.169483	0.008957
	O426	O	-0.105792	0.132710	0.792624
	H427	H	-0.102512	0.147057	0.785519
	H428	H	-0.129903	0.119585	0.787936
	O429	O	0.576253	0.379413	0.557968
	H430	H	0.570056	0.380500	0.552746
	H431	H	0.575056	0.364122	0.552355
