data_Molecule from HDF5

_cell_length_a		16.368645
_cell_length_b		16.257167
_cell_length_c		16.269830
_cell_angle_alpha	90.005171
_cell_angle_beta	89.957308
_cell_angle_gamma	89.993172
_symmetry_space_group_name_H-M	'P 1'
_symmetry_Int_Tables_number		1

loop_
	_symmetry_equiv_pos_as_xyz
	x,y,z

loop_
	_atom_site_label
	_atom_site_type_symbol
	_atom_site_fract_x
	_atom_site_fract_y
	_atom_site_fract_z
	H0	H	0.402751	0.835113	0.712133
	H1	H	0.597048	0.163838	0.713575
	H2	H	0.598475	0.835959	0.286332
	H3	H	0.403411	0.164453	0.286970
	H4	H	0.715605	0.399823	0.837099
	H5	H	0.714800	0.599107	0.163888
	H6	H	0.285625	0.598564	0.836486
	H7	H	0.284687	0.401100	0.163857
	H8	H	0.836578	0.714848	0.401558
	H9	H	0.162807	0.714457	0.597518
	H10	H	0.836718	0.286393	0.596320
	H11	H	0.163498	0.286254	0.401430
	H12	H	0.836803	0.402002	0.714427
	H13	H	0.163430	0.597913	0.713744
	H14	H	0.836555	0.597718	0.285108
	H15	H	0.162974	0.402305	0.285303
	H16	H	0.403894	0.712485	0.836008
	H17	H	0.596313	0.713408	0.164167
	H18	H	0.596864	0.286424	0.836366
	H19	H	0.402936	0.287375	0.164206
	H20	H	0.715002	0.836501	0.401440
	H21	H	0.714967	0.163603	0.599178
	H22	H	0.285334	0.836239	0.598106
	H23	H	0.285826	0.163735	0.401607
	H24	H	0.903452	0.335049	0.211567
	H25	H	0.096403	0.664716	0.212171
	H26	H	0.096918	0.335855	0.787126
	H27	H	0.902994	0.664553	0.786604
	H28	H	0.214676	0.901014	0.336237
	H29	H	0.215255	0.099238	0.663360
	H30	H	0.785323	0.099070	0.335976
	H31	H	0.785387	0.901122	0.662929
	H32	H	0.336615	0.214224	0.902458
	H33	H	0.662901	0.214229	0.097713
	H34	H	0.336774	0.785089	0.098209
	H35	H	0.663023	0.787326	0.904398
	H36	H	0.336116	0.902268	0.214414
	H37	H	0.663218	0.096967	0.213704
	H38	H	0.336436	0.097791	0.785849
	H39	H	0.662638	0.902075	0.785613
	H40	H	0.903849	0.212743	0.335084
	H41	H	0.096917	0.213993	0.663841
	H42	H	0.097149	0.786636	0.336163
	H43	H	0.903454	0.787449	0.664539
	H44	H	0.214715	0.336232	0.901936
	H45	H	0.214695	0.663357	0.098143
	H46	H	0.785209	0.336413	0.098486
	H47	H	0.786358	0.664215	0.902111
	H48	H	0.410058	0.114202	0.589830
	H49	H	0.605766	0.881344	0.587705
	H50	H	0.587598	0.111914	0.414675
	H51	H	0.411831	0.884587	0.405224
	H52	H	0.599517	0.415990	0.115783
	H53	H	0.594915	0.598672	0.881633
	H54	H	0.407281	0.590863	0.116191
	H55	H	0.402857	0.408663	0.882447
	H56	H	0.117791	0.598899	0.404866
	H57	H	0.887690	0.586066	0.587723
	H58	H	0.115356	0.406531	0.590039
	H59	H	0.882699	0.406671	0.400771
	H60	H	0.115499	0.409567	0.596496
	H61	H	0.882516	0.590802	0.603891
	H62	H	0.113820	0.591867	0.410757
	H63	H	0.883512	0.401573	0.409553
	H64	H	0.407457	0.593428	0.116758
	H65	H	0.598807	0.589073	0.883137
	H66	H	0.584154	0.406575	0.114072
	H67	H	0.409907	0.409786	0.885338
	H68	H	0.604384	0.119585	0.408854
	H69	H	0.591320	0.879885	0.605571
	H70	H	0.402486	0.117398	0.591459
	H71	H	0.404681	0.884610	0.412659
	H72	H	0.905418	0.620043	0.102241
	H73	H	0.092982	0.380051	0.104304
	H74	H	0.097142	0.615258	0.915923
	H75	H	0.909079	0.381310	0.898308
	H76	H	0.090907	0.902653	0.616832
	H77	H	0.098037	0.101493	0.379590
	H78	H	0.908827	0.095958	0.616562
	H79	H	0.908825	0.909959	0.384277
	H80	H	0.618404	0.097872	0.900151
	H81	H	0.384541	0.094957	0.091344
	H82	H	0.615361	0.901280	0.088146
	H83	H	0.384138	0.910993	0.904862
	H84	H	0.613319	0.913032	0.092546
	H85	H	0.384416	0.091504	0.093874
	H86	H	0.614010	0.096925	0.912907
	H87	H	0.381506	0.903046	0.902298
	H88	H	0.902582	0.094266	0.617480
	H89	H	0.099178	0.084529	0.384318
	H90	H	0.098438	0.908446	0.618112
	H91	H	0.908165	0.903155	0.382561
	H92	H	0.099803	0.619913	0.901142
	H93	H	0.085381	0.387150	0.087612
	H94	H	0.915871	0.612464	0.090082
	H95	H	0.913540	0.386624	0.913334
	H96	H	0.408280	0.117449	0.597328
	H97	H	0.583929	0.888457	0.585284
	H98	H	0.589441	0.118937	0.396594
	H99	H	0.402644	0.880368	0.403099
	H100	H	0.598743	0.398200	0.121114
	H101	H	0.588968	0.591089	0.885678
	H102	H	0.404693	0.592379	0.117358
	H103	H	0.407896	0.402898	0.882810
	H104	H	0.115806	0.590186	0.401611
	H105	H	0.882499	0.603409	0.590986
	H106	H	0.117526	0.402397	0.595812
	H107	H	0.886184	0.411241	0.409320
	H108	H	0.899033	0.616961	0.086511
	H109	H	0.104447	0.381802	0.088255
	H110	H	0.085622	0.614822	0.904992
	H111	H	0.897905	0.381757	0.910373
	H112	H	0.090185	0.911894	0.614142
	H113	H	0.084180	0.092643	0.386222
	H114	H	0.906661	0.090073	0.614862
	H115	H	0.902469	0.907501	0.381502
	H116	H	0.614154	0.086181	0.904728
	H117	H	0.382913	0.095068	0.095546
	H118	H	0.617432	0.904350	0.100807
	H119	H	0.383169	0.904582	0.910747
	C120	C	0.378467	0.008074	0.621340
	C121	C	0.621619	0.991488	0.621581
	C122	C	0.621571	0.008407	0.378563
	C123	C	0.378555	0.991609	0.378444
	C124	C	0.621745	0.378441	0.008657
	C125	C	0.621929	0.621465	0.991828
	C126	C	0.378612	0.620943	0.008670
	C127	C	0.378757	0.378794	0.991923
	C128	C	0.007980	0.622100	0.377617
	C129	C	0.992095	0.621514	0.621786
	C130	C	0.008126	0.378718	0.621637
	C131	C	0.991783	0.378568	0.378006
	C132	C	0.878604	0.508057	0.121173
	C133	C	0.121550	0.491504	0.121308
	C134	C	0.122016	0.508569	0.878816
	C135	C	0.878920	0.492074	0.878892
	C136	C	0.121346	0.878749	0.508469
	C137	C	0.121484	0.121268	0.491679
	C138	C	0.878244	0.121569	0.507744
	C139	C	0.878548	0.878669	0.491382
	C140	C	0.507899	0.122024	0.877699
	C141	C	0.491878	0.121712	0.121686
	C142	C	0.507717	0.878072	0.121992
	C143	C	0.491069	0.878280	0.878319
	C144	C	0.381516	0.884494	0.675570
	C145	C	0.618290	0.114974	0.676319
	C146	C	0.618625	0.884921	0.324015
	C147	C	0.382323	0.115407	0.324394
	C148	C	0.676763	0.380700	0.885603
	C149	C	0.676680	0.619034	0.114899
	C150	C	0.324111	0.618421	0.885203
	C151	C	0.323639	0.381296	0.115345
	C152	C	0.885269	0.676990	0.380750
	C153	C	0.114437	0.676471	0.618491
	C154	C	0.885487	0.323744	0.618260
	C155	C	0.114750	0.323791	0.380895
	C156	C	0.885409	0.381523	0.676430
	C157	C	0.114760	0.618553	0.676151
	C158	C	0.885310	0.618969	0.322748
	C159	C	0.114508	0.381730	0.323262
	C160	C	0.382438	0.675192	0.884801
	C161	C	0.617932	0.675831	0.115248
	C162	C	0.618067	0.324143	0.885209
	C163	C	0.381852	0.324315	0.115401
	C164	C	0.676571	0.885189	0.381111
	C165	C	0.676943	0.114626	0.619675
	C166	C	0.323098	0.885064	0.619015
	C167	C	0.323574	0.114818	0.380868
	C168	C	0.882158	0.384358	0.175057
	C169	C	0.117808	0.615354	0.175158
	C170	C	0.118058	0.384938	0.824606
	C171	C	0.882142	0.615551	0.824410
	C172	C	0.176748	0.880440	0.385188
	C173	C	0.176902	0.119318	0.614799
	C174	C	0.823324	0.119176	0.384699
	C175	C	0.823637	0.881002	0.614585
	C176	C	0.385177	0.176398	0.881584
	C177	C	0.614479	0.176278	0.118481
	C178	C	0.385034	0.823087	0.119018
	C179	C	0.614230	0.824502	0.882700
	C180	C	0.384897	0.881319	0.176535
	C181	C	0.614456	0.118037	0.176127
	C182	C	0.384981	0.118402	0.823785
	C183	C	0.614031	0.881480	0.824011
	C184	C	0.882014	0.175849	0.384317
	C185	C	0.118109	0.176182	0.615039
	C186	C	0.118489	0.823641	0.385128
	C187	C	0.881967	0.824289	0.615065
	C188	C	0.176543	0.384934	0.881471
	C189	C	0.176365	0.614999	0.118379
	C190	C	0.823647	0.384890	0.118764
	C191	C	0.823918	0.615269	0.881484
	C192	C	0.400358	0.094223	0.599438
	C193	C	0.599973	0.905469	0.599538
	C194	C	0.599994	0.094501	0.400327
	C195	C	0.400039	0.905225	0.400513
	C196	C	0.600276	0.400335	0.094830
	C197	C	0.600489	0.599528	0.905700
	C198	C	0.400138	0.598820	0.094599
	C199	C	0.400293	0.400818	0.905930
	C200	C	0.093569	0.600212	0.399422
	C201	C	0.906272	0.599909	0.600459
	C202	C	0.094042	0.399786	0.600372
	C203	C	0.906357	0.400059	0.400042
	C204	C	0.900393	0.594234	0.099295
	C205	C	0.100508	0.405286	0.099724
	C206	C	0.100666	0.594591	0.900931
	C207	C	0.900416	0.405561	0.900866
	C208	C	0.099546	0.900974	0.594299
	C209	C	0.100095	0.099368	0.405633
	C210	C	0.899738	0.099783	0.594263
	C211	C	0.900100	0.900349	0.404997
	C212	C	0.593429	0.100122	0.899467
	C213	C	0.406051	0.100250	0.099932
	C214	C	0.593467	0.899724	0.100209
	C215	C	0.405301	0.899941	0.899622
	Zn216	Zn	0.499318	-0.000099	0.749368
	Zn217	Zn	0.499754	-0.000201	0.250726
	Zn218	Zn	0.750446	0.500024	0.000090
	Zn219	Zn	0.250564	0.499751	0.000094
	Zn220	Zn	-0.000147	0.750667	0.499964
	Zn221	Zn	0.000162	0.249347	0.499493
	Zn222	Zn	0.000314	0.500363	0.750701
	Zn223	Zn	-0.000287	0.499753	0.249411
	Zn224	Zn	0.499291	0.749639	0.000240
	Zn225	Zn	0.499917	0.250620	0.000110
	Zn226	Zn	0.749796	0.000352	0.500111
	Zn227	Zn	0.249957	-0.000192	0.499910
	N228	N	0.415147	0.961988	0.677062
	N229	N	0.584382	0.037599	0.677397
	N230	N	0.585043	0.962390	0.322413
	N231	N	0.415502	0.037797	0.322797
	N232	N	0.679352	0.413681	0.963409
	N233	N	0.679030	0.585897	0.037195
	N234	N	0.321417	0.585666	0.963128
	N235	N	0.321634	0.414451	0.037658
	N236	N	0.962427	0.678907	0.414277
	N237	N	0.037201	0.678380	0.585567
	N238	N	0.962714	0.321759	0.584787
	N239	N	0.037618	0.321790	0.414563
	N240	N	0.962520	0.414815	0.678419
	N241	N	0.037660	0.585071	0.678151
	N242	N	0.962378	0.585603	0.320798
	N243	N	0.037333	0.414842	0.321368
	N244	N	0.415861	0.676549	0.962333
	N245	N	0.584464	0.677341	0.037800
	N246	N	0.584428	0.322867	0.962571
	N247	N	0.415569	0.322960	0.038019
	N248	N	0.678512	0.962817	0.414473
	N249	N	0.678870	0.037012	0.586167
	N250	N	0.321325	0.962786	0.585680
	N251	N	0.321185	0.036928	0.413952
	N252	N	0.915484	0.461988	0.176572
	N253	N	0.084489	0.537790	0.176926
	N254	N	0.084947	0.462621	0.822935
	N255	N	0.915383	0.537891	0.822704
	N256	N	0.178415	0.914330	0.462589
	N257	N	0.179045	0.085901	0.537108
	N258	N	0.821233	0.086194	0.462523
	N259	N	0.821395	0.914065	0.536888
	N260	N	0.462536	0.178727	0.914268
	N261	N	0.537296	0.178502	0.085310
	N262	N	0.462424	0.821060	0.085925
	N263	N	0.536819	0.822244	0.915559
	N264	N	0.461943	0.914829	0.178334
	N265	N	0.537315	0.084895	0.178128
	N266	N	0.462124	0.085078	0.821480
	N267	N	0.536652	0.914372	0.821374
	N268	N	0.915541	0.177331	0.461814
	N269	N	0.084544	0.177436	0.537673
	N270	N	0.084674	0.822543	0.462435
	N271	N	0.915494	0.822894	0.537516
	N272	N	0.178891	0.462626	0.914783
	N273	N	0.179024	0.536948	0.085815
	N274	N	0.821279	0.462777	0.086091
	N275	N	0.822048	0.537441	0.914853
