data_Molecule from HDF5

_cell_length_a		16.204203
_cell_length_b		16.343909
_cell_length_c		16.351104
_cell_angle_alpha	89.958248
_cell_angle_beta	90.139408
_cell_angle_gamma	90.040426
_symmetry_space_group_name_H-M	'P 1'
_symmetry_Int_Tables_number		1

loop_
	_symmetry_equiv_pos_as_xyz
	x,y,z

loop_
	_atom_site_label
	_atom_site_type_symbol
	_atom_site_fract_x
	_atom_site_fract_y
	_atom_site_fract_z
	H0	H	0.404942	0.846932	0.704293
	H1	H	0.604294	0.172428	0.705210
	H2	H	0.603999	0.847535	0.274237
	H3	H	0.402693	0.172364	0.272817
	H4	H	0.716293	0.412153	0.827178
	H5	H	0.717512	0.607056	0.154168
	H6	H	0.288317	0.606627	0.826564
	H7	H	0.290226	0.412145	0.153695
	H8	H	0.839758	0.724156	0.390475
	H9	H	0.168309	0.722529	0.588397
	H10	H	0.839335	0.294740	0.587623
	H11	H	0.167970	0.295369	0.391132
	H12	H	0.838420	0.410631	0.703333
	H13	H	0.167075	0.609363	0.706064
	H14	H	0.839178	0.609881	0.274891
	H15	H	0.167710	0.411557	0.275749
	H16	H	0.401914	0.725613	0.827124
	H17	H	0.604642	0.726682	0.151969
	H18	H	0.601628	0.294686	0.826679
	H19	H	0.403744	0.293430	0.152158
	H20	H	0.718992	0.846948	0.391519
	H21	H	0.717512	0.173682	0.586965
	H22	H	0.290379	0.845768	0.585931
	H23	H	0.289135	0.173174	0.391789
	H24	H	0.903849	0.347404	0.205448
	H25	H	0.103356	0.673033	0.205688
	H26	H	0.100889	0.346827	0.775181
	H27	H	0.901962	0.672625	0.773227
	H28	H	0.216773	0.913446	0.325637
	H29	H	0.217420	0.106000	0.652842
	H30	H	0.790414	0.106839	0.325571
	H31	H	0.790574	0.913106	0.653376
	H32	H	0.338340	0.222047	0.891000
	H33	H	0.667525	0.223657	0.087898
	H34	H	0.339099	0.795429	0.087553
	H35	H	0.668068	0.795787	0.892321
	H36	H	0.339934	0.910246	0.204721
	H37	H	0.667205	0.109087	0.204450
	H38	H	0.339142	0.107225	0.774216
	H39	H	0.668451	0.910533	0.775429
	H40	H	0.904317	0.225703	0.327450
	H41	H	0.104065	0.225340	0.652608
	H42	H	0.103238	0.793407	0.326254
	H43	H	0.905295	0.794211	0.652851
	H44	H	0.215212	0.345932	0.893895
	H45	H	0.218337	0.672756	0.087707
	H46	H	0.790697	0.345578	0.086597
	H47	H	0.788873	0.673741	0.893484
	H48	H	0.404404	0.126034	0.578049
	H49	H	0.593478	0.894287	0.583397
	H50	H	0.593769	0.124905	0.398360
	H51	H	0.408408	0.892520	0.392116
	H52	H	0.596572	0.425461	0.103273
	H53	H	0.598436	0.604874	0.872762
	H54	H	0.414013	0.599372	0.103892
	H55	H	0.406453	0.423397	0.874516
	H56	H	0.120856	0.604420	0.398084
	H57	H	0.883773	0.609491	0.585226
	H58	H	0.120666	0.409657	0.577582
	H59	H	0.884984	0.419577	0.389496
	H60	H	0.116305	0.425628	0.578645
	H61	H	0.888800	0.602410	0.574027
	H62	H	0.119149	0.600187	0.399581
	H63	H	0.885060	0.408858	0.400023
	H64	H	0.413318	0.606405	0.105521
	H65	H	0.595235	0.598604	0.875805
	H66	H	0.586305	0.410859	0.104680
	H67	H	0.416837	0.410906	0.874690
	H68	H	0.600449	0.126753	0.396920
	H69	H	0.597568	0.894838	0.580840
	H70	H	0.409874	0.128343	0.590013
	H71	H	0.415356	0.895255	0.395347
	H72	H	0.903901	0.628610	0.087157
	H73	H	0.090598	0.396646	0.081622
	H74	H	0.097620	0.625231	0.900029
	H75	H	0.911424	0.394910	0.895261
	H76	H	0.101021	0.916152	0.605834
	H77	H	0.087200	0.092539	0.379537
	H78	H	0.904375	0.108681	0.609593
	H79	H	0.915778	0.897240	0.370225
	H80	H	0.619543	0.098766	0.896431
	H81	H	0.392021	0.091114	0.073926
	H82	H	0.620418	0.917404	0.082570
	H83	H	0.385147	0.913474	0.892829
	H84	H	0.620296	0.917268	0.081280
	H85	H	0.382363	0.099512	0.096402
	H86	H	0.621822	0.105044	0.893449
	H87	H	0.388799	0.915955	0.901147
	H88	H	0.909685	0.095191	0.603724
	H89	H	0.090310	0.117729	0.371151
	H90	H	0.094100	0.918123	0.603303
	H91	H	0.892268	0.923860	0.370599
	H92	H	0.097295	0.627300	0.893012
	H93	H	0.100440	0.393806	0.081324
	H94	H	0.918030	0.624951	0.087069
	H95	H	0.908289	0.393642	0.897116
	H96	H	0.417517	0.123370	0.579602
	H97	H	0.597933	0.893076	0.585147
	H98	H	0.595824	0.126695	0.391799
	H99	H	0.409072	0.894918	0.400071
	H100	H	0.603461	0.410238	0.109446
	H101	H	0.590947	0.604698	0.874866
	H102	H	0.407726	0.602052	0.106202
	H103	H	0.401423	0.409156	0.869811
	H104	H	0.120339	0.600719	0.395557
	H105	H	0.886993	0.595799	0.586344
	H106	H	0.122945	0.417870	0.592111
	H107	H	0.890460	0.422681	0.402697
	H108	H	0.910051	0.623612	0.074821
	H109	H	0.094896	0.392322	0.090195
	H110	H	0.091324	0.624663	0.896275
	H111	H	0.908487	0.392670	0.893424
	H112	H	0.095906	0.910852	0.605828
	H113	H	0.110978	0.100874	0.370146
	H114	H	0.919349	0.107105	0.603977
	H115	H	0.925895	0.928809	0.382441
	H116	H	0.619474	0.104745	0.900660
	H117	H	0.384035	0.115955	0.076555
	H118	H	0.619684	0.918415	0.081417
	H119	H	0.387700	0.922208	0.894467
	C120	C	0.382305	0.017962	0.610733
	C121	C	0.625281	1.001839	0.611417
	C122	C	0.625157	0.018286	0.367721
	C123	C	0.382069	1.001831	0.367619
	C124	C	0.623821	0.387516	-0.001812
	C125	C	0.624474	0.631153	0.982091
	C126	C	0.381856	0.631059	-0.002194
	C127	C	0.380715	0.387028	0.981344
	C128	C	0.011825	0.630769	0.368693
	C129	C	0.995330	0.631132	0.611025
	C130	C	0.011371	0.389094	0.610795
	C131	C	0.995090	0.388498	0.368758
	C132	C	0.881789	0.517822	0.111441
	C133	C	0.124570	0.501852	0.112248
	C134	C	0.123808	0.517893	0.868294
	C135	C	0.880411	0.501824	0.867581
	C136	C	0.125526	0.886845	0.497130
	C137	C	0.125098	0.131659	0.481493
	C138	C	0.882646	0.131694	0.497838
	C139	C	0.882274	0.887752	0.481871
	C140	C	0.511512	0.130738	0.868086
	C141	C	0.494658	0.130898	0.110743
	C142	C	0.511822	0.888446	0.110667
	C143	C	0.495771	0.888326	0.867837
	C144	C	0.384752	0.895265	0.665833
	C145	C	0.624191	0.123932	0.667030
	C146	C	0.623715	0.895982	0.312266
	C147	C	0.383366	0.124063	0.311655
	C148	C	0.678697	0.391023	0.875650
	C149	C	0.680268	0.628469	0.104846
	C150	C	0.326114	0.627868	0.875232
	C151	C	0.326888	0.390569	0.104451
	C152	C	0.888580	0.686475	0.370478
	C153	C	0.118943	0.685584	0.608919
	C154	C	0.888108	0.332986	0.608317
	C155	C	0.118917	0.333636	0.371327
	C156	C	0.887762	0.390465	0.665890
	C157	C	0.118571	0.628980	0.667120
	C158	C	0.888162	0.629398	0.313160
	C159	C	0.118876	0.391401	0.313817
	C160	C	0.382649	0.686797	0.875458
	C161	C	0.623764	0.687512	0.103929
	C162	C	0.621834	0.332453	0.875472
	C163	C	0.383032	0.331490	0.103691
	C164	C	0.680649	0.895540	0.370670
	C165	C	0.680554	0.124630	0.608219
	C166	C	0.327850	0.894784	0.607219
	C167	C	0.326743	0.124454	0.370612
	C168	C	0.883517	0.395787	0.167316
	C169	C	0.123369	0.624296	0.167576
	C170	C	0.121349	0.395156	0.813478
	C171	C	0.882160	0.624308	0.812119
	C172	C	0.179459	0.891677	0.374203
	C173	C	0.180086	0.127738	0.604201
	C174	C	0.827476	0.128213	0.374846
	C175	C	0.827502	0.891207	0.604478
	C176	C	0.387412	0.184767	0.870401
	C177	C	0.618448	0.185819	0.108207
	C178	C	0.388328	0.833087	0.108170
	C179	C	0.619006	0.833112	0.870939
	C180	C	0.388612	0.890343	0.166088
	C181	C	0.618337	0.129034	0.166230
	C182	C	0.387932	0.127702	0.812501
	C183	C	0.619297	0.890533	0.813241
	C184	C	0.884242	0.187051	0.375604
	C185	C	0.123721	0.186885	0.603902
	C186	C	0.123363	0.831945	0.374682
	C187	C	0.885027	0.832749	0.604237
	C188	C	0.178061	0.394879	0.872502
	C189	C	0.180790	0.624138	0.109322
	C190	C	0.827614	0.394735	0.107916
	C191	C	0.825880	0.624755	0.871572
	C192	C	0.404185	0.103725	0.588946
	C193	C	0.602756	0.916174	0.589353
	C194	C	0.603197	0.103883	0.389300
	C195	C	0.404499	0.916445	0.389427
	C196	C	0.601818	0.409056	0.083665
	C197	C	0.601674	0.608978	0.896728
	C198	C	0.404859	0.609009	0.083078
	C199	C	0.402021	0.408368	0.895254
	C200	C	0.097912	0.608421	0.391067
	C201	C	0.908837	0.609078	0.588510
	C202	C	0.097623	0.411256	0.589307
	C203	C	0.909061	0.410527	0.390875
	C204	C	0.904116	0.603633	0.089461
	C205	C	0.102061	0.416364	0.090707
	C206	C	0.101905	0.603614	0.889857
	C207	C	0.902544	0.415990	0.888996
	C208	C	0.103553	0.908558	0.582917
	C209	C	0.102704	0.110079	0.395675
	C210	C	0.904567	0.109904	0.583669
	C211	C	0.904627	0.909886	0.396345
	C212	C	0.597780	0.109195	0.890303
	C213	C	0.408443	0.108904	0.088630
	C214	C	0.597968	0.911133	0.088483
	C215	C	0.409507	0.910543	0.889620
	Zn216	Zn	0.503811	0.009844	0.739667
	Zn217	Zn	0.503796	0.009984	0.238942
	Zn218	Zn	0.752699	0.509602	-0.009435
	Zn219	Zn	0.252955	0.509399	-0.009972
	Zn220	Zn	0.003613	0.758371	0.489303
	Zn221	Zn	0.003777	0.260366	0.489875
	Zn222	Zn	0.002733	0.510194	0.739088
	Zn223	Zn	0.002804	0.510253	0.240590
	Zn224	Zn	0.503445	0.760005	-0.010575
	Zn225	Zn	0.502451	0.258796	-0.010275
	Zn226	Zn	0.753221	0.010253	0.489721
	Zn227	Zn	0.253378	0.009694	0.489501
	N228	N	0.417707	0.972788	0.668156
	N229	N	0.590577	0.046551	0.669199
	N230	N	0.589912	0.973178	0.310388
	N231	N	0.416745	0.046809	0.309605
	N232	N	0.680328	0.424380	0.952790
	N233	N	0.680635	0.594002	0.028097
	N234	N	0.325575	0.593685	0.952141
	N235	N	0.325404	0.424449	0.027296
	N236	N	0.966349	0.687206	0.404550
	N237	N	0.041179	0.687065	0.575008
	N238	N	0.965829	0.331982	0.574759
	N239	N	0.041107	0.331944	0.404737
	N240	N	0.965426	0.424822	0.667270
	N241	N	0.040554	0.595616	0.668394
	N242	N	0.965733	0.595172	0.312049
	N243	N	0.040941	0.424748	0.311970
	N244	N	0.416695	0.688912	0.952643
	N245	N	0.589993	0.689403	0.026556
	N246	N	0.588005	0.330388	0.952698
	N247	N	0.415749	0.329364	0.026297
	N248	N	0.681429	0.972436	0.404711
	N249	N	0.681080	0.047661	0.574123
	N250	N	0.326204	0.972021	0.573529
	N251	N	0.325546	0.047487	0.404759
	N252	N	0.916661	0.473269	0.169349
	N253	N	0.089327	0.547273	0.169555
	N254	N	0.088323	0.472660	0.810897
	N255	N	0.915366	0.546804	0.809607
	N256	N	0.181125	0.924791	0.451586
	N257	N	0.181008	0.094090	0.527186
	N258	N	0.826314	0.094421	0.452048
	N259	N	0.825759	0.924820	0.527280
	N260	N	0.465180	0.186857	0.904182
	N261	N	0.540596	0.187043	0.074340
	N262	N	0.466185	0.831649	0.074508
	N263	N	0.541224	0.831920	0.904515
	N264	N	0.466450	0.923928	0.167780
	N265	N	0.540492	0.095502	0.167744
	N266	N	0.465959	0.094632	0.811159
	N267	N	0.541449	0.923919	0.810907
	N268	N	0.917448	0.189322	0.452985
	N269	N	0.090368	0.189334	0.526394
	N270	N	0.090649	0.829029	0.452192
	N271	N	0.918184	0.830581	0.526859
	N272	N	0.179632	0.472258	0.905871
	N273	N	0.181482	0.547152	0.075398
	N274	N	0.826399	0.471820	0.073952
	N275	N	0.824817	0.547614	0.905378
	O276	O	0.525910	-0.464456	1.441758
	H277	H	0.522345	-0.458504	1.442836
	H278	H	0.528169	-0.462660	1.433779
	O279	O	0.456115	0.552576	0.491707
	H280	H	0.446598	0.558527	0.502526
	H281	H	0.453902	0.550733	0.493113
	O282	O	-0.438230	0.468872	1.533569
	H283	H	-0.437809	0.466004	1.528682
	H284	H	-0.434351	0.468509	1.542093
	O285	O	0.501353	0.543988	0.485781
	H286	H	0.493763	0.545860	0.484225
	H287	H	0.501145	0.549846	0.485864
	O288	O	0.469131	0.531266	0.481198
	H289	H	0.463039	0.532184	0.487989
	H290	H	0.468970	0.538416	0.474329
	O291	O	0.510411	0.532510	0.506381
	H292	H	0.512679	0.525750	0.498000
	H293	H	0.519598	0.522775	0.506966
	O294	O	0.528382	0.541055	0.515415
	H295	H	0.537432	0.542310	0.513168
	H296	H	0.534226	0.537087	0.523463
	O297	O	0.609804	-0.362515	0.406982
	H298	H	0.606935	-0.356656	0.398792
	H299	H	0.615131	-0.362657	0.406973
