data_Molecule from HDF5

_cell_length_a		16.434121
_cell_length_b		16.541586
_cell_length_c		16.665112
_cell_angle_alpha	89.912774
_cell_angle_beta	90.074662
_cell_angle_gamma	90.170837
_symmetry_space_group_name_H-M	'P 1'
_symmetry_Int_Tables_number		1

loop_
	_symmetry_equiv_pos_as_xyz
	x,y,z

loop_
	_atom_site_label
	_atom_site_type_symbol
	_atom_site_fract_x
	_atom_site_fract_y
	_atom_site_fract_z
	H0	H	0.367602	0.849240	0.709347
	H1	H	0.580673	0.162847	0.711486
	H2	H	0.579124	0.849488	0.266390
	H3	H	0.367014	0.160968	0.265908
	H4	H	0.695960	0.400852	0.832083
	H5	H	0.697016	0.613346	0.144274
	H6	H	0.253168	0.607156	0.833135
	H7	H	0.251745	0.399960	0.145505
	H8	H	0.812417	0.724761	0.384271
	H9	H	0.130835	0.723825	0.589710
	H10	H	0.812929	0.284641	0.593005
	H11	H	0.129126	0.285408	0.384675
	H12	H	0.813669	0.398407	0.710071
	H13	H	0.131262	0.607679	0.706053
	H14	H	0.813668	0.610805	0.267044
	H15	H	0.127472	0.400082	0.266219
	H16	H	0.367909	0.727179	0.833890
	H17	H	0.581946	0.731137	0.143861
	H18	H	0.582597	0.281143	0.833991
	H19	H	0.368483	0.283366	0.144460
	H20	H	0.690803	0.846693	0.386598
	H21	H	0.696375	0.162967	0.594101
	H22	H	0.253933	0.848281	0.589906
	H23	H	0.254889	0.164076	0.385953
	H24	H	0.867281	0.350055	0.209679
	H25	H	0.081702	0.661265	0.212973
	H26	H	0.076020	0.347990	0.769290
	H27	H	0.868811	0.661770	0.767119
	H28	H	0.193015	0.903298	0.331890
	H29	H	0.194012	0.110530	0.644467
	H30	H	0.749661	0.110720	0.333671
	H31	H	0.752745	0.901879	0.644627
	H32	H	0.314812	0.226576	0.884493
	H33	H	0.629585	0.228175	0.094680
	H34	H	0.314090	0.785547	0.092754
	H35	H	0.629458	0.785945	0.885645
	H36	H	0.316353	0.897254	0.211970
	H37	H	0.628212	0.113647	0.212744
	H38	H	0.315163	0.111699	0.767747
	H39	H	0.629133	0.900297	0.767258
	H40	H	0.866500	0.227844	0.333637
	H41	H	0.078984	0.228933	0.643635
	H42	H	0.079936	0.782943	0.332259
	H43	H	0.870071	0.784779	0.644012
	H44	H	0.189270	0.346426	0.889364
	H45	H	0.194101	0.662980	0.093479
	H46	H	0.752787	0.349279	0.090543
	H47	H	0.755391	0.664061	0.885960
	H48	H	0.385725	0.117387	0.575893
	H49	H	0.559544	0.894520	0.580760
	H50	H	0.560428	0.117398	0.400708
	H51	H	0.389331	0.895942	0.401163
	H52	H	0.560930	0.415843	0.098192
	H53	H	0.563193	0.590655	0.879662
	H54	H	0.382309	0.596319	0.102971
	H55	H	0.378557	0.411614	0.875063
	H56	H	0.080845	0.587916	0.403438
	H57	H	0.859037	0.590090	0.581524
	H58	H	0.085447	0.413543	0.580215
	H59	H	0.859529	0.422597	0.397478
	H60	H	0.083002	0.417019	0.575383
	H61	H	0.856150	0.597849	0.579962
	H62	H	0.085910	0.593761	0.392474
	H63	H	0.856671	0.413072	0.397908
	H64	H	0.383859	0.593875	0.100454
	H65	H	0.555781	0.597792	0.879868
	H66	H	0.562567	0.419782	0.098197
	H67	H	0.380796	0.421721	0.878696
	H68	H	0.559747	0.116848	0.399740
	H69	H	0.560410	0.894793	0.578469
	H70	H	0.379695	0.120343	0.578283
	H71	H	0.377703	0.892461	0.403814
	H72	H	0.885308	0.619067	0.077535
	H73	H	0.060687	0.393337	0.078306
	H74	H	0.062191	0.616151	0.902696
	H75	H	0.889588	0.397448	0.906802
	H76	H	0.050550	0.916972	0.594437
	H77	H	0.058735	0.091984	0.378768
	H78	H	0.880629	0.094955	0.602188
	H79	H	0.882544	0.914207	0.376027
	H80	H	0.587218	0.094489	0.894208
	H81	H	0.362275	0.093478	0.072139
	H82	H	0.584516	0.919633	0.076875
	H83	H	0.358408	0.913839	0.901142
	H84	H	0.584839	0.919205	0.078058
	H85	H	0.360831	0.089836	0.079594
	H86	H	0.586431	0.099003	0.903352
	H87	H	0.360438	0.921071	0.899820
	H88	H	0.885717	0.090539	0.597640
	H89	H	0.059421	0.100518	0.376851
	H90	H	0.063534	0.904330	0.602730
	H91	H	0.880337	0.914336	0.374825
	H92	H	0.068817	0.621049	0.894734
	H93	H	0.058920	0.394285	0.079680
	H94	H	0.884881	0.619567	0.078646
	H95	H	0.873209	0.390403	0.901540
	H96	H	0.385790	0.119802	0.582579
	H97	H	0.562474	0.894274	0.579809
	H98	H	0.559417	0.116230	0.400742
	H99	H	0.382732	0.890492	0.392348
	H100	H	0.558550	0.419201	0.096723
	H101	H	0.565059	0.600103	0.875419
	H102	H	0.385694	0.596926	0.100950
	H103	H	0.388428	0.413583	0.879222
	H104	H	0.085078	0.600678	0.403982
	H105	H	0.860361	0.593544	0.573507
	H106	H	0.084023	0.419365	0.580598
	H107	H	0.860729	0.417586	0.405815
	H108	H	0.886368	0.619131	0.078949
	H109	H	0.059266	0.395165	0.077355
	H110	H	0.058061	0.618331	0.892260
	H111	H	0.887433	0.390493	0.889310
	H112	H	0.068785	0.923071	0.599446
	H113	H	0.065993	0.095636	0.376054
	H114	H	0.887576	0.097690	0.600041
	H115	H	0.881678	0.916403	0.376316
	H116	H	0.582996	0.089254	0.901952
	H117	H	0.358560	0.097577	0.078276
	H118	H	0.584875	0.918537	0.076911
	H119	H	0.357344	0.917389	0.894355
	C120	C	0.351180	0.014958	0.610235
	C121	C	0.594043	0.998061	0.611160
	C122	C	0.592857	0.013391	0.368253
	C123	C	0.351088	0.996540	0.367046
	C124	C	0.594471	0.384877	-0.004152
	C125	C	0.594833	0.628971	0.981065
	C126	C	0.351660	0.626977	-0.001585
	C127	C	0.351123	0.383997	0.981054
	C128	C	-0.020015	0.626649	0.367229
	C129	C	0.963377	0.625757	0.609119
	C130	C	-0.020154	0.383582	0.610478
	C131	C	0.962892	0.385209	0.368227
	C132	C	0.851924	0.515308	0.109837
	C133	C	0.093399	0.497268	0.111022
	C134	C	0.093737	0.513682	0.867074
	C135	C	0.851766	0.496760	0.867241
	C136	C	0.093775	0.883546	0.495815
	C137	C	0.094186	0.128177	0.479869
	C138	C	0.851286	0.126457	0.497221
	C139	C	0.850572	0.883478	0.479237
	C140	C	0.481296	0.127218	0.867442
	C141	C	0.464142	0.126514	0.109409
	C142	C	0.481003	0.885348	0.109726
	C143	C	0.463076	0.885194	0.867480
	C144	C	0.349476	0.896340	0.669028
	C145	C	0.597929	0.115993	0.671064
	C146	C	0.596286	0.895897	0.307459
	C147	C	0.349074	0.114604	0.306833
	C148	C	0.655482	0.382395	0.879005
	C149	C	0.656776	0.631796	0.097388
	C150	C	0.292559	0.627458	0.879903
	C151	C	0.291796	0.381668	0.098544
	C152	C	0.860561	0.685989	0.365198
	C153	C	0.083163	0.684459	0.608919
	C154	C	0.860702	0.323880	0.611844
	C155	C	0.081639	0.325319	0.366144
	C156	C	0.861274	0.380551	0.670324
	C157	C	0.083351	0.626861	0.666825
	C158	C	0.861042	0.629147	0.306973
	C159	C	0.081047	0.382244	0.307499
	C160	C	0.349858	0.686484	0.880438
	C161	C	0.599285	0.690343	0.097296
	C162	C	0.598913	0.322784	0.879834
	C163	C	0.349648	0.323583	0.098030
	C164	C	0.651898	0.894631	0.367272
	C165	C	0.655525	0.115837	0.612893
	C166	C	0.292750	0.895837	0.610052
	C167	C	0.293217	0.115914	0.366269
	C168	C	0.848779	0.397027	0.169517
	C169	C	0.098305	0.614627	0.171861
	C170	C	0.094746	0.395015	0.809132
	C171	C	0.850084	0.615032	0.807206
	C172	C	0.153530	0.883522	0.378756
	C173	C	0.154430	0.129769	0.597418
	C174	C	0.789870	0.129320	0.380230
	C175	C	0.792381	0.882494	0.597483
	C176	C	0.362551	0.187191	0.865333
	C177	C	0.582468	0.187516	0.112668
	C178	C	0.361918	0.825132	0.111618
	C179	C	0.582005	0.825607	0.866490
	C180	C	0.363056	0.880983	0.170740
	C181	C	0.581752	0.130842	0.171433
	C182	C	0.362666	0.130225	0.807177
	C183	C	0.581964	0.882633	0.807834
	C184	C	0.848033	0.187256	0.380248
	C185	C	0.097123	0.188442	0.596915
	C186	C	0.097231	0.823699	0.378919
	C187	C	0.850242	0.824301	0.597150
	C188	C	0.150694	0.394120	0.869000
	C189	C	0.154492	0.615327	0.112532
	C190	C	0.791974	0.396628	0.110539
	C191	C	0.794017	0.616150	0.866398
	C192	C	0.376395	0.097637	0.585913
	C193	C	0.568168	0.915988	0.586538
	C194	C	0.567240	0.095328	0.393240
	C195	C	0.376022	0.914457	0.391892
	C196	C	0.568238	0.410961	0.076627
	C197	C	0.568636	0.603549	0.899545
	C198	C	0.376574	0.602542	0.080210
	C199	C	0.375579	0.408743	0.899020
	C200	C	0.062517	0.601313	0.392616
	C201	C	0.880114	0.600866	0.585175
	C202	C	0.062632	0.409224	0.585655
	C203	C	0.880498	0.410719	0.393163
	C204	C	0.877784	0.597763	0.085464
	C205	C	0.067093	0.415399	0.085789
	C206	C	0.069906	0.596838	0.889933
	C207	C	0.876259	0.414372	0.891981
	C208	C	0.068280	0.907943	0.577682
	C209	C	0.068705	0.103205	0.398400
	C210	C	0.877168	0.101436	0.578547
	C211	C	0.874451	0.908019	0.396959
	C212	C	0.563941	0.101518	0.892634
	C213	C	0.381910	0.100931	0.084016
	C214	C	0.563366	0.911565	0.084504
	C215	C	0.380371	0.910252	0.891423
	Zn216	Zn	0.471946	0.007022	0.739076
	Zn217	Zn	0.472655	0.005175	0.238545
	Zn218	Zn	0.723570	0.507119	-0.011717
	Zn219	Zn	0.221728	0.505249	-0.010437
	Zn220	Zn	-0.027933	0.754460	0.487150
	Zn221	Zn	-0.028533	0.256612	0.489057
	Zn222	Zn	-0.027417	0.504991	0.738244
	Zn223	Zn	-0.027888	0.506253	0.239173
	Zn224	Zn	0.472242	0.757181	-0.010252
	Zn225	Zn	0.473014	0.255139	-0.011647
	Zn226	Zn	0.721997	0.005242	0.488801
	Zn227	Zn	0.222691	0.005829	0.488402
	N228	N	0.384763	0.971686	0.669419
	N229	N	0.560783	0.041526	0.670539
	N230	N	0.560394	0.970839	0.307709
	N231	N	0.384031	0.039243	0.306620
	N232	N	0.652730	0.420714	0.952016
	N233	N	0.654118	0.594384	0.023975
	N234	N	0.293150	0.591387	0.954207
	N235	N	0.292606	0.418515	0.024746
	N236	N	0.935551	0.684581	0.401858
	N237	N	0.007476	0.684127	0.573694
	N238	N	0.935669	0.325458	0.575546
	N239	N	0.007228	0.327118	0.403349
	N240	N	0.936560	0.417031	0.669702
	N241	N	0.007797	0.591178	0.667303
	N242	N	0.936268	0.593064	0.307929
	N243	N	0.006201	0.418742	0.308591
	N244	N	0.385388	0.686607	0.955091
	N245	N	0.561453	0.688671	0.023756
	N246	N	0.561482	0.324288	0.953508
	N247	N	0.385866	0.324812	0.023835
	N248	N	0.650135	0.968862	0.404205
	N249	N	0.653171	0.041476	0.576361
	N250	N	0.293600	0.970798	0.574352
	N251	N	0.294317	0.041585	0.402990
	N252	N	0.884941	0.472048	0.169363
	N253	N	0.061134	0.540247	0.171043
	N254	N	0.060254	0.470307	0.807816
	N255	N	0.885004	0.539709	0.807279
	N256	N	0.151337	0.920294	0.452482
	N257	N	0.152782	0.093037	0.523629
	N258	N	0.791905	0.092148	0.453907
	N259	N	0.792290	0.918324	0.523126
	N260	N	0.437493	0.185652	0.901853
	N261	N	0.508388	0.184909	0.074824
	N262	N	0.436286	0.827812	0.074308
	N263	N	0.507023	0.826858	0.902613
	N264	N	0.438048	0.917835	0.169647
	N265	N	0.507279	0.093279	0.169596
	N266	N	0.437795	0.093820	0.808231
	N267	N	0.506990	0.919024	0.808192
	N268	N	0.885338	0.185750	0.453937
	N269	N	0.060355	0.187722	0.522870
	N270	N	0.060729	0.823623	0.452859
	N271	N	0.885451	0.824642	0.522422
	N272	N	0.150427	0.469177	0.904247
	N273	N	0.151590	0.541308	0.075236
	N274	N	0.793779	0.471153	0.074396
	N275	N	0.794839	0.541663	0.902885
	O276	O	0.946019	1.213129	-0.223961
	H277	H	0.961271	1.224635	-0.240718
	H278	H	0.969897	1.208210	-0.208986
	O279	O	0.178699	0.219895	1.201994
	H280	H	0.193275	0.197393	1.217849
	H281	H	0.190278	0.224074	1.202652
	O282	O	-0.239591	0.063956	1.056839
	H283	H	-0.224055	0.052664	1.060376
	H284	H	-0.252841	0.042277	1.073411
	O285	O	0.505272	0.667782	0.705568
	H286	H	0.525826	0.672805	0.705924
	H287	H	0.500633	0.674500	0.723808
	O288	O	0.927042	0.055233	2.167511
	H289	H	0.927122	0.058401	2.178933
	H290	H	0.924350	0.049874	2.163636
	O291	O	1.175498	-0.194287	-0.210279
	H292	H	1.200522	-0.212938	-0.239977
	H293	H	1.130215	-0.203358	-0.210248
	O294	O	0.676933	0.301999	0.283304
	H295	H	0.681799	0.346871	0.283206
	H296	H	0.710264	0.275574	0.254668
	O297	O	0.257494	-0.529921	-0.293772
	H298	H	0.264606	-0.553795	-0.300177
	H299	H	0.225763	-0.528326	-0.272872
	O300	O	0.189230	0.037849	0.203948
	H301	H	0.207686	0.020766	0.193690
	H302	H	0.200159	0.026626	0.209072
	O303	O	-0.218106	-0.186308	-0.201792
	H304	H	-0.209595	-0.180211	-0.179613
	H305	H	-0.190756	-0.162867	-0.199480
	O306	O	1.500797	0.321728	-0.324744
	H307	H	1.509344	0.328127	-0.325115
	H308	H	1.508199	0.319682	-0.305237
	O309	O	-0.324997	0.709998	-0.308685
	H310	H	-0.307035	0.735213	-0.280263
	H311	H	-0.328870	0.665855	-0.297785
	O312	O	0.253018	0.594828	0.371742
	H313	H	0.227286	0.607941	0.342426
	H314	H	0.270079	0.613195	0.364463
	O315	O	0.413125	0.506772	0.704117
	H316	H	0.420938	0.493477	0.720843
	H317	H	0.411530	0.494818	0.695909
	O318	O	1.189522	0.983592	-0.210417
	H319	H	1.195695	0.968182	-0.226467
	H320	H	1.206850	0.976711	-0.217485
	O321	O	-0.214063	1.191870	0.802574
	H322	H	-0.182102	1.201636	0.814165
	H323	H	-0.198190	1.200881	0.831784
	O324	O	1.270183	0.299810	0.695596
	H325	H	1.272710	0.297201	0.655528
	H326	H	1.289896	0.302716	0.703207
	O327	O	-0.248523	1.034187	0.767356
	H328	H	-0.280058	1.043595	0.733595
	H329	H	-0.240376	1.081893	0.776960
	O330	O	0.487341	0.636481	0.345891
	H331	H	0.496213	0.645107	0.342922
	H332	H	0.489957	0.628389	0.355290
	O333	O	0.474789	1.701085	1.515565
	H334	H	0.476471	1.697185	1.513553
	H335	H	0.484896	1.708652	1.531062
	O336	O	0.368419	0.526612	0.397606
	H337	H	0.370192	0.513941	0.398801
	H338	H	0.352869	0.511500	0.392267
	O339	O	0.328898	0.343155	0.534746
	H340	H	0.317268	0.364197	0.520222
	H341	H	0.315541	0.322578	0.538937
	O342	O	-0.023711	0.799940	-0.017512
	H343	H	-0.000582	0.809392	-0.028168
	H344	H	-0.022603	0.798643	-0.021991
	O345	O	0.306778	0.678610	0.683617
	H346	H	0.328255	0.649071	0.685787
	H347	H	0.315251	0.673703	0.646023
	O348	O	0.285000	0.854827	0.138752
	H349	H	0.291270	0.829884	0.138096
	H350	H	0.283243	0.866313	0.136939
	O351	O	0.443353	-0.570875	1.277670
	H352	H	0.459017	-0.587438	1.258589
	H353	H	0.454655	-0.569145	1.301576
	O354	O	1.030437	0.055680	0.758818
	H355	H	1.036463	0.058607	0.761279
	H356	H	1.058651	0.051501	0.760910
	O357	O	0.319263	0.342046	0.304430
	H358	H	0.340345	0.361972	0.309263
	H359	H	0.336523	0.344623	0.324666
	O360	O	1.690544	0.726135	1.524206
	H361	H	1.712154	0.747040	1.545953
	H362	H	1.693114	0.732911	1.555590
	O363	O	1.087365	1.015682	0.081237
	H364	H	1.086847	1.010856	0.084559
	H365	H	1.095216	0.996220	0.086689
	O366	O	0.955330	1.063882	1.074515
	H367	H	0.962868	1.050813	1.071616
	H368	H	0.960798	1.072257	1.086830
	O369	O	-0.004306	0.213817	1.198346
	H370	H	0.013081	0.212619	1.206975
	H371	H	0.020923	0.225786	1.202316
	O372	O	0.688880	0.471597	1.268237
	H373	H	0.666278	0.493584	1.278857
	H374	H	0.717924	0.471834	1.238009
	O375	O	1.675303	-0.571076	0.452203
	H376	H	1.695892	-0.567056	0.439493
	H377	H	1.658603	-0.580193	0.439949
	O378	O	0.460182	0.310958	0.456310
	H379	H	0.464500	0.299918	0.459071
	H380	H	0.459550	0.318132	0.455825
	O381	O	0.584310	0.286020	0.348178
	H382	H	0.594143	0.258164	0.321588
	H383	H	0.617166	0.289463	0.339583
	O384	O	0.534912	0.565007	0.287631
	H385	H	0.541105	0.560549	0.298043
	H386	H	0.511734	0.566744	0.288322
	O387	O	0.009887	0.791840	0.776420
	H388	H	-0.006087	0.794123	0.759300
	H389	H	-0.002527	0.797953	0.785371
	O390	O	-0.137045	0.941914	0.950259
	H391	H	-0.130529	0.959010	0.956802
	H392	H	-0.136120	0.959791	0.934469
	O393	O	0.950889	-0.210924	0.205779
	H394	H	0.963094	-0.213163	0.205996
	H395	H	0.948282	-0.222657	0.219105
	O396	O	0.546091	0.413302	0.620698
	H397	H	0.550049	0.410748	0.608341
	H398	H	0.555356	0.419285	0.610189
	O399	O	0.275523	0.430618	0.534333
	H400	H	0.278473	0.419177	0.558585
	H401	H	0.285843	0.418881	0.531736
	O402	O	0.836935	-0.092855	0.937931
	H403	H	0.825628	-0.091726	0.929341
	H404	H	0.831697	-0.099716	0.928581
	O405	O	0.685739	0.541995	0.710579
	H406	H	0.685910	0.524795	0.690191
	H407	H	0.711095	0.538166	0.725810
	O408	O	1.114979	1.172184	0.995470
	H409	H	1.123410	1.183203	1.005160
	H410	H	1.116754	1.158181	1.007151
	O411	O	1.088185	1.222105	-0.033318
	H412	H	1.087907	1.212458	-0.021449
	H413	H	1.092065	1.235769	-0.019198
	O414	O	0.105832	-0.196668	0.108229
	H415	H	0.119677	-0.200226	0.122262
	H416	H	0.117413	-0.189518	0.120063
	O417	O	1.052404	-0.034068	-0.129633
	H418	H	1.055152	-0.013551	-0.124424
	H419	H	1.042584	-0.028099	-0.130305
	O420	O	1.260043	-0.572900	1.405849
	H421	H	1.272347	-0.557905	1.389412
	H422	H	1.265334	-0.562622	1.406893
	O423	O	1.050969	1.084902	-0.084306
	H424	H	1.060881	1.096948	-0.080361
	H425	H	1.050298	1.084822	-0.084157
	O426	O	0.318643	0.597601	0.522168
	H427	H	0.321391	0.595306	0.525209
	H428	H	0.325876	0.578926	0.519995
	O429	O	0.784368	0.190419	0.169240
	H430	H	0.798226	0.167709	0.159827
	H431	H	0.807759	0.174164	0.151489
	O432	O	1.042170	-0.066325	1.200707
	H433	H	1.049114	-0.053562	1.208272
	H434	H	1.033863	-0.069771	1.199183
	O435	O	0.794455	0.832144	0.127729
	H436	H	0.790565	0.825453	0.093048
	H437	H	0.834559	0.815783	0.133793
	O438	O	0.767680	0.802047	0.056701
	H439	H	0.771078	0.810698	0.044541
	H440	H	0.742123	0.780186	0.052981
	O441	O	0.571731	0.627260	0.360767
	H442	H	0.573132	0.642143	0.359779
	H443	H	0.580678	0.606106	0.368743
	O444	O	0.278010	0.703061	0.355663
	H445	H	0.309053	0.704323	0.367366
	H446	H	0.273374	0.685930	0.354116
	O447	O	0.159134	1.109306	0.829448
	H448	H	0.170017	1.102046	0.823165
	H449	H	0.159367	1.096890	0.839351
	O450	O	1.475951	-0.353046	0.341713
	H451	H	1.486810	-0.367345	0.356337
	H452	H	1.464459	-0.351362	0.369889
	O453	O	0.497770	0.576766	0.499036
	H454	H	0.479718	0.577194	0.507680
	H455	H	0.512785	0.575063	0.499213
	O456	O	-0.231856	1.211067	0.963766
	H457	H	-0.224308	1.195920	0.985147
	H458	H	-0.248932	1.220173	0.976681
	O459	O	0.504617	0.548855	0.668531
	H460	H	0.519389	0.546708	0.665107
	H461	H	0.510836	0.539893	0.668924
	O462	O	1.003324	0.146816	1.056162
	H463	H	1.002500	0.137127	1.048405
	H464	H	1.003945	0.146796	1.055548
	O465	O	0.574548	0.448435	0.525658
	H466	H	0.571354	0.456288	0.516721
	H467	H	0.576779	0.432630	0.526014
	O468	O	0.188651	0.791682	-0.044564
	H469	H	0.190584	0.783192	-0.067897
	H470	H	0.202651	0.769075	-0.058819
	O471	O	0.754237	-0.014988	0.206365
	H472	H	0.762118	-0.058575	0.202039
	H473	H	0.731183	-0.026187	0.232058
	O474	O	0.927833	0.958324	-0.184555
	H475	H	0.934632	0.979051	-0.192445
	H476	H	0.920990	0.970328	-0.184216
	O477	O	0.611547	0.307685	0.570649
	H478	H	0.617099	0.310538	0.573240
	H479	H	0.612595	0.293499	0.561150
