data_Molecule from HDF5

_cell_length_a		16.329040
_cell_length_b		16.224387
_cell_length_c		16.528052
_cell_angle_alpha	89.965821
_cell_angle_beta	90.166599
_cell_angle_gamma	90.247097
_symmetry_space_group_name_H-M	'P 1'
_symmetry_Int_Tables_number		1

loop_
	_symmetry_equiv_pos_as_xyz
	x,y,z

loop_
	_atom_site_label
	_atom_site_type_symbol
	_atom_site_fract_x
	_atom_site_fract_y
	_atom_site_fract_z
	H0	H	0.394045	0.819083	0.716221
	H1	H	0.603883	0.142814	0.719367
	H2	H	0.601923	0.819525	0.280823
	H3	H	0.398092	0.142907	0.280626
	H4	H	0.718653	0.377427	0.840909
	H5	H	0.717917	0.587971	0.158187
	H6	H	0.278013	0.583688	0.839299
	H7	H	0.278065	0.379014	0.158994
	H8	H	0.835034	0.699341	0.400260
	H9	H	0.158754	0.701485	0.600995
	H10	H	0.836148	0.263276	0.602965
	H11	H	0.158855	0.269366	0.402098
	H12	H	0.837038	0.377664	0.720716
	H13	H	0.156622	0.590496	0.722177
	H14	H	0.838404	0.592564	0.277099
	H15	H	0.156469	0.380090	0.280584
	H16	H	0.395139	0.699729	0.838760
	H17	H	0.601303	0.703801	0.157271
	H18	H	0.599474	0.262874	0.839634
	H19	H	0.397265	0.263289	0.159560
	H20	H	0.713802	0.818655	0.399803
	H21	H	0.716584	0.144494	0.601484
	H22	H	0.278828	0.819319	0.598383
	H23	H	0.283012	0.144776	0.396794
	H24	H	0.889452	0.323264	0.222348
	H25	H	0.101317	0.645624	0.217796
	H26	H	0.099490	0.322321	0.781029
	H27	H	0.891682	0.643473	0.779412
	H28	H	0.214904	0.879884	0.338569
	H29	H	0.219888	0.087026	0.656815
	H30	H	0.777681	0.086612	0.340150
	H31	H	0.778041	0.878650	0.658091
	H32	H	0.335233	0.195083	0.899168
	H33	H	0.659122	0.199450	0.100668
	H34	H	0.335334	0.765891	0.095061
	H35	H	0.659564	0.764752	0.897463
	H36	H	0.337665	0.873693	0.218625
	H37	H	0.657981	0.086606	0.219007
	H38	H	0.338335	0.085116	0.777582
	H39	H	0.657201	0.874963	0.776997
	H40	H	0.894752	0.202961	0.340287
	H41	H	0.099406	0.199943	0.660046
	H42	H	0.099157	0.763117	0.339549
	H43	H	0.895651	0.764114	0.658888
	H44	H	0.211198	0.319731	0.900076
	H45	H	0.215522	0.645748	0.100031
	H46	H	0.777546	0.320890	0.103685
	H47	H	0.778073	0.644783	0.897322
	H48	H	0.407247	0.097003	0.586801
	H49	H	0.588790	0.867804	0.585857
	H50	H	0.590667	0.100194	0.400643
	H51	H	0.405454	0.863488	0.402046
	H52	H	0.593428	0.389267	0.114573
	H53	H	0.583917	0.568580	0.888372
	H54	H	0.407129	0.570883	0.111892
	H55	H	0.411452	0.394032	0.889039
	H56	H	0.110736	0.573733	0.411313
	H57	H	0.880122	0.572658	0.599301
	H58	H	0.108370	0.402792	0.590915
	H59	H	0.880335	0.389909	0.407677
	H60	H	0.114432	0.392249	0.599366
	H61	H	0.882212	0.579802	0.586252
	H62	H	0.111348	0.569657	0.407114
	H63	H	0.883677	0.394633	0.414105
	H64	H	0.409293	0.573899	0.112228
	H65	H	0.587431	0.574448	0.885103
	H66	H	0.586821	0.398383	0.109931
	H67	H	0.404744	0.380841	0.883419
	H68	H	0.579288	0.093702	0.407550
	H69	H	0.588446	0.865318	0.592110
	H70	H	0.409998	0.097292	0.592073
	H71	H	0.410562	0.866781	0.408673
	H72	H	0.906845	0.595540	0.081640
	H73	H	0.089442	0.366756	0.092315
	H74	H	0.083367	0.599305	0.906340
	H75	H	0.907357	0.367927	0.908471
	H76	H	0.088280	0.886916	0.613164
	H77	H	0.087049	0.073000	0.387553
	H78	H	0.904935	0.079161	0.615368
	H79	H	0.904570	0.885003	0.383510
	H80	H	0.612579	0.073302	0.910158
	H81	H	0.380696	0.071488	0.092875
	H82	H	0.610466	0.900559	0.092604
	H83	H	0.384008	0.892665	0.908356
	H84	H	0.616372	0.887963	0.095986
	H85	H	0.383427	0.071202	0.088265
	H86	H	0.611352	0.068537	0.909212
	H87	H	0.382889	0.893347	0.903413
	H88	H	0.902362	0.067364	0.612048
	H89	H	0.086975	0.080096	0.384872
	H90	H	0.095552	0.897721	0.612103
	H91	H	0.899335	0.898085	0.385409
	H92	H	0.086262	0.596781	0.914844
	H93	H	0.084172	0.367750	0.095266
	H94	H	0.903607	0.601081	0.094038
	H95	H	0.910112	0.368809	0.910044
	H96	H	0.412789	0.094062	0.587615
	H97	H	0.583398	0.868671	0.589858
	H98	H	0.591732	0.095506	0.414884
	H99	H	0.401870	0.865660	0.410518
	H100	H	0.581776	0.387264	0.111514
	H101	H	0.591260	0.568537	0.886244
	H102	H	0.405566	0.574014	0.112316
	H103	H	0.396273	0.393683	0.884427
	H104	H	0.113509	0.575423	0.406976
	H105	H	0.886821	0.565288	0.587258
	H106	H	0.111048	0.389824	0.585715
	H107	H	0.881984	0.398529	0.406433
	H108	H	0.916112	0.596117	0.091991
	H109	H	0.084821	0.369602	0.089168
	H110	H	0.092670	0.600743	0.909016
	H111	H	0.906842	0.368561	0.911706
	H112	H	0.082740	0.897392	0.608301
	H113	H	0.092847	0.075866	0.383582
	H114	H	0.913545	0.072168	0.609908
	H115	H	0.912625	0.895078	0.389468
	H116	H	0.613958	0.071037	0.906239
	H117	H	0.384028	0.067658	0.091444
	H118	H	0.610806	0.890227	0.083162
	H119	H	0.382051	0.888599	0.905541
	C120	C	0.377583	-0.010606	0.619273
	C121	C	0.619205	0.973646	0.620425
	C122	C	0.618292	-0.010410	0.378224
	C123	C	0.376795	0.972618	0.376941
	C124	C	0.619045	0.359917	0.007397
	C125	C	0.619342	0.603707	0.991067
	C126	C	0.376146	0.603180	0.006669
	C127	C	0.374226	0.358664	0.991002
	C128	C	0.005867	0.605067	0.378115
	C129	C	0.988679	0.604891	0.621978
	C130	C	0.005283	0.362405	0.622218
	C131	C	0.988396	0.363647	0.379626
	C132	C	0.875935	0.491275	0.121388
	C133	C	0.118155	0.475014	0.121945
	C134	C	0.117805	0.492074	0.879034
	C135	C	0.876034	0.474888	0.878846
	C136	C	0.118763	0.862049	0.506566
	C137	C	0.120066	0.106243	0.490678
	C138	C	0.875488	0.104706	0.507706
	C139	C	0.875167	0.861148	0.491267
	C140	C	0.506390	0.101868	0.877376
	C141	C	0.489200	0.101729	0.120976
	C142	C	0.506374	0.860695	0.120146
	C143	C	0.489202	0.860231	0.875867
	C144	C	0.375384	0.867794	0.677362
	C145	C	0.621927	0.094822	0.679628
	C146	C	0.620174	0.868000	0.320185
	C147	C	0.378133	0.094639	0.319663
	C148	C	0.678597	0.358729	0.888313
	C149	C	0.678562	0.606045	0.110363
	C150	C	0.317680	0.602782	0.887072
	C151	C	0.317217	0.359104	0.111229
	C152	C	0.884113	0.662096	0.379430
	C153	C	0.110139	0.663268	0.621519
	C154	C	0.884255	0.302721	0.622252
	C155	C	0.110121	0.306869	0.381083
	C156	C	0.884659	0.359667	0.680798
	C157	C	0.109018	0.607942	0.681770
	C158	C	0.885816	0.608633	0.318217
	C159	C	0.108843	0.361948	0.320733
	C160	C	0.376264	0.660415	0.886463
	C161	C	0.620238	0.663631	0.110091
	C162	C	0.619131	0.301741	0.887522
	C163	C	0.376368	0.301673	0.111453
	C164	C	0.675768	0.867382	0.379484
	C165	C	0.677641	0.095629	0.620695
	C166	C	0.318203	0.867863	0.618726
	C167	C	0.321003	0.095553	0.377426
	C168	C	0.872444	0.371111	0.181864
	C169	C	0.120062	0.597050	0.179040
	C170	C	0.118209	0.370375	0.820622
	C171	C	0.873585	0.595708	0.819489
	C172	C	0.175554	0.861241	0.386252
	C173	C	0.179105	0.105621	0.610007
	C174	C	0.817295	0.105625	0.387979
	C175	C	0.817293	0.860110	0.610651
	C176	C	0.384347	0.157943	0.878532
	C177	C	0.610526	0.160916	0.120838
	C178	C	0.384234	0.803439	0.117124
	C179	C	0.610883	0.802613	0.877159
	C180	C	0.385493	0.857477	0.178270
	C181	C	0.609861	0.104542	0.179647
	C182	C	0.385958	0.103201	0.818042
	C183	C	0.609793	0.857766	0.817341
	C184	C	0.875572	0.163565	0.388054
	C185	C	0.119296	0.162037	0.611586
	C186	C	0.118193	0.802798	0.386965
	C187	C	0.875769	0.802879	0.610926
	C188	C	0.173656	0.369077	0.879979
	C189	C	0.177136	0.596914	0.120794
	C190	C	0.816491	0.369930	0.122681
	C191	C	0.817431	0.596325	0.878293
	C192	C	0.402712	0.074176	0.595861
	C193	C	0.594226	0.889115	0.596330
	C194	C	0.594301	0.074493	0.400993
	C195	C	0.399377	0.887288	0.400418
	C196	C	0.594609	0.384411	0.090339
	C197	C	0.594590	0.578090	0.908114
	C198	C	0.400382	0.579856	0.090382
	C199	C	0.397359	0.382385	0.907575
	C200	C	0.090044	0.580167	0.401695
	C201	C	0.904869	0.579819	0.597987
	C202	C	0.089221	0.387679	0.598738
	C203	C	0.903853	0.387460	0.402600
	C204	C	0.901505	0.575747	0.096399
	C205	C	0.093248	0.390158	0.098965
	C206	C	0.094207	0.577014	0.902909
	C207	C	0.900986	0.390407	0.903008
	C208	C	0.095455	0.886828	0.589596
	C209	C	0.095946	0.083069	0.407022
	C210	C	0.900032	0.080018	0.590912
	C211	C	0.898779	0.885699	0.407819
	C212	C	0.590761	0.077778	0.901364
	C213	C	0.404720	0.077360	0.097331
	C214	C	0.590654	0.885633	0.097144
	C215	C	0.404952	0.884432	0.899102
	Zn216	Zn	0.498554	-0.018778	0.748554
	Zn217	Zn	0.498206	-0.019713	0.249106
	Zn218	Zn	0.748359	0.482635	-0.000440
	Zn219	Zn	0.245790	0.482101	0.000206
	Zn220	Zn	-0.002741	0.732332	0.499211
	Zn221	Zn	-0.002819	0.234451	0.500584
	Zn222	Zn	-0.002999	0.483525	0.750564
	Zn223	Zn	-0.003307	0.484188	0.249946
	Zn224	Zn	0.497933	0.733056	-0.002204
	Zn225	Zn	0.497189	0.229878	-0.000997
	Zn226	Zn	0.746258	-0.017815	0.499223
	Zn227	Zn	0.248755	-0.017155	0.497694
	N228	N	0.411572	0.944481	0.677770
	N229	N	0.586201	0.017992	0.679631
	N230	N	0.585237	0.944901	0.319314
	N231	N	0.411493	0.017101	0.318831
	N232	N	0.678808	0.394117	0.963783
	N233	N	0.677886	0.569366	0.035347
	N234	N	0.317600	0.567805	0.962836
	N235	N	0.315719	0.393829	0.035410
	N236	N	0.959836	0.660021	0.415859
	N237	N	0.034398	0.661621	0.585272
	N238	N	0.960228	0.304151	0.586602
	N239	N	0.034289	0.307684	0.416856
	N240	N	0.960748	0.396125	0.680841
	N241	N	0.032412	0.572478	0.682278
	N242	N	0.962466	0.573799	0.317275
	N243	N	0.031982	0.396377	0.319477
	N244	N	0.411984	0.660631	0.961889
	N245	N	0.584196	0.662454	0.034933
	N246	N	0.582921	0.302255	0.962543
	N247	N	0.411000	0.301228	0.035796
	N248	N	0.674626	0.943940	0.415069
	N249	N	0.675956	0.019364	0.584631
	N250	N	0.319426	0.944497	0.583371
	N251	N	0.319908	0.018586	0.412287
	N252	N	0.908690	0.447787	0.181136
	N253	N	0.084069	0.520230	0.179920
	N254	N	0.084125	0.447760	0.820022
	N255	N	0.909254	0.519126	0.819669
	N256	N	0.176184	0.897282	0.461504
	N257	N	0.179744	0.071779	0.533786
	N258	N	0.816926	0.070001	0.463493
	N259	N	0.817005	0.895582	0.535146
	N260	N	0.460307	0.157431	0.914481
	N261	N	0.534447	0.159378	0.084849
	N262	N	0.460244	0.805259	0.081673
	N263	N	0.534994	0.804126	0.912878
	N264	N	0.462558	0.892022	0.180404
	N265	N	0.533477	0.068716	0.179965
	N266	N	0.463081	0.069601	0.816829
	N267	N	0.533179	0.892710	0.816347
	N268	N	0.911112	0.162957	0.463651
	N269	N	0.083375	0.162607	0.536255
	N270	N	0.083699	0.802989	0.462780
	N271	N	0.911229	0.803489	0.535756
	N272	N	0.173627	0.445656	0.915660
	N273	N	0.175996	0.519984	0.086001
	N274	N	0.818563	0.445915	0.085900
	N275	N	0.818751	0.520028	0.914387
	O276	O	0.885486	0.833730	0.046182
	H277	H	0.886855	0.838219	0.046159
	H278	H	0.891978	0.840183	0.036025
	O279	O	0.477461	0.534608	0.398611
	H280	H	0.475547	0.520545	0.399532
	H281	H	0.490147	0.532040	0.417861
	O282	O	0.426821	0.346897	0.326183
	H283	H	0.431479	0.348982	0.329954
	H284	H	0.435966	0.349845	0.335253
	O285	O	1.107380	-0.044210	-0.008971
	H286	H	1.099264	-0.040447	-0.000399
	H287	H	1.088578	-0.043310	-0.002142
	O288	O	-0.166664	-0.094104	1.055472
	H289	H	-0.167810	-0.093470	1.041225
	H290	H	-0.161443	-0.097260	1.048039
	O291	O	0.157464	0.852209	0.992247
	H292	H	0.162209	0.853336	1.008581
	H293	H	0.145502	0.841867	0.990663
	O294	O	1.323743	0.599519	0.435558
	H295	H	1.336748	0.590720	0.440323
	H296	H	1.317110	0.610399	0.424906
	O297	O	1.012809	1.089953	0.893230
	H298	H	1.016958	1.099553	0.911254
	H299	H	1.024266	1.070342	0.897022
	O300	O	-0.043446	-0.165473	-0.027636
	H301	H	-0.052989	-0.159345	-0.031185
	H302	H	-0.038028	-0.160005	-0.039835
	O303	O	0.463484	0.339146	0.531407
	H304	H	0.466300	0.336170	0.544720
	H305	H	0.466601	0.331360	0.539129
	O306	O	1.093887	0.038758	-0.020305
	H307	H	1.098521	0.034615	-0.018111
	H308	H	1.081383	0.042865	-0.018848
	O309	O	0.373818	0.517454	0.305331
	H310	H	0.387900	0.527451	0.317952
	H311	H	0.372072	0.518288	0.287906
	O312	O	1.140035	1.095460	0.141220
	H313	H	1.142327	1.109361	0.141781
	H314	H	1.140002	1.107111	0.149089
	O315	O	0.651435	0.631148	0.631662
	H316	H	0.633376	0.631328	0.613894
	H317	H	0.660323	0.628623	0.642640
	O318	O	0.559665	0.556677	0.364464
	H319	H	0.567567	0.563566	0.351881
	H320	H	0.560150	0.570067	0.372238
	O321	O	0.992651	-0.004852	1.080221
	H322	H	0.976031	-0.026820	1.073966
	H323	H	0.990595	-0.007780	1.089579
	O324	O	0.583253	0.499924	0.602757
	H325	H	0.580261	0.492958	0.593548
	H326	H	0.589041	0.504249	0.600269
	O327	O	0.908785	1.133125	0.973595
	H328	H	0.924374	1.124697	0.970055
	H329	H	0.893778	1.123739	0.958186
	O330	O	0.411891	0.483213	0.586596
	H331	H	0.420857	0.492498	0.579262
	H332	H	0.416987	0.485126	0.598319
	O333	O	1.052885	0.866493	0.852090
	H334	H	1.049876	0.861756	0.866832
	H335	H	1.056156	0.857947	0.848715
	O336	O	0.673676	0.509039	0.338197
	H337	H	0.679242	0.517744	0.345512
	H338	H	0.677110	0.503093	0.330472
	O339	O	1.102606	0.007670	0.940973
	H340	H	1.104333	-0.000107	0.941215
	H341	H	1.111368	0.009042	0.946082
	O342	O	-0.172805	1.008171	0.932754
	H343	H	-0.171647	1.006841	0.932209
	H344	H	-0.167592	1.015243	0.916951
	O345	O	-0.495687	1.568788	1.596297
	H346	H	-0.495771	1.553237	1.587486
	H347	H	-0.502709	1.560290	1.607284
	O348	O	0.446988	0.643780	0.346848
	H349	H	0.426442	0.647827	0.336385
	H350	H	0.451392	0.637038	0.349695
	O351	O	0.529588	-0.489587	-0.332827
	H352	H	0.539681	-0.479459	-0.335311
	H353	H	0.529779	-0.490431	-0.331930
	O354	O	1.197838	1.185283	0.059113
	H355	H	1.189981	1.185543	0.094640
	H356	H	1.221174	1.205775	0.061286
	O357	O	-0.107767	1.119430	0.098520
	H358	H	-0.118993	1.128444	0.086900
	H359	H	-0.104620	1.117696	0.083402
	O360	O	-0.135237	0.955265	0.969598
	H361	H	-0.139596	0.966464	0.953970
	H362	H	-0.131638	0.936649	0.973355
	O363	O	0.487534	0.339216	0.311085
	H364	H	0.493857	0.360752	0.312887
	H365	H	0.486400	0.326521	0.310990
	O366	O	-0.082487	0.835361	0.174442
	H367	H	-0.086348	0.846020	0.172563
	H368	H	-0.091320	0.832653	0.180603
	O369	O	0.469599	0.546227	0.637140
	H370	H	0.481350	0.532200	0.638620
	H371	H	0.469799	0.539455	0.648249
	O372	O	0.345539	0.455467	0.535364
	H373	H	0.335221	0.446589	0.540944
	H374	H	0.337214	0.461789	0.535624
	O375	O	0.303629	0.301749	0.645360
	H376	H	0.298310	0.297591	0.646061
	H377	H	0.302932	0.304092	0.654845
	O378	O	0.384721	0.641907	0.498982
	H379	H	0.382304	0.629200	0.505575
	H380	H	0.383048	0.649199	0.499095
	O381	O	0.475904	0.548463	0.496144
	H382	H	0.476036	0.552569	0.492942
	H383	H	0.466147	0.547338	0.496228
	O384	O	0.010303	0.857440	0.825377
	H385	H	0.010650	0.860485	0.819524
	H386	H	0.028004	0.850160	0.828318
	O387	O	0.945878	1.119911	-0.148674
	H388	H	0.952150	1.113423	-0.152875
	H389	H	0.950791	1.118360	-0.148138
	O390	O	0.556999	0.638012	0.625451
	H391	H	0.549127	0.645939	0.626714
	H392	H	0.559906	0.640887	0.620922
	O393	O	1.163846	0.018542	0.875833
	H394	H	1.167932	0.000423	0.882873
	H395	H	1.165307	0.007229	0.891529
	O396	O	-0.172187	1.008528	0.908125
	H397	H	-0.173532	1.009631	0.898278
	H398	H	-0.170335	1.007352	0.896860
	O399	O	0.557155	0.328520	0.622135
	H400	H	0.556111	0.316230	0.629311
	H401	H	0.543324	0.338970	0.623184
	O402	O	1.445805	0.309702	0.634167
	H403	H	1.451284	0.315266	0.636968
	H404	H	1.451997	0.304898	0.636411
	O405	O	-0.130615	0.043594	-0.196553
	H406	H	-0.117872	0.043560	-0.207202
	H407	H	-0.120485	0.050328	-0.203828
	O408	O	0.600017	1.484126	0.425908
	H409	H	0.597587	1.473391	0.411255
	H410	H	0.608605	1.477467	0.422182
	O411	O	1.000106	0.958300	0.179981
	H412	H	0.986703	0.955824	0.167906
	H413	H	1.012762	0.973557	0.191275
	O414	O	-0.315130	-0.682927	1.353130
	H415	H	-0.310372	-0.669930	1.345345
	H416	H	-0.316883	-0.693538	1.369186
	O417	O	0.440805	0.303059	0.440630
	H418	H	0.421712	0.307757	0.438500
	H419	H	0.438068	0.306275	0.439737
	O420	O	0.139960	1.137730	0.153847
	H421	H	0.118753	1.141768	0.166124
	H422	H	0.151716	1.151881	0.166684
	O423	O	1.118692	-0.002045	-0.034795
	H424	H	1.119151	-0.002936	-0.024284
	H425	H	1.126520	0.011074	-0.011697
	O426	O	-0.121034	-0.114705	1.201203
	H427	H	-0.129558	-0.102198	1.198240
	H428	H	-0.126417	-0.116890	1.208504
	O429	O	0.672703	0.366781	0.569260
	H430	H	0.680323	0.367509	0.565094
	H431	H	0.661147	0.351415	0.571727
