data_Molecule from HDF5

_cell_length_a		16.259333
_cell_length_b		16.334683
_cell_length_c		16.314795
_cell_angle_alpha	89.980868
_cell_angle_beta	90.029991
_cell_angle_gamma	89.910895
_symmetry_space_group_name_H-M	'P 1'
_symmetry_Int_Tables_number		1

loop_
	_symmetry_equiv_pos_as_xyz
	x,y,z

loop_
	_atom_site_label
	_atom_site_type_symbol
	_atom_site_fract_x
	_atom_site_fract_y
	_atom_site_fract_z
	H0	H	0.401783	0.836131	0.714331
	H1	H	0.597293	0.163876	0.714414
	H2	H	0.598998	0.836342	0.286401
	H3	H	0.402209	0.163121	0.286010
	H4	H	0.712167	0.403021	0.835341
	H5	H	0.713349	0.597144	0.163490
	H6	H	0.286334	0.596986	0.836159
	H7	H	0.287670	0.402959	0.163949
	H8	H	0.835932	0.714239	0.401910
	H9	H	0.164112	0.714392	0.598349
	H10	H	0.835863	0.286270	0.598553
	H11	H	0.163628	0.285427	0.401941
	H12	H	0.835852	0.402399	0.713475
	H13	H	0.163893	0.597054	0.713851
	H14	H	0.836819	0.597975	0.285806
	H15	H	0.164658	0.402962	0.287044
	H16	H	0.400274	0.715134	0.836776
	H17	H	0.597822	0.714218	0.163457
	H18	H	0.598336	0.284552	0.836735
	H19	H	0.401887	0.284978	0.163376
	H20	H	0.714741	0.836663	0.403087
	H21	H	0.712534	0.164730	0.595917
	H22	H	0.285792	0.836700	0.597582
	H23	H	0.286142	0.163431	0.402925
	H24	H	0.901890	0.336647	0.215353
	H25	H	0.097730	0.663151	0.214581
	H26	H	0.100270	0.336563	0.784632
	H27	H	0.901509	0.662327	0.785298
	H28	H	0.213522	0.902679	0.336701
	H29	H	0.214322	0.097821	0.663916
	H30	H	0.787764	0.096281	0.335268
	H31	H	0.785947	0.902891	0.663434
	H32	H	0.335270	0.212874	0.902619
	H33	H	0.664704	0.212473	0.096109
	H34	H	0.336301	0.785867	0.098153
	H35	H	0.664000	0.785582	0.902739
	H36	H	0.335778	0.903544	0.212636
	H37	H	0.664650	0.097320	0.213045
	H38	H	0.335400	0.096635	0.786694
	H39	H	0.664201	0.902167	0.786890
	H40	H	0.901939	0.214066	0.336493
	H41	H	0.098596	0.215059	0.663115
	H42	H	0.098901	0.785692	0.337195
	H43	H	0.901662	0.785848	0.663021
	H44	H	0.215060	0.335855	0.902633
	H45	H	0.212188	0.663352	0.096784
	H46	H	0.785633	0.336828	0.098656
	H47	H	0.785357	0.663052	0.901556
	H48	H	0.416175	0.111427	0.588879
	H49	H	0.591467	0.883643	0.599332
	H50	H	0.591612	0.113268	0.412833
	H51	H	0.405064	0.882258	0.402941
	H52	H	0.593380	0.395920	0.118584
	H53	H	0.603032	0.592921	0.879871
	H54	H	0.405878	0.592235	0.116450
	H55	H	0.402347	0.410287	0.883382
	H56	H	0.118815	0.603963	0.412071
	H57	H	0.882104	0.600802	0.590925
	H58	H	0.116353	0.411438	0.597979
	H59	H	0.884333	0.413475	0.404512
	H60	H	0.118592	0.400429	0.593482
	H61	H	0.885675	0.588958	0.588972
	H62	H	0.113066	0.585136	0.413213
	H63	H	0.880622	0.403362	0.403230
	H64	H	0.408567	0.594145	0.115315
	H65	H	0.588537	0.584912	0.887866
	H66	H	0.602461	0.410811	0.117128
	H67	H	0.413258	0.407389	0.885956
	H68	H	0.599864	0.118495	0.404147
	H69	H	0.590049	0.886346	0.590113
	H70	H	0.395608	0.117573	0.588696
	H71	H	0.408668	0.884231	0.406639
	H72	H	0.906216	0.614145	0.087108
	H73	H	0.092896	0.385730	0.087930
	H74	H	0.089104	0.611744	0.911966
	H75	H	0.908027	0.386406	0.913415
	H76	H	0.091271	0.904439	0.617039
	H77	H	0.089165	0.097373	0.384091
	H78	H	0.912893	0.097732	0.615232
	H79	H	0.915717	0.913464	0.387994
	H80	H	0.612746	0.081128	0.909124
	H81	H	0.384288	0.095410	0.088174
	H82	H	0.615542	0.906062	0.088451
	H83	H	0.385766	0.904032	0.917961
	H84	H	0.615895	0.910869	0.094398
	H85	H	0.384279	0.087892	0.094530
	H86	H	0.620936	0.096163	0.894571
	H87	H	0.384898	0.917331	0.902474
	H88	H	0.900045	0.098521	0.619143
	H89	H	0.097713	0.095567	0.381968
	H90	H	0.095836	0.906374	0.617234
	H91	H	0.908875	0.894127	0.381197
	H92	H	0.100294	0.617572	0.907768
	H93	H	0.099258	0.381273	0.095731
	H94	H	0.902090	0.618027	0.096016
	H95	H	0.899474	0.380342	0.904141
	H96	H	0.406487	0.119053	0.606033
	H97	H	0.598876	0.883050	0.593061
	H98	H	0.587237	0.116499	0.400958
	H99	H	0.403532	0.882965	0.408101
	H100	H	0.585158	0.410269	0.112408
	H101	H	0.587288	0.602681	0.882642
	H102	H	0.405577	0.595550	0.117314
	H103	H	0.406443	0.399622	0.881198
	H104	H	0.119802	0.592273	0.396124
	H105	H	0.882087	0.592734	0.600231
	H106	H	0.113676	0.409304	0.586180
	H107	H	0.884484	0.406649	0.413166
	H108	H	0.912709	0.615941	0.095935
	H109	H	0.088771	0.383391	0.098519
	H110	H	0.089674	0.616266	0.900217
	H111	H	0.912370	0.383311	0.900403
	H112	H	0.092146	0.909556	0.615723
	H113	H	0.093095	0.089333	0.385347
	H114	H	0.905009	0.087228	0.614464
	H115	H	0.894795	0.911365	0.380825
	H116	H	0.616576	0.102629	0.915459
	H117	H	0.381311	0.096830	0.097764
	H118	H	0.618672	0.902961	0.095264
	H119	H	0.378471	0.898227	0.899643
	C120	C	0.378429	0.007791	0.622148
	C121	C	0.621052	0.992480	0.621510
	C122	C	0.621807	0.008222	0.378205
	C123	C	0.378217	0.991805	0.378424
	C124	C	0.621790	0.377844	0.007902
	C125	C	0.621130	0.621360	0.991588
	C126	C	0.378400	0.621834	0.008259
	C127	C	0.379033	0.378091	0.991700
	C128	C	0.008556	0.621953	0.378764
	C129	C	0.991493	0.621959	0.621941
	C130	C	0.008150	0.378923	0.621040
	C131	C	0.991901	0.379186	0.378691
	C132	C	0.878693	0.507963	0.121502
	C133	C	0.121692	0.491456	0.121793
	C134	C	0.121924	0.507498	0.878099
	C135	C	0.878525	0.491246	0.878062
	C136	C	0.121400	0.878606	0.508932
	C137	C	0.121361	0.121809	0.491898
	C138	C	0.877925	0.122259	0.507961
	C139	C	0.878447	0.878915	0.491513
	C140	C	0.508229	0.121121	0.878415
	C141	C	0.491915	0.121441	0.121201
	C142	C	0.508307	0.878630	0.121115
	C143	C	0.491482	0.878283	0.878467
	C144	C	0.381431	0.884869	0.676563
	C145	C	0.618098	0.115310	0.676506
	C146	C	0.619436	0.885165	0.323773
	C147	C	0.381399	0.114443	0.323773
	C148	C	0.675226	0.381852	0.884417
	C149	C	0.675845	0.618014	0.114778
	C150	C	0.323711	0.618307	0.885045
	C151	C	0.324855	0.381715	0.115157
	C152	C	0.885108	0.676339	0.381563
	C153	C	0.115105	0.676387	0.618965
	C154	C	0.884754	0.324157	0.618792
	C155	C	0.114804	0.323694	0.381497
	C156	C	0.884912	0.381761	0.676036
	C157	C	0.114926	0.618416	0.676662
	C158	C	0.885486	0.619150	0.323363
	C159	C	0.115442	0.382016	0.324466
	C160	C	0.380617	0.676655	0.885360
	C161	C	0.618891	0.676336	0.114527
	C162	C	0.618584	0.323213	0.885017
	C163	C	0.381480	0.322980	0.114604
	C164	C	0.676973	0.885346	0.381696
	C165	C	0.675349	0.115861	0.617932
	C166	C	0.323677	0.885179	0.618816
	C167	C	0.324124	0.114760	0.382163
	C168	C	0.881226	0.385312	0.177022
	C169	C	0.118384	0.614388	0.176449
	C170	C	0.120053	0.384941	0.823054
	C171	C	0.881181	0.614180	0.823435
	C172	C	0.175898	0.881799	0.385408
	C173	C	0.176164	0.118369	0.615143
	C174	C	0.824069	0.118321	0.384709
	C175	C	0.823865	0.882341	0.614821
	C176	C	0.384494	0.175571	0.881539
	C177	C	0.615761	0.175202	0.117293
	C178	C	0.385113	0.824025	0.118570
	C179	C	0.615056	0.823344	0.881586
	C180	C	0.384980	0.881849	0.175802
	C181	C	0.615624	0.117925	0.175330
	C182	C	0.384282	0.117637	0.824156
	C183	C	0.615243	0.881266	0.824258
	C184	C	0.880874	0.176843	0.385311
	C185	C	0.118660	0.176582	0.614774
	C186	C	0.118916	0.823956	0.385743
	C187	C	0.881324	0.824293	0.614665
	C188	C	0.177145	0.384521	0.881458
	C189	C	0.175653	0.614554	0.118399
	C190	C	0.823912	0.385266	0.118685
	C191	C	0.823503	0.614155	0.880965
	C192	C	0.399635	0.093831	0.600813
	C193	C	0.599731	0.906504	0.600340
	C194	C	0.599522	0.094091	0.399801
	C195	C	0.399587	0.905405	0.399764
	C196	C	0.600115	0.399326	0.093916
	C197	C	0.599174	0.599894	0.905558
	C198	C	0.400089	0.600284	0.094297
	C199	C	0.400792	0.399659	0.905648
	C200	C	0.094961	0.600244	0.400701
	C201	C	0.905488	0.600503	0.599847
	C202	C	0.094180	0.400634	0.599031
	C203	C	0.905486	0.401316	0.400500
	C204	C	0.900683	0.593751	0.099562
	C205	C	0.100056	0.405671	0.100307
	C206	C	0.099645	0.593029	0.900177
	C207	C	0.900212	0.405314	0.899767
	C208	C	0.099560	0.900210	0.594424
	C209	C	0.099700	0.100470	0.405797
	C210	C	0.899643	0.100752	0.594233
	C211	C	0.899935	0.900122	0.405781
	C212	C	0.594516	0.099646	0.900007
	C213	C	0.405678	0.099952	0.099770
	C214	C	0.594539	0.900159	0.099181
	C215	C	0.405242	0.900057	0.900229
	Zn216	Zn	0.499525	-0.000342	0.750748
	Zn217	Zn	0.500336	-0.000476	0.249631
	Zn218	Zn	0.749990	0.499837	-0.000138
	Zn219	Zn	0.250341	0.499675	0.000023
	Zn220	Zn	0.000256	0.750371	0.499887
	Zn221	Zn	-0.000390	0.250583	0.500171
	Zn222	Zn	0.000062	0.499559	0.749912
	Zn223	Zn	0.000375	0.500203	0.250416
	Zn224	Zn	0.500021	0.750077	0.000207
	Zn225	Zn	0.499924	0.249524	-0.000309
	Zn226	Zn	0.749882	0.000651	0.499910
	Zn227	Zn	0.249434	0.000192	0.500109
	N228	N	0.414638	0.962189	0.678625
	N229	N	0.585289	0.037689	0.678916
	N230	N	0.585748	0.962598	0.321571
	N231	N	0.414185	0.036725	0.321186
	N232	N	0.677354	0.415195	0.961861
	N233	N	0.677336	0.584617	0.037364
	N234	N	0.322331	0.584639	0.962539
	N235	N	0.323119	0.415325	0.037806
	N236	N	0.962707	0.678061	0.415225
	N237	N	0.037390	0.678690	0.585537
	N238	N	0.962367	0.322163	0.585250
	N239	N	0.036818	0.321829	0.414483
	N240	N	0.962470	0.415264	0.677332
	N241	N	0.037281	0.585369	0.678542
	N242	N	0.963263	0.585984	0.321707
	N243	N	0.037897	0.415905	0.322807
	N244	N	0.413803	0.678952	0.962867
	N245	N	0.585435	0.678493	0.036966
	N246	N	0.585979	0.320637	0.962691
	N247	N	0.414460	0.320758	0.036969
	N248	N	0.678462	0.962775	0.414776
	N249	N	0.677287	0.038563	0.584449
	N250	N	0.321677	0.962557	0.585492
	N251	N	0.322135	0.037432	0.415398
	N252	N	0.914636	0.462731	0.178808
	N253	N	0.085621	0.536860	0.178633
	N254	N	0.086610	0.462310	0.820997
	N255	N	0.914699	0.536815	0.821355
	N256	N	0.177647	0.915443	0.462648
	N257	N	0.177873	0.085081	0.537674
	N258	N	0.822399	0.084932	0.462227
	N259	N	0.822149	0.915945	0.537513
	N260	N	0.462475	0.177894	0.914484
	N261	N	0.537856	0.177437	0.084342
	N262	N	0.462804	0.821948	0.085366
	N263	N	0.537256	0.821665	0.914864
	N264	N	0.462573	0.915369	0.177265
	N265	N	0.537797	0.085112	0.177834
	N266	N	0.462114	0.084610	0.822022
	N267	N	0.537540	0.914711	0.822348
	N268	N	0.913921	0.179094	0.462904
	N269	N	0.085375	0.178678	0.537193
	N270	N	0.086111	0.821586	0.463428
	N271	N	0.914565	0.821987	0.537200
	N272	N	0.178575	0.461731	0.915036
	N273	N	0.177842	0.537147	0.085032
	N274	N	0.822244	0.462423	0.084939
	N275	N	0.821778	0.536825	0.914370
