data_Molecule from HDF5

_cell_length_a		16.498708
_cell_length_b		16.235766
_cell_length_c		16.298186
_cell_angle_alpha	89.970623
_cell_angle_beta	90.258589
_cell_angle_gamma	89.872470
_symmetry_space_group_name_H-M	'P 1'
_symmetry_Int_Tables_number		1

loop_
	_symmetry_equiv_pos_as_xyz
	x,y,z

loop_
	_atom_site_label
	_atom_site_type_symbol
	_atom_site_fract_x
	_atom_site_fract_y
	_atom_site_fract_z
	H0	H	0.407623	0.816832	0.707182
	H1	H	0.607608	0.142656	0.708184
	H2	H	0.606636	0.818124	0.274393
	H3	H	0.401054	0.141544	0.273004
	H4	H	0.724927	0.375181	0.832704
	H5	H	0.726549	0.586380	0.152889
	H6	H	0.285093	0.586087	0.830908
	H7	H	0.286510	0.377065	0.153890
	H8	H	0.845943	0.698941	0.387488
	H9	H	0.163211	0.698599	0.596124
	H10	H	0.844355	0.261337	0.591525
	H11	H	0.164753	0.259275	0.390429
	H12	H	0.844629	0.376268	0.709391
	H13	H	0.162751	0.582810	0.712712
	H14	H	0.845967	0.582052	0.271666
	H15	H	0.165477	0.374221	0.273452
	H16	H	0.407024	0.694075	0.828959
	H17	H	0.604951	0.695353	0.155011
	H18	H	0.605685	0.262886	0.830938
	H19	H	0.404284	0.262155	0.153962
	H20	H	0.725583	0.819216	0.386816
	H21	H	0.724565	0.141555	0.594658
	H22	H	0.287550	0.818265	0.596052
	H23	H	0.281644	0.138995	0.383696
	H24	H	0.905168	0.317012	0.208220
	H25	H	0.109274	0.640324	0.212698
	H26	H	0.107367	0.318013	0.773773
	H27	H	0.901242	0.640677	0.772437
	H28	H	0.228521	0.869086	0.333391
	H29	H	0.228243	0.085929	0.650964
	H30	H	0.781732	0.088536	0.332780
	H31	H	0.785028	0.873194	0.651180
	H32	H	0.347077	0.202653	0.884797
	H33	H	0.662733	0.202014	0.098605
	H34	H	0.345852	0.761567	0.093347
	H35	H	0.664966	0.759067	0.889950
	H36	H	0.346939	0.874636	0.212994
	H37	H	0.662241	0.086725	0.214749
	H38	H	0.347829	0.085573	0.769077
	H39	H	0.665817	0.875739	0.772859
	H40	H	0.901893	0.198130	0.330674
	H41	H	0.107219	0.195959	0.653742
	H42	H	0.107465	0.759179	0.331374
	H43	H	0.903716	0.762128	0.652841
	H44	H	0.227416	0.321368	0.884613
	H45	H	0.223118	0.642188	0.096413
	H46	H	0.783346	0.320962	0.100837
	H47	H	0.783490	0.640376	0.885110
	H48	H	0.415470	0.095812	0.581664
	H49	H	0.600123	0.862970	0.583135
	H50	H	0.600675	0.098240	0.399838
	H51	H	0.420072	0.866474	0.402416
	H52	H	0.588514	0.397418	0.103234
	H53	H	0.600416	0.570639	0.875220
	H54	H	0.412953	0.573657	0.108666
	H55	H	0.415633	0.402076	0.882563
	H56	H	0.121224	0.568460	0.395631
	H57	H	0.891380	0.570982	0.576872
	H58	H	0.118926	0.389364	0.588089
	H59	H	0.888861	0.384550	0.394723
	H60	H	0.119482	0.383126	0.583426
	H61	H	0.891350	0.565998	0.583431
	H62	H	0.118628	0.575072	0.406988
	H63	H	0.894642	0.385800	0.407070
	H64	H	0.410012	0.571999	0.109053
	H65	H	0.595637	0.563372	0.879438
	H66	H	0.593873	0.383316	0.109239
	H67	H	0.421795	0.387190	0.878881
	H68	H	0.588219	0.094016	0.400401
	H69	H	0.594098	0.864503	0.583580
	H70	H	0.417626	0.094058	0.579535
	H71	H	0.413909	0.865703	0.406661
	H72	H	0.910672	0.597291	0.082641
	H73	H	0.094309	0.365543	0.081177
	H74	H	0.088792	0.594462	0.900353
	H75	H	0.916783	0.364725	0.901731
	H76	H	0.100098	0.884876	0.609260
	H77	H	0.089556	0.068033	0.378883
	H78	H	0.913785	0.065432	0.605890
	H79	H	0.914922	0.892049	0.377285
	H80	H	0.617917	0.071945	0.905583
	H81	H	0.390916	0.067906	0.085795
	H82	H	0.618480	0.888671	0.082290
	H83	H	0.396116	0.892488	0.907037
	H84	H	0.618110	0.891166	0.083593
	H85	H	0.391152	0.074448	0.079056
	H86	H	0.618318	0.066119	0.901579
	H87	H	0.392018	0.894231	0.890883
	H88	H	0.916793	0.068079	0.605809
	H89	H	0.097481	0.070292	0.375436
	H90	H	0.100116	0.896579	0.605130
	H91	H	0.914395	0.888948	0.376277
	H92	H	0.095735	0.593537	0.908107
	H93	H	0.098378	0.365036	0.078858
	H94	H	0.921509	0.594711	0.084473
	H95	H	0.914847	0.365383	0.905598
	H96	H	0.414329	0.094959	0.578747
	H97	H	0.597371	0.865740	0.578276
	H98	H	0.596032	0.092851	0.411098
	H99	H	0.414072	0.863062	0.399820
	H100	H	0.603720	0.395899	0.108560
	H101	H	0.591212	0.572174	0.878478
	H102	H	0.412626	0.570072	0.107535
	H103	H	0.406062	0.390485	0.875154
	H104	H	0.114895	0.561772	0.406113
	H105	H	0.888920	0.573371	0.583383
	H106	H	0.117100	0.389433	0.580471
	H107	H	0.893525	0.396984	0.398640
	H108	H	0.916392	0.592636	0.074417
	H109	H	0.097998	0.363675	0.083454
	H110	H	0.098577	0.597487	0.898797
	H111	H	0.912262	0.363913	0.902186
	H112	H	0.090421	0.889256	0.604510
	H113	H	0.096785	0.061934	0.378889
	H114	H	0.913534	0.069498	0.606593
	H115	H	0.912049	0.891151	0.376822
	H116	H	0.619750	0.072455	0.899264
	H117	H	0.393922	0.065674	0.076966
	H118	H	0.619621	0.888737	0.084390
	H119	H	0.388408	0.880119	0.898729
	C120	C	0.385343	-0.011744	0.611808
	C121	C	0.627903	0.971074	0.612572
	C122	C	0.626407	-0.011458	0.371164
	C123	C	0.383638	0.971011	0.370465
	C124	C	0.626426	0.359833	0.001154
	C125	C	0.626961	0.600957	0.983904
	C126	C	0.382528	0.602086	0.001010
	C127	C	0.383457	0.360269	0.984427
	C128	C	0.013494	0.600411	0.370372
	C129	C	0.995768	0.601024	0.613303
	C130	C	0.012948	0.356735	0.613845
	C131	C	0.997402	0.356967	0.369752
	C132	C	0.885021	0.488232	0.112536
	C133	C	0.127558	0.471503	0.113464
	C134	C	0.125987	0.489077	0.870294
	C135	C	0.882666	0.471007	0.870855
	C136	C	0.127386	0.857686	0.500387
	C137	C	0.126362	0.099083	0.483601
	C138	C	0.883529	0.100199	0.500061
	C139	C	0.883217	0.858525	0.482651
	C140	C	0.513802	0.102584	0.869549
	C141	C	0.496243	0.101912	0.113553
	C142	C	0.513556	0.858189	0.113955
	C143	C	0.497745	0.857695	0.869357
	C144	C	0.387084	0.865885	0.669203
	C145	C	0.627690	0.093594	0.670161
	C146	C	0.626330	0.866828	0.313113
	C147	C	0.382129	0.092616	0.311776
	C148	C	0.685333	0.356966	0.880544
	C149	C	0.686216	0.603615	0.104909
	C150	C	0.324803	0.603740	0.879240
	C151	C	0.325773	0.358807	0.105481
	C152	C	0.893550	0.659607	0.368466
	C153	C	0.115451	0.659320	0.614623
	C154	C	0.892536	0.299497	0.612215
	C155	C	0.117132	0.298200	0.370704
	C156	C	0.892636	0.356931	0.670638
	C157	C	0.115185	0.601531	0.672719
	C158	C	0.893750	0.601244	0.310842
	C159	C	0.117372	0.355570	0.312396
	C160	C	0.385435	0.657576	0.878123
	C161	C	0.625754	0.657995	0.106097
	C162	C	0.625731	0.301476	0.879574
	C163	C	0.384082	0.301386	0.105731
	C164	C	0.685473	0.867327	0.368944
	C165	C	0.685626	0.093133	0.613338
	C166	C	0.327363	0.866465	0.613612
	C167	C	0.322743	0.091460	0.367040
	C168	C	0.885193	0.366287	0.170465
	C169	C	0.128110	0.592224	0.173000
	C170	C	0.126796	0.367151	0.812187
	C171	C	0.881916	0.592343	0.811824
	C172	C	0.187571	0.852958	0.380806
	C173	C	0.187382	0.102852	0.603579
	C174	C	0.822898	0.104562	0.380142
	C175	C	0.824864	0.855771	0.603419
	C176	C	0.394839	0.162654	0.866779
	C177	C	0.615213	0.162105	0.116231
	C178	C	0.393778	0.800066	0.113474
	C179	C	0.617612	0.798660	0.870148
	C180	C	0.394288	0.856490	0.172865
	C181	C	0.614877	0.104947	0.174583
	C182	C	0.394992	0.104470	0.808936
	C183	C	0.617925	0.856849	0.812160
	C184	C	0.882637	0.159348	0.379155
	C185	C	0.127055	0.157758	0.604856
	C186	C	0.127397	0.798054	0.379828
	C187	C	0.884089	0.800484	0.604276
	C188	C	0.186658	0.368833	0.867313
	C189	C	0.184540	0.593341	0.114866
	C190	C	0.824792	0.368291	0.116781
	C191	C	0.823246	0.591941	0.867867
	C192	C	0.408706	0.072916	0.586994
	C193	C	0.604122	0.886527	0.588761
	C194	C	0.602072	0.073252	0.396388
	C195	C	0.408712	0.886933	0.395748
	C196	C	0.602353	0.384794	0.085019
	C197	C	0.602714	0.576090	0.899664
	C198	C	0.405182	0.578811	0.086145
	C199	C	0.407625	0.385834	0.900389
	C200	C	0.096638	0.575848	0.395575
	C201	C	0.912202	0.577002	0.588452
	C202	C	0.096760	0.380314	0.590820
	C203	C	0.913835	0.381897	0.393287
	C204	C	0.909261	0.572787	0.087643
	C205	C	0.103910	0.386906	0.088456
	C206	C	0.101327	0.573214	0.895025
	C207	C	0.907375	0.386711	0.895906
	C208	C	0.103676	0.883187	0.584403
	C209	C	0.101832	0.073814	0.399536
	C210	C	0.907758	0.074867	0.584138
	C211	C	0.906987	0.883570	0.398540
	C212	C	0.596965	0.077490	0.894750
	C213	C	0.413539	0.076692	0.087969
	C214	C	0.596927	0.882521	0.090286
	C215	C	0.414138	0.881944	0.892251
	Zn216	Zn	0.506658	-0.019947	0.740359
	Zn217	Zn	0.504559	-0.019732	0.242742
	Zn218	Zn	0.755893	0.480068	-0.007016
	Zn219	Zn	0.254348	0.481453	-0.008293
	Zn220	Zn	0.004421	0.730694	0.491939
	Zn221	Zn	0.004900	0.227794	0.491667
	Zn222	Zn	0.003613	0.479086	0.742677
	Zn223	Zn	0.006031	0.478728	0.240763
	Zn224	Zn	0.505414	0.728949	-0.007833
	Zn225	Zn	0.504627	0.231081	-0.007803
	Zn226	Zn	0.755502	-0.020352	0.491772
	Zn227	Zn	0.256140	-0.020824	0.491476
	N228	N	0.422503	0.942516	0.668009
	N229	N	0.592405	0.016933	0.669970
	N230	N	0.590543	0.943417	0.314318
	N231	N	0.419218	0.016745	0.313794
	N232	N	0.685901	0.392366	0.957065
	N233	N	0.687196	0.569081	0.027916
	N234	N	0.322830	0.570262	0.956607
	N235	N	0.325090	0.394376	0.028798
	N236	N	0.968973	0.659259	0.404738
	N237	N	0.040115	0.659036	0.578358
	N238	N	0.968518	0.298957	0.577847
	N239	N	0.041367	0.298775	0.405517
	N240	N	0.968547	0.391641	0.671851
	N241	N	0.039632	0.566144	0.672032
	N242	N	0.969284	0.565250	0.311758
	N243	N	0.041872	0.391289	0.311683
	N244	N	0.420520	0.657089	0.954969
	N245	N	0.589508	0.656389	0.029931
	N246	N	0.589932	0.302862	0.955564
	N247	N	0.419210	0.302362	0.029479
	N248	N	0.685713	0.944311	0.404030
	N249	N	0.686177	0.016004	0.578536
	N250	N	0.326130	0.943638	0.578818
	N251	N	0.323419	0.014671	0.402737
	N252	N	0.922148	0.442152	0.168015
	N253	N	0.093363	0.515425	0.172099
	N254	N	0.089846	0.442983	0.813858
	N255	N	0.918272	0.516125	0.813476
	N256	N	0.188071	0.889075	0.456970
	N257	N	0.187157	0.067142	0.527063
	N258	N	0.823519	0.068087	0.456304
	N259	N	0.824303	0.891268	0.526840
	N260	N	0.469805	0.161495	0.903722
	N261	N	0.540365	0.160255	0.078799
	N262	N	0.468898	0.800949	0.077460
	N263	N	0.541944	0.799064	0.905043
	N264	N	0.469849	0.891999	0.173109
	N265	N	0.540073	0.068063	0.172998
	N266	N	0.470109	0.067587	0.810552
	N267	N	0.542348	0.892810	0.811470
	N268	N	0.919920	0.156631	0.454578
	N269	N	0.089930	0.155722	0.529196
	N270	N	0.090833	0.800798	0.455307
	N271	N	0.919732	0.802109	0.528173
	N272	N	0.186379	0.445497	0.902919
	N273	N	0.184615	0.516866	0.078684
	N274	N	0.824654	0.445027	0.081306
	N275	N	0.823681	0.515395	0.903958
	O276	O	0.417895	0.541003	0.577597
	H277	H	0.416355	0.539420	0.591682
	H278	H	0.418096	0.533212	0.566537
	O279	O	0.392072	0.483139	0.620291
	H280	H	0.394411	0.478964	0.627919
	H281	H	0.397214	0.474329	0.618591
	O282	O	1.033961	0.104184	0.806321
	H283	H	1.035434	0.087711	0.819725
	H284	H	1.032357	0.101768	0.805816
	O285	O	0.503719	0.635767	0.563495
	H286	H	0.508184	0.642051	0.552618
	H287	H	0.490278	0.644847	0.564729
	O288	O	0.372690	1.553746	1.413954
	H289	H	0.358749	1.568368	1.414927
	H290	H	0.370212	1.543110	1.416415
	O291	O	0.008352	1.027762	-0.068246
	H292	H	0.028350	1.033250	-0.089482
	H293	H	0.025982	1.021647	-0.062972
	O294	O	0.663334	0.480118	0.420225
	H295	H	0.674894	0.470222	0.415352
	H296	H	0.662862	0.487229	0.417002
	O297	O	0.485136	0.535924	0.398939
	H298	H	0.488725	0.524407	0.405197
	H299	H	0.487773	0.539915	0.405847
	O300	O	0.396063	0.397916	0.601745
	H301	H	0.402654	0.394636	0.583771
	H302	H	0.394024	0.410673	0.593696
	O303	O	0.405049	0.562555	0.344824
	H304	H	0.407707	0.577406	0.344490
	H305	H	0.386342	0.572916	0.344477
	O306	O	0.558930	0.573124	0.384577
	H307	H	0.567168	0.577146	0.384909
	H308	H	0.554632	0.565898	0.380489
	O309	O	1.126106	0.819313	-0.065062
	H310	H	1.120560	0.825578	-0.076749
	H311	H	1.125844	0.806777	-0.078353
	O312	O	0.054779	0.148690	0.182512
	H313	H	0.034198	0.130520	0.167679
	H314	H	0.060881	0.137496	0.205394
	O315	O	0.438379	0.396844	0.491129
	H316	H	0.447383	0.394391	0.511265
	H317	H	0.427233	0.378193	0.498342
	O318	O	-0.168952	1.018453	0.784694
	H319	H	-0.178762	1.048199	0.784074
	H320	H	-0.167984	1.040342	0.781530
	O321	O	0.588028	0.380935	0.473442
	H322	H	0.590828	0.384577	0.466355
	H323	H	0.575507	0.374480	0.472575
	O324	O	-0.172408	0.819353	0.178866
	H325	H	-0.183151	0.804146	0.129703
	H326	H	-0.143538	0.824871	0.186574
	O327	O	0.393317	0.595388	0.563986
	H328	H	0.383397	0.599067	0.559717
	H329	H	0.399622	0.588641	0.567216
	O330	O	0.145125	-0.193128	0.890796
	H331	H	0.151508	-0.191137	0.882206
	H332	H	0.118105	-0.185210	0.904338
	O333	O	0.184819	0.008498	1.078353
	H334	H	0.196350	0.016094	1.092104
	H335	H	0.192142	0.016311	1.072998
	O336	O	-0.100589	0.948585	0.990375
	H337	H	-0.115297	0.951078	0.990279
	H338	H	-0.097528	0.948778	0.988986
	O339	O	0.959742	-0.177419	0.114851
	H340	H	0.968684	-0.169786	0.124697
	H341	H	0.977717	-0.188366	0.109430
	O342	O	-0.028494	0.023370	0.083242
	H343	H	-0.028041	0.015661	0.098544
	H344	H	-0.029524	0.005713	0.088795
	O345	O	0.806017	0.178042	0.900485
	H346	H	0.832040	0.177039	0.896532
	H347	H	0.793617	0.196255	0.918811
	O348	O	0.589827	1.509908	0.425804
	H349	H	0.588373	1.516868	0.431040
	H350	H	0.583694	1.508532	0.434597
	O351	O	0.582632	0.400691	0.565993
	H352	H	0.594398	0.410778	0.575686
	H353	H	0.568932	0.400452	0.565337
	O354	O	1.091642	-0.128706	1.053329
	H355	H	1.079732	-0.136844	1.035143
	H356	H	1.102990	-0.132368	1.058869
	O357	O	0.440737	0.337160	0.663118
	H358	H	0.447765	0.340266	0.656877
	H359	H	0.450649	0.341596	0.660171
	O360	O	0.526091	0.595514	0.609299
	H361	H	0.506715	0.610971	0.611870
	H362	H	0.528597	0.592367	0.601487
	O363	O	-0.030597	0.823030	0.957314
	H364	H	-0.041761	0.830451	0.948378
	H365	H	-0.036809	0.815639	0.972692
	O366	O	0.561428	0.368198	0.521042
	H367	H	0.554716	0.378225	0.525887
	H368	H	0.561282	0.368965	0.526491
	O369	O	-0.193214	1.117177	0.025496
	H370	H	-0.177105	1.111427	0.048676
	H371	H	-0.208662	1.141723	0.012953
	O372	O	0.087268	0.143559	0.089473
	H373	H	0.085648	0.120097	0.094817
	H374	H	0.068583	0.146970	0.082242
	O375	O	0.489150	0.342037	0.535876
	H376	H	0.480845	0.344363	0.537537
	H377	H	0.499119	0.344904	0.536237
	O378	O	1.103980	1.015430	0.043075
	H379	H	1.104627	1.008884	0.053085
	H380	H	1.108752	1.029785	0.042306
	O381	O	0.837163	-0.016737	0.021339
	H382	H	0.821585	-0.028011	0.026273
	H383	H	0.846754	-0.007544	0.019632
	O384	O	1.135865	1.089993	0.165060
	H385	H	1.130297	1.109875	0.184589
	H386	H	1.126169	1.067749	0.156636
	O387	O	-0.158510	-0.230196	0.001210
	H388	H	-0.149040	-0.219950	-0.020322
	H389	H	-0.164729	-0.249526	-0.005815
	O390	O	0.174135	0.917021	-0.161657
	H391	H	0.189838	0.940034	-0.178970
	H392	H	0.176859	0.927712	-0.128726
	O393	O	1.081781	1.187474	0.930916
	H394	H	1.085835	1.192963	0.943487
	H395	H	1.102861	1.193175	0.941140
	O396	O	0.419390	0.406374	1.357309
	H397	H	0.417476	0.403124	1.361283
	H398	H	0.428024	0.394983	1.339540
	O399	O	-0.197437	0.971122	1.192573
	H400	H	-0.198296	0.940778	1.186399
	H401	H	-0.218979	0.972196	1.208425
	O402	O	0.562952	0.552585	0.539214
	H403	H	0.566749	0.549385	0.520427
	H404	H	0.572293	0.547145	0.543357
	O405	O	0.984585	0.972147	-0.182649
	H406	H	0.989194	0.963303	-0.186169
	H407	H	0.980794	0.970036	-0.189436
	O408	O	1.164221	0.933900	-0.000460
	H409	H	1.166129	0.935951	-0.001220
	H410	H	1.157526	0.936469	-0.015133
	O411	O	1.006375	-0.217961	0.949511
	H412	H	1.020413	-0.230506	0.962126
	H413	H	1.034045	-0.221036	0.932107
	O414	O	0.488080	0.606216	0.474429
	H415	H	0.497668	0.617238	0.482837
	H416	H	0.499261	0.605557	0.484739
	O417	O	1.155158	1.059687	0.858360
	H418	H	1.140476	1.073591	0.856589
	H419	H	1.154554	1.079421	0.872245
