data_Molecule from HDF5

_cell_length_a		16.578276
_cell_length_b		16.478696
_cell_length_c		16.586006
_cell_angle_alpha	89.814805
_cell_angle_beta	89.933149
_cell_angle_gamma	89.948317
_symmetry_space_group_name_H-M	'P 1'
_symmetry_Int_Tables_number		1

loop_
	_symmetry_equiv_pos_as_xyz
	x,y,z

loop_
	_atom_site_label
	_atom_site_type_symbol
	_atom_site_fract_x
	_atom_site_fract_y
	_atom_site_fract_z
	H0	H	0.379308	0.842545	0.702963
	H1	H	0.587824	0.157628	0.701538
	H2	H	0.592452	0.843000	0.259748
	H3	H	0.380675	0.156615	0.259686
	H4	H	0.705950	0.397264	0.824232
	H5	H	0.709527	0.608569	0.135337
	H6	H	0.266260	0.602165	0.825112
	H7	H	0.260386	0.391197	0.136656
	H8	H	0.830663	0.725700	0.373678
	H9	H	0.141274	0.722157	0.587087
	H10	H	0.827092	0.280478	0.585941
	H11	H	0.141326	0.279356	0.378453
	H12	H	0.828128	0.396050	0.703908
	H13	H	0.141484	0.603612	0.702046
	H14	H	0.832138	0.612043	0.255000
	H15	H	0.140181	0.392543	0.258336
	H16	H	0.382707	0.720080	0.825488
	H17	H	0.591294	0.721891	0.137388
	H18	H	0.587355	0.282072	0.823373
	H19	H	0.379779	0.276556	0.137985
	H20	H	0.707847	0.843930	0.376672
	H21	H	0.701955	0.158948	0.583664
	H22	H	0.263898	0.842132	0.586644
	H23	H	0.264428	0.157331	0.375584
	H24	H	0.876760	0.344641	0.206261
	H25	H	0.093722	0.655161	0.205885
	H26	H	0.084835	0.340541	0.766637
	H27	H	0.877829	0.657992	0.757422
	H28	H	0.207627	0.893485	0.325620
	H29	H	0.202830	0.100234	0.639349
	H30	H	0.761964	0.108123	0.326317
	H31	H	0.761980	0.893836	0.638633
	H32	H	0.327597	0.218232	0.880533
	H33	H	0.641765	0.221727	0.086881
	H34	H	0.328554	0.779196	0.086277
	H35	H	0.642663	0.778891	0.877208
	H36	H	0.329409	0.892520	0.204580
	H37	H	0.641143	0.106280	0.204172
	H38	H	0.326462	0.100585	0.765764
	H39	H	0.641282	0.893311	0.759048
	H40	H	0.879897	0.222167	0.325365
	H41	H	0.083490	0.214711	0.640972
	H42	H	0.091005	0.777594	0.326254
	H43	H	0.878668	0.777337	0.638717
	H44	H	0.202796	0.341044	0.881259
	H45	H	0.208505	0.655682	0.089604
	H46	H	0.762204	0.344158	0.089022
	H47	H	0.760965	0.657288	0.872639
	H48	H	0.392112	0.112484	0.568705
	H49	H	0.568992	0.886244	0.576131
	H50	H	0.568094	0.111068	0.391411
	H51	H	0.396870	0.885646	0.388285
	H52	H	0.577986	0.414606	0.093130
	H53	H	0.569501	0.592920	0.871154
	H54	H	0.392834	0.589498	0.095566
	H55	H	0.394250	0.412490	0.870316
	H56	H	0.098219	0.591516	0.390718
	H57	H	0.872477	0.588907	0.572952
	H58	H	0.098926	0.407225	0.575668
	H59	H	0.876180	0.412757	0.400612
	H60	H	0.097789	0.407775	0.574491
	H61	H	0.873679	0.590504	0.568029
	H62	H	0.094141	0.588587	0.401297
	H63	H	0.874048	0.419073	0.390417
	H64	H	0.394874	0.584899	0.094037
	H65	H	0.578024	0.589237	0.867665
	H66	H	0.569963	0.412353	0.091161
	H67	H	0.396699	0.410156	0.870727
	H68	H	0.573669	0.110313	0.396627
	H69	H	0.573665	0.889413	0.564745
	H70	H	0.393686	0.114273	0.575275
	H71	H	0.400177	0.889024	0.395433
	H72	H	0.905116	0.610324	0.071355
	H73	H	0.074230	0.386321	0.072690
	H74	H	0.073803	0.612630	0.891982
	H75	H	0.895600	0.388537	0.894310
	H76	H	0.074765	0.911699	0.592990
	H77	H	0.074910	0.086129	0.369522
	H78	H	0.898867	0.087210	0.591299
	H79	H	0.891576	0.904831	0.366630
	H80	H	0.599661	0.091697	0.888612
	H81	H	0.374498	0.087283	0.070785
	H82	H	0.595370	0.911053	0.065356
	H83	H	0.373502	0.910243	0.893781
	H84	H	0.596451	0.915767	0.072782
	H85	H	0.373995	0.087824	0.069899
	H86	H	0.597986	0.090683	0.891769
	H87	H	0.373116	0.911317	0.891181
	H88	H	0.892738	0.098789	0.597322
	H89	H	0.071292	0.092785	0.369031
	H90	H	0.074102	0.911276	0.592968
	H91	H	0.890746	0.925107	0.374357
	H92	H	0.078529	0.613601	0.892565
	H93	H	0.069072	0.389549	0.070188
	H94	H	0.898771	0.608387	0.060673
	H95	H	0.895538	0.388237	0.892627
	H96	H	0.398099	0.111841	0.571020
	H97	H	0.581192	0.883848	0.573568
	H98	H	0.575040	0.113480	0.389694
	H99	H	0.391481	0.886473	0.394900
	H100	H	0.575405	0.406881	0.094854
	H101	H	0.572055	0.583354	0.872213
	H102	H	0.397805	0.589362	0.094195
	H103	H	0.393741	0.408969	0.868944
	H104	H	0.094043	0.580642	0.392596
	H105	H	0.875063	0.585295	0.569985
	H106	H	0.097820	0.408445	0.575961
	H107	H	0.870530	0.407453	0.391527
	H108	H	0.893320	0.614589	0.070130
	H109	H	0.074134	0.388204	0.066857
	H110	H	0.075870	0.614933	0.888210
	H111	H	0.896733	0.390263	0.892850
	H112	H	0.074241	0.910705	0.594159
	H113	H	0.078861	0.092496	0.366978
	H114	H	0.885311	0.086666	0.596008
	H115	H	0.909321	0.913421	0.375873
	H116	H	0.598654	0.087814	0.889143
	H117	H	0.374512	0.086977	0.069962
	H118	H	0.599300	0.907345	0.072677
	H119	H	0.372715	0.908726	0.891270
	C120	C	0.363172	0.008406	0.602982
	C121	C	0.605465	0.991057	0.602699
	C122	C	0.606033	0.008263	0.360434
	C123	C	0.364206	0.991096	0.360295
	C124	C	0.606374	0.379182	-0.010588
	C125	C	0.606357	0.621533	0.972943
	C126	C	0.363862	0.620293	-0.009184
	C127	C	0.363020	0.377574	0.973101
	C128	C	-0.006407	0.621658	0.360509
	C129	C	0.976716	0.621041	0.602952
	C130	C	-0.006078	0.377199	0.605624
	C131	C	0.976442	0.379563	0.361490
	C132	C	0.864756	0.508513	0.101944
	C133	C	0.106078	0.491008	0.103243
	C134	C	0.105961	0.508742	0.860869
	C135	C	0.863695	0.492967	0.860284
	C136	C	0.106610	0.878673	0.490116
	C137	C	0.105375	0.120582	0.473156
	C138	C	0.861590	0.122964	0.491026
	C139	C	0.863677	0.879989	0.474667
	C140	C	0.494280	0.121075	0.860019
	C141	C	0.477388	0.120474	0.102787
	C142	C	0.493695	0.878270	0.102947
	C143	C	0.476509	0.877869	0.859936
	C144	C	0.361073	0.889680	0.662904
	C145	C	0.606597	0.110204	0.661840
	C146	C	0.610186	0.890256	0.300070
	C147	C	0.362188	0.109474	0.299706
	C148	C	0.665868	0.378203	0.871227
	C149	C	0.668172	0.625604	0.089329
	C150	C	0.305602	0.621492	0.872242
	C151	C	0.302089	0.373851	0.090504
	C152	C	0.877210	0.684708	0.356130
	C153	C	0.094422	0.681119	0.604910
	C154	C	0.874718	0.319424	0.605605
	C155	C	0.094330	0.319000	0.359276
	C156	C	0.875100	0.376692	0.664125
	C157	C	0.094581	0.622715	0.662572
	C158	C	0.878279	0.628274	0.296959
	C159	C	0.093782	0.375603	0.299844
	C160	C	0.363203	0.679924	0.872380
	C161	C	0.609243	0.681921	0.090247
	C162	C	0.607188	0.320785	0.871033
	C163	C	0.361251	0.316953	0.091163
	C164	C	0.667793	0.890778	0.357882
	C165	C	0.663266	0.111034	0.603209
	C166	C	0.303766	0.889716	0.604756
	C167	C	0.304366	0.109823	0.357480
	C168	C	0.860165	0.391423	0.164898
	C169	C	0.110563	0.608390	0.164796
	C170	C	0.105391	0.388642	0.804339
	C171	C	0.860269	0.610950	0.798489
	C172	C	0.167234	0.875564	0.372706
	C173	C	0.163232	0.119996	0.592135
	C174	C	0.802605	0.125346	0.373070
	C175	C	0.802397	0.876020	0.591840
	C176	C	0.374899	0.178843	0.860967
	C177	C	0.594840	0.181537	0.105337
	C178	C	0.375828	0.818379	0.104923
	C179	C	0.595152	0.818196	0.858266
	C180	C	0.376301	0.875235	0.163565
	C181	C	0.594595	0.123759	0.163459
	C182	C	0.374489	0.120551	0.803759
	C183	C	0.594493	0.875312	0.799644
	C184	C	0.861128	0.182556	0.372772
	C185	C	0.104004	0.176686	0.592973
	C186	C	0.108859	0.818128	0.372682
	C187	C	0.860578	0.818210	0.591839
	C188	C	0.163768	0.388830	0.861520
	C189	C	0.167826	0.608722	0.106940
	C190	C	0.802992	0.391170	0.106581
	C191	C	0.802261	0.610558	0.855897
	C192	C	0.387656	0.091276	0.578628
	C193	C	0.581392	0.908157	0.578571
	C194	C	0.579866	0.090269	0.385476
	C195	C	0.389061	0.908454	0.385617
	C196	C	0.581620	0.404016	0.071696
	C197	C	0.580470	0.595656	0.891355
	C198	C	0.388174	0.595099	0.073163
	C199	C	0.387920	0.403212	0.891240
	C200	C	0.074467	0.594643	0.387220
	C201	C	0.894831	0.595441	0.577670
	C202	C	0.076720	0.400900	0.582132
	C203	C	0.894980	0.405626	0.386820
	C204	C	0.891440	0.590013	0.075030
	C205	C	0.080039	0.409369	0.077157
	C206	C	0.082556	0.592008	0.884256
	C207	C	0.889062	0.410530	0.885957
	C208	C	0.081370	0.903898	0.572170
	C209	C	0.082049	0.097261	0.390183
	C210	C	0.885528	0.098122	0.573554
	C211	C	0.889793	0.906640	0.393529
	C212	C	0.577124	0.097264	0.883202
	C213	C	0.395564	0.094781	0.077260
	C214	C	0.575790	0.903903	0.077458
	C215	C	0.394613	0.902701	0.884923
	Zn216	Zn	0.484698	-0.000427	0.731381
	Zn217	Zn	0.485633	-0.000964	0.231660
	Zn218	Zn	0.735379	0.501041	-0.018810
	Zn219	Zn	0.234306	0.499482	-0.017720
	Zn220	Zn	-0.015448	0.750261	0.482014
	Zn221	Zn	-0.015478	0.250189	0.482655
	Zn222	Zn	-0.015435	0.500228	0.732262
	Zn223	Zn	-0.014902	0.500117	0.231855
	Zn224	Zn	0.485283	0.749423	-0.018259
	Zn225	Zn	0.485330	0.249443	-0.018667
	Zn226	Zn	0.734010	0.000537	0.481893
	Zn227	Zn	0.235268	0.000047	0.480884
	N228	N	0.397458	0.964553	0.662118
	N229	N	0.571348	0.034674	0.661690
	N230	N	0.572462	0.964322	0.301560
	N231	N	0.398602	0.034535	0.301238
	N232	N	0.665541	0.413771	0.946064
	N233	N	0.666579	0.588849	0.015264
	N234	N	0.305649	0.585570	0.947045
	N235	N	0.303180	0.411083	0.016494
	N236	N	0.949950	0.680626	0.395269
	N237	N	0.020154	0.679941	0.568514
	N238	N	0.949631	0.319412	0.570104
	N239	N	0.020501	0.321112	0.396721
	N240	N	0.950119	0.411779	0.664294
	N241	N	0.020114	0.586305	0.661623
	N242	N	0.951688	0.589851	0.299557
	N243	N	0.019511	0.412504	0.301040
	N244	N	0.398551	0.679455	0.947237
	N245	N	0.571443	0.679435	0.016625
	N246	N	0.571189	0.321131	0.945632
	N247	N	0.398529	0.319264	0.017205
	N248	N	0.665528	0.965094	0.394709
	N249	N	0.663098	0.035960	0.567381
	N250	N	0.304836	0.964508	0.568322
	N251	N	0.305521	0.035130	0.394454
	N252	N	0.897922	0.465505	0.162071
	N253	N	0.072825	0.534423	0.162634
	N254	N	0.070445	0.464269	0.803351
	N255	N	0.898022	0.536779	0.801217
	N256	N	0.165984	0.912333	0.446838
	N257	N	0.164519	0.086282	0.516511
	N258	N	0.802827	0.089008	0.447680
	N259	N	0.804206	0.913783	0.518040
	N260	N	0.450390	0.179693	0.894797
	N261	N	0.520823	0.179760	0.068310
	N262	N	0.449902	0.820064	0.067749
	N263	N	0.520847	0.819459	0.895082
	N264	N	0.450780	0.911573	0.162512
	N265	N	0.520491	0.086634	0.162003
	N266	N	0.449828	0.085701	0.802585
	N267	N	0.519821	0.911535	0.800343
	N268	N	0.897000	0.181388	0.447337
	N269	N	0.069162	0.177544	0.517791
	N270	N	0.072017	0.819672	0.446964
	N271	N	0.897954	0.820488	0.517951
	N272	N	0.164398	0.464551	0.895840
	N273	N	0.165555	0.534553	0.069468
	N274	N	0.805497	0.464954	0.068000
	N275	N	0.804283	0.536322	0.893635
	O276	O	0.981045	0.904318	-0.102762
	H277	H	0.987745	0.904414	-0.112760
	H278	H	0.981699	0.912852	-0.103525
	O279	O	-0.148287	-0.115746	1.146919
	H280	H	-0.128758	-0.122641	1.154487
	H281	H	-0.149618	-0.124098	1.127080
	O282	O	-0.153666	-0.019673	0.924020
	H283	H	-0.139198	-0.029796	0.913188
	H284	H	-0.150016	0.002756	0.951419
	O285	O	0.263868	0.510518	0.504848
	H286	H	0.255584	0.512292	0.499355
	H287	H	0.267707	0.501488	0.492873
	O288	O	1.366762	-0.690225	1.284080
	H289	H	1.373978	-0.683676	1.293496
	H290	H	1.374065	-0.667830	1.287354
	O291	O	0.650680	0.430671	0.271408
	H292	H	0.660048	0.401900	0.257577
	H293	H	0.634523	0.418437	0.269118
	O294	O	0.458323	0.300099	0.698330
	H295	H	0.428895	0.309442	0.692189
	H296	H	0.443863	0.275757	0.725305
	O297	O	0.674972	-0.329621	-0.327765
	H298	H	0.643866	-0.333970	-0.327030
	H299	H	0.683207	-0.346134	-0.326041
	O300	O	0.184502	0.118588	-0.073110
	H301	H	0.196096	0.122757	-0.057613
	H302	H	0.190447	0.118628	-0.043458
	O303	O	-0.286215	-0.270670	0.236276
	H304	H	-0.278295	-0.285038	0.211140
	H305	H	-0.280028	-0.264997	0.237554
	O306	O	1.273623	0.291884	-0.311410
	H307	H	1.239712	0.265059	-0.277669
	H308	H	1.269826	0.331799	-0.316577
	O309	O	-0.039050	1.115145	-0.001706
	H310	H	-0.027849	1.115077	-0.005609
	H311	H	-0.057626	1.119295	-0.014151
	O312	O	0.550021	0.393977	0.635798
	H313	H	0.543527	0.376900	0.628928
	H314	H	0.542250	0.389986	0.620938
	O315	O	0.332889	0.683387	0.673774
	H316	H	0.346132	0.674333	0.674229
	H317	H	0.343741	0.672866	0.657555
	O318	O	0.983311	0.780638	0.098248
	H319	H	1.003239	0.772876	0.094772
	H320	H	0.981874	0.792959	0.079221
	O321	O	-0.051114	0.866078	1.146449
	H322	H	-0.038569	0.866395	1.136684
	H323	H	-0.042576	0.851856	1.147256
	O324	O	0.764970	0.223293	0.955119
	H325	H	0.748990	0.239032	0.928310
	H326	H	0.755994	0.230374	0.927063
	O327	O	0.185856	1.201588	1.100405
	H328	H	0.173992	1.189917	1.122649
	H329	H	0.183047	1.220249	1.122858
	O330	O	0.290634	0.712354	0.459370
	H331	H	0.287168	0.701649	0.465110
	H332	H	0.274080	0.733081	0.463672
	O333	O	0.614197	1.614811	1.385362
	H334	H	0.618950	1.626702	1.391474
	H335	H	0.616547	1.606518	1.372922
	O336	O	0.680726	0.309492	0.287080
	H337	H	0.698482	0.288335	0.289651
	H338	H	0.648149	0.300065	0.280902
	O339	O	0.452117	0.707890	0.266613
	H340	H	0.469722	0.711561	0.244278
	H341	H	0.477400	0.707833	0.270140
	O342	O	0.013623	0.784107	-0.234814
	H343	H	0.019261	0.783314	-0.235276
	H344	H	0.034650	0.763308	-0.256828
	O345	O	0.457512	0.461394	0.269372
	H346	H	0.435111	0.469204	0.264651
	H347	H	0.453733	0.465428	0.283114
	O348	O	0.535024	0.511663	0.508459
	H349	H	0.529996	0.523059	0.510908
	H350	H	0.548075	0.501111	0.507470
	O351	O	0.479935	-0.588865	1.619340
	H352	H	0.473832	-0.594212	1.612187
	H353	H	0.488887	-0.581664	1.621359
	O354	O	0.875891	0.202874	1.055634
	H355	H	0.902001	0.203551	1.030244
	H356	H	0.850121	0.216260	1.036792
	O357	O	0.516568	0.532897	0.650309
	H358	H	0.531630	0.511447	0.647413
	H359	H	0.510084	0.539734	0.647483
	O360	O	1.194031	0.942483	1.140450
	H361	H	1.208937	0.963717	1.140372
	H362	H	1.172062	0.964658	1.138534
	O363	O	0.824043	1.124346	-0.223488
	H364	H	0.819002	1.086016	-0.238093
	H365	H	0.794860	1.141155	-0.240705
	O366	O	0.894963	0.930021	1.153087
	H367	H	0.883239	0.914595	1.158582
	H368	H	0.909934	0.910524	1.157812
	O369	O	-0.138751	0.126672	1.179280
	H370	H	-0.124538	0.106610	1.171151
	H371	H	-0.136296	0.115013	1.159203
	O372	O	0.278576	0.701402	1.274401
	H373	H	0.317428	0.700665	1.278164
	H374	H	0.278133	0.714701	1.291787
	O375	O	1.273039	-0.465533	0.265647
	H376	H	1.251350	-0.450932	0.246282
	H377	H	1.277359	-0.436508	0.274032
	O378	O	0.328295	0.458984	0.393857
	H379	H	0.320510	0.459424	0.408842
	H380	H	0.315889	0.454711	0.396890
	O381	O	0.506573	0.712637	0.656551
	H382	H	0.499838	0.713042	0.656939
	H383	H	0.510451	0.722026	0.662013
	O384	O	0.391363	0.496602	0.496117
	H385	H	0.392395	0.485441	0.488316
	H386	H	0.390893	0.508100	0.490415
	O387	O	0.083881	1.213742	1.190829
	H388	H	0.080665	1.235816	1.192238
	H389	H	0.055352	1.227675	1.204206
	O390	O	-0.233136	1.024062	1.090955
	H391	H	-0.235516	1.015361	1.098435
	H392	H	-0.247721	1.033866	1.097636
	O393	O	1.002785	0.176667	-0.011287
	H394	H	1.024864	0.172545	0.001188
	H395	H	0.999929	0.179730	-0.033990
	O396	O	0.713407	0.451547	0.452975
	H397	H	0.721777	0.445774	0.428199
	H398	H	0.720972	0.461928	0.453756
	O399	O	0.644532	0.306960	0.492084
	H400	H	0.651950	0.296858	0.495456
	H401	H	0.641590	0.298646	0.494223
	O402	O	1.211097	0.004578	0.956951
	H403	H	1.208286	0.009317	0.967048
	H404	H	1.211952	0.008047	0.954761
	O405	O	0.716975	0.273528	0.708610
	H406	H	0.718225	0.276736	0.689350
	H407	H	0.697044	0.286486	0.688345
	O408	O	0.909359	0.850995	0.924201
	H409	H	0.917298	0.852210	0.930233
	H410	H	0.927702	0.846104	0.914461
	O411	O	1.135361	0.974085	-0.173808
	H412	H	1.138740	0.973310	-0.179693
	H413	H	1.148152	0.962365	-0.175146
	O414	O	-0.219859	-0.137050	-0.012751
	H415	H	-0.228486	-0.128874	-0.009268
	H416	H	-0.210641	-0.129654	-0.023016
	O417	O	1.170163	0.185849	-0.204647
	H418	H	1.146281	0.156101	-0.201582
	H419	H	1.161540	0.175121	-0.171550
	O420	O	1.085234	-0.035166	1.100152
	H421	H	1.076280	-0.048075	1.101935
	H422	H	1.076290	-0.027816	1.114626
	O423	O	0.926816	1.192370	-0.226966
	H424	H	0.917109	1.196434	-0.236870
	H425	H	0.908120	1.192874	-0.241009
	O426	O	0.709574	0.672248	0.491357
	H427	H	0.722409	0.682714	0.500685
	H428	H	0.709832	0.674038	0.513231
	O429	O	0.688984	0.497562	0.682123
	H430	H	0.672407	0.490912	0.677991
	H431	H	0.705697	0.498107	0.684688
	O432	O	0.896924	-0.181885	0.957011
	H433	H	0.891449	-0.189708	0.956258
	H434	H	0.906828	-0.172275	0.943244
	O435	O	0.260831	0.275772	0.521217
	H436	H	0.270520	0.277784	0.554506
	H437	H	0.235151	0.241572	0.524149
	O438	O	0.960619	0.965286	0.039915
	H439	H	0.981849	0.962268	0.028994
	H440	H	0.962402	0.970082	0.044018
	O441	O	0.566616	0.287057	0.371858
	H442	H	0.565243	0.278525	0.350689
	H443	H	0.571199	0.283537	0.359364
	O444	O	0.494335	0.627309	0.472659
	H445	H	0.486676	0.628527	0.468837
	H446	H	0.509097	0.632455	0.467787
	O447	O	0.208471	0.771655	0.750426
	H448	H	0.233395	0.758757	0.731428
	H449	H	0.210564	0.770379	0.776876
	O450	O	1.202854	-0.224368	-0.050464
	H451	H	1.223823	-0.231907	-0.046545
	H452	H	1.209373	-0.219975	-0.052022
	O453	O	0.273195	0.464280	0.691441
	H454	H	0.264774	0.469041	0.700032
	H455	H	0.281211	0.479907	0.684484
	O456	O	-0.211804	1.016375	0.771059
	H457	H	-0.211376	0.996939	0.801915
	H458	H	-0.221179	1.015232	0.749089
	O459	O	0.482335	0.603994	0.523101
	H460	H	0.481821	0.598792	0.511635
	H461	H	0.487598	0.591503	0.516688
	O462	O	1.037144	0.075209	0.765655
	H463	H	1.035474	0.071745	0.768318
	H464	H	1.022415	0.060565	0.769595
	O465	O	0.410329	0.307838	0.433852
	H466	H	0.403796	0.303511	0.452233
	H467	H	0.416580	0.317923	0.434743
	O468	O	0.128696	1.095063	0.193482
	H469	H	0.112374	1.093470	0.193931
	H470	H	0.130334	1.087771	0.206314
	O471	O	0.539987	0.611738	0.500971
	H472	H	0.565167	0.612910	0.491323
	H473	H	0.539194	0.602859	0.490592
	O474	O	1.131872	0.934638	-0.037414
	H475	H	1.122074	0.940239	-0.040312
	H476	H	1.132816	0.941977	-0.032407
	O477	O	0.564204	0.583451	0.271548
	H478	H	0.575558	0.574431	0.269172
	H479	H	0.581064	0.566936	0.264709
