data_Molecule from HDF5

_cell_length_a		16.353704
_cell_length_b		16.317822
_cell_length_c		16.213830
_cell_angle_alpha	90.042344
_cell_angle_beta	90.057083
_cell_angle_gamma	90.014979
_symmetry_space_group_name_H-M	'P 1'
_symmetry_Int_Tables_number		1

loop_
	_symmetry_equiv_pos_as_xyz
	x,y,z

loop_
	_atom_site_label
	_atom_site_type_symbol
	_atom_site_fract_x
	_atom_site_fract_y
	_atom_site_fract_z
	H0	H	0.404717	0.845472	0.701232
	H1	H	0.598781	0.172770	0.702835
	H2	H	0.599000	0.845821	0.274168
	H3	H	0.405091	0.173430	0.275524
	H4	H	0.715846	0.409717	0.824804
	H5	H	0.715868	0.607936	0.153189
	H6	H	0.286565	0.606887	0.825074
	H7	H	0.287534	0.409472	0.153050
	H8	H	0.839042	0.723361	0.389490
	H9	H	0.164014	0.726142	0.590384
	H10	H	0.839049	0.293433	0.588495
	H11	H	0.164273	0.292710	0.389635
	H12	H	0.838652	0.411059	0.703342
	H13	H	0.165257	0.607624	0.703910
	H14	H	0.838326	0.605168	0.276442
	H15	H	0.165426	0.411001	0.275419
	H16	H	0.403084	0.722797	0.824414
	H17	H	0.600596	0.723223	0.153108
	H18	H	0.598838	0.294965	0.824516
	H19	H	0.404375	0.295026	0.152837
	H20	H	0.717270	0.846148	0.388226
	H21	H	0.717152	0.171762	0.588814
	H22	H	0.285541	0.846593	0.588889
	H23	H	0.284503	0.172135	0.387914
	H24	H	0.906278	0.344550	0.201803
	H25	H	0.098106	0.672826	0.201696
	H26	H	0.098420	0.345712	0.775897
	H27	H	0.904162	0.673172	0.775503
	H28	H	0.214912	0.910277	0.325142
	H29	H	0.215244	0.108007	0.652817
	H30	H	0.787162	0.107203	0.324690
	H31	H	0.787937	0.911086	0.653748
	H32	H	0.339144	0.224229	0.887699
	H33	H	0.663925	0.224305	0.088247
	H34	H	0.338544	0.793561	0.087461
	H35	H	0.665260	0.793280	0.889577
	H36	H	0.338115	0.912307	0.201671
	H37	H	0.664467	0.105990	0.201910
	H38	H	0.338176	0.104485	0.775449
	H39	H	0.665787	0.911404	0.774008
	H40	H	0.903963	0.222148	0.324444
	H41	H	0.098436	0.222066	0.653279
	H42	H	0.099431	0.794786	0.325019
	H43	H	0.903700	0.794013	0.653143
	H44	H	0.215830	0.345658	0.890182
	H45	H	0.218226	0.671389	0.088798
	H46	H	0.786610	0.345502	0.088548
	H47	H	0.785759	0.672117	0.889654
	H48	H	0.407844	0.125180	0.577353
	H49	H	0.595042	0.890965	0.585870
	H50	H	0.596825	0.124465	0.399722
	H51	H	0.405877	0.893167	0.396283
	H52	H	0.602581	0.413180	0.109597
	H53	H	0.587926	0.599777	0.874555
	H54	H	0.403027	0.597817	0.106326
	H55	H	0.407172	0.416712	0.872035
	H56	H	0.118833	0.600520	0.391166
	H57	H	0.890109	0.592300	0.583594
	H58	H	0.113873	0.424974	0.577169
	H59	H	0.889952	0.423266	0.401221
	H60	H	0.121116	0.415021	0.593446
	H61	H	0.881628	0.608164	0.588979
	H62	H	0.119488	0.608147	0.397489
	H63	H	0.883830	0.416597	0.386817
	H64	H	0.415255	0.597314	0.102275
	H65	H	0.595762	0.606653	0.870245
	H66	H	0.593803	0.424440	0.103226
	H67	H	0.409409	0.414781	0.871496
	H68	H	0.597772	0.125990	0.393436
	H69	H	0.589049	0.895509	0.578029
	H70	H	0.404768	0.126322	0.582560
	H71	H	0.407257	0.892428	0.394242
	H72	H	0.900655	0.626886	0.081232
	H73	H	0.101733	0.391085	0.079409
	H74	H	0.098564	0.624888	0.901340
	H75	H	0.910009	0.392744	0.895377
	H76	H	0.096564	0.911089	0.608893
	H77	H	0.099182	0.100469	0.370444
	H78	H	0.902416	0.095522	0.605877
	H79	H	0.912825	0.921870	0.375148
	H80	H	0.619418	0.104866	0.891512
	H81	H	0.382057	0.111323	0.083639
	H82	H	0.616119	0.924080	0.083896
	H83	H	0.383012	0.916805	0.880241
	H84	H	0.621344	0.908826	0.088848
	H85	H	0.387813	0.101171	0.072777
	H86	H	0.617419	0.105624	0.900168
	H87	H	0.384224	0.900036	0.902110
	H88	H	0.916178	0.100498	0.603709
	H89	H	0.091192	0.096902	0.373339
	H90	H	0.097505	0.920610	0.606499
	H91	H	0.911110	0.908064	0.371033
	H92	H	0.097667	0.627575	0.892393
	H93	H	0.096117	0.390284	0.088267
	H94	H	0.910108	0.626031	0.088956
	H95	H	0.908580	0.394224	0.898886
	H96	H	0.411008	0.125175	0.582979
	H97	H	0.599730	0.893339	0.575732
	H98	H	0.591521	0.125099	0.395280
	H99	H	0.408353	0.894196	0.396421
	H100	H	0.587569	0.410548	0.105818
	H101	H	0.598808	0.595820	0.872760
	H102	H	0.410543	0.608358	0.107338
	H103	H	0.406775	0.414141	0.870565
	H104	H	0.115871	0.599175	0.400517
	H105	H	0.887971	0.606168	0.572106
	H106	H	0.118945	0.405319	0.575454
	H107	H	0.885032	0.407108	0.401148
	H108	H	0.911402	0.622312	0.077681
	H109	H	0.091717	0.394316	0.079290
	H110	H	0.090484	0.623757	0.897173
	H111	H	0.906050	0.392672	0.896191
	H112	H	0.088907	0.915884	0.604835
	H113	H	0.091417	0.106038	0.371492
	H114	H	0.906308	0.109485	0.608691
	H115	H	0.900754	0.917343	0.370539
	H116	H	0.616960	0.098282	0.896177
	H117	H	0.385062	0.095913	0.087161
	H118	H	0.615981	0.911185	0.073102
	H119	H	0.393140	0.926257	0.904127
	C120	C	0.379830	0.017209	0.609641
	C121	C	0.622906	1.001039	0.609612
	C122	C	0.623498	0.017598	0.366986
	C123	C	0.379138	1.000953	0.366948
	C124	C	0.622762	0.387153	-0.002517
	C125	C	0.622897	0.629656	0.980786
	C126	C	0.380859	0.629635	-0.002775
	C127	C	0.379955	0.387075	0.980166
	C128	C	0.010334	0.630596	0.367811
	C129	C	0.993981	0.630892	0.610566
	C130	C	0.010180	0.386733	0.610901
	C131	C	0.993802	0.387067	0.367519
	C132	C	0.879638	0.517006	0.111127
	C133	C	0.124129	0.500089	0.110761
	C134	C	0.123223	0.517391	0.868259
	C135	C	0.879565	0.501115	0.867647
	C136	C	0.122394	0.887859	0.497865
	C137	C	0.122341	0.129849	0.480330
	C138	C	0.879967	0.130194	0.497620
	C139	C	0.879951	0.887305	0.480727
	C140	C	0.509990	0.130213	0.867413
	C141	C	0.492863	0.130810	0.109897
	C142	C	0.509899	0.886845	0.110323
	C143	C	0.494516	0.886475	0.866668
	C144	C	0.383227	0.894588	0.664431
	C145	C	0.619705	0.123832	0.664983
	C146	C	0.620001	0.894486	0.311928
	C147	C	0.383111	0.124430	0.312370
	C148	C	0.677545	0.389692	0.873831
	C149	C	0.677837	0.627662	0.104176
	C150	C	0.324818	0.627306	0.873800
	C151	C	0.325529	0.389670	0.103922
	C152	C	0.887616	0.685528	0.369635
	C153	C	0.115944	0.687051	0.609489
	C154	C	0.887585	0.331787	0.608329
	C155	C	0.116027	0.331494	0.369729
	C156	C	0.887481	0.390044	0.665762
	C157	C	0.116329	0.628302	0.666124
	C158	C	0.887224	0.626865	0.313155
	C159	C	0.116471	0.389884	0.312661
	C160	C	0.382750	0.684653	0.873361
	C161	C	0.620790	0.685228	0.104177
	C162	C	0.619742	0.332412	0.873673
	C163	C	0.383306	0.332663	0.103889
	C164	C	0.678925	0.894804	0.368445
	C165	C	0.678571	0.123360	0.608503
	C166	C	0.324260	0.894967	0.608021
	C167	C	0.323323	0.123687	0.368175
	C168	C	0.884048	0.393850	0.165176
	C169	C	0.119909	0.623836	0.164673
	C170	C	0.119771	0.394493	0.813136
	C171	C	0.882979	0.624104	0.812770
	C172	C	0.177109	0.890233	0.374014
	C173	C	0.177441	0.128040	0.603826
	C174	C	0.825128	0.127790	0.373768
	C175	C	0.825094	0.889920	0.604510
	C176	C	0.387233	0.184986	0.868938
	C177	C	0.615435	0.185866	0.108155
	C178	C	0.387216	0.831746	0.107488
	C179	C	0.616979	0.831450	0.868960
	C180	C	0.386757	0.890701	0.164203
	C181	C	0.615654	0.127398	0.164901
	C182	C	0.386881	0.126088	0.812762
	C183	C	0.617090	0.890063	0.811511
	C184	C	0.882893	0.184813	0.373716
	C185	C	0.119710	0.184978	0.604042
	C186	C	0.119577	0.833080	0.373895
	C187	C	0.882956	0.832286	0.604436
	C188	C	0.177878	0.394435	0.870074
	C189	C	0.179635	0.622984	0.108976
	C190	C	0.825055	0.394037	0.108474
	C191	C	0.824240	0.623662	0.869719
	C192	C	0.401346	0.103287	0.587387
	C193	C	0.600982	0.915320	0.586591
	C194	C	0.601799	0.103111	0.389494
	C195	C	0.400732	0.915434	0.389116
	C196	C	0.600908	0.409422	0.083908
	C197	C	0.600794	0.607292	0.894629
	C198	C	0.403078	0.607659	0.083004
	C199	C	0.401442	0.408805	0.893622
	C200	C	0.095902	0.609023	0.389992
	C201	C	0.908602	0.608776	0.587992
	C202	C	0.095944	0.408605	0.588542
	C203	C	0.908226	0.409088	0.389734
	C204	C	0.901032	0.602931	0.088943
	C205	C	0.102686	0.414173	0.089050
	C206	C	0.101773	0.603330	0.890381
	C207	C	0.901662	0.415320	0.890139
	C208	C	0.100831	0.909610	0.584272
	C209	C	0.100363	0.107602	0.394038
	C210	C	0.901852	0.108250	0.583896
	C211	C	0.901825	0.909428	0.394508
	C212	C	0.595875	0.109229	0.889512
	C213	C	0.407148	0.109200	0.087813
	C214	C	0.595612	0.908436	0.088380
	C215	C	0.408790	0.907943	0.888973
	Zn216	Zn	0.502026	0.009230	0.738176
	Zn217	Zn	0.501295	0.009023	0.238792
	Zn218	Zn	0.750966	0.508611	-0.010609
	Zn219	Zn	0.252340	0.508293	-0.011032
	Zn220	Zn	0.001997	0.759466	0.488749
	Zn221	Zn	0.001696	0.258078	0.488770
	Zn222	Zn	0.001780	0.508926	0.739279
	Zn223	Zn	0.002066	0.509132	0.239130
	Zn224	Zn	0.502382	0.757690	-0.011536
	Zn225	Zn	0.501406	0.259061	-0.011510
	Zn226	Zn	0.751568	0.009141	0.488734
	Zn227	Zn	0.250667	0.009347	0.488698
	N228	N	0.417268	0.971630	0.665291
	N229	N	0.585971	0.046545	0.665905
	N230	N	0.586286	0.971738	0.310765
	N231	N	0.416961	0.047288	0.311444
	N232	N	0.679611	0.422947	0.951910
	N233	N	0.679053	0.593713	0.026555
	N234	N	0.323564	0.593623	0.951552
	N235	N	0.323417	0.422722	0.025883
	N236	N	0.965125	0.687830	0.402873
	N237	N	0.038733	0.688953	0.575815
	N238	N	0.964933	0.329777	0.574825
	N239	N	0.038687	0.329588	0.402990
	N240	N	0.964616	0.423652	0.667181
	N241	N	0.039525	0.593870	0.666914
	N242	N	0.964486	0.593489	0.311675
	N243	N	0.039344	0.423789	0.311254
	N244	N	0.417061	0.686210	0.950860
	N245	N	0.587337	0.686601	0.026285
	N246	N	0.586426	0.330891	0.951565
	N247	N	0.416497	0.331007	0.026089
	N248	N	0.681019	0.972075	0.402115
	N249	N	0.680255	0.046076	0.574732
	N250	N	0.321968	0.972461	0.574850
	N251	N	0.320722	0.046046	0.401523
	N252	N	0.917142	0.471295	0.167006
	N253	N	0.086284	0.546492	0.166165
	N254	N	0.086465	0.471888	0.811800
	N255	N	0.916516	0.546782	0.811401
	N256	N	0.179182	0.923455	0.452159
	N257	N	0.179233	0.094459	0.525958
	N258	N	0.823088	0.094687	0.451739
	N259	N	0.823287	0.923679	0.526706
	N260	N	0.464802	0.187831	0.902069
	N261	N	0.538122	0.188041	0.074714
	N262	N	0.464882	0.829186	0.074796
	N263	N	0.539740	0.829077	0.902300
	N264	N	0.463966	0.924016	0.166303
	N265	N	0.538509	0.093688	0.166043
	N266	N	0.464106	0.092710	0.811670
	N267	N	0.539708	0.923396	0.809970
	N268	N	0.916375	0.186347	0.451650
	N269	N	0.086228	0.186155	0.526155
	N270	N	0.086295	0.831631	0.451778
	N271	N	0.915950	0.830411	0.526472
	N272	N	0.180108	0.471934	0.903674
	N273	N	0.182264	0.545198	0.076223
	N274	N	0.822364	0.471769	0.075550
	N275	N	0.821713	0.545948	0.902855
	O276	O	0.601532	-0.498294	1.473660
	H277	H	0.607424	-0.495727	1.469743
	H278	H	0.593679	-0.498677	1.477856
	O279	O	0.537070	0.531877	0.533477
	H280	H	0.538462	0.528087	0.527194
	H281	H	0.536567	0.536273	0.538838
	O282	O	-0.465072	0.553299	1.524636
	H283	H	-0.467261	0.561328	1.528501
	H284	H	-0.462095	0.548345	1.533053
	O285	O	0.567206	0.561617	0.466530
	H286	H	0.574948	0.560090	0.462971
	H287	H	0.567094	0.558101	0.471848
	O288	O	0.561133	0.560750	0.483539
	H289	H	0.559511	0.570103	0.477200
	H290	H	0.564552	0.561261	0.488960
	O291	O	0.537291	0.610793	0.543785
	H292	H	0.534236	0.610663	0.542860
	H293	H	0.539349	0.612886	0.545944
	O294	O	0.540464	0.595975	0.503487
	H295	H	0.537099	0.602320	0.499802
	H296	H	0.539312	0.587381	0.492078
	O297	O	0.539417	-0.443245	0.455257
	H298	H	0.548095	-0.432858	0.467508
	H299	H	0.537144	-0.437541	0.453278
