data_Molecule from HDF5

_cell_length_a		16.361624
_cell_length_b		16.393881
_cell_length_c		16.481406
_cell_angle_alpha	90.063443
_cell_angle_beta	90.171657
_cell_angle_gamma	89.987682
_symmetry_space_group_name_H-M	'P 1'
_symmetry_Int_Tables_number		1

loop_
	_symmetry_equiv_pos_as_xyz
	x,y,z

loop_
	_atom_site_label
	_atom_site_type_symbol
	_atom_site_fract_x
	_atom_site_fract_y
	_atom_site_fract_z
	H0	H	0.392811	0.833016	0.718843
	H1	H	0.605969	0.148444	0.723978
	H2	H	0.601947	0.832676	0.279014
	H3	H	0.387872	0.149738	0.274987
	H4	H	0.718758	0.385455	0.841456
	H5	H	0.720069	0.596964	0.157139
	H6	H	0.275897	0.595410	0.840614
	H7	H	0.275794	0.386862	0.157789
	H8	H	0.838791	0.713768	0.393903
	H9	H	0.156489	0.713572	0.605812
	H10	H	0.838850	0.271803	0.603475
	H11	H	0.156800	0.268968	0.391973
	H12	H	0.839395	0.385672	0.720597
	H13	H	0.155568	0.598813	0.722238
	H14	H	0.840583	0.599946	0.274870
	H15	H	0.156282	0.384433	0.276675
	H16	H	0.393137	0.711880	0.839907
	H17	H	0.601904	0.712843	0.157504
	H18	H	0.603274	0.268543	0.842099
	H19	H	0.389804	0.268850	0.156816
	H20	H	0.717737	0.833472	0.396343
	H21	H	0.717789	0.152253	0.605440
	H22	H	0.277936	0.833436	0.602721
	H23	H	0.273960	0.150143	0.393034
	H24	H	0.889743	0.333540	0.222973
	H25	H	0.103933	0.649938	0.221848
	H26	H	0.104987	0.333380	0.776571
	H27	H	0.892200	0.649906	0.779214
	H28	H	0.220808	0.885474	0.342905
	H29	H	0.221672	0.099245	0.658664
	H30	H	0.774370	0.099538	0.342060
	H31	H	0.779265	0.890621	0.658805
	H32	H	0.338051	0.212766	0.892439
	H33	H	0.655089	0.216398	0.108005
	H34	H	0.336878	0.773698	0.101585
	H35	H	0.657218	0.771182	0.895929
	H36	H	0.338692	0.886738	0.219811
	H37	H	0.654660	0.101930	0.224759
	H38	H	0.339389	0.095976	0.777035
	H39	H	0.656242	0.883147	0.777404
	H40	H	0.892594	0.213622	0.341004
	H41	H	0.103313	0.214125	0.658750
	H42	H	0.105639	0.767741	0.343210
	H43	H	0.895900	0.773477	0.658224
	H44	H	0.219889	0.333169	0.892781
	H45	H	0.215705	0.651770	0.102183
	H46	H	0.775600	0.332510	0.105472
	H47	H	0.776933	0.649922	0.895388
	H48	H	0.412688	0.103845	0.583963
	H49	H	0.584568	0.879805	0.587626
	H50	H	0.581224	0.103726	0.410835
	H51	H	0.409818	0.880296	0.411565
	H52	H	0.570864	0.404102	0.106828
	H53	H	0.587933	0.584611	0.885009
	H54	H	0.405623	0.585307	0.113560
	H55	H	0.413704	0.397865	0.887200
	H56	H	0.108742	0.578276	0.415237
	H57	H	0.883189	0.585426	0.585584
	H58	H	0.109863	0.406330	0.583690
	H59	H	0.887157	0.405100	0.415341
	H60	H	0.111803	0.407526	0.592488
	H61	H	0.885913	0.577426	0.588442
	H62	H	0.111245	0.577103	0.408943
	H63	H	0.885401	0.407933	0.408254
	H64	H	0.406217	0.580770	0.112817
	H65	H	0.588843	0.579272	0.885248
	H66	H	0.592210	0.391248	0.118425
	H67	H	0.401508	0.401369	0.884086
	H68	H	0.587156	0.104934	0.413893
	H69	H	0.590334	0.877766	0.585970
	H70	H	0.406987	0.106075	0.589372
	H71	H	0.408006	0.878436	0.409765
	H72	H	0.905077	0.605997	0.088648
	H73	H	0.087059	0.379183	0.085186
	H74	H	0.083088	0.601961	0.916177
	H75	H	0.908429	0.375664	0.906437
	H76	H	0.093937	0.909428	0.612943
	H77	H	0.089897	0.080379	0.387429
	H78	H	0.900754	0.080558	0.613941
	H79	H	0.908420	0.902134	0.386429
	H80	H	0.608604	0.076665	0.915370
	H81	H	0.388267	0.074704	0.083186
	H82	H	0.611344	0.898737	0.086528
	H83	H	0.381282	0.895665	0.905956
	H84	H	0.608751	0.907910	0.085764
	H85	H	0.382920	0.077898	0.092222
	H86	H	0.611258	0.078044	0.908354
	H87	H	0.385742	0.903513	0.914805
	H88	H	0.914297	0.078460	0.608918
	H89	H	0.084415	0.076525	0.390784
	H90	H	0.079155	0.907399	0.608118
	H91	H	0.906999	0.903084	0.385419
	H92	H	0.091541	0.606362	0.910724
	H93	H	0.088126	0.376153	0.091138
	H94	H	0.913965	0.603354	0.092086
	H95	H	0.910419	0.377921	0.909940
	H96	H	0.414309	0.105221	0.591640
	H97	H	0.588367	0.876782	0.592107
	H98	H	0.586042	0.107108	0.407893
	H99	H	0.411032	0.879531	0.408510
	H100	H	0.594035	0.416828	0.110116
	H101	H	0.584349	0.582054	0.887649
	H102	H	0.409723	0.583483	0.112063
	H103	H	0.409406	0.409484	0.890013
	H104	H	0.111795	0.583221	0.412096
	H105	H	0.881370	0.582870	0.593802
	H106	H	0.112512	0.399550	0.588593
	H107	H	0.883857	0.401154	0.410114
	H108	H	0.911286	0.602016	0.082718
	H109	H	0.082046	0.379261	0.089408
	H110	H	0.081618	0.605208	0.905154
	H111	H	0.906050	0.377119	0.910256
	H112	H	0.087198	0.895266	0.615360
	H113	H	0.082942	0.083972	0.388020
	H114	H	0.910610	0.091138	0.615265
	H115	H	0.908583	0.903823	0.386450
	H116	H	0.611340	0.083932	0.913772
	H117	H	0.383596	0.084720	0.084184
	H118	H	0.612344	0.904643	0.093973
	H119	H	0.384092	0.907659	0.903237
	C120	C	0.378189	0.000494	0.620428
	C121	C	0.620219	0.983022	0.621795
	C122	C	0.618134	0.000830	0.378399
	C123	C	0.375667	0.983687	0.377373
	C124	C	0.618392	0.370648	0.007845
	C125	C	0.619439	0.613815	0.990731
	C126	C	0.375534	0.613972	0.007755
	C127	C	0.375553	0.370397	0.991110
	C128	C	0.006170	0.612971	0.378552
	C129	C	0.988661	0.613971	0.621726
	C130	C	0.006327	0.371776	0.620397
	C131	C	0.989873	0.370828	0.377833
	C132	C	0.876511	0.499343	0.120920
	C133	C	0.118768	0.483066	0.121031
	C134	C	0.118711	0.500146	0.877658
	C135	C	0.875960	0.482084	0.877361
	C136	C	0.120008	0.870817	0.508437
	C137	C	0.119381	0.113598	0.492393
	C138	C	0.875701	0.115426	0.508133
	C139	C	0.876539	0.871696	0.491123
	C140	C	0.505758	0.112222	0.878867
	C141	C	0.488826	0.113710	0.120843
	C142	C	0.505772	0.870967	0.120540
	C143	C	0.489073	0.869868	0.877267
	C144	C	0.375134	0.880765	0.679501
	C145	C	0.623428	0.101574	0.683418
	C146	C	0.620616	0.881043	0.318473
	C147	C	0.371051	0.102455	0.315977
	C148	C	0.678478	0.367524	0.888813
	C149	C	0.679531	0.615276	0.109828
	C150	C	0.315823	0.614643	0.888055
	C151	C	0.315687	0.368616	0.110210
	C152	C	0.886571	0.673715	0.375432
	C153	C	0.108715	0.673490	0.623952
	C154	C	0.886643	0.311455	0.622220
	C155	C	0.109002	0.309342	0.374730
	C156	C	0.887026	0.368337	0.680542
	C157	C	0.108171	0.616346	0.682202
	C158	C	0.887290	0.616725	0.316620
	C159	C	0.108934	0.367034	0.317178
	C160	C	0.374005	0.672490	0.887850
	C161	C	0.621049	0.673132	0.109920
	C162	C	0.621247	0.309088	0.889246
	C163	C	0.372506	0.309677	0.109699
	C164	C	0.678147	0.881080	0.377001
	C165	C	0.679052	0.103545	0.624125
	C166	C	0.318034	0.880945	0.621572
	C167	C	0.314255	0.102682	0.374600
	C168	C	0.872343	0.380807	0.182290
	C169	C	0.121597	0.602390	0.181508
	C170	C	0.122602	0.381017	0.816821
	C171	C	0.873597	0.602008	0.818371
	C172	C	0.180789	0.867462	0.390181
	C173	C	0.180870	0.116701	0.611166
	C174	C	0.814572	0.117848	0.389491
	C175	C	0.818402	0.871337	0.610913
	C176	C	0.386145	0.172648	0.874946
	C177	C	0.607472	0.175777	0.125342
	C178	C	0.385512	0.812061	0.121048
	C179	C	0.609131	0.810243	0.876651
	C180	C	0.386131	0.868415	0.179858
	C181	C	0.607244	0.118670	0.183690
	C182	C	0.386748	0.114638	0.817329
	C183	C	0.608840	0.866203	0.817663
	C184	C	0.873448	0.174829	0.388976
	C185	C	0.122322	0.174271	0.611273
	C186	C	0.123287	0.809019	0.390228
	C187	C	0.876264	0.813025	0.610806
	C188	C	0.179708	0.380911	0.875034
	C189	C	0.177518	0.603437	0.122130
	C190	C	0.815594	0.380216	0.123515
	C191	C	0.816469	0.602019	0.876496
	C192	C	0.403936	0.083511	0.595544
	C193	C	0.595319	0.899873	0.595859
	C194	C	0.592353	0.083730	0.403538
	C195	C	0.401996	0.900953	0.402716
	C196	C	0.593013	0.396691	0.090183
	C197	C	0.594494	0.589041	0.907547
	C198	C	0.399933	0.590063	0.091024
	C199	C	0.400724	0.395765	0.908663
	C200	C	0.088695	0.587027	0.404610
	C201	C	0.905262	0.589195	0.596411
	C202	C	0.089749	0.397192	0.595296
	C203	C	0.906991	0.397269	0.403786
	C204	C	0.902467	0.582260	0.095191
	C205	C	0.093361	0.399910	0.095903
	C206	C	0.092732	0.582850	0.903156
	C207	C	0.901075	0.398608	0.901864
	C208	C	0.093985	0.896673	0.590884
	C209	C	0.093295	0.087915	0.410160
	C210	C	0.901091	0.090384	0.591058
	C211	C	0.901016	0.895998	0.407743
	C212	C	0.588769	0.086885	0.905123
	C213	C	0.406460	0.086849	0.094119
	C214	C	0.589220	0.896520	0.096026
	C215	C	0.405517	0.895038	0.901174
	Zn216	Zn	0.498532	-0.009330	0.749380
	Zn217	Zn	0.496966	-0.007885	0.248850
	Zn218	Zn	0.748323	0.490961	-0.000702
	Zn219	Zn	0.246664	0.491940	-0.000563
	Zn220	Zn	-0.002101	0.742093	0.499564
	Zn221	Zn	-0.001570	0.243687	0.499871
	Zn222	Zn	-0.002296	0.491684	0.749419
	Zn223	Zn	-0.002126	0.491394	0.249517
	Zn224	Zn	0.497308	0.743069	-0.001044
	Zn225	Zn	0.496977	0.242073	-0.000805
	Zn226	Zn	0.747528	-0.006669	0.500208
	Zn227	Zn	0.249080	-0.007774	0.500283
	N228	N	0.411737	0.956260	0.678916
	N229	N	0.587792	0.025700	0.682148
	N230	N	0.584362	0.956762	0.318989
	N231	N	0.408613	0.027419	0.317513
	N232	N	0.677035	0.404896	0.963501
	N233	N	0.678686	0.579371	0.034453
	N234	N	0.316378	0.579214	0.963533
	N235	N	0.317381	0.405737	0.035463
	N236	N	0.961343	0.671430	0.413309
	N237	N	0.033346	0.672375	0.587033
	N238	N	0.961812	0.313711	0.585280
	N239	N	0.033750	0.311785	0.411930
	N240	N	0.962492	0.405192	0.679298
	N241	N	0.032515	0.580151	0.680925
	N242	N	0.962580	0.579590	0.318476
	N243	N	0.033824	0.404390	0.318973
	N244	N	0.410486	0.672123	0.963144
	N245	N	0.584410	0.672477	0.034889
	N246	N	0.584598	0.310967	0.964195
	N247	N	0.408786	0.310613	0.034727
	N248	N	0.676803	0.956533	0.413428
	N249	N	0.677301	0.028627	0.586534
	N250	N	0.319863	0.956340	0.585438
	N251	N	0.317171	0.028140	0.412212
	N252	N	0.909493	0.456038	0.180752
	N253	N	0.085704	0.526607	0.180750
	N254	N	0.085254	0.456140	0.818535
	N255	N	0.909850	0.526358	0.818737
	N256	N	0.178664	0.905202	0.464601
	N257	N	0.179526	0.079927	0.536094
	N258	N	0.815499	0.081984	0.464726
	N259	N	0.818595	0.907044	0.535503
	N260	N	0.461232	0.171319	0.912331
	N261	N	0.532945	0.172708	0.086845
	N262	N	0.461221	0.813300	0.085044
	N263	N	0.533703	0.812344	0.912867
	N264	N	0.461762	0.904425	0.179540
	N265	N	0.532480	0.080737	0.181070
	N266	N	0.462249	0.077879	0.819389
	N267	N	0.533132	0.902548	0.817962
	N268	N	0.910626	0.173630	0.463941
	N269	N	0.085036	0.172678	0.536538
	N270	N	0.086206	0.810955	0.464804
	N271	N	0.911538	0.812967	0.535056
	N272	N	0.177548	0.455909	0.912274
	N273	N	0.175835	0.528311	0.085110
	N274	N	0.818381	0.454898	0.085979
	N275	N	0.817582	0.526282	0.912088
	O276	O	0.487017	0.316499	0.713484
	H277	H	0.473555	0.308417	0.726060
	H278	H	0.465302	0.318197	0.716466
	O279	O	0.467640	0.459791	0.296779
	H280	H	0.460286	0.453993	0.297426
	H281	H	0.475114	0.464817	0.309925
	O282	O	0.303259	0.637288	0.491897
	H283	H	0.304046	0.632547	0.467819
	H284	H	0.293448	0.645625	0.465985
	O285	O	0.981206	1.172554	-0.161025
	H286	H	0.999838	1.174187	-0.137529
	H287	H	0.978909	1.169730	-0.169094
	O288	O	0.317818	0.529674	0.310994
	H289	H	0.330464	0.497788	0.300934
	H290	H	0.316629	0.528047	0.300756
	O291	O	0.705144	0.308346	0.494146
	H292	H	0.723314	0.286591	0.505816
	H293	H	0.682294	0.303441	0.509545
	O294	O	1.129883	1.189414	1.011810
	H295	H	1.142882	1.187493	1.010858
	H296	H	1.112529	1.202608	1.031121
	O297	O	0.480500	0.592008	0.506666
	H298	H	0.476501	0.595589	0.516835
	H299	H	0.474317	0.593923	0.510034
	O300	O	0.644576	0.313449	0.316971
	H301	H	0.648328	0.340882	0.307908
	H302	H	0.660348	0.299604	0.355072
	O303	O	0.671420	0.649036	0.570376
	H304	H	0.658721	0.654988	0.587771
	H305	H	0.681659	0.664545	0.573897
	O306	O	0.120307	0.018789	1.075130
	H307	H	0.103681	0.013615	1.077172
	H308	H	0.121922	0.015174	1.086822
	O309	O	0.815387	-0.191825	0.186439
	H310	H	0.812190	-0.207380	0.164927
	H311	H	0.851218	-0.204634	0.187819
	O312	O	0.609296	0.312839	0.587355
	H313	H	0.602300	0.326172	0.584640
	H314	H	0.583510	0.313955	0.618762
	O315	O	0.442640	0.660428	0.451490
	H316	H	0.427623	0.668456	0.439111
	H317	H	0.438593	0.656774	0.434468
	O318	O	0.086375	-0.095109	0.082973
	H319	H	0.085922	-0.111857	0.065273
	H320	H	0.079915	-0.104920	0.069313
	O321	O	0.700979	0.632649	0.667057
	H322	H	0.710634	0.650324	0.694368
	H323	H	0.716529	0.624520	0.680095
	O324	O	0.995587	0.119235	0.995583
	H325	H	0.983000	0.122097	1.020891
	H326	H	0.991111	0.128036	1.001652
	O327	O	0.460453	0.283476	0.478525
	H328	H	0.478751	0.277348	0.474676
	H329	H	0.480554	0.298846	0.468948
	O330	O	0.156377	1.054229	1.130081
	H331	H	0.151325	1.065242	1.124888
	H332	H	0.165600	1.053126	1.137600
	O333	O	0.137448	0.965794	-0.031802
	H334	H	0.129296	0.979807	-0.030893
	H335	H	0.149048	0.970588	-0.033198
	O336	O	1.193027	0.798543	-0.110709
	H337	H	1.185763	0.796318	-0.113025
	H338	H	1.187251	0.791422	-0.129197
	O339	O	0.095347	0.891350	0.803949
	H340	H	0.104582	0.890658	0.801267
	H341	H	0.092172	0.872288	0.809429
	O342	O	0.567971	0.556843	0.591282
	H343	H	0.562041	0.547444	0.596977
	H344	H	0.573387	0.542888	0.606409
	O345	O	-0.016723	0.153099	1.140048
	H346	H	-0.012770	0.139741	1.146640
	H347	H	-0.023684	0.151018	1.155346
	O348	O	0.349994	0.416043	0.496719
	H349	H	0.348686	0.424882	0.517279
	H350	H	0.352656	0.420660	0.500050
	O351	O	0.787444	1.051467	0.063823
	H352	H	0.788662	1.033122	0.070538
	H353	H	0.790554	1.025927	0.079050
	O354	O	0.842048	1.179823	0.853091
	H355	H	0.837999	1.180554	0.891227
	H356	H	0.877354	1.187532	0.853974
	O357	O	-0.301232	0.533058	0.299337
	H358	H	-0.291408	0.523735	0.305962
	H359	H	-0.294814	0.531913	0.308856
	O360	O	0.358129	0.688556	0.306873
	H361	H	0.361026	0.676329	0.294702
	H362	H	0.393510	0.674619	0.302902
	O363	O	0.881247	-0.154569	-0.156207
	H364	H	0.878847	-0.129486	-0.149288
	H365	H	0.884357	-0.141473	-0.146039
	O366	O	-0.212972	0.172908	0.968980
	H367	H	-0.225609	0.149716	0.993820
	H368	H	-0.227226	0.188810	0.977935
	O369	O	0.527645	-0.705042	0.331715
	H370	H	0.521215	-0.701007	0.321342
	H371	H	0.564037	-0.706619	0.330068
	O372	O	0.318059	0.550898	0.636813
	H373	H	0.309606	0.561054	0.613489
	H374	H	0.330767	0.564481	0.649416
	O375	O	-0.143322	-0.022958	0.928318
	H376	H	-0.145242	-0.002216	0.911485
	H377	H	-0.131387	-0.010375	0.921299
	O378	O	0.321999	0.331816	0.683356
	H379	H	0.317489	0.362673	0.687376
	H380	H	0.308639	0.326434	0.645067
	O381	O	0.056170	0.876271	-0.000684
	H382	H	0.055349	0.873141	-0.019138
	H383	H	0.057057	0.863991	0.016647
	O384	O	0.612488	0.619182	0.568161
	H385	H	0.622072	0.620460	0.578386
	H386	H	0.617287	0.624885	0.574748
	O387	O	0.980412	-0.205145	1.205539
	H388	H	0.994508	-0.223186	1.232578
	H389	H	0.996325	-0.190738	1.190924
	O390	O	0.790410	0.791482	0.017911
	H391	H	0.779136	0.789064	0.019435
	H392	H	0.775740	0.791743	0.009315
	O393	O	1.018551	0.021134	1.098956
	H394	H	1.020376	-0.006080	1.093828
	H395	H	1.015134	0.013515	1.107427
	O396	O	1.071012	0.804173	-0.078043
	H397	H	1.069389	0.798069	-0.095361
	H398	H	1.066724	0.818905	-0.071505
	O399	O	0.001108	1.006189	0.894384
	H400	H	0.015116	1.019832	0.903542
	H401	H	0.013307	1.021511	0.888731
	O402	O	1.051691	0.873205	0.110624
	H403	H	1.063554	0.870018	0.096084
	H404	H	1.060426	0.861545	0.123660
	O405	O	0.611754	0.506366	0.516865
	H406	H	0.624615	0.525923	0.538428
	H407	H	0.605220	0.499822	0.515107
	O408	O	0.539414	0.688974	0.364820
	H409	H	0.557927	0.689515	0.362360
	H410	H	0.541783	0.688982	0.353042
	O411	O	1.180660	1.122501	1.030457
	H412	H	1.170327	1.118341	1.036212
	H413	H	1.172888	1.119438	1.016064
	O414	O	0.414891	0.492937	0.563910
	H415	H	0.385258	0.491345	0.548436
	H416	H	0.400242	0.477984	0.571569
	O417	O	0.108077	1.108166	0.902213
	H418	H	0.104608	1.102981	0.907229
	H419	H	0.126433	1.102965	0.904806
	O420	O	0.582226	1.522858	0.317727
	H421	H	0.594523	1.506713	0.314547
	H422	H	0.578258	1.515556	0.337021
	O423	O	-0.220301	0.968651	0.215555
	H424	H	-0.219754	0.926704	0.214065
	H425	H	-0.244946	0.954029	0.241106
	O426	O	0.326159	0.481103	0.569319
	H427	H	0.313434	0.469032	0.570770
	H428	H	0.337999	0.475623	0.569240
	O429	O	0.291685	0.281308	0.522474
	H430	H	0.307282	0.267977	0.513189
	H431	H	0.284292	0.256149	0.516504
	O432	O	0.521103	0.629910	0.671926
	H433	H	0.527563	0.627282	0.665265
	H434	H	0.534114	0.635023	0.669386
	O435	O	0.093269	-0.085401	0.015582
	H436	H	0.096330	-0.072068	0.014895
	H437	H	0.084398	-0.074143	0.014984
	O438	O	-0.203369	1.037073	0.796023
	H439	H	-0.213362	1.060247	0.799290
	H440	H	-0.200990	1.059116	0.782836
	O441	O	0.615863	0.562209	0.625534
	H442	H	0.594172	0.554674	0.630800
	H443	H	0.625188	0.537095	0.651094
