data_Molecule from HDF5

_cell_length_a		16.652488
_cell_length_b		16.447054
_cell_length_c		16.529168
_cell_angle_alpha	89.945451
_cell_angle_beta	89.947342
_cell_angle_gamma	89.926118
_symmetry_space_group_name_H-M	'P 1'
_symmetry_Int_Tables_number		1

loop_
	_symmetry_equiv_pos_as_xyz
	x,y,z

loop_
	_atom_site_label
	_atom_site_type_symbol
	_atom_site_fract_x
	_atom_site_fract_y
	_atom_site_fract_z
	H0	H	0.382936	0.840293	0.715868
	H1	H	0.596628	0.154036	0.714877
	H2	H	0.595047	0.837427	0.273052
	H3	H	0.388128	0.154347	0.274432
	H4	H	0.716907	0.385966	0.838770
	H5	H	0.712248	0.606079	0.147421
	H6	H	0.264960	0.604192	0.836256
	H7	H	0.267183	0.390488	0.149178
	H8	H	0.833724	0.719907	0.389571
	H9	H	0.145154	0.719674	0.600309
	H10	H	0.833731	0.273007	0.601348
	H11	H	0.146211	0.279172	0.392914
	H12	H	0.834232	0.388670	0.719217
	H13	H	0.144029	0.604776	0.718552
	H14	H	0.834075	0.605371	0.270736
	H15	H	0.146566	0.395879	0.275604
	H16	H	0.383221	0.718293	0.834237
	H17	H	0.591584	0.716972	0.149810
	H18	H	0.596246	0.274980	0.835762
	H19	H	0.386730	0.276154	0.149912
	H20	H	0.712768	0.838744	0.387894
	H21	H	0.713219	0.153858	0.600406
	H22	H	0.263856	0.841861	0.604256
	H23	H	0.268886	0.152948	0.387356
	H24	H	0.884425	0.340549	0.215033
	H25	H	0.093352	0.655901	0.212848
	H26	H	0.091642	0.339185	0.773830
	H27	H	0.881932	0.654480	0.769825
	H28	H	0.211833	0.890165	0.337143
	H29	H	0.212976	0.104253	0.647442
	H30	H	0.769135	0.101871	0.335735
	H31	H	0.765668	0.888027	0.648745
	H32	H	0.334867	0.220215	0.885588
	H33	H	0.647047	0.217309	0.095261
	H34	H	0.333147	0.776404	0.096069
	H35	H	0.644595	0.772849	0.885436
	H36	H	0.334071	0.892753	0.214090
	H37	H	0.647392	0.101238	0.212626
	H38	H	0.336145	0.104895	0.767949
	H39	H	0.645773	0.889207	0.769395
	H40	H	0.886989	0.216238	0.334862
	H41	H	0.092462	0.216506	0.650530
	H42	H	0.096121	0.773282	0.337702
	H43	H	0.884482	0.775012	0.650017
	H44	H	0.208815	0.339458	0.889611
	H45	H	0.211114	0.654097	0.098684
	H46	H	0.765380	0.341764	0.102233
	H47	H	0.764221	0.653844	0.883684
	H48	H	0.399005	0.110180	0.580260
	H49	H	0.572139	0.884001	0.588727
	H50	H	0.575444	0.105598	0.405809
	H51	H	0.403937	0.883190	0.403754
	H52	H	0.574261	0.409729	0.102343
	H53	H	0.572128	0.577638	0.885145
	H54	H	0.399147	0.588182	0.105744
	H55	H	0.402852	0.408735	0.882460
	H56	H	0.098446	0.582087	0.406142
	H57	H	0.880713	0.584736	0.578707
	H58	H	0.097886	0.409255	0.580242
	H59	H	0.876171	0.410309	0.399801
	H60	H	0.100002	0.409801	0.585631
	H61	H	0.879772	0.581634	0.580488
	H62	H	0.102006	0.585578	0.398338
	H63	H	0.874534	0.403741	0.402062
	H64	H	0.397273	0.585552	0.104560
	H65	H	0.573996	0.593111	0.878337
	H66	H	0.578836	0.408476	0.104565
	H67	H	0.396698	0.404814	0.877023
	H68	H	0.587280	0.110623	0.405856
	H69	H	0.575602	0.889707	0.571102
	H70	H	0.406207	0.107129	0.580696
	H71	H	0.399219	0.882829	0.407398
	H72	H	0.904456	0.607609	0.076810
	H73	H	0.078134	0.383273	0.084691
	H74	H	0.074400	0.610077	0.902461
	H75	H	0.896445	0.385297	0.910920
	H76	H	0.074678	0.911921	0.603176
	H77	H	0.082476	0.087916	0.378403
	H78	H	0.897860	0.082381	0.604856
	H79	H	0.899966	0.914196	0.382541
	H80	H	0.600905	0.085661	0.906424
	H81	H	0.377842	0.086346	0.086722
	H82	H	0.602639	0.909388	0.087599
	H83	H	0.376242	0.904924	0.897395
	H84	H	0.603178	0.900635	0.081003
	H85	H	0.377848	0.089612	0.083018
	H86	H	0.600238	0.082045	0.903988
	H87	H	0.380616	0.906475	0.911569
	H88	H	0.903368	0.082665	0.603966
	H89	H	0.080575	0.083312	0.380427
	H90	H	0.078109	0.905099	0.607146
	H91	H	0.906766	0.908622	0.383316
	H92	H	0.074674	0.607663	0.910073
	H93	H	0.079763	0.383873	0.083370
	H94	H	0.895855	0.610691	0.078497
	H95	H	0.903892	0.384702	0.902060
	H96	H	0.402386	0.106406	0.573780
	H97	H	0.588565	0.880852	0.580964
	H98	H	0.579510	0.111764	0.395585
	H99	H	0.398620	0.881049	0.401212
	H100	H	0.578164	0.413049	0.102761
	H101	H	0.586814	0.582157	0.877688
	H102	H	0.400312	0.585899	0.103050
	H103	H	0.395614	0.412796	0.880717
	H104	H	0.101332	0.590631	0.405994
	H105	H	0.879229	0.584948	0.582159
	H106	H	0.100190	0.404892	0.582808
	H107	H	0.877964	0.408417	0.406048
	H108	H	0.902435	0.610641	0.085554
	H109	H	0.080235	0.383730	0.085504
	H110	H	0.080910	0.611152	0.906847
	H111	H	0.906787	0.389821	0.911887
	H112	H	0.082728	0.912187	0.605707
	H113	H	0.077341	0.087824	0.380231
	H114	H	0.901072	0.087301	0.605658
	H115	H	0.899547	0.905836	0.379282
	H116	H	0.602302	0.085765	0.902474
	H117	H	0.380026	0.085093	0.082473
	H118	H	0.599214	0.910066	0.077520
	H119	H	0.381587	0.917847	0.901915
	C120	C	0.368990	0.005106	0.613314
	C121	C	0.611497	0.988681	0.613435
	C122	C	0.612436	0.004965	0.371108
	C123	C	0.369293	0.986985	0.372047
	C124	C	0.610605	0.376591	0.000537
	C125	C	0.609925	0.617626	0.983720
	C126	C	0.366243	0.619207	0.000822
	C127	C	0.367543	0.375956	0.984057
	C128	C	-0.002017	0.619605	0.371123
	C129	C	0.981879	0.617622	0.614652
	C130	C	-0.003124	0.375148	0.615904
	C131	C	0.980394	0.376424	0.371988
	C132	C	0.867966	0.506294	0.114558
	C133	C	0.111424	0.488261	0.115667
	C134	C	0.108936	0.505495	0.873471
	C135	C	0.868011	0.489649	0.873049
	C136	C	0.111307	0.876087	0.502095
	C137	C	0.111412	0.118459	0.483829
	C138	C	0.868470	0.117576	0.501364
	C139	C	0.869123	0.876457	0.485137
	C140	C	0.498850	0.118433	0.870907
	C141	C	0.482307	0.118451	0.114589
	C142	C	0.498510	0.874801	0.114247
	C143	C	0.481536	0.875729	0.870325
	C144	C	0.365215	0.887561	0.675622
	C145	C	0.614583	0.106788	0.674468
	C146	C	0.614174	0.885433	0.312015
	C147	C	0.368637	0.106466	0.313088
	C148	C	0.674314	0.370543	0.884562
	C149	C	0.670746	0.622487	0.101136
	C150	C	0.305300	0.622245	0.883197
	C151	C	0.307928	0.372801	0.102259
	C152	C	0.880622	0.679952	0.370142
	C153	C	0.098583	0.678958	0.618177
	C154	C	0.880354	0.313700	0.619484
	C155	C	0.098922	0.318436	0.372864
	C156	C	0.880723	0.371246	0.678232
	C157	C	0.097716	0.622034	0.677339
	C158	C	0.880925	0.623069	0.311036
	C159	C	0.099264	0.376354	0.314645
	C160	C	0.364354	0.678900	0.882117
	C161	C	0.610958	0.677934	0.102154
	C162	C	0.614375	0.315028	0.883076
	C163	C	0.367136	0.315975	0.102634
	C164	C	0.672429	0.885836	0.369204
	C165	C	0.672661	0.106590	0.617293
	C166	C	0.305984	0.888349	0.619662
	C167	C	0.309542	0.105843	0.369413
	C168	C	0.865617	0.388041	0.175282
	C169	C	0.112153	0.608030	0.173728
	C170	C	0.111054	0.386740	0.813330
	C171	C	0.864075	0.607333	0.810598
	C172	C	0.171941	0.872078	0.384154
	C173	C	0.171913	0.121490	0.601243
	C174	C	0.808992	0.120069	0.382979
	C175	C	0.807250	0.871639	0.602308
	C176	C	0.381832	0.179800	0.867753
	C177	C	0.600159	0.177625	0.114679
	C178	C	0.380284	0.815963	0.115381
	C179	C	0.598209	0.813885	0.867474
	C180	C	0.380956	0.873406	0.174309
	C181	C	0.600130	0.119885	0.173075
	C182	C	0.382400	0.122363	0.809211
	C183	C	0.598517	0.871802	0.809376
	C184	C	0.867460	0.177288	0.382685
	C185	C	0.112241	0.177595	0.602587
	C186	C	0.114085	0.814460	0.384465
	C187	C	0.866329	0.815248	0.603059
	C188	C	0.168722	0.386612	0.871218
	C189	C	0.170776	0.607120	0.117036
	C190	C	0.806425	0.388789	0.118963
	C191	C	0.805788	0.606979	0.867567
	C192	C	0.395144	0.086627	0.586011
	C193	C	0.585965	0.906318	0.587643
	C194	C	0.588042	0.087730	0.395618
	C195	C	0.393711	0.904084	0.396906
	C196	C	0.584280	0.402963	0.082011
	C197	C	0.584926	0.591753	0.901707
	C198	C	0.391743	0.593643	0.082940
	C199	C	0.391596	0.401430	0.901610
	C200	C	0.079419	0.593706	0.396287
	C201	C	0.900993	0.591251	0.588020
	C202	C	0.078106	0.400707	0.590199
	C203	C	0.897760	0.400670	0.395803
	C204	C	0.893699	0.588380	0.087930
	C205	C	0.086710	0.405272	0.091231
	C206	C	0.083780	0.588120	0.899122
	C207	C	0.894775	0.407978	0.900431
	C208	C	0.085735	0.902234	0.583999
	C209	C	0.086918	0.093683	0.401262
	C210	C	0.893514	0.091676	0.583423
	C211	C	0.894791	0.902219	0.403138
	C212	C	0.579970	0.092231	0.896822
	C213	C	0.399754	0.094040	0.090759
	C214	C	0.580334	0.899434	0.089286
	C215	C	0.400585	0.902173	0.896162
	Zn216	Zn	0.490560	-0.002548	0.741100
	Zn217	Zn	0.490909	-0.003499	0.243659
	Zn218	Zn	0.739199	0.497461	-0.007196
	Zn219	Zn	0.238387	0.497118	-0.007023
	Zn220	Zn	-0.010176	0.747499	0.493734
	Zn221	Zn	-0.011085	0.246575	0.493357
	Zn222	Zn	-0.011393	0.497581	0.744635
	Zn223	Zn	-0.010804	0.498159	0.242592
	Zn224	Zn	0.488733	0.746092	-0.008401
	Zn225	Zn	0.490383	0.247697	-0.007580
	Zn226	Zn	0.740034	-0.003615	0.492983
	Zn227	Zn	0.240030	-0.003464	0.492695
	N228	N	0.403698	0.961219	0.671863
	N229	N	0.577327	0.032420	0.672009
	N230	N	0.577766	0.960490	0.313026
	N231	N	0.405147	0.031592	0.314525
	N232	N	0.671976	0.408292	0.958522
	N233	N	0.670284	0.585847	0.026486
	N234	N	0.306425	0.585736	0.958048
	N235	N	0.308027	0.409201	0.027516
	N236	N	0.954570	0.678107	0.406687
	N237	N	0.025443	0.676323	0.579853
	N238	N	0.953533	0.315853	0.581433
	N239	N	0.023927	0.318257	0.407515
	N240	N	0.954258	0.408759	0.676059
	N241	N	0.024133	0.584571	0.675056
	N242	N	0.955016	0.586252	0.311709
	N243	N	0.024374	0.411577	0.313823
	N244	N	0.401375	0.677237	0.956370
	N245	N	0.573862	0.675278	0.027981
	N246	N	0.575227	0.318935	0.956081
	N247	N	0.403404	0.317577	0.027934
	N248	N	0.671707	0.961145	0.405097
	N249	N	0.671037	0.031820	0.580096
	N250	N	0.307950	0.962512	0.581530
	N251	N	0.309760	0.030468	0.405290
	N252	N	0.902990	0.462290	0.172796
	N253	N	0.075994	0.532943	0.173104
	N254	N	0.074689	0.461700	0.814676
	N255	N	0.902214	0.533252	0.813971
	N256	N	0.170403	0.909499	0.458340
	N257	N	0.171662	0.085700	0.526213
	N258	N	0.809240	0.083911	0.457897
	N259	N	0.808956	0.908864	0.528015
	N260	N	0.455205	0.177482	0.905400
	N261	N	0.525645	0.176983	0.079108
	N262	N	0.454354	0.816695	0.078738
	N263	N	0.524548	0.816183	0.904887
	N264	N	0.455394	0.909136	0.173776
	N265	N	0.525618	0.083898	0.173171
	N266	N	0.456119	0.084818	0.811062
	N267	N	0.524955	0.909477	0.810999
	N268	N	0.903557	0.175974	0.457347
	N269	N	0.075283	0.175927	0.528428
	N270	N	0.077050	0.816656	0.458745
	N271	N	0.904081	0.817950	0.529124
	N272	N	0.167682	0.461580	0.907612
	N273	N	0.170492	0.531615	0.081694
	N274	N	0.807544	0.463599	0.081911
	N275	N	0.808026	0.532634	0.905424
	O276	O	1.013868	1.106347	0.004111
	H277	H	1.030117	1.102152	0.007357
	H278	H	1.026665	1.107424	0.008482
	O279	O	-0.036756	0.201962	0.894368
	H280	H	-0.022382	0.210497	0.903934
	H281	H	-0.019604	0.190527	0.879223
	O282	O	0.270531	0.462364	0.707568
	H283	H	0.266170	0.472111	0.711683
	H284	H	0.263852	0.458684	0.712504
	O285	O	0.279373	0.290281	0.698830
	H286	H	0.275959	0.320580	0.685150
	H287	H	0.253581	0.260149	0.729251
	O288	O	1.304480	-0.686243	1.311527
	H289	H	1.317117	-0.661928	1.325291
	H290	H	1.325878	-0.679929	1.334610
	O291	O	0.710697	0.279835	0.461860
	H292	H	0.710519	0.278256	0.460878
	H293	H	0.723594	0.263382	0.468992
	O294	O	0.282234	0.286057	0.524084
	H295	H	0.291317	0.274244	0.538248
	H296	H	0.281652	0.267774	0.530333
	O297	O	0.692846	-0.298532	-0.373785
	H298	H	0.672891	-0.288953	-0.376697
	H299	H	0.691255	-0.323121	-0.396066
	O300	O	0.178105	0.086698	-0.043608
	H301	H	0.192809	0.094370	-0.053589
	H302	H	0.179416	0.102517	-0.051390
	O303	O	-0.207637	-0.132312	0.193919
	H304	H	-0.215526	-0.132612	0.197486
	H305	H	-0.215465	-0.139489	0.187504
	O306	O	0.793171	0.010678	-0.103289
	H307	H	0.790875	0.019600	-0.108960
	H308	H	0.794622	0.029870	-0.103372
	O309	O	0.181759	1.032606	0.182249
	H310	H	0.194380	1.023733	0.182207
	H311	H	0.162615	1.017279	0.194336
	O312	O	0.551198	0.456984	0.719387
	H313	H	0.562159	0.461341	0.729776
	H314	H	0.537531	0.455029	0.720311
	O315	O	0.501761	0.668806	0.510564
	H316	H	0.487574	0.671570	0.500522
	H317	H	0.504807	0.669430	0.505233
	O318	O	0.965217	0.782962	0.214147
	H319	H	0.951877	0.753669	0.242254
	H320	H	0.926996	0.786358	0.202637
	O321	O	0.044428	1.027825	0.982548
	H322	H	0.060404	1.025831	0.981005
	H323	H	0.042892	1.036855	0.995409
	O324	O	1.025757	0.216507	1.211341
	H325	H	1.034812	0.237132	1.236870
	H326	H	1.054459	0.220486	1.205699
	O327	O	0.176465	1.180530	0.805545
	H328	H	0.167980	1.148844	0.812960
	H329	H	0.150026	1.173307	0.820485
	O330	O	0.640441	0.377601	0.560909
	H331	H	0.634595	0.384602	0.559189
	H332	H	0.637573	0.368924	0.575414
	O333	O	0.676455	1.325092	1.313660
	H334	H	0.695279	1.319401	1.292844
	H335	H	0.665188	1.327917	1.349207
	O336	O	0.545904	0.289424	0.281286
	H337	H	0.562324	0.288220	0.291508
	H338	H	0.564278	0.267766	0.268244
	O339	O	0.569389	0.451362	0.360303
	H340	H	0.578302	0.448468	0.363082
	H341	H	0.567802	0.439929	0.353030
	O342	O	0.105306	0.795747	-0.199421
	H343	H	0.100153	0.792526	-0.188032
	H344	H	0.082730	0.794302	-0.199488
	O345	O	0.460351	0.710227	0.279921
	H346	H	0.440808	0.707666	0.271484
	H347	H	0.449005	0.731536	0.266947
	O348	O	0.280312	0.528295	0.279640
	H349	H	0.285005	0.517253	0.279701
	H350	H	0.287610	0.513075	0.260238
	O351	O	0.509949	-0.472786	1.556627
	H352	H	0.516113	-0.458750	1.563481
	H353	H	0.512516	-0.470906	1.563102
	O354	O	0.935409	-0.197925	0.949034
	H355	H	0.932081	-0.191987	0.964022
	H356	H	0.927335	-0.192602	0.951767
	O357	O	0.512395	0.662755	0.404005
	H358	H	0.496728	0.664462	0.401099
	H359	H	0.494298	0.662491	0.403629
	O360	O	1.028145	0.847427	0.902169
	H361	H	1.019307	0.839795	0.919806
	H362	H	1.040326	0.845724	0.898686
	O363	O	0.889973	0.962020	-0.126885
	H364	H	0.877942	0.973392	-0.130338
	H365	H	0.895259	0.965609	-0.135728
	O366	O	0.696704	0.583345	0.699569
	H367	H	0.691972	0.586925	0.715444
	H368	H	0.692792	0.588763	0.683262
	O369	O	0.132063	-0.040613	1.076878
	H370	H	0.139267	-0.033025	1.068881
	H371	H	0.129567	-0.049530	1.058309
	O372	O	0.147393	0.828572	1.120384
	H373	H	0.149371	0.843871	1.110292
	H374	H	0.134219	0.833593	1.122993
	O375	O	1.067866	-0.080224	0.146270
	H376	H	1.065347	-0.081616	0.157235
	H377	H	1.048738	-0.085298	0.143287
	O378	O	0.275386	0.716905	0.471870
	H379	H	0.272442	0.700705	0.461727
	H380	H	0.254380	0.737784	0.448913
	O381	O	0.272605	0.461557	0.487148
	H382	H	0.268253	0.440299	0.507308
	H383	H	0.268412	0.456778	0.495236
	O384	O	0.289255	0.702890	0.290099
	H385	H	0.280595	0.653952	0.287496
	H386	H	0.278975	0.719604	0.289214
	O387	O	0.191141	1.198787	1.192321
	H388	H	0.190457	1.166113	1.190833
	H389	H	0.220428	1.215776	1.222341
	O390	O	-0.213209	0.789362	1.083174
	H391	H	-0.223046	0.804379	1.075339
	H392	H	-0.231224	0.781267	1.062069
	O393	O	1.001342	0.026501	-0.216086
	H394	H	1.005023	0.028088	-0.209284
	H395	H	1.007799	0.033732	-0.202467
	O396	O	0.487287	0.397097	0.551086
	H397	H	0.486302	0.396162	0.563394
	H398	H	0.490029	0.399483	0.562851
	O399	O	0.454692	0.421511	0.268689
	H400	H	0.463305	0.412943	0.260631
	H401	H	0.464158	0.417072	0.283719
	O402	O	1.207254	0.214418	1.022173
	H403	H	1.220923	0.231371	1.040567
	H404	H	1.220230	0.214079	1.040277
	O405	O	0.519270	0.649915	0.629554
	H406	H	0.511653	0.667186	0.611087
	H407	H	0.517425	0.650319	0.620056
	O408	O	0.794449	1.192560	0.894106
	H409	H	0.785112	1.159949	0.903729
	H410	H	0.791459	1.205887	0.919000
	O411	O	0.967889	1.020926	0.210531
	H412	H	0.966583	1.036078	0.213510
	H413	H	0.971517	1.012474	0.211987
	O414	O	0.082026	-0.029356	-0.074882
	H415	H	0.079817	-0.039270	-0.077134
	H416	H	0.067105	-0.036830	-0.070731
	O417	O	0.775673	-0.078340	-0.097802
	H418	H	0.761392	-0.083021	-0.108622
	H419	H	0.791527	-0.094273	-0.110542
	O420	O	1.043835	-0.166736	0.933147
	H421	H	1.024404	-0.179098	0.958925
	H422	H	1.038302	-0.177089	0.923567
	O423	O	0.863628	1.208254	0.026731
	H424	H	0.870178	1.223343	0.017388
	H425	H	0.881170	1.205714	0.048762
	O426	O	0.669742	0.523140	0.521739
	H427	H	0.678635	0.522512	0.543753
	H428	H	0.674248	0.514189	0.538476
	O429	O	0.536090	0.511197	0.451805
	H430	H	0.535929	0.507018	0.438235
	H431	H	0.536455	0.511535	0.458772
	O432	O	0.785449	0.029313	0.908152
	H433	H	0.809605	0.036054	0.912190
	H434	H	0.783290	0.029959	0.911235
	O435	O	0.462055	0.283053	0.702559
	H436	H	0.455910	0.291921	0.709536
	H437	H	0.433302	0.264663	0.722098
	O438	O	0.834883	1.093267	0.105830
	H439	H	0.851842	1.084096	0.093765
	H440	H	0.843640	1.080509	0.095698
	O441	O	0.414394	0.561921	0.693861
	H442	H	0.416356	0.544608	0.695072
	H443	H	0.413431	0.580034	0.687952
	O444	O	0.633385	0.658823	0.391626
	H445	H	0.633003	0.649105	0.397864
	H446	H	0.614036	0.653338	0.396823
	O447	O	0.679899	0.644512	0.466153
	H448	H	0.683527	0.655889	0.483379
	H449	H	0.679414	0.629586	0.471755
	O450	O	1.188521	-0.200173	-0.099751
	H451	H	1.185973	-0.209303	-0.088962
	H452	H	1.190315	-0.205023	-0.086947
	O453	O	0.392576	0.525763	0.435740
	H454	H	0.384452	0.514330	0.449209
	H455	H	0.408559	0.518763	0.429824
	O456	O	-0.016804	0.975443	1.010550
	H457	H	-0.019512	0.967521	1.005097
	H458	H	-0.016037	0.990966	1.012249
	O459	O	0.707246	0.501921	0.314949
	H460	H	0.730429	0.497983	0.309128
	H461	H	0.695409	0.487165	0.316181
	O462	O	0.796671	0.255525	0.728848
	H463	H	0.776743	0.253930	0.735135
	H464	H	0.794405	0.272034	0.708605
	O465	O	0.479781	0.272278	0.474337
	H466	H	0.495274	0.274161	0.478722
	H467	H	0.489262	0.271908	0.486780
	O468	O	-0.231712	0.956227	0.110360
	H469	H	-0.234986	0.945126	0.111197
	H470	H	-0.237840	0.945129	0.116042
	O471	O	0.482444	0.535492	0.590104
	H472	H	0.481379	0.555351	0.592825
	H473	H	0.485521	0.541100	0.587400
	O474	O	1.204408	0.978492	-0.221895
	H475	H	1.230294	0.962637	-0.245616
	H476	H	1.192349	0.942252	-0.214901
	O477	O	0.285576	0.597008	0.613476
	H478	H	0.275686	0.611154	0.613497
	H479	H	0.283008	0.603023	0.597037
