data_Molecule from HDF5

_cell_length_a		16.279637
_cell_length_b		16.279432
_cell_length_c		16.350533
_cell_angle_alpha	89.952087
_cell_angle_beta	89.972585
_cell_angle_gamma	90.076225
_symmetry_space_group_name_H-M	'P 1'
_symmetry_Int_Tables_number		1

loop_
	_symmetry_equiv_pos_as_xyz
	x,y,z

loop_
	_atom_site_label
	_atom_site_type_symbol
	_atom_site_fract_x
	_atom_site_fract_y
	_atom_site_fract_z
	H0	H	0.400206	0.836755	0.715311
	H1	H	0.598935	0.163726	0.715323
	H2	H	0.597965	0.836435	0.286649
	H3	H	0.401598	0.163082	0.284775
	H4	H	0.713270	0.403561	0.836174
	H5	H	0.714627	0.597607	0.163412
	H6	H	0.284551	0.598269	0.837513
	H7	H	0.286129	0.402092	0.163770
	H8	H	0.835617	0.713035	0.403225
	H9	H	0.164441	0.713243	0.595863
	H10	H	0.835671	0.286986	0.596471
	H11	H	0.164518	0.286875	0.403205
	H12	H	0.836107	0.401595	0.714232
	H13	H	0.163766	0.598696	0.714421
	H14	H	0.836522	0.598171	0.285482
	H15	H	0.163437	0.401653	0.285155
	H16	H	0.402208	0.713995	0.836661
	H17	H	0.597245	0.713477	0.163565
	H18	H	0.597141	0.285953	0.836463
	H19	H	0.402305	0.285151	0.163254
	H20	H	0.714488	0.836625	0.402727
	H21	H	0.714367	0.163848	0.598623
	H22	H	0.286663	0.836065	0.597512
	H23	H	0.287446	0.164391	0.403360
	H24	H	0.901888	0.335909	0.214604
	H25	H	0.097049	0.663903	0.213416
	H26	H	0.098949	0.335969	0.785854
	H27	H	0.901246	0.663726	0.785205
	H28	H	0.215239	0.903195	0.337314
	H29	H	0.215037	0.098060	0.664071
	H30	H	0.785836	0.098449	0.337375
	H31	H	0.784595	0.900510	0.663587
	H32	H	0.335715	0.212934	0.902888
	H33	H	0.663939	0.213005	0.096119
	H34	H	0.335969	0.786609	0.097049
	H35	H	0.664076	0.786630	0.902229
	H36	H	0.336660	0.900015	0.214986
	H37	H	0.663244	0.097642	0.213530
	H38	H	0.335973	0.097632	0.785957
	H39	H	0.663483	0.902381	0.785313
	H40	H	0.903096	0.213984	0.336789
	H41	H	0.097620	0.214039	0.663887
	H42	H	0.098586	0.786313	0.336604
	H43	H	0.902239	0.784983	0.663458
	H44	H	0.212767	0.335728	0.903857
	H45	H	0.212979	0.664080	0.097192
	H46	H	0.787184	0.335029	0.096642
	H47	H	0.786253	0.663695	0.902734
	H48	H	0.397810	0.117414	0.588504
	H49	H	0.586512	0.885661	0.594834
	H50	H	0.586181	0.114202	0.409144
	H51	H	0.396876	0.881038	0.408544
	H52	H	0.599760	0.409818	0.116470
	H53	H	0.601448	0.587116	0.883628
	H54	H	0.410677	0.600371	0.116562
	H55	H	0.409713	0.399760	0.883032
	H56	H	0.118522	0.599004	0.404602
	H57	H	0.881728	0.601827	0.590243
	H58	H	0.113812	0.417250	0.594643
	H59	H	0.882065	0.407435	0.400764
	H60	H	0.120260	0.402765	0.601378
	H61	H	0.888140	0.586565	0.586540
	H62	H	0.115253	0.592499	0.411210
	H63	H	0.882812	0.401021	0.409327
	H64	H	0.398185	0.593582	0.118116
	H65	H	0.585293	0.590204	0.888047
	H66	H	0.587581	0.408488	0.113428
	H67	H	0.398978	0.407705	0.882719
	H68	H	0.599805	0.116647	0.411112
	H69	H	0.594583	0.884586	0.586757
	H70	H	0.408561	0.119605	0.604048
	H71	H	0.411275	0.882123	0.396785
	H72	H	0.903882	0.617027	0.094910
	H73	H	0.085780	0.386949	0.088682
	H74	H	0.093952	0.616942	0.904438
	H75	H	0.901751	0.380609	0.901062
	H76	H	0.090581	0.898484	0.617569
	H77	H	0.098330	0.082919	0.386933
	H78	H	0.909534	0.092146	0.615269
	H79	H	0.901522	0.910510	0.383973
	H80	H	0.617171	0.082893	0.892828
	H81	H	0.383151	0.097584	0.089689
	H82	H	0.614566	0.903218	0.082758
	H83	H	0.381114	0.906628	0.898317
	H84	H	0.614845	0.917626	0.096127
	H85	H	0.385425	0.087813	0.091363
	H86	H	0.621765	0.108708	0.904310
	H87	H	0.383200	0.899540	0.911100
	H88	H	0.906549	0.095720	0.616807
	H89	H	0.082766	0.097703	0.386848
	H90	H	0.101992	0.909499	0.617634
	H91	H	0.911743	0.909678	0.386604
	H92	H	0.089785	0.615208	0.906240
	H93	H	0.101019	0.381874	0.090092
	H94	H	0.910476	0.615891	0.095147
	H95	H	0.912607	0.384472	0.904307
	H96	H	0.416526	0.112625	0.588171
	H97	H	0.596827	0.881806	0.597929
	H98	H	0.594015	0.119293	0.398203
	H99	H	0.413440	0.887608	0.414543
	H100	H	0.593555	0.398469	0.118645
	H101	H	0.595011	0.603209	0.881151
	H102	H	0.409706	0.587072	0.113078
	H103	H	0.410651	0.412282	0.887080
	H104	H	0.116680	0.589803	0.401880
	H105	H	0.882545	0.589868	0.602525
	H106	H	0.115055	0.403439	0.585257
	H107	H	0.885536	0.410879	0.409710
	H108	H	0.906955	0.614900	0.089619
	H109	H	0.091175	0.381465	0.102174
	H110	H	0.093216	0.615616	0.909236
	H111	H	0.903621	0.384354	0.912367
	H112	H	0.087451	0.912743	0.612706
	H113	H	0.102969	0.102731	0.379444
	H114	H	0.905154	0.091904	0.616611
	H115	H	0.906717	0.901256	0.382536
	H116	H	0.610540	0.088100	0.919884
	H117	H	0.380893	0.092718	0.098717
	H118	H	0.620841	0.899603	0.100766
	H119	H	0.386610	0.913948	0.909587
	C120	C	0.378817	0.008354	0.621786
	C121	C	0.620881	0.992257	0.621327
	C122	C	0.621588	0.008784	0.378216
	C123	C	0.378983	0.991599	0.378446
	C124	C	0.621643	0.377902	0.008163
	C125	C	0.621838	0.621449	0.992428
	C126	C	0.378028	0.621753	0.008255
	C127	C	0.378014	0.377948	0.991888
	C128	C	0.008442	0.621649	0.378007
	C129	C	0.992135	0.621389	0.621322
	C130	C	0.008336	0.378827	0.621711
	C131	C	0.991956	0.378523	0.378566
	C132	C	0.878641	0.507798	0.121569
	C133	C	0.121292	0.491569	0.121803
	C134	C	0.120774	0.507808	0.878572
	C135	C	0.877954	0.491660	0.878030
	C136	C	0.121624	0.879065	0.508110
	C137	C	0.122336	0.122294	0.492291
	C138	C	0.878630	0.121647	0.508365
	C139	C	0.878049	0.878221	0.492312
	C140	C	0.507971	0.121207	0.878066
	C141	C	0.491185	0.121227	0.121192
	C142	C	0.508445	0.878390	0.121506
	C143	C	0.491865	0.878436	0.878356
	C144	C	0.380523	0.885254	0.676881
	C145	C	0.618651	0.115121	0.676663
	C146	C	0.618811	0.885513	0.323566
	C147	C	0.381395	0.114760	0.323059
	C148	C	0.675952	0.381816	0.885148
	C149	C	0.676347	0.618330	0.114898
	C150	C	0.323160	0.618704	0.885623
	C151	C	0.323796	0.381143	0.114963
	C152	C	0.884769	0.675763	0.381838
	C153	C	0.115412	0.676062	0.617712
	C154	C	0.884598	0.324350	0.617964
	C155	C	0.115396	0.324391	0.382129
	C156	C	0.884758	0.381350	0.676226
	C157	C	0.115003	0.619429	0.676585
	C158	C	0.885082	0.618772	0.323420
	C159	C	0.115007	0.381273	0.323607
	C160	C	0.381082	0.676527	0.885436
	C161	C	0.618462	0.676062	0.114956
	C162	C	0.618240	0.323639	0.885206
	C163	C	0.381437	0.323100	0.114703
	C164	C	0.676586	0.885555	0.381250
	C165	C	0.675867	0.115340	0.618669
	C166	C	0.324106	0.885030	0.618584
	C167	C	0.324806	0.115366	0.381930
	C168	C	0.881004	0.384696	0.176662
	C169	C	0.118205	0.614883	0.176065
	C170	C	0.118522	0.384747	0.824098
	C171	C	0.880913	0.614805	0.823206
	C172	C	0.177141	0.882310	0.385491
	C173	C	0.176807	0.118987	0.615369
	C174	C	0.823737	0.118791	0.385868
	C175	C	0.823077	0.880442	0.615055
	C176	C	0.384571	0.175579	0.881709
	C177	C	0.615077	0.175405	0.117289
	C178	C	0.385061	0.823874	0.118165
	C179	C	0.615126	0.824305	0.881548
	C180	C	0.385384	0.880694	0.176366
	C181	C	0.614837	0.118222	0.175501
	C182	C	0.384685	0.118525	0.823536
	C183	C	0.614793	0.881206	0.823116
	C184	C	0.881967	0.176198	0.385646
	C185	C	0.118742	0.176636	0.615244
	C186	C	0.119019	0.824553	0.385333
	C187	C	0.881450	0.823162	0.614938
	C188	C	0.175564	0.384729	0.882147
	C189	C	0.175590	0.615175	0.118295
	C190	C	0.824054	0.384206	0.118220
	C191	C	0.823836	0.615004	0.881486
	C192	C	0.401200	0.094381	0.599989
	C193	C	0.598962	0.906161	0.599620
	C194	C	0.599832	0.094758	0.399749
	C195	C	0.400753	0.905650	0.400327
	C196	C	0.599993	0.399239	0.094045
	C197	C	0.600267	0.599897	0.906444
	C198	C	0.399565	0.600088	0.093977
	C199	C	0.399821	0.400012	0.906329
	C200	C	0.094431	0.600126	0.399461
	C201	C	0.906200	0.599239	0.599454
	C202	C	0.094173	0.401051	0.600210
	C203	C	0.905803	0.400210	0.400024
	C204	C	0.900579	0.593847	0.099668
	C205	C	0.099164	0.405584	0.100047
	C206	C	0.098791	0.593837	0.900246
	C207	C	0.899660	0.405385	0.899636
	C208	C	0.099788	0.900482	0.593830
	C209	C	0.101049	0.100850	0.406598
	C210	C	0.900524	0.099747	0.594158
	C211	C	0.900135	0.900563	0.406589
	C212	C	0.594280	0.099562	0.899348
	C213	C	0.405235	0.099237	0.099633
	C214	C	0.594564	0.900362	0.099553
	C215	C	0.405640	0.900333	0.900034
	Zn216	Zn	0.499963	-0.000117	0.749897
	Zn217	Zn	0.500180	-0.000081	0.249293
	Zn218	Zn	0.750418	0.499711	0.000258
	Zn219	Zn	0.249387	0.499701	0.000242
	Zn220	Zn	-0.000016	0.750038	0.499697
	Zn221	Zn	0.000066	0.250623	0.500045
	Zn222	Zn	-0.000336	0.500087	0.749832
	Zn223	Zn	0.000021	0.500064	0.249783
	Zn224	Zn	0.500084	0.750241	0.000125
	Zn225	Zn	0.499851	0.249338	-0.000003
	Zn226	Zn	0.749699	0.000238	0.500761
	Zn227	Zn	0.251365	0.000271	0.500348
	N228	N	0.414005	0.962942	0.678833
	N229	N	0.585194	0.037539	0.678449
	N230	N	0.585231	0.963005	0.321785
	N231	N	0.414388	0.037045	0.320836
	N232	N	0.677951	0.414839	0.962635
	N233	N	0.678517	0.585101	0.037637
	N234	N	0.321143	0.585312	0.962822
	N235	N	0.321577	0.414634	0.037665
	N236	N	0.962425	0.677708	0.414975
	N237	N	0.038106	0.677203	0.583806
	N238	N	0.962328	0.322675	0.584696
	N239	N	0.037807	0.322583	0.415481
	N240	N	0.962352	0.414849	0.678383
	N241	N	0.037372	0.586061	0.678571
	N242	N	0.962828	0.585786	0.320855
	N243	N	0.037314	0.414340	0.321426
	N244	N	0.414616	0.678388	0.962694
	N245	N	0.585134	0.677968	0.037702
	N246	N	0.585034	0.321242	0.962599
	N247	N	0.414322	0.320949	0.037243
	N248	N	0.678427	0.963015	0.414582
	N249	N	0.677255	0.037872	0.585009
	N250	N	0.323096	0.962534	0.584860
	N251	N	0.323104	0.037890	0.415469
	N252	N	0.914062	0.462500	0.178866
	N253	N	0.085115	0.537163	0.178170
	N254	N	0.085423	0.462316	0.821623
	N255	N	0.913767	0.536966	0.821078
	N256	N	0.178682	0.915712	0.462846
	N257	N	0.179546	0.086035	0.537919
	N258	N	0.821735	0.085586	0.463354
	N259	N	0.820905	0.914115	0.537723
	N260	N	0.462180	0.177421	0.914784
	N261	N	0.537357	0.177240	0.084108
	N262	N	0.462562	0.822511	0.084453
	N263	N	0.537643	0.822464	0.915095
	N264	N	0.463046	0.913833	0.178500
	N265	N	0.537209	0.085203	0.177677
	N266	N	0.462303	0.085052	0.821472
	N267	N	0.537147	0.914305	0.821174
	N268	N	0.915325	0.177959	0.462780
	N269	N	0.085538	0.178691	0.537822
	N270	N	0.085330	0.822420	0.462430
	N271	N	0.914691	0.821651	0.537535
	N272	N	0.177176	0.462265	0.915461
	N273	N	0.177423	0.537485	0.085152
	N274	N	0.822572	0.461704	0.084554
	N275	N	0.821756	0.537411	0.914639
