data_Molecule from HDF5

_cell_length_a		16.495109
_cell_length_b		16.579031
_cell_length_c		16.548492
_cell_angle_alpha	89.917504
_cell_angle_beta	90.094185
_cell_angle_gamma	90.151206
_symmetry_space_group_name_H-M	'P 1'
_symmetry_Int_Tables_number		1

loop_
	_symmetry_equiv_pos_as_xyz
	x,y,z

loop_
	_atom_site_label
	_atom_site_type_symbol
	_atom_site_fract_x
	_atom_site_fract_y
	_atom_site_fract_z
	H0	H	0.381306	0.844351	0.707877
	H1	H	0.592072	0.158223	0.706409
	H2	H	0.592061	0.845590	0.264121
	H3	H	0.384796	0.159366	0.266644
	H4	H	0.708538	0.396931	0.827977
	H5	H	0.707514	0.605437	0.141593
	H6	H	0.264377	0.607842	0.828729
	H7	H	0.268813	0.400315	0.143492
	H8	H	0.828963	0.720362	0.383108
	H9	H	0.144480	0.722508	0.592400
	H10	H	0.829794	0.279482	0.589572
	H11	H	0.145805	0.284997	0.385609
	H12	H	0.830036	0.394317	0.707629
	H13	H	0.144509	0.606178	0.707552
	H14	H	0.827464	0.601507	0.269042
	H15	H	0.144999	0.400162	0.267243
	H16	H	0.379640	0.725803	0.829208
	H17	H	0.591751	0.721971	0.141889
	H18	H	0.592822	0.279693	0.828411
	H19	H	0.381834	0.280640	0.142129
	H20	H	0.707110	0.844782	0.383058
	H21	H	0.707874	0.158860	0.589306
	H22	H	0.266038	0.842938	0.590758
	H23	H	0.267925	0.158800	0.383428
	H24	H	0.882933	0.343843	0.204742
	H25	H	0.089452	0.659043	0.204681
	H26	H	0.089703	0.344387	0.766024
	H27	H	0.878434	0.656729	0.760632
	H28	H	0.202420	0.902035	0.327327
	H29	H	0.207161	0.104057	0.644440
	H30	H	0.770311	0.102718	0.328357
	H31	H	0.763951	0.895099	0.643352
	H32	H	0.330366	0.222842	0.878767
	H33	H	0.645164	0.220970	0.087296
	H34	H	0.328926	0.782510	0.088075
	H35	H	0.644000	0.780152	0.879139
	H36	H	0.329067	0.897799	0.204992
	H37	H	0.645355	0.104008	0.202778
	H38	H	0.329559	0.106193	0.763685
	H39	H	0.643835	0.895159	0.762396
	H40	H	0.886723	0.218323	0.328149
	H41	H	0.091527	0.221013	0.644019
	H42	H	0.088432	0.783332	0.328532
	H43	H	0.878782	0.776753	0.643048
	H44	H	0.207279	0.345204	0.881609
	H45	H	0.204352	0.660133	0.086764
	H46	H	0.766692	0.344072	0.086510
	H47	H	0.764907	0.657968	0.879307
	H48	H	0.391940	0.115269	0.576849
	H49	H	0.571169	0.890230	0.578128
	H50	H	0.579060	0.113750	0.399001
	H51	H	0.400546	0.889839	0.394558
	H52	H	0.578593	0.417226	0.095380
	H53	H	0.574069	0.586299	0.874537
	H54	H	0.396452	0.596496	0.098515
	H55	H	0.397725	0.411945	0.872330
	H56	H	0.099911	0.594435	0.398081
	H57	H	0.877552	0.585193	0.569737
	H58	H	0.102186	0.404934	0.578345
	H59	H	0.870948	0.406070	0.392110
	H60	H	0.097691	0.413433	0.568846
	H61	H	0.874465	0.587666	0.577380
	H62	H	0.099401	0.589794	0.395626
	H63	H	0.873742	0.408516	0.399357
	H64	H	0.393100	0.589177	0.097975
	H65	H	0.570062	0.595044	0.872900
	H66	H	0.569611	0.411941	0.094613
	H67	H	0.395939	0.412653	0.872714
	H68	H	0.580875	0.116187	0.392235
	H69	H	0.572029	0.893208	0.568814
	H70	H	0.403070	0.112194	0.578978
	H71	H	0.393091	0.889260	0.398313
	H72	H	0.894938	0.614477	0.073697
	H73	H	0.078504	0.389454	0.073767
	H74	H	0.073778	0.611859	0.899523
	H75	H	0.890359	0.390461	0.906538
	H76	H	0.079849	0.913724	0.599944
	H77	H	0.073351	0.098165	0.373426
	H78	H	0.892700	0.095262	0.602756
	H79	H	0.898765	0.912887	0.376971
	H80	H	0.601362	0.095656	0.896683
	H81	H	0.371032	0.096456	0.079531
	H82	H	0.601595	0.910799	0.080254
	H83	H	0.376880	0.919566	0.895878
	H84	H	0.601317	0.907843	0.073209
	H85	H	0.374366	0.093996	0.069384
	H86	H	0.596703	0.088385	0.900951
	H87	H	0.373358	0.909810	0.894378
	H88	H	0.896580	0.083914	0.597866
	H89	H	0.083903	0.093646	0.371212
	H90	H	0.072416	0.912947	0.598768
	H91	H	0.899152	0.908777	0.374483
	H92	H	0.077035	0.614246	0.895821
	H93	H	0.079862	0.387337	0.078895
	H94	H	0.894815	0.614930	0.079758
	H95	H	0.894622	0.385792	0.886775
	H96	H	0.397844	0.110109	0.568561
	H97	H	0.579578	0.888404	0.572759
	H98	H	0.574318	0.113686	0.393441
	H99	H	0.393937	0.886374	0.390087
	H100	H	0.577771	0.408015	0.099372
	H101	H	0.579406	0.593353	0.870301
	H102	H	0.400789	0.590328	0.095699
	H103	H	0.397296	0.413371	0.874109
	H104	H	0.101696	0.593844	0.392897
	H105	H	0.874690	0.592721	0.570772
	H106	H	0.099566	0.418034	0.580883
	H107	H	0.874124	0.413258	0.393143
	H108	H	0.900014	0.613558	0.076905
	H109	H	0.074032	0.389229	0.077701
	H110	H	0.072102	0.613311	0.894620
	H111	H	0.909174	0.395217	0.898330
	H112	H	0.076479	0.906853	0.600465
	H113	H	0.076033	0.087209	0.375879
	H114	H	0.904976	0.093634	0.598796
	H115	H	0.895407	0.911492	0.374259
	H116	H	0.599579	0.088220	0.891697
	H117	H	0.373660	0.086173	0.077054
	H118	H	0.598969	0.915523	0.074382
	H119	H	0.377678	0.912724	0.903227
	C120	C	0.365244	0.009007	0.607387
	C121	C	0.607686	0.993334	0.606390
	C122	C	0.609367	0.010632	0.363643
	C123	C	0.365474	0.992780	0.363861
	C124	C	0.607783	0.380422	-0.007058
	C125	C	0.607492	0.623177	0.976258
	C126	C	0.364908	0.624105	-0.006284
	C127	C	0.365295	0.380734	0.976689
	C128	C	-0.004393	0.623010	0.364689
	C129	C	0.978875	0.621962	0.606918
	C130	C	-0.004411	0.380076	0.606973
	C131	C	0.977884	0.379331	0.364438
	C132	C	0.865025	0.509785	0.106905
	C133	C	0.107874	0.493325	0.107005
	C134	C	0.107142	0.509743	0.864695
	C135	C	0.864621	0.493136	0.863696
	C136	C	0.107254	0.880741	0.495093
	C137	C	0.109264	0.123299	0.477741
	C138	C	0.867275	0.121759	0.495231
	C139	C	0.864943	0.878628	0.478634
	C140	C	0.495571	0.122666	0.864021
	C141	C	0.477981	0.122912	0.106040
	C142	C	0.496014	0.880045	0.107267
	C143	C	0.478931	0.880675	0.864316
	C144	C	0.362953	0.891190	0.667704
	C145	C	0.610451	0.111309	0.666378
	C146	C	0.610782	0.892520	0.304278
	C147	C	0.365356	0.111877	0.305869
	C148	C	0.667940	0.378447	0.874867
	C149	C	0.667831	0.624599	0.094397
	C150	C	0.304605	0.626586	0.875681
	C151	C	0.306831	0.379952	0.095637
	C152	C	0.876289	0.680812	0.364203
	C153	C	0.097231	0.682422	0.610228
	C154	C	0.876993	0.319611	0.608694
	C155	C	0.098098	0.323133	0.365217
	C156	C	0.876986	0.376741	0.667093
	C157	C	0.097249	0.624202	0.667369
	C158	C	0.875667	0.622228	0.307192
	C159	C	0.097520	0.380300	0.306657
	C160	C	0.361820	0.685114	0.876088
	C161	C	0.610058	0.682352	0.094529
	C162	C	0.610422	0.320240	0.875066
	C163	C	0.363272	0.320747	0.094848
	C164	C	0.668119	0.892174	0.363119
	C165	C	0.667996	0.111483	0.608318
	C166	C	0.305631	0.890478	0.609212
	C167	C	0.307555	0.111643	0.364064
	C168	C	0.864123	0.391129	0.164953
	C169	C	0.108399	0.611892	0.165268
	C170	C	0.108824	0.391513	0.805595
	C171	C	0.861339	0.610231	0.802088
	C172	C	0.164074	0.881799	0.375257
	C173	C	0.167723	0.123353	0.596951
	C174	C	0.809570	0.121845	0.375811
	C175	C	0.804003	0.876340	0.596335
	C176	C	0.377196	0.182646	0.861038
	C177	C	0.597512	0.181398	0.106360
	C178	C	0.376724	0.821338	0.107870
	C179	C	0.596792	0.820087	0.861013
	C180	C	0.376830	0.878900	0.165750
	C181	C	0.597708	0.123080	0.163623
	C182	C	0.376973	0.124455	0.803763
	C183	C	0.596755	0.877194	0.802812
	C184	C	0.867481	0.179333	0.375727
	C185	C	0.110312	0.181505	0.596832
	C186	C	0.107266	0.822995	0.375880
	C187	C	0.861268	0.817765	0.596280
	C188	C	0.167159	0.392111	0.863041
	C189	C	0.165760	0.612489	0.106991
	C190	C	0.806223	0.391221	0.106545
	C191	C	0.804551	0.610926	0.860879
	C192	C	0.390412	0.091319	0.582083
	C193	C	0.581600	0.911730	0.580776
	C194	C	0.585254	0.093089	0.387912
	C195	C	0.389086	0.910034	0.387402
	C196	C	0.582624	0.405294	0.075150
	C197	C	0.581929	0.598451	0.893965
	C198	C	0.389831	0.599056	0.076048
	C199	C	0.389902	0.405551	0.894502
	C200	C	0.078789	0.599337	0.388542
	C201	C	0.896792	0.595931	0.580362
	C202	C	0.078267	0.405048	0.582915
	C203	C	0.894570	0.402245	0.387921
	C204	C	0.889520	0.592796	0.083391
	C205	C	0.084205	0.410260	0.083548
	C206	C	0.081712	0.591875	0.889605
	C207	C	0.890339	0.411669	0.889900
	C208	C	0.083259	0.904455	0.578160
	C209	C	0.084746	0.099734	0.394991
	C210	C	0.891180	0.097781	0.578210
	C211	C	0.890588	0.903789	0.396628
	C212	C	0.577814	0.097928	0.889191
	C213	C	0.394606	0.098976	0.081939
	C214	C	0.579076	0.904358	0.083062
	C215	C	0.397129	0.906671	0.890245
	Zn216	Zn	0.487099	0.001352	0.735597
	Zn217	Zn	0.487119	0.001879	0.235049
	Zn218	Zn	0.736187	0.501969	-0.015480
	Zn219	Zn	0.236529	0.502273	-0.014496
	Zn220	Zn	-0.013263	0.750657	0.487025
	Zn221	Zn	-0.012243	0.251120	0.486673
	Zn222	Zn	-0.013683	0.501284	0.735320
	Zn223	Zn	-0.013432	0.501699	0.236236
	Zn224	Zn	0.487037	0.752270	-0.015050
	Zn225	Zn	0.486650	0.251533	-0.015301
	Zn226	Zn	0.737673	0.001487	0.486605
	Zn227	Zn	0.236918	0.001045	0.486609
	N228	N	0.399118	0.965875	0.666712
	N229	N	0.573706	0.036879	0.665505
	N230	N	0.575028	0.967229	0.304378
	N231	N	0.400531	0.036924	0.305468
	N232	N	0.666532	0.414998	0.949130
	N233	N	0.666628	0.588698	0.019628
	N234	N	0.306386	0.589296	0.949775
	N235	N	0.307805	0.416509	0.021088
	N236	N	0.951961	0.681659	0.398939
	N237	N	0.022329	0.681264	0.573600
	N238	N	0.951603	0.321605	0.571963
	N239	N	0.022672	0.322147	0.400267
	N240	N	0.951566	0.413734	0.666124
	N241	N	0.022509	0.587465	0.665443
	N242	N	0.950876	0.587038	0.307120
	N243	N	0.021795	0.414371	0.305897
	N244	N	0.398484	0.683748	0.950648
	N245	N	0.573329	0.681543	0.020058
	N246	N	0.573680	0.321435	0.949495
	N247	N	0.398799	0.320953	0.019883
	N248	N	0.667540	0.966699	0.399141
	N249	N	0.666379	0.037263	0.571769
	N250	N	0.306820	0.964902	0.572584
	N251	N	0.307331	0.036569	0.399329
	N252	N	0.899829	0.466027	0.165425
	N253	N	0.073190	0.536722	0.165472
	N254	N	0.072388	0.465814	0.806300
	N255	N	0.897913	0.535913	0.803395
	N256	N	0.164405	0.916680	0.450564
	N257	N	0.167530	0.088158	0.521915
	N258	N	0.809155	0.086947	0.451144
	N259	N	0.806195	0.913726	0.522268
	N260	N	0.451901	0.181723	0.897790
	N261	N	0.521830	0.181674	0.071590
	N262	N	0.451902	0.821694	0.072287
	N263	N	0.522685	0.822205	0.898619
	N264	N	0.452165	0.914458	0.165705
	N265	N	0.522275	0.087684	0.163736
	N266	N	0.451493	0.087968	0.805278
	N267	N	0.522334	0.914247	0.804674
	N268	N	0.902569	0.179611	0.451032
	N269	N	0.074841	0.181772	0.521658
	N270	N	0.073078	0.821817	0.451583
	N271	N	0.898540	0.819306	0.522256
	N272	N	0.166257	0.466643	0.899044
	N273	N	0.165895	0.537550	0.071631
	N274	N	0.806609	0.466188	0.071333
	N275	N	0.806669	0.537141	0.898520
	O276	O	0.988711	0.973829	0.021725
	H277	H	0.993827	0.989133	0.029603
	H278	H	0.994584	0.966196	0.016708
	O279	O	-0.101466	-0.154480	1.042034
	H280	H	-0.118576	-0.162558	1.045736
	H281	H	-0.100923	-0.164315	1.035896
	O282	O	0.217181	0.252513	0.786926
	H283	H	0.221091	0.278990	0.801574
	H284	H	0.193367	0.238082	0.804618
	O285	O	0.357343	0.300024	0.688098
	H286	H	0.339598	0.277383	0.701472
	H287	H	0.334268	0.333424	0.686912
	O288	O	1.293304	-0.672646	1.317808
	H289	H	1.322845	-0.648149	1.312561
	H290	H	1.297125	-0.660642	1.354194
	O291	O	0.673049	0.436187	0.447276
	H292	H	0.682196	0.428959	0.443703
	H293	H	0.663228	0.426737	0.453072
	O294	O	0.333080	0.429828	0.452431
	H295	H	0.333615	0.425426	0.462786
	H296	H	0.336906	0.433020	0.465427
	O297	O	0.679669	-0.304305	-0.319853
	H298	H	0.689550	-0.297957	-0.303873
	H299	H	0.638734	-0.299668	-0.318713
	O300	O	0.192134	-0.056983	-0.178282
	H301	H	0.193739	-0.055854	-0.188804
	H302	H	0.205678	-0.069425	-0.177217
	O303	O	-0.325290	-0.309416	0.297424
	H304	H	-0.334957	-0.336896	0.320203
	H305	H	-0.347795	-0.322926	0.312861
	O306	O	1.015264	0.223396	-0.048872
	H307	H	1.015641	0.223752	-0.064615
	H308	H	1.023934	0.223653	-0.061901
	O309	O	-0.125256	1.202731	0.101716
	H310	H	-0.111146	1.192108	0.076598
	H311	H	-0.121358	1.195221	0.088652
	O312	O	0.442975	0.550143	0.687854
	H313	H	0.442224	0.524328	0.684347
	H314	H	0.457102	0.547269	0.695306
	O315	O	0.510962	0.705058	0.692815
	H316	H	0.496243	0.700175	0.690905
	H317	H	0.494523	0.720261	0.685133
	O318	O	0.778508	0.793318	0.196905
	H319	H	0.744767	0.759967	0.226383
	H320	H	0.785675	0.794345	0.171893
	O321	O	-0.072266	0.819207	1.196351
	H322	H	-0.103292	0.802079	1.205911
	H323	H	-0.085225	0.816087	1.207656
	O324	O	0.776393	0.214020	0.954191
	H325	H	0.772700	0.223585	0.949511
	H326	H	0.764736	0.219568	0.930050
	O327	O	0.134287	1.217799	0.979836
	H328	H	0.156538	1.216621	0.997466
	H329	H	0.141431	1.216658	0.997392
	O330	O	0.651361	0.579837	0.426551
	H331	H	0.661538	0.560126	0.429258
	H332	H	0.640773	0.584785	0.443926
	O333	O	0.400471	1.444418	1.288013
	H334	H	0.402426	1.425410	1.284350
	H335	H	0.404260	1.456800	1.279874
	O336	O	0.738792	0.247856	0.235082
	H337	H	0.761161	0.224328	0.229921
	H338	H	0.754172	0.235892	0.235442
	O339	O	0.454074	0.718374	0.271096
	H340	H	0.464193	0.732539	0.264962
	H341	H	0.457173	0.719648	0.269573
	O342	O	0.015794	0.782649	-0.232930
	H343	H	0.031487	0.788293	-0.245616
	H344	H	0.024841	0.764473	-0.251380
	O345	O	0.501756	0.523172	0.265684
	H346	H	0.493177	0.519603	0.262174
	H347	H	0.527493	0.509424	0.263597
	O348	O	0.300482	0.609085	0.606336
	H349	H	0.298910	0.605289	0.582032
	H350	H	0.321372	0.596926	0.602321
	O351	O	0.638998	-0.699526	1.631295
	H352	H	0.636452	-0.690566	1.622033
	H353	H	0.625882	-0.695955	1.625693
	O354	O	1.021817	0.075592	1.181682
	H355	H	1.023389	0.062670	1.196524
	H356	H	1.015331	0.087251	1.179550
	O357	O	0.531819	0.491536	0.628207
	H358	H	0.537060	0.484773	0.617323
	H359	H	0.528551	0.486713	0.632407
	O360	O	1.202595	1.006448	1.150671
	H361	H	1.224938	1.023056	1.172365
	H362	H	1.181439	1.032454	1.155269
	O363	O	0.788625	1.200236	-0.214438
	H364	H	0.808299	1.191787	-0.205227
	H365	H	0.768560	1.205632	-0.239957
	O366	O	1.002336	0.909754	0.969951
	H367	H	1.001597	0.908834	0.971573
	H368	H	1.007901	0.909078	0.968202
	O369	O	0.111783	0.113982	1.061291
	H370	H	0.113288	0.118159	1.090456
	H371	H	0.126139	0.112359	1.066867
	O372	O	0.173628	0.812279	1.171568
	H373	H	0.161855	0.832087	1.144641
	H374	H	0.149371	0.830306	1.165214
	O375	O	1.279721	-0.289406	0.283858
	H376	H	1.254764	-0.261695	0.248788
	H377	H	1.312465	-0.306834	0.272851
	O378	O	0.261767	0.728194	0.450735
	H379	H	0.258547	0.730898	0.409918
	H380	H	0.234622	0.753913	0.437109
	O381	O	0.534550	0.727556	0.425761
	H382	H	0.531592	0.726189	0.421632
	H383	H	0.538478	0.726380	0.443966
	O384	O	0.284761	0.518674	0.467423
	H385	H	0.298410	0.523224	0.456217
	H386	H	0.281008	0.538617	0.444728
	O387	O	0.191466	1.208166	1.189986
	H388	H	0.162247	1.215954	1.200107
	H389	H	0.192383	1.234697	1.216170
	O390	O	-0.156921	0.843119	1.031687
	H391	H	-0.152361	0.835396	1.019140
	H392	H	-0.162802	0.828396	1.025337
	O393	O	0.806362	-0.005272	0.200029
	H394	H	0.795503	-0.017371	0.190425
	H395	H	0.789468	-0.014226	0.207190
	O396	O	0.523287	0.348836	0.525274
	H397	H	0.510928	0.349354	0.511638
	H398	H	0.500313	0.349428	0.531250
	O399	O	0.629555	0.284250	0.306775
	H400	H	0.650561	0.267665	0.291821
	H401	H	0.654817	0.275521	0.334072
	O402	O	1.208653	0.001124	0.965409
	H403	H	1.214019	0.019537	0.994511
	H404	H	1.194219	0.005345	0.970630
	O405	O	0.688195	0.325457	0.487061
	H406	H	0.676337	0.330605	0.493658
	H407	H	0.688303	0.336896	0.499887
	O408	O	0.815298	0.955546	0.810097
	H409	H	0.831826	0.962205	0.811030
	H410	H	0.811138	0.961370	0.786372
	O411	O	0.993153	0.959843	0.171097
	H412	H	0.985099	0.938174	0.188678
	H413	H	0.993813	0.961104	0.166376
	O414	O	-0.147745	-0.075749	-0.158008
	H415	H	-0.134149	-0.079342	-0.146821
	H416	H	-0.145863	-0.058556	-0.141083
	O417	O	1.078280	0.044091	-0.221270
	H418	H	1.091456	0.039134	-0.219213
	H419	H	1.076116	0.035094	-0.229316
	O420	O	1.026100	-0.132510	0.957627
	H421	H	1.046542	-0.121930	0.974198
	H422	H	1.032696	-0.127413	0.945267
	O423	O	0.781313	0.960539	-0.118363
	H424	H	0.780543	0.959624	-0.121594
	H425	H	0.768236	0.954432	-0.109671
	O426	O	0.690886	0.707744	0.512312
	H427	H	0.688792	0.707920	0.527225
	H428	H	0.707660	0.717204	0.526110
	O429	O	0.702003	0.511637	0.646243
	H430	H	0.714756	0.527595	0.656878
	H431	H	0.684012	0.522508	0.655592
	O432	O	0.776164	0.041694	1.029015
	H433	H	0.782423	0.042329	1.013959
	H434	H	0.775422	0.034748	1.025836
	O435	O	0.300848	0.313989	0.534260
	H436	H	0.299301	0.319041	0.540597
	H437	H	0.283863	0.298013	0.543248
	O438	O	1.121824	1.145203	-0.117253
	H439	H	1.113647	1.130171	-0.114680
	H440	H	1.117102	1.143981	-0.112596
	O441	O	0.510143	0.289899	0.331557
	H442	H	0.533523	0.284536	0.324495
	H443	H	0.505387	0.277146	0.326875
	O444	O	0.480660	0.507042	0.499743
	H445	H	0.489617	0.498411	0.512985
	H446	H	0.491232	0.520037	0.489524
	O447	O	0.413418	0.707052	0.549219
	H448	H	0.382924	0.716140	0.535383
	H449	H	0.412921	0.687931	0.529959
	O450	O	1.156333	-0.212343	-0.034076
	H451	H	1.168983	-0.212179	-0.031890
	H452	H	1.166660	-0.209436	-0.021008
	O453	O	0.294125	0.486907	0.694272
	H454	H	0.273825	0.504099	0.693128
	H455	H	0.308377	0.504718	0.687935
	O456	O	-0.088050	0.911836	0.786391
	H457	H	-0.095809	0.916447	0.793256
	H458	H	-0.087980	0.908460	0.790147
	O459	O	0.691724	0.481759	0.305948
	H460	H	0.710097	0.481013	0.294014
	H461	H	0.688956	0.442646	0.305710
	O462	O	0.957812	0.211732	0.779684
	H463	H	0.959318	0.215779	0.780268
	H464	H	0.951552	0.217487	0.775951
	O465	O	0.510064	0.425727	0.512239
	H466	H	0.528332	0.436500	0.527509
	H467	H	0.505752	0.426522	0.501948
	O468	O	0.022534	1.215992	0.196839
	H469	H	0.002538	1.231376	0.182570
	H470	H	0.006822	1.220563	0.207228
	O471	O	0.507496	0.343694	0.685707
	H472	H	0.488380	0.337626	0.668254
	H473	H	0.493202	0.325737	0.702437
	O474	O	1.180071	0.809622	-0.204658
	H475	H	1.195998	0.819924	-0.221565
	H476	H	1.172295	0.798925	-0.169884
	O477	O	0.343367	0.551086	0.273061
	H478	H	0.346183	0.551470	0.278261
	H479	H	0.338781	0.558886	0.259695
