data_Molecule from HDF5

_cell_length_a		16.223436
_cell_length_b		16.250501
_cell_length_c		16.253729
_cell_angle_alpha	89.713717
_cell_angle_beta	89.107710
_cell_angle_gamma	89.649054
_symmetry_space_group_name_H-M	'P 1'
_symmetry_Int_Tables_number		1

loop_
	_symmetry_equiv_pos_as_xyz
	x,y,z

loop_
	_atom_site_label
	_atom_site_type_symbol
	_atom_site_fract_x
	_atom_site_fract_y
	_atom_site_fract_z
	H0	H	0.400074	0.837915	0.717990
	H1	H	0.596777	0.164741	0.710056
	H2	H	0.605498	0.836600	0.281681
	H3	H	0.403678	0.164234	0.285101
	H4	H	0.720051	0.400981	0.837507
	H5	H	0.709845	0.598131	0.164010
	H6	H	0.287423	0.601965	0.835117
	H7	H	0.283074	0.401263	0.162968
	H8	H	0.838125	0.717691	0.402411
	H9	H	0.165346	0.712053	0.597145
	H10	H	0.836478	0.285682	0.602043
	H11	H	0.165147	0.285480	0.399716
	H12	H	0.836665	0.400734	0.718384
	H13	H	0.165154	0.596858	0.711210
	H14	H	0.836287	0.601182	0.288232
	H15	H	0.163760	0.398771	0.281432
	H16	H	0.402062	0.718331	0.836107
	H17	H	0.596147	0.713930	0.162982
	H18	H	0.602136	0.288616	0.835026
	H19	H	0.396908	0.284010	0.162428
	H20	H	0.720377	0.837269	0.397554
	H21	H	0.713037	0.164978	0.594065
	H22	H	0.287328	0.835694	0.600273
	H23	H	0.286185	0.163404	0.400652
	H24	H	0.899760	0.337197	0.218462
	H25	H	0.097355	0.663961	0.213111
	H26	H	0.102504	0.336238	0.784844
	H27	H	0.902933	0.664294	0.786856
	H28	H	0.220870	0.899103	0.337189
	H29	H	0.211043	0.095490	0.664397
	H30	H	0.790689	0.100990	0.334898
	H31	H	0.783814	0.900235	0.661888
	H32	H	0.336555	0.216297	0.902078
	H33	H	0.664938	0.214257	0.093531
	H34	H	0.336707	0.787796	0.101050
	H35	H	0.664033	0.784798	0.896037
	H36	H	0.339108	0.900929	0.218315
	H37	H	0.667028	0.098197	0.207860
	H38	H	0.336789	0.101317	0.786996
	H39	H	0.664821	0.902396	0.782669
	H40	H	0.901824	0.219469	0.337612
	H41	H	0.097915	0.212434	0.663809
	H42	H	0.105314	0.784111	0.336906
	H43	H	0.899624	0.784634	0.663339
	H44	H	0.219506	0.337774	0.898562
	H45	H	0.212265	0.664906	0.096899
	H46	H	0.784049	0.336551	0.103232
	H47	H	0.788204	0.665241	0.903794
	H48	H	0.412032	0.116289	0.593771
	H49	H	0.587518	0.887422	0.585706
	H50	H	0.604117	0.121304	0.396918
	H51	H	0.417355	0.884687	0.406817
	H52	H	0.586926	0.403053	0.116244
	H53	H	0.592700	0.595373	0.882943
	H54	H	0.404326	0.584487	0.112602
	H55	H	0.415413	0.399930	0.882058
	H56	H	0.117643	0.595115	0.408789
	H57	H	0.884678	0.590544	0.593541
	H58	H	0.118026	0.404329	0.590089
	H59	H	0.884569	0.406885	0.414628
	H60	H	0.117650	0.406638	0.592601
	H61	H	0.883067	0.593273	0.597418
	H62	H	0.116141	0.585380	0.406259
	H63	H	0.884947	0.413774	0.411627
	H64	H	0.412296	0.599154	0.116040
	H65	H	0.597776	0.594182	0.881592
	H66	H	0.594769	0.404911	0.118927
	H67	H	0.401160	0.411409	0.880094
	H68	H	0.584791	0.115309	0.398486
	H69	H	0.602217	0.882020	0.587468
	H70	H	0.402219	0.115777	0.585918
	H71	H	0.411998	0.884390	0.412455
	H72	H	0.903688	0.619432	0.099225
	H73	H	0.095542	0.385685	0.081066
	H74	H	0.097465	0.620669	0.897855
	H75	H	0.904209	0.383795	0.915223
	H76	H	0.101292	0.904014	0.619784
	H77	H	0.093712	0.088345	0.384776
	H78	H	0.903900	0.097697	0.618768
	H79	H	0.902131	0.905673	0.378318
	H80	H	0.613134	0.083037	0.909372
	H81	H	0.388471	0.083909	0.089094
	H82	H	0.618181	0.910293	0.092901
	H83	H	0.386869	0.913076	0.915092
	H84	H	0.620526	0.900213	0.089258
	H85	H	0.381544	0.092697	0.104632
	H86	H	0.622058	0.092523	0.889551
	H87	H	0.382864	0.914107	0.902349
	H88	H	0.901865	0.085813	0.615609
	H89	H	0.092674	0.096392	0.382211
	H90	H	0.090230	0.911193	0.614519
	H91	H	0.915268	0.917879	0.386995
	H92	H	0.086428	0.615734	0.903234
	H93	H	0.097805	0.379750	0.098614
	H94	H	0.909298	0.614661	0.092980
	H95	H	0.907795	0.380747	0.902216
	H96	H	0.400712	0.120356	0.597416
	H97	H	0.592104	0.882111	0.599369
	H98	H	0.596900	0.113596	0.414244
	H99	H	0.409607	0.882168	0.405916
	H100	H	0.589933	0.410764	0.114840
	H101	H	0.595366	0.590922	0.883041
	H102	H	0.395827	0.597974	0.119697
	H103	H	0.416390	0.417279	0.887042
	H104	H	0.119542	0.591664	0.399064
	H105	H	0.883440	0.595837	0.593815
	H106	H	0.118488	0.404332	0.593535
	H107	H	0.882568	0.407886	0.407840
	H108	H	0.900338	0.617338	0.090691
	H109	H	0.082177	0.387132	0.092981
	H110	H	0.097145	0.616694	0.910180
	H111	H	0.916711	0.386340	0.910604
	H112	H	0.089146	0.898125	0.618322
	H113	H	0.099925	0.092480	0.381238
	H114	H	0.913165	0.090253	0.613728
	H115	H	0.920491	0.900097	0.383299
	H116	H	0.619724	0.106048	0.909167
	H117	H	0.383574	0.101928	0.087245
	H118	H	0.616668	0.908167	0.082107
	H119	H	0.381548	0.902809	0.908378
	C120	C	0.377682	0.009223	0.622188
	C121	C	0.621718	0.992253	0.618472
	C122	C	0.625584	0.008897	0.374504
	C123	C	0.382337	0.991814	0.379109
	C124	C	0.621996	0.378372	0.008550
	C125	C	0.621502	0.621656	0.991240
	C126	C	0.376993	0.623705	0.007780
	C127	C	0.379240	0.379793	0.990847
	C128	C	0.009730	0.621526	0.377562
	C129	C	0.992389	0.620493	0.621529
	C130	C	0.009371	0.377263	0.622739
	C131	C	0.991998	0.379279	0.379861
	C132	C	0.876244	0.508989	0.123867
	C133	C	0.120035	0.492392	0.119274
	C134	C	0.123745	0.509343	0.875874
	C135	C	0.880393	0.491974	0.880319
	C136	C	0.124665	0.875784	0.509437
	C137	C	0.122147	0.120346	0.491460
	C138	C	0.879174	0.121955	0.508160
	C139	C	0.881015	0.878177	0.490601
	C140	C	0.509665	0.123345	0.876005
	C141	C	0.492856	0.121680	0.120017
	C142	C	0.510035	0.878511	0.119841
	C143	C	0.491922	0.880216	0.877637
	C144	C	0.380254	0.886368	0.679163
	C145	C	0.617969	0.115851	0.672360
	C146	C	0.625276	0.885903	0.319134
	C147	C	0.383405	0.115063	0.322954
	C148	C	0.680849	0.380838	0.885966
	C149	C	0.673565	0.618616	0.114734
	C150	C	0.324416	0.621795	0.884455
	C151	C	0.321541	0.381172	0.113913
	C152	C	0.886615	0.678948	0.381595
	C153	C	0.116270	0.674614	0.617600
	C154	C	0.885774	0.323002	0.621884
	C155	C	0.115664	0.322968	0.379657
	C156	C	0.885779	0.380295	0.679789
	C157	C	0.116198	0.617185	0.674337
	C158	C	0.885825	0.620961	0.324797
	C159	C	0.115057	0.379317	0.321034
	C160	C	0.381332	0.679622	0.884686
	C161	C	0.616615	0.676283	0.114188
	C162	C	0.621998	0.324834	0.884691
	C163	C	0.378469	0.322951	0.113785
	C164	C	0.682224	0.886097	0.376855
	C165	C	0.675570	0.115767	0.614696
	C166	C	0.324134	0.885178	0.620663
	C167	C	0.324944	0.114608	0.380721
	C168	C	0.878809	0.386036	0.180575
	C169	C	0.117540	0.615433	0.174928
	C170	C	0.122864	0.385878	0.821640
	C171	C	0.882394	0.615395	0.824672
	C172	C	0.182565	0.878183	0.386505
	C173	C	0.174323	0.116415	0.615248
	C174	C	0.826677	0.121276	0.384533
	C175	C	0.822544	0.879830	0.613306
	C176	C	0.386026	0.178946	0.880542
	C177	C	0.616351	0.176604	0.114855
	C178	C	0.386078	0.824867	0.120271
	C179	C	0.615147	0.823351	0.877214
	C180	C	0.387374	0.881098	0.178641
	C181	C	0.617366	0.118897	0.171707
	C182	C	0.386039	0.121656	0.823272
	C183	C	0.615676	0.882068	0.821040
	C184	C	0.882357	0.179717	0.385601
	C185	C	0.118200	0.174756	0.614818
	C186	C	0.124807	0.821145	0.386127
	C187	C	0.880295	0.822496	0.614099
	C188	C	0.181032	0.386603	0.878058
	C189	C	0.174607	0.615815	0.116976
	C190	C	0.821565	0.385725	0.122970
	C191	C	0.825212	0.615766	0.882643
	C192	C	0.398618	0.095219	0.599182
	C193	C	0.600211	0.906048	0.597225
	C194	C	0.602284	0.094640	0.396691
	C195	C	0.405982	0.906130	0.401758
	C196	C	0.597662	0.399880	0.094409
	C197	C	0.601248	0.599788	0.904804
	C198	C	0.398083	0.600737	0.093925
	C199	C	0.403797	0.402868	0.905335
	C200	C	0.095497	0.597719	0.398498
	C201	C	0.906145	0.599420	0.601034
	C202	C	0.095772	0.398935	0.599084
	C203	C	0.906237	0.402624	0.404265
	C204	C	0.898127	0.594842	0.101007
	C205	C	0.098224	0.406486	0.097239
	C206	C	0.100550	0.595304	0.897445
	C207	C	0.902774	0.405987	0.902783
	C208	C	0.100573	0.897910	0.595435
	C209	C	0.101559	0.098871	0.405193
	C210	C	0.900136	0.098196	0.593738
	C211	C	0.905605	0.901100	0.405015
	C212	C	0.596059	0.100676	0.896694
	C213	C	0.406687	0.099613	0.099682
	C214	C	0.596010	0.899747	0.095260
	C215	C	0.405984	0.903339	0.901444
	Zn216	Zn	0.500455	0.001165	0.748365
	Zn217	Zn	0.503146	-0.000045	0.247819
	Zn218	Zn	0.749928	0.500409	0.000767
	Zn219	Zn	0.249872	0.501378	-0.001304
	Zn220	Zn	0.002096	0.748858	0.500031
	Zn221	Zn	0.000768	0.249467	0.500397
	Zn222	Zn	0.000959	0.499898	0.749916
	Zn223	Zn	0.000001	0.500102	0.249979
	Zn224	Zn	0.500514	0.750376	-0.001361
	Zn225	Zn	0.500650	0.250457	-0.001067
	Zn226	Zn	0.752236	0.000623	0.497967
	Zn227	Zn	0.250834	-0.000912	0.500477
	N228	N	0.412895	0.964415	0.680289
	N229	N	0.585260	0.037949	0.675007
	N230	N	0.590740	0.963344	0.317463
	N231	N	0.418599	0.037768	0.321890
	N232	N	0.681013	0.413302	0.963921
	N233	N	0.676518	0.585288	0.037170
	N234	N	0.321673	0.587771	0.962095
	N235	N	0.321849	0.415859	0.036555
	N236	N	0.964667	0.679673	0.413602
	N237	N	0.038238	0.677124	0.585590
	N238	N	0.963803	0.320787	0.587396
	N239	N	0.038167	0.322507	0.415360
	N240	N	0.963747	0.413161	0.680442
	N241	N	0.038214	0.584463	0.677160
	N242	N	0.963226	0.585928	0.322301
	N243	N	0.037346	0.413599	0.321094
	N244	N	0.413518	0.680911	0.962497
	N245	N	0.585022	0.678244	0.036142
	N246	N	0.586189	0.322948	0.961985
	N247	N	0.413603	0.321821	0.036193
	N248	N	0.682762	0.963521	0.410505
	N249	N	0.678087	0.037805	0.582065
	N250	N	0.322375	0.962461	0.585914
	N251	N	0.324253	0.036924	0.414825
	N252	N	0.912039	0.463579	0.181242
	N253	N	0.084310	0.537599	0.176493
	N254	N	0.088236	0.463319	0.819794
	N255	N	0.915721	0.537394	0.822764
	N256	N	0.182407	0.911566	0.464118
	N257	N	0.177270	0.083536	0.537301
	N258	N	0.824613	0.085912	0.461584
	N259	N	0.822747	0.913858	0.535632
	N260	N	0.464031	0.180207	0.912511
	N261	N	0.537995	0.178555	0.083459
	N262	N	0.463391	0.823085	0.084325
	N263	N	0.537297	0.821962	0.911766
	N264	N	0.465386	0.913668	0.178419
	N265	N	0.539694	0.085248	0.175042
	N266	N	0.464054	0.087845	0.820211
	N267	N	0.537976	0.916398	0.820951
	N268	N	0.914260	0.180398	0.463556
	N269	N	0.086383	0.177311	0.536808
	N270	N	0.089494	0.819432	0.463654
	N271	N	0.915922	0.821339	0.536791
	N272	N	0.181905	0.464480	0.910883
	N273	N	0.176282	0.538434	0.083181
	N274	N	0.819639	0.463281	0.088533
	N275	N	0.823891	0.538069	0.916701
	O276	O	0.438250	0.482032	0.468838
	H277	H	0.432730	0.484532	0.462713
	H278	H	0.443239	0.480479	0.478541
	O279	O	0.633310	0.497350	0.500679
	H280	H	0.639987	0.498405	0.500784
	H281	H	0.630637	0.495512	0.499303
	O282	O	1.091325	1.092590	-0.068560
	H283	H	1.087912	1.092523	-0.069465
	H284	H	1.080618	1.089190	-0.072252
	O285	O	1.021876	-0.005424	1.062270
	H286	H	1.029850	-0.012543	1.056316
	H287	H	1.011054	-0.016495	1.057807
	O288	O	0.523987	0.539733	0.541984
	H289	H	0.520445	0.544079	0.539542
	H290	H	0.519597	0.528082	0.541947
	O291	O	0.585252	0.323693	0.425942
	H292	H	0.593526	0.325488	0.423892
	H293	H	0.593285	0.314400	0.425415
	O294	O	0.543537	0.529504	0.614120
	H295	H	0.554207	0.533439	0.618293
	H296	H	0.548101	0.530923	0.615953
	O297	O	0.000063	-0.116896	1.023568
	H298	H	0.011088	-0.126554	1.018718
	H299	H	-0.008919	-0.114372	1.028074
	O300	O	0.564618	0.501987	0.595792
	H301	H	0.557362	0.511908	0.591760
	H302	H	0.565305	0.509003	0.604323
	O303	O	1.037260	1.036828	0.004006
	H304	H	1.040805	1.033492	0.013640
	H305	H	1.028264	1.028006	0.010283
	O306	O	0.046176	1.041735	1.039588
	H307	H	0.037948	1.044748	1.037241
	H308	H	0.051907	1.034451	1.039596
	O309	O	0.573737	0.374851	0.379044
	H310	H	0.583369	0.374805	0.374642
	H311	H	0.565532	0.375531	0.387986
	O312	O	0.032653	-0.018923	0.017756
	H313	H	0.042928	-0.030622	0.018252
	H314	H	0.032026	-0.021392	0.023125
	O315	O	0.959689	-0.078333	0.047358
	H316	H	0.952513	-0.087447	0.052886
	H317	H	0.958614	-0.077261	0.047541
	O318	O	0.957438	0.982506	1.035608
	H319	H	0.957719	0.986009	1.037410
	H320	H	0.969630	0.982692	1.029428
	O321	O	-0.030353	0.021385	0.989312
	H322	H	-0.027987	0.037068	0.981233
	H323	H	-0.048552	0.017208	0.987321
	O324	O	0.493640	0.477058	0.470465
	H325	H	0.485969	0.482058	0.467219
	H326	H	0.504137	0.477313	0.467649
	O327	O	-0.028708	0.018383	-0.058618
	H328	H	-0.033024	0.014512	-0.046601
	H329	H	-0.029135	0.026533	-0.060515
	O330	O	0.441576	0.615251	0.407641
	H331	H	0.441434	0.621254	0.391548
	H332	H	0.430564	0.617059	0.412144
	O333	O	0.067884	0.970301	1.000468
	H334	H	0.074497	0.966500	0.993631
	H335	H	0.073144	0.972872	1.004819
	O336	O	-0.006774	0.046510	0.096282
	H337	H	0.008556	0.041767	0.096315
	H338	H	-0.003214	0.053577	0.094185
	O339	O	0.503824	0.594049	0.641213
	H340	H	0.500359	0.595733	0.638561
	H341	H	0.505511	0.589149	0.642153
	O342	O	1.373848	1.598133	1.423806
	H343	H	1.374363	1.596099	1.422691
	H344	H	1.374585	1.594322	1.426335
	O345	O	0.992457	0.981172	-0.061605
	H346	H	0.989802	0.972090	-0.058002
	H347	H	0.975569	0.986250	-0.064072
	O348	O	0.480784	0.470470	0.489221
	H349	H	0.485805	0.464512	0.482070
	H350	H	0.480251	0.472393	0.483152
	O351	O	0.550603	0.559353	0.444819
	H352	H	0.554417	0.547388	0.434989
	H353	H	0.560260	0.565442	0.454324
	O354	O	0.372104	0.414927	0.528571
	H355	H	0.356477	0.411245	0.537128
	H356	H	0.361693	0.422054	0.521777
	O357	O	0.561236	-0.528891	0.474305
	H358	H	0.565015	-0.538249	0.474210
	H359	H	0.563940	-0.535418	0.474457
	O360	O	0.572799	0.571240	0.457799
	H361	H	0.557816	0.566889	0.457629
	H362	H	0.580150	0.573181	0.450313
	O363	O	0.476970	0.610919	0.485451
	H364	H	0.471413	0.616784	0.502640
	H365	H	0.473065	0.615549	0.467991
	O366	O	0.983685	1.072797	0.994867
	H367	H	0.990034	1.066728	0.989554
	H368	H	0.991651	1.076083	1.001308
	O369	O	0.949094	-0.039782	0.925205
	H370	H	0.951430	-0.047168	0.917637
	H371	H	0.941138	-0.029758	0.923390
	O372	O	-0.056326	0.060219	-0.065852
	H373	H	-0.064764	0.070159	-0.051938
	H374	H	-0.064629	0.064282	-0.069692
	O375	O	0.963629	0.049361	0.019081
	H376	H	0.971534	0.059023	0.015623
	H377	H	0.964598	0.050248	0.001742
	O378	O	0.400855	0.371025	0.555751
	H379	H	0.401114	0.365187	0.563434
	H380	H	0.397267	0.374904	0.551056
	O381	O	0.387512	0.470917	0.600675
	H382	H	0.389951	0.463961	0.595768
	H383	H	0.373946	0.454065	0.605996
