data_Molecule from HDF5

_cell_length_a		16.215724
_cell_length_b		16.269823
_cell_length_c		16.236649
_cell_angle_alpha	90.043045
_cell_angle_beta	89.474780
_cell_angle_gamma	89.850030
_symmetry_space_group_name_H-M	'P 1'
_symmetry_Int_Tables_number		1

loop_
	_symmetry_equiv_pos_as_xyz
	x,y,z

loop_
	_atom_site_label
	_atom_site_type_symbol
	_atom_site_fract_x
	_atom_site_fract_y
	_atom_site_fract_z
	H0	H	0.399685	0.840895	0.711146
	H1	H	0.597468	0.167949	0.706874
	H2	H	0.601603	0.840236	0.276467
	H3	H	0.402390	0.168348	0.282238
	H4	H	0.715842	0.405796	0.829441
	H5	H	0.713595	0.602905	0.158657
	H6	H	0.288943	0.602288	0.828845
	H7	H	0.283715	0.406238	0.157542
	H8	H	0.837330	0.719991	0.394811
	H9	H	0.164110	0.717364	0.593120
	H10	H	0.835558	0.289171	0.594119
	H11	H	0.164538	0.286406	0.392477
	H12	H	0.835694	0.405962	0.708873
	H13	H	0.165657	0.599966	0.704469
	H14	H	0.836191	0.602764	0.280687
	H15	H	0.164699	0.402598	0.277359
	H16	H	0.402151	0.719849	0.830666
	H17	H	0.598637	0.720247	0.157934
	H18	H	0.602525	0.287074	0.830685
	H19	H	0.400264	0.291149	0.159181
	H20	H	0.715548	0.839125	0.393989
	H21	H	0.714422	0.166747	0.591366
	H22	H	0.286766	0.838730	0.593028
	H23	H	0.284792	0.166920	0.396006
	H24	H	0.899760	0.338777	0.210204
	H25	H	0.099737	0.666434	0.209943
	H26	H	0.101517	0.339488	0.777926
	H27	H	0.904315	0.668122	0.781620
	H28	H	0.217949	0.902029	0.330629
	H29	H	0.212164	0.100566	0.658934
	H30	H	0.788454	0.100355	0.329015
	H31	H	0.783206	0.902366	0.657576
	H32	H	0.336271	0.219073	0.898873
	H33	H	0.664521	0.219267	0.092657
	H34	H	0.336127	0.789635	0.096764
	H35	H	0.664585	0.789757	0.893352
	H36	H	0.335488	0.906506	0.210447
	H37	H	0.665047	0.103041	0.206411
	H38	H	0.335788	0.103892	0.783239
	H39	H	0.663482	0.905632	0.777251
	H40	H	0.900716	0.218514	0.330578
	H41	H	0.097327	0.217158	0.657785
	H42	H	0.102374	0.786090	0.331351
	H43	H	0.899218	0.787992	0.658252
	H44	H	0.217091	0.339308	0.894240
	H45	H	0.212126	0.667947	0.089656
	H46	H	0.784648	0.338475	0.092468
	H47	H	0.786836	0.667681	0.895918
	H48	H	0.399442	0.121337	0.584987
	H49	H	0.591540	0.885040	0.595872
	H50	H	0.593075	0.118531	0.402400
	H51	H	0.412738	0.889254	0.402818
	H52	H	0.594123	0.413817	0.110256
	H53	H	0.592654	0.607818	0.873995
	H54	H	0.398216	0.597879	0.113865
	H55	H	0.400966	0.420171	0.877336
	H56	H	0.116250	0.589893	0.399385
	H57	H	0.884810	0.593908	0.586087
	H58	H	0.115861	0.407281	0.578861
	H59	H	0.884664	0.415216	0.400331
	H60	H	0.116680	0.414621	0.588271
	H61	H	0.882270	0.595462	0.592094
	H62	H	0.118555	0.596494	0.398130
	H63	H	0.881644	0.405495	0.399327
	H64	H	0.409156	0.590677	0.107664
	H65	H	0.604326	0.594099	0.875459
	H66	H	0.589455	0.412697	0.109663
	H67	H	0.422064	0.411917	0.881550
	H68	H	0.596150	0.120670	0.400876
	H69	H	0.583534	0.890933	0.581357
	H70	H	0.404462	0.122957	0.594834
	H71	H	0.405053	0.885751	0.403475
	H72	H	0.904718	0.619881	0.088536
	H73	H	0.098370	0.384799	0.086159
	H74	H	0.096851	0.620142	0.897562
	H75	H	0.896660	0.385988	0.908564
	H76	H	0.093368	0.901704	0.613903
	H77	H	0.102049	0.097359	0.374314
	H78	H	0.907000	0.087271	0.608113
	H79	H	0.904636	0.909183	0.376317
	H80	H	0.619404	0.099937	0.899019
	H81	H	0.381007	0.099868	0.095262
	H82	H	0.615138	0.911933	0.079528
	H83	H	0.384116	0.906139	0.911975
	H84	H	0.614999	0.916917	0.086629
	H85	H	0.382756	0.103237	0.085031
	H86	H	0.615872	0.096012	0.903758
	H87	H	0.385927	0.921784	0.904056
	H88	H	0.912992	0.100826	0.610769
	H89	H	0.092567	0.085652	0.379987
	H90	H	0.099000	0.913639	0.612551
	H91	H	0.912441	0.914281	0.379367
	H92	H	0.093144	0.620454	0.896335
	H93	H	0.088849	0.386896	0.090066
	H94	H	0.908426	0.619442	0.089968
	H95	H	0.908092	0.382612	0.886702
	H96	H	0.410384	0.119190	0.585600
	H97	H	0.600222	0.886107	0.580179
	H98	H	0.592578	0.120404	0.397940
	H99	H	0.408436	0.885506	0.397077
	H100	H	0.592103	0.408549	0.111690
	H101	H	0.587393	0.590853	0.881674
	H102	H	0.410716	0.604459	0.111477
	H103	H	0.405781	0.397827	0.871776
	H104	H	0.116260	0.595197	0.404765
	H105	H	0.882530	0.599762	0.587238
	H106	H	0.119963	0.402730	0.588525
	H107	H	0.884691	0.408996	0.408135
	H108	H	0.908646	0.617545	0.086684
	H109	H	0.091308	0.389389	0.079547
	H110	H	0.093753	0.619442	0.900510
	H111	H	0.921067	0.391511	0.905694
	H112	H	0.086274	0.912159	0.608521
	H113	H	0.086299	0.100810	0.376836
	H114	H	0.898006	0.098480	0.613607
	H115	H	0.912976	0.905027	0.376667
	H116	H	0.617126	0.092880	0.897165
	H117	H	0.384906	0.093196	0.087995
	H118	H	0.618749	0.908103	0.087416
	H119	H	0.379507	0.907906	0.894484
	C120	C	0.377214	0.012345	0.616765
	C121	C	0.620787	0.995178	0.614993
	C122	C	0.623312	0.011705	0.371089
	C123	C	0.379484	0.995073	0.372980
	C124	C	0.621883	0.382208	0.002425
	C125	C	0.622473	0.626369	0.985902
	C126	C	0.378366	0.626288	0.002523
	C127	C	0.379323	0.382231	0.985406
	C128	C	0.008914	0.624028	0.372770
	C129	C	0.992018	0.624442	0.615670
	C130	C	0.008991	0.380294	0.615834
	C131	C	0.991793	0.380329	0.372052
	C132	C	0.877939	0.510631	0.116589
	C133	C	0.121060	0.495099	0.114261
	C134	C	0.124096	0.511786	0.869871
	C135	C	0.880016	0.495177	0.872434
	C136	C	0.122364	0.880367	0.503009
	C137	C	0.121162	0.123483	0.485661
	C138	C	0.877896	0.124119	0.502260
	C139	C	0.879539	0.880889	0.485689
	C140	C	0.508753	0.125589	0.873237
	C141	C	0.491680	0.126740	0.116826
	C142	C	0.508149	0.883454	0.115500
	C143	C	0.491415	0.882504	0.872585
	C144	C	0.379346	0.889540	0.672930
	C145	C	0.617780	0.118877	0.669268
	C146	C	0.621677	0.888973	0.314675
	C147	C	0.382177	0.119092	0.319479
	C148	C	0.678062	0.384662	0.878674
	C149	C	0.676506	0.623491	0.109486
	C150	C	0.325382	0.622987	0.878496
	C151	C	0.322480	0.385437	0.108862
	C152	C	0.886102	0.681160	0.374902
	C153	C	0.115240	0.679723	0.613110
	C154	C	0.885050	0.326368	0.614448
	C155	C	0.115443	0.324820	0.372967
	C156	C	0.885167	0.384498	0.671676
	C157	C	0.116001	0.621255	0.668452
	C158	C	0.885478	0.622857	0.318142
	C159	C	0.115513	0.382106	0.315319
	C160	C	0.381711	0.681584	0.879329
	C161	C	0.618998	0.681729	0.109206
	C162	C	0.621818	0.325651	0.879473
	C163	C	0.380486	0.328406	0.109620
	C164	C	0.678420	0.888322	0.373057
	C165	C	0.676108	0.118162	0.611759
	C166	C	0.323641	0.888307	0.613887
	C167	C	0.323381	0.118172	0.375804
	C168	C	0.879656	0.387482	0.172010
	C169	C	0.118891	0.618031	0.170537
	C170	C	0.122048	0.388490	0.815657
	C171	C	0.883187	0.618672	0.818393
	C172	C	0.179227	0.882227	0.379589
	C173	C	0.174805	0.120926	0.609754
	C174	C	0.824457	0.121429	0.378581
	C175	C	0.821972	0.882866	0.608837
	C176	C	0.385162	0.181108	0.877875
	C177	C	0.615753	0.181138	0.112950
	C178	C	0.385059	0.827588	0.115800
	C179	C	0.614889	0.827258	0.873291
	C180	C	0.384654	0.885793	0.172347
	C181	C	0.615693	0.123519	0.169692
	C182	C	0.384908	0.124152	0.820142
	C183	C	0.614540	0.884684	0.815359
	C184	C	0.880221	0.180326	0.379324
	C185	C	0.118031	0.179181	0.609136
	C186	C	0.121996	0.824305	0.379982
	C187	C	0.879819	0.825833	0.609175
	C188	C	0.179409	0.388465	0.873520
	C189	C	0.175422	0.618664	0.111254
	C190	C	0.822566	0.387353	0.113331
	C191	C	0.825151	0.618803	0.875800
	C192	C	0.398516	0.098770	0.594906
	C193	C	0.598161	0.909323	0.592751
	C194	C	0.600607	0.097716	0.393696
	C195	C	0.402237	0.909053	0.394795
	C196	C	0.598569	0.404915	0.088464
	C197	C	0.601073	0.604147	0.899523
	C198	C	0.399657	0.604119	0.088821
	C199	C	0.402655	0.403652	0.899287
	C200	C	0.094780	0.600765	0.394502
	C201	C	0.905470	0.602879	0.594594
	C202	C	0.095182	0.401736	0.592192
	C203	C	0.905815	0.403216	0.395632
	C204	C	0.900513	0.596552	0.094810
	C205	C	0.099118	0.409152	0.091887
	C206	C	0.101345	0.597853	0.891791
	C207	C	0.902157	0.409052	0.893926
	C208	C	0.099490	0.902588	0.589309
	C209	C	0.099869	0.101341	0.399490
	C210	C	0.899474	0.102045	0.588371
	C211	C	0.903220	0.903032	0.399602
	C212	C	0.595114	0.103051	0.893778
	C213	C	0.405229	0.105187	0.095764
	C214	C	0.594164	0.905722	0.091518
	C215	C	0.405241	0.905188	0.896508
	Zn216	Zn	0.499188	0.004668	0.744200
	Zn217	Zn	0.500731	0.004293	0.243704
	Zn218	Zn	0.750376	0.503571	-0.006185
	Zn219	Zn	0.250873	0.503948	-0.006866
	Zn220	Zn	0.000850	0.752266	0.495009
	Zn221	Zn	0.000369	0.251729	0.493413
	Zn222	Zn	0.001214	0.503124	0.742502
	Zn223	Zn	0.000211	0.502418	0.244543
	Zn224	Zn	0.500038	0.754619	-0.005542
	Zn225	Zn	0.500697	0.253902	-0.005291
	Zn226	Zn	0.750636	0.002193	0.493440
	Zn227	Zn	0.250169	0.002421	0.494801
	N228	N	0.411695	0.967601	0.674854
	N229	N	0.584324	0.041351	0.671361
	N230	N	0.588211	0.966874	0.313191
	N231	N	0.416263	0.041486	0.317450
	N232	N	0.678352	0.418749	0.956267
	N233	N	0.678654	0.589700	0.031613
	N234	N	0.323120	0.589421	0.956178
	N235	N	0.321874	0.418420	0.030888
	N236	N	0.963647	0.681889	0.408292
	N237	N	0.037087	0.681672	0.580887
	N238	N	0.962904	0.323583	0.580285
	N239	N	0.037568	0.323455	0.407523
	N240	N	0.963604	0.416989	0.672863
	N241	N	0.038306	0.587559	0.670143
	N242	N	0.962878	0.587802	0.316756
	N243	N	0.037716	0.416193	0.314819
	N244	N	0.413895	0.683710	0.957453
	N245	N	0.586284	0.683598	0.031394
	N246	N	0.587899	0.323771	0.957429
	N247	N	0.415261	0.326337	0.031933
	N248	N	0.679506	0.965635	0.407315
	N249	N	0.678047	0.040199	0.578854
	N250	N	0.322110	0.965697	0.579621
	N251	N	0.321647	0.040160	0.408410
	N252	N	0.913252	0.465081	0.174298
	N253	N	0.085878	0.540185	0.172496
	N254	N	0.088276	0.466094	0.813376
	N255	N	0.916840	0.540769	0.816225
	N256	N	0.179718	0.916190	0.457283
	N257	N	0.176978	0.086928	0.532088
	N258	N	0.822913	0.087245	0.456058
	N259	N	0.821605	0.916204	0.530920
	N260	N	0.463148	0.182014	0.910315
	N261	N	0.537594	0.183526	0.081012
	N262	N	0.462899	0.825945	0.081107
	N263	N	0.537057	0.825881	0.908205
	N264	N	0.462229	0.919777	0.172281
	N265	N	0.537595	0.090458	0.172248
	N266	N	0.462731	0.090269	0.817215
	N267	N	0.536742	0.918387	0.814999
	N268	N	0.912842	0.182124	0.457271
	N269	N	0.085372	0.180636	0.531148
	N270	N	0.087417	0.823072	0.457609
	N271	N	0.914813	0.824347	0.531635
	N272	N	0.180834	0.466280	0.906699
	N273	N	0.176779	0.541240	0.076939
	N274	N	0.821380	0.465068	0.079893
	N275	N	0.823003	0.540983	0.908590
	O276	O	-0.038109	0.024670	-0.082241
	H277	H	-0.040130	0.018077	-0.074524
	H278	H	-0.036228	0.017765	-0.081804
	O279	O	0.507328	0.530272	0.421377
	H280	H	0.516072	0.516761	0.421561
	H281	H	0.505625	0.525780	0.435915
	O282	O	0.576685	0.448832	0.544434
	H283	H	0.580188	0.450293	0.542668
	H284	H	0.567854	0.441873	0.546971
	O285	O	0.045498	-0.060405	1.028517
	H286	H	0.040913	-0.054770	1.021016
	H287	H	0.051705	-0.059800	1.033084
	O288	O	0.500947	0.437200	0.381557
	H289	H	0.505711	0.435188	0.378215
	H290	H	0.503763	0.437809	0.381941
	O291	O	1.017485	1.007538	0.997090
	H292	H	1.013653	1.007366	0.985958
	H293	H	1.023976	1.016709	0.996228
	O294	O	1.052947	0.949045	1.013847
	H295	H	1.053689	0.957236	1.026771
	H296	H	1.049920	0.948408	1.007184
	O297	O	0.932603	0.036719	0.999536
	H298	H	0.935446	0.029344	0.997431
	H299	H	0.933968	0.026750	0.999813
	O300	O	0.545939	0.603626	0.454424
	H301	H	0.555319	0.591797	0.465550
	H302	H	0.543501	0.603690	0.457609
	O303	O	0.939068	-0.023014	0.041045
	H304	H	0.946170	-0.027100	0.050285
	H305	H	0.944077	-0.030516	0.047176
	O306	O	0.011113	1.073059	1.016580
	H307	H	0.017695	1.066986	1.018905
	H308	H	0.016319	1.076202	1.013669
	O309	O	0.521087	0.447396	0.537592
	H310	H	0.524314	0.449024	0.533875
	H311	H	0.515886	0.448312	0.533831
	O312	O	1.046709	-0.033716	0.941346
	H313	H	1.049375	-0.028956	0.936693
	H314	H	1.050809	-0.039677	0.938248
	O315	O	0.646947	0.507861	0.494349
	H316	H	0.662507	0.514045	0.491221
	H317	H	0.630893	0.511605	0.498305
	O318	O	-0.073666	1.029783	0.877484
	H319	H	-0.085149	1.040449	0.873284
	H320	H	-0.067208	1.025621	0.877420
	O321	O	1.000557	1.046448	0.991072
	H322	H	1.001505	1.048539	0.982348
	H323	H	0.993587	1.046437	0.991781
	O324	O	0.493616	0.516508	0.449998
	H325	H	0.485336	0.511390	0.440361
	H326	H	0.495012	0.522255	0.448748
	O327	O	0.518475	0.489158	0.463038
	H328	H	0.524085	0.486950	0.455745
	H329	H	0.509999	0.482470	0.460667
	O330	O	0.978485	-0.019785	1.052015
	H331	H	0.982288	-0.024723	1.065323
	H332	H	0.985907	-0.014837	1.055378
	O333	O	1.007913	1.057233	-0.146858
	H334	H	1.002021	1.057547	-0.147824
	H335	H	1.000491	1.070478	-0.161361
	O336	O	0.507075	0.595840	0.526415
	H337	H	0.491233	0.596022	0.523700
	H338	H	0.509976	0.603803	0.530346
	O339	O	0.578697	0.507355	0.417041
	H340	H	0.596728	0.512410	0.409061
	H341	H	0.578813	0.502962	0.414623
	O342	O	-0.047728	0.901425	0.028838
	H343	H	-0.064134	0.907309	0.031959
	H344	H	-0.043234	0.908349	0.026625
	O345	O	0.020858	0.002412	0.030017
	H346	H	0.022285	-0.005996	0.029301
	H347	H	0.022387	-0.002343	0.030467
	O348	O	0.421667	0.622989	0.462884
	H349	H	0.415578	0.627356	0.465415
	H350	H	0.422796	0.620028	0.449780
	O351	O	0.530592	0.551816	0.474528
	H352	H	0.530821	0.546625	0.467698
	H353	H	0.539369	0.546804	0.474347
	O354	O	0.501828	0.433589	0.452439
	H355	H	0.511643	0.442642	0.453739
	H356	H	0.498324	0.436786	0.459619
	O357	O	0.505068	0.515625	0.519441
	H358	H	0.521749	0.523609	0.518118
	H359	H	0.486994	0.522122	0.515614
	O360	O	-0.012015	-0.022896	0.116556
	H361	H	-0.012825	-0.025971	0.121313
	H362	H	-0.014607	-0.027823	0.118255
	O363	O	0.343287	0.715203	0.769408
	H364	H	0.341652	0.711209	0.770049
	H365	H	0.345246	0.710205	0.778082
	O366	O	-0.055517	-0.068625	0.988666
	H367	H	-0.054713	-0.074477	0.981261
	H368	H	-0.050343	-0.058669	0.988750
	O369	O	0.388227	0.503212	0.516977
	H370	H	0.375722	0.504947	0.514872
	H371	H	0.396302	0.513851	0.515279
