data_Molecule from HDF5

_cell_length_a		16.246186
_cell_length_b		16.190561
_cell_length_c		16.298388
_cell_angle_alpha	90.046223
_cell_angle_beta	90.252012
_cell_angle_gamma	89.554453
_symmetry_space_group_name_H-M	'P 1'
_symmetry_Int_Tables_number		1

loop_
	_symmetry_equiv_pos_as_xyz
	x,y,z

loop_
	_atom_site_label
	_atom_site_type_symbol
	_atom_site_fract_x
	_atom_site_fract_y
	_atom_site_fract_z
	H0	H	0.409868	0.840402	0.713766
	H1	H	0.605365	0.169457	0.715317
	H2	H	0.607320	0.840945	0.284609
	H3	H	0.405381	0.169479	0.286048
	H4	H	0.719081	0.405729	0.833964
	H5	H	0.722559	0.604933	0.160848
	H6	H	0.288131	0.606000	0.836004
	H7	H	0.292991	0.407026	0.162915
	H8	H	0.841911	0.720465	0.400217
	H9	H	0.170902	0.715392	0.596065
	H10	H	0.840648	0.292091	0.594959
	H11	H	0.169273	0.288487	0.399967
	H12	H	0.841353	0.406500	0.712486
	H13	H	0.169570	0.601553	0.714087
	H14	H	0.841495	0.605486	0.282915
	H15	H	0.169246	0.403871	0.285423
	H16	H	0.403585	0.721649	0.835229
	H17	H	0.603366	0.718212	0.163008
	H18	H	0.604984	0.287735	0.836003
	H19	H	0.408498	0.292680	0.162762
	H20	H	0.719482	0.839576	0.402906
	H21	H	0.719589	0.169098	0.597987
	H22	H	0.294697	0.839769	0.598360
	H23	H	0.289638	0.168423	0.400284
	H24	H	0.907221	0.340624	0.212932
	H25	H	0.103882	0.668682	0.214137
	H26	H	0.105021	0.340435	0.784785
	H27	H	0.902861	0.669159	0.782877
	H28	H	0.222279	0.904005	0.335526
	H29	H	0.219056	0.101472	0.662931
	H30	H	0.789056	0.103501	0.335745
	H31	H	0.794294	0.905652	0.662848
	H32	H	0.341999	0.221226	0.900541
	H33	H	0.670037	0.218537	0.099074
	H34	H	0.340431	0.792954	0.097171
	H35	H	0.668713	0.789579	0.902248
	H36	H	0.341984	0.906703	0.215232
	H37	H	0.669401	0.103707	0.216766
	H38	H	0.343077	0.108099	0.782100
	H39	H	0.669357	0.904102	0.787386
	H40	H	0.905255	0.218732	0.334548
	H41	H	0.103595	0.218284	0.662000
	H42	H	0.104260	0.789661	0.334536
	H43	H	0.911605	0.793126	0.663121
	H44	H	0.220899	0.340224	0.900671
	H45	H	0.217716	0.670014	0.096478
	H46	H	0.793230	0.340087	0.095812
	H47	H	0.788843	0.668779	0.897753
	H48	H	0.408843	0.118856	0.580251
	H49	H	0.593264	0.891576	0.587502
	H50	H	0.583652	0.117906	0.408189
	H51	H	0.422344	0.889630	0.406878
	H52	H	0.599215	0.412369	0.114503
	H53	H	0.599863	0.600691	0.880148
	H54	H	0.414319	0.597332	0.113739
	H55	H	0.408653	0.421609	0.883718
	H56	H	0.118143	0.585738	0.410262
	H57	H	0.884964	0.608098	0.596121
	H58	H	0.122121	0.403396	0.586127
	H59	H	0.888014	0.407433	0.408055
	H60	H	0.117965	0.419193	0.588917
	H61	H	0.891527	0.600238	0.581486
	H62	H	0.125910	0.595756	0.394317
	H63	H	0.890466	0.418153	0.406953
	H64	H	0.412614	0.601671	0.116188
	H65	H	0.598284	0.593025	0.882978
	H66	H	0.601096	0.412444	0.114935
	H67	H	0.421788	0.410783	0.884614
	H68	H	0.604354	0.121190	0.419920
	H69	H	0.610909	0.884794	0.590654
	H70	H	0.403291	0.127081	0.600528
	H71	H	0.410176	0.887381	0.411595
	H72	H	0.909587	0.620325	0.080538
	H73	H	0.099023	0.389987	0.086173
	H74	H	0.091180	0.617830	0.912455
	H75	H	0.913178	0.388633	0.908307
	H76	H	0.110971	0.920155	0.615449
	H77	H	0.099614	0.091729	0.382841
	H78	H	0.916952	0.099947	0.614358
	H79	H	0.922126	0.913226	0.385388
	H80	H	0.622465	0.089778	0.902614
	H81	H	0.391388	0.097417	0.087370
	H82	H	0.620706	0.911816	0.090600
	H83	H	0.391758	0.919951	0.911466
	H84	H	0.622193	0.913901	0.095492
	H85	H	0.388081	0.095471	0.098359
	H86	H	0.625390	0.103820	0.905497
	H87	H	0.386101	0.916421	0.897108
	H88	H	0.909235	0.101275	0.617372
	H89	H	0.094428	0.096427	0.383238
	H90	H	0.088941	0.910747	0.611263
	H91	H	0.909286	0.903279	0.377821
	H92	H	0.106247	0.624349	0.908235
	H93	H	0.107136	0.384608	0.093016
	H94	H	0.907615	0.625785	0.097819
	H95	H	0.908810	0.385021	0.902032
	H96	H	0.424941	0.120743	0.596131
	H97	H	0.598006	0.885355	0.605175
	H98	H	0.602811	0.126437	0.396694
	H99	H	0.412850	0.884978	0.399792
	H100	H	0.599927	0.413914	0.115095
	H101	H	0.592898	0.599192	0.883506
	H102	H	0.409583	0.597038	0.115598
	H103	H	0.406615	0.406320	0.878411
	H104	H	0.124226	0.605516	0.412234
	H105	H	0.889826	0.590230	0.596875
	H106	H	0.125615	0.410074	0.601081
	H107	H	0.886225	0.412345	0.397680
	H108	H	0.924180	0.618848	0.092131
	H109	H	0.096158	0.387079	0.096779
	H110	H	0.094288	0.623747	0.896898
	H111	H	0.916834	0.387802	0.901365
	H112	H	0.106493	0.896627	0.620673
	H113	H	0.100971	0.098104	0.379491
	H114	H	0.911702	0.093383	0.613813
	H115	H	0.905103	0.920478	0.382629
	H116	H	0.619479	0.095230	0.915985
	H117	H	0.387343	0.105958	0.093297
	H118	H	0.622951	0.908907	0.094269
	H119	H	0.386311	0.905574	0.907445
	C120	C	0.385170	0.013348	0.620732
	C121	C	0.628682	0.996365	0.622429
	C122	C	0.626340	0.012984	0.379526
	C123	C	0.384754	0.996103	0.377540
	C124	C	0.628177	0.383369	0.006844
	C125	C	0.626576	0.626636	0.990011
	C126	C	0.382702	0.628011	0.007208
	C127	C	0.384853	0.384680	0.990717
	C128	C	0.014477	0.625697	0.376689
	C129	C	0.997362	0.626479	0.620143
	C130	C	0.013439	0.382671	0.620008
	C131	C	0.996583	0.382586	0.376113
	C132	C	0.884943	0.513333	0.119067
	C133	C	0.128187	0.495958	0.120668
	C134	C	0.126883	0.513456	0.877151
	C135	C	0.883591	0.496471	0.875646
	C136	C	0.129937	0.880920	0.507297
	C137	C	0.126685	0.124518	0.489959
	C138	C	0.883252	0.126847	0.507250
	C139	C	0.884982	0.883386	0.490271
	C140	C	0.514704	0.126537	0.878492
	C141	C	0.497108	0.127496	0.122249
	C142	C	0.513446	0.883361	0.121749
	C143	C	0.496528	0.883994	0.878139
	C144	C	0.388987	0.889562	0.675876
	C145	C	0.625808	0.120098	0.677345
	C146	C	0.626469	0.889841	0.323258
	C147	C	0.385775	0.120196	0.323306
	C148	C	0.682144	0.385155	0.883371
	C149	C	0.683579	0.624876	0.112595
	C150	C	0.326437	0.626053	0.884581
	C151	C	0.330269	0.387067	0.113733
	C152	C	0.890666	0.681903	0.379580
	C153	C	0.121461	0.679086	0.617207
	C154	C	0.889847	0.329111	0.615885
	C155	C	0.120118	0.326295	0.379273
	C156	C	0.890327	0.385824	0.674498
	C157	C	0.120919	0.622666	0.675791
	C158	C	0.890656	0.625047	0.321190
	C159	C	0.120027	0.383451	0.321864
	C160	C	0.383868	0.683754	0.884292
	C161	C	0.623944	0.681007	0.113621
	C162	C	0.625276	0.326814	0.884337
	C163	C	0.388356	0.330469	0.113934
	C164	C	0.682422	0.889189	0.381824
	C165	C	0.682526	0.120045	0.618973
	C166	C	0.331793	0.889246	0.618510
	C167	C	0.328244	0.119673	0.380121
	C168	C	0.887286	0.389458	0.174504
	C169	C	0.124157	0.620197	0.175641
	C170	C	0.125334	0.389697	0.822136
	C171	C	0.884547	0.620160	0.820926
	C172	C	0.184472	0.883644	0.384262
	C173	C	0.181388	0.122124	0.613690
	C174	C	0.827263	0.123816	0.384259
	C175	C	0.831250	0.885075	0.613823
	C176	C	0.391013	0.183262	0.879960
	C177	C	0.620830	0.181278	0.119819
	C178	C	0.389937	0.829747	0.118170
	C179	C	0.620088	0.827830	0.881955
	C180	C	0.390430	0.886479	0.176759
	C181	C	0.620696	0.124413	0.178224
	C182	C	0.391653	0.126909	0.821045
	C183	C	0.620211	0.884645	0.824574
	C184	C	0.884863	0.181431	0.383718
	C185	C	0.123832	0.180002	0.613251
	C186	C	0.126025	0.826776	0.383702
	C187	C	0.889872	0.829160	0.613650
	C188	C	0.182825	0.389554	0.879900
	C189	C	0.180963	0.620656	0.117651
	C190	C	0.830053	0.389446	0.116796
	C191	C	0.827616	0.620100	0.878302
	C192	C	0.406187	0.099843	0.598824
	C193	C	0.607113	0.909531	0.600722
	C194	C	0.603459	0.099599	0.401776
	C195	C	0.408243	0.909875	0.399613
	C196	C	0.606463	0.406148	0.092633
	C197	C	0.603821	0.604171	0.904257
	C198	C	0.405619	0.605476	0.093020
	C199	C	0.406173	0.406409	0.904465
	C200	C	0.100511	0.602462	0.398875
	C201	C	0.911159	0.605580	0.598095
	C202	C	0.099621	0.404345	0.598251
	C203	C	0.910550	0.405783	0.397805
	C204	C	0.907063	0.599450	0.096836
	C205	C	0.106884	0.409829	0.098492
	C206	C	0.103775	0.599740	0.899263
	C207	C	0.906361	0.409554	0.897392
	C208	C	0.108515	0.902604	0.593487
	C209	C	0.104693	0.102268	0.404124
	C210	C	0.905918	0.104775	0.592924
	C211	C	0.905939	0.905726	0.404146
	C212	C	0.600277	0.103163	0.901349
	C213	C	0.411152	0.105822	0.099608
	C214	C	0.599759	0.905114	0.100050
	C215	C	0.410389	0.907417	0.899003
	Zn216	Zn	0.506419	0.005016	0.749932
	Zn217	Zn	0.505787	0.005046	0.250181
	Zn218	Zn	0.756442	0.505138	-0.002507
	Zn219	Zn	0.255611	0.505109	-0.001121
	Zn220	Zn	0.006359	0.754616	0.498164
	Zn221	Zn	0.005178	0.254500	0.497690
	Zn222	Zn	0.005111	0.505063	0.748523
	Zn223	Zn	0.005896	0.504309	0.248137
	Zn224	Zn	0.504596	0.755853	-0.001077
	Zn225	Zn	0.505483	0.255281	-0.000204
	Zn226	Zn	0.756004	0.004163	0.499792
	Zn227	Zn	0.257061	0.003822	0.499308
	N228	N	0.421650	0.967756	0.677511
	N229	N	0.593173	0.041973	0.679662
	N230	N	0.592460	0.967959	0.321589
	N231	N	0.420547	0.042391	0.321830
	N232	N	0.684225	0.419606	0.960671
	N233	N	0.685220	0.591771	0.034800
	N234	N	0.325519	0.592188	0.961929
	N235	N	0.327985	0.420074	0.035931
	N236	N	0.968400	0.682638	0.413293
	N237	N	0.043854	0.681550	0.583228
	N238	N	0.967705	0.326904	0.582867
	N239	N	0.042255	0.325466	0.412243
	N240	N	0.968204	0.418573	0.677015
	N241	N	0.042653	0.590735	0.677790
	N242	N	0.968564	0.590818	0.319380
	N243	N	0.042383	0.418021	0.319994
	N244	N	0.418272	0.684974	0.961590
	N245	N	0.589364	0.682263	0.036381
	N246	N	0.592660	0.325370	0.962146
	N247	N	0.421349	0.328970	0.036381
	N248	N	0.682519	0.967003	0.416058
	N249	N	0.684547	0.041882	0.585799
	N250	N	0.329373	0.967142	0.584868
	N251	N	0.327413	0.041471	0.413008
	N252	N	0.920828	0.467371	0.176030
	N253	N	0.092124	0.541713	0.177786
	N254	N	0.091288	0.467744	0.820375
	N255	N	0.918623	0.542066	0.819306
	N256	N	0.187290	0.916419	0.462188
	N257	N	0.183192	0.088140	0.536182
	N258	N	0.825943	0.090784	0.462085
	N259	N	0.828029	0.918117	0.536054
	N260	N	0.468318	0.183179	0.915053
	N261	N	0.543118	0.183336	0.085894
	N262	N	0.467576	0.827885	0.084756
	N263	N	0.542075	0.827208	0.914456
	N264	N	0.468458	0.918929	0.179147
	N265	N	0.542711	0.091646	0.179942
	N266	N	0.469305	0.092484	0.819880
	N267	N	0.542544	0.919170	0.822278
	N268	N	0.918892	0.183445	0.461108
	N269	N	0.090772	0.181875	0.535371
	N270	N	0.092961	0.824965	0.461219
	N271	N	0.922547	0.828049	0.535833
	N272	N	0.183948	0.467666	0.913338
	N273	N	0.183570	0.542729	0.084174
	N274	N	0.828471	0.467353	0.083006
	N275	N	0.826810	0.541941	0.911508
	O276	O	0.012405	-0.047217	-0.033080
	H277	H	0.009595	-0.047434	-0.038390
	H278	H	0.007670	-0.059177	-0.035840
	O279	O	0.495739	0.500542	0.497568
	H280	H	0.503494	0.499871	0.496890
	H281	H	0.499019	0.492720	0.502901
	O282	O	0.529417	0.559979	0.531420
	H283	H	0.533777	0.564353	0.541522
	H284	H	0.518762	0.557222	0.524941
	O285	O	0.945547	0.026894	0.934591
	H286	H	0.945232	0.024604	0.940047
	H287	H	0.944343	0.027695	0.928115
	O288	O	1.053804	-0.009424	-0.025085
	H289	H	1.057398	-0.015800	-0.026691
	H290	H	1.062970	-0.013773	-0.020817
	O291	O	0.461840	0.498626	0.524987
	H292	H	0.462099	0.495320	0.527339
	H293	H	0.469946	0.505527	0.512978
	O294	O	1.037408	-0.013860	1.080979
	H295	H	1.036209	-0.016902	1.090680
	H296	H	1.026838	-0.010948	1.085247
	O297	O	-0.131696	0.090064	-0.041795
	H298	H	-0.135789	0.096054	-0.040895
	H299	H	-0.126806	0.089128	-0.042064
	O300	O	0.476147	0.538409	0.373436
	H301	H	0.470954	0.537744	0.382643
	H302	H	0.477074	0.537733	0.370761
	O303	O	0.950460	0.068473	0.047407
	H304	H	0.952386	0.071172	0.045366
	H305	H	0.954912	0.068710	0.048113
	O306	O	0.999695	-0.007160	-0.037287
	H307	H	1.002553	-0.002409	-0.035291
	H308	H	0.994578	-0.007294	-0.046511
	O309	O	0.032918	0.019266	0.996623
	H310	H	0.032841	0.022977	0.999986
	H311	H	0.024661	0.016280	0.990906
	O312	O	0.988064	0.950372	0.924662
	H313	H	0.975620	0.967629	0.915598
	H314	H	0.989737	0.955207	0.931052
	O315	O	0.456419	0.522690	0.452273
	H316	H	0.455374	0.533677	0.444518
	H317	H	0.449789	0.525859	0.447687
	O318	O	0.492174	0.493170	0.426237
	H319	H	0.491513	0.498995	0.422377
	H320	H	0.486046	0.494954	0.425172
	O321	O	0.074325	1.006036	0.977813
	H322	H	0.077198	1.004952	0.983950
	H323	H	0.066415	1.005768	0.981028
	O324	O	0.563275	0.409240	0.457850
	H325	H	0.561592	0.404379	0.441900
	H326	H	0.565614	0.404596	0.468651
	O327	O	0.525932	0.485333	0.457373
	H328	H	0.527230	0.495878	0.456730
	H329	H	0.533268	0.477887	0.464144
	O330	O	0.466117	0.574612	0.459492
	H331	H	0.459835	0.580753	0.470696
	H332	H	0.468225	0.572212	0.467598
	O333	O	0.552053	0.488040	0.535070
	H334	H	0.554965	0.485364	0.532126
	H335	H	0.547583	0.485617	0.543311
	O336	O	0.440857	0.433653	0.474704
	H337	H	0.436611	0.428929	0.461853
	H338	H	0.445566	0.436817	0.462424
	O339	O	1.067310	1.005521	0.007579
	H340	H	1.069836	0.997112	0.005688
	H341	H	1.078080	1.008877	0.008384
	O342	O	0.529525	0.504692	0.604284
	H343	H	0.529721	0.508330	0.604226
	H344	H	0.522746	0.500776	0.613447
	O345	O	0.524881	0.533470	0.497377
	H346	H	0.528374	0.528912	0.499168
	H347	H	0.535358	0.528006	0.492167
	O348	O	-0.109235	0.044233	-0.026286
	H349	H	-0.106968	0.040402	-0.017332
	H350	H	-0.100193	0.047192	-0.031525
	O351	O	-0.054738	1.022491	1.039127
	H352	H	-0.062449	1.020617	1.034967
	H353	H	-0.052696	1.028008	1.034231
	O354	O	0.516587	0.429085	0.503583
	H355	H	0.509913	0.441013	0.500541
	H356	H	0.515736	0.426998	0.499429
	O357	O	-0.420737	1.461895	1.470699
	H358	H	-0.420749	1.463803	1.464274
	H359	H	-0.420485	1.456363	1.462776
