data_Molecule from HDF5

_cell_length_a		16.274302
_cell_length_b		16.169081
_cell_length_c		16.380410
_cell_angle_alpha	90.064418
_cell_angle_beta	90.099117
_cell_angle_gamma	90.044620
_symmetry_space_group_name_H-M	'P 1'
_symmetry_Int_Tables_number		1

loop_
	_symmetry_equiv_pos_as_xyz
	x,y,z

loop_
	_atom_site_label
	_atom_site_type_symbol
	_atom_site_fract_x
	_atom_site_fract_y
	_atom_site_fract_z
	H0	H	0.394391	0.839674	0.717988
	H1	H	0.594175	0.167937	0.719581
	H2	H	0.593404	0.840601	0.287930
	H3	H	0.393337	0.168315	0.288461
	H4	H	0.711038	0.403204	0.841599
	H5	H	0.710471	0.604430	0.166723
	H6	H	0.277369	0.603924	0.842036
	H7	H	0.279587	0.405222	0.166959
	H8	H	0.829007	0.715855	0.407756
	H9	H	0.157905	0.718829	0.601037
	H10	H	0.830493	0.289804	0.601239
	H11	H	0.157951	0.291132	0.407745
	H12	H	0.831397	0.403318	0.719531
	H13	H	0.157378	0.605531	0.720711
	H14	H	0.831871	0.605934	0.286220
	H15	H	0.157625	0.403294	0.288681
	H16	H	0.396995	0.717102	0.840039
	H17	H	0.592707	0.719382	0.166852
	H18	H	0.592653	0.288738	0.841046
	H19	H	0.396099	0.289224	0.166919
	H20	H	0.706815	0.839791	0.404864
	H21	H	0.707332	0.169293	0.602077
	H22	H	0.279300	0.840034	0.601337
	H23	H	0.279670	0.169606	0.405547
	H24	H	0.895057	0.339999	0.218301
	H25	H	0.093645	0.669015	0.218177
	H26	H	0.094039	0.340685	0.788631
	H27	H	0.894240	0.668732	0.789749
	H28	H	0.209724	0.904080	0.340953
	H29	H	0.209390	0.103828	0.666214
	H30	H	0.777759	0.103783	0.341164
	H31	H	0.777652	0.905146	0.665924
	H32	H	0.330097	0.217260	0.906797
	H33	H	0.658280	0.217322	0.101180
	H34	H	0.330324	0.789387	0.101281
	H35	H	0.658886	0.791505	0.906271
	H36	H	0.330702	0.903474	0.219259
	H37	H	0.656373	0.106407	0.221611
	H38	H	0.331253	0.104298	0.787313
	H39	H	0.656523	0.903141	0.786577
	H40	H	0.895301	0.218992	0.340270
	H41	H	0.092490	0.219313	0.666137
	H42	H	0.090657	0.789589	0.340845
	H43	H	0.896210	0.790965	0.667527
	H44	H	0.205904	0.338653	0.907362
	H45	H	0.209175	0.668696	0.102640
	H46	H	0.779832	0.339332	0.102337
	H47	H	0.781275	0.669069	0.906954
	H48	H	0.395660	0.123751	0.596559
	H49	H	0.584084	0.887683	0.596833
	H50	H	0.582581	0.123140	0.404225
	H51	H	0.407362	0.888124	0.405970
	H52	H	0.589795	0.413618	0.119708
	H53	H	0.583918	0.603313	0.887492
	H54	H	0.400957	0.602948	0.121547
	H55	H	0.389465	0.404664	0.883443
	H56	H	0.111595	0.601330	0.410883
	H57	H	0.873263	0.599222	0.609542
	H58	H	0.109634	0.415050	0.597564
	H59	H	0.875918	0.407196	0.408599
	H60	H	0.111659	0.411957	0.599565
	H61	H	0.876913	0.605374	0.589674
	H62	H	0.109114	0.594111	0.414208
	H63	H	0.879395	0.414122	0.415278
	H64	H	0.396384	0.592688	0.119230
	H65	H	0.594922	0.596994	0.886221
	H66	H	0.585138	0.412581	0.118102
	H67	H	0.399932	0.423749	0.891649
	H68	H	0.580703	0.118052	0.418089
	H69	H	0.584751	0.888332	0.593604
	H70	H	0.405661	0.122324	0.602774
	H71	H	0.403693	0.890728	0.417390
	H72	H	0.902414	0.624880	0.106991
	H73	H	0.086458	0.387010	0.097599
	H74	H	0.084541	0.621418	0.910123
	H75	H	0.901407	0.385845	0.907720
	H76	H	0.097777	0.922042	0.619413
	H77	H	0.090366	0.096231	0.387043
	H78	H	0.892546	0.102784	0.622994
	H79	H	0.894669	0.910900	0.385877
	H80	H	0.609348	0.095514	0.916539
	H81	H	0.377730	0.102142	0.091385
	H82	H	0.608942	0.914594	0.095088
	H83	H	0.375485	0.902030	0.911903
	H84	H	0.611251	0.914291	0.100421
	H85	H	0.380179	0.088622	0.095275
	H86	H	0.610251	0.090787	0.905893
	H87	H	0.380878	0.916975	0.916695
	H88	H	0.899353	0.087219	0.616022
	H89	H	0.085446	0.094902	0.388706
	H90	H	0.075327	0.915753	0.613934
	H91	H	0.901889	0.914289	0.390269
	H92	H	0.085747	0.620661	0.914384
	H93	H	0.087657	0.386917	0.097098
	H94	H	0.910926	0.617464	0.092090
	H95	H	0.905419	0.387895	0.912162
	H96	H	0.405548	0.118662	0.591025
	H97	H	0.587087	0.886813	0.595537
	H98	H	0.593410	0.123291	0.413458
	H99	H	0.395698	0.885107	0.409191
	H100	H	0.588016	0.409334	0.120501
	H101	H	0.585113	0.590713	0.891218
	H102	H	0.407845	0.594169	0.116657
	H103	H	0.411234	0.404197	0.889837
	H104	H	0.111410	0.594563	0.405997
	H105	H	0.882579	0.585799	0.595200
	H106	H	0.110368	0.411319	0.595404
	H107	H	0.877826	0.416622	0.406029
	H108	H	0.893269	0.622943	0.090590
	H109	H	0.086870	0.386939	0.098195
	H110	H	0.089039	0.622611	0.910591
	H111	H	0.899705	0.386800	0.913291
	H112	H	0.090755	0.899625	0.623985
	H113	H	0.086565	0.100268	0.386880
	H114	H	0.910445	0.102231	0.617828
	H115	H	0.901558	0.906089	0.387085
	H116	H	0.612802	0.101881	0.907871
	H117	H	0.374465	0.098367	0.104510
	H118	H	0.611180	0.909820	0.097044
	H119	H	0.376013	0.914404	0.901360
	C120	C	0.373252	0.012947	0.624765
	C121	C	0.614799	0.995765	0.624945
	C122	C	0.614499	0.012731	0.382579
	C123	C	0.372729	0.996292	0.382399
	C124	C	0.616058	0.382777	0.011855
	C125	C	0.616849	0.626164	0.995512
	C126	C	0.372610	0.625846	0.011957
	C127	C	0.372152	0.382030	0.995798
	C128	C	0.002246	0.625554	0.382334
	C129	C	0.985823	0.626054	0.626573
	C130	C	0.002481	0.383228	0.625507
	C131	C	0.985802	0.383051	0.382051
	C132	C	0.873390	0.512713	0.125334
	C133	C	0.116219	0.495802	0.126103
	C134	C	0.115113	0.512693	0.882922
	C135	C	0.873097	0.495562	0.882670
	C136	C	0.116411	0.882653	0.511891
	C137	C	0.116229	0.126314	0.495080
	C138	C	0.871753	0.126170	0.511611
	C139	C	0.871331	0.882552	0.495692
	C140	C	0.502675	0.125213	0.881744
	C141	C	0.485567	0.125735	0.125735
	C142	C	0.502190	0.883454	0.125590
	C143	C	0.485538	0.882642	0.881531
	C144	C	0.374595	0.888824	0.679867
	C145	C	0.613982	0.119177	0.681183
	C146	C	0.613030	0.889390	0.326549
	C147	C	0.373288	0.119678	0.326620
	C148	C	0.672451	0.383722	0.890109
	C149	C	0.672368	0.624269	0.118039
	C150	C	0.316436	0.623674	0.889884
	C151	C	0.317534	0.384656	0.118356
	C152	C	0.878642	0.679582	0.386051
	C153	C	0.109094	0.681444	0.622938
	C154	C	0.879312	0.327629	0.622099
	C155	C	0.108854	0.328181	0.386053
	C156	C	0.879801	0.384044	0.680932
	C157	C	0.108630	0.625180	0.682263
	C158	C	0.880016	0.624824	0.325734
	C159	C	0.108645	0.383854	0.326750
	C160	C	0.375276	0.680603	0.889249
	C161	C	0.613939	0.681579	0.118136
	C162	C	0.613564	0.326842	0.889513
	C163	C	0.375834	0.327288	0.118344
	C164	C	0.669566	0.889092	0.384727
	C165	C	0.670043	0.119862	0.622659
	C166	C	0.317444	0.889110	0.622160
	C167	C	0.317280	0.120091	0.384973
	C168	C	0.874656	0.389031	0.180473
	C169	C	0.114223	0.619724	0.180937
	C170	C	0.113352	0.389130	0.827426
	C171	C	0.874867	0.619556	0.828027
	C172	C	0.171659	0.884095	0.389532
	C173	C	0.171747	0.124365	0.617373
	C174	C	0.815994	0.124135	0.389477
	C175	C	0.816169	0.885134	0.617861
	C176	C	0.379137	0.179929	0.885553
	C177	C	0.608894	0.180774	0.122996
	C178	C	0.379200	0.827389	0.121977
	C179	C	0.609458	0.828234	0.885099
	C180	C	0.379310	0.884157	0.180663
	C181	C	0.608144	0.125227	0.182469
	C182	C	0.379655	0.123743	0.826285
	C183	C	0.608294	0.883682	0.825453
	C184	C	0.874340	0.181509	0.389159
	C185	C	0.113252	0.181474	0.617576
	C186	C	0.112709	0.827070	0.389373
	C187	C	0.874975	0.828140	0.618625
	C188	C	0.169286	0.388268	0.886192
	C189	C	0.171061	0.619738	0.123082
	C190	C	0.817620	0.388806	0.122693
	C191	C	0.818482	0.619746	0.886056
	C192	C	0.395812	0.099366	0.603281
	C193	C	0.591983	0.909746	0.602069
	C194	C	0.592113	0.099146	0.405276
	C195	C	0.395558	0.910204	0.404370
	C196	C	0.593842	0.405161	0.097253
	C197	C	0.594590	0.603567	0.910284
	C198	C	0.395167	0.603291	0.097024
	C199	C	0.393798	0.404331	0.910251
	C200	C	0.088423	0.603105	0.403898
	C201	C	0.899822	0.603542	0.604686
	C202	C	0.088340	0.405985	0.603795
	C203	C	0.899851	0.406009	0.403475
	C204	C	0.895814	0.599412	0.103190
	C205	C	0.093552	0.409221	0.104114
	C206	C	0.093012	0.599079	0.905133
	C207	C	0.895477	0.409112	0.904581
	C208	C	0.094371	0.905544	0.596932
	C209	C	0.093981	0.103875	0.409574
	C210	C	0.894079	0.103904	0.596918
	C211	C	0.892969	0.904066	0.410025
	C212	C	0.588603	0.102736	0.903687
	C213	C	0.399661	0.102929	0.103655
	C214	C	0.588168	0.906232	0.103924
	C215	C	0.399697	0.904743	0.903453
	Zn216	Zn	0.493905	0.003857	0.753022
	Zn217	Zn	0.493518	0.005011	0.254294
	Zn218	Zn	0.745566	0.504290	0.003963
	Zn219	Zn	0.243234	0.503942	0.004227
	Zn220	Zn	-0.006354	0.753676	0.504211
	Zn221	Zn	-0.006158	0.254811	0.503194
	Zn222	Zn	-0.006102	0.504192	0.754869
	Zn223	Zn	-0.005483	0.504142	0.253457
	Zn224	Zn	0.494501	0.755186	0.003708
	Zn225	Zn	0.494201	0.253345	0.003683
	Zn226	Zn	0.742459	0.004298	0.503899
	Zn227	Zn	0.245590	0.004583	0.503480
	N228	N	0.408707	0.966767	0.681360
	N229	N	0.580542	0.041079	0.682705
	N230	N	0.579448	0.967487	0.325060
	N231	N	0.407235	0.041808	0.324857
	N232	N	0.674087	0.417694	0.967203
	N233	N	0.674231	0.590572	0.040788
	N234	N	0.314449	0.590591	0.967173
	N235	N	0.315391	0.417985	0.041216
	N236	N	0.955757	0.679973	0.420656
	N237	N	0.031922	0.681788	0.588875
	N238	N	0.956703	0.327000	0.588313
	N239	N	0.031500	0.327602	0.419535
	N240	N	0.957314	0.418004	0.683099
	N241	N	0.030803	0.591593	0.684699
	N242	N	0.957869	0.591949	0.323302
	N243	N	0.030930	0.417613	0.324317
	N244	N	0.409677	0.682018	0.966040
	N245	N	0.579993	0.682831	0.041133
	N246	N	0.579225	0.326109	0.966238
	N247	N	0.409159	0.325602	0.040991
	N248	N	0.670186	0.966720	0.419001
	N249	N	0.670875	0.042057	0.588638
	N250	N	0.316434	0.967141	0.588705
	N251	N	0.316694	0.042326	0.418704
	N252	N	0.908595	0.466896	0.182146
	N253	N	0.080722	0.541588	0.182830
	N254	N	0.080407	0.467275	0.825532
	N255	N	0.908072	0.541246	0.825830
	N256	N	0.173910	0.917932	0.466643
	N257	N	0.173431	0.090459	0.540310
	N258	N	0.814212	0.090595	0.466624
	N259	N	0.813938	0.917996	0.540589
	N260	N	0.456737	0.181044	0.919160
	N261	N	0.531843	0.181303	0.088566
	N262	N	0.456780	0.826792	0.088672
	N263	N	0.532247	0.827482	0.919268
	N264	N	0.456812	0.918118	0.183151
	N265	N	0.530296	0.091679	0.184293
	N266	N	0.457339	0.090506	0.823827
	N267	N	0.530394	0.916716	0.823153
	N268	N	0.908649	0.182635	0.466082
	N269	N	0.079361	0.182644	0.540658
	N270	N	0.079053	0.825953	0.466369
	N271	N	0.908477	0.826186	0.541502
	N272	N	0.170438	0.466163	0.920331
	N273	N	0.172580	0.541581	0.090019
	N274	N	0.816655	0.466986	0.089342
	N275	N	0.817420	0.541843	0.919530
	O276	O	0.532362	0.494326	0.558539
	H277	H	0.528445	0.495898	0.559042
	H278	H	0.532101	0.501930	0.580650
	O279	O	0.534844	0.539225	0.538198
	H280	H	0.534279	0.542478	0.539294
	H281	H	0.532920	0.532867	0.530133
	O282	O	0.497389	0.503998	0.488204
	H283	H	0.491779	0.502071	0.482070
	H284	H	0.496093	0.501848	0.495460
	O285	O	0.469268	0.462518	1.486102
	H286	H	0.470214	0.459736	1.490178
	H287	H	0.472487	0.462945	1.490965
	O288	O	-0.047068	-0.015154	0.945142
	H289	H	-0.042959	-0.011761	0.940766
	H290	H	-0.039749	-0.016964	0.950792
	O291	O	-0.469121	0.492915	0.585376
	H292	H	-0.467023	0.494286	0.583259
	H293	H	-0.473353	0.503897	0.590293
	O294	O	0.528322	0.613647	0.518735
	H295	H	0.525442	0.614934	0.521707
	H296	H	0.539938	0.615050	0.522967
	O297	O	0.576867	0.556353	0.446209
	H298	H	0.577874	0.554429	0.452907
	H299	H	0.585487	0.562931	0.448263
	O300	O	0.506977	0.523509	0.478314
	H301	H	0.498179	0.529689	0.467630
	H302	H	0.500376	0.517792	0.476465
	O303	O	0.496572	0.486825	0.489792
	H304	H	0.496970	0.483601	0.495110
	H305	H	0.503777	0.490322	0.488303
	O306	O	1.019166	0.030728	0.932171
	H307	H	1.006959	0.018491	0.932836
	H308	H	1.022460	0.033541	0.920917
	O309	O	0.504379	0.523919	0.443959
	H310	H	0.503738	0.518971	0.439710
	H311	H	0.502873	0.510926	0.427968
	O312	O	0.492757	0.504562	0.536982
	H313	H	0.492122	0.514526	0.532476
	H314	H	0.495308	0.508027	0.552041
	O315	O	0.955624	-0.016025	0.921839
	H316	H	0.956573	-0.011035	0.922716
	H317	H	0.958623	-0.024232	0.920480
	O318	O	0.427448	-0.505236	-0.494567
	H319	H	0.425563	-0.511328	-0.494945
	H320	H	0.428411	-0.502086	-0.489403
	O321	O	1.004093	0.973599	-0.043450
	H322	H	1.002742	0.974819	-0.046946
	H323	H	1.008125	0.969817	-0.040099
	O324	O	1.016493	-0.004715	-0.033873
	H325	H	1.021581	0.000110	-0.036570
	H326	H	1.017625	0.002299	-0.034301
	O327	O	1.028695	0.995001	-0.037521
	H328	H	1.022314	0.998486	-0.039320
	H329	H	1.021703	0.996334	-0.032648
	O330	O	0.426798	0.568130	0.501237
	H331	H	0.417791	0.562375	0.497700
	H332	H	0.433100	0.568639	0.498345
	O333	O	0.454388	0.492692	0.406980
	H334	H	0.458599	0.498826	0.400875
	H335	H	0.451712	0.498394	0.399821
