data_Molecule from HDF5

_cell_length_a		16.238223
_cell_length_b		16.211849
_cell_length_c		16.342788
_cell_angle_alpha	90.279453
_cell_angle_beta	90.068560
_cell_angle_gamma	90.092758
_symmetry_space_group_name_H-M	'P 1'
_symmetry_Int_Tables_number		1

loop_
	_symmetry_equiv_pos_as_xyz
	x,y,z

loop_
	_atom_site_label
	_atom_site_type_symbol
	_atom_site_fract_x
	_atom_site_fract_y
	_atom_site_fract_z
	H0	H	0.413151	0.834786	0.708639
	H1	H	0.614412	0.161501	0.710164
	H2	H	0.615106	0.835159	0.277223
	H3	H	0.415482	0.162353	0.278808
	H4	H	0.730775	0.395251	0.833025
	H5	H	0.729146	0.598507	0.157202
	H6	H	0.298715	0.594359	0.831967
	H7	H	0.299303	0.399230	0.157634
	H8	H	0.850493	0.713103	0.397676
	H9	H	0.179192	0.714734	0.594856
	H10	H	0.850654	0.285879	0.592036
	H11	H	0.179604	0.286816	0.397391
	H12	H	0.851327	0.399278	0.709429
	H13	H	0.176735	0.602398	0.713828
	H14	H	0.850354	0.599058	0.279285
	H15	H	0.178060	0.399495	0.279274
	H16	H	0.414066	0.711392	0.830878
	H17	H	0.613899	0.716353	0.156108
	H18	H	0.611562	0.283355	0.831321
	H19	H	0.415454	0.283584	0.156907
	H20	H	0.729050	0.834903	0.394558
	H21	H	0.726445	0.163658	0.591291
	H22	H	0.299005	0.834857	0.590944
	H23	H	0.301572	0.163498	0.395645
	H24	H	0.914931	0.334726	0.209387
	H25	H	0.113678	0.663018	0.209762
	H26	H	0.114363	0.335557	0.778300
	H27	H	0.912969	0.662160	0.780392
	H28	H	0.227878	0.900261	0.330562
	H29	H	0.231662	0.099872	0.656357
	H30	H	0.799692	0.097890	0.331100
	H31	H	0.798191	0.900424	0.656989
	H32	H	0.349892	0.211215	0.896566
	H33	H	0.678210	0.211895	0.091429
	H34	H	0.349919	0.786107	0.089796
	H35	H	0.677191	0.781604	0.892827
	H36	H	0.351133	0.896884	0.209001
	H37	H	0.677294	0.099456	0.209116
	H38	H	0.350805	0.097722	0.778585
	H39	H	0.676645	0.896544	0.776970
	H40	H	0.916905	0.212990	0.331362
	H41	H	0.113408	0.213830	0.658273
	H42	H	0.112152	0.783568	0.331396
	H43	H	0.914479	0.785023	0.657485
	H44	H	0.225320	0.333129	0.898530
	H45	H	0.230399	0.661820	0.095487
	H46	H	0.800391	0.333510	0.092868
	H47	H	0.798671	0.661329	0.896940
	H48	H	0.426166	0.117325	0.598085
	H49	H	0.600539	0.885651	0.577275
	H50	H	0.605562	0.114519	0.403011
	H51	H	0.428756	0.883704	0.400059
	H52	H	0.607595	0.407277	0.110157
	H53	H	0.601899	0.588467	0.880371
	H54	H	0.430016	0.604160	0.110957
	H55	H	0.417636	0.401912	0.877160
	H56	H	0.129351	0.585025	0.402146
	H57	H	0.903887	0.587504	0.574994
	H58	H	0.127977	0.411263	0.579542
	H59	H	0.892681	0.401303	0.389299
	H60	H	0.132320	0.413475	0.595593
	H61	H	0.897776	0.581210	0.599635
	H62	H	0.132932	0.593276	0.397750
	H63	H	0.898181	0.398055	0.411539
	H64	H	0.408116	0.592685	0.115036
	H65	H	0.607233	0.593414	0.877491
	H66	H	0.605056	0.403594	0.111158
	H67	H	0.418047	0.406783	0.878530
	H68	H	0.610195	0.117144	0.400747
	H69	H	0.616906	0.879051	0.583365
	H70	H	0.431934	0.110205	0.580012
	H71	H	0.418161	0.882493	0.405819
	H72	H	0.920837	0.612977	0.080712
	H73	H	0.112253	0.379604	0.087459
	H74	H	0.104155	0.612942	0.910203
	H75	H	0.933791	0.383269	0.895982
	H76	H	0.107424	0.911435	0.609035
	H77	H	0.104872	0.090503	0.379491
	H78	H	0.917799	0.085526	0.608848
	H79	H	0.917335	0.904835	0.376398
	H80	H	0.629676	0.086572	0.901624
	H81	H	0.395997	0.095662	0.083367
	H82	H	0.628999	0.906723	0.079342
	H83	H	0.395117	0.905460	0.896323
	H84	H	0.630618	0.913081	0.088698
	H85	H	0.399489	0.084516	0.084783
	H86	H	0.632082	0.092019	0.898504
	H87	H	0.396545	0.902056	0.901529
	H88	H	0.928987	0.095646	0.609410
	H89	H	0.106946	0.096401	0.377582
	H90	H	0.105415	0.907114	0.609569
	H91	H	0.922836	0.910197	0.379998
	H92	H	0.112974	0.617238	0.903581
	H93	H	0.105259	0.380373	0.093704
	H94	H	0.915459	0.617892	0.092551
	H95	H	0.921219	0.384399	0.913384
	H96	H	0.413012	0.116945	0.581980
	H97	H	0.602079	0.879623	0.594890
	H98	H	0.606016	0.116078	0.397109
	H99	H	0.419196	0.879465	0.393645
	H100	H	0.609390	0.403599	0.112306
	H101	H	0.609417	0.586015	0.878742
	H102	H	0.427975	0.580148	0.105219
	H103	H	0.422047	0.403943	0.878203
	H104	H	0.130236	0.594760	0.407704
	H105	H	0.892733	0.605501	0.590789
	H106	H	0.134914	0.398172	0.589084
	H107	H	0.902001	0.418497	0.401562
	H108	H	0.929197	0.614438	0.091710
	H109	H	0.104370	0.382767	0.084575
	H110	H	0.102300	0.615609	0.898747
	H111	H	0.913843	0.377029	0.894157
	H112	H	0.110383	0.906948	0.611455
	H113	H	0.110440	0.091028	0.377516
	H114	H	0.914782	0.099924	0.614367
	H115	H	0.925111	0.902525	0.379144
	H116	H	0.631192	0.092604	0.905256
	H117	H	0.395244	0.090184	0.092861
	H118	H	0.633285	0.902682	0.088523
	H119	H	0.398610	0.908138	0.901314
	C120	C	0.393396	0.006904	0.615207
	C121	C	0.635623	0.989862	0.614843
	C122	C	0.636202	0.007540	0.371552
	C123	C	0.393292	0.990134	0.371619
	C124	C	0.635703	0.375908	0.003450
	C125	C	0.635459	0.619666	0.986049
	C126	C	0.392101	0.620174	0.002813
	C127	C	0.391555	0.375915	0.985873
	C128	C	0.022745	0.620251	0.373675
	C129	C	1.006148	0.621572	0.617596
	C130	C	0.023193	0.378512	0.616088
	C131	C	1.006269	0.377845	0.372839
	C132	C	0.892628	0.506839	0.117009
	C133	C	0.136283	0.489563	0.117419
	C134	C	0.134859	0.507135	0.874554
	C135	C	0.893144	0.489583	0.873370
	C136	C	0.136036	0.878450	0.502523
	C137	C	0.137177	0.122250	0.485584
	C138	C	0.892571	0.121232	0.502909
	C139	C	0.892403	0.877524	0.486371
	C140	C	0.522664	0.119339	0.872676
	C141	C	0.505421	0.119674	0.115264
	C142	C	0.522614	0.877742	0.114399
	C143	C	0.505028	0.876009	0.871028
	C144	C	0.393921	0.883678	0.670466
	C145	C	0.634325	0.112881	0.671694
	C146	C	0.635111	0.884051	0.315672
	C147	C	0.395271	0.113577	0.316644
	C148	C	0.691548	0.376387	0.881071
	C149	C	0.691080	0.618352	0.108461
	C150	C	0.336305	0.616023	0.880510
	C151	C	0.337199	0.378732	0.108849
	C152	C	0.899225	0.675202	0.376771
	C153	C	0.129552	0.677562	0.615532
	C154	C	0.899772	0.323469	0.613098
	C155	C	0.130049	0.323478	0.376305
	C156	C	0.900098	0.380037	0.671183
	C157	C	0.128659	0.621256	0.674192
	C158	C	0.899445	0.618660	0.317910
	C159	C	0.129414	0.379726	0.317769
	C160	C	0.394105	0.673929	0.879931
	C161	C	0.633984	0.677319	0.107762
	C162	C	0.632636	0.320501	0.880422
	C163	C	0.394627	0.321120	0.108320
	C164	C	0.691841	0.883999	0.373762
	C165	C	0.689862	0.114014	0.612432
	C166	C	0.337002	0.883792	0.612110
	C167	C	0.338789	0.114203	0.374706
	C168	C	0.894725	0.383413	0.171574
	C169	C	0.134181	0.613426	0.172495
	C170	C	0.133664	0.383913	0.817685
	C171	C	0.893623	0.612963	0.818202
	C172	C	0.190578	0.879641	0.379340
	C173	C	0.193467	0.120422	0.608036
	C174	C	0.837662	0.118629	0.380015
	C175	C	0.836410	0.880255	0.608464
	C176	C	0.399121	0.173931	0.875518
	C177	C	0.628875	0.174697	0.112157
	C178	C	0.399190	0.822963	0.111026
	C179	C	0.628145	0.819922	0.873077
	C180	C	0.399944	0.877961	0.170550
	C181	C	0.628492	0.118307	0.170372
	C182	C	0.399564	0.117358	0.817056
	C183	C	0.627914	0.876527	0.815072
	C184	C	0.895992	0.175696	0.380048
	C185	C	0.134677	0.177186	0.608922
	C186	C	0.132870	0.822036	0.379811
	C187	C	0.894334	0.822827	0.608868
	C188	C	0.188703	0.382632	0.877480
	C189	C	0.192158	0.613157	0.115610
	C190	C	0.837858	0.382826	0.113572
	C191	C	0.836747	0.612614	0.876122
	C192	C	0.416863	0.092551	0.593174
	C193	C	0.613092	0.903884	0.591909
	C194	C	0.613979	0.093622	0.393789
	C195	C	0.415300	0.904136	0.393681
	C196	C	0.613987	0.398326	0.088998
	C197	C	0.612947	0.596005	0.900810
	C198	C	0.415348	0.598588	0.088476
	C199	C	0.412901	0.397821	0.900235
	C200	C	0.108614	0.597640	0.395993
	C201	C	0.920543	0.598374	0.594997
	C202	C	0.109437	0.401214	0.594628
	C203	C	0.919820	0.399456	0.394295
	C204	C	0.915314	0.592941	0.094838
	C205	C	0.113799	0.403199	0.095161
	C206	C	0.112922	0.593038	0.897317
	C207	C	0.916154	0.403788	0.894919
	C208	C	0.114233	0.901634	0.587954
	C209	C	0.114247	0.099312	0.400310
	C210	C	0.914083	0.099915	0.588713
	C211	C	0.915259	0.899528	0.400659
	C212	C	0.608842	0.096928	0.895081
	C213	C	0.419135	0.096869	0.093299
	C214	C	0.608685	0.900763	0.092102
	C215	C	0.418999	0.898706	0.893182
	Zn216	Zn	0.514848	-0.001644	0.744126
	Zn217	Zn	0.514275	-0.001673	0.243453
	Zn218	Zn	0.764753	0.496879	-0.005426
	Zn219	Zn	0.263533	0.497977	-0.004560
	Zn220	Zn	0.014424	0.749219	0.495384
	Zn221	Zn	0.014657	0.250176	0.495003
	Zn222	Zn	0.014477	0.499340	0.745034
	Zn223	Zn	0.014250	0.498810	0.244866
	Zn224	Zn	0.514070	0.749437	-0.006455
	Zn225	Zn	0.513676	0.247848	-0.005975
	Zn226	Zn	0.763727	-0.000867	0.493563
	Zn227	Zn	0.265395	-0.000726	0.493249
	N228	N	0.428151	0.961253	0.672561
	N229	N	0.601241	0.034771	0.673169
	N230	N	0.600941	0.961580	0.314368
	N231	N	0.428515	0.035593	0.314667
	N232	N	0.693495	0.410151	0.958487
	N233	N	0.692285	0.583215	0.031554
	N234	N	0.335034	0.583252	0.958070
	N235	N	0.335017	0.411947	0.031723
	N236	N	0.976696	0.676297	0.410630
	N237	N	0.052273	0.677612	0.580774
	N238	N	0.977289	0.322640	0.579403
	N239	N	0.052336	0.322287	0.410165
	N240	N	0.978041	0.413306	0.673384
	N241	N	0.051041	0.587501	0.676040
	N242	N	0.977461	0.585185	0.315947
	N243	N	0.051626	0.412781	0.315752
	N244	N	0.427769	0.676726	0.957143
	N245	N	0.600295	0.678234	0.030605
	N246	N	0.598474	0.320095	0.957476
	N247	N	0.427742	0.319285	0.030815
	N248	N	0.692740	0.961812	0.407772
	N249	N	0.690853	0.036468	0.577882
	N250	N	0.336416	0.961382	0.578577
	N251	N	0.337451	0.036556	0.408443
	N252	N	0.927947	0.461455	0.173864
	N253	N	0.100284	0.535612	0.173824
	N254	N	0.100863	0.462072	0.815802
	N255	N	0.928159	0.535640	0.816486
	N256	N	0.192411	0.914205	0.456425
	N257	N	0.195204	0.086920	0.530452
	N258	N	0.835264	0.085540	0.457229
	N259	N	0.835091	0.913591	0.530992
	N260	N	0.476654	0.175261	0.909311
	N261	N	0.551273	0.175370	0.078348
	N262	N	0.476573	0.822784	0.076883
	N263	N	0.550563	0.819473	0.907042
	N264	N	0.477855	0.911445	0.172786
	N265	N	0.550631	0.084809	0.172455
	N266	N	0.477531	0.084239	0.815338
	N267	N	0.550535	0.910827	0.813784
	N268	N	0.929382	0.177528	0.457458
	N269	N	0.100453	0.178416	0.531906
	N270	N	0.100072	0.820705	0.457438
	N271	N	0.928157	0.820886	0.531864
	N272	N	0.189681	0.460217	0.912065
	N273	N	0.193622	0.535139	0.082145
	N274	N	0.836404	0.460666	0.080269
	N275	N	0.836419	0.535055	0.909779
	O276	O	0.966348	0.986346	0.056701
	H277	H	0.962485	0.980826	0.063961
	H278	H	0.965261	0.981328	0.051133
	O279	O	-0.034350	-0.026314	1.071042
	H280	H	-0.030472	-0.022183	1.082970
	H281	H	-0.037529	-0.029179	1.063843
	O282	O	-0.508993	0.529436	0.501134
	H283	H	-0.517818	0.530970	0.490414
	H284	H	-0.515333	0.528687	0.497876
	O285	O	0.599853	0.451937	0.456596
	H286	H	0.602933	0.453558	0.460424
	H287	H	0.605612	0.457114	0.464088
	O288	O	0.075896	-0.108574	-0.045381
	H289	H	0.075980	-0.105138	-0.042693
	H290	H	0.067761	-0.102412	-0.040886
	O291	O	0.033316	0.920538	-0.056341
	H292	H	0.035494	0.910718	-0.069348
	H293	H	0.044966	0.929857	-0.048468
	O294	O	-0.027148	1.025446	-0.029933
	H295	H	-0.029821	1.029399	-0.026801
	H296	H	-0.029290	1.011878	-0.027384
	O297	O	0.560475	0.543908	0.529338
	H298	H	0.554685	0.543599	0.528943
	H299	H	0.563507	0.541627	0.545661
	O300	O	0.456893	0.506446	0.457246
	H301	H	0.458638	0.508248	0.451289
	H302	H	0.457028	0.504504	0.460014
	O303	O	0.526128	-0.425810	1.438840
	H304	H	0.530833	-0.426491	1.440193
	H305	H	0.525602	-0.430882	1.433546
	O306	O	-0.006971	0.988759	1.022936
	H307	H	-0.007106	0.991045	1.019434
	H308	H	-0.005309	0.980814	1.025482
	O309	O	0.043676	0.985659	1.006017
	H310	H	0.042561	0.988148	0.998099
	H311	H	0.050449	0.984361	1.013124
	O312	O	0.019697	-0.026068	0.980273
	H313	H	0.016668	-0.020425	0.969230
	H314	H	0.016322	-0.025647	0.969711
	O315	O	0.468060	0.482218	0.524512
	H316	H	0.466177	0.480370	0.530763
	H317	H	0.474839	0.481083	0.525901
	O318	O	0.062387	-0.071936	0.946068
	H319	H	0.064660	-0.076869	0.937709
	H320	H	0.064560	-0.069405	0.945365
	O321	O	0.540075	0.550072	0.464512
	H322	H	0.542179	0.546637	0.463132
	H323	H	0.544106	0.551049	0.469074
	O324	O	1.002930	-0.041754	0.952903
	H325	H	0.994068	-0.041455	0.945279
	H326	H	1.006936	-0.043941	0.955779
	O327	O	1.028009	0.978234	1.026244
	H328	H	1.038666	0.975710	1.029869
	H329	H	1.033056	0.975942	1.036326
	O330	O	0.457236	0.464445	0.495981
	H331	H	0.466427	0.464970	0.482363
	H332	H	0.446068	0.472741	0.487153
	O333	O	0.509790	0.576172	0.601826
	H334	H	0.510128	0.574349	0.603531
	H335	H	0.508858	0.568977	0.595656
	O336	O	0.472339	0.482163	0.464977
	H337	H	0.477312	0.487011	0.463670
	H338	H	0.470291	0.479278	0.459225
	O339	O	-0.454640	0.436117	-0.470297
	H340	H	-0.457019	0.436658	-0.473595
	H341	H	-0.456384	0.439695	-0.464598
	O342	O	0.554373	0.608057	0.526772
	H343	H	0.557066	0.613801	0.534110
	H344	H	0.555622	0.606947	0.527747
	O345	O	0.513560	0.545307	0.531322
	H346	H	0.502083	0.549241	0.539270
	H347	H	0.522497	0.548551	0.520386
