data_Molecule from HDF5

_cell_length_a		16.448460
_cell_length_b		16.484985
_cell_length_c		16.556299
_cell_angle_alpha	89.987033
_cell_angle_beta	90.038910
_cell_angle_gamma	89.907289
_symmetry_space_group_name_H-M	'P 1'
_symmetry_Int_Tables_number		1

loop_
	_symmetry_equiv_pos_as_xyz
	x,y,z

loop_
	_atom_site_label
	_atom_site_type_symbol
	_atom_site_fract_x
	_atom_site_fract_y
	_atom_site_fract_z
	H0	H	0.395688	0.840842	0.716707
	H1	H	0.609403	0.153343	0.717097
	H2	H	0.612102	0.840720	0.270806
	H3	H	0.395981	0.153471	0.270467
	H4	H	0.724973	0.391586	0.838239
	H5	H	0.726580	0.603637	0.151496
	H6	H	0.280751	0.603065	0.838926
	H7	H	0.280727	0.390861	0.151135
	H8	H	0.844175	0.720144	0.388433
	H9	H	0.161387	0.717951	0.596372
	H10	H	0.846419	0.276749	0.598519
	H11	H	0.161229	0.275724	0.385838
	H12	H	0.845755	0.393270	0.714256
	H13	H	0.159935	0.604657	0.715988
	H14	H	0.844288	0.605830	0.271258
	H15	H	0.160487	0.391663	0.269603
	H16	H	0.395489	0.721956	0.840764
	H17	H	0.614740	0.722928	0.149816
	H18	H	0.606432	0.276546	0.836698
	H19	H	0.397300	0.274153	0.150697
	H20	H	0.728481	0.841524	0.385188
	H21	H	0.724271	0.154472	0.599393
	H22	H	0.282758	0.839907	0.597390
	H23	H	0.282742	0.155946	0.389056
	H24	H	0.899689	0.340072	0.214781
	H25	H	0.108258	0.656420	0.213244
	H26	H	0.110342	0.340689	0.770273
	H27	H	0.901834	0.657839	0.777779
	H28	H	0.225321	0.893164	0.335369
	H29	H	0.222893	0.101165	0.652103
	H30	H	0.782605	0.103071	0.335994
	H31	H	0.783576	0.894913	0.650323
	H32	H	0.344231	0.217934	0.888699
	H33	H	0.660978	0.216512	0.098017
	H34	H	0.346868	0.775610	0.099100
	H35	H	0.662620	0.778001	0.892192
	H36	H	0.346322	0.890859	0.215499
	H37	H	0.660259	0.102959	0.215972
	H38	H	0.343959	0.100460	0.773826
	H39	H	0.660935	0.892413	0.773992
	H40	H	0.899928	0.219385	0.336049
	H41	H	0.108729	0.219095	0.651854
	H42	H	0.109774	0.775812	0.335695
	H43	H	0.901195	0.779954	0.651033
	H44	H	0.225049	0.339428	0.887871
	H45	H	0.224396	0.655782	0.097361
	H46	H	0.787731	0.337670	0.095035
	H47	H	0.786354	0.657217	0.895135
	H48	H	0.416775	0.109346	0.583550
	H49	H	0.592747	0.884628	0.583995
	H50	H	0.591583	0.110877	0.400515
	H51	H	0.416793	0.887363	0.409706
	H52	H	0.590652	0.407166	0.104874
	H53	H	0.591990	0.584394	0.883931
	H54	H	0.410329	0.577316	0.105924
	H55	H	0.412311	0.405045	0.880928
	H56	H	0.118156	0.594434	0.402500
	H57	H	0.890044	0.589654	0.581875
	H58	H	0.117792	0.410256	0.584891
	H59	H	0.890988	0.411099	0.401691
	H60	H	0.116218	0.407849	0.580308
	H61	H	0.889466	0.586132	0.584482
	H62	H	0.112284	0.585171	0.410109
	H63	H	0.890812	0.406718	0.405516
	H64	H	0.424628	0.584742	0.103235
	H65	H	0.591804	0.587502	0.882776
	H66	H	0.592708	0.402401	0.108481
	H67	H	0.412321	0.409119	0.882329
	H68	H	0.587715	0.107838	0.405539
	H69	H	0.590253	0.885227	0.581879
	H70	H	0.412438	0.109695	0.582022
	H71	H	0.410460	0.882651	0.404170
	H72	H	0.910549	0.611213	0.078198
	H73	H	0.083764	0.389672	0.079730
	H74	H	0.092254	0.609262	0.906052
	H75	H	0.916158	0.384446	0.903894
	H76	H	0.090567	0.897548	0.607519
	H77	H	0.093483	0.086528	0.381113
	H78	H	0.913765	0.085362	0.604785
	H79	H	0.910515	0.912192	0.379424
	H80	H	0.615372	0.089355	0.909412
	H81	H	0.390142	0.087793	0.079107
	H82	H	0.615349	0.911645	0.082359
	H83	H	0.390168	0.904103	0.911013
	H84	H	0.616830	0.909114	0.083664
	H85	H	0.392422	0.080322	0.081116
	H86	H	0.614368	0.080600	0.904179
	H87	H	0.393123	0.915173	0.907575
	H88	H	0.916604	0.088216	0.604990
	H89	H	0.091635	0.085556	0.383093
	H90	H	0.103538	0.911713	0.606783
	H91	H	0.919001	0.912402	0.382503
	H92	H	0.092635	0.609590	0.904012
	H93	H	0.096109	0.385482	0.077646
	H94	H	0.911374	0.614208	0.087277
	H95	H	0.910875	0.383868	0.903410
	H96	H	0.413917	0.111898	0.585585
	H97	H	0.593237	0.885076	0.581134
	H98	H	0.594530	0.109749	0.407154
	H99	H	0.419341	0.885212	0.400820
	H100	H	0.596368	0.407656	0.108268
	H101	H	0.594831	0.585743	0.883011
	H102	H	0.412943	0.593062	0.110615
	H103	H	0.416061	0.407033	0.883145
	H104	H	0.115257	0.582168	0.397379
	H105	H	0.889110	0.590144	0.585742
	H106	H	0.115375	0.412762	0.581279
	H107	H	0.892922	0.411925	0.407307
	H108	H	0.918142	0.609124	0.083302
	H109	H	0.090475	0.383315	0.089004
	H110	H	0.090709	0.609211	0.904970
	H111	H	0.914344	0.382956	0.899026
	H112	H	0.085681	0.914607	0.600322
	H113	H	0.091327	0.087990	0.382176
	H114	H	0.912587	0.089009	0.606633
	H115	H	0.915452	0.904540	0.378687
	H116	H	0.617808	0.088906	0.899484
	H117	H	0.388796	0.084602	0.085772
	H118	H	0.616670	0.908996	0.080962
	H119	H	0.388331	0.907585	0.899426
	C120	C	0.381674	0.006156	0.615449
	C121	C	0.624361	0.988819	0.615023
	C122	C	0.624815	0.005737	0.371962
	C123	C	0.382194	0.988865	0.372288
	C124	C	0.624843	0.374427	0.002999
	C125	C	0.625565	0.618796	0.986665
	C126	C	0.382892	0.617975	0.003415
	C127	C	0.380829	0.374421	0.985607
	C128	C	0.010866	0.620311	0.371399
	C129	C	0.994294	0.620264	0.614891
	C130	C	0.012367	0.377387	0.614474
	C131	C	0.995507	0.377383	0.371885
	C132	C	0.881845	0.506537	0.115177
	C133	C	0.123631	0.489843	0.114609
	C134	C	0.124565	0.505430	0.872104
	C135	C	0.882387	0.489212	0.872502
	C136	C	0.125548	0.875936	0.500841
	C137	C	0.124408	0.118926	0.486072
	C138	C	0.881846	0.120274	0.501923
	C139	C	0.882821	0.878027	0.484484
	C140	C	0.511212	0.118109	0.872302
	C141	C	0.494434	0.117185	0.114554
	C142	C	0.512713	0.875940	0.115564
	C143	C	0.494844	0.876221	0.873749
	C144	C	0.378242	0.887812	0.675757
	C145	C	0.627160	0.106507	0.676215
	C146	C	0.629556	0.888080	0.310723
	C147	C	0.378592	0.106882	0.311426
	C148	C	0.684840	0.372805	0.884997
	C149	C	0.686534	0.621590	0.104246
	C150	C	0.321558	0.621276	0.885886
	C151	C	0.320557	0.371814	0.103767
	C152	C	0.891802	0.680514	0.369642
	C153	C	0.113539	0.679400	0.615806
	C154	C	0.893664	0.317145	0.616795
	C155	C	0.113936	0.316435	0.368191
	C156	C	0.893219	0.375082	0.674264
	C157	C	0.113035	0.622681	0.674913
	C158	C	0.891808	0.623250	0.311390
	C159	C	0.113283	0.373971	0.310037
	C160	C	0.378549	0.680184	0.886471
	C161	C	0.630237	0.680749	0.103608
	C162	C	0.626060	0.315691	0.884297
	C163	C	0.378681	0.314132	0.103839
	C164	C	0.687365	0.888496	0.368015
	C165	C	0.684319	0.107048	0.617691
	C166	C	0.322067	0.887282	0.616609
	C167	C	0.322110	0.107735	0.370380
	C168	C	0.880876	0.387410	0.174739
	C169	C	0.126132	0.609065	0.173378
	C170	C	0.127767	0.387510	0.811137
	C171	C	0.882237	0.609654	0.816039
	C172	C	0.185367	0.874587	0.382582
	C173	C	0.183466	0.120200	0.604875
	C174	C	0.822636	0.121796	0.383207
	C175	C	0.823334	0.876548	0.603108
	C176	C	0.391765	0.177794	0.870472
	C177	C	0.613454	0.177126	0.116246
	C178	C	0.394265	0.815178	0.118239
	C179	C	0.614548	0.817278	0.872810
	C180	C	0.394123	0.872616	0.175993
	C181	C	0.613096	0.120471	0.174963
	C182	C	0.391808	0.119725	0.812863
	C183	C	0.613871	0.874229	0.814163
	C184	C	0.880934	0.179603	0.383253
	C185	C	0.126411	0.178828	0.604497
	C186	C	0.127690	0.816199	0.382775
	C187	C	0.881526	0.819075	0.603381
	C188	C	0.184977	0.386908	0.869663
	C189	C	0.183975	0.608432	0.115815
	C190	C	0.825242	0.386032	0.115146
	C191	C	0.824914	0.609298	0.874413
	C192	C	0.407053	0.088835	0.590677
	C193	C	0.599142	0.906447	0.589643
	C194	C	0.598626	0.088065	0.397265
	C195	C	0.408126	0.906497	0.397633
	C196	C	0.600306	0.398617	0.085658
	C197	C	0.599922	0.593313	0.904505
	C198	C	0.408833	0.592385	0.085272
	C199	C	0.406299	0.399796	0.903587
	C200	C	0.093685	0.594585	0.396202
	C201	C	0.911102	0.595650	0.590830
	C202	C	0.094835	0.402872	0.589348
	C203	C	0.913019	0.402800	0.397417
	C204	C	0.906307	0.589656	0.090260
	C205	C	0.097504	0.407541	0.089425
	C206	C	0.099094	0.588003	0.897744
	C207	C	0.906650	0.405616	0.895377
	C208	C	0.100509	0.900906	0.583406
	C209	C	0.099463	0.093904	0.403844
	C210	C	0.906958	0.094831	0.584097
	C211	C	0.907735	0.902666	0.401753
	C212	C	0.594123	0.093200	0.897093
	C213	C	0.411871	0.091641	0.089158
	C214	C	0.594968	0.902384	0.089656
	C215	C	0.412100	0.901563	0.898888
	Zn216	Zn	0.502938	-0.003732	0.743918
	Zn217	Zn	0.503365	-0.002852	0.243888
	Zn218	Zn	0.753363	0.496709	-0.005680
	Zn219	Zn	0.253201	0.496633	-0.005512
	Zn220	Zn	0.003045	0.748396	0.492742
	Zn221	Zn	0.004369	0.248715	0.493346
	Zn222	Zn	0.003347	0.498094	0.743257
	Zn223	Zn	0.002957	0.499173	0.243376
	Zn224	Zn	0.504323	0.747353	-0.004858
	Zn225	Zn	0.502438	0.245991	-0.005996
	Zn226	Zn	0.752837	-0.001975	0.493118
	Zn227	Zn	0.253999	-0.002142	0.493932
	N228	N	0.414647	0.962709	0.675042
	N229	N	0.590721	0.031743	0.674876
	N230	N	0.591098	0.962143	0.313160
	N231	N	0.414948	0.031920	0.312277
	N232	N	0.684414	0.408470	0.959983
	N233	N	0.683614	0.583377	0.030510
	N234	N	0.324254	0.583176	0.959495
	N235	N	0.321947	0.408627	0.029349
	N236	N	0.966771	0.678729	0.406297
	N237	N	0.038591	0.677869	0.579216
	N238	N	0.968650	0.318350	0.580421
	N239	N	0.039690	0.318261	0.405933
	N240	N	0.968255	0.411687	0.673290
	N241	N	0.037890	0.586639	0.674600
	N242	N	0.966974	0.586642	0.312134
	N243	N	0.038465	0.411233	0.312312
	N244	N	0.416107	0.678222	0.960584
	N245	N	0.592674	0.678825	0.029545
	N246	N	0.589849	0.316402	0.958728
	N247	N	0.415410	0.315671	0.029340
	N248	N	0.684417	0.962611	0.405524
	N249	N	0.682659	0.032841	0.580255
	N250	N	0.323926	0.962048	0.580060
	N251	N	0.324034	0.033177	0.407425
	N252	N	0.914988	0.463429	0.175025
	N253	N	0.089560	0.534233	0.172867
	N254	N	0.091095	0.462488	0.812410
	N255	N	0.916945	0.533761	0.814473
	N256	N	0.184212	0.910948	0.457208
	N257	N	0.182713	0.083671	0.530251
	N258	N	0.822757	0.085922	0.458082
	N259	N	0.824083	0.912360	0.528117
	N260	N	0.467025	0.177228	0.906517
	N261	N	0.538508	0.175249	0.079351
	N262	N	0.468945	0.817107	0.081395
	N263	N	0.539372	0.818208	0.908877
	N264	N	0.468922	0.909613	0.174473
	N265	N	0.538196	0.083786	0.173924
	N266	N	0.467142	0.083674	0.813770
	N267	N	0.538376	0.909986	0.814469
	N268	N	0.916581	0.179058	0.458287
	N269	N	0.090614	0.178218	0.529585
	N270	N	0.091385	0.816957	0.457482
	N271	N	0.917478	0.819714	0.528479
	N272	N	0.183035	0.461269	0.906996
	N273	N	0.182551	0.533188	0.079952
	N274	N	0.825516	0.461273	0.079107
	N275	N	0.824484	0.533166	0.908377
	O276	O	0.015081	0.054947	-0.213086
	H277	H	0.022930	0.056078	-0.205602
	H278	H	0.013185	0.053904	-0.218821
	O279	O	0.443983	0.556438	0.710446
	H280	H	0.450131	0.556306	0.707601
	H281	H	0.452867	0.562593	0.716551
	O282	O	1.204437	0.792060	-0.119564
	H283	H	1.204153	0.793900	-0.105835
	H284	H	1.230014	0.769952	-0.144378
	O285	O	0.433033	0.404304	0.308926
	H286	H	0.420695	0.392543	0.312553
	H287	H	0.430375	0.396725	0.304631
	O288	O	-0.281584	0.491016	0.334531
	H289	H	-0.272136	0.497068	0.340388
	H290	H	-0.272805	0.497229	0.342042
	O291	O	0.987675	0.984714	0.901130
	H292	H	0.996169	0.985649	0.889665
	H293	H	0.986341	0.969691	0.902384
	O294	O	-0.129087	1.042146	0.057543
	H295	H	-0.135571	1.029913	0.047599
	H296	H	-0.123723	1.053849	0.055138
	O297	O	0.508799	0.402871	1.384982
	H298	H	0.513414	0.389696	1.383722
	H299	H	0.496607	0.418219	1.394441
	O300	O	0.556069	0.453879	0.710015
	H301	H	0.584044	0.470827	0.720490
	H302	H	0.540587	0.456006	0.699864
	O303	O	0.664762	0.710163	0.586651
	H304	H	0.689611	0.729867	0.597012
	H305	H	0.656013	0.708779	0.564442
	O306	O	0.042859	0.792500	0.945737
	H307	H	0.060346	0.790680	0.943219
	H308	H	0.058111	0.792991	0.959501
	O309	O	0.661299	0.469471	0.569865
	H310	H	0.667630	0.464782	0.589168
	H311	H	0.662862	0.448799	0.572762
	O312	O	0.657689	0.558065	0.368436
	H313	H	0.644575	0.540352	0.387943
	H314	H	0.662612	0.556458	0.371184
	O315	O	-0.203169	-0.067682	1.198345
	H316	H	-0.218329	-0.068703	1.216247
	H317	H	-0.202144	-0.053644	1.193004
	O318	O	-0.109258	1.123232	0.012656
	H319	H	-0.109121	1.129088	0.018271
	H320	H	-0.106860	1.135428	0.010766
	O321	O	0.024421	0.816375	0.975161
	H322	H	0.032711	0.823310	0.990971
	H323	H	0.038316	0.805758	0.980781
	O324	O	0.886779	0.192476	0.876452
	H325	H	0.873628	0.192548	0.854323
	H326	H	0.906307	0.197733	0.868649
	O327	O	1.201989	-0.116496	0.793317
	H328	H	1.204340	-0.107122	0.781450
	H329	H	1.216670	-0.138859	0.777308
	O330	O	1.094836	0.208561	0.089435
	H331	H	1.087585	0.208144	0.096784
	H332	H	1.100347	0.211986	0.090419
	O333	O	0.292002	0.557094	0.281315
	H334	H	0.285008	0.576863	0.282196
	H335	H	0.291218	0.566715	0.271609
	O336	O	0.945699	-0.117386	0.879062
	H337	H	0.962611	-0.116559	0.895640
	H338	H	0.955039	-0.106111	0.880513
	O339	O	0.727474	0.533514	0.720008
	H340	H	0.731163	0.566532	0.723104
	H341	H	0.750281	0.542854	0.739947
	O342	O	0.431003	0.289619	0.532996
	H343	H	0.445159	0.290369	0.516907
	H344	H	0.403569	0.283841	0.525870
	O345	O	0.153934	0.106632	0.078083
	H346	H	0.161100	0.069665	0.089974
	H347	H	0.145120	0.112477	0.066185
	O348	O	0.707514	0.362013	0.283078
	H349	H	0.706430	0.404375	0.285265
	H350	H	0.740246	0.350925	0.252376
	O351	O	1.121191	1.124352	0.031752
	H352	H	1.120142	1.130019	0.019109
	H353	H	1.114217	1.126365	0.034054
	O354	O	0.303257	0.699106	0.327816
	H355	H	0.305704	0.706269	0.364171
	H356	H	0.331689	0.702893	0.334784
	O357	O	0.976392	1.133829	0.784055
	H358	H	0.986613	1.135075	0.786647
	H359	H	0.981645	1.137315	0.776877
	O360	O	0.723821	0.274456	0.462015
	H361	H	0.737453	0.259619	0.434099
	H362	H	0.734179	0.265073	0.436290
	O363	O	0.301306	0.464827	0.413730
	H364	H	0.310340	0.468667	0.400076
	H365	H	0.293425	0.453465	0.394939
	O366	O	0.804897	0.093465	0.790514
	H367	H	0.805570	0.106353	0.805031
	H368	H	0.813537	0.107560	0.778605
	O369	O	0.648928	0.697167	0.694990
	H370	H	0.650951	0.709896	0.677348
	H371	H	0.670068	0.710779	0.702205
	O372	O	0.368059	0.315325	0.380609
	H373	H	0.368227	0.318442	0.382904
	H374	H	0.377015	0.307042	0.382248
	O375	O	-0.678916	1.638613	1.448253
	H376	H	-0.665935	1.620232	1.461731
	H377	H	-0.689603	1.654402	1.451379
	O378	O	0.522940	0.523640	0.394934
	H379	H	0.530350	0.507374	0.402427
	H380	H	0.527576	0.506996	0.399992
	O381	O	1.687649	-0.687017	-0.322547
	H382	H	1.678164	-0.695114	-0.333095
	H383	H	1.675008	-0.664565	-0.330999
	O384	O	-0.010759	-0.146305	1.211751
	H385	H	-0.017195	-0.142286	1.201739
	H386	H	-0.006884	-0.170269	1.228471
	O387	O	-0.053566	0.940136	1.130964
	H388	H	-0.057625	0.944582	1.138505
	H389	H	-0.052515	0.936226	1.131187
	O390	O	0.206218	0.020379	1.195494
	H391	H	0.219989	0.024942	1.201846
	H392	H	0.201894	0.005508	1.200954
	O393	O	0.910850	0.829490	0.161165
	H394	H	0.899409	0.816661	0.140682
	H395	H	0.917602	0.849619	0.165224
	O396	O	0.822140	0.933648	-0.081736
	H397	H	0.820107	0.953631	-0.086166
	H398	H	0.824109	0.943827	-0.077863
	O399	O	0.818412	1.192036	1.100368
	H400	H	0.814417	1.184420	1.090873
	H401	H	0.838455	1.172971	1.102368
	O402	O	0.204432	-0.060991	0.949913
	H403	H	0.196571	-0.038181	0.953405
	H404	H	0.206102	-0.066938	0.948085
	O405	O	-0.013648	-0.035728	0.201017
	H406	H	-0.010006	-0.055125	0.201047
	H407	H	-0.012346	-0.036038	0.190765
	O408	O	1.065260	1.121368	1.082725
	H409	H	1.067209	1.125091	1.079737
	H410	H	1.072758	1.119031	1.074358
	O411	O	0.526743	0.679860	0.472302
	H412	H	0.534171	0.687109	0.480861
	H413	H	0.525036	0.660915	0.465983
	O414	O	0.369667	0.285540	0.481673
	H415	H	0.383914	0.288766	0.511021
	H416	H	0.344617	0.263474	0.491864
	O417	O	0.611255	0.378974	0.497748
	H418	H	0.626901	0.370045	0.490031
	H419	H	0.597481	0.379055	0.521341
	O420	O	0.501711	0.712008	0.658395
	H421	H	0.523581	0.708766	0.659865
	H422	H	0.515473	0.717831	0.669438
	O423	O	-0.529511	0.281399	0.709980
	H424	H	-0.531473	0.268076	0.708390
	H425	H	-0.518356	0.280355	0.722207
	O426	O	0.977619	1.126300	0.875575
	H427	H	0.984783	1.139661	0.876823
	H428	H	0.981844	1.130404	0.880965
	O429	O	0.205086	0.140785	-0.005398
	H430	H	0.224458	0.156028	-0.005939
	H431	H	0.207362	0.125166	-0.010533
	O432	O	0.283630	0.543281	0.498289
	H433	H	0.286334	0.534671	0.497024
	H434	H	0.289431	0.544650	0.486794
	O435	O	0.555098	-0.454218	-0.498827
	H436	H	0.558644	-0.459848	-0.502799
	H437	H	0.556959	-0.472758	-0.495066
	O438	O	1.025841	-0.195825	-0.196538
	H439	H	1.048705	-0.195926	-0.192774
	H440	H	1.035183	-0.206538	-0.215235
	O441	O	0.313943	0.665794	0.662501
	H442	H	0.321529	0.650964	0.645757
	H443	H	0.339095	0.652623	0.653420
	O444	O	0.308885	1.303549	0.685502
	H445	H	0.313168	1.318029	0.670086
	H446	H	0.325847	1.312873	0.694169
	O447	O	0.591614	0.293362	0.296628
	H448	H	0.594048	0.288231	0.283274
	H449	H	0.610572	0.306937	0.290085
	O450	O	0.294604	0.474317	0.705591
	H451	H	0.308684	0.482861	0.700103
	H452	H	0.271014	0.473980	0.715770
	O453	O	0.664130	0.709318	0.466808
	H454	H	0.669597	0.719145	0.457346
	H455	H	0.650217	0.682879	0.461861
	O456	O	0.844693	0.135068	-0.023202
	H457	H	0.855374	0.125229	-0.045168
	H458	H	0.831090	0.151379	-0.022068
	O459	O	0.456323	0.557596	0.514890
	H460	H	0.448304	0.551054	0.506331
	H461	H	0.446755	0.542099	0.517475
	O462	O	0.480455	0.709385	0.280053
	H463	H	0.476922	0.717719	0.275574
	H464	H	0.493916	0.699711	0.263247
	O465	O	1.039533	-0.178831	0.076390
	H466	H	1.040525	-0.179016	0.064550
	H467	H	1.048134	-0.185390	0.079480
