data_Molecule from HDF5

_cell_length_a		16.290658
_cell_length_b		16.174323
_cell_length_c		16.314191
_cell_angle_alpha	89.556142
_cell_angle_beta	89.649358
_cell_angle_gamma	90.185861
_symmetry_space_group_name_H-M	'P 1'
_symmetry_Int_Tables_number		1

loop_
	_symmetry_equiv_pos_as_xyz
	x,y,z

loop_
	_atom_site_label
	_atom_site_type_symbol
	_atom_site_fract_x
	_atom_site_fract_y
	_atom_site_fract_z
	H0	H	0.413851	0.834527	0.711800
	H1	H	0.613188	0.162668	0.707785
	H2	H	0.613941	0.833352	0.282987
	H3	H	0.418350	0.162550	0.281590
	H4	H	0.730722	0.398620	0.832133
	H5	H	0.728339	0.595629	0.158057
	H6	H	0.300681	0.598543	0.830705
	H7	H	0.294143	0.395133	0.156649
	H8	H	0.850630	0.713892	0.395330
	H9	H	0.178410	0.711579	0.589951
	H10	H	0.850667	0.282396	0.594423
	H11	H	0.178895	0.287304	0.398239
	H12	H	0.850841	0.397047	0.711456
	H13	H	0.177319	0.597544	0.708540
	H14	H	0.850612	0.598065	0.279936
	H15	H	0.176798	0.399838	0.278127
	H16	H	0.417965	0.714060	0.831916
	H17	H	0.609829	0.708356	0.159769
	H18	H	0.611077	0.286072	0.830472
	H19	H	0.413577	0.281748	0.158432
	H20	H	0.729755	0.834111	0.396698
	H21	H	0.728804	0.162942	0.592974
	H22	H	0.299530	0.834237	0.596178
	H23	H	0.303659	0.163613	0.397603
	H24	H	0.912852	0.333678	0.212157
	H25	H	0.112765	0.662386	0.206397
	H26	H	0.112737	0.332963	0.781670
	H27	H	0.915462	0.661125	0.778324
	H28	H	0.231690	0.900781	0.332627
	H29	H	0.228102	0.096836	0.658987
	H30	H	0.800261	0.099984	0.332069
	H31	H	0.797951	0.896476	0.657531
	H32	H	0.350291	0.212868	0.896804
	H33	H	0.676798	0.213109	0.091842
	H34	H	0.349617	0.783470	0.096208
	H35	H	0.678476	0.786746	0.899585
	H36	H	0.351280	0.896850	0.213949
	H37	H	0.677926	0.097190	0.208038
	H38	H	0.351480	0.099445	0.779162
	H39	H	0.677164	0.899373	0.779530
	H40	H	0.920308	0.211874	0.331042
	H41	H	0.111642	0.210420	0.659350
	H42	H	0.113692	0.787461	0.330153
	H43	H	0.915628	0.782254	0.657499
	H44	H	0.228939	0.333760	0.895918
	H45	H	0.227610	0.661861	0.091963
	H46	H	0.799072	0.332599	0.094690
	H47	H	0.802488	0.662306	0.895467
	H48	H	0.421185	0.115439	0.585038
	H49	H	0.606943	0.881037	0.586383
	H50	H	0.609970	0.115859	0.399782
	H51	H	0.414172	0.878781	0.407460
	H52	H	0.598609	0.401055	0.110374
	H53	H	0.596258	0.583889	0.884354
	H54	H	0.414729	0.586758	0.112000
	H55	H	0.413008	0.402220	0.875413
	H56	H	0.131490	0.592322	0.395752
	H57	H	0.898026	0.591367	0.584681
	H58	H	0.130741	0.405225	0.588085
	H59	H	0.896593	0.400934	0.402188
	H60	H	0.131314	0.405687	0.589359
	H61	H	0.899748	0.585362	0.585350
	H62	H	0.131129	0.595385	0.401263
	H63	H	0.898889	0.405633	0.407622
	H64	H	0.422141	0.586068	0.109678
	H65	H	0.606980	0.610053	0.874587
	H66	H	0.612828	0.401312	0.113492
	H67	H	0.421190	0.416255	0.881897
	H68	H	0.606135	0.115197	0.399591
	H69	H	0.607412	0.879544	0.591027
	H70	H	0.418022	0.118001	0.589371
	H71	H	0.423011	0.878380	0.397390
	H72	H	0.920539	0.615346	0.087703
	H73	H	0.111061	0.378534	0.085814
	H74	H	0.103989	0.613621	0.903313
	H75	H	0.923333	0.381567	0.904928
	H76	H	0.110321	0.897821	0.614585
	H77	H	0.116695	0.098453	0.375607
	H78	H	0.915533	0.087414	0.612255
	H79	H	0.925397	0.909283	0.380058
	H80	H	0.629363	0.094033	0.906641
	H81	H	0.395933	0.092625	0.089741
	H82	H	0.633316	0.901839	0.093790
	H83	H	0.399972	0.905525	0.911626
	H84	H	0.629788	0.901459	0.085410
	H85	H	0.399254	0.087634	0.085987
	H86	H	0.628982	0.085395	0.900762
	H87	H	0.398410	0.913276	0.898844
	H88	H	0.923684	0.086360	0.609255
	H89	H	0.111712	0.084287	0.380733
	H90	H	0.111316	0.911011	0.610915
	H91	H	0.921169	0.902669	0.377106
	H92	H	0.111049	0.615932	0.900293
	H93	H	0.099456	0.379773	0.094394
	H94	H	0.920654	0.615571	0.087505
	H95	H	0.918451	0.378911	0.904256
	H96	H	0.424133	0.116624	0.589905
	H97	H	0.603749	0.881613	0.589488
	H98	H	0.607773	0.116096	0.403001
	H99	H	0.426871	0.883201	0.409008
	H100	H	0.606347	0.412851	0.108058
	H101	H	0.624492	0.586345	0.875483
	H102	H	0.418905	0.592724	0.112374
	H103	H	0.429471	0.400998	0.879822
	H104	H	0.129022	0.588848	0.400619
	H105	H	0.896877	0.589145	0.590519
	H106	H	0.132052	0.403675	0.589052
	H107	H	0.897798	0.408470	0.400541
	H108	H	0.919889	0.614807	0.087332
	H109	H	0.098690	0.384295	0.081200
	H110	H	0.105423	0.616114	0.896053
	H111	H	0.921218	0.379414	0.900666
	H112	H	0.099322	0.904239	0.608540
	H113	H	0.101092	0.095747	0.380263
	H114	H	0.920602	0.093549	0.612854
	H115	H	0.917261	0.909529	0.377660
	H116	H	0.632774	0.094101	0.896693
	H117	H	0.396842	0.085890	0.093963
	H118	H	0.629558	0.909488	0.089764
	H119	H	0.394258	0.898462	0.900035
	C120	C	0.391992	0.007754	0.617681
	C121	C	0.635057	0.989713	0.616292
	C122	C	0.636694	0.006949	0.373446
	C123	C	0.393620	0.989338	0.375293
	C124	C	0.635274	0.376509	0.002769
	C125	C	0.636232	0.619989	0.986634
	C126	C	0.391652	0.618896	0.003285
	C127	C	0.391077	0.376104	0.986493
	C128	C	0.022408	0.620650	0.371547
	C129	C	1.006132	0.618055	0.614642
	C130	C	0.022918	0.375548	0.617688
	C131	C	1.005717	0.376690	0.373906
	C132	C	0.890953	0.506524	0.117296
	C133	C	0.132996	0.489259	0.115068
	C134	C	0.135399	0.506408	0.872271
	C135	C	0.892900	0.488505	0.873821
	C136	C	0.136337	0.876768	0.503353
	C137	C	0.137196	0.120509	0.487085
	C138	C	0.892775	0.119395	0.503654
	C139	C	0.892240	0.876876	0.485899
	C140	C	0.522517	0.119981	0.873036
	C141	C	0.505373	0.118884	0.117201
	C142	C	0.522853	0.875307	0.119221
	C143	C	0.505782	0.876976	0.874653
	C144	C	0.394205	0.883695	0.673329
	C145	C	0.633247	0.113691	0.670432
	C146	C	0.634465	0.882712	0.319750
	C147	C	0.396918	0.113344	0.319160
	C148	C	0.691868	0.378784	0.880503
	C149	C	0.690618	0.616231	0.109355
	C150	C	0.338012	0.618324	0.879986
	C151	C	0.333947	0.376376	0.108669
	C152	C	0.899522	0.676015	0.374842
	C153	C	0.129360	0.673852	0.611238
	C154	C	0.899598	0.319972	0.615318
	C155	C	0.129563	0.323679	0.376670
	C156	C	0.899759	0.376970	0.673411
	C157	C	0.128728	0.617117	0.670088
	C158	C	0.899419	0.618612	0.317416
	C159	C	0.128453	0.379905	0.317408
	C160	C	0.396222	0.675865	0.880494
	C161	C	0.631898	0.672531	0.110304
	C162	C	0.632435	0.322840	0.879638
	C163	C	0.393146	0.319994	0.109442
	C164	C	0.691999	0.883325	0.376451
	C165	C	0.690575	0.113734	0.613154
	C166	C	0.337225	0.883639	0.615939
	C167	C	0.340007	0.113813	0.376945
	C168	C	0.892471	0.382778	0.173855
	C169	C	0.132275	0.613108	0.169201
	C170	C	0.133242	0.382400	0.818509
	C171	C	0.895438	0.612336	0.817201
	C172	C	0.192635	0.880448	0.380797
	C173	C	0.191026	0.117301	0.610049
	C174	C	0.838580	0.118888	0.380653
	C175	C	0.836149	0.876965	0.608696
	C176	C	0.399335	0.175254	0.876215
	C177	C	0.628324	0.174668	0.113059
	C178	C	0.399032	0.820515	0.116919
	C179	C	0.629184	0.823552	0.878159
	C180	C	0.399881	0.877001	0.175471
	C181	C	0.628607	0.117261	0.171006
	C182	C	0.399857	0.118833	0.817699
	C183	C	0.628434	0.879507	0.818412
	C184	C	0.897901	0.174956	0.380263
	C185	C	0.133248	0.174038	0.610137
	C186	C	0.133973	0.823976	0.379724
	C187	C	0.894445	0.820059	0.608648
	C188	C	0.191019	0.382695	0.875271
	C189	C	0.189341	0.612900	0.112110
	C190	C	0.836010	0.382225	0.115446
	C191	C	0.839237	0.612832	0.875568
	C192	C	0.414384	0.094469	0.594830
	C193	C	0.612626	0.903218	0.595132
	C194	C	0.614452	0.093171	0.394469
	C195	C	0.415002	0.902652	0.398007
	C196	C	0.612531	0.398667	0.088558
	C197	C	0.615380	0.599414	0.900407
	C198	C	0.412558	0.595450	0.089016
	C199	C	0.414455	0.399708	0.901099
	C200	C	0.108165	0.598560	0.392782
	C201	C	0.920535	0.595408	0.593114
	C202	C	0.108906	0.398202	0.595288
	C203	C	0.919911	0.398465	0.396801
	C204	C	0.913488	0.592871	0.094349
	C205	C	0.109915	0.402994	0.093382
	C206	C	0.113449	0.592850	0.893600
	C207	C	0.914622	0.402229	0.896524
	C208	C	0.113636	0.897957	0.589243
	C209	C	0.115943	0.099132	0.401055
	C210	C	0.913742	0.096147	0.589372
	C211	C	0.914818	0.900076	0.400546
	C212	C	0.608407	0.097689	0.894860
	C213	C	0.419460	0.095747	0.095968
	C214	C	0.608747	0.897573	0.096401
	C215	C	0.419514	0.899140	0.897082
	Zn216	Zn	0.513897	-0.001248	0.744669
	Zn217	Zn	0.514478	-0.002521	0.246708
	Zn218	Zn	0.764677	0.497616	-0.005173
	Zn219	Zn	0.262022	0.497739	-0.005803
	Zn220	Zn	0.014195	0.748394	0.493949
	Zn221	Zn	0.014968	0.247881	0.495815
	Zn222	Zn	0.014262	0.497403	0.745050
	Zn223	Zn	0.013351	0.498398	0.244209
	Zn224	Zn	0.513769	0.748085	-0.003579
	Zn225	Zn	0.513487	0.247601	-0.005091
	Zn226	Zn	0.763419	-0.001723	0.495081
	Zn227	Zn	0.264921	-0.001181	0.495913
	N228	N	0.427515	0.961965	0.674551
	N229	N	0.599268	0.035786	0.672475
	N230	N	0.600657	0.960564	0.317539
	N231	N	0.429549	0.034981	0.318203
	N232	N	0.693456	0.411506	0.958089
	N233	N	0.693409	0.584175	0.031507
	N234	N	0.335062	0.583730	0.957321
	N235	N	0.332428	0.410462	0.031131
	N236	N	0.977046	0.677444	0.407913
	N237	N	0.052179	0.674577	0.577497
	N238	N	0.977168	0.319123	0.581234
	N239	N	0.052346	0.321606	0.411193
	N240	N	0.977414	0.410418	0.675177
	N241	N	0.051209	0.582985	0.672214
	N242	N	0.976760	0.584869	0.315346
	N243	N	0.050350	0.412055	0.315529
	N244	N	0.428716	0.676380	0.958196
	N245	N	0.598724	0.675165	0.033011
	N246	N	0.597881	0.321382	0.956806
	N247	N	0.428100	0.319860	0.032514
	N248	N	0.693550	0.961449	0.408910
	N249	N	0.691768	0.035624	0.580146
	N250	N	0.335849	0.961677	0.581887
	N251	N	0.337802	0.035732	0.411124
	N252	N	0.926098	0.460908	0.174970
	N253	N	0.098044	0.535296	0.171225
	N254	N	0.099471	0.460298	0.816519
	N255	N	0.928119	0.534143	0.815900
	N256	N	0.194226	0.912621	0.458654
	N257	N	0.193630	0.084611	0.532497
	N258	N	0.835308	0.085094	0.458342
	N259	N	0.834603	0.911627	0.531450
	N260	N	0.476544	0.175850	0.910143
	N261	N	0.550658	0.175998	0.080386
	N262	N	0.476535	0.819192	0.082591
	N263	N	0.551860	0.822104	0.912473
	N264	N	0.477633	0.910398	0.176925
	N265	N	0.551096	0.083204	0.173590
	N266	N	0.477453	0.085496	0.815482
	N267	N	0.550551	0.912127	0.816250
	N268	N	0.930761	0.175473	0.457763
	N269	N	0.100404	0.176114	0.532667
	N270	N	0.099647	0.821581	0.457006
	N271	N	0.928659	0.819823	0.531359
	N272	N	0.192397	0.460837	0.907940
	N273	N	0.190013	0.534878	0.079049
	N274	N	0.834906	0.460199	0.081095
	N275	N	0.837484	0.534911	0.909942
	O276	O	0.993849	0.994556	0.020543
	H277	H	0.980452	1.000918	0.019487
	H278	H	0.995979	0.993261	0.027174
	O279	O	0.054712	0.008738	1.012029
	H280	H	0.061374	0.016103	1.012453
	H281	H	0.058347	0.000746	1.014778
	O282	O	-0.487000	0.576078	0.494004
	H283	H	-0.487287	0.587802	0.498174
	H284	H	-0.493685	0.581095	0.495257
	O285	O	0.507809	0.477671	0.457400
	H286	H	0.508644	0.477559	0.462875
	H287	H	0.513355	0.468215	0.449775
	O288	O	-0.004610	-0.010850	0.022324
	H289	H	-0.009704	-0.018309	0.033274
	H290	H	-0.009542	-0.011906	0.016455
	O291	O	0.001387	0.955374	-0.017913
	H292	H	-0.003200	0.957018	-0.016931
	H293	H	0.006274	0.959525	-0.014302
	O294	O	-0.023450	1.007686	-0.013969
	H295	H	-0.020502	1.009186	-0.011661
	H296	H	-0.017861	1.006587	-0.019150
	O297	O	0.553559	0.591853	0.406055
	H298	H	0.533205	0.587070	0.401856
	H299	H	0.555853	0.597658	0.396666
	O300	O	0.528484	0.480559	0.572650
	H301	H	0.525046	0.474770	0.568653
	H302	H	0.537964	0.468647	0.576345
	O303	O	0.452204	-0.528944	1.573623
	H304	H	0.453179	-0.521075	1.572734
	H305	H	0.452847	-0.544301	1.572756
	O306	O	-0.091164	0.951507	1.045080
	H307	H	-0.096971	0.945918	1.042953
	H308	H	-0.091580	0.949935	1.038826
	O309	O	-0.012382	0.956709	1.036646
	H310	H	-0.018620	0.960941	1.031258
	H311	H	-0.008611	0.956886	1.039418
	O312	O	0.012785	0.018368	1.045517
	H313	H	0.006265	0.007674	1.052845
	H314	H	0.013511	0.022090	1.057617
	O315	O	0.530831	0.535022	0.539240
	H316	H	0.525492	0.533347	0.536759
	H317	H	0.528027	0.533536	0.531643
	O318	O	0.010635	0.002799	0.991408
	H319	H	0.015274	0.010206	0.996380
	H320	H	0.018646	-0.001804	0.992939
	O321	O	0.468697	0.479219	0.465028
	H322	H	0.473654	0.483421	0.462664
	H323	H	0.477636	0.473238	0.470516
	O324	O	1.031627	-0.015745	0.965328
	H325	H	1.036995	-0.011342	0.950649
	H326	H	1.029760	-0.013768	0.972983
	O327	O	0.996433	1.017811	0.959723
	H328	H	0.993720	1.020867	0.964154
	H329	H	1.000924	1.018025	0.960579
	O330	O	0.526518	0.494546	0.508496
	H331	H	0.525431	0.497692	0.515055
	H332	H	0.529639	0.504502	0.501717
	O333	O	0.539053	0.546802	0.471087
	H334	H	0.534100	0.540509	0.475389
	H335	H	0.535413	0.549337	0.487444
	O336	O	0.601282	0.480674	0.407514
	H337	H	0.604216	0.484292	0.402216
	H338	H	0.601633	0.491966	0.405535
	O339	O	-0.441606	0.442892	-0.540633
	H340	H	-0.445653	0.436704	-0.545181
	H341	H	-0.438378	0.443793	-0.538216
	O342	O	0.616752	0.552428	0.506839
	H343	H	0.633265	0.554416	0.519115
	H344	H	0.614959	0.552919	0.509868
	O345	O	0.530799	0.443650	0.408575
	H346	H	0.537900	0.444299	0.403554
	H347	H	0.528979	0.436834	0.411399
