data_Molecule from HDF5

_cell_length_a		16.554230
_cell_length_b		16.639022
_cell_length_c		16.561108
_cell_angle_alpha	89.970683
_cell_angle_beta	89.808681
_cell_angle_gamma	89.879721
_symmetry_space_group_name_H-M	'P 1'
_symmetry_Int_Tables_number		1

loop_
	_symmetry_equiv_pos_as_xyz
	x,y,z

loop_
	_atom_site_label
	_atom_site_type_symbol
	_atom_site_fract_x
	_atom_site_fract_y
	_atom_site_fract_z
	H0	H	0.376533	0.833711	0.721033
	H1	H	0.582168	0.147117	0.723261
	H2	H	0.578680	0.834001	0.284320
	H3	H	0.374682	0.149093	0.283750
	H4	H	0.698110	0.388087	0.845662
	H5	H	0.694253	0.591066	0.161923
	H6	H	0.260362	0.592374	0.845173
	H7	H	0.260190	0.389506	0.161577
	H8	H	0.823433	0.713025	0.396911
	H9	H	0.136724	0.708854	0.604005
	H10	H	0.821106	0.271137	0.607536
	H11	H	0.135607	0.270342	0.398423
	H12	H	0.821929	0.386169	0.725068
	H13	H	0.136266	0.593004	0.720909
	H14	H	0.821038	0.591603	0.284875
	H15	H	0.134436	0.384996	0.280650
	H16	H	0.373710	0.711675	0.847007
	H17	H	0.576337	0.706419	0.162444
	H18	H	0.583008	0.271347	0.845123
	H19	H	0.373490	0.270053	0.159776
	H20	H	0.695442	0.832636	0.399918
	H21	H	0.700146	0.146063	0.606748
	H22	H	0.260469	0.833530	0.604386
	H23	H	0.259378	0.150060	0.402303
	H24	H	0.870810	0.335232	0.225508
	H25	H	0.080590	0.646462	0.222656
	H26	H	0.083054	0.334062	0.781281
	H27	H	0.875470	0.648060	0.783600
	H28	H	0.195802	0.891467	0.344358
	H29	H	0.195878	0.093085	0.661408
	H30	H	0.759267	0.094337	0.344139
	H31	H	0.757089	0.885816	0.658300
	H32	H	0.320041	0.210188	0.900179
	H33	H	0.636368	0.209513	0.105177
	H34	H	0.319070	0.774655	0.105466
	H35	H	0.635099	0.769761	0.897828
	H36	H	0.319649	0.890695	0.221543
	H37	H	0.636343	0.094141	0.222061
	H38	H	0.319315	0.091681	0.785909
	H39	H	0.635276	0.887513	0.783271
	H40	H	0.872393	0.213066	0.346289
	H41	H	0.080859	0.211685	0.660205
	H42	H	0.081474	0.773108	0.344699
	H43	H	0.874123	0.769373	0.658869
	H44	H	0.200126	0.333865	0.897082
	H45	H	0.196168	0.647080	0.104946
	H46	H	0.754027	0.335803	0.109817
	H47	H	0.758594	0.648827	0.899966
	H48	H	0.391128	0.099266	0.586045
	H49	H	0.563243	0.879600	0.597520
	H50	H	0.568914	0.104253	0.409848
	H51	H	0.386417	0.879993	0.413019
	H52	H	0.566238	0.398931	0.115736
	H53	H	0.567908	0.589759	0.887792
	H54	H	0.381586	0.583613	0.118644
	H55	H	0.393183	0.403017	0.892424
	H56	H	0.089745	0.579694	0.416132
	H57	H	0.865355	0.579202	0.597528
	H58	H	0.092345	0.399254	0.595007
	H59	H	0.863107	0.397283	0.411116
	H60	H	0.089785	0.398286	0.587204
	H61	H	0.865734	0.586110	0.591257
	H62	H	0.091450	0.576619	0.408815
	H63	H	0.867308	0.399657	0.419887
	H64	H	0.387109	0.575853	0.114358
	H65	H	0.575538	0.578509	0.888820
	H66	H	0.568731	0.400782	0.115516
	H67	H	0.389945	0.397546	0.890061
	H68	H	0.567287	0.102132	0.413893
	H69	H	0.566683	0.881837	0.586102
	H70	H	0.377027	0.106935	0.594028
	H71	H	0.386307	0.879745	0.410985
	H72	H	0.890766	0.603014	0.096131
	H73	H	0.063646	0.381252	0.088240
	H74	H	0.071456	0.603456	0.910642
	H75	H	0.888413	0.380772	0.917007
	H76	H	0.072299	0.900159	0.616634
	H77	H	0.066628	0.085461	0.390131
	H78	H	0.891289	0.076183	0.612072
	H79	H	0.885481	0.903346	0.389233
	H80	H	0.590408	0.080288	0.912028
	H81	H	0.367092	0.080407	0.089850
	H82	H	0.591550	0.897062	0.094692
	H83	H	0.363397	0.895950	0.910231
	H84	H	0.589912	0.899261	0.090122
	H85	H	0.366406	0.079789	0.094722
	H86	H	0.590934	0.082490	0.910974
	H87	H	0.366638	0.900378	0.919120
	H88	H	0.890978	0.081708	0.613186
	H89	H	0.072433	0.080734	0.390117
	H90	H	0.066066	0.901076	0.614754
	H91	H	0.893070	0.900033	0.390881
	H92	H	0.065907	0.601565	0.910368
	H93	H	0.072805	0.377025	0.089570
	H94	H	0.887978	0.599912	0.089036
	H95	H	0.887609	0.378476	0.912343
	H96	H	0.391718	0.104833	0.603084
	H97	H	0.574182	0.876281	0.593984
	H98	H	0.571380	0.103609	0.413221
	H99	H	0.388268	0.880554	0.411821
	H100	H	0.565750	0.401592	0.113713
	H101	H	0.562784	0.578409	0.893605
	H102	H	0.391492	0.585186	0.116104
	H103	H	0.386744	0.403290	0.890659
	H104	H	0.093304	0.584072	0.410135
	H105	H	0.868293	0.577826	0.588508
	H106	H	0.088361	0.405385	0.591543
	H107	H	0.866800	0.406625	0.412030
	H108	H	0.882964	0.603941	0.094305
	H109	H	0.066149	0.377569	0.097240
	H110	H	0.069188	0.600823	0.915017
	H111	H	0.892110	0.381104	0.913587
	H112	H	0.067978	0.895261	0.617032
	H113	H	0.065879	0.078967	0.393056
	H114	H	0.886603	0.078615	0.613994
	H115	H	0.886854	0.895583	0.387860
	H116	H	0.590528	0.082318	0.913472
	H117	H	0.366145	0.084450	0.092964
	H118	H	0.590598	0.902022	0.094371
	H119	H	0.366289	0.905885	0.910128
	C120	C	0.356434	-0.000324	0.624511
	C121	C	0.600104	0.982166	0.624381
	C122	C	0.599463	-0.000740	0.381123
	C123	C	0.356536	0.983959	0.381504
	C124	C	0.599186	0.369627	0.011144
	C125	C	0.598435	0.612288	0.994680
	C126	C	0.356138	0.612275	0.012103
	C127	C	0.357460	0.369551	0.994594
	C128	C	-0.012501	0.611708	0.380827
	C129	C	0.970535	0.611779	0.623069
	C130	C	-0.013376	0.369510	0.623835
	C131	C	0.969570	0.368853	0.381506
	C132	C	0.855594	0.499229	0.124986
	C133	C	0.098803	0.481824	0.123516
	C134	C	0.100311	0.498575	0.880683
	C135	C	0.857052	0.483379	0.881937
	C136	C	0.099481	0.869575	0.511193
	C137	C	0.098872	0.112394	0.495182
	C138	C	0.857624	0.110906	0.509825
	C139	C	0.856979	0.868378	0.493412
	C140	C	0.486217	0.112341	0.881325
	C141	C	0.470529	0.111981	0.123561
	C142	C	0.486017	0.870062	0.124286
	C143	C	0.469501	0.869091	0.881418
	C144	C	0.356915	0.880991	0.682078
	C145	C	0.601621	0.099921	0.683827
	C146	C	0.598617	0.881043	0.323174
	C147	C	0.356097	0.102156	0.323371
	C148	C	0.658458	0.369162	0.892659
	C149	C	0.655109	0.610940	0.114426
	C150	C	0.298741	0.612406	0.892866
	C151	C	0.298874	0.369394	0.113694
	C152	C	0.869717	0.671975	0.378870
	C153	C	0.089318	0.669736	0.623357
	C154	C	0.868506	0.310428	0.626387
	C155	C	0.088114	0.309767	0.379740
	C156	C	0.868803	0.367705	0.684559
	C157	C	0.089090	0.612284	0.681558
	C158	C	0.868503	0.611960	0.323335
	C159	C	0.087452	0.366702	0.321124
	C160	C	0.355110	0.671338	0.893719
	C161	C	0.596907	0.668558	0.114772
	C162	C	0.601187	0.311062	0.892635
	C163	C	0.355447	0.310235	0.112872
	C164	C	0.656743	0.880531	0.380686
	C165	C	0.660041	0.099506	0.625923
	C166	C	0.299251	0.880982	0.624120
	C167	C	0.298753	0.102674	0.382186
	C168	C	0.853022	0.382029	0.185187
	C169	C	0.099712	0.599403	0.182890
	C170	C	0.101690	0.380945	0.821333
	C171	C	0.856465	0.601236	0.823126
	C172	C	0.157173	0.871181	0.391982
	C173	C	0.156804	0.112827	0.614115
	C174	C	0.798596	0.112908	0.391694
	C175	C	0.797473	0.867365	0.611550
	C176	C	0.367320	0.170513	0.881123
	C177	C	0.589172	0.170302	0.124301
	C178	C	0.366902	0.813394	0.124755
	C179	C	0.587645	0.809932	0.879836
	C180	C	0.367015	0.871395	0.182280
	C181	C	0.589027	0.112862	0.182450
	C182	C	0.366904	0.111596	0.824387
	C183	C	0.587971	0.868186	0.822474
	C184	C	0.855018	0.171888	0.392712
	C185	C	0.099474	0.171463	0.613569
	C186	C	0.100365	0.812467	0.392091
	C187	C	0.855336	0.809370	0.611599
	C188	C	0.159764	0.380766	0.879069
	C189	C	0.157155	0.599909	0.124352
	C190	C	0.794858	0.382311	0.127648
	C191	C	0.798204	0.601287	0.881037
	C192	C	0.379968	0.082327	0.601176
	C193	C	0.575147	0.900481	0.599777
	C194	C	0.576005	0.081990	0.405544
	C195	C	0.380181	0.901502	0.405150
	C196	C	0.574109	0.393709	0.093569
	C197	C	0.575346	0.589280	0.911658
	C198	C	0.379746	0.588347	0.094800
	C199	C	0.382542	0.394142	0.912307
	C200	C	0.070130	0.587037	0.404781
	C201	C	0.887984	0.588002	0.599271
	C202	C	0.068671	0.394054	0.598402
	C203	C	0.887210	0.394006	0.406938
	C204	C	0.880447	0.580985	0.100352
	C205	C	0.074452	0.399888	0.098757
	C206	C	0.075836	0.580731	0.905121
	C207	C	0.882125	0.401318	0.907045
	C208	C	0.075614	0.892386	0.594486
	C209	C	0.075118	0.088427	0.412493
	C210	C	0.882574	0.085925	0.591864
	C211	C	0.881373	0.892686	0.410720
	C212	C	0.569088	0.088623	0.905270
	C213	C	0.388021	0.088356	0.099418
	C214	C	0.569192	0.892817	0.100066
	C215	C	0.386943	0.893698	0.906090
	Zn216	Zn	0.478214	-0.009252	0.753119
	Zn217	Zn	0.478295	-0.008129	0.252642
	Zn218	Zn	0.727327	0.491119	0.003033
	Zn219	Zn	0.228541	0.490387	0.002522
	Zn220	Zn	-0.020780	0.740260	0.501965
	Zn221	Zn	-0.022701	0.240814	0.502816
	Zn222	Zn	-0.021383	0.490838	0.752183
	Zn223	Zn	-0.022406	0.490146	0.252936
	Zn224	Zn	0.477365	0.740998	0.003669
	Zn225	Zn	0.478741	0.240776	0.002481
	Zn226	Zn	0.728765	-0.009652	0.501350
	Zn227	Zn	0.227656	-0.008467	0.503599
	N228	N	0.391612	0.955874	0.682591
	N229	N	0.565122	0.025862	0.683013
	N230	N	0.564109	0.956160	0.323091
	N231	N	0.391009	0.027170	0.322645
	N232	N	0.657772	0.404470	0.967546
	N233	N	0.656611	0.577156	0.038730
	N234	N	0.298884	0.576549	0.967600
	N235	N	0.299714	0.405398	0.038976
	N236	N	0.944951	0.672083	0.413660
	N237	N	0.014500	0.669718	0.587926
	N238	N	0.942692	0.311404	0.589346
	N239	N	0.013479	0.310880	0.416480
	N240	N	0.943362	0.403629	0.683261
	N241	N	0.014140	0.576874	0.681577
	N242	N	0.942837	0.575328	0.324313
	N243	N	0.012587	0.402407	0.321963
	N244	N	0.389863	0.671718	0.968899
	N245	N	0.562854	0.669882	0.039191
	N246	N	0.565099	0.311041	0.967440
	N247	N	0.390890	0.310012	0.037821
	N248	N	0.657591	0.955364	0.415711
	N249	N	0.659645	0.025223	0.589916
	N250	N	0.298490	0.955885	0.589329
	N251	N	0.298630	0.028119	0.417567
	N252	N	0.890056	0.455716	0.183601
	N253	N	0.064166	0.525008	0.182390
	N254	N	0.065580	0.455303	0.822150
	N255	N	0.892326	0.526559	0.823417
	N256	N	0.156885	0.905933	0.467229
	N257	N	0.156481	0.076836	0.539557
	N258	N	0.800137	0.075328	0.465603
	N259	N	0.798123	0.903123	0.536806
	N260	N	0.442657	0.171412	0.915433
	N261	N	0.514394	0.170046	0.088423
	N262	N	0.441998	0.812347	0.089529
	N263	N	0.512684	0.810299	0.915786
	N264	N	0.442307	0.905945	0.182268
	N265	N	0.514238	0.077535	0.182075
	N266	N	0.442131	0.076422	0.824146
	N267	N	0.513351	0.904246	0.823252
	N268	N	0.891071	0.170720	0.467125
	N269	N	0.064325	0.171442	0.538552
	N270	N	0.065319	0.811260	0.467334
	N271	N	0.891540	0.809875	0.536866
	N272	N	0.159322	0.455025	0.915146
	N273	N	0.156680	0.525658	0.088037
	N274	N	0.796284	0.456214	0.090690
	N275	N	0.798522	0.526817	0.916751
	O276	O	-0.008741	0.768701	0.134267
	H277	H	-0.022131	0.763115	0.146393
	H278	H	-0.028569	0.773992	0.124834
	O279	O	0.460445	0.325526	0.641782
	H280	H	0.464003	0.312966	0.671289
	H281	H	0.465941	0.342162	0.637682
	O282	O	0.810094	0.177710	1.170132
	H283	H	0.813489	0.165787	1.147120
	H284	H	0.820392	0.159366	1.148614
	O285	O	0.463290	0.708665	0.332047
	H286	H	0.444311	0.715440	0.322365
	H287	H	0.440652	0.706342	0.320131
	O288	O	0.536416	0.648303	0.496113
	H289	H	0.534160	0.635458	0.497464
	H290	H	0.534222	0.654252	0.483499
	O291	O	0.700497	0.527215	0.724445
	H292	H	0.702048	0.554168	0.725276
	H293	H	0.720532	0.541888	0.748557
	O294	O	0.763198	0.027221	0.786607
	H295	H	0.745231	0.014704	0.762532
	H296	H	0.783381	0.005596	0.782607
	O297	O	0.258624	0.714787	0.725202
	H298	H	0.272685	0.697573	0.731574
	H299	H	0.286519	0.695844	0.703051
	O300	O	-0.225014	-0.020778	0.970023
	H301	H	-0.227044	-0.020745	0.972513
	H302	H	-0.222849	-0.031552	0.979146
	O303	O	0.751056	-0.233540	0.041344
	H304	H	0.732227	-0.248924	0.047452
	H305	H	0.745927	-0.238664	0.062040
	O306	O	1.179468	0.784415	0.840100
	H307	H	1.191315	0.774651	0.882369
	H308	H	1.194253	0.761073	0.827760
	O309	O	0.506137	0.270444	0.281901
	H310	H	0.527079	0.257068	0.277882
	H311	H	0.530514	0.256624	0.281720
	O312	O	0.538959	0.463324	0.481921
	H313	H	0.545595	0.469583	0.476180
	H314	H	0.542255	0.472018	0.476290
	O315	O	1.108424	1.028645	1.012490
	H316	H	1.108056	1.037124	1.009950
	H317	H	1.116365	1.036728	1.001570
	O318	O	0.365860	0.486115	0.712372
	H319	H	0.376774	0.475208	0.715938
	H320	H	0.348726	0.482236	0.710790
	O321	O	0.497226	0.603059	0.429395
	H322	H	0.497585	0.598423	0.419839
	H323	H	0.486054	0.600952	0.423534
	O324	O	0.797009	0.813591	-0.173028
	H325	H	0.816260	0.822873	-0.161797
	H326	H	0.816764	0.835904	-0.164651
	O327	O	-0.061632	-0.121540	1.211411
	H328	H	-0.063440	-0.111585	1.218320
	H329	H	-0.041222	-0.118568	1.216851
	O330	O	0.769562	0.781582	1.212144
	H331	H	0.804880	0.773079	1.199321
	H332	H	0.739727	0.746894	1.244917
	O333	O	0.180044	0.192762	0.203351
	H334	H	0.192470	0.201721	0.196049
	H335	H	0.140225	0.196298	0.196121
	O336	O	1.196138	0.214092	0.037182
	H337	H	1.206936	0.207289	0.036787
	H338	H	1.211218	0.223580	0.041006
	O339	O	1.133649	0.137960	0.828337
	H340	H	1.129250	0.146271	0.846155
	H341	H	1.147155	0.139242	0.811663
	O342	O	0.644580	0.402873	-0.355154
	H343	H	0.654167	0.401950	-0.343398
	H344	H	0.661082	0.405888	-0.342710
	O345	O	0.003719	1.035619	1.222846
	H346	H	-0.008439	1.056239	1.217827
	H347	H	0.008405	1.056144	1.227068
	O348	O	0.526653	0.284729	0.487516
	H349	H	0.530959	0.290775	0.480086
	H350	H	0.525127	0.288870	0.479366
	O351	O	0.986808	1.133955	0.019745
	H352	H	0.976131	1.137705	0.009197
	H353	H	0.989847	1.119738	0.013163
	O354	O	-0.225376	0.196184	0.796586
	H355	H	-0.206973	0.191502	0.818719
	H356	H	-0.219275	0.158820	0.790706
	O357	O	0.254899	0.458277	0.447785
	H358	H	0.258494	0.468099	0.465425
	H359	H	0.253279	0.471174	0.426816
	O360	O	0.608122	0.297512	0.626951
	H361	H	0.617419	0.276340	0.651752
	H362	H	0.604862	0.295335	0.615485
	O363	O	-0.298838	-0.291359	-0.463871
	H364	H	-0.304743	-0.296413	-0.467779
	H365	H	-0.280325	-0.268783	-0.457338
	O366	O	0.553321	0.476015	0.337154
	H367	H	0.547000	0.462403	0.324551
	H368	H	0.559272	0.453915	0.335853
	O369	O	0.977108	-0.225213	0.012679
	H370	H	0.953940	-0.225991	0.008472
	H371	H	0.967077	-0.220861	0.004288
	O372	O	1.459410	1.477625	0.723583
	H373	H	1.472936	1.493181	0.724126
	H374	H	1.481398	1.466990	0.723725
	O375	O	0.885206	0.085593	-0.034499
	H376	H	0.885201	0.074630	-0.020147
	H377	H	0.864755	0.084762	-0.031032
	O378	O	0.264737	0.278278	0.715581
	H379	H	0.284305	0.283954	0.713219
	H380	H	0.255846	0.272736	0.681776
	O381	O	-0.139001	0.941419	0.868795
	H382	H	-0.119628	0.942994	0.866945
	H383	H	-0.128149	0.935606	0.872420
	O384	O	1.194362	-0.044746	0.787673
	H385	H	1.183585	-0.085678	0.791886
	H386	H	1.220316	-0.051845	0.755198
	O387	O	0.938521	0.983236	0.059528
	H388	H	0.938382	0.962448	0.060399
	H389	H	0.917328	1.003239	0.057765
	O390	O	0.434218	0.477810	0.593741
	H391	H	0.431977	0.461903	0.608681
	H392	H	0.437249	0.476365	0.593952
	O393	O	0.261222	0.527302	0.286633
	H394	H	0.249683	0.538923	0.280336
	H395	H	0.252318	0.539498	0.274163
	O396	O	-0.053659	1.209216	0.788907
	H397	H	-0.044597	1.210941	0.797560
	H398	H	-0.060141	1.227442	0.778327
	O399	O	-0.638179	0.364644	0.352717
	H400	H	-0.634966	0.351513	0.334481
	H401	H	-0.622573	0.359098	0.362132
	O402	O	0.323694	0.274436	0.600447
	H403	H	0.323071	0.280279	0.589871
	H404	H	0.304516	0.257800	0.596413
	O405	O	0.767914	0.160981	1.007129
	H406	H	0.750481	0.156222	1.003609
	H407	H	0.769046	0.149025	0.991991
	O408	O	0.026911	-0.036369	-0.065470
	H409	H	0.036218	-0.052112	-0.071217
	H410	H	0.042517	-0.032390	-0.072768
	O411	O	1.160779	0.931015	1.109164
	H412	H	1.160782	0.958074	1.126096
	H413	H	1.167020	0.945345	1.104381
	O414	O	0.752209	-0.046170	0.222595
	H415	H	0.736794	-0.067973	0.240639
	H416	H	0.746457	-0.075360	0.234140
	O417	O	0.520155	0.419050	0.518395
	H418	H	0.525330	0.416384	0.520515
	H419	H	0.512597	0.416088	0.524043
	O420	O	0.318194	0.696966	0.294306
	H421	H	0.291858	0.718959	0.266173
	H422	H	0.303758	0.686191	0.315197
	O423	O	0.194843	0.026609	1.222179
	H424	H	0.186611	0.063069	1.216497
	H425	H	0.220236	0.037030	1.242926
	O426	O	0.703428	0.552716	0.449316
	H427	H	0.696509	0.553242	0.471018
	H428	H	0.707548	0.543749	0.434910
	O429	O	1.034008	1.216084	0.942982
	H430	H	1.026363	1.203038	0.951758
	H431	H	1.054610	1.216909	0.950064
	O432	O	0.686126	0.694198	0.708509
	H433	H	0.663880	0.702823	0.684339
	H434	H	0.710796	0.716529	0.729234
	O435	O	0.305897	0.511801	0.402890
	H436	H	0.324696	0.521061	0.398133
	H437	H	0.297291	0.519870	0.411897
	O438	O	-0.011305	0.212621	0.179812
	H439	H	-0.023699	0.218124	0.163820
	H440	H	-0.009490	0.229243	0.183905
	O441	O	0.480089	0.318843	0.501359
	H442	H	0.477277	0.311049	0.504361
	H443	H	0.484331	0.309671	0.509786
	O444	O	0.681167	0.283386	0.369723
	H445	H	0.700624	0.274520	0.368528
	H446	H	0.678412	0.301302	0.385616
	O447	O	-0.075863	0.841099	0.999472
	H448	H	-0.070869	0.833541	1.005703
	H449	H	-0.068120	0.840842	0.995504
	O450	O	0.008077	0.776855	0.782325
	H451	H	0.032454	0.762813	0.775735
	H452	H	0.034879	0.769798	0.775843
	O453	O	0.320041	0.702370	0.486467
	H454	H	0.310969	0.714097	0.489427
	H455	H	0.322051	0.689303	0.510000
	O456	O	-0.005226	0.021974	0.900564
	H457	H	-0.003726	0.019375	0.903348
	H458	H	0.001996	0.029500	0.901234
	O459	O	1.178019	0.784796	0.019490
	H460	H	1.172376	0.788048	0.029919
	H461	H	1.177267	0.794281	0.028483
	O462	O	1.197255	0.772317	0.219767
	H463	H	1.181874	0.792900	0.224645
	H464	H	1.170787	0.788628	0.196714
	O465	O	1.089191	0.050113	-0.151872
	H466	H	1.101983	0.040761	-0.157073
	H467	H	1.083052	0.064812	-0.159127
	O468	O	0.455648	0.480892	0.295169
	H469	H	0.427856	0.474033	0.281162
	H470	H	0.465027	0.463590	0.291533
	O471	O	0.670010	0.679996	0.313779
	H472	H	0.648426	0.665137	0.331435
	H473	H	0.651412	0.657416	0.330756
	O474	O	0.509585	0.703757	0.721469
	H475	H	0.518181	0.721888	0.727621
	H476	H	0.509163	0.707288	0.720192
	O477	O	0.458530	0.385293	1.578223
	H478	H	0.470253	0.378733	1.575843
	H479	H	0.466466	0.387006	1.579795
	O480	O	0.272212	0.552523	0.659744
	H481	H	0.267087	0.545649	0.667387
	H482	H	0.279056	0.525220	0.646287
	O483	O	0.399560	0.619093	0.551866
	H484	H	0.410496	0.610820	0.545193
	H485	H	0.410391	0.608115	0.558351
	O486	O	0.685014	0.386014	0.300190
	H487	H	0.684821	0.373520	0.295537
	H488	H	0.692428	0.391648	0.316784
	O489	O	0.914572	1.011609	0.126230
	H490	H	0.906813	1.008439	0.143811
	H491	H	0.913670	1.006487	0.109215
