data_Molecule from HDF5

_cell_length_a		16.253801
_cell_length_b		16.320173
_cell_length_c		16.143947
_cell_angle_alpha	90.240684
_cell_angle_beta	90.007557
_cell_angle_gamma	89.787944
_symmetry_space_group_name_H-M	'P 1'
_symmetry_Int_Tables_number		1

loop_
	_symmetry_equiv_pos_as_xyz
	x,y,z

loop_
	_atom_site_label
	_atom_site_type_symbol
	_atom_site_fract_x
	_atom_site_fract_y
	_atom_site_fract_z
	H0	H	0.399958	0.834027	0.707111
	H1	H	0.593985	0.160994	0.709939
	H2	H	0.597865	0.835087	0.279506
	H3	H	0.399615	0.162452	0.279951
	H4	H	0.713892	0.397996	0.829109
	H5	H	0.712721	0.595790	0.159599
	H6	H	0.284990	0.595194	0.828790
	H7	H	0.285150	0.399326	0.159321
	H8	H	0.836008	0.714312	0.393915
	H9	H	0.162756	0.715922	0.595850
	H10	H	0.835572	0.285023	0.595772
	H11	H	0.161696	0.281038	0.393909
	H12	H	0.834768	0.402923	0.707053
	H13	H	0.164579	0.595475	0.707635
	H14	H	0.835762	0.598281	0.280203
	H15	H	0.163410	0.399839	0.280771
	H16	H	0.400086	0.711353	0.828733
	H17	H	0.599718	0.712478	0.158828
	H18	H	0.598971	0.282004	0.829788
	H19	H	0.401652	0.284440	0.159478
	H20	H	0.716005	0.836950	0.392463
	H21	H	0.710488	0.162882	0.594381
	H22	H	0.282442	0.835548	0.592973
	H23	H	0.282028	0.162158	0.395265
	H24	H	0.903476	0.334900	0.207220
	H25	H	0.098769	0.662736	0.210236
	H26	H	0.099280	0.334074	0.779447
	H27	H	0.903478	0.662809	0.783399
	H28	H	0.212385	0.900856	0.328834
	H29	H	0.212332	0.098084	0.659861
	H30	H	0.783751	0.097956	0.329200
	H31	H	0.785900	0.903582	0.659706
	H32	H	0.336491	0.215046	0.893168
	H33	H	0.663297	0.211849	0.094247
	H34	H	0.335007	0.781988	0.094315
	H35	H	0.662945	0.781622	0.893144
	H36	H	0.333719	0.901696	0.207528
	H37	H	0.663272	0.094033	0.207527
	H38	H	0.333306	0.093234	0.784049
	H39	H	0.662654	0.898778	0.779106
	H40	H	0.898812	0.214066	0.330089
	H41	H	0.096187	0.213227	0.659614
	H42	H	0.100494	0.782705	0.330038
	H43	H	0.899764	0.785371	0.658817
	H44	H	0.214792	0.334171	0.895577
	H45	H	0.214699	0.661558	0.094053
	H46	H	0.786138	0.334873	0.093501
	H47	H	0.782624	0.660078	0.894600
	H48	H	0.404477	0.118603	0.600705
	H49	H	0.597142	0.877793	0.597140
	H50	H	0.589848	0.118753	0.388945
	H51	H	0.403693	0.878767	0.389784
	H52	H	0.590511	0.404941	0.111079
	H53	H	0.600221	0.592643	0.873229
	H54	H	0.404469	0.594089	0.113262
	H55	H	0.407328	0.406610	0.877632
	H56	H	0.114965	0.585993	0.401418
	H57	H	0.880597	0.600102	0.589530
	H58	H	0.116404	0.399317	0.580893
	H59	H	0.886439	0.414730	0.406807
	H60	H	0.114294	0.411592	0.585195
	H61	H	0.884996	0.592369	0.582311
	H62	H	0.119087	0.595697	0.400055
	H63	H	0.879353	0.406205	0.390094
	H64	H	0.405695	0.586046	0.111007
	H65	H	0.591015	0.580230	0.879208
	H66	H	0.594655	0.402272	0.113150
	H67	H	0.409628	0.403946	0.877167
	H68	H	0.581182	0.110432	0.406608
	H69	H	0.580889	0.885999	0.583756
	H70	H	0.415508	0.110331	0.583704
	H71	H	0.415759	0.887228	0.405675
	H72	H	0.904769	0.614516	0.084796
	H73	H	0.092508	0.382610	0.087436
	H74	H	0.096892	0.613777	0.908953
	H75	H	0.902938	0.380693	0.904242
	H76	H	0.081850	0.910798	0.607135
	H77	H	0.086788	0.096471	0.376397
	H78	H	0.897671	0.094752	0.614997
	H79	H	0.900372	0.900977	0.373071
	H80	H	0.617355	0.096961	0.903833
	H81	H	0.380839	0.097984	0.086270
	H82	H	0.618655	0.891531	0.084862
	H83	H	0.384983	0.905376	0.908756
	H84	H	0.610476	0.910176	0.077198
	H85	H	0.384447	0.090216	0.081711
	H86	H	0.612896	0.085125	0.907473
	H87	H	0.381834	0.908611	0.896347
	H88	H	0.905666	0.088508	0.610863
	H89	H	0.095894	0.089180	0.376437
	H90	H	0.091548	0.899127	0.613607
	H91	H	0.904246	0.914864	0.378752
	H92	H	0.097870	0.617697	0.895261
	H93	H	0.093194	0.383876	0.086069
	H94	H	0.905156	0.615750	0.089200
	H95	H	0.906846	0.380146	0.894723
	H96	H	0.394421	0.115210	0.581494
	H97	H	0.601738	0.881935	0.575709
	H98	H	0.602047	0.117180	0.406646
	H99	H	0.395516	0.882505	0.408624
	H100	H	0.595097	0.406910	0.111747
	H101	H	0.584601	0.594523	0.877595
	H102	H	0.412803	0.591789	0.110472
	H103	H	0.405755	0.403525	0.876718
	H104	H	0.114974	0.592441	0.409198
	H105	H	0.882743	0.589153	0.592638
	H106	H	0.118801	0.402862	0.592694
	H107	H	0.880416	0.395488	0.406406
	H108	H	0.909042	0.613205	0.086969
	H109	H	0.094950	0.382274	0.087331
	H110	H	0.086234	0.612462	0.900155
	H111	H	0.911895	0.383397	0.902184
	H112	H	0.096782	0.914365	0.611186
	H113	H	0.085710	0.085719	0.380424
	H114	H	0.907276	0.099111	0.612774
	H115	H	0.914744	0.903191	0.378003
	H116	H	0.617041	0.087948	0.894643
	H117	H	0.381721	0.090178	0.090786
	H118	H	0.617380	0.908153	0.098686
	H119	H	0.379665	0.896791	0.900043
	C120	C	0.376008	0.006630	0.616665
	C121	C	0.620027	0.990039	0.615434
	C122	C	0.620255	0.007537	0.372237
	C123	C	0.376222	0.990793	0.372659
	C124	C	0.622103	0.375694	0.003247
	C125	C	0.621043	0.618257	0.985673
	C126	C	0.378399	0.619262	0.002367
	C127	C	0.378759	0.376493	0.986147
	C128	C	0.008182	0.620380	0.373886
	C129	C	0.991246	0.621940	0.617103
	C130	C	0.007727	0.377753	0.615250
	C131	C	0.990514	0.376474	0.372712
	C132	C	0.878163	0.506669	0.115985
	C133	C	0.121903	0.490635	0.116631
	C134	C	0.122360	0.506377	0.872166
	C135	C	0.878275	0.489361	0.871994
	C136	C	0.119909	0.878124	0.502452
	C137	C	0.118913	0.120136	0.486306
	C138	C	0.875452	0.122142	0.503498
	C139	C	0.877702	0.878316	0.485629
	C140	C	0.507504	0.119153	0.872883
	C141	C	0.490689	0.120246	0.115742
	C142	C	0.506953	0.875732	0.115724
	C143	C	0.490527	0.875027	0.872481
	C144	C	0.379150	0.883157	0.670152
	C145	C	0.615664	0.112508	0.672066
	C146	C	0.617834	0.884208	0.317359
	C147	C	0.378754	0.113587	0.317507
	C148	C	0.676594	0.377614	0.878618
	C149	C	0.675720	0.616282	0.109888
	C150	C	0.322850	0.616085	0.878164
	C151	C	0.323537	0.379334	0.110430
	C152	C	0.884960	0.676420	0.373939
	C153	C	0.114129	0.677188	0.615317
	C154	C	0.884266	0.323367	0.614479
	C155	C	0.113225	0.319823	0.374193
	C156	C	0.884013	0.381764	0.670320
	C157	C	0.115179	0.617532	0.670993
	C158	C	0.884953	0.618279	0.317870
	C159	C	0.114263	0.379023	0.318211
	C160	C	0.380164	0.673604	0.878113
	C161	C	0.619390	0.674503	0.109337
	C162	C	0.619638	0.319954	0.879021
	C163	C	0.381329	0.322185	0.110328
	C164	C	0.677127	0.885261	0.373106
	C165	C	0.673751	0.113337	0.614578
	C166	C	0.320804	0.883954	0.613389
	C167	C	0.320375	0.113573	0.374617
	C168	C	0.881748	0.383737	0.170393
	C169	C	0.119026	0.613366	0.172337
	C170	C	0.119862	0.383288	0.816898
	C171	C	0.881458	0.613057	0.818898
	C172	C	0.175415	0.880127	0.378285
	C173	C	0.174515	0.118349	0.610504
	C174	C	0.821290	0.118729	0.378715
	C175	C	0.823278	0.882180	0.610144
	C176	C	0.384802	0.175748	0.874371
	C177	C	0.614286	0.174243	0.114153
	C178	C	0.383907	0.820351	0.114222
	C179	C	0.613971	0.819860	0.873720
	C180	C	0.383065	0.879884	0.170401
	C181	C	0.614224	0.115621	0.170302
	C182	C	0.383290	0.115422	0.819547
	C183	C	0.613794	0.877857	0.816982
	C184	C	0.878526	0.176238	0.379222
	C185	C	0.116693	0.175555	0.610352
	C186	C	0.119334	0.821682	0.378901
	C187	C	0.880168	0.823715	0.609776
	C188	C	0.177122	0.383080	0.875073
	C189	C	0.177063	0.613059	0.114754
	C190	C	0.823834	0.383639	0.113444
	C191	C	0.821590	0.611802	0.874494
	C192	C	0.398046	0.092453	0.595096
	C193	C	0.599385	0.904016	0.592306
	C194	C	0.597647	0.093360	0.394352
	C195	C	0.398377	0.905068	0.395047
	C196	C	0.599962	0.398163	0.089634
	C197	C	0.598687	0.595779	0.898912
	C198	C	0.400997	0.597251	0.089074
	C199	C	0.400774	0.398354	0.899708
	C200	C	0.093931	0.597987	0.397000
	C201	C	0.905053	0.600375	0.594649
	C202	C	0.094095	0.398534	0.592851
	C203	C	0.904473	0.398961	0.394563
	C204	C	0.899931	0.592362	0.093647
	C205	C	0.099978	0.404827	0.093687
	C206	C	0.100202	0.592402	0.894845
	C207	C	0.900740	0.403612	0.893708
	C208	C	0.096852	0.901310	0.588467
	C209	C	0.096209	0.097235	0.400186
	C210	C	0.897109	0.100571	0.590501
	C211	C	0.899819	0.900044	0.399002
	C212	C	0.593386	0.096740	0.895439
	C213	C	0.404544	0.099080	0.092841
	C214	C	0.593048	0.897022	0.093570
	C215	C	0.404619	0.897003	0.895082
	Zn216	Zn	0.498175	-0.003023	0.744339
	Zn217	Zn	0.498299	-0.001458	0.243671
	Zn218	Zn	0.749896	0.497253	-0.005599
	Zn219	Zn	0.250601	0.498099	-0.005394
	Zn220	Zn	-0.000502	0.749432	0.493704
	Zn221	Zn	-0.002316	0.248990	0.495215
	Zn222	Zn	0.000136	0.497915	0.743750
	Zn223	Zn	-0.000539	0.499183	0.245453
	Zn224	Zn	0.499824	0.746521	-0.006357
	Zn225	Zn	0.500066	0.248164	-0.005389
	Zn226	Zn	0.748812	-0.000251	0.493777
	Zn227	Zn	0.247764	-0.000748	0.494685
	N228	N	0.412713	0.960337	0.672189
	N229	N	0.583093	0.034795	0.672679
	N230	N	0.583255	0.961293	0.316540
	N231	N	0.412794	0.036270	0.316177
	N232	N	0.678130	0.411706	0.956744
	N233	N	0.676787	0.581724	0.031998
	N234	N	0.321773	0.582883	0.956431
	N235	N	0.321877	0.412523	0.032245
	N236	N	0.962462	0.677752	0.408261
	N237	N	0.035959	0.680128	0.582746
	N238	N	0.962158	0.320600	0.581141
	N239	N	0.035148	0.318289	0.407464
	N240	N	0.961743	0.414949	0.670806
	N241	N	0.037666	0.583983	0.672389
	N242	N	0.962514	0.584076	0.317488
	N243	N	0.037050	0.413589	0.317178
	N244	N	0.413913	0.675547	0.956308
	N245	N	0.586216	0.676092	0.030898
	N246	N	0.586398	0.318573	0.957404
	N247	N	0.414741	0.320188	0.032144
	N248	N	0.678659	0.962894	0.406742
	N249	N	0.676440	0.036067	0.580118
	N250	N	0.318531	0.961859	0.580940
	N251	N	0.318651	0.036234	0.408037
	N252	N	0.914893	0.461218	0.172157
	N253	N	0.085515	0.536048	0.173761
	N254	N	0.086526	0.461052	0.814983
	N255	N	0.915813	0.535860	0.817143
	N256	N	0.175799	0.914767	0.456078
	N257	N	0.176124	0.084668	0.532260
	N258	N	0.819220	0.085954	0.457101
	N259	N	0.821667	0.915550	0.531934
	N260	N	0.463126	0.178325	0.906675
	N261	N	0.536580	0.176960	0.080626
	N262	N	0.461967	0.817380	0.081120
	N263	N	0.536302	0.817854	0.907530
	N264	N	0.460608	0.913434	0.171529
	N265	N	0.536242	0.082933	0.171518
	N266	N	0.460580	0.080886	0.818396
	N267	N	0.536132	0.911589	0.816044
	N268	N	0.911535	0.178401	0.457737
	N269	N	0.082567	0.176508	0.532301
	N270	N	0.085651	0.820298	0.456940
	N271	N	0.913158	0.821268	0.531333
	N272	N	0.178772	0.460759	0.908601
	N273	N	0.178880	0.535674	0.080824
	N274	N	0.821526	0.461175	0.080213
	N275	N	0.819246	0.533935	0.906669
	O276	O	0.093221	-0.012076	-0.010042
	H277	H	0.102900	-0.018241	-0.012109
	H278	H	0.093297	-0.023330	-0.013829
	O279	O	0.448528	0.557495	0.379563
	H280	H	0.444235	0.563877	0.374394
	H281	H	0.451765	0.552424	0.378029
	O282	O	0.483183	0.636626	0.504053
	H283	H	0.479442	0.643352	0.510312
	H284	H	0.489623	0.639670	0.503838
	O285	O	0.020108	0.023714	0.949598
	H286	H	0.031431	0.012618	0.942770
	H287	H	0.023055	0.021953	0.946924
	O288	O	0.562177	0.467907	0.430677
	H289	H	0.555398	0.465715	0.426407
	H290	H	0.558105	0.463095	0.421363
	O291	O	0.931183	0.990244	0.951147
	H292	H	0.922849	0.980727	0.950127
	H293	H	0.928239	0.990324	0.940826
	O294	O	0.987906	0.929238	1.048093
	H295	H	0.979198	0.931046	1.046493
	H296	H	0.976191	0.924554	1.050808
	O297	O	1.061597	0.034541	0.991616
	H298	H	1.050326	0.032987	0.984822
	H299	H	1.060151	0.038710	0.991624
	O300	O	0.479954	0.431287	0.460727
	H301	H	0.477931	0.433150	0.470293
	H302	H	0.487225	0.433714	0.466103
	O303	O	1.410662	0.569767	-0.531372
	H304	H	1.415043	0.588290	-0.537231
	H305	H	1.415930	0.558343	-0.533831
	O306	O	0.029141	1.068050	1.032242
	H307	H	0.026288	1.056980	1.040365
	H308	H	0.023838	1.072669	1.034896
	O309	O	0.500213	0.466535	0.505082
	H310	H	0.502885	0.465134	0.493882
	H311	H	0.490976	0.474927	0.503628
	O312	O	1.089004	-0.000463	0.983993
	H313	H	1.094149	0.002627	0.991152
	H314	H	1.093365	-0.005606	0.990558
	O315	O	0.530269	0.554811	0.442050
	H316	H	0.530048	0.559239	0.431172
	H317	H	0.526836	0.554620	0.439632
	O318	O	-0.012630	0.937741	1.012053
	H319	H	-0.012819	0.935304	1.015901
	H320	H	-0.015500	0.938179	1.007936
	O321	O	1.022718	0.895540	1.002285
	H322	H	1.019285	0.896887	1.002451
	H323	H	1.030773	0.904314	1.001468
	O324	O	0.507371	0.485637	0.452983
	H325	H	0.505093	0.488425	0.452321
	H326	H	0.511229	0.470805	0.455453
	O327	O	0.389163	0.487827	0.520890
	H328	H	0.382420	0.496109	0.512073
	H329	H	0.384426	0.490470	0.511964
	O330	O	0.951486	0.051811	1.034255
	H331	H	0.973214	0.044555	1.026525
	H332	H	0.955270	0.058448	1.042482
	O333	O	0.915901	1.032698	-0.011572
	H334	H	0.916709	1.026885	-0.012550
	H335	H	0.909659	1.033534	-0.019408
	O336	O	0.499595	0.605992	0.455349
	H337	H	0.494144	0.599015	0.470801
	H338	H	0.498459	0.596279	0.444540
	O339	O	0.574870	0.519353	0.605527
	H340	H	0.586782	0.520782	0.611028
	H341	H	0.568493	0.518512	0.608100
	O342	O	-0.073996	0.990767	0.037841
	H343	H	-0.072867	1.000023	0.031259
	H344	H	-0.075062	0.993596	0.036616
	O345	O	0.061664	0.046765	0.030915
	H346	H	0.057102	0.041181	0.030579
	H347	H	0.063852	0.060157	0.028074
	O348	O	0.559271	0.492957	0.479331
	H349	H	0.559329	0.485248	0.483851
	H350	H	0.561060	0.499172	0.488359
	O351	O	0.530200	0.429525	0.413588
	H352	H	0.521002	0.424592	0.419064
	H353	H	0.547369	0.425552	0.408985
	O354	O	0.539211	0.555444	0.555119
	H355	H	0.544896	0.540709	0.557197
	H356	H	0.542026	0.548146	0.542051
	O357	O	0.454992	0.491268	0.577313
	H358	H	0.448550	0.497716	0.578245
	H359	H	0.450149	0.497425	0.590290
	O360	O	-0.018228	-0.008561	-0.041892
	H361	H	-0.018163	-0.013068	-0.057680
	H362	H	-0.009287	-0.016243	-0.044618
	O363	O	0.006854	0.863044	0.911360
	H364	H	-0.001592	0.853794	0.915568
	H365	H	0.017420	0.875920	0.906863
	O366	O	0.008180	-0.009739	1.035673
	H367	H	0.013758	0.001640	1.050367
	H368	H	-0.006346	-0.006509	1.042685
	O369	O	0.563088	0.491361	0.525368
	H370	H	0.563192	0.495082	0.527970
	H371	H	0.559685	0.490450	0.524014
