data_Molecule from HDF5

_cell_length_a		16.250353
_cell_length_b		16.396929
_cell_length_c		16.223271
_cell_angle_alpha	89.634927
_cell_angle_beta	89.913347
_cell_angle_gamma	90.013476
_symmetry_space_group_name_H-M	'P 1'
_symmetry_Int_Tables_number		1

loop_
	_symmetry_equiv_pos_as_xyz
	x,y,z

loop_
	_atom_site_label
	_atom_site_type_symbol
	_atom_site_fract_x
	_atom_site_fract_y
	_atom_site_fract_z
	H0	H	0.407088	0.835635	0.726787
	H1	H	0.604007	0.161394	0.722103
	H2	H	0.605600	0.836443	0.293608
	H3	H	0.406420	0.160001	0.292650
	H4	H	0.718674	0.402035	0.842520
	H5	H	0.719828	0.596199	0.172086
	H6	H	0.291400	0.599723	0.843436
	H7	H	0.289927	0.400748	0.172182
	H8	H	0.842205	0.715358	0.404101
	H9	H	0.167816	0.712834	0.604586
	H10	H	0.841650	0.281073	0.607852
	H11	H	0.168492	0.282513	0.405856
	H12	H	0.840733	0.399227	0.721121
	H13	H	0.169502	0.596852	0.719981
	H14	H	0.840692	0.595765	0.293851
	H15	H	0.168576	0.400459	0.292413
	H16	H	0.403853	0.718786	0.846684
	H17	H	0.604973	0.712269	0.172599
	H18	H	0.605472	0.283031	0.844481
	H19	H	0.403842	0.282809	0.172077
	H20	H	0.720916	0.835438	0.410883
	H21	H	0.722685	0.160119	0.608035
	H22	H	0.290096	0.834811	0.610757
	H23	H	0.290919	0.159854	0.408953
	H24	H	0.904209	0.337007	0.225117
	H25	H	0.103707	0.660826	0.221588
	H26	H	0.104141	0.336248	0.792637
	H27	H	0.907221	0.661273	0.790272
	H28	H	0.222557	0.899570	0.345030
	H29	H	0.218450	0.093846	0.673410
	H30	H	0.791754	0.095063	0.344205
	H31	H	0.793267	0.898161	0.672859
	H32	H	0.342755	0.215212	0.906689
	H33	H	0.668624	0.214479	0.108595
	H34	H	0.343399	0.781428	0.111858
	H35	H	0.668630	0.783874	0.909854
	H36	H	0.342184	0.899256	0.224958
	H37	H	0.670264	0.095842	0.221864
	H38	H	0.341353	0.096690	0.794776
	H39	H	0.670206	0.902454	0.797170
	H40	H	0.904237	0.214213	0.344673
	H41	H	0.106531	0.213825	0.670541
	H42	H	0.105636	0.784846	0.342805
	H43	H	0.904843	0.779183	0.669923
	H44	H	0.223140	0.337800	0.905153
	H45	H	0.219595	0.661515	0.104923
	H46	H	0.788463	0.336426	0.107257
	H47	H	0.790354	0.662510	0.906325
	H48	H	0.397949	0.115855	0.597042
	H49	H	0.596075	0.883555	0.605134
	H50	H	0.606238	0.113022	0.426217
	H51	H	0.422628	0.884893	0.417012
	H52	H	0.594854	0.403520	0.124043
	H53	H	0.595397	0.590969	0.892650
	H54	H	0.407325	0.600592	0.129167
	H55	H	0.416245	0.396916	0.889694
	H56	H	0.120911	0.587540	0.412323
	H57	H	0.891851	0.584254	0.591532
	H58	H	0.121445	0.400599	0.597615
	H59	H	0.891189	0.405816	0.425434
	H60	H	0.119409	0.407558	0.595523
	H61	H	0.887785	0.586697	0.604460
	H62	H	0.123664	0.595288	0.410835
	H63	H	0.888950	0.412262	0.409362
	H64	H	0.405549	0.579536	0.123293
	H65	H	0.594859	0.595926	0.891638
	H66	H	0.599628	0.405268	0.125420
	H67	H	0.403993	0.410040	0.889451
	H68	H	0.604453	0.118412	0.404673
	H69	H	0.601349	0.882364	0.601253
	H70	H	0.417684	0.115495	0.616025
	H71	H	0.409402	0.883987	0.425096
	H72	H	0.904873	0.616795	0.101158
	H73	H	0.100990	0.384030	0.093886
	H74	H	0.108533	0.617719	0.912609
	H75	H	0.908471	0.379894	0.905447
	H76	H	0.089055	0.898999	0.623267
	H77	H	0.106226	0.092469	0.389240
	H78	H	0.914556	0.086657	0.623503
	H79	H	0.918493	0.895340	0.389604
	H80	H	0.624304	0.093533	0.909913
	H81	H	0.390077	0.090214	0.098181
	H82	H	0.621469	0.901593	0.094983
	H83	H	0.387115	0.904209	0.915773
	H84	H	0.620948	0.912196	0.102805
	H85	H	0.389338	0.088325	0.104033
	H86	H	0.622069	0.097099	0.921336
	H87	H	0.390219	0.905917	0.923180
	H88	H	0.917013	0.090465	0.623597
	H89	H	0.097450	0.083593	0.393763
	H90	H	0.103853	0.899320	0.627793
	H91	H	0.901367	0.907425	0.388069
	H92	H	0.092306	0.615655	0.903657
	H93	H	0.100702	0.380768	0.105476
	H94	H	0.917013	0.614135	0.104875
	H95	H	0.921327	0.387174	0.916495
	H96	H	0.422728	0.106000	0.590340
	H97	H	0.601722	0.880834	0.607605
	H98	H	0.587298	0.109664	0.416027
	H99	H	0.409584	0.878806	0.410304
	H100	H	0.596156	0.408054	0.122781
	H101	H	0.598862	0.592817	0.890323
	H102	H	0.424676	0.589745	0.121055
	H103	H	0.421089	0.412878	0.895568
	H104	H	0.120311	0.592531	0.418519
	H105	H	0.887468	0.596790	0.595264
	H106	H	0.121067	0.406250	0.602065
	H107	H	0.885445	0.395984	0.412988
	H108	H	0.913030	0.611420	0.092412
	H109	H	0.090086	0.385803	0.099673
	H110	H	0.093330	0.610267	0.921792
	H111	H	0.904211	0.384626	0.923644
	H112	H	0.096662	0.911829	0.621592
	H113	H	0.093370	0.096209	0.391554
	H114	H	0.912928	0.090824	0.625702
	H115	H	0.919326	0.915601	0.395159
	H116	H	0.619669	0.085867	0.918016
	H117	H	0.388547	0.094078	0.102359
	H118	H	0.625664	0.900707	0.107613
	H119	H	0.390104	0.911597	0.917817
	C120	C	0.383516	0.005623	0.631738
	C121	C	0.628385	0.989752	0.631958
	C122	C	0.627864	0.006587	0.387563
	C123	C	0.384701	0.989584	0.387630
	C124	C	0.626061	0.377506	0.015686
	C125	C	0.626046	0.620596	0.999814
	C126	C	0.383732	0.620298	0.016488
	C127	C	0.383969	0.377385	0.999845
	C128	C	0.013374	0.620183	0.384920
	C129	C	0.996846	0.618327	0.626444
	C130	C	0.013029	0.375485	0.628772
	C131	C	0.996677	0.376472	0.386157
	C132	C	0.882236	0.507439	0.129293
	C133	C	0.126135	0.490643	0.128374
	C134	C	0.127392	0.507501	0.884100
	C135	C	0.882769	0.491025	0.885034
	C136	C	0.126951	0.875576	0.516197
	C137	C	0.127375	0.119075	0.499691
	C138	C	0.885149	0.118695	0.516498
	C139	C	0.884051	0.875917	0.499284
	C140	C	0.513876	0.120893	0.886866
	C141	C	0.497489	0.119456	0.130309
	C142	C	0.514675	0.876147	0.131496
	C143	C	0.497210	0.878475	0.889274
	C144	C	0.386263	0.883932	0.688159
	C145	C	0.625147	0.112619	0.685335
	C146	C	0.626008	0.884724	0.331919
	C147	C	0.386450	0.111500	0.331023
	C148	C	0.681200	0.381008	0.892013
	C149	C	0.681485	0.616756	0.123232
	C150	C	0.328692	0.619865	0.893067
	C151	C	0.327756	0.379778	0.123188
	C152	C	0.890755	0.676529	0.385329
	C153	C	0.119521	0.674439	0.624815
	C154	C	0.890320	0.319572	0.627580
	C155	C	0.119528	0.320867	0.386814
	C156	C	0.889910	0.378201	0.684134
	C157	C	0.120119	0.616696	0.682075
	C158	C	0.890018	0.617011	0.330367
	C159	C	0.119840	0.379626	0.330464
	C160	C	0.384733	0.679051	0.894683
	C161	C	0.624855	0.674773	0.123496
	C162	C	0.625124	0.321698	0.893046
	C163	C	0.384340	0.321042	0.123048
	C164	C	0.683029	0.884151	0.390223
	C165	C	0.684029	0.111878	0.628542
	C166	C	0.328171	0.883685	0.630353
	C167	C	0.328805	0.111380	0.388919
	C168	C	0.884134	0.385320	0.186199
	C169	C	0.124205	0.612622	0.183623
	C170	C	0.124710	0.385148	0.829670
	C171	C	0.885906	0.613023	0.828636
	C172	C	0.183725	0.878681	0.393334
	C173	C	0.181592	0.115316	0.623783
	C174	C	0.829159	0.116344	0.393189
	C175	C	0.829603	0.877283	0.623062
	C176	C	0.391344	0.176692	0.887622
	C177	C	0.620154	0.176003	0.128623
	C178	C	0.391718	0.820279	0.131192
	C179	C	0.620075	0.822427	0.890173
	C180	C	0.391214	0.878868	0.187323
	C181	C	0.621311	0.116388	0.184148
	C182	C	0.390840	0.118199	0.831496
	C183	C	0.620995	0.881474	0.834387
	C184	C	0.885403	0.175191	0.393353
	C185	C	0.125761	0.174758	0.622515
	C186	C	0.125490	0.821892	0.392370
	C187	C	0.885074	0.818101	0.621678
	C188	C	0.184169	0.385959	0.885557
	C189	C	0.181799	0.612691	0.125688
	C190	C	0.826547	0.385211	0.127687
	C191	C	0.828113	0.613647	0.886631
	C192	C	0.406204	0.090722	0.608202
	C193	C	0.606166	0.904355	0.610903
	C194	C	0.605734	0.091612	0.409148
	C195	C	0.407187	0.904482	0.410628
	C196	C	0.603366	0.399217	0.101758
	C197	C	0.603182	0.599337	0.913960
	C198	C	0.405990	0.596857	0.102369
	C199	C	0.407120	0.400202	0.913999
	C200	C	0.099365	0.598241	0.407363
	C201	C	0.911271	0.595829	0.603844
	C202	C	0.098719	0.398219	0.605385
	C203	C	0.910696	0.398343	0.409034
	C204	C	0.904932	0.592237	0.106240
	C205	C	0.103731	0.405511	0.106208
	C206	C	0.104677	0.592640	0.906205
	C207	C	0.904816	0.405914	0.908376
	C208	C	0.103513	0.897006	0.602146
	C209	C	0.105465	0.097218	0.413874
	C210	C	0.908210	0.096087	0.602125
	C211	C	0.906508	0.899257	0.413252
	C212	C	0.599936	0.098768	0.909890
	C213	C	0.411626	0.097368	0.108205
	C214	C	0.600430	0.898206	0.108491
	C215	C	0.411365	0.900798	0.912225
	Zn216	Zn	0.505932	-0.001537	0.760530
	Zn217	Zn	0.506178	-0.001673	0.258571
	Zn218	Zn	0.753853	0.499840	0.006946
	Zn219	Zn	0.255365	0.498820	0.006933
	Zn220	Zn	0.004999	0.747932	0.506195
	Zn221	Zn	0.005886	0.247395	0.507040
	Zn222	Zn	0.004751	0.498093	0.756151
	Zn223	Zn	0.005199	0.498600	0.257834
	Zn224	Zn	0.505484	0.748870	0.009782
	Zn225	Zn	0.505137	0.248004	0.008705
	Zn226	Zn	0.756308	-0.002386	0.508967
	Zn227	Zn	0.255082	-0.002969	0.508865
	N228	N	0.420095	0.960693	0.688888
	N229	N	0.591284	0.035656	0.687691
	N230	N	0.592313	0.961633	0.330122
	N231	N	0.420626	0.034771	0.330385
	N232	N	0.681974	0.415034	0.969371
	N233	N	0.682314	0.583929	0.045431
	N234	N	0.328161	0.583704	0.969794
	N235	N	0.327122	0.413853	0.045428
	N236	N	0.968458	0.678344	0.418691
	N237	N	0.042073	0.675472	0.590923
	N238	N	0.968067	0.317734	0.594065
	N239	N	0.041879	0.319055	0.420697
	N240	N	0.967456	0.412153	0.685203
	N241	N	0.042768	0.582413	0.683285
	N242	N	0.967251	0.582589	0.330016
	N243	N	0.042421	0.413503	0.329721
	N244	N	0.418158	0.679356	0.972575
	N245	N	0.591045	0.677294	0.045747
	N246	N	0.591519	0.319338	0.970990
	N247	N	0.418548	0.319362	0.045465
	N248	N	0.684070	0.960715	0.424456
	N249	N	0.686259	0.034466	0.596333
	N250	N	0.326423	0.960649	0.596000
	N251	N	0.327666	0.034503	0.423467
	N252	N	0.918229	0.462316	0.187306
	N253	N	0.090200	0.535757	0.185395
	N254	N	0.090292	0.461848	0.828656
	N255	N	0.919138	0.535963	0.827621
	N256	N	0.184780	0.911110	0.471246
	N257	N	0.182748	0.081314	0.546459
	N258	N	0.828938	0.081868	0.470649
	N259	N	0.828792	0.912458	0.545858
	N260	N	0.469083	0.178613	0.921041
	N261	N	0.542211	0.177782	0.095550
	N262	N	0.469223	0.818647	0.097181
	N263	N	0.542282	0.820539	0.923773
	N264	N	0.468743	0.912982	0.187624
	N265	N	0.543955	0.082482	0.185640
	N266	N	0.468163	0.084065	0.831030
	N267	N	0.543547	0.915223	0.833530
	N268	N	0.919194	0.176999	0.471006
	N269	N	0.092782	0.177096	0.544518
	N270	N	0.090755	0.819810	0.469813
	N271	N	0.918431	0.817193	0.543644
	N272	N	0.185885	0.462871	0.918850
	N273	N	0.182927	0.535844	0.091999
	N274	N	0.825417	0.461858	0.093016
	N275	N	0.826010	0.536654	0.921049
	O276	O	-0.016530	0.078767	0.041769
	H277	H	-0.007696	0.082586	0.039593
	H278	H	-0.015961	0.067050	0.037619
	O279	O	0.530036	0.534419	0.607485
	H280	H	0.527951	0.538333	0.601926
	H281	H	0.523078	0.535429	0.608630
	O282	O	0.560068	0.490315	0.447607
	H283	H	0.560527	0.501697	0.455362
	H284	H	0.571245	0.492430	0.439609
	O285	O	1.069034	0.031307	1.091246
	H286	H	1.067954	0.019662	1.094108
	H287	H	1.061553	0.040098	1.088653
	O288	O	1.002672	0.049314	-0.089176
	H289	H	1.003699	0.058218	-0.091246
	H290	H	0.999149	0.057061	-0.084587
	O291	O	0.512734	0.379897	0.532281
	H292	H	0.509505	0.393469	0.538716
	H293	H	0.527835	0.386022	0.528422
	O294	O	1.404891	0.435255	0.590082
	H295	H	1.386693	0.426994	0.595350
	H296	H	1.414048	0.427930	0.580873
	O297	O	-0.053079	0.037970	0.016516
	H298	H	-0.063115	0.037378	0.017101
	H299	H	-0.062934	0.036343	0.020211
	O300	O	0.462274	0.486157	0.455377
	H301	H	0.465187	0.482156	0.466492
	H302	H	0.459706	0.470171	0.449216
	O303	O	0.455116	0.569636	0.574121
	H304	H	0.459475	0.569604	0.582850
	H305	H	0.456604	0.570476	0.573877
	O306	O	0.987874	0.004406	0.065380
	H307	H	0.991590	0.011671	0.061296
	H308	H	0.983545	0.000577	0.067208
	O309	O	-0.018894	0.044202	0.953923
	H310	H	-0.024227	0.054796	0.945096
	H311	H	-0.012665	0.032939	0.955465
	O312	O	1.020873	0.967687	1.000782
	H313	H	1.018293	0.959894	0.999015
	H314	H	1.019495	0.971642	1.005140
	O315	O	0.589379	0.470985	0.474533
	H316	H	0.596354	0.473117	0.476723
	H317	H	0.583744	0.489854	0.470112
	O318	O	0.529265	0.517987	0.542847
	H319	H	0.518942	0.518226	0.545058
	H320	H	0.524307	0.519973	0.549851
	O321	O	-0.054250	1.071508	0.950560
	H322	H	-0.045985	1.063359	0.943441
	H323	H	-0.053304	1.080331	0.944513
	O324	O	0.440662	0.428970	0.544623
	H325	H	0.440309	0.421874	0.542486
	H326	H	0.445495	0.426928	0.535827
	O327	O	1.011186	0.992965	0.068747
	H328	H	1.012146	0.986827	0.072089
	H329	H	1.011969	0.994417	0.069941
	O330	O	0.526756	0.478613	0.474091
	H331	H	0.529030	0.488668	0.477511
	H332	H	0.512887	0.470203	0.469363
	O333	O	0.559051	0.584034	0.423449
	H334	H	0.560716	0.585512	0.427301
	H335	H	0.564196	0.588877	0.411171
	O336	O	0.480031	0.502099	0.583142
	H337	H	0.482712	0.498091	0.583793
	H338	H	0.477680	0.501099	0.587204
	O339	O	1.016944	0.988199	-0.001891
	H340	H	1.010958	0.992552	-0.013335
	H341	H	1.011880	1.000844	-0.001642
	O342	O	0.532146	0.506742	0.425173
	H343	H	0.524558	0.499128	0.425762
	H344	H	0.541631	0.502555	0.423172
	O345	O	0.426865	0.497933	0.592413
	H346	H	0.419404	0.496659	0.592312
	H347	H	0.431804	0.499244	0.602987
	O348	O	0.058745	0.050205	-0.090681
	H349	H	0.067262	0.064320	-0.089026
	H350	H	0.054269	0.033348	-0.077346
	O351	O	-0.494258	0.511749	0.483552
	H352	H	-0.500699	0.499874	0.497381
	H353	H	-0.483888	0.504058	0.484706
	O354	O	0.535629	0.468284	0.523721
	H355	H	0.534028	0.472747	0.530914
	H356	H	0.517191	0.468960	0.511054
	O357	O	-0.533666	1.398747	0.452887
	H358	H	-0.533069	1.405926	0.457062
	H359	H	-0.535110	1.400799	0.443067
