data_Molecule from HDF5

_cell_length_a		16.500050
_cell_length_b		16.561244
_cell_length_c		16.467753
_cell_angle_alpha	90.045945
_cell_angle_beta	89.896824
_cell_angle_gamma	89.937344
_symmetry_space_group_name_H-M	'P 1'
_symmetry_Int_Tables_number		1

loop_
	_symmetry_equiv_pos_as_xyz
	x,y,z

loop_
	_atom_site_label
	_atom_site_type_symbol
	_atom_site_fract_x
	_atom_site_fract_y
	_atom_site_fract_z
	H0	H	0.384940	0.830308	0.698795
	H1	H	0.595443	0.144072	0.704075
	H2	H	0.597524	0.832904	0.254448
	H3	H	0.380666	0.143806	0.254277
	H4	H	0.713793	0.378415	0.822471
	H5	H	0.710933	0.592510	0.137423
	H6	H	0.267502	0.590552	0.822847
	H7	H	0.267071	0.379836	0.136924
	H8	H	0.829599	0.708276	0.373179
	H9	H	0.144379	0.707761	0.583682
	H10	H	0.832401	0.260948	0.589914
	H11	H	0.144185	0.262933	0.370464
	H12	H	0.832463	0.377116	0.704931
	H13	H	0.144142	0.591416	0.700044
	H14	H	0.829171	0.589575	0.259789
	H15	H	0.145610	0.380371	0.257050
	H16	H	0.384742	0.706774	0.822142
	H17	H	0.597245	0.710984	0.136000
	H18	H	0.598001	0.262756	0.822435
	H19	H	0.384129	0.265132	0.137262
	H20	H	0.712829	0.832438	0.371952
	H21	H	0.713732	0.143581	0.590137
	H22	H	0.270707	0.829632	0.580319
	H23	H	0.264696	0.144047	0.371189
	H24	H	0.881048	0.330550	0.203919
	H25	H	0.091514	0.643481	0.198559
	H26	H	0.094699	0.330544	0.754857
	H27	H	0.882109	0.643245	0.757586
	H28	H	0.207035	0.885342	0.320725
	H29	H	0.208728	0.091854	0.637000
	H30	H	0.764084	0.095536	0.322925
	H31	H	0.765222	0.881982	0.636945
	H32	H	0.333324	0.210133	0.873658
	H33	H	0.645463	0.213374	0.090824
	H34	H	0.331435	0.768467	0.082071
	H35	H	0.645786	0.764119	0.871895
	H36	H	0.331545	0.884768	0.199404
	H37	H	0.645279	0.095950	0.204446
	H38	H	0.330866	0.090642	0.761387
	H39	H	0.646971	0.882479	0.758081
	H40	H	0.880058	0.210794	0.321930
	H41	H	0.094716	0.210487	0.635544
	H42	H	0.091334	0.768617	0.320124
	H43	H	0.880867	0.765778	0.636134
	H44	H	0.210934	0.329355	0.872184
	H45	H	0.208483	0.642346	0.081576
	H46	H	0.763639	0.330847	0.089450
	H47	H	0.766238	0.643108	0.873871
	H48	H	0.400720	0.099831	0.571248
	H49	H	0.573063	0.877745	0.569759
	H50	H	0.574955	0.099679	0.390638
	H51	H	0.396148	0.875868	0.391657
	H52	H	0.579741	0.403003	0.090886
	H53	H	0.578130	0.576967	0.866289
	H54	H	0.394689	0.579609	0.094827
	H55	H	0.405681	0.392952	0.866346
	H56	H	0.102160	0.582090	0.388247
	H57	H	0.875062	0.577112	0.565819
	H58	H	0.101510	0.394087	0.567438
	H59	H	0.877477	0.407428	0.386919
	H60	H	0.095594	0.400701	0.558804
	H61	H	0.875681	0.574139	0.567592
	H62	H	0.099594	0.577176	0.391229
	H63	H	0.873521	0.391320	0.388168
	H64	H	0.398102	0.572380	0.092608
	H65	H	0.578670	0.571428	0.867939
	H66	H	0.571554	0.399901	0.087905
	H67	H	0.395613	0.396974	0.865903
	H68	H	0.572059	0.097586	0.393203
	H69	H	0.576301	0.878642	0.563367
	H70	H	0.396054	0.101151	0.566830
	H71	H	0.398853	0.875120	0.385389
	H72	H	0.897679	0.597940	0.064892
	H73	H	0.074168	0.373308	0.068350
	H74	H	0.081905	0.600345	0.886150
	H75	H	0.904389	0.376017	0.890080
	H76	H	0.079408	0.895532	0.593631
	H77	H	0.071832	0.086853	0.363984
	H78	H	0.903924	0.076872	0.590219
	H79	H	0.902649	0.899223	0.368294
	H80	H	0.600561	0.069731	0.889089
	H81	H	0.379827	0.073385	0.063219
	H82	H	0.601210	0.900560	0.067469
	H83	H	0.376426	0.900653	0.886644
	H84	H	0.603013	0.896747	0.067173
	H85	H	0.378473	0.074159	0.067822
	H86	H	0.603870	0.079045	0.889050
	H87	H	0.372958	0.891540	0.885387
	H88	H	0.899266	0.074623	0.591390
	H89	H	0.088675	0.073701	0.363160
	H90	H	0.078735	0.897183	0.592689
	H91	H	0.899156	0.897872	0.365948
	H92	H	0.072403	0.596773	0.889075
	H93	H	0.081326	0.372690	0.065727
	H94	H	0.899293	0.598746	0.070928
	H95	H	0.902772	0.376968	0.895346
	H96	H	0.395212	0.103109	0.573031
	H97	H	0.579773	0.875180	0.569139
	H98	H	0.576403	0.097651	0.394828
	H99	H	0.402639	0.878078	0.390470
	H100	H	0.577260	0.394765	0.092861
	H101	H	0.574058	0.574797	0.869481
	H102	H	0.402834	0.579104	0.092735
	H103	H	0.403584	0.403687	0.869402
	H104	H	0.101550	0.576828	0.385670
	H105	H	0.873779	0.576842	0.568981
	H106	H	0.097955	0.405890	0.569907
	H107	H	0.879455	0.399449	0.401323
	H108	H	0.903463	0.595899	0.066784
	H109	H	0.079314	0.370559	0.073476
	H110	H	0.080560	0.597161	0.895644
	H111	H	0.899661	0.373775	0.892105
	H112	H	0.077757	0.895912	0.592429
	H113	H	0.070125	0.067210	0.371693
	H114	H	0.903408	0.071550	0.588472
	H115	H	0.898581	0.902061	0.367464
	H116	H	0.599852	0.074939	0.897518
	H117	H	0.378283	0.077869	0.064841
	H118	H	0.600318	0.898035	0.063989
	H119	H	0.376969	0.894145	0.893879
	C120	C	0.366720	-0.003251	0.600962
	C121	C	0.609750	0.980063	0.601009
	C122	C	0.609893	-0.003736	0.358117
	C123	C	0.366714	0.979842	0.356750
	C124	C	0.610742	0.364987	-0.012188
	C125	C	0.610104	0.607601	0.971530
	C126	C	0.367187	0.607825	-0.011395
	C127	C	0.368800	0.365579	0.971387
	C128	C	-0.003735	0.609523	0.356976
	C129	C	0.978807	0.608034	0.599799
	C130	C	-0.004129	0.365542	0.600080
	C131	C	0.979853	0.365738	0.357996
	C132	C	0.866753	0.494470	0.101201
	C133	C	0.109798	0.476434	0.100580
	C134	C	0.110396	0.494487	0.857419
	C135	C	0.868012	0.478342	0.858908
	C136	C	0.109451	0.865805	0.487784
	C137	C	0.109524	0.108707	0.470332
	C138	C	0.867410	0.108705	0.487189
	C139	C	0.866369	0.866566	0.470838
	C140	C	0.497793	0.107821	0.858918
	C141	C	0.481484	0.109251	0.100631
	C142	C	0.497691	0.866689	0.099182
	C143	C	0.480233	0.864259	0.856764
	C144	C	0.366089	0.877819	0.659396
	C145	C	0.613284	0.097531	0.662936
	C146	C	0.614734	0.879529	0.295515
	C147	C	0.363241	0.097005	0.295416
	C148	C	0.673089	0.360832	0.869738
	C149	C	0.670906	0.610444	0.089895
	C150	C	0.307704	0.609308	0.869724
	C151	C	0.307683	0.362374	0.089730
	C152	C	0.877341	0.668537	0.355064
	C153	C	0.097037	0.667930	0.602238
	C154	C	0.879259	0.302071	0.606019
	C155	C	0.097378	0.303956	0.353531
	C156	C	0.879055	0.360164	0.663450
	C157	C	0.096937	0.609986	0.659965
	C158	C	0.877088	0.609620	0.298208
	C159	C	0.098059	0.362622	0.296935
	C160	C	0.366114	0.666631	0.869557
	C161	C	0.614274	0.669687	0.089251
	C162	C	0.615307	0.303412	0.869538
	C163	C	0.366199	0.305282	0.089884
	C164	C	0.672382	0.879613	0.353748
	C165	C	0.672076	0.097134	0.606071
	C166	C	0.309221	0.877271	0.600498
	C167	C	0.305413	0.097224	0.353766
	C168	C	0.863422	0.377163	0.162982
	C169	C	0.110670	0.595776	0.158958
	C170	C	0.112901	0.376867	0.795782
	C171	C	0.864221	0.595962	0.797525
	C172	C	0.167838	0.865671	0.368181
	C173	C	0.168891	0.110689	0.589415
	C174	C	0.804808	0.112966	0.369877
	C175	C	0.805367	0.863786	0.589320
	C176	C	0.379925	0.169002	0.855877
	C177	C	0.598549	0.171825	0.106613
	C178	C	0.378605	0.807796	0.101167
	C179	C	0.598964	0.804778	0.854787
	C180	C	0.378865	0.865689	0.159080
	C181	C	0.598523	0.113385	0.163564
	C182	C	0.378766	0.109680	0.799920
	C183	C	0.599281	0.863675	0.797707
	C184	C	0.862719	0.170244	0.369209
	C185	C	0.112465	0.169812	0.588512
	C186	C	0.109991	0.807741	0.367997
	C187	C	0.862811	0.805590	0.588919
	C188	C	0.170741	0.376506	0.853942
	C189	C	0.168685	0.595526	0.100859
	C190	C	0.804680	0.377486	0.106130
	C191	C	0.806993	0.596114	0.856024
	C192	C	0.390290	0.079799	0.577200
	C193	C	0.583869	0.898632	0.574779
	C194	C	0.582315	0.077200	0.385194
	C195	C	0.392046	0.897606	0.381980
	C196	C	0.583892	0.391472	0.069262
	C197	C	0.584339	0.581771	0.889283
	C198	C	0.391588	0.583823	0.071859
	C199	C	0.394303	0.390760	0.888916
	C200	C	0.079554	0.585602	0.381245
	C201	C	0.896128	0.582928	0.574590
	C202	C	0.077160	0.392404	0.573009
	C203	C	0.898127	0.391986	0.384592
	C204	C	0.892826	0.576159	0.075006
	C205	C	0.085428	0.393956	0.076293
	C206	C	0.085261	0.576634	0.882819
	C207	C	0.894531	0.396748	0.885250
	C208	C	0.085623	0.889503	0.571088
	C209	C	0.084174	0.083217	0.387805
	C210	C	0.894407	0.082081	0.568702
	C211	C	0.892650	0.892285	0.388561
	C212	C	0.580074	0.081943	0.884610
	C213	C	0.400085	0.082750	0.073342
	C214	C	0.580181	0.891366	0.073801
	C215	C	0.397141	0.888483	0.881531
	Zn216	Zn	0.488644	-0.012012	0.729799
	Zn217	Zn	0.488964	-0.012095	0.228383
	Zn218	Zn	0.738947	0.485820	-0.020489
	Zn219	Zn	0.239152	0.485273	-0.021185
	Zn220	Zn	-0.012518	0.737517	0.479277
	Zn221	Zn	-0.012135	0.236946	0.478623
	Zn222	Zn	-0.012135	0.486537	0.728981
	Zn223	Zn	-0.012021	0.486464	0.229344
	Zn224	Zn	0.488946	0.736595	-0.020474
	Zn225	Zn	0.490149	0.236748	-0.020782
	Zn226	Zn	0.738308	-0.011503	0.479888
	Zn227	Zn	0.238000	-0.012338	0.478958
	N228	N	0.401038	0.953103	0.659977
	N229	N	0.575344	0.023821	0.660195
	N230	N	0.576785	0.953340	0.297852
	N231	N	0.400920	0.023127	0.297314
	N232	N	0.670549	0.398377	0.944223
	N233	N	0.668360	0.572454	0.015655
	N234	N	0.308296	0.573192	0.944941
	N235	N	0.309252	0.399227	0.015133
	N236	N	0.952753	0.668932	0.390496
	N237	N	0.022366	0.666751	0.565471
	N238	N	0.953087	0.305293	0.567154
	N239	N	0.022818	0.305464	0.390713
	N240	N	0.952352	0.399153	0.659739
	N241	N	0.022261	0.573476	0.658568
	N242	N	0.952324	0.573870	0.298987
	N243	N	0.023950	0.400305	0.299585
	N244	N	0.402409	0.665693	0.944468
	N245	N	0.577421	0.668248	0.014601
	N246	N	0.577694	0.305550	0.944124
	N247	N	0.403460	0.307011	0.015141
	N248	N	0.669543	0.953291	0.391862
	N249	N	0.670091	0.023168	0.568327
	N250	N	0.309176	0.952302	0.565100
	N251	N	0.307624	0.023205	0.391438
	N252	N	0.901172	0.451018	0.160049
	N253	N	0.075155	0.520836	0.159313
	N254	N	0.076226	0.451342	0.797605
	N255	N	0.901503	0.521631	0.799175
	N256	N	0.167824	0.900812	0.443656
	N257	N	0.167503	0.073734	0.514622
	N258	N	0.807503	0.075435	0.444259
	N259	N	0.807577	0.901060	0.514868
	N260	N	0.455035	0.168203	0.891500
	N261	N	0.524729	0.169324	0.068124
	N262	N	0.453622	0.808159	0.064842
	N263	N	0.523721	0.804887	0.890522
	N264	N	0.453979	0.901297	0.158254
	N265	N	0.524954	0.074857	0.159639
	N266	N	0.453167	0.072204	0.801875
	N267	N	0.524354	0.899948	0.798779
	N268	N	0.900665	0.167907	0.443307
	N269	N	0.076468	0.168719	0.513366
	N270	N	0.074339	0.807602	0.443486
	N271	N	0.899967	0.807164	0.514134
	N272	N	0.169172	0.450498	0.891462
	N273	N	0.168677	0.520197	0.065799
	N274	N	0.806686	0.451332	0.068318
	N275	N	0.809157	0.521931	0.893119
	O276	O	0.512357	0.701356	0.694568
	H277	H	0.532853	0.709464	0.712456
	H278	H	0.529364	0.705807	0.699611
	O279	O	0.447657	0.398017	0.381530
	H280	H	0.451287	0.391718	0.372811
	H281	H	0.453182	0.414253	0.375786
	O282	O	1.092546	1.079176	-0.149266
	H283	H	1.099327	1.070788	-0.152607
	H284	H	1.105233	1.097773	-0.151439
	O285	O	0.532902	0.581087	0.492473
	H286	H	0.522606	0.589108	0.488458
	H287	H	0.520743	0.586398	0.496393
	O288	O	0.120232	0.170452	-0.148945
	H289	H	0.108412	0.158906	-0.136668
	H290	H	0.136200	0.176919	-0.163616
	O291	O	1.309582	1.535990	0.504196
	H292	H	1.309001	1.555355	0.497546
	H293	H	1.308583	1.536571	0.496354
	O294	O	-0.172087	0.992315	0.011281
	H295	H	-0.172165	1.001456	0.018226
	H296	H	-0.177002	1.014868	0.000267
	O297	O	0.268613	0.267287	0.510879
	H298	H	0.260743	0.259263	0.508727
	H299	H	0.249944	0.262894	0.497637
	O300	O	0.174280	0.783239	0.775572
	H301	H	0.180297	0.779745	0.816399
	H302	H	0.190905	0.759161	0.753790
	O303	O	0.554103	0.481859	0.283964
	H304	H	0.559019	0.497256	0.288097
	H305	H	0.541279	0.505492	0.280441
	O306	O	-0.231970	1.204782	0.959270
	H307	H	-0.253911	1.238549	0.959498
	H308	H	-0.224377	1.202499	0.915556
	O309	O	0.270629	0.695812	0.445312
	H310	H	0.243588	0.726015	0.448775
	H311	H	0.274547	0.687378	0.417475
	O312	O	0.415596	0.338321	0.483250
	H313	H	0.418782	0.335700	0.483818
	H314	H	0.406466	0.335420	0.503483
	O315	O	-0.026565	0.189078	0.783561
	H316	H	-0.000712	0.193467	0.777302
	H317	H	-0.014771	0.177130	0.778942
	O318	O	-0.225147	0.961529	0.189527
	H319	H	-0.235522	0.967272	0.199813
	H320	H	-0.236381	0.977595	0.189331
	O321	O	0.316135	0.379951	0.418505
	H322	H	0.326211	0.396080	0.404502
	H323	H	0.313979	0.391009	0.424365
	O324	O	0.510804	0.670687	0.317654
	H325	H	0.525836	0.679071	0.322079
	H326	H	0.512988	0.681064	0.317938
	O327	O	1.175142	0.158149	1.033303
	H328	H	1.175309	0.177684	1.029035
	H329	H	1.165729	0.158123	1.044975
	O330	O	0.983223	0.058002	-0.064275
	H331	H	0.984453	0.056186	-0.060428
	H332	H	0.984132	0.059429	-0.060303
	O333	O	0.779555	0.776370	0.999859
	H334	H	0.755612	0.756762	0.989022
	H335	H	0.774178	0.813046	0.989896
	O336	O	0.786537	0.009923	0.777561
	H337	H	0.779991	0.008642	0.761586
	H338	H	0.805924	-0.000693	0.768668
	O339	O	0.922606	1.132999	1.134426
	H340	H	0.914740	1.162492	1.124978
	H341	H	0.915961	1.133516	1.142243
	O342	O	0.618308	0.673054	0.349224
	H343	H	0.628804	0.676519	0.365294
	H344	H	0.612626	0.671874	0.356819
	O345	O	-0.099239	-0.066051	-0.177230
	H346	H	-0.105018	-0.077974	-0.194785
	H347	H	-0.082653	-0.057897	-0.164171
	O348	O	1.083548	-0.119904	0.940862
	H349	H	1.079249	-0.122258	0.945975
	H350	H	1.086021	-0.120391	0.948030
	O351	O	1.204504	0.940482	0.760942
	H352	H	1.219893	0.922500	0.757232
	H353	H	1.210980	0.918582	0.749605
	O354	O	0.279877	0.464833	0.692573
	H355	H	0.286465	0.448182	0.699696
	H356	H	0.258230	0.456169	0.698914
	O357	O	1.122472	1.018830	0.985331
	H358	H	1.122738	1.022779	0.990361
	H359	H	1.129187	1.027642	0.978108
	O360	O	0.438406	0.694099	0.527880
	H361	H	0.410521	0.692274	0.529737
	H362	H	0.444508	0.691898	0.550762
	O363	O	0.577579	0.289939	0.544921
	H364	H	0.575235	0.280324	0.524147
	H365	H	0.570741	0.297877	0.542974
	O366	O	1.286353	-0.313755	1.279465
	H367	H	1.262456	-0.285683	1.268123
	H368	H	1.318803	-0.325116	1.270746
	O369	O	0.494947	0.639761	0.297416
	H370	H	0.493725	0.644684	0.276023
	H371	H	0.478618	0.649856	0.302013
	O372	O	0.298294	0.298043	0.671868
	H373	H	0.301274	0.286043	0.633885
	H374	H	0.331390	0.310547	0.678394
	O375	O	0.152395	0.827183	1.171137
	H376	H	0.144117	0.852604	1.155260
	H377	H	0.142570	0.841311	1.154029
	O378	O	0.554788	0.418052	0.670733
	H379	H	0.540779	0.436325	0.672455
	H380	H	0.578310	0.420665	0.665174
	O381	O	0.946444	0.048239	0.066952
	H382	H	0.956973	0.041471	0.064462
	H383	H	0.943161	0.051911	0.076505
	O384	O	0.185982	-0.163773	0.956607
	H385	H	0.174419	-0.177305	0.960272
	H386	H	0.182702	-0.156262	0.962780
	O387	O	-0.538524	1.276145	0.690763
	H388	H	-0.520783	1.291588	0.698521
	H389	H	-0.528491	1.255914	0.696815
	O390	O	0.049018	-0.230873	1.049655
	H391	H	0.023090	-0.230965	1.056525
	H392	H	0.017375	-0.232695	1.046785
	O393	O	0.912430	1.119123	0.033743
	H394	H	0.902542	1.122388	0.013678
	H395	H	0.920660	1.120233	0.029862
	O396	O	0.541069	0.478032	0.356566
	H397	H	0.554322	0.465790	0.345392
	H398	H	0.537141	0.452801	0.361123
	O399	O	1.079973	0.958301	0.982023
	H400	H	1.076740	0.958300	0.993637
	H401	H	1.087927	0.943826	0.971462
	O402	O	-0.133963	-0.067242	0.882414
	H403	H	-0.122286	-0.060251	0.863657
	H404	H	-0.134913	-0.064096	0.892203
	O405	O	-0.189783	0.170378	-0.197156
	H406	H	-0.136637	0.179900	-0.207179
	H407	H	-0.200684	0.133276	-0.199786
	O408	O	0.673214	1.302490	1.297374
	H409	H	0.652155	1.298948	1.316045
	H410	H	0.650682	1.320217	1.289221
	O411	O	0.310841	0.664475	0.672708
	H412	H	0.323185	0.646424	0.655414
	H413	H	0.331647	0.650542	0.670539
	O414	O	0.471093	0.461198	0.358939
	H415	H	0.468492	0.455413	0.367740
	H416	H	0.462725	0.468613	0.357596
	O417	O	0.702220	0.704326	0.507078
	H418	H	0.711933	0.726331	0.496478
	H419	H	0.705121	0.689359	0.490708
	O420	O	0.467162	0.325405	0.325820
	H421	H	0.449526	0.328151	0.342364
	H422	H	0.467778	0.317678	0.317791
	O423	O	0.235877	1.243814	0.281096
	H424	H	0.227469	1.250351	0.290469
	H425	H	0.250273	1.242568	0.293120
	O426	O	0.969636	0.831320	0.875032
	H427	H	0.976083	0.828645	0.861781
	H428	H	0.956097	0.822831	0.866513
	O429	O	0.451267	0.519915	0.695146
	H430	H	0.460119	0.534938	0.700858
	H431	H	0.441995	0.499588	0.690733
	O432	O	1.011279	-0.206791	0.768141
	H433	H	1.021535	-0.220560	0.765325
	H434	H	1.026595	-0.209968	0.755582
	O435	O	0.084470	0.180880	0.099571
	H436	H	0.078204	0.191169	0.102891
	H437	H	0.098417	0.176315	0.117164
	O438	O	1.705905	-0.575023	0.493339
	H439	H	1.708083	-0.578089	0.467401
	H440	H	1.690510	-0.585319	0.486924
	O441	O	0.704445	0.512455	0.697260
	H442	H	0.740554	0.507368	0.719762
	H443	H	0.709529	0.497427	0.668575
	O444	O	-0.009714	0.970294	1.188915
	H445	H	-0.019440	0.951859	1.190969
	H446	H	-0.017710	0.956191	1.192597
	O447	O	0.956215	0.764273	0.201262
	H448	H	0.952630	0.727241	0.241580
	H449	H	0.926327	0.781959	0.189560
	O450	O	0.694064	0.540119	0.453593
	H451	H	0.688714	0.538972	0.464175
	H452	H	0.684998	0.528081	0.434310
	O453	O	0.707718	0.268478	0.456221
	H454	H	0.706280	0.262056	0.432879
	H455	H	0.720352	0.243923	0.460632
	O456	O	1.191905	0.018317	0.162748
	H457	H	1.192403	0.028106	0.145265
	H458	H	1.190311	0.024455	0.177256
	O459	O	0.269354	0.517457	0.259715
	H460	H	0.273458	0.538038	0.270931
	H461	H	0.239769	0.520725	0.228963
	O462	O	0.673820	0.675016	0.670634
	H463	H	0.682153	0.651255	0.652732
	H464	H	0.675285	0.664970	0.647376
	O465	O	0.799765	-0.201128	0.163355
	H466	H	0.805818	-0.165275	0.173580
	H467	H	0.792518	-0.203253	0.116148
