data_Molecule from HDF5

_cell_length_a		16.350063
_cell_length_b		16.553723
_cell_length_c		16.395778
_cell_angle_alpha	89.994165
_cell_angle_beta	89.878557
_cell_angle_gamma	90.042309
_symmetry_space_group_name_H-M	'P 1'
_symmetry_Int_Tables_number		1

loop_
	_symmetry_equiv_pos_as_xyz
	x,y,z

loop_
	_atom_site_label
	_atom_site_type_symbol
	_atom_site_fract_x
	_atom_site_fract_y
	_atom_site_fract_z
	H0	H	0.391488	0.848294	0.725499
	H1	H	0.604466	0.161895	0.726045
	H2	H	0.602781	0.848440	0.279119
	H3	H	0.390096	0.162551	0.279005
	H4	H	0.716940	0.405906	0.845344
	H5	H	0.716191	0.610994	0.164401
	H6	H	0.278364	0.608324	0.843535
	H7	H	0.273495	0.399200	0.161775
	H8	H	0.840700	0.728251	0.396274
	H9	H	0.156816	0.726449	0.610757
	H10	H	0.838668	0.284167	0.609992
	H11	H	0.155622	0.280821	0.395108
	H12	H	0.837159	0.404201	0.722093
	H13	H	0.158537	0.607025	0.721997
	H14	H	0.840200	0.610501	0.283410
	H15	H	0.155886	0.395879	0.279647
	H16	H	0.392056	0.728071	0.845073
	H17	H	0.602227	0.728526	0.162110
	H18	H	0.604340	0.285943	0.845991
	H19	H	0.385566	0.279987	0.160070
	H20	H	0.718997	0.847226	0.396671
	H21	H	0.721006	0.161769	0.608799
	H22	H	0.275900	0.847844	0.607490
	H23	H	0.273557	0.162576	0.395413
	H24	H	0.893735	0.347952	0.224766
	H25	H	0.104849	0.662668	0.227490
	H26	H	0.103466	0.347624	0.782164
	H27	H	0.894517	0.664047	0.783682
	H28	H	0.215361	0.903458	0.343094
	H29	H	0.218213	0.110255	0.662282
	H30	H	0.780717	0.106480	0.342696
	H31	H	0.778193	0.902441	0.663942
	H32	H	0.339393	0.228933	0.896158
	H33	H	0.656030	0.228007	0.109748
	H34	H	0.338202	0.785493	0.109189
	H35	H	0.657578	0.786556	0.897144
	H36	H	0.338228	0.902333	0.222908
	H37	H	0.656935	0.109882	0.222659
	H38	H	0.336957	0.108460	0.784960
	H39	H	0.658356	0.904156	0.784223
	H40	H	0.891950	0.226791	0.345441
	H41	H	0.103867	0.226608	0.661840
	H42	H	0.103766	0.783093	0.345101
	H43	H	0.893001	0.784993	0.663667
	H44	H	0.219380	0.347878	0.898442
	H45	H	0.218592	0.664125	0.107614
	H46	H	0.774749	0.349177	0.110229
	H47	H	0.778895	0.665496	0.901675
	H48	H	0.408723	0.117755	0.593801
	H49	H	0.587167	0.894822	0.587392
	H50	H	0.580630	0.112588	0.418129
	H51	H	0.411161	0.896576	0.415721
	H52	H	0.587487	0.420549	0.117010
	H53	H	0.590195	0.597994	0.889247
	H54	H	0.416037	0.597711	0.114356
	H55	H	0.414162	0.419828	0.893501
	H56	H	0.112223	0.593083	0.415062
	H57	H	0.882502	0.599759	0.593639
	H58	H	0.112580	0.411123	0.591134
	H59	H	0.883206	0.411780	0.415132
	H60	H	0.109917	0.418003	0.589520
	H61	H	0.885509	0.593144	0.590219
	H62	H	0.111583	0.595672	0.419252
	H63	H	0.886640	0.417349	0.420053
	H64	H	0.404936	0.602184	0.118783
	H65	H	0.588476	0.594986	0.890944
	H66	H	0.580818	0.416369	0.116410
	H67	H	0.410977	0.413181	0.890338
	H68	H	0.595423	0.118893	0.417695
	H69	H	0.591580	0.890551	0.595508
	H70	H	0.407778	0.117473	0.592571
	H71	H	0.404554	0.893356	0.415235
	H72	H	0.911642	0.619217	0.099820
	H73	H	0.083464	0.394657	0.093551
	H74	H	0.090020	0.620618	0.908235
	H75	H	0.909916	0.396181	0.917875
	H76	H	0.089562	0.910139	0.620399
	H77	H	0.089237	0.088149	0.390377
	H78	H	0.903966	0.094162	0.618837
	H79	H	0.906699	0.916057	0.390286
	H80	H	0.613263	0.101706	0.913956
	H81	H	0.380594	0.089517	0.106112
	H82	H	0.610522	0.921770	0.092475
	H83	H	0.387036	0.922893	0.917367
	H84	H	0.614361	0.912932	0.093294
	H85	H	0.380345	0.110605	0.084129
	H86	H	0.608741	0.095037	0.919778
	H87	H	0.381383	0.914994	0.906971
	H88	H	0.911541	0.089913	0.614184
	H89	H	0.077586	0.093467	0.393778
	H90	H	0.089352	0.921494	0.615885
	H91	H	0.912589	0.915828	0.391704
	H92	H	0.082080	0.616981	0.913549
	H93	H	0.085020	0.395675	0.089543
	H94	H	0.911415	0.616286	0.089890
	H95	H	0.903535	0.392374	0.916161
	H96	H	0.406760	0.117955	0.593962
	H97	H	0.581660	0.893222	0.596014
	H98	H	0.586598	0.119107	0.404416
	H99	H	0.409376	0.893019	0.409281
	H100	H	0.587412	0.413161	0.119539
	H101	H	0.586177	0.597633	0.889632
	H102	H	0.405713	0.590124	0.116107
	H103	H	0.406812	0.419401	0.890841
	H104	H	0.109904	0.591201	0.418874
	H105	H	0.883348	0.592621	0.598088
	H106	H	0.112898	0.416333	0.596379
	H107	H	0.884666	0.419171	0.412158
	H108	H	0.903217	0.620834	0.094300
	H109	H	0.087397	0.393592	0.092453
	H110	H	0.091548	0.616754	0.917812
	H111	H	0.908952	0.393243	0.910493
	H112	H	0.079438	0.914322	0.614632
	H113	H	0.086666	0.100223	0.386951
	H114	H	0.912404	0.099325	0.616893
	H115	H	0.909744	0.910778	0.389428
	H116	H	0.611479	0.092124	0.910182
	H117	H	0.392227	0.082978	0.078366
	H118	H	0.609077	0.916179	0.085388
	H119	H	0.383140	0.909320	0.920095
	C120	C	0.375642	0.013728	0.625220
	C121	C	0.619196	0.996906	0.624893
	C122	C	0.619526	0.013153	0.380715
	C123	C	0.375614	0.997694	0.380566
	C124	C	0.618166	0.385591	0.013067
	C125	C	0.619275	0.628543	0.995395
	C126	C	0.376691	0.627769	0.011266
	C127	C	0.376340	0.384484	0.995713
	C128	C	0.006517	0.625633	0.384643
	C129	C	0.989302	0.626586	0.625770
	C130	C	0.006290	0.383643	0.624688
	C131	C	0.989718	0.383237	0.382629
	C132	C	0.876057	0.514726	0.126893
	C133	C	0.119052	0.498012	0.125306
	C134	C	0.120036	0.513634	0.881355
	C135	C	0.876543	0.498463	0.883530
	C136	C	0.118814	0.883409	0.512015
	C137	C	0.118233	0.126534	0.494773
	C138	C	0.876706	0.126172	0.511844
	C139	C	0.876724	0.882617	0.495474
	C140	C	0.505984	0.127830	0.882363
	C141	C	0.488973	0.127134	0.123446
	C142	C	0.505782	0.885318	0.123123
	C143	C	0.489424	0.884428	0.882164
	C144	C	0.373291	0.895500	0.685532
	C145	C	0.622242	0.115090	0.685375
	C146	C	0.621245	0.895163	0.319950
	C147	C	0.372254	0.115434	0.319384
	C148	C	0.677922	0.385510	0.893303
	C149	C	0.677528	0.629928	0.115901
	C150	C	0.317600	0.628067	0.891485
	C151	C	0.314071	0.381259	0.114227
	C152	C	0.888208	0.687364	0.379567
	C153	C	0.109370	0.685878	0.627928
	C154	C	0.886255	0.324356	0.627462
	C155	C	0.108257	0.321613	0.378271
	C156	C	0.885501	0.383586	0.683609
	C157	C	0.110053	0.626587	0.683648
	C158	C	0.887817	0.628767	0.323179
	C159	C	0.108427	0.379174	0.320613
	C160	C	0.373791	0.687740	0.892249
	C161	C	0.620859	0.688550	0.114818
	C162	C	0.621534	0.326206	0.893540
	C163	C	0.369947	0.321825	0.113340
	C164	C	0.679222	0.894630	0.378266
	C165	C	0.680301	0.114935	0.626997
	C166	C	0.315739	0.895265	0.626761
	C167	C	0.314159	0.115515	0.377466
	C168	C	0.874151	0.395740	0.185841
	C169	C	0.122790	0.615722	0.186703
	C170	C	0.121996	0.395045	0.821866
	C171	C	0.875497	0.616821	0.823749
	C172	C	0.177063	0.883223	0.391491
	C173	C	0.178609	0.128450	0.614386
	C174	C	0.818748	0.126482	0.391312
	C175	C	0.817374	0.882674	0.615791
	C176	C	0.386601	0.187888	0.878980
	C177	C	0.608588	0.187398	0.127060
	C178	C	0.385893	0.825574	0.126581
	C179	C	0.609582	0.825809	0.879461
	C180	C	0.385997	0.883599	0.183354
	C181	C	0.608959	0.128715	0.183507
	C182	C	0.385434	0.128204	0.823399
	C183	C	0.609971	0.884292	0.822917
	C184	C	0.874237	0.186315	0.392628
	C185	C	0.121646	0.186542	0.614054
	C186	C	0.121369	0.823406	0.392538
	C187	C	0.873957	0.823693	0.615498
	C188	C	0.180087	0.395339	0.879636
	C189	C	0.178802	0.616719	0.126612
	C190	C	0.814912	0.396524	0.128858
	C191	C	0.817833	0.617664	0.882525
	C192	C	0.400626	0.096162	0.600417
	C193	C	0.593957	0.914344	0.600137
	C194	C	0.594717	0.095411	0.406132
	C195	C	0.401157	0.915719	0.406176
	C196	C	0.592408	0.409811	0.096174
	C197	C	0.595113	0.603948	0.911725
	C198	C	0.401808	0.603438	0.094763
	C199	C	0.402917	0.410404	0.913178
	C200	C	0.089598	0.600367	0.410450
	C201	C	0.905692	0.602164	0.600989
	C202	C	0.089857	0.408114	0.599506
	C203	C	0.906638	0.408897	0.408516
	C204	C	0.901596	0.597277	0.102050
	C205	C	0.092848	0.415942	0.099488
	C206	C	0.095129	0.596472	0.906160
	C207	C	0.900393	0.415542	0.907839
	C208	C	0.093553	0.908195	0.595360
	C209	C	0.092227	0.101099	0.411998
	C210	C	0.901920	0.101463	0.595012
	C211	C	0.902276	0.907123	0.412384
	C212	C	0.589469	0.103378	0.907329
	C213	C	0.405933	0.101752	0.097160
	C214	C	0.589329	0.909778	0.097781
	C215	C	0.405686	0.908593	0.907381
	Zn216	Zn	0.497740	0.005733	0.754691
	Zn217	Zn	0.497353	0.005767	0.251276
	Zn218	Zn	0.746893	0.507167	0.004957
	Zn219	Zn	0.248199	0.506108	0.003477
	Zn220	Zn	-0.001725	0.754493	0.504787
	Zn221	Zn	-0.002393	0.255125	0.503666
	Zn222	Zn	-0.002281	0.504749	0.753250
	Zn223	Zn	-0.001397	0.505628	0.255299
	Zn224	Zn	0.497893	0.756279	0.003159
	Zn225	Zn	0.497347	0.255757	0.003929
	Zn226	Zn	0.748698	0.004409	0.502726
	Zn227	Zn	0.246332	0.005463	0.502604
	N228	N	0.409703	0.970298	0.684876
	N229	N	0.584899	0.040806	0.684061
	N230	N	0.585210	0.969934	0.321064
	N231	N	0.409883	0.041395	0.321448
	N232	N	0.676016	0.421741	0.968548
	N233	N	0.676614	0.593372	0.040728
	N234	N	0.319677	0.591198	0.966532
	N235	N	0.317797	0.419569	0.040058
	N236	N	0.963090	0.685507	0.417226
	N237	N	0.033210	0.686242	0.592683
	N238	N	0.962385	0.324250	0.591874
	N239	N	0.033255	0.323959	0.416108
	N240	N	0.961171	0.419750	0.682167
	N241	N	0.034409	0.590302	0.682269
	N242	N	0.962463	0.590917	0.326287
	N243	N	0.033675	0.417024	0.323253
	N244	N	0.409992	0.687373	0.967658
	N245	N	0.585502	0.687878	0.038794
	N246	N	0.585126	0.325981	0.969148
	N247	N	0.408153	0.323831	0.038619
	N248	N	0.678176	0.968942	0.415669
	N249	N	0.678575	0.040508	0.590083
	N250	N	0.316809	0.969734	0.590072
	N251	N	0.316140	0.041384	0.415110
	N252	N	0.911246	0.470208	0.184808
	N253	N	0.086629	0.540764	0.186114
	N254	N	0.085576	0.469743	0.822628
	N255	N	0.911520	0.541828	0.824508
	N256	N	0.175804	0.919498	0.466862
	N257	N	0.176880	0.091967	0.538996
	N258	N	0.820071	0.089829	0.466479
	N259	N	0.818797	0.918345	0.540099
	N260	N	0.462574	0.187810	0.914700
	N261	N	0.532864	0.186617	0.090852
	N262	N	0.461481	0.826578	0.089693
	N263	N	0.533501	0.825813	0.915389
	N264	N	0.461481	0.920120	0.181312
	N265	N	0.533472	0.092092	0.181481
	N266	N	0.460876	0.091640	0.825129
	N267	N	0.534085	0.919978	0.824355
	N268	N	0.909228	0.186498	0.468732
	N269	N	0.084906	0.185550	0.538831
	N270	N	0.085971	0.823442	0.468688
	N271	N	0.910053	0.823430	0.539709
	N272	N	0.178821	0.470142	0.916134
	N273	N	0.176923	0.542213	0.089547
	N274	N	0.816018	0.471562	0.092881
	N275	N	0.818674	0.543201	0.919407
	O276	O	0.536975	0.451952	0.634845
	H277	H	0.545438	0.447050	0.628010
	H278	H	0.547646	0.457504	0.652120
	O279	O	0.364931	0.393530	0.427052
	H280	H	0.363558	0.392277	0.428223
	H281	H	0.362245	0.382719	0.424901
	O282	O	0.485673	0.664758	0.309057
	H283	H	0.491499	0.659501	0.298140
	H284	H	0.494355	0.667604	0.333405
	O285	O	1.011959	1.055237	0.189526
	H286	H	1.008633	1.060802	0.196778
	H287	H	1.014630	1.069005	0.193526
	O288	O	0.536164	0.301015	0.297556
	H289	H	0.514118	0.313086	0.310382
	H290	H	0.525530	0.285500	0.273015
	O291	O	0.426477	0.520707	0.294639
	H292	H	0.412961	0.509099	0.275744
	H293	H	0.431130	0.514808	0.323047
	O294	O	1.070414	0.992898	1.062164
	H295	H	1.062792	0.983789	1.065798
	H296	H	1.066637	0.986725	1.063730
	O297	O	0.638718	0.624253	0.656948
	H298	H	0.643512	0.641769	0.626587
	H299	H	0.616795	0.631967	0.675420
	O300	O	0.165178	-0.108404	-0.033600
	H301	H	0.174904	-0.103270	-0.044232
	H302	H	0.167185	-0.117132	-0.019352
	O303	O	0.479112	0.294037	0.667785
	H304	H	0.464878	0.281210	0.689114
	H305	H	0.455981	0.286830	0.662356
	O306	O	0.040543	0.000949	0.922622
	H307	H	0.049318	-0.018293	0.923607
	H308	H	0.025145	0.001385	0.915159
	O309	O	1.135924	-0.087783	-0.067478
	H310	H	1.144837	-0.086509	-0.067650
	H311	H	1.141867	-0.088401	-0.063957
	O312	O	0.614612	0.675495	0.424819
	H313	H	0.624988	0.674341	0.423912
	H314	H	0.617676	0.665412	0.437610
	O315	O	0.284880	0.721083	0.475210
	H316	H	0.263846	0.741272	0.455102
	H317	H	0.285380	0.722437	0.442130
	O318	O	0.318546	-0.671338	0.681065
	H319	H	0.310262	-0.627673	0.685017
	H320	H	0.317875	-0.681467	0.649445
	O321	O	0.588162	0.696558	0.695511
	H322	H	0.572251	0.696728	0.703321
	H323	H	0.575278	0.706128	0.687210
	O324	O	0.791147	0.153231	0.920213
	H325	H	0.786647	0.152478	0.910447
	H326	H	0.792260	0.164112	0.927508
	O327	O	0.400753	0.708865	0.697627
	H328	H	0.390718	0.717629	0.701498
	H329	H	0.389720	0.705385	0.683464
	O330	O	0.010203	1.195813	1.069571
	H331	H	-0.001989	1.190104	1.061666
	H332	H	0.012154	1.193972	1.083623
	O333	O	0.475617	0.512334	-0.288502
	H334	H	0.474384	0.522937	-0.287540
	H335	H	0.478183	0.504465	-0.279435
	O336	O	0.846500	1.101116	0.099607
	H337	H	0.837915	1.091087	0.075859
	H338	H	0.829652	1.108399	0.108412
	O339	O	0.033661	0.972853	1.205528
	H340	H	0.029012	0.982160	1.205620
	H341	H	0.029342	0.989647	1.212258
	O342	O	0.550702	0.463572	0.505089
	H343	H	0.559159	0.443951	0.497194
	H344	H	0.560344	0.468406	0.503812
	O345	O	-0.048579	-0.091139	1.007026
	H346	H	-0.049577	-0.092182	1.005804
	H347	H	-0.045860	-0.092656	1.005875
	O348	O	0.317996	0.693114	0.326772
	H349	H	0.333370	0.668785	0.316252
	H350	H	0.340382	0.683504	0.314309
	O351	O	0.992370	0.881377	-0.173520
	H352	H	1.013540	0.892732	-0.176709
	H353	H	0.997357	0.870552	-0.186672
	O354	O	0.442034	0.512162	1.440715
	H355	H	0.452150	0.516929	1.439967
	H356	H	0.426828	0.507290	1.448786
	O357	O	-0.114583	-0.165432	0.093095
	H358	H	-0.097636	-0.157090	0.103768
	H359	H	-0.117546	-0.176529	0.092270
	O360	O	0.381729	0.560080	0.582764
	H361	H	0.393634	0.559183	0.578460
	H362	H	0.379334	0.571786	0.585274
	O363	O	0.971178	0.219920	-0.194255
	H364	H	0.957202	0.225478	-0.216176
	H365	H	0.954990	0.224330	-0.206918
	O366	O	0.145131	0.154670	1.166102
	H367	H	0.142808	0.148013	1.162914
	H368	H	0.138312	0.154901	1.156631
	O369	O	0.835094	0.049394	0.813470
	H370	H	0.833513	0.040588	0.808759
	H371	H	0.839084	0.042679	0.820163
	O372	O	0.320250	0.437524	0.546524
	H373	H	0.340265	0.431917	0.535006
	H374	H	0.306265	0.432030	0.535229
	O375	O	0.150954	0.145265	1.085040
	H376	H	0.147150	0.152409	1.061555
	H377	H	0.163580	0.158414	1.081213
	O378	O	0.705312	0.482398	0.311123
	H379	H	0.721276	0.475433	0.312129
	H380	H	0.690588	0.493437	0.297020
	O381	O	0.145701	0.891580	-0.093643
	H382	H	0.156153	0.893822	-0.100448
	H383	H	0.146733	0.907011	-0.092790
	O384	O	0.283899	0.517087	0.368540
	H385	H	0.268472	0.529505	0.364387
	H386	H	0.279314	0.490264	0.385811
	O387	O	0.490911	0.318645	0.496175
	H388	H	0.514941	0.323652	0.511361
	H389	H	0.499955	0.327501	0.503216
	O390	O	1.056671	1.006720	-0.019919
	H391	H	1.068274	1.016484	-0.030401
	H392	H	1.050491	1.012970	-0.009075
	O393	O	1.014562	0.198962	0.967641
	H394	H	0.999663	0.194068	0.961841
	H395	H	1.009239	0.203563	0.939769
	O396	O	0.706339	0.283825	0.483295
	H397	H	0.705072	0.279926	0.448020
	H398	H	0.721469	0.264349	0.479305
	O399	O	0.667575	0.318061	0.344233
	H400	H	0.642672	0.314072	0.347408
	H401	H	0.653648	0.343829	0.337936
	O402	O	0.988530	0.844101	0.173889
	H403	H	0.998816	0.839818	0.163078
	H404	H	0.996280	0.853358	0.176890
	O405	O	0.085395	0.029403	-0.190308
	H406	H	0.089365	0.047567	-0.188102
	H407	H	0.085053	0.027404	-0.193524
	O408	O	0.639186	0.422240	0.518404
	H409	H	0.635237	0.398417	0.528805
	H410	H	0.650395	0.415592	0.518098
	O411	O	0.841971	0.840087	1.041615
	H412	H	0.840336	0.840595	1.048970
	H413	H	0.829509	0.825622	1.042386
	O414	O	0.703609	0.708307	0.516841
	H415	H	0.708697	0.696689	0.527772
	H416	H	0.724350	0.718774	0.521368
	O417	O	-0.143167	0.934813	1.160107
	H418	H	-0.161805	0.943064	1.166482
	H419	H	-0.131055	0.916567	1.152924
	O420	O	0.377731	1.362978	1.449062
	H421	H	0.395052	1.365634	1.475333
	H422	H	0.376924	1.360210	1.457244
	O423	O	-0.120311	1.004083	0.009835
	H424	H	-0.101028	1.001726	0.006435
	H425	H	-0.120271	1.000882	0.010967
	O426	O	0.816422	0.081003	-0.092821
	H427	H	0.820278	0.078975	-0.100967
	H428	H	0.810395	0.075413	-0.070115
	O429	O	0.567276	0.532221	0.398242
	H430	H	0.567131	0.540909	0.412426
	H431	H	0.546345	0.533374	0.393633
	O432	O	0.403502	0.631611	0.647638
	H433	H	0.401430	0.637066	0.643095
	H434	H	0.400072	0.631951	0.644917
	O435	O	0.136824	-0.018685	0.007248
	H436	H	0.139751	-0.020394	0.008023
	H437	H	0.133686	-0.017336	0.010261
	O438	O	-0.323288	1.365872	0.705628
	H439	H	-0.340711	1.374358	0.709909
	H440	H	-0.323974	1.371103	0.699879
	O441	O	0.486983	0.627208	0.603487
	H442	H	0.495195	0.608276	0.601963
	H443	H	0.493789	0.633925	0.594025
