data_Molecule from HDF5

_cell_length_a		16.235109
_cell_length_b		16.406876
_cell_length_c		16.228123
_cell_angle_alpha	90.139729
_cell_angle_beta	89.775931
_cell_angle_gamma	89.574524
_symmetry_space_group_name_H-M	'P 1'
_symmetry_Int_Tables_number		1

loop_
	_symmetry_equiv_pos_as_xyz
	x,y,z

loop_
	_atom_site_label
	_atom_site_type_symbol
	_atom_site_fract_x
	_atom_site_fract_y
	_atom_site_fract_z
	H0	H	0.396919	0.839897	0.706345
	H1	H	0.595052	0.163340	0.706401
	H2	H	0.599651	0.840331	0.271787
	H3	H	0.396110	0.164008	0.274693
	H4	H	0.713837	0.400854	0.827097
	H5	H	0.708246	0.599964	0.154993
	H6	H	0.283276	0.600562	0.826399
	H7	H	0.281560	0.406120	0.154372
	H8	H	0.834780	0.720341	0.389233
	H9	H	0.161639	0.714602	0.587962
	H10	H	0.833424	0.286596	0.592418
	H11	H	0.160420	0.284227	0.387703
	H12	H	0.832792	0.403987	0.705966
	H13	H	0.162032	0.597435	0.702138
	H14	H	0.832048	0.599875	0.278120
	H15	H	0.161037	0.402782	0.274338
	H16	H	0.393730	0.719696	0.827751
	H17	H	0.597120	0.720743	0.152281
	H18	H	0.601374	0.282883	0.827657
	H19	H	0.393510	0.285298	0.152826
	H20	H	0.715456	0.839559	0.388630
	H21	H	0.711151	0.164059	0.589090
	H22	H	0.282543	0.839153	0.588769
	H23	H	0.277891	0.162831	0.389209
	H24	H	0.897038	0.339956	0.206044
	H25	H	0.093082	0.664278	0.206099
	H26	H	0.097729	0.339684	0.773742
	H27	H	0.896708	0.664666	0.775529
	H28	H	0.213588	0.901276	0.325728
	H29	H	0.209471	0.098741	0.654832
	H30	H	0.783660	0.099646	0.325714
	H31	H	0.783963	0.904510	0.653691
	H32	H	0.333502	0.219168	0.890839
	H33	H	0.660026	0.218159	0.090420
	H34	H	0.333349	0.788209	0.092254
	H35	H	0.657358	0.782380	0.885899
	H36	H	0.333260	0.905886	0.205358
	H37	H	0.661355	0.100425	0.203673
	H38	H	0.331976	0.101774	0.777132
	H39	H	0.659696	0.902343	0.775454
	H40	H	0.895030	0.219205	0.327551
	H41	H	0.096903	0.218483	0.653617
	H42	H	0.101033	0.782957	0.326606
	H43	H	0.898084	0.787539	0.653084
	H44	H	0.215583	0.340478	0.889236
	H45	H	0.209286	0.665064	0.089778
	H46	H	0.779805	0.339914	0.090961
	H47	H	0.777608	0.663244	0.890071
	H48	H	0.401701	0.118965	0.589255
	H49	H	0.597964	0.883017	0.586136
	H50	H	0.599307	0.119009	0.400568
	H51	H	0.407024	0.885326	0.390978
	H52	H	0.591370	0.417798	0.104936
	H53	H	0.572582	0.593341	0.878154
	H54	H	0.407271	0.596632	0.106095
	H55	H	0.407604	0.406621	0.874461
	H56	H	0.115468	0.594033	0.392372
	H57	H	0.882254	0.595934	0.577432
	H58	H	0.111511	0.413072	0.583695
	H59	H	0.880894	0.403981	0.403696
	H60	H	0.115088	0.404158	0.582070
	H61	H	0.881837	0.592612	0.583886
	H62	H	0.113628	0.596867	0.399771
	H63	H	0.883938	0.416757	0.401635
	H64	H	0.401978	0.599005	0.108502
	H65	H	0.593289	0.603509	0.869085
	H66	H	0.577385	0.408713	0.103037
	H67	H	0.403544	0.412242	0.874073
	H68	H	0.586577	0.119171	0.387443
	H69	H	0.582330	0.888000	0.586473
	H70	H	0.408611	0.114060	0.580247
	H71	H	0.412185	0.889789	0.400438
	H72	H	0.901439	0.618489	0.086489
	H73	H	0.092086	0.387250	0.078134
	H74	H	0.084555	0.613824	0.904961
	H75	H	0.905090	0.386491	0.896073
	H76	H	0.094992	0.899682	0.610135
	H77	H	0.086297	0.098092	0.373462
	H78	H	0.896228	0.092164	0.608386
	H79	H	0.908232	0.907194	0.372639
	H80	H	0.613038	0.089711	0.894237
	H81	H	0.380117	0.097059	0.083927
	H82	H	0.615670	0.901645	0.079635
	H83	H	0.379704	0.915157	0.896107
	H84	H	0.609522	0.912839	0.072387
	H85	H	0.380453	0.096283	0.081477
	H86	H	0.613705	0.097624	0.897672
	H87	H	0.376757	0.906160	0.896290
	H88	H	0.909916	0.090518	0.603476
	H89	H	0.092645	0.090544	0.374252
	H90	H	0.093506	0.917373	0.604739
	H91	H	0.905209	0.910039	0.372485
	H92	H	0.098757	0.621273	0.895455
	H93	H	0.090179	0.386317	0.084551
	H94	H	0.903056	0.615396	0.083054
	H95	H	0.907109	0.387930	0.897971
	H96	H	0.397005	0.117296	0.578256
	H97	H	0.591968	0.888882	0.572780
	H98	H	0.582893	0.112449	0.403790
	H99	H	0.401517	0.886262	0.401687
	H100	H	0.591119	0.402567	0.109747
	H101	H	0.593122	0.581021	0.876331
	H102	H	0.402117	0.593224	0.106209
	H103	H	0.409565	0.412371	0.875357
	H104	H	0.111803	0.589478	0.398052
	H105	H	0.878776	0.599222	0.583550
	H106	H	0.110438	0.409147	0.575275
	H107	H	0.878701	0.409730	0.391638
	H108	H	0.899244	0.617569	0.082173
	H109	H	0.085879	0.387923	0.080406
	H110	H	0.083281	0.618066	0.887483
	H111	H	0.903974	0.386857	0.898947
	H112	H	0.079095	0.905799	0.604140
	H113	H	0.082648	0.089866	0.376708
	H114	H	0.905314	0.103658	0.608614
	H115	H	0.909528	0.910830	0.374175
	H116	H	0.610635	0.091282	0.902951
	H117	H	0.381104	0.095044	0.082701
	H118	H	0.613699	0.914226	0.086004
	H119	H	0.380726	0.910057	0.904044
	C120	C	0.374024	0.009714	0.611834
	C121	C	0.618865	0.993518	0.611440
	C122	C	0.620147	0.010286	0.366946
	C123	C	0.375954	0.993744	0.368445
	C124	C	0.617835	0.379732	-0.001601
	C125	C	0.616351	0.622970	0.982275
	C126	C	0.374176	0.625130	-0.000734
	C127	C	0.376314	0.382002	0.982177
	C128	C	0.005529	0.623088	0.368191
	C129	C	0.989129	0.623520	0.611050
	C130	C	0.004883	0.380507	0.611043
	C131	C	0.988808	0.379907	0.368323
	C132	C	0.873056	0.510161	0.112823
	C133	C	0.117070	0.494570	0.110720
	C134	C	0.119264	0.510497	0.867034
	C135	C	0.874846	0.493676	0.868606
	C136	C	0.119669	0.878658	0.498061
	C137	C	0.117324	0.122401	0.482444
	C138	C	0.874772	0.124366	0.498724
	C139	C	0.877889	0.881141	0.481119
	C140	C	0.504801	0.123396	0.868778
	C141	C	0.488671	0.124370	0.111741
	C142	C	0.505083	0.881704	0.110210
	C143	C	0.486756	0.879983	0.868091
	C144	C	0.376710	0.888081	0.667809
	C145	C	0.615671	0.115177	0.667704
	C146	C	0.619428	0.888513	0.310250
	C147	C	0.376203	0.115348	0.312484
	C148	C	0.675291	0.380872	0.875842
	C149	C	0.670877	0.620426	0.105694
	C150	C	0.319378	0.622352	0.875768
	C151	C	0.319480	0.384740	0.105290
	C152	C	0.882967	0.680503	0.369648
	C153	C	0.112522	0.677442	0.608627
	C154	C	0.882098	0.325056	0.611068
	C155	C	0.111534	0.322924	0.368378
	C156	C	0.881784	0.383472	0.667595
	C157	C	0.112722	0.619069	0.665414
	C158	C	0.881618	0.620677	0.314446
	C159	C	0.111903	0.381762	0.311747
	C160	C	0.374995	0.680982	0.876372
	C161	C	0.615661	0.680601	0.104400
	C162	C	0.619461	0.322129	0.876274
	C163	C	0.375317	0.324895	0.104457
	C164	C	0.676962	0.888221	0.368428
	C165	C	0.673321	0.115523	0.609242
	C166	C	0.319501	0.887780	0.609670
	C167	C	0.317331	0.114750	0.369426
	C168	C	0.876101	0.388240	0.168160
	C169	C	0.113713	0.616159	0.167346
	C170	C	0.118326	0.388272	0.811515
	C171	C	0.876222	0.615830	0.813151
	C172	C	0.175682	0.880974	0.374748
	C173	C	0.172367	0.119913	0.605598
	C174	C	0.820036	0.121566	0.375305
	C175	C	0.822004	0.883978	0.604703
	C176	C	0.382203	0.180577	0.870686
	C177	C	0.611406	0.179928	0.110165
	C178	C	0.382119	0.826404	0.111138
	C179	C	0.608984	0.821839	0.867434
	C180	C	0.382102	0.884996	0.167103
	C181	C	0.612271	0.121127	0.166326
	C182	C	0.381145	0.121727	0.814409
	C183	C	0.610180	0.881673	0.812344
	C184	C	0.875648	0.180718	0.376243
	C185	C	0.116350	0.179256	0.604993
	C186	C	0.119822	0.821978	0.375278
	C187	C	0.878324	0.825396	0.604196
	C188	C	0.176389	0.388723	0.869263
	C189	C	0.171236	0.616788	0.109486
	C190	C	0.818077	0.388165	0.110800
	C191	C	0.817094	0.615079	0.870153
	C192	C	0.395970	0.094718	0.589260
	C193	C	0.596975	0.908524	0.588644
	C194	C	0.596422	0.094942	0.390390
	C195	C	0.399982	0.909131	0.391295
	C196	C	0.593756	0.402814	0.083819
	C197	C	0.593067	0.599421	0.896754
	C198	C	0.397043	0.602886	0.084785
	C199	C	0.399990	0.404099	0.896625
	C200	C	0.091504	0.600228	0.390129
	C201	C	0.903282	0.602231	0.588232
	C202	C	0.090280	0.402329	0.587342
	C203	C	0.903295	0.403322	0.391881
	C204	C	0.894728	0.595006	0.090496
	C205	C	0.095638	0.409336	0.087623
	C206	C	0.095832	0.595778	0.889458
	C207	C	0.898371	0.408891	0.891088
	C208	C	0.096180	0.901105	0.583965
	C209	C	0.094071	0.099544	0.396753
	C210	C	0.897066	0.102120	0.584484
	C211	C	0.901028	0.903054	0.395362
	C212	C	0.590528	0.099676	0.891465
	C213	C	0.402828	0.102656	0.089355
	C214	C	0.590639	0.903184	0.086235
	C215	C	0.401222	0.903639	0.891767
	Zn216	Zn	0.495680	0.001907	0.740387
	Zn217	Zn	0.497744	0.002188	0.238969
	Zn218	Zn	0.745353	0.501333	-0.009261
	Zn219	Zn	0.247052	0.503676	-0.009981
	Zn220	Zn	-0.002197	0.751236	0.489323
	Zn221	Zn	-0.003325	0.252191	0.490155
	Zn222	Zn	-0.003187	0.502033	0.739055
	Zn223	Zn	-0.004024	0.501647	0.240230
	Zn224	Zn	0.495284	0.752641	-0.009949
	Zn225	Zn	0.496840	0.251814	-0.010028
	Zn226	Zn	0.748325	0.001474	0.489589
	Zn227	Zn	0.246208	0.001127	0.489823
	N228	N	0.410060	0.964923	0.669232
	N229	N	0.582386	0.038375	0.669027
	N230	N	0.584756	0.965408	0.309289
	N231	N	0.412097	0.039220	0.311947
	N232	N	0.674414	0.416117	0.952859
	N233	N	0.671646	0.585387	0.028536
	N234	N	0.318872	0.588108	0.952932
	N235	N	0.319884	0.419439	0.028277
	N236	N	0.960972	0.682047	0.402318
	N237	N	0.034672	0.680348	0.575434
	N238	N	0.959667	0.323083	0.576645
	N239	N	0.034009	0.321694	0.402869
	N240	N	0.959075	0.417197	0.667822
	N241	N	0.034924	0.586362	0.667030
	N242	N	0.958911	0.585735	0.313479
	N243	N	0.034508	0.416322	0.311595
	N244	N	0.408382	0.682901	0.954171
	N245	N	0.582540	0.682223	0.026599
	N246	N	0.584334	0.321499	0.953490
	N247	N	0.409994	0.323152	0.026998
	N248	N	0.677690	0.964828	0.402806
	N249	N	0.675060	0.038807	0.574777
	N250	N	0.318026	0.964350	0.575555
	N251	N	0.317147	0.038113	0.403596
	N252	N	0.909366	0.465077	0.169762
	N253	N	0.080710	0.539060	0.168134
	N254	N	0.083522	0.464924	0.810160
	N255	N	0.911334	0.539202	0.811812
	N256	N	0.175821	0.915399	0.452232
	N257	N	0.173059	0.085177	0.528327
	N258	N	0.819110	0.087465	0.452435
	N259	N	0.821387	0.917869	0.527204
	N260	N	0.460016	0.181594	0.903669
	N261	N	0.533525	0.182028	0.077089
	N262	N	0.459606	0.823955	0.076547
	N263	N	0.531202	0.820881	0.901348
	N264	N	0.459501	0.918582	0.166709
	N265	N	0.534926	0.087334	0.167602
	N266	N	0.458738	0.087163	0.812816
	N267	N	0.533145	0.917193	0.812635
	N268	N	0.909010	0.182646	0.454082
	N269	N	0.082948	0.180949	0.527239
	N270	N	0.085739	0.820482	0.452928
	N271	N	0.912373	0.823439	0.526467
	N272	N	0.177220	0.465844	0.902986
	N273	N	0.173458	0.540161	0.074933
	N274	N	0.815990	0.464898	0.077188
	N275	N	0.816210	0.538324	0.904042
	O276	O	-0.023635	-0.031345	0.018901
	H277	H	-0.027348	-0.030266	0.026637
	H278	H	-0.023827	-0.025209	0.026784
	O279	O	0.965242	-0.014588	1.000087
	H280	H	0.962938	-0.019291	0.992054
	H281	H	0.954526	-0.014724	1.008409
	O282	O	0.546834	0.514443	0.387452
	H283	H	0.536873	0.522418	0.385050
	H284	H	0.540723	0.512842	0.394924
	O285	O	-0.058296	1.032573	1.031099
	H286	H	-0.049773	1.034565	1.027294
	H287	H	-0.053295	1.036513	1.032903
	O288	O	0.548161	0.413429	0.443763
	H289	H	0.547732	0.406669	0.429777
	H290	H	0.556174	0.411474	0.441223
	O291	O	0.568770	0.420299	1.428481
	H292	H	0.568347	0.429187	1.420207
	H293	H	0.573509	0.417607	1.423152
	O294	O	0.988736	1.085674	0.989605
	H295	H	0.980607	1.079398	0.986497
	H296	H	0.990488	1.077485	0.988001
	O297	O	0.931221	0.068149	1.011009
	H298	H	0.929779	0.063852	1.006464
	H299	H	0.933060	0.071735	1.011257
	O300	O	0.525561	0.541561	0.436732
	H301	H	0.520792	0.533685	0.436644
	H302	H	0.531731	0.541203	0.438723
	O303	O	1.072557	0.068101	0.006589
	H304	H	1.076514	0.060725	0.003547
	H305	H	1.076000	0.072784	-0.004748
	O306	O	-0.524203	1.398587	0.581687
	H307	H	-0.523140	1.391789	0.575935
	H308	H	-0.523480	1.397661	0.581490
	O309	O	0.510391	0.529804	0.450371
	H310	H	0.509111	0.538720	0.463484
	H311	H	0.514024	0.535861	0.444178
	O312	O	1.492961	0.580655	1.449078
	H313	H	1.485025	0.572333	1.453511
	H314	H	1.494841	0.592250	1.444860
	O315	O	0.573619	0.414484	0.509346
	H316	H	0.578478	0.405073	0.516859
	H317	H	0.563577	0.401994	0.500740
	O318	O	0.562346	0.430897	0.416880
	H319	H	0.574180	0.432913	0.414430
	H320	H	0.559358	0.432000	0.418337
	O321	O	0.950373	0.879228	1.046865
	H322	H	0.948414	0.873216	1.063442
	H323	H	0.942776	0.886299	1.042399
	O324	O	0.396463	0.491118	0.456787
	H325	H	0.401922	0.486826	0.454716
	H326	H	0.401703	0.488489	0.458595
	O327	O	0.444439	0.450129	0.549783
	H328	H	0.435322	0.448833	0.545222
	H329	H	0.443596	0.443801	0.555588
	O330	O	0.963899	-0.028703	0.949737
	H331	H	0.969828	-0.031673	0.956205
	H332	H	0.960004	-0.040796	0.952003
	O333	O	0.997994	0.978740	0.009863
	H334	H	0.990053	0.981245	0.011630
	H335	H	0.998375	0.978053	-0.001005
	O336	O	0.469381	0.534584	0.464292
	H337	H	0.462991	0.524896	0.474196
	H338	H	0.476272	0.528943	0.464298
	O339	O	0.550763	0.572579	0.442905
	H340	H	0.541662	0.566645	0.441764
	H341	H	0.551344	0.571997	0.446829
	O342	O	0.036113	1.017469	-0.046742
	H343	H	0.039328	1.016482	-0.035074
	H344	H	0.034418	1.010302	-0.053090
	O345	O	0.005454	0.074284	0.001382
	H346	H	0.012948	0.062255	-0.006435
	H347	H	0.004671	0.084897	-0.004934
	O348	O	0.492272	0.602490	0.553069
	H349	H	0.487077	0.599486	0.550214
	H350	H	0.488008	0.594938	0.565701
	O351	O	0.423164	0.439161	0.558300
	H352	H	0.423330	0.436568	0.556076
	H353	H	0.430048	0.432439	0.551888
	O354	O	0.567218	0.490296	0.537101
	H355	H	0.562601	0.505208	0.534581
	H356	H	0.567780	0.489143	0.550365
	O357	O	0.492290	0.542249	0.550459
	H358	H	0.495424	0.542103	0.556421
	H359	H	0.484028	0.548315	0.555344
	O360	O	0.040286	-0.055757	0.042789
	H361	H	0.039582	-0.047939	0.048338
	H362	H	0.038749	-0.066855	0.048406
	O363	O	0.464361	0.505129	0.484358
	H364	H	0.462713	0.502820	0.482308
	H365	H	0.477002	0.510976	0.487843
	O366	O	-0.033502	0.023911	1.055514
	H367	H	-0.029761	0.035540	1.052320
	H368	H	-0.032873	0.037271	1.054410
	O369	O	0.538935	0.569143	0.586826
	H370	H	0.542694	0.573728	0.577018
	H371	H	0.539133	0.571780	0.580978
