data_Molecule from HDF5

_cell_length_a		16.302634
_cell_length_b		16.323309
_cell_length_c		16.284026
_cell_angle_alpha	89.942644
_cell_angle_beta	90.135732
_cell_angle_gamma	89.992731
_symmetry_space_group_name_H-M	'P 1'
_symmetry_Int_Tables_number		1

loop_
	_symmetry_equiv_pos_as_xyz
	x,y,z

loop_
	_atom_site_label
	_atom_site_type_symbol
	_atom_site_fract_x
	_atom_site_fract_y
	_atom_site_fract_z
	H0	H	0.398798	0.834650	0.722725
	H1	H	0.594406	0.161583	0.723238
	H2	H	0.596011	0.835232	0.292404
	H3	H	0.397312	0.161243	0.293652
	H4	H	0.707859	0.401732	0.842911
	H5	H	0.713172	0.597328	0.169460
	H6	H	0.281291	0.598731	0.843442
	H7	H	0.280482	0.398985	0.170086
	H8	H	0.832775	0.713794	0.406426
	H9	H	0.159499	0.712212	0.606628
	H10	H	0.832214	0.281637	0.605509
	H11	H	0.158838	0.282134	0.408647
	H12	H	0.831943	0.397969	0.721352
	H13	H	0.159116	0.595905	0.722487
	H14	H	0.832070	0.595543	0.291679
	H15	H	0.159855	0.399327	0.294062
	H16	H	0.396517	0.715399	0.845051
	H17	H	0.596465	0.712864	0.171291
	H18	H	0.594660	0.283832	0.844550
	H19	H	0.397031	0.284833	0.171368
	H20	H	0.710614	0.834700	0.409916
	H21	H	0.711510	0.161442	0.607607
	H22	H	0.281009	0.835188	0.609700
	H23	H	0.281055	0.160993	0.409669
	H24	H	0.897313	0.334040	0.221610
	H25	H	0.096006	0.660051	0.223776
	H26	H	0.092234	0.333589	0.794818
	H27	H	0.895566	0.660187	0.791049
	H28	H	0.210864	0.899126	0.344701
	H29	H	0.210100	0.095840	0.672798
	H30	H	0.781067	0.096146	0.345005
	H31	H	0.782888	0.900153	0.672299
	H32	H	0.332273	0.212670	0.909217
	H33	H	0.659573	0.214507	0.108489
	H34	H	0.332932	0.782378	0.108484
	H35	H	0.659083	0.783630	0.909311
	H36	H	0.332214	0.901057	0.222554
	H37	H	0.660460	0.095997	0.223084
	H38	H	0.332313	0.096431	0.793892
	H39	H	0.659442	0.899521	0.794358
	H40	H	0.897028	0.211100	0.344200
	H41	H	0.093616	0.212671	0.671478
	H42	H	0.094299	0.784077	0.344111
	H43	H	0.897354	0.782412	0.671446
	H44	H	0.212767	0.335683	0.907046
	H45	H	0.211110	0.660926	0.106534
	H46	H	0.780857	0.334558	0.105665
	H47	H	0.781184	0.660638	0.907956
	H48	H	0.405900	0.114724	0.608116
	H49	H	0.586942	0.882477	0.602708
	H50	H	0.590503	0.115269	0.412657
	H51	H	0.398914	0.883615	0.424806
	H52	H	0.590706	0.414292	0.121891
	H53	H	0.582498	0.588321	0.894545
	H54	H	0.400908	0.584790	0.122261
	H55	H	0.405496	0.411768	0.893458
	H56	H	0.107919	0.582977	0.418052
	H57	H	0.879252	0.600282	0.593122
	H58	H	0.110039	0.412951	0.605625
	H59	H	0.882757	0.408755	0.419540
	H60	H	0.114846	0.396950	0.603977
	H61	H	0.883633	0.580662	0.593012
	H62	H	0.113796	0.591374	0.407833
	H63	H	0.877993	0.406463	0.407275
	H64	H	0.409356	0.592410	0.122545
	H65	H	0.587868	0.600868	0.888212
	H66	H	0.582602	0.404088	0.122905
	H67	H	0.408823	0.401918	0.891466
	H68	H	0.585147	0.112670	0.416158
	H69	H	0.589675	0.883404	0.598992
	H70	H	0.405949	0.111638	0.596267
	H71	H	0.398390	0.877857	0.408919
	H72	H	0.901968	0.614584	0.101009
	H73	H	0.090515	0.382111	0.097651
	H74	H	0.091378	0.614061	0.918399
	H75	H	0.909865	0.382544	0.909551
	H76	H	0.079979	0.902151	0.622168
	H77	H	0.092607	0.095756	0.389439
	H78	H	0.899818	0.082821	0.623499
	H79	H	0.904498	0.912195	0.394812
	H80	H	0.610383	0.085299	0.915496
	H81	H	0.380173	0.094617	0.101189
	H82	H	0.610038	0.909068	0.100321
	H83	H	0.381324	0.910890	0.914761
	H84	H	0.612441	0.905055	0.104080
	H85	H	0.382148	0.091216	0.098863
	H86	H	0.614604	0.096274	0.910321
	H87	H	0.378333	0.902884	0.912504
	H88	H	0.912557	0.091328	0.622105
	H89	H	0.092916	0.083506	0.392884
	H90	H	0.095190	0.896640	0.628063
	H91	H	0.908501	0.899977	0.391666
	H92	H	0.090816	0.615861	0.909446
	H93	H	0.090282	0.381263	0.102106
	H94	H	0.907681	0.612310	0.101040
	H95	H	0.900544	0.382773	0.921501
	H96	H	0.395882	0.116008	0.601105
	H97	H	0.591394	0.881114	0.602798
	H98	H	0.591215	0.113432	0.418936
	H99	H	0.412450	0.884767	0.415538
	H100	H	0.595130	0.402907	0.126022
	H101	H	0.596137	0.588461	0.889497
	H102	H	0.399219	0.594961	0.125729
	H103	H	0.398711	0.404070	0.889634
	H104	H	0.112067	0.596343	0.421250
	H105	H	0.877390	0.589848	0.610054
	H106	H	0.108610	0.405104	0.590593
	H107	H	0.878051	0.396783	0.415509
	H108	H	0.904170	0.612158	0.095984
	H109	H	0.086584	0.382881	0.099586
	H110	H	0.083368	0.611988	0.913435
	H111	H	0.895353	0.377965	0.907842
	H112	H	0.093071	0.913307	0.622997
	H113	H	0.082292	0.090183	0.394329
	H114	H	0.899280	0.096998	0.628016
	H115	H	0.895929	0.903832	0.389622
	H116	H	0.611301	0.094955	0.922220
	H117	H	0.379995	0.090410	0.103031
	H118	H	0.612245	0.903099	0.098419
	H119	H	0.380493	0.904309	0.920690
	C120	C	0.374563	0.006409	0.630433
	C121	C	0.618043	0.990134	0.630596
	C122	C	0.617658	0.006016	0.387275
	C123	C	0.374423	0.989705	0.387192
	C124	C	0.617625	0.377612	0.015696
	C125	C	0.618257	0.620503	0.998879
	C126	C	0.374644	0.620073	0.015669
	C127	C	0.375216	0.377511	0.999139
	C128	C	0.003739	0.619214	0.385642
	C129	C	0.987681	0.619067	0.628523
	C130	C	0.003513	0.375765	0.628559
	C131	C	0.987575	0.375286	0.385543
	C132	C	0.875037	0.505507	0.128173
	C133	C	0.118221	0.489567	0.128853
	C134	C	0.117426	0.506014	0.885211
	C135	C	0.873608	0.488868	0.884534
	C136	C	0.117899	0.875602	0.516442
	C137	C	0.117772	0.119010	0.500247
	C138	C	0.874747	0.118811	0.516676
	C139	C	0.874209	0.876129	0.500016
	C140	C	0.504145	0.120445	0.886936
	C141	C	0.488510	0.120925	0.130367
	C142	C	0.503966	0.876436	0.130265
	C143	C	0.487835	0.877208	0.887095
	C144	C	0.377748	0.883624	0.685474
	C145	C	0.615605	0.112785	0.685807
	C146	C	0.615930	0.883733	0.331114
	C147	C	0.376802	0.112601	0.331653
	C148	C	0.671371	0.380360	0.892239
	C149	C	0.674640	0.618054	0.121242
	C150	C	0.318856	0.618899	0.892722
	C151	C	0.318970	0.379404	0.121687
	C152	C	0.881129	0.675015	0.386789
	C153	C	0.110712	0.673957	0.626456
	C154	C	0.880737	0.320152	0.625816
	C155	C	0.110253	0.320026	0.388309
	C156	C	0.880668	0.377662	0.683495
	C157	C	0.110602	0.615948	0.683907
	C158	C	0.881035	0.616540	0.329469
	C159	C	0.110737	0.378075	0.331126
	C160	C	0.376282	0.676793	0.893304
	C161	C	0.616354	0.675136	0.122101
	C162	C	0.614897	0.321843	0.893159
	C163	C	0.376755	0.322275	0.122236
	C164	C	0.673040	0.883495	0.389265
	C165	C	0.673925	0.112526	0.628476
	C166	C	0.319216	0.883683	0.629240
	C167	C	0.319105	0.112387	0.389364
	C168	C	0.876915	0.382793	0.183701
	C169	C	0.116158	0.611564	0.185291
	C170	C	0.114124	0.382972	0.831085
	C171	C	0.875608	0.611803	0.829275
	C172	C	0.173143	0.878472	0.393696
	C173	C	0.172412	0.116549	0.623693
	C174	C	0.819246	0.116228	0.393589
	C175	C	0.820114	0.879054	0.623291
	C176	C	0.381148	0.174998	0.889437
	C177	C	0.610840	0.176451	0.128682
	C178	C	0.381599	0.820584	0.128738
	C179	C	0.610451	0.821911	0.889229
	C180	C	0.381163	0.879470	0.185408
	C181	C	0.611170	0.117627	0.185904
	C182	C	0.381114	0.117370	0.831735
	C183	C	0.610574	0.879716	0.832079
	C184	C	0.876811	0.173471	0.393197
	C185	C	0.114747	0.174614	0.623121
	C186	C	0.115103	0.821489	0.393128
	C187	C	0.877219	0.820653	0.622803
	C188	C	0.173503	0.383830	0.887281
	C189	C	0.172957	0.612294	0.126663
	C190	C	0.819120	0.383096	0.125842
	C191	C	0.818755	0.611982	0.887387
	C192	C	0.396166	0.091949	0.608258
	C193	C	0.595751	0.904626	0.608046
	C194	C	0.595456	0.091622	0.409628
	C195	C	0.396783	0.904207	0.409636
	C196	C	0.595768	0.400400	0.101547
	C197	C	0.595457	0.599018	0.913029
	C198	C	0.396635	0.597291	0.101207
	C199	C	0.397819	0.399484	0.913681
	C200	C	0.089056	0.596653	0.408783
	C201	C	0.902302	0.596884	0.605370
	C202	C	0.089102	0.398172	0.606413
	C203	C	0.901848	0.397669	0.407537
	C204	C	0.897771	0.590948	0.105875
	C205	C	0.095810	0.404089	0.106244
	C206	C	0.095011	0.591747	0.907382
	C207	C	0.895346	0.403262	0.906516
	C208	C	0.095758	0.897435	0.602307
	C209	C	0.095640	0.096528	0.414436
	C210	C	0.897236	0.096856	0.602480
	C211	C	0.896436	0.898796	0.414202
	C212	C	0.589928	0.098631	0.909384
	C213	C	0.402716	0.098636	0.107667
	C214	C	0.589563	0.898992	0.107600
	C215	C	0.402205	0.899506	0.909464
	Zn216	Zn	0.495914	-0.001659	0.758662
	Zn217	Zn	0.496078	-0.001926	0.259079
	Zn218	Zn	0.746492	0.497806	0.006686
	Zn219	Zn	0.246503	0.498327	0.006667
	Zn220	Zn	-0.003965	0.748065	0.507309
	Zn221	Zn	-0.004390	0.246947	0.507201
	Zn222	Zn	-0.004929	0.497638	0.756888
	Zn223	Zn	-0.003917	0.496897	0.257403
	Zn224	Zn	0.496223	0.748575	0.008171
	Zn225	Zn	0.496492	0.249491	0.008240
	Zn226	Zn	0.746368	-0.002129	0.508128
	Zn227	Zn	0.246239	-0.002771	0.509118
	N228	N	0.411471	0.960851	0.686293
	N229	N	0.581603	0.035752	0.687150
	N230	N	0.582157	0.960988	0.329703
	N231	N	0.410529	0.035366	0.330305
	N232	N	0.673110	0.414394	0.969486
	N233	N	0.676006	0.584842	0.043720
	N234	N	0.317790	0.584388	0.969816
	N235	N	0.317898	0.412958	0.044250
	N236	N	0.958256	0.676986	0.420936
	N237	N	0.033293	0.676069	0.592578
	N238	N	0.958166	0.318762	0.592335
	N239	N	0.032693	0.318390	0.421742
	N240	N	0.957860	0.411603	0.685206
	N241	N	0.033110	0.582617	0.685189
	N242	N	0.958356	0.582452	0.328889
	N243	N	0.033335	0.411370	0.329127
	N244	N	0.410310	0.677700	0.970709
	N245	N	0.581958	0.676788	0.044824
	N246	N	0.582317	0.320110	0.971014
	N247	N	0.411145	0.320884	0.045204
	N248	N	0.673909	0.960522	0.423591
	N249	N	0.675619	0.035153	0.594754
	N250	N	0.316989	0.960905	0.595681
	N251	N	0.317268	0.035074	0.423217
	N252	N	0.911113	0.459785	0.185036
	N253	N	0.082434	0.534218	0.186542
	N254	N	0.079914	0.460114	0.829731
	N255	N	0.908938	0.534454	0.827360
	N256	N	0.175130	0.911486	0.471429
	N257	N	0.174324	0.082760	0.546255
	N258	N	0.817832	0.083216	0.471288
	N259	N	0.818052	0.912494	0.545866
	N260	N	0.458784	0.177375	0.922984
	N261	N	0.533476	0.178319	0.094741
	N262	N	0.459183	0.818641	0.095347
	N263	N	0.533232	0.820409	0.922939
	N264	N	0.458312	0.913403	0.186527
	N265	N	0.533807	0.084020	0.187285
	N266	N	0.458556	0.084048	0.830141
	N267	N	0.533210	0.913474	0.830761
	N268	N	0.910762	0.175175	0.470645
	N269	N	0.081534	0.176182	0.545457
	N270	N	0.081444	0.819846	0.470439
	N271	N	0.910063	0.818760	0.544984
	N272	N	0.175444	0.461301	0.920482
	N273	N	0.174482	0.535351	0.092520
	N274	N	0.818026	0.460433	0.092129
	N275	N	0.817608	0.534691	0.921187
	O276	O	0.499063	0.514939	0.512344
	H277	H	0.505185	0.516666	0.508248
	H278	H	0.490040	0.514290	0.513669
	O279	O	0.505848	0.551807	0.543458
	H280	H	0.510249	0.554406	0.543246
	H281	H	0.487026	0.550181	0.533426
	O282	O	0.478360	0.471934	0.494754
	H283	H	0.480109	0.464728	0.498409
	H284	H	0.474257	0.478495	0.487464
	O285	O	-0.014670	1.048302	1.025694
	H286	H	-0.014106	1.049448	1.021970
	H287	H	-0.011305	1.049018	1.021418
	O288	O	0.563519	1.443779	-0.571613
	H289	H	0.572607	1.441770	-0.574141
	H290	H	0.564186	1.450703	-0.569387
	O291	O	-0.005696	-0.006473	1.067602
	H292	H	-0.014017	-0.008998	1.061215
	H293	H	0.001009	-0.009697	1.072551
	O294	O	0.483846	0.488218	0.456243
	H295	H	0.477294	0.485766	0.468264
	H296	H	0.487483	0.491566	0.455723
	O297	O	0.413038	0.468171	0.467416
	H298	H	0.418962	0.463756	0.461255
	H299	H	0.416323	0.469561	0.460503
	O300	O	0.469664	0.431182	0.496208
	H301	H	0.475247	0.442017	0.494942
	H302	H	0.473939	0.424419	0.492919
	O303	O	0.461158	0.554888	0.516118
	H304	H	0.454451	0.547637	0.526519
	H305	H	0.461161	0.546919	0.518601
	O306	O	0.957864	0.032449	1.028993
	H307	H	0.956679	0.035926	1.024500
	H308	H	0.954156	0.032659	1.032098
	O309	O	0.516405	0.516587	0.495026
	H310	H	0.517362	0.525714	0.495471
	H311	H	0.509799	0.510688	0.504028
	O312	O	0.488626	0.539155	0.629617
	H313	H	0.481720	0.538825	0.625482
	H314	H	0.475032	0.542143	0.626557
	O315	O	1.011056	0.026487	1.009744
	H316	H	1.009344	0.033699	1.008517
	H317	H	1.011573	0.024626	1.015015
	O318	O	0.001484	-0.002094	0.002992
	H319	H	0.006333	-0.008322	0.004739
	H320	H	0.003586	-0.001763	0.003593
	O321	O	0.420645	0.506953	0.430868
	H322	H	0.415262	0.517679	0.419330
	H323	H	0.423690	0.500819	0.429589
	O324	O	0.963185	0.047851	0.010629
	H325	H	0.963903	0.047985	0.016147
	H326	H	0.960266	0.046485	0.013860
	O327	O	1.543214	0.503581	-0.553142
	H328	H	1.546274	0.509329	-0.558040
	H329	H	1.546219	0.504474	-0.543228
	O330	O	0.404613	0.438923	0.536783
	H331	H	0.401619	0.440414	0.524831
	H332	H	0.407111	0.428476	0.531473
	O333	O	0.497139	0.601336	0.466840
	H334	H	0.500788	0.596726	0.476293
	H335	H	0.499306	0.598635	0.467412
