data_Molecule from HDF5

_cell_length_a		16.356760
_cell_length_b		16.335798
_cell_length_c		16.302096
_cell_angle_alpha	90.046161
_cell_angle_beta	89.810920
_cell_angle_gamma	89.999638
_symmetry_space_group_name_H-M	'P 1'
_symmetry_Int_Tables_number		1

loop_
	_symmetry_equiv_pos_as_xyz
	x,y,z

loop_
	_atom_site_label
	_atom_site_type_symbol
	_atom_site_fract_x
	_atom_site_fract_y
	_atom_site_fract_z
	H0	H	0.399266	0.840965	0.717195
	H1	H	0.594058	0.168172	0.716181
	H2	H	0.596545	0.841073	0.286703
	H3	H	0.399530	0.167658	0.288406
	H4	H	0.712474	0.405207	0.839307
	H5	H	0.710588	0.603403	0.166014
	H6	H	0.282492	0.602349	0.838811
	H7	H	0.280238	0.404452	0.165358
	H8	H	0.834227	0.720226	0.403359
	H9	H	0.160200	0.718444	0.600526
	H10	H	0.834384	0.287981	0.602200
	H11	H	0.159663	0.290273	0.404303
	H12	H	0.833939	0.405774	0.717427
	H13	H	0.159683	0.602643	0.717288
	H14	H	0.833094	0.602258	0.288866
	H15	H	0.159042	0.406289	0.287523
	H16	H	0.399143	0.718166	0.838299
	H17	H	0.595565	0.719865	0.165339
	H18	H	0.595366	0.288899	0.839114
	H19	H	0.398033	0.289683	0.165332
	H20	H	0.713996	0.841479	0.401920
	H21	H	0.711667	0.167453	0.600127
	H22	H	0.282623	0.840806	0.601571
	H23	H	0.282499	0.167560	0.403958
	H24	H	0.898345	0.340501	0.215965
	H25	H	0.092913	0.667465	0.216346
	H26	H	0.094312	0.340939	0.788196
	H27	H	0.899423	0.668083	0.788756
	H28	H	0.212578	0.905775	0.338983
	H29	H	0.210203	0.102058	0.666813
	H30	H	0.783458	0.102405	0.338943
	H31	H	0.781494	0.904864	0.665615
	H32	H	0.333709	0.218858	0.903451
	H33	H	0.658971	0.219960	0.100644
	H34	H	0.333844	0.790066	0.100465
	H35	H	0.659880	0.789702	0.903357
	H36	H	0.333839	0.906651	0.217197
	H37	H	0.660340	0.101621	0.215499
	H38	H	0.333675	0.101397	0.788443
	H39	H	0.660003	0.906054	0.787274
	H40	H	0.900343	0.217626	0.338478
	H41	H	0.093925	0.218412	0.666078
	H42	H	0.096729	0.788719	0.339379
	H43	H	0.898606	0.789651	0.665955
	H44	H	0.210909	0.341081	0.903735
	H45	H	0.210754	0.667584	0.100397
	H46	H	0.781183	0.341454	0.100897
	H47	H	0.781418	0.667667	0.904666
	H48	H	0.397605	0.122252	0.597951
	H49	H	0.596504	0.886497	0.594400
	H50	H	0.592837	0.120147	0.411024
	H51	H	0.402155	0.889536	0.416346
	H52	H	0.589447	0.409164	0.119010
	H53	H	0.584559	0.594334	0.888970
	H54	H	0.398890	0.593275	0.117562
	H55	H	0.399140	0.413689	0.884958
	H56	H	0.108929	0.595204	0.414869
	H57	H	0.879219	0.602726	0.597694
	H58	H	0.114827	0.410122	0.603730
	H59	H	0.881283	0.411510	0.410961
	H60	H	0.113211	0.402976	0.589970
	H61	H	0.883270	0.596132	0.589380
	H62	H	0.112339	0.591775	0.403652
	H63	H	0.879997	0.409813	0.407221
	H64	H	0.408019	0.594385	0.115818
	H65	H	0.589393	0.603156	0.884965
	H66	H	0.590465	0.413010	0.118571
	H67	H	0.407166	0.412762	0.887866
	H68	H	0.591874	0.120893	0.407041
	H69	H	0.587234	0.887533	0.601195
	H70	H	0.407980	0.119539	0.599380
	H71	H	0.400493	0.887160	0.405359
	H72	H	0.893151	0.622590	0.095872
	H73	H	0.091040	0.384017	0.107424
	H74	H	0.089574	0.618724	0.914840
	H75	H	0.907035	0.391402	0.915610
	H76	H	0.088686	0.903489	0.620354
	H77	H	0.095762	0.086767	0.388476
	H78	H	0.904963	0.101089	0.619524
	H79	H	0.906887	0.912038	0.386963
	H80	H	0.613581	0.102226	0.910917
	H81	H	0.381831	0.096710	0.093477
	H82	H	0.610547	0.907869	0.085292
	H83	H	0.380131	0.910818	0.907370
	H84	H	0.610476	0.920357	0.097069
	H85	H	0.380623	0.095012	0.097257
	H86	H	0.610446	0.094253	0.913574
	H87	H	0.380226	0.908045	0.909798
	H88	H	0.899545	0.094692	0.618752
	H89	H	0.080814	0.099196	0.388949
	H90	H	0.097637	0.913361	0.619730
	H91	H	0.905154	0.910376	0.386577
	H92	H	0.096370	0.622774	0.907066
	H93	H	0.078733	0.392659	0.091181
	H94	H	0.907997	0.621270	0.104816
	H95	H	0.895361	0.386684	0.910767
	H96	H	0.403848	0.119044	0.590027
	H97	H	0.586742	0.891159	0.589654
	H98	H	0.589038	0.118823	0.409521
	H99	H	0.410981	0.889925	0.408923
	H100	H	0.586393	0.411918	0.117990
	H101	H	0.594987	0.593829	0.885407
	H102	H	0.403212	0.601579	0.119256
	H103	H	0.403101	0.406404	0.884332
	H104	H	0.114445	0.603320	0.407503
	H105	H	0.881961	0.591876	0.599687
	H106	H	0.109402	0.417683	0.591427
	H107	H	0.879549	0.407346	0.410918
	H108	H	0.907504	0.616685	0.088395
	H109	H	0.099820	0.387667	0.087325
	H110	H	0.085537	0.620441	0.904384
	H111	H	0.906714	0.387341	0.902684
	H112	H	0.085089	0.915602	0.616011
	H113	H	0.098282	0.105568	0.381822
	H114	H	0.907376	0.093686	0.617224
	H115	H	0.905206	0.912610	0.387261
	H116	H	0.612761	0.095583	0.905053
	H117	H	0.380416	0.099304	0.096837
	H118	H	0.616689	0.904844	0.101060
	H119	H	0.382441	0.911739	0.910645
	C120	C	0.375476	0.012311	0.624103
	C121	C	0.618474	0.996340	0.623524
	C122	C	0.619622	0.012004	0.380584
	C123	C	0.375956	0.996490	0.381489
	C124	C	0.617565	0.382944	0.010530
	C125	C	0.618066	0.625763	0.994362
	C126	C	0.375227	0.625539	0.010018
	C127	C	0.374763	0.382705	0.994011
	C128	C	0.004426	0.625527	0.380907
	C129	C	0.989105	0.625532	0.623836
	C130	C	0.004944	0.382243	0.623917
	C131	C	0.988003	0.381748	0.380985
	C132	C	0.874257	0.512515	0.124514
	C133	C	0.118226	0.495814	0.123751
	C134	C	0.118161	0.512298	0.880783
	C135	C	0.875103	0.496354	0.881325
	C136	C	0.119511	0.881913	0.511051
	C137	C	0.119183	0.125332	0.494505
	C138	C	0.876166	0.125051	0.510294
	C139	C	0.876474	0.882781	0.494522
	C140	C	0.504693	0.125653	0.881027
	C141	C	0.488638	0.125690	0.124141
	C142	C	0.505096	0.882331	0.123807
	C143	C	0.488540	0.882114	0.880546
	C144	C	0.378325	0.889583	0.679297
	C145	C	0.615266	0.119263	0.678529
	C146	C	0.616913	0.889647	0.325047
	C147	C	0.378885	0.119118	0.326519
	C148	C	0.673800	0.384812	0.887896
	C149	C	0.672837	0.623658	0.117192
	C150	C	0.320552	0.623004	0.887349
	C151	C	0.319180	0.385145	0.116817
	C152	C	0.882532	0.681671	0.383332
	C153	C	0.111488	0.680677	0.621353
	C154	C	0.882606	0.326771	0.621921
	C155	C	0.110951	0.327592	0.383437
	C156	C	0.882446	0.384827	0.679625
	C157	C	0.111289	0.622980	0.679081
	C158	C	0.881715	0.622970	0.326541
	C159	C	0.110681	0.385488	0.325676
	C160	C	0.378283	0.680780	0.887361
	C161	C	0.615514	0.681448	0.116825
	C162	C	0.615494	0.327477	0.887642
	C163	C	0.377376	0.327874	0.116881
	C164	C	0.675201	0.889747	0.382293
	C165	C	0.673506	0.118949	0.620844
	C166	C	0.320255	0.889605	0.622094
	C167	C	0.320610	0.118962	0.383849
	C168	C	0.877314	0.389568	0.178818
	C169	C	0.114482	0.618600	0.178814
	C170	C	0.114869	0.389549	0.826074
	C171	C	0.878193	0.619302	0.826256
	C172	C	0.174273	0.885280	0.387694
	C173	C	0.172573	0.122458	0.618043
	C174	C	0.821397	0.122868	0.387599
	C175	C	0.819937	0.884597	0.617030
	C176	C	0.382219	0.180548	0.883527
	C177	C	0.610788	0.181387	0.121295
	C178	C	0.382441	0.827641	0.121393
	C179	C	0.611306	0.827400	0.882763
	C180	C	0.382267	0.885630	0.179025
	C181	C	0.611271	0.123064	0.178652
	C182	C	0.382145	0.122114	0.826553
	C183	C	0.611352	0.885398	0.825257
	C184	C	0.879518	0.179984	0.387342
	C185	C	0.115197	0.180479	0.617527
	C186	C	0.116810	0.827199	0.387818
	C187	C	0.878291	0.827641	0.617381
	C188	C	0.172680	0.389547	0.883590
	C189	C	0.173000	0.618656	0.121352
	C190	C	0.819186	0.389893	0.121581
	C191	C	0.820068	0.619301	0.884120
	C192	C	0.396851	0.098089	0.602139
	C193	C	0.596645	0.910633	0.601474
	C194	C	0.597725	0.097837	0.402718
	C195	C	0.397995	0.910943	0.403785
	C196	C	0.595147	0.405055	0.096163
	C197	C	0.596306	0.603458	0.908481
	C198	C	0.396995	0.603001	0.095637
	C199	C	0.396701	0.404546	0.908001
	C200	C	0.089896	0.603264	0.402314
	C201	C	0.903611	0.603601	0.601834
	C202	C	0.090430	0.404100	0.601691
	C203	C	0.902331	0.403156	0.403146
	C204	C	0.896269	0.598186	0.102533
	C205	C	0.096398	0.410090	0.101723
	C206	C	0.096748	0.598327	0.902398
	C207	C	0.896788	0.410712	0.902993
	C208	C	0.097102	0.904268	0.596659
	C209	C	0.098047	0.103536	0.408587
	C210	C	0.897639	0.102948	0.596413
	C211	C	0.899263	0.905070	0.409008
	C212	C	0.590178	0.103728	0.903246
	C213	C	0.403006	0.103486	0.102330
	C214	C	0.590483	0.904583	0.101228
	C215	C	0.403066	0.903814	0.902747
	Zn216	Zn	0.496937	0.004404	0.752162
	Zn217	Zn	0.497317	0.003875	0.252388
	Zn218	Zn	0.746040	0.504374	0.002658
	Zn219	Zn	0.246952	0.504232	0.001880
	Zn220	Zn	-0.002535	0.754212	0.502537
	Zn221	Zn	-0.003055	0.253389	0.502401
	Zn222	Zn	-0.003222	0.504273	0.752238
	Zn223	Zn	-0.004234	0.503832	0.252498
	Zn224	Zn	0.496954	0.753831	0.002113
	Zn225	Zn	0.495993	0.254496	0.002434
	Zn226	Zn	0.747828	0.004000	0.502221
	Zn227	Zn	0.247209	0.003946	0.502576
	N228	N	0.411888	0.966738	0.680746
	N229	N	0.581944	0.041871	0.680332
	N230	N	0.582921	0.966698	0.323991
	N231	N	0.412543	0.041991	0.324904
	N232	N	0.675142	0.418580	0.965243
	N233	N	0.674380	0.589536	0.039945
	N234	N	0.318530	0.589511	0.964619
	N235	N	0.317505	0.418415	0.039262
	N236	N	0.959869	0.683170	0.416518
	N237	N	0.034583	0.682275	0.587690
	N238	N	0.959735	0.324879	0.588168
	N239	N	0.033800	0.325377	0.417205
	N240	N	0.959479	0.418547	0.680952
	N241	N	0.034145	0.589321	0.680644
	N242	N	0.958378	0.588472	0.325104
	N243	N	0.033291	0.418546	0.324112
	N244	N	0.411770	0.682234	0.964723
	N245	N	0.582276	0.682819	0.039550
	N246	N	0.581378	0.326143	0.964934
	N247	N	0.411235	0.326374	0.039473
	N248	N	0.676866	0.966877	0.416107
	N249	N	0.675533	0.041529	0.587416
	N250	N	0.318383	0.966813	0.588410
	N251	N	0.318612	0.041585	0.417164
	N252	N	0.910873	0.466803	0.180722
	N253	N	0.081262	0.541137	0.180696
	N254	N	0.081576	0.466836	0.824386
	N255	N	0.911727	0.541948	0.824524
	N256	N	0.176092	0.918519	0.465263
	N257	N	0.175127	0.088854	0.540622
	N258	N	0.819186	0.089529	0.465143
	N259	N	0.818480	0.918105	0.539631
	N260	N	0.459478	0.182855	0.916814
	N261	N	0.533398	0.183349	0.088301
	N262	N	0.459812	0.825441	0.087990
	N263	N	0.534107	0.825238	0.916484
	N264	N	0.459506	0.918915	0.180699
	N265	N	0.534272	0.089145	0.180371
	N266	N	0.459380	0.089006	0.824730
	N267	N	0.534098	0.918614	0.823630
	N268	N	0.912530	0.181585	0.464932
	N269	N	0.082488	0.182213	0.539815
	N270	N	0.083760	0.824834	0.465479
	N271	N	0.912858	0.826652	0.540367
	N272	N	0.175023	0.467003	0.916762
	N273	N	0.175305	0.541454	0.087861
	N274	N	0.817384	0.467305	0.088477
	N275	N	0.817988	0.542027	0.917611
	O276	O	1.522996	-0.422902	0.420685
	H277	H	1.528291	-0.420023	0.420932
	H278	H	1.518619	-0.419002	0.421769
	O279	O	0.502837	0.578369	0.455417
	H280	H	0.489014	0.571749	0.451599
	H281	H	0.512427	0.585281	0.465622
	O282	O	0.476244	0.590441	0.476766
	H283	H	0.472578	0.592484	0.471124
	H284	H	0.470134	0.584916	0.478533
	O285	O	0.484981	0.584081	0.428688
	H286	H	0.494143	0.582262	0.436498
	H287	H	0.489687	0.592069	0.409430
