data_Molecule from HDF5

_cell_length_a		16.256214
_cell_length_b		16.316054
_cell_length_c		16.389381
_cell_angle_alpha	90.097734
_cell_angle_beta	89.777471
_cell_angle_gamma	90.023804
_symmetry_space_group_name_H-M	'P 1'
_symmetry_Int_Tables_number		1

loop_
	_symmetry_equiv_pos_as_xyz
	x,y,z

loop_
	_atom_site_label
	_atom_site_type_symbol
	_atom_site_fract_x
	_atom_site_fract_y
	_atom_site_fract_z
	H0	H	0.409405	0.837446	0.717671
	H1	H	0.610268	0.163157	0.717638
	H2	H	0.610877	0.837482	0.284614
	H3	H	0.410275	0.163432	0.287054
	H4	H	0.723751	0.403240	0.838481
	H5	H	0.723454	0.599577	0.164589
	H6	H	0.296656	0.597434	0.838078
	H7	H	0.293731	0.402046	0.164716
	H8	H	0.845696	0.714381	0.403738
	H9	H	0.173854	0.714151	0.599240
	H10	H	0.846324	0.286127	0.600270
	H11	H	0.173550	0.286658	0.402503
	H12	H	0.846394	0.400124	0.717364
	H13	H	0.173095	0.600123	0.716598
	H14	H	0.846852	0.599698	0.286417
	H15	H	0.172452	0.400857	0.284823
	H16	H	0.410843	0.715880	0.839434
	H17	H	0.607134	0.715902	0.163792
	H18	H	0.608536	0.285284	0.838531
	H19	H	0.408666	0.284038	0.164253
	H20	H	0.724913	0.836917	0.402491
	H21	H	0.724087	0.163815	0.599496
	H22	H	0.295283	0.836687	0.599694
	H23	H	0.296580	0.163847	0.405224
	H24	H	0.908751	0.337681	0.216643
	H25	H	0.108566	0.663468	0.215811
	H26	H	0.109641	0.337307	0.784606
	H27	H	0.910857	0.662917	0.786638
	H28	H	0.224771	0.902108	0.338432
	H29	H	0.222731	0.097967	0.665402
	H30	H	0.795841	0.098158	0.338769
	H31	H	0.794680	0.903014	0.664894
	H32	H	0.345050	0.212961	0.904401
	H33	H	0.673537	0.214410	0.098201
	H34	H	0.345118	0.786567	0.100353
	H35	H	0.673262	0.784648	0.901074
	H36	H	0.346604	0.899767	0.219307
	H37	H	0.673944	0.099831	0.216080
	H38	H	0.346277	0.099196	0.787232
	H39	H	0.672980	0.901436	0.786190
	H40	H	0.911360	0.215835	0.339003
	H41	H	0.108371	0.216711	0.664263
	H42	H	0.110196	0.783649	0.339752
	H43	H	0.910127	0.785439	0.664386
	H44	H	0.224282	0.336518	0.901571
	H45	H	0.221977	0.663960	0.097189
	H46	H	0.794887	0.337025	0.098626
	H47	H	0.795945	0.663790	0.904298
	H48	H	0.413820	0.115950	0.593186
	H49	H	0.593549	0.889090	0.588787
	H50	H	0.602382	0.114689	0.411476
	H51	H	0.417119	0.887019	0.417018
	H52	H	0.600056	0.400939	0.118217
	H53	H	0.599375	0.598428	0.885334
	H54	H	0.416284	0.594459	0.117141
	H55	H	0.414274	0.405243	0.885436
	H56	H	0.126445	0.594520	0.409456
	H57	H	0.890272	0.601848	0.597303
	H58	H	0.122885	0.408342	0.583866
	H59	H	0.890452	0.399761	0.410500
	H60	H	0.125701	0.416555	0.598469
	H61	H	0.897344	0.590733	0.585490
	H62	H	0.124928	0.589952	0.408688
	H63	H	0.896704	0.412689	0.414463
	H64	H	0.413736	0.594939	0.117944
	H65	H	0.609093	0.594070	0.883830
	H66	H	0.606780	0.409612	0.117656
	H67	H	0.417051	0.409223	0.887091
	H68	H	0.603980	0.116788	0.407223
	H69	H	0.610704	0.884059	0.589066
	H70	H	0.416654	0.117143	0.599330
	H71	H	0.411145	0.880843	0.404970
	H72	H	0.912639	0.619207	0.100282
	H73	H	0.097155	0.388989	0.083490
	H74	H	0.107165	0.615743	0.913883
	H75	H	0.913615	0.383440	0.909025
	H76	H	0.108990	0.905296	0.619479
	H77	H	0.101861	0.096627	0.386484
	H78	H	0.926833	0.096385	0.614013
	H79	H	0.922814	0.907768	0.388039
	H80	H	0.627442	0.096356	0.910176
	H81	H	0.392527	0.093955	0.096830
	H82	H	0.627613	0.907652	0.099723
	H83	H	0.395414	0.912501	0.909646
	H84	H	0.625581	0.903182	0.089516
	H85	H	0.394263	0.091331	0.093172
	H86	H	0.624387	0.090119	0.910290
	H87	H	0.391819	0.905964	0.903625
	H88	H	0.909445	0.102279	0.621076
	H89	H	0.106219	0.094113	0.385823
	H90	H	0.101634	0.914494	0.614591
	H91	H	0.917141	0.903313	0.385202
	H92	H	0.105462	0.618420	0.901455
	H93	H	0.112226	0.380344	0.094324
	H94	H	0.923894	0.614439	0.095418
	H95	H	0.917391	0.383554	0.904841
	H96	H	0.420124	0.114603	0.594715
	H97	H	0.600475	0.882118	0.604334
	H98	H	0.599633	0.114981	0.408096
	H99	H	0.424833	0.885547	0.405039
	H100	H	0.596123	0.410469	0.113763
	H101	H	0.600402	0.588331	0.888152
	H102	H	0.414792	0.592157	0.116642
	H103	H	0.419405	0.404823	0.886205
	H104	H	0.127667	0.592576	0.404899
	H105	H	0.893708	0.585415	0.601377
	H106	H	0.129357	0.400508	0.597205
	H107	H	0.891536	0.411194	0.400536
	H108	H	0.913535	0.615150	0.088000
	H109	H	0.093701	0.383892	0.102942
	H110	H	0.095341	0.613431	0.908068
	H111	H	0.919138	0.385294	0.909849
	H112	H	0.097260	0.902965	0.616996
	H113	H	0.102292	0.091936	0.387380
	H114	H	0.912123	0.083834	0.615730
	H115	H	0.915717	0.911023	0.387164
	H116	H	0.626507	0.092779	0.904721
	H117	H	0.394055	0.089971	0.097655
	H118	H	0.622601	0.914047	0.091648
	H119	H	0.393112	0.903929	0.912677
	C120	C	0.387943	0.008229	0.624046
	C121	C	0.630726	0.992562	0.622709
	C122	C	0.631531	0.008077	0.379797
	C123	C	0.388886	0.992285	0.380382
	C124	C	0.630638	0.378370	0.009397
	C125	C	0.630962	0.622489	0.993415
	C126	C	0.387336	0.621979	0.009706
	C127	C	0.387585	0.378083	0.993763
	C128	C	0.018282	0.621696	0.379634
	C129	C	1.001589	0.622058	0.623517
	C130	C	0.017902	0.379468	0.622536
	C131	C	1.000933	0.379002	0.379708
	C132	C	0.887113	0.508895	0.123394
	C133	C	0.129863	0.492130	0.122028
	C134	C	0.131440	0.507968	0.878941
	C135	C	0.888164	0.492084	0.879913
	C136	C	0.131693	0.878680	0.509733
	C137	C	0.131516	0.122731	0.493584
	C138	C	0.887719	0.122623	0.509637
	C139	C	0.888650	0.878882	0.494248
	C140	C	0.517797	0.121508	0.880408
	C141	C	0.501492	0.121262	0.123561
	C142	C	0.517769	0.879053	0.123183
	C143	C	0.501419	0.878576	0.879668
	C144	C	0.389629	0.886020	0.679275
	C145	C	0.629505	0.114762	0.678831
	C146	C	0.630393	0.885997	0.323217
	C147	C	0.390818	0.114825	0.325411
	C148	C	0.686349	0.381371	0.887230
	C149	C	0.685609	0.619736	0.115782
	C150	C	0.333797	0.618400	0.886862
	C151	C	0.331577	0.381305	0.115975
	C152	C	0.894917	0.676662	0.383142
	C153	C	0.125043	0.676337	0.619751
	C154	C	0.894809	0.324070	0.620799
	C155	C	0.124323	0.324281	0.382020
	C156	C	0.895301	0.380438	0.679325
	C157	C	0.124420	0.620009	0.678373
	C158	C	0.895269	0.619800	0.324783
	C159	C	0.123727	0.380592	0.323200
	C160	C	0.390592	0.677199	0.887444
	C161	C	0.628210	0.677992	0.115380
	C162	C	0.629100	0.322821	0.887301
	C163	C	0.389110	0.322788	0.115872
	C164	C	0.687228	0.885689	0.381567
	C165	C	0.686351	0.115144	0.620028
	C166	C	0.332825	0.885571	0.620856
	C167	C	0.333945	0.115055	0.383811
	C168	C	0.888806	0.386227	0.178384
	C169	C	0.128624	0.614718	0.177645
	C170	C	0.129933	0.386007	0.822778
	C171	C	0.890386	0.614398	0.824543
	C172	C	0.186987	0.881434	0.387128
	C173	C	0.185876	0.119507	0.616536
	C174	C	0.833332	0.119289	0.387199
	C175	C	0.832795	0.882044	0.616129
	C176	C	0.394399	0.175685	0.883585
	C177	C	0.624767	0.176923	0.119856
	C178	C	0.394186	0.824069	0.120908
	C179	C	0.624208	0.822726	0.881162
	C180	C	0.394894	0.880444	0.179802
	C181	C	0.624961	0.119961	0.178093
	C182	C	0.394893	0.119244	0.825417
	C183	C	0.624272	0.880943	0.824322
	C184	C	0.891141	0.177289	0.387175
	C185	C	0.128666	0.178119	0.616095
	C186	C	0.130218	0.822446	0.387836
	C187	C	0.889973	0.823506	0.615934
	C188	C	0.186724	0.385336	0.881229
	C189	C	0.184834	0.615171	0.118599
	C190	C	0.832107	0.385982	0.119808
	C191	C	0.833194	0.614856	0.882954
	C192	C	0.410375	0.094014	0.602176
	C193	C	0.608081	0.907006	0.600598
	C194	C	0.608565	0.093452	0.402263
	C195	C	0.411119	0.906527	0.402459
	C196	C	0.607696	0.400592	0.094535
	C197	C	0.609217	0.600214	0.907873
	C198	C	0.408674	0.600472	0.095083
	C199	C	0.410265	0.400155	0.908356
	C200	C	0.104084	0.598972	0.401371
	C201	C	0.915773	0.599504	0.601129
	C202	C	0.103860	0.401854	0.599883
	C203	C	0.915052	0.401301	0.402018
	C204	C	0.909999	0.594233	0.101269
	C205	C	0.107514	0.406598	0.100063
	C206	C	0.109258	0.593801	0.901212
	C207	C	0.910220	0.406163	0.901750
	C208	C	0.109332	0.900951	0.594978
	C209	C	0.109779	0.100817	0.408632
	C210	C	0.909627	0.100677	0.594895
	C211	C	0.911734	0.900871	0.408692
	C212	C	0.604068	0.099548	0.902087
	C213	C	0.415926	0.098557	0.102165
	C214	C	0.603059	0.901614	0.100229
	C215	C	0.415539	0.900906	0.902187
	Zn216	Zn	0.509593	0.000745	0.752357
	Zn217	Zn	0.510312	0.000449	0.251662
	Zn218	Zn	0.759306	0.500555	0.001550
	Zn219	Zn	0.258712	0.499906	0.001145
	Zn220	Zn	0.010253	0.749615	0.502000
	Zn221	Zn	0.009437	0.251411	0.501674
	Zn222	Zn	0.009570	0.500219	0.750912
	Zn223	Zn	0.009412	0.500299	0.251564
	Zn224	Zn	0.509223	0.750888	0.001639
	Zn225	Zn	0.509270	0.248917	0.001373
	Zn226	Zn	0.759279	0.000303	0.501152
	Zn227	Zn	0.260459	0.000314	0.501834
	N228	N	0.423476	0.963286	0.681142
	N229	N	0.595556	0.037580	0.680547
	N230	N	0.596270	0.963219	0.322377
	N231	N	0.424233	0.037384	0.323381
	N232	N	0.687420	0.415063	0.964077
	N233	N	0.687406	0.585985	0.038721
	N234	N	0.331593	0.584677	0.963759
	N235	N	0.330564	0.414971	0.038919
	N236	N	0.972478	0.678007	0.416469
	N237	N	0.047517	0.677732	0.586401
	N238	N	0.971879	0.323507	0.586200
	N239	N	0.047009	0.323106	0.416249
	N240	N	0.972909	0.414368	0.680275
	N241	N	0.046672	0.586777	0.680667
	N242	N	0.972899	0.586389	0.322547
	N243	N	0.045937	0.414012	0.321610
	N244	N	0.423326	0.679455	0.964703
	N245	N	0.595031	0.679799	0.038328
	N246	N	0.595115	0.320822	0.964378
	N247	N	0.422877	0.320498	0.038810
	N248	N	0.687996	0.962472	0.416160
	N249	N	0.686904	0.038152	0.585698
	N250	N	0.331627	0.962689	0.587327
	N251	N	0.332846	0.037990	0.417627
	N252	N	0.922597	0.463549	0.180705
	N253	N	0.095024	0.537244	0.179794
	N254	N	0.096097	0.463215	0.821484
	N255	N	0.923845	0.536989	0.822728
	N256	N	0.187883	0.915800	0.463951
	N257	N	0.187984	0.085638	0.539577
	N258	N	0.831412	0.085857	0.464244
	N259	N	0.831827	0.915558	0.539136
	N260	N	0.471918	0.177181	0.916828
	N261	N	0.547254	0.177983	0.086627
	N262	N	0.471429	0.823186	0.086221
	N263	N	0.546736	0.821289	0.914984
	N264	N	0.472517	0.914044	0.181349
	N265	N	0.547503	0.086027	0.180385
	N266	N	0.472805	0.086213	0.823303
	N267	N	0.546846	0.914903	0.823103
	N268	N	0.924002	0.179658	0.464374
	N269	N	0.095841	0.180465	0.538999
	N270	N	0.096516	0.820697	0.464968
	N271	N	0.924022	0.821434	0.538918
	N272	N	0.187802	0.462442	0.915391
	N273	N	0.185687	0.538101	0.084645
	N274	N	0.830974	0.463193	0.086411
	N275	N	0.832046	0.537730	0.916953
	O276	O	0.523985	0.471645	0.481553
	H277	H	0.525891	0.470021	0.483972
	H278	H	0.525321	0.471641	0.480031
	O279	O	0.033345	0.002297	0.019012
	H280	H	0.028131	0.009290	0.018173
	H281	H	0.034141	0.002535	0.014886
	O282	O	0.551007	0.512675	0.520419
	H283	H	0.550977	0.512864	0.519951
	H284	H	0.548516	0.509814	0.513698
	O285	O	0.541427	0.473178	0.481045
	H286	H	0.546378	0.483029	0.476258
	H287	H	0.547455	0.465303	0.484465
	O288	O	1.031095	-0.003444	0.031684
	H289	H	1.025336	-0.000392	0.035391
	H290	H	1.028178	-0.009297	0.016455
	O291	O	-0.470593	0.470227	-0.459756
	H292	H	-0.468521	0.484123	-0.461077
	H293	H	-0.464919	0.470183	-0.456458
	O294	O	0.517868	0.481750	0.515923
	H295	H	0.521356	0.477699	0.516112
	H296	H	0.514182	0.475415	0.516977
	O297	O	0.059448	0.988494	0.081315
	H298	H	0.069559	0.975212	0.082239
	H299	H	0.060511	0.996696	0.075360
	O300	O	0.469299	0.481689	0.484211
	H301	H	0.465573	0.481518	0.486552
	H302	H	0.465004	0.476048	0.495372
	O303	O	0.079693	0.992591	1.026689
	H304	H	0.076186	0.995570	1.031352
	H305	H	0.086342	0.992780	1.038987
	O306	O	0.029611	0.995010	1.044227
	H307	H	0.032799	0.992452	1.051323
	H308	H	0.037755	0.993290	1.050948
	O309	O	0.540868	0.459028	0.499949
	H310	H	0.537252	0.452395	0.504193
	H311	H	0.542486	0.457168	0.498345
