data_Molecule from HDF5

_cell_length_a		16.334204
_cell_length_b		16.294931
_cell_length_c		16.446239
_cell_angle_alpha	90.573696
_cell_angle_beta	90.261587
_cell_angle_gamma	90.005766
_symmetry_space_group_name_H-M	'P 1'
_symmetry_Int_Tables_number		1

loop_
	_symmetry_equiv_pos_as_xyz
	x,y,z

loop_
	_atom_site_label
	_atom_site_type_symbol
	_atom_site_fract_x
	_atom_site_fract_y
	_atom_site_fract_z
	H0	H	0.371528	0.824805	0.750303
	H1	H	0.580244	0.146204	0.759885
	H2	H	0.576824	0.826246	0.315925
	H3	H	0.366903	0.146774	0.314489
	H4	H	0.695807	0.380422	0.877736
	H5	H	0.695257	0.592914	0.195915
	H6	H	0.256213	0.586555	0.875419
	H7	H	0.257993	0.386467	0.196882
	H8	H	0.813964	0.701497	0.437131
	H9	H	0.137486	0.706034	0.638109
	H10	H	0.813669	0.271341	0.635541
	H11	H	0.134873	0.264830	0.429880
	H12	H	0.815758	0.385622	0.754970
	H13	H	0.136829	0.593828	0.757281
	H14	H	0.817600	0.594138	0.314906
	H15	H	0.137123	0.382900	0.316809
	H16	H	0.375021	0.699557	0.872610
	H17	H	0.577369	0.707650	0.195292
	H18	H	0.579976	0.263719	0.878060
	H19	H	0.372191	0.268641	0.196682
	H20	H	0.691717	0.826029	0.432638
	H21	H	0.695161	0.147681	0.642305
	H22	H	0.256593	0.825570	0.633892
	H23	H	0.253156	0.147554	0.431064
	H24	H	0.875014	0.326548	0.254136
	H25	H	0.080689	0.649206	0.257144
	H26	H	0.080578	0.327708	0.814348
	H27	H	0.873659	0.649666	0.820970
	H28	H	0.190987	0.884134	0.374720
	H29	H	0.196075	0.093947	0.694142
	H30	H	0.754987	0.088857	0.375200
	H31	H	0.757191	0.886849	0.694908
	H32	H	0.313313	0.205219	0.935126
	H33	H	0.636303	0.206533	0.141724
	H34	H	0.312922	0.770712	0.132612
	H35	H	0.637432	0.770076	0.934605
	H36	H	0.312923	0.884552	0.251417
	H37	H	0.633677	0.094195	0.260491
	H38	H	0.313938	0.090345	0.816075
	H39	H	0.635796	0.882574	0.815916
	H40	H	0.870099	0.205491	0.374715
	H41	H	0.080927	0.210857	0.693537
	H42	H	0.075829	0.767496	0.375544
	H43	H	0.874502	0.772969	0.696316
	H44	H	0.190681	0.324411	0.936211
	H45	H	0.193801	0.649813	0.138433
	H46	H	0.757452	0.326310	0.139620
	H47	H	0.756216	0.648252	0.934705
	H48	H	0.386938	0.101863	0.628626
	H49	H	0.566212	0.872044	0.624969
	H50	H	0.561069	0.102708	0.443966
	H51	H	0.383990	0.872978	0.444218
	H52	H	0.571725	0.394402	0.152814
	H53	H	0.571943	0.580906	0.918626
	H54	H	0.383384	0.589941	0.153422
	H55	H	0.380753	0.384982	0.918743
	H56	H	0.092079	0.581808	0.447526
	H57	H	0.864183	0.573275	0.628131
	H58	H	0.091267	0.398910	0.628445
	H59	H	0.858264	0.387400	0.443153
	H60	H	0.089582	0.397199	0.621904
	H61	H	0.857355	0.581860	0.635932
	H62	H	0.089903	0.575818	0.449066
	H63	H	0.866461	0.403590	0.455337
	H64	H	0.377894	0.573499	0.149624
	H65	H	0.570085	0.569898	0.922857
	H66	H	0.568467	0.405540	0.148974
	H67	H	0.377955	0.404550	0.923858
	H68	H	0.560636	0.100013	0.451472
	H69	H	0.565564	0.871774	0.625222
	H70	H	0.388506	0.099694	0.624437
	H71	H	0.382350	0.872392	0.442909
	H72	H	0.885531	0.598604	0.118057
	H73	H	0.078015	0.368439	0.128820
	H74	H	0.067885	0.603937	0.944084
	H75	H	0.884124	0.373208	0.947854
	H76	H	0.074019	0.897624	0.651684
	H77	H	0.063356	0.086503	0.417898
	H78	H	0.881895	0.083926	0.650893
	H79	H	0.874078	0.890836	0.416764
	H80	H	0.589162	0.079134	0.948343
	H81	H	0.359495	0.088213	0.119577
	H82	H	0.585985	0.901823	0.118748
	H83	H	0.360107	0.892318	0.942199
	H84	H	0.589941	0.902881	0.135538
	H85	H	0.365225	0.066849	0.119517
	H86	H	0.585774	0.071172	0.952663
	H87	H	0.359368	0.894804	0.940617
	H88	H	0.883921	0.072149	0.647283
	H89	H	0.072592	0.069076	0.420811
	H90	H	0.064789	0.904259	0.646492
	H91	H	0.884127	0.903275	0.424390
	H92	H	0.063794	0.601468	0.948335
	H93	H	0.060099	0.372520	0.135842
	H94	H	0.880215	0.606683	0.132162
	H95	H	0.887356	0.372055	0.940934
	H96	H	0.383995	0.101911	0.624563
	H97	H	0.565738	0.872124	0.624559
	H98	H	0.567634	0.102754	0.448102
	H99	H	0.384888	0.872024	0.442176
	H100	H	0.561216	0.396222	0.149314
	H101	H	0.560810	0.577989	0.922066
	H102	H	0.394846	0.578200	0.145260
	H103	H	0.395903	0.396256	0.926921
	H104	H	0.092510	0.576435	0.443287
	H105	H	0.860773	0.585936	0.623892
	H106	H	0.087562	0.404357	0.624819
	H107	H	0.861183	0.407122	0.434013
	H108	H	0.896136	0.600535	0.131312
	H109	H	0.064206	0.376688	0.117306
	H110	H	0.070080	0.603400	0.949962
	H111	H	0.891226	0.374883	0.946018
	H112	H	0.062677	0.892044	0.650220
	H113	H	0.053814	0.071137	0.426436
	H114	H	0.892887	0.080678	0.646622
	H115	H	0.890649	0.887265	0.421078
	H116	H	0.588726	0.071444	0.943655
	H117	H	0.357766	0.076075	0.138045
	H118	H	0.592725	0.888360	0.126944
	H119	H	0.359025	0.892084	0.940328
	C120	C	0.354086	-0.004955	0.655765
	C121	C	0.597223	0.978004	0.657812
	C122	C	0.594752	-0.004222	0.415230
	C123	C	0.351983	0.978636	0.412618
	C124	C	0.598502	0.364949	0.045469
	C125	C	0.597897	0.608736	1.026925
	C126	C	0.354495	0.609025	0.043300
	C127	C	0.354243	0.365636	1.028877
	C128	C	-0.014738	0.608762	0.415692
	C129	C	0.967238	0.611525	0.659771
	C130	C	-0.016567	0.368182	0.655946
	C131	C	0.967904	0.367151	0.413732
	C132	C	0.856412	0.495467	0.157389
	C133	C	0.098227	0.479345	0.158324
	C134	C	0.097747	0.496364	0.915284
	C135	C	0.855413	0.479542	0.915273
	C136	C	0.096558	0.866232	0.543658
	C137	C	0.096546	0.109417	0.526422
	C138	C	0.853432	0.109304	0.542928
	C139	C	0.853196	0.865339	0.527015
	C140	C	0.482167	0.106288	0.916442
	C141	C	0.466386	0.109323	0.158748
	C142	C	0.482623	0.866511	0.155885
	C143	C	0.466289	0.863318	0.911652
	C144	C	0.352463	0.873630	0.712520
	C145	C	0.598858	0.098462	0.718839
	C146	C	0.595707	0.874611	0.355564
	C147	C	0.349285	0.099035	0.354255
	C148	C	0.656633	0.361997	0.925509
	C149	C	0.655805	0.611056	0.147831
	C150	C	0.295652	0.606925	0.923079
	C151	C	0.296498	0.366655	0.148928
	C152	C	0.863076	0.664716	0.416560
	C153	C	0.088862	0.668437	0.658812
	C154	C	0.862152	0.310124	0.655363
	C155	C	0.087808	0.306178	0.412452
	C156	C	0.863240	0.367011	0.714758
	C157	C	0.088464	0.612431	0.717881
	C158	C	0.864871	0.610944	0.355846
	C159	C	0.088793	0.364555	0.355738
	C160	C	0.354650	0.663437	0.921854
	C161	C	0.597218	0.668131	0.147522
	C162	C	0.598861	0.303963	0.925811
	C163	C	0.353466	0.307951	0.148970
	C164	C	0.652775	0.874427	0.413882
	C165	C	0.656056	0.099334	0.660466
	C166	C	0.295370	0.874001	0.654391
	C167	C	0.292623	0.099436	0.412293
	C168	C	0.855828	0.374584	0.215069
	C169	C	0.099494	0.600848	0.217441
	C170	C	0.098871	0.375462	0.854909
	C171	C	0.854401	0.600984	0.859045
	C172	C	0.152741	0.865200	0.422809
	C173	C	0.156756	0.112509	0.646027
	C174	C	0.793700	0.109011	0.423148
	C175	C	0.796234	0.867320	0.647275
	C176	C	0.361553	0.165828	0.915643
	C177	C	0.587668	0.167689	0.160630
	C178	C	0.361236	0.809411	0.152904
	C179	C	0.588384	0.807246	0.913638
	C180	C	0.361251	0.866064	0.212174
	C181	C	0.586132	0.111732	0.219787
	C182	C	0.361940	0.108837	0.856315
	C183	C	0.587571	0.863648	0.854930
	C184	C	0.851396	0.166809	0.422679
	C185	C	0.099241	0.170810	0.645793
	C186	C	0.094945	0.807450	0.422996
	C187	C	0.854506	0.810338	0.647941
	C188	C	0.153453	0.373588	0.915601
	C189	C	0.155501	0.601338	0.158322
	C190	C	0.797376	0.374554	0.157997
	C191	C	0.795960	0.600126	0.915802
	C192	C	0.379382	0.079231	0.632589
	C193	C	0.572776	0.893842	0.632351
	C194	C	0.570171	0.079925	0.440374
	C195	C	0.376578	0.894436	0.436311
	C196	C	0.574187	0.391191	0.128652
	C197	C	0.574604	0.583559	0.943127
	C198	C	0.378450	0.586961	0.127646
	C199	C	0.378147	0.388618	0.944999
	C200	C	0.069446	0.585032	0.439696
	C201	C	0.882857	0.587472	0.636172
	C202	C	0.067622	0.392912	0.631958
	C203	C	0.883975	0.392234	0.437180
	C204	C	0.880377	0.580068	0.133968
	C205	C	0.074350	0.394754	0.134323
	C206	C	0.074187	0.581006	0.940102
	C207	C	0.880153	0.395221	0.938346
	C208	C	0.073807	0.890786	0.627686
	C209	C	0.070717	0.083207	0.443214
	C210	C	0.878835	0.085767	0.626498
	C211	C	0.876124	0.887406	0.442722
	C212	C	0.565941	0.081019	0.941049
	C213	C	0.382556	0.084362	0.133123
	C214	C	0.567430	0.890635	0.133531
	C215	C	0.381444	0.886422	0.934347
	Zn216	Zn	0.474355	-0.013905	0.784936
	Zn217	Zn	0.473800	-0.012674	0.285968
	Zn218	Zn	0.726770	0.487028	0.036417
	Zn219	Zn	0.225549	0.487378	0.036499
	Zn220	Zn	-0.024268	0.737217	0.536498
	Zn221	Zn	-0.025265	0.238194	0.534036
	Zn222	Zn	-0.023566	0.488899	0.786680
	Zn223	Zn	-0.023236	0.488444	0.286382
	Zn224	Zn	0.475679	0.737139	0.034208
	Zn225	Zn	0.475427	0.237043	0.037346
	Zn226	Zn	0.724578	-0.012324	0.535175
	Zn227	Zn	0.225331	-0.012388	0.534437
	N228	N	0.388280	0.950061	0.713427
	N229	N	0.563046	0.022157	0.717292
	N230	N	0.560230	0.951120	0.356226
	N231	N	0.385387	0.023003	0.354307
	N232	N	0.656466	0.399204	1.000806
	N233	N	0.656329	0.574633	0.072084
	N234	N	0.295359	0.573882	0.999633
	N235	N	0.296824	0.401770	0.073104
	N236	N	0.938813	0.663747	0.453064
	N237	N	0.012423	0.668321	0.623471
	N238	N	0.938115	0.310519	0.619722
	N239	N	0.011787	0.307648	0.447824
	N240	N	0.939752	0.402360	0.715080
	N241	N	0.011947	0.577766	0.718562
	N242	N	0.941797	0.576778	0.355037
	N243	N	0.013364	0.401940	0.356576
	N244	N	0.390352	0.664887	0.997761
	N245	N	0.562080	0.666942	0.071418
	N246	N	0.563442	0.305670	1.001532
	N247	N	0.389001	0.307573	0.073516
	N248	N	0.652407	0.950741	0.450051
	N249	N	0.655114	0.023497	0.623091
	N250	N	0.295965	0.950626	0.620003
	N251	N	0.294286	0.023551	0.448046
	N252	N	0.891544	0.450978	0.214919
	N253	N	0.064578	0.524110	0.217568
	N254	N	0.064963	0.452787	0.854700
	N255	N	0.890914	0.525059	0.858725
	N256	N	0.153759	0.901105	0.498719
	N257	N	0.155139	0.075087	0.570779
	N258	N	0.794670	0.074220	0.499044
	N259	N	0.795219	0.900678	0.570847
	N260	N	0.437369	0.164482	0.952316
	N261	N	0.512053	0.166569	0.123563
	N262	N	0.437891	0.809573	0.118768
	N263	N	0.511984	0.807039	0.948202
	N264	N	0.437926	0.900890	0.214051
	N265	N	0.509619	0.076444	0.218820
	N266	N	0.437911	0.072752	0.856549
	N267	N	0.510499	0.897469	0.853309
	N268	N	0.887848	0.167095	0.498168
	N269	N	0.062820	0.169269	0.570193
	N270	N	0.060770	0.808085	0.499196
	N271	N	0.889038	0.808797	0.572028
	N272	N	0.152805	0.449610	0.952468
	N273	N	0.155056	0.524854	0.122356
	N274	N	0.797392	0.450928	0.122989
	N275	N	0.796453	0.523468	0.949981
	O276	O	0.430482	0.466850	0.727810
	H277	H	0.431989	0.472394	0.723966
	H278	H	0.424852	0.472094	0.719984
	O279	O	0.596897	0.380437	0.607352
	H280	H	0.593783	0.358780	0.598853
	H281	H	0.605397	0.399834	0.612296
	O282	O	0.939211	-0.028822	1.097400
	H283	H	0.947484	-0.015065	1.104730
	H284	H	0.937424	-0.026770	1.081553
	O285	O	1.013231	0.165831	0.044534
	H286	H	1.012476	0.158374	0.033626
	H287	H	0.996392	0.182388	0.040265
	O288	O	0.872650	0.847089	1.110381
	H289	H	0.875366	0.839491	1.134747
	H290	H	0.896668	0.840219	1.099394
	O291	O	0.568185	1.656054	0.595691
	H292	H	0.574552	1.644236	0.569131
	H293	H	0.575051	1.663160	0.604646
	O294	O	0.346518	0.654082	0.584529
	H295	H	0.355166	0.654974	0.592378
	H296	H	0.364823	0.663601	0.570973
	O297	O	0.264396	0.405668	0.483826
	H298	H	0.239836	0.398929	0.470450
	H299	H	0.291605	0.412640	0.478910
	O300	O	1.077601	-0.017370	-0.130109
	H301	H	1.067990	-0.021751	-0.134928
	H302	H	1.068854	0.002619	-0.134727
	O303	O	0.671340	0.362561	0.577871
	H304	H	0.673446	0.362956	0.594282
	H305	H	0.667844	0.353858	0.590709
	O306	O	0.465348	1.383135	0.724933
	H307	H	0.454458	1.388040	0.736163
	H308	H	0.448492	1.391526	0.730673
	O309	O	0.431277	0.528876	0.364469
	H310	H	0.431266	0.519748	0.359980
	H311	H	0.419415	0.536532	0.367243
	O312	O	0.503239	0.554116	0.573970
	H313	H	0.523561	0.553379	0.568838
	H314	H	0.507094	0.561288	0.588120
	O315	O	0.501437	0.295987	0.607228
	H316	H	0.476453	0.294017	0.586969
	H317	H	0.497850	0.288608	0.616530
	O318	O	-0.077587	0.979272	0.979997
	H319	H	-0.095220	0.977506	1.007723
	H320	H	-0.075758	0.985029	0.988798
	O321	O	0.638056	0.635146	0.683450
	H322	H	0.646963	0.639402	0.679036
	H323	H	0.654310	0.641412	0.689105
	O324	O	-0.151371	-0.201760	-0.863510
	H325	H	-0.144866	-0.201298	-0.865048
	H326	H	-0.141314	-0.218569	-0.862312
	O327	O	-0.195352	1.058104	0.023524
	H328	H	-0.198433	1.056251	0.016355
	H329	H	-0.179072	1.049918	0.037109
	O330	O	-0.002725	-0.156926	0.992775
	H331	H	-0.011195	-0.147575	0.983243
	H332	H	0.009472	-0.155552	0.984792
	O333	O	-0.048142	-0.043237	1.167611
	H334	H	-0.061037	-0.056330	1.182403
	H335	H	-0.029708	-0.044806	1.171413
	O336	O	0.579722	1.575807	-0.402500
	H337	H	0.564839	1.568700	-0.415438
	H338	H	0.587480	1.559494	-0.405339
	O339	O	1.128685	-0.041580	0.163127
	H340	H	1.132753	-0.019070	0.159183
	H341	H	1.132999	-0.029544	0.164179
	O342	O	-0.191940	0.039045	-0.049689
	H343	H	-0.212194	0.033814	-0.044221
	H344	H	-0.193907	0.035530	-0.034453
	O345	O	1.111745	-0.010842	0.999919
	H346	H	1.111038	-0.020305	0.978402
	H347	H	1.118377	0.013469	1.000778
	O348	O	1.092099	0.869993	-0.052157
	H349	H	1.092413	0.851895	-0.060874
	H350	H	1.086794	0.869164	-0.063294
	O351	O	0.326742	0.512223	0.669928
	H352	H	0.321843	0.506504	0.653450
	H353	H	0.333924	0.525929	0.679104
	O354	O	0.297632	0.332766	1.530679
	H355	H	0.289595	0.343327	1.534711
	H356	H	0.275977	0.330471	1.533194
	O357	O	0.484988	0.384566	0.332537
	H358	H	0.461582	0.376980	0.355027
	H359	H	0.478547	0.365556	0.322477
	O360	O	1.750504	-0.370750	-0.197512
	H361	H	1.751837	-0.363269	-0.185552
	H362	H	1.737925	-0.382024	-0.187527
	O363	O	0.016522	0.863969	1.010999
	H364	H	0.025263	0.869092	0.983728
	H365	H	0.026177	0.869139	1.012724
	O366	O	0.593437	0.636132	0.547752
	H367	H	0.595930	0.623886	0.550034
	H368	H	0.591286	0.639797	0.537904
	O369	O	-0.051854	0.089860	-1.138290
	H370	H	-0.060746	0.101452	-1.140026
	H371	H	-0.059831	0.076452	-1.139075
	O372	O	0.306191	0.364663	0.727450
	H373	H	0.297798	0.373052	0.707464
	H374	H	0.307706	0.389065	0.728092
	O375	O	0.506055	0.581135	0.351315
	H376	H	0.498003	0.573559	0.355902
	H377	H	0.495010	0.572222	0.349675
	O378	O	1.678245	1.453583	-0.622862
	H379	H	1.670742	1.413435	-0.606624
	H380	H	1.708270	1.449703	-0.650727
	O381	O	0.830147	0.133138	0.024533
	H382	H	0.825889	0.134935	0.033742
	H383	H	0.836148	0.141257	0.041383
	O384	O	0.964136	1.084780	-0.043509
	H385	H	0.957167	1.070159	-0.057201
	H386	H	0.952995	1.105081	-0.055407
	O387	O	1.020349	-0.058122	-0.079376
	H388	H	1.015862	-0.078974	-0.080323
	H389	H	1.024898	-0.054092	-0.081796
	O390	O	0.399987	1.545353	-0.563690
	H391	H	0.425617	1.550856	-0.578693
	H392	H	0.407085	1.555239	-0.560155
	O393	O	0.834218	1.020654	1.155669
	H394	H	0.820524	1.017521	1.158756
	H395	H	0.835856	1.003912	1.159637
	O396	O	-0.006650	-0.066147	0.160602
	H397	H	-0.000464	-0.071175	0.148187
	H398	H	0.005802	-0.066211	0.163086
	O399	O	0.473002	0.623604	0.350352
	H400	H	0.463697	0.610356	0.341170
	H401	H	0.502980	0.618763	0.340498
	O402	O	0.385890	0.536186	0.464677
	H403	H	0.401781	0.552150	0.464428
	H404	H	0.391343	0.535125	0.461055
	O405	O	1.116328	1.103792	0.118859
	H406	H	1.112498	1.110211	0.107178
	H407	H	1.113567	1.105257	0.113620
	O408	O	1.357940	1.581384	-0.466358
	H409	H	1.370205	1.599553	-0.461931
	H410	H	1.361307	1.584010	-0.471705
	O411	O	0.979362	0.114917	0.921792
	H412	H	0.969190	0.099626	0.912834
	H413	H	0.978135	0.122119	0.928178
	O414	O	0.435442	0.287478	0.430180
	H415	H	0.419709	0.289134	0.451326
	H416	H	0.432481	0.308964	0.433119
	O417	O	0.624817	0.337693	0.409730
	H418	H	0.634050	0.319767	0.441001
	H419	H	0.591881	0.330243	0.397273
