data_Molecule from HDF5

_cell_length_a		16.362810
_cell_length_b		16.307585
_cell_length_c		16.301123
_cell_angle_alpha	89.961289
_cell_angle_beta	90.120537
_cell_angle_gamma	90.108284
_symmetry_space_group_name_H-M	'P 1'
_symmetry_Int_Tables_number		1

loop_
	_symmetry_equiv_pos_as_xyz
	x,y,z

loop_
	_atom_site_label
	_atom_site_type_symbol
	_atom_site_fract_x
	_atom_site_fract_y
	_atom_site_fract_z
	H0	H	0.398691	0.841744	0.714471
	H1	H	0.595197	0.168543	0.714295
	H2	H	0.592771	0.841186	0.287498
	H3	H	0.400992	0.169416	0.286351
	H4	H	0.710924	0.406885	0.836059
	H5	H	0.711870	0.603464	0.163058
	H6	H	0.281353	0.603851	0.836009
	H7	H	0.282137	0.405659	0.163197
	H8	H	0.834478	0.720401	0.400429
	H9	H	0.160368	0.720462	0.598975
	H10	H	0.833629	0.290342	0.597267
	H11	H	0.160472	0.291570	0.402174
	H12	H	0.833817	0.406976	0.713550
	H13	H	0.159691	0.603704	0.716191
	H14	H	0.834053	0.604372	0.283802
	H15	H	0.159676	0.406798	0.285274
	H16	H	0.398977	0.719407	0.835741
	H17	H	0.594807	0.718347	0.163581
	H18	H	0.593196	0.291033	0.836325
	H19	H	0.398599	0.289913	0.163433
	H20	H	0.711224	0.841506	0.401546
	H21	H	0.712911	0.168196	0.598982
	H22	H	0.282343	0.841887	0.599092
	H23	H	0.282055	0.168379	0.400384
	H24	H	0.900664	0.341340	0.212513
	H25	H	0.094684	0.668928	0.213480
	H26	H	0.093010	0.340781	0.786555
	H27	H	0.900630	0.668851	0.786277
	H28	H	0.212492	0.905939	0.336716
	H29	H	0.212758	0.103261	0.663749
	H30	H	0.782732	0.102886	0.336281
	H31	H	0.782978	0.906005	0.663237
	H32	H	0.333388	0.218643	0.901023
	H33	H	0.659236	0.219938	0.098372
	H34	H	0.334019	0.790573	0.096746
	H35	H	0.660704	0.791365	0.902561
	H36	H	0.334117	0.906346	0.213953
	H37	H	0.660295	0.103170	0.213882
	H38	H	0.334421	0.103087	0.783867
	H39	H	0.660538	0.906776	0.785296
	H40	H	0.900150	0.217949	0.336021
	H41	H	0.095211	0.218975	0.663657
	H42	H	0.094211	0.790878	0.335682
	H43	H	0.900371	0.790935	0.663666
	H44	H	0.209807	0.340621	0.902513
	H45	H	0.212598	0.668639	0.098372
	H46	H	0.782449	0.342008	0.098279
	H47	H	0.782246	0.668896	0.900333
	H48	H	0.405146	0.119503	0.588750
	H49	H	0.591749	0.890071	0.588336
	H50	H	0.588031	0.123700	0.397184
	H51	H	0.412503	0.892533	0.410631
	H52	H	0.580611	0.409695	0.113441
	H53	H	0.585324	0.607343	0.882634
	H54	H	0.402685	0.599454	0.115895
	H55	H	0.405468	0.415030	0.884629
	H56	H	0.111336	0.592603	0.403233
	H57	H	0.878818	0.600809	0.601288
	H58	H	0.115192	0.407948	0.597528
	H59	H	0.877826	0.406336	0.399379
	H60	H	0.112175	0.410310	0.589346
	H61	H	0.881737	0.604939	0.585839
	H62	H	0.114477	0.603443	0.405118
	H63	H	0.882186	0.406696	0.412474
	H64	H	0.403067	0.595128	0.114821
	H65	H	0.600214	0.596091	0.881161
	H66	H	0.596956	0.405743	0.120081
	H67	H	0.404901	0.408386	0.883273
	H68	H	0.584739	0.117459	0.413346
	H69	H	0.593880	0.887390	0.595211
	H70	H	0.401274	0.122351	0.593645
	H71	H	0.397867	0.890050	0.413474
	H72	H	0.911666	0.618052	0.090090
	H73	H	0.089748	0.391001	0.089054
	H74	H	0.091033	0.618639	0.915156
	H75	H	0.906920	0.388118	0.899531
	H76	H	0.089573	0.905839	0.617833
	H77	H	0.091513	0.096920	0.383830
	H78	H	0.899227	0.088659	0.614730
	H79	H	0.905844	0.916393	0.385699
	H80	H	0.614497	0.096948	0.899462
	H81	H	0.380619	0.097285	0.093678
	H82	H	0.610188	0.918646	0.091044
	H83	H	0.379798	0.909153	0.900462
	H84	H	0.615930	0.910413	0.103516
	H85	H	0.380566	0.097797	0.093125
	H86	H	0.613437	0.104841	0.910724
	H87	H	0.381764	0.906916	0.910342
	H88	H	0.914314	0.099367	0.613492
	H89	H	0.090088	0.097451	0.384946
	H90	H	0.095927	0.916018	0.615995
	H91	H	0.906559	0.906716	0.383117
	H92	H	0.096513	0.623820	0.903822
	H93	H	0.093982	0.387801	0.093615
	H94	H	0.898179	0.621502	0.086442
	H95	H	0.905473	0.391872	0.914002
	H96	H	0.407397	0.120585	0.595184
	H97	H	0.586206	0.890069	0.594164
	H98	H	0.600804	0.123148	0.409270
	H99	H	0.403258	0.886422	0.399836
	H100	H	0.593142	0.421940	0.113485
	H101	H	0.584120	0.589745	0.887789
	H102	H	0.406407	0.598212	0.114589
	H103	H	0.399885	0.412064	0.883216
	H104	H	0.110376	0.597491	0.413706
	H105	H	0.884276	0.589917	0.590640
	H106	H	0.111515	0.416280	0.596097
	H107	H	0.882510	0.417606	0.404814
	H108	H	0.903256	0.624483	0.099845
	H109	H	0.087478	0.389549	0.095760
	H110	H	0.083363	0.619564	0.903432
	H111	H	0.893856	0.385936	0.906459
	H112	H	0.084320	0.915768	0.612777
	H113	H	0.090403	0.098466	0.383559
	H114	H	0.898848	0.106496	0.620585
	H115	H	0.897580	0.911698	0.382049
	H116	H	0.609075	0.091797	0.911052
	H117	H	0.381496	0.096888	0.093064
	H118	H	0.614029	0.904425	0.089438
	H119	H	0.383439	0.917017	0.906736
	C120	C	0.376267	0.013168	0.621104
	C121	C	0.618921	0.996957	0.621371
	C122	C	0.619150	0.013305	0.378254
	C123	C	0.375677	0.997141	0.378689
	C124	C	0.618373	0.383440	0.008078
	C125	C	0.618837	0.626438	0.991647
	C126	C	0.375740	0.625830	0.007192
	C127	C	0.375143	0.383070	0.991568
	C128	C	0.004684	0.626353	0.378736
	C129	C	0.989019	0.626883	0.621675
	C130	C	0.005089	0.383078	0.621675
	C131	C	0.988910	0.382917	0.377854
	C132	C	0.875712	0.513420	0.120814
	C133	C	0.119208	0.497217	0.121660
	C134	C	0.118091	0.512641	0.878987
	C135	C	0.874672	0.497042	0.878520
	C136	C	0.118301	0.883932	0.507637
	C137	C	0.119313	0.126510	0.492118
	C138	C	0.876286	0.125924	0.507989
	C139	C	0.875373	0.882888	0.491740
	C140	C	0.504754	0.126225	0.878276
	C141	C	0.488626	0.126306	0.121750
	C142	C	0.505216	0.882791	0.121914
	C143	C	0.489262	0.883055	0.877911
	C144	C	0.378590	0.890109	0.676184
	C145	C	0.616185	0.119807	0.676526
	C146	C	0.614739	0.890215	0.324310
	C147	C	0.379192	0.120245	0.323226
	C148	C	0.672900	0.386376	0.884877
	C149	C	0.674198	0.624152	0.114200
	C150	C	0.319922	0.624059	0.884555
	C151	C	0.319914	0.385177	0.114368
	C152	C	0.882534	0.681789	0.380532
	C153	C	0.111705	0.682272	0.619529
	C154	C	0.882478	0.327960	0.618220
	C155	C	0.111476	0.328643	0.381197
	C156	C	0.882309	0.386020	0.675755
	C157	C	0.111349	0.624242	0.677655
	C158	C	0.882532	0.624263	0.322618
	C159	C	0.111360	0.386347	0.323471
	C160	C	0.378611	0.681007	0.884277
	C161	C	0.615824	0.681017	0.114686
	C162	C	0.614804	0.328681	0.884962
	C163	C	0.377774	0.327872	0.114490
	C164	C	0.673197	0.890234	0.381271
	C165	C	0.674392	0.119778	0.619120
	C166	C	0.320609	0.890346	0.619027
	C167	C	0.320358	0.119816	0.379990
	C168	C	0.879357	0.390352	0.175251
	C169	C	0.116036	0.620040	0.176168
	C170	C	0.114044	0.389343	0.824423
	C171	C	0.879061	0.620092	0.823998
	C172	C	0.173946	0.885634	0.385116
	C173	C	0.174360	0.123553	0.615061
	C174	C	0.821007	0.122962	0.384982
	C175	C	0.821037	0.885479	0.614796
	C176	C	0.382251	0.180946	0.880660
	C177	C	0.610873	0.181939	0.119132
	C178	C	0.382577	0.828400	0.117862
	C179	C	0.612114	0.828892	0.881475
	C180	C	0.382812	0.885687	0.176422
	C181	C	0.611450	0.123631	0.176129
	C182	C	0.382538	0.123196	0.822829
	C183	C	0.611997	0.886305	0.823284
	C184	C	0.879134	0.180224	0.384779
	C185	C	0.116012	0.181087	0.615174
	C186	C	0.115288	0.828732	0.384584
	C187	C	0.879304	0.828221	0.614880
	C188	C	0.172451	0.389519	0.881510
	C189	C	0.174437	0.619950	0.118836
	C190	C	0.820589	0.390603	0.118738
	C191	C	0.820156	0.620043	0.880501
	C192	C	0.398196	0.098574	0.599040
	C193	C	0.596978	0.911411	0.599324
	C194	C	0.597560	0.099286	0.400169
	C195	C	0.397847	0.911699	0.401413
	C196	C	0.596633	0.405901	0.093554
	C197	C	0.596393	0.604331	0.905993
	C198	C	0.397636	0.603954	0.092941
	C199	C	0.397035	0.405209	0.905862
	C200	C	0.090043	0.604377	0.401050
	C201	C	0.903687	0.604894	0.599159
	C202	C	0.090769	0.405102	0.600538
	C203	C	0.902977	0.404129	0.399137
	C204	C	0.897918	0.599370	0.098592
	C205	C	0.096991	0.411605	0.099524
	C206	C	0.096545	0.598516	0.900875
	C207	C	0.895811	0.410866	0.900198
	C208	C	0.096330	0.906160	0.593537
	C209	C	0.097193	0.104335	0.406144
	C210	C	0.897918	0.104482	0.594102
	C211	C	0.896969	0.904999	0.405825
	C212	C	0.590371	0.104355	0.900683
	C213	C	0.402900	0.103958	0.099574
	C214	C	0.591128	0.904587	0.100767
	C215	C	0.403748	0.904500	0.899627
	Zn216	Zn	0.497149	0.004682	0.749497
	Zn217	Zn	0.497409	0.005095	0.250026
	Zn218	Zn	0.747005	0.505217	-0.000075
	Zn219	Zn	0.247185	0.504338	-0.000390
	Zn220	Zn	-0.002444	0.755323	0.499553
	Zn221	Zn	-0.002751	0.254585	0.499890
	Zn222	Zn	-0.003313	0.504656	0.750130
	Zn223	Zn	-0.003256	0.505142	0.249818
	Zn224	Zn	0.497649	0.754628	-0.000335
	Zn225	Zn	0.496425	0.254774	-0.000146
	Zn226	Zn	0.747372	0.004690	0.499952
	Zn227	Zn	0.247586	0.005012	0.499645
	N228	N	0.412494	0.967259	0.677549
	N229	N	0.582169	0.042541	0.677824
	N230	N	0.581791	0.967790	0.322486
	N231	N	0.412933	0.042981	0.322342
	N232	N	0.675215	0.419598	0.962299
	N233	N	0.676053	0.591047	0.036887
	N234	N	0.318088	0.590534	0.961891
	N235	N	0.318250	0.418848	0.036903
	N236	N	0.959395	0.683283	0.414653
	N237	N	0.034704	0.684087	0.585515
	N238	N	0.959738	0.326243	0.585155
	N239	N	0.034386	0.326742	0.414527
	N240	N	0.959550	0.419375	0.678213
	N241	N	0.034022	0.590851	0.679349
	N242	N	0.959410	0.590319	0.321511
	N243	N	0.034041	0.419302	0.321206
	N244	N	0.412564	0.682508	0.961536
	N245	N	0.582225	0.682792	0.037228
	N246	N	0.581450	0.326807	0.962372
	N247	N	0.411379	0.326467	0.037347
	N248	N	0.675907	0.967825	0.414166
	N249	N	0.676365	0.042410	0.585651
	N250	N	0.318910	0.967732	0.585566
	N251	N	0.318282	0.042555	0.413860
	N252	N	0.912946	0.467798	0.176733
	N253	N	0.082294	0.542806	0.177977
	N254	N	0.080960	0.466887	0.822821
	N255	N	0.912063	0.542603	0.822417
	N256	N	0.175570	0.919419	0.462529
	N257	N	0.176295	0.090358	0.537480
	N258	N	0.819122	0.089874	0.462807
	N259	N	0.818281	0.918284	0.537225
	N260	N	0.459299	0.182752	0.914510
	N261	N	0.533488	0.183529	0.085933
	N262	N	0.459848	0.826377	0.084909
	N263	N	0.534949	0.826720	0.914675
	N264	N	0.460123	0.918859	0.178834
	N265	N	0.534535	0.089715	0.177591
	N266	N	0.459681	0.089987	0.821217
	N267	N	0.534616	0.919204	0.821057
	N268	N	0.912654	0.182212	0.461999
	N269	N	0.082682	0.183061	0.537607
	N270	N	0.081489	0.827680	0.461794
	N271	N	0.912429	0.826594	0.537360
	N272	N	0.175000	0.467019	0.914675
	N273	N	0.176307	0.542656	0.085494
	N274	N	0.818342	0.468210	0.085666
	N275	N	0.817434	0.542479	0.913623
	O276	O	1.482732	-0.454077	0.558029
	H277	H	1.479692	-0.451002	0.551070
	H278	H	1.480130	-0.455800	0.555851
	O279	O	0.509305	0.578185	0.527813
	H280	H	0.512471	0.584848	0.532669
	H281	H	0.505729	0.566640	0.527773
	O282	O	0.490154	0.559034	0.547505
	H283	H	0.502768	0.563363	0.553103
	H284	H	0.489553	0.561002	0.551530
	O285	O	0.467690	0.527277	0.537223
	H286	H	0.458464	0.524485	0.526868
	H287	H	0.473523	0.532509	0.543586
