data_Molecule from HDF5

_cell_length_a		16.307730
_cell_length_b		16.427747
_cell_length_c		16.251572
_cell_angle_alpha	90.035657
_cell_angle_beta	90.056073
_cell_angle_gamma	89.888943
_symmetry_space_group_name_H-M	'P 1'
_symmetry_Int_Tables_number		1

loop_
	_symmetry_equiv_pos_as_xyz
	x,y,z

loop_
	_atom_site_label
	_atom_site_type_symbol
	_atom_site_fract_x
	_atom_site_fract_y
	_atom_site_fract_z
	H0	H	0.404529	0.837538	0.718315
	H1	H	0.598604	0.162633	0.717435
	H2	H	0.599159	0.837080	0.289224
	H3	H	0.403419	0.162995	0.288556
	H4	H	0.716709	0.401410	0.839749
	H5	H	0.714819	0.596789	0.167305
	H6	H	0.287101	0.597619	0.838898
	H7	H	0.288388	0.402684	0.167700
	H8	H	0.838524	0.715763	0.403750
	H9	H	0.165088	0.714575	0.603591
	H10	H	0.838886	0.284782	0.603088
	H11	H	0.164641	0.283688	0.403512
	H12	H	0.837424	0.404760	0.715859
	H13	H	0.165303	0.595880	0.717483
	H14	H	0.837515	0.597111	0.290171
	H15	H	0.165603	0.402363	0.290407
	H16	H	0.401082	0.715574	0.839481
	H17	H	0.601827	0.715858	0.166709
	H18	H	0.601194	0.284910	0.839696
	H19	H	0.401963	0.285021	0.166233
	H20	H	0.717152	0.837639	0.405392
	H21	H	0.716052	0.162833	0.602047
	H22	H	0.287203	0.837714	0.601578
	H23	H	0.285224	0.162235	0.403543
	H24	H	0.905245	0.337021	0.218033
	H25	H	0.098746	0.662766	0.218924
	H26	H	0.098987	0.336892	0.790209
	H27	H	0.901692	0.662284	0.788261
	H28	H	0.215076	0.901720	0.338764
	H29	H	0.215604	0.096740	0.666969
	H30	H	0.788583	0.096049	0.338618
	H31	H	0.788218	0.904122	0.668086
	H32	H	0.338691	0.215191	0.904113
	H33	H	0.664587	0.216174	0.103417
	H34	H	0.338769	0.785354	0.101611
	H35	H	0.664107	0.784104	0.903449
	H36	H	0.337995	0.903542	0.216067
	H37	H	0.665928	0.096137	0.216325
	H38	H	0.338453	0.097335	0.790050
	H39	H	0.666288	0.903165	0.790992
	H40	H	0.901409	0.215225	0.339928
	H41	H	0.101211	0.214222	0.666978
	H42	H	0.101152	0.783511	0.340367
	H43	H	0.902255	0.785829	0.667711
	H44	H	0.217961	0.338362	0.904961
	H45	H	0.216835	0.662368	0.103800
	H46	H	0.786151	0.337176	0.103445
	H47	H	0.785185	0.661993	0.904923
	H48	H	0.408570	0.112974	0.587368
	H49	H	0.599277	0.883091	0.598705
	H50	H	0.595043	0.114957	0.412448
	H51	H	0.402312	0.882389	0.404942
	H52	H	0.597966	0.412828	0.119818
	H53	H	0.590047	0.590242	0.888663
	H54	H	0.398767	0.596755	0.123905
	H55	H	0.410813	0.410726	0.888410
	H56	H	0.116609	0.595846	0.414931
	H57	H	0.886984	0.590174	0.595275
	H58	H	0.119315	0.404285	0.600534
	H59	H	0.886434	0.410582	0.411444
	H60	H	0.117346	0.403121	0.592534
	H61	H	0.884472	0.595517	0.599398
	H62	H	0.115834	0.589505	0.413325
	H63	H	0.884314	0.403747	0.408333
	H64	H	0.411951	0.583154	0.114998
	H65	H	0.592374	0.596358	0.886175
	H66	H	0.586755	0.408745	0.116577
	H67	H	0.410561	0.402073	0.885677
	H68	H	0.599474	0.116419	0.408236
	H69	H	0.593656	0.884749	0.598795
	H70	H	0.399045	0.118448	0.600603
	H71	H	0.415403	0.886308	0.406339
	H72	H	0.906852	0.611250	0.086278
	H73	H	0.095031	0.386920	0.092514
	H74	H	0.091090	0.613078	0.912896
	H75	H	0.915486	0.386586	0.909816
	H76	H	0.095324	0.898901	0.622113
	H77	H	0.099106	0.084478	0.387191
	H78	H	0.908089	0.096741	0.621826
	H79	H	0.910096	0.908957	0.388029
	H80	H	0.618531	0.093736	0.910393
	H81	H	0.385063	0.099707	0.091902
	H82	H	0.618120	0.909917	0.099521
	H83	H	0.386710	0.904842	0.916844
	H84	H	0.618994	0.901842	0.096781
	H85	H	0.388483	0.089048	0.092181
	H86	H	0.618353	0.094660	0.910548
	H87	H	0.387278	0.913716	0.908712
	H88	H	0.906239	0.092749	0.619836
	H89	H	0.083711	0.092557	0.390033
	H90	H	0.100441	0.912259	0.619592
	H91	H	0.911236	0.903730	0.387486
	H92	H	0.097676	0.615752	0.912851
	H93	H	0.100065	0.384054	0.098748
	H94	H	0.898803	0.618904	0.101691
	H95	H	0.903880	0.385783	0.917415
	H96	H	0.415565	0.115012	0.603209
	H97	H	0.596387	0.885013	0.593577
	H98	H	0.593433	0.116005	0.406346
	H99	H	0.407200	0.886693	0.417018
	H100	H	0.594872	0.401033	0.121714
	H101	H	0.596576	0.591143	0.886728
	H102	H	0.418329	0.601895	0.118629
	H103	H	0.403129	0.407723	0.885377
	H104	H	0.119240	0.593451	0.409406
	H105	H	0.886014	0.596471	0.592825
	H106	H	0.116487	0.410547	0.596396
	H107	H	0.886641	0.403994	0.415672
	H108	H	0.916565	0.612898	0.102452
	H109	H	0.092334	0.384673	0.100117
	H110	H	0.094105	0.615587	0.906890
	H111	H	0.903949	0.381522	0.903751
	H112	H	0.085764	0.909364	0.616847
	H113	H	0.096777	0.101392	0.382870
	H114	H	0.910725	0.093583	0.619418
	H115	H	0.906301	0.905677	0.385767
	H116	H	0.618437	0.093934	0.911347
	H117	H	0.384518	0.094116	0.101283
	H118	H	0.616393	0.908042	0.091046
	H119	H	0.382824	0.902635	0.905287
	C120	C	0.379960	0.008058	0.625123
	C121	C	0.623593	0.992093	0.625083
	C122	C	0.623983	0.008225	0.381052
	C123	C	0.380012	0.992435	0.381157
	C124	C	0.622388	0.379022	0.011442
	C125	C	0.622396	0.621438	0.995229
	C126	C	0.380249	0.622026	0.011062
	C127	C	0.380047	0.379111	0.994790
	C128	C	0.009395	0.621482	0.383182
	C129	C	0.993273	0.622070	0.625230
	C130	C	0.010019	0.378295	0.624984
	C131	C	0.993866	0.377958	0.382750
	C132	C	0.878817	0.507526	0.125821
	C133	C	0.123754	0.492410	0.125906
	C134	C	0.123245	0.508071	0.882084
	C135	C	0.879479	0.492092	0.882429
	C136	C	0.122988	0.878207	0.511400
	C137	C	0.122384	0.120916	0.494901
	C138	C	0.879872	0.122031	0.511803
	C139	C	0.880491	0.878574	0.495629
	C140	C	0.510350	0.121912	0.882221
	C141	C	0.493737	0.122410	0.124633
	C142	C	0.510055	0.878456	0.124188
	C143	C	0.493539	0.878926	0.881650
	C144	C	0.383568	0.885877	0.680154
	C145	C	0.619814	0.114238	0.679887
	C146	C	0.620446	0.885754	0.326758
	C147	C	0.382449	0.114402	0.326127
	C148	C	0.678189	0.381261	0.888176
	C149	C	0.677438	0.618322	0.118386
	C150	C	0.324761	0.618503	0.888000
	C151	C	0.325805	0.382131	0.118494
	C152	C	0.886949	0.677102	0.384488
	C153	C	0.116276	0.676903	0.623918
	C154	C	0.887364	0.323186	0.623010
	C155	C	0.116197	0.321876	0.383744
	C156	C	0.886559	0.382641	0.679080
	C157	C	0.116445	0.618012	0.680577
	C158	C	0.886302	0.618172	0.328179
	C159	C	0.116811	0.381147	0.327702
	C160	C	0.381143	0.677272	0.888236
	C161	C	0.620949	0.677155	0.117909
	C162	C	0.621201	0.323254	0.888392
	C163	C	0.382238	0.323687	0.117907
	C164	C	0.678984	0.885915	0.384414
	C165	C	0.678069	0.114372	0.622495
	C166	C	0.325209	0.886034	0.622427
	C167	C	0.324235	0.114143	0.383629
	C168	C	0.882847	0.385675	0.181108
	C169	C	0.119718	0.614396	0.181078
	C170	C	0.120572	0.385878	0.826964
	C171	C	0.881301	0.613836	0.826484
	C172	C	0.177903	0.880928	0.388013
	C173	C	0.177456	0.117563	0.618320
	C174	C	0.825749	0.117655	0.387865
	C175	C	0.826072	0.882798	0.619275
	C176	C	0.387522	0.176968	0.884083
	C177	C	0.616271	0.177527	0.123108
	C178	C	0.387258	0.823725	0.121629
	C179	C	0.615902	0.822720	0.883553
	C180	C	0.386853	0.882207	0.178642
	C181	C	0.616973	0.117974	0.179259
	C182	C	0.387250	0.118259	0.827606
	C183	C	0.616992	0.881894	0.827646
	C184	C	0.881743	0.176794	0.388571
	C185	C	0.120672	0.175884	0.618226
	C186	C	0.120983	0.822574	0.388577
	C187	C	0.882571	0.823998	0.618780
	C188	C	0.179109	0.386412	0.884470
	C189	C	0.178367	0.614293	0.123694
	C190	C	0.824068	0.385601	0.123807
	C191	C	0.823810	0.613970	0.884626
	C192	C	0.401226	0.093416	0.603312
	C193	C	0.602543	0.906511	0.603414
	C194	C	0.602440	0.093660	0.402604
	C195	C	0.401953	0.907164	0.403135
	C196	C	0.599698	0.401221	0.097177
	C197	C	0.599670	0.599143	0.909110
	C198	C	0.403111	0.600272	0.097046
	C199	C	0.401857	0.400515	0.908777
	C200	C	0.095102	0.599401	0.405919
	C201	C	0.907855	0.600383	0.602554
	C202	C	0.095642	0.399595	0.602935
	C203	C	0.908068	0.399874	0.405258
	C204	C	0.900754	0.592558	0.103175
	C205	C	0.102108	0.407230	0.103668
	C206	C	0.100794	0.592969	0.904257
	C207	C	0.901378	0.406876	0.904102
	C208	C	0.100484	0.900592	0.597286
	C209	C	0.099709	0.099191	0.408884
	C210	C	0.901730	0.100675	0.598060
	C211	C	0.902601	0.900016	0.409210
	C212	C	0.596307	0.100543	0.904309
	C213	C	0.408017	0.100546	0.101917
	C214	C	0.595786	0.900130	0.102164
	C215	C	0.407674	0.900787	0.903789
	Zn216	Zn	0.502440	0.000116	0.754166
	Zn217	Zn	0.501601	0.000223	0.252418
	Zn218	Zn	0.750251	0.499909	0.003534
	Zn219	Zn	0.252362	0.500601	0.003929
	Zn220	Zn	0.001663	0.750179	0.503951
	Zn221	Zn	0.001803	0.249516	0.503688
	Zn222	Zn	0.001303	0.500317	0.753373
	Zn223	Zn	0.001636	0.500121	0.254970
	Zn224	Zn	0.501626	0.750039	0.002506
	Zn225	Zn	0.501435	0.250872	0.003110
	Zn226	Zn	0.752522	0.000385	0.503532
	Zn227	Zn	0.250866	0.000205	0.502841
	N228	N	0.416760	0.962907	0.682173
	N229	N	0.586851	0.037175	0.681719
	N230	N	0.587291	0.962760	0.324475
	N231	N	0.416460	0.037686	0.324480
	N232	N	0.679279	0.415086	0.965772
	N233	N	0.678134	0.584311	0.041068
	N234	N	0.323973	0.585097	0.965700
	N235	N	0.324270	0.415855	0.041114
	N236	N	0.964494	0.679196	0.417981
	N237	N	0.038824	0.679564	0.590448
	N238	N	0.965004	0.320438	0.590092
	N239	N	0.038715	0.320075	0.417306
	N240	N	0.963754	0.416174	0.680542
	N241	N	0.039060	0.584726	0.681606
	N242	N	0.963504	0.584238	0.327352
	N243	N	0.039678	0.415258	0.326832
	N244	N	0.414856	0.679567	0.965667
	N245	N	0.587374	0.679069	0.040140
	N246	N	0.587191	0.321670	0.965867
	N247	N	0.415219	0.321586	0.040024
	N248	N	0.681261	0.963002	0.417553
	N249	N	0.680329	0.037550	0.588850
	N250	N	0.323127	0.962887	0.588659
	N251	N	0.322618	0.037205	0.417062
	N252	N	0.916443	0.462432	0.182379
	N253	N	0.086333	0.537591	0.182474
	N254	N	0.086145	0.462464	0.825670
	N255	N	0.915251	0.537106	0.825064
	N256	N	0.179219	0.914871	0.465450
	N257	N	0.178571	0.084112	0.540736
	N258	N	0.824620	0.084210	0.465562
	N259	N	0.824585	0.915963	0.541497
	N260	N	0.465047	0.179295	0.917409
	N261	N	0.538566	0.180423	0.090093
	N262	N	0.464827	0.821420	0.088510
	N263	N	0.538082	0.820679	0.916295
	N264	N	0.464238	0.915462	0.180484
	N265	N	0.539726	0.084494	0.180202
	N266	N	0.464548	0.084616	0.826434
	N267	N	0.539926	0.916050	0.826501
	N268	N	0.914819	0.179480	0.466482
	N269	N	0.086975	0.177839	0.540501
	N270	N	0.087600	0.820789	0.466252
	N271	N	0.915434	0.821312	0.540790
	N272	N	0.180885	0.463367	0.917906
	N273	N	0.180928	0.537356	0.090233
	N274	N	0.821629	0.462490	0.090163
	N275	N	0.822590	0.537374	0.918796
	O276	O	0.088838	-0.050275	0.968774
	H277	H	0.095443	-0.052059	0.971612
	H278	H	0.080072	-0.045979	0.972432
	O279	O	0.538923	0.497300	0.456550
	H280	H	0.542300	0.493880	0.458309
	H281	H	0.534330	0.498854	0.462019
	O282	O	0.531609	0.512335	0.445273
	H283	H	0.530819	0.512889	0.440356
	H284	H	0.538248	0.508664	0.446457
	O285	O	0.542614	0.510062	0.438050
	H286	H	0.535562	0.501165	0.436385
	H287	H	0.551733	0.516870	0.435714
	O288	O	0.060293	0.947738	-0.003127
	H289	H	0.064250	0.943789	0.012691
	H290	H	0.051207	0.941856	-0.007604
	O291	O	0.084697	0.937016	0.981179
	H292	H	0.073757	0.940085	0.966810
	H293	H	0.104044	0.933282	0.980477
	O294	O	0.518080	0.507126	0.459731
	H295	H	0.520171	0.514406	0.456935
	H296	H	0.514269	0.502728	0.455708
	O297	O	1.058840	-0.066462	0.021309
	H298	H	1.068292	-0.069417	0.013652
	H299	H	1.056836	-0.066796	0.025314
