data_Molecule from HDF5

_cell_length_a		16.290710
_cell_length_b		16.219506
_cell_length_c		16.355585
_cell_angle_alpha	89.796610
_cell_angle_beta	89.949066
_cell_angle_gamma	89.943330
_symmetry_space_group_name_H-M	'P 1'
_symmetry_Int_Tables_number		1

loop_
	_symmetry_equiv_pos_as_xyz
	x,y,z

loop_
	_atom_site_label
	_atom_site_type_symbol
	_atom_site_fract_x
	_atom_site_fract_y
	_atom_site_fract_z
	H0	H	0.405149	0.835378	0.718031
	H1	H	0.604334	0.162964	0.717437
	H2	H	0.603055	0.835710	0.288399
	H3	H	0.401711	0.162110	0.285194
	H4	H	0.724679	0.397311	0.840207
	H5	H	0.721895	0.599861	0.164416
	H6	H	0.289425	0.600020	0.839276
	H7	H	0.288746	0.398723	0.164217
	H8	H	0.840341	0.716245	0.403362
	H9	H	0.167577	0.716692	0.600705
	H10	H	0.841008	0.285506	0.602677
	H11	H	0.166749	0.286402	0.403397
	H12	H	0.842411	0.399435	0.720018
	H13	H	0.168042	0.600581	0.716639
	H14	H	0.843552	0.605121	0.281668
	H15	H	0.167412	0.399899	0.287802
	H16	H	0.405927	0.716298	0.839154
	H17	H	0.603208	0.713399	0.165069
	H18	H	0.604738	0.283970	0.839393
	H19	H	0.406115	0.284739	0.164937
	H20	H	0.720351	0.836734	0.401964
	H21	H	0.718039	0.164785	0.599377
	H22	H	0.287014	0.837001	0.603817
	H23	H	0.291794	0.164340	0.404730
	H24	H	0.905767	0.336806	0.220147
	H25	H	0.108382	0.663460	0.217822
	H26	H	0.107272	0.338249	0.785046
	H27	H	0.904217	0.663809	0.787362
	H28	H	0.220942	0.901603	0.340262
	H29	H	0.221468	0.101632	0.664235
	H30	H	0.786651	0.103953	0.339669
	H31	H	0.787059	0.900596	0.664102
	H32	H	0.341145	0.215509	0.902911
	H33	H	0.666900	0.214043	0.100828
	H34	H	0.341058	0.784724	0.099301
	H35	H	0.668071	0.783775	0.902276
	H36	H	0.340917	0.897425	0.218316
	H37	H	0.666011	0.099820	0.218888
	H38	H	0.341951	0.101181	0.785062
	H39	H	0.666745	0.897239	0.785221
	H40	H	0.904435	0.219029	0.339390
	H41	H	0.104010	0.216887	0.665241
	H42	H	0.105069	0.785926	0.339700
	H43	H	0.903092	0.785357	0.664985
	H44	H	0.219416	0.335798	0.903193
	H45	H	0.220387	0.663916	0.099179
	H46	H	0.789084	0.336377	0.104618
	H47	H	0.789113	0.663172	0.901418
	H48	H	0.407729	0.114174	0.583929
	H49	H	0.596162	0.885567	0.590759
	H50	H	0.598413	0.116339	0.413275
	H51	H	0.409283	0.882410	0.413115
	H52	H	0.601106	0.418386	0.115396
	H53	H	0.599296	0.586348	0.888140
	H54	H	0.412086	0.594218	0.117747
	H55	H	0.420699	0.409638	0.889187
	H56	H	0.124061	0.590531	0.394946
	H57	H	0.888326	0.594568	0.594888
	H58	H	0.119926	0.412940	0.598055
	H59	H	0.889188	0.413625	0.413392
	H60	H	0.121843	0.405170	0.597192
	H61	H	0.888570	0.592937	0.596583
	H62	H	0.122781	0.609046	0.415953
	H63	H	0.887867	0.413222	0.407194
	H64	H	0.410079	0.590506	0.118287
	H65	H	0.593687	0.592139	0.888179
	H66	H	0.585800	0.403561	0.113971
	H67	H	0.409700	0.398383	0.882939
	H68	H	0.595308	0.117871	0.404030
	H69	H	0.599912	0.882113	0.596386
	H70	H	0.406135	0.120890	0.603566
	H71	H	0.411005	0.881610	0.407602
	H72	H	0.919629	0.612941	0.089089
	H73	H	0.093968	0.383930	0.098563
	H74	H	0.102366	0.618104	0.909686
	H75	H	0.904349	0.379661	0.907676
	H76	H	0.102086	0.907220	0.619993
	H77	H	0.097033	0.095172	0.387194
	H78	H	0.910146	0.090726	0.616666
	H79	H	0.908247	0.907753	0.384541
	H80	H	0.615880	0.083114	0.914377
	H81	H	0.386811	0.090879	0.098562
	H82	H	0.619270	0.908484	0.094863
	H83	H	0.387834	0.900969	0.914188
	H84	H	0.620919	0.907257	0.099998
	H85	H	0.387380	0.094566	0.094116
	H86	H	0.623006	0.090095	0.901101
	H87	H	0.392662	0.915205	0.914839
	H88	H	0.913309	0.094318	0.616849
	H89	H	0.098003	0.094194	0.385852
	H90	H	0.094913	0.916290	0.615043
	H91	H	0.910616	0.913182	0.387627
	H92	H	0.094654	0.617376	0.905861
	H93	H	0.097538	0.384490	0.092509
	H94	H	0.908828	0.616226	0.089488
	H95	H	0.924638	0.385460	0.902598
	H96	H	0.423729	0.113284	0.597532
	H97	H	0.592953	0.883589	0.596789
	H98	H	0.589726	0.114480	0.410799
	H99	H	0.414471	0.883643	0.411804
	H100	H	0.604330	0.398223	0.121408
	H101	H	0.600880	0.594488	0.884900
	H102	H	0.413974	0.590900	0.116820
	H103	H	0.405232	0.413865	0.886086
	H104	H	0.113405	0.582737	0.419617
	H105	H	0.887310	0.595063	0.597289
	H106	H	0.119279	0.409296	0.590398
	H107	H	0.888050	0.408368	0.411064
	H108	H	0.914892	0.616990	0.098239
	H109	H	0.100929	0.381544	0.097932
	H110	H	0.095722	0.615109	0.913972
	H111	H	0.916787	0.387847	0.922740
	H112	H	0.089984	0.904925	0.617123
	H113	H	0.096607	0.093749	0.387592
	H114	H	0.908704	0.094800	0.617774
	H115	H	0.914720	0.907584	0.387155
	H116	H	0.620403	0.098804	0.914780
	H117	H	0.388905	0.088962	0.093278
	H118	H	0.621411	0.903788	0.095716
	H119	H	0.386054	0.909756	0.902364
	C120	C	0.382731	0.008343	0.624726
	C121	C	0.626034	0.991534	0.623783
	C122	C	0.624681	0.008192	0.380392
	C123	C	0.382837	0.991024	0.381611
	C124	C	0.627255	0.377099	0.009930
	C125	C	0.627078	0.620700	0.994099
	C126	C	0.383268	0.621248	0.010015
	C127	C	0.382933	0.377830	0.993504
	C128	C	0.012647	0.623856	0.380307
	C129	C	0.995808	0.623096	0.624261
	C130	C	0.012971	0.379567	0.624653
	C131	C	0.995992	0.381069	0.381279
	C132	C	0.884374	0.508225	0.123727
	C133	C	0.127312	0.491455	0.124310
	C134	C	0.126963	0.508852	0.880439
	C135	C	0.884613	0.492219	0.881342
	C136	C	0.125792	0.879775	0.510463
	C137	C	0.126624	0.123751	0.493966
	C138	C	0.881647	0.123235	0.509865
	C139	C	0.882207	0.880193	0.493876
	C140	C	0.512615	0.120782	0.880542
	C141	C	0.495074	0.120812	0.124266
	C142	C	0.512830	0.877085	0.124755
	C143	C	0.496232	0.878236	0.880795
	C144	C	0.384357	0.884766	0.680440
	C145	C	0.624516	0.114386	0.679433
	C146	C	0.623394	0.884931	0.325622
	C147	C	0.383649	0.113691	0.324474
	C148	C	0.684690	0.378494	0.888498
	C149	C	0.683363	0.619515	0.115915
	C150	C	0.327442	0.620090	0.887719
	C151	C	0.327247	0.379220	0.115741
	C152	C	0.889716	0.679267	0.382118
	C153	C	0.118834	0.678552	0.621231
	C154	C	0.890102	0.323326	0.622816
	C155	C	0.118256	0.324504	0.383457
	C156	C	0.890608	0.380269	0.680949
	C157	C	0.119038	0.621167	0.679256
	C158	C	0.891130	0.623685	0.321965
	C159	C	0.118550	0.381058	0.325944
	C160	C	0.385562	0.677709	0.887560
	C161	C	0.624378	0.675971	0.116316
	C162	C	0.625504	0.321667	0.888005
	C163	C	0.385663	0.322388	0.116147
	C164	C	0.681604	0.885504	0.382261
	C165	C	0.680755	0.115351	0.620688
	C166	C	0.325949	0.885477	0.623495
	C167	C	0.328819	0.115017	0.383955
	C168	C	0.885558	0.385440	0.181457
	C169	C	0.127027	0.614639	0.179357
	C170	C	0.126416	0.386547	0.823824
	C171	C	0.884611	0.614677	0.824919
	C172	C	0.182616	0.881401	0.388588
	C173	C	0.183069	0.121825	0.615668
	C174	C	0.825523	0.123048	0.387949
	C175	C	0.825312	0.881120	0.615718
	C176	C	0.389968	0.177284	0.882291
	C177	C	0.617897	0.176519	0.121747
	C178	C	0.389872	0.821832	0.121120
	C179	C	0.619074	0.822188	0.882691
	C180	C	0.390198	0.877851	0.180341
	C181	C	0.617571	0.119574	0.180324
	C182	C	0.390209	0.120456	0.823842
	C183	C	0.618301	0.878228	0.823934
	C184	C	0.883824	0.180481	0.387827
	C185	C	0.124461	0.179101	0.616233
	C186	C	0.124706	0.823859	0.388366
	C187	C	0.883125	0.823644	0.616074
	C188	C	0.182287	0.385435	0.882668
	C189	C	0.182969	0.614831	0.120448
	C190	C	0.827716	0.385190	0.123985
	C191	C	0.827379	0.614365	0.882119
	C192	C	0.405781	0.093922	0.601884
	C193	C	0.603191	0.905853	0.601390
	C194	C	0.601267	0.094152	0.402606
	C195	C	0.404931	0.904921	0.404432
	C196	C	0.603899	0.399975	0.094922
	C197	C	0.604477	0.597713	0.908966
	C198	C	0.405561	0.598515	0.095365
	C199	C	0.405400	0.400769	0.908014
	C200	C	0.097930	0.600828	0.403360
	C201	C	0.910246	0.600631	0.602721
	C202	C	0.098241	0.402368	0.601969
	C203	C	0.910405	0.404880	0.404039
	C204	C	0.907715	0.593286	0.099666
	C205	C	0.104322	0.405638	0.102689
	C206	C	0.104297	0.594808	0.903225
	C207	C	0.908343	0.406406	0.904458
	C208	C	0.102584	0.902712	0.595485
	C209	C	0.103807	0.101197	0.408937
	C210	C	0.904149	0.100134	0.595037
	C211	C	0.904786	0.902923	0.408508
	C212	C	0.597586	0.097295	0.903329
	C213	C	0.409730	0.098022	0.101849
	C214	C	0.598422	0.899676	0.102956
	C215	C	0.410889	0.901713	0.903740
	Zn216	Zn	0.504669	-0.000884	0.752208
	Zn217	Zn	0.503600	-0.001048	0.253021
	Zn218	Zn	0.756335	0.499340	0.002305
	Zn219	Zn	0.254588	0.499642	0.002033
	Zn220	Zn	0.003680	0.751817	0.502482
	Zn221	Zn	0.003926	0.252229	0.501974
	Zn222	Zn	0.004997	0.500781	0.752781
	Zn223	Zn	0.005690	0.500857	0.252603
	Zn224	Zn	0.505188	0.749753	0.002065
	Zn225	Zn	0.503953	0.248811	0.002092
	Zn226	Zn	0.753153	0.001187	0.501344
	Zn227	Zn	0.254976	0.000576	0.502461
	N228	N	0.419219	0.961983	0.681063
	N229	N	0.590842	0.036503	0.681215
	N230	N	0.588933	0.962430	0.324318
	N231	N	0.416407	0.035554	0.322851
	N232	N	0.685997	0.412031	0.965621
	N233	N	0.685257	0.585954	0.038845
	N234	N	0.326098	0.585480	0.964690
	N235	N	0.325456	0.412939	0.038465
	N236	N	0.966191	0.679405	0.417572
	N237	N	0.041428	0.679984	0.587740
	N238	N	0.967132	0.322672	0.588322
	N239	N	0.040901	0.324399	0.417236
	N240	N	0.967895	0.414375	0.682135
	N241	N	0.041622	0.587387	0.681447
	N242	N	0.968698	0.590055	0.320598
	N243	N	0.041341	0.415532	0.324550
	N244	N	0.419487	0.678442	0.964509
	N245	N	0.590189	0.677025	0.039412
	N246	N	0.590560	0.320499	0.964619
	N247	N	0.419730	0.321626	0.039162
	N248	N	0.682389	0.963257	0.415732
	N249	N	0.681782	0.038009	0.586860
	N250	N	0.324738	0.963167	0.589702
	N251	N	0.328072	0.037600	0.418774
	N252	N	0.920111	0.462934	0.181583
	N253	N	0.092968	0.537105	0.181862
	N254	N	0.092767	0.464351	0.822423
	N255	N	0.919587	0.537532	0.824531
	N256	N	0.183338	0.915404	0.465591
	N257	N	0.184381	0.088069	0.538722
	N258	N	0.823904	0.088389	0.464765
	N259	N	0.824681	0.915569	0.538750
	N260	N	0.466910	0.177620	0.916812
	N261	N	0.540857	0.177332	0.087566
	N262	N	0.467086	0.821084	0.087336
	N263	N	0.542230	0.822279	0.917638
	N264	N	0.467706	0.911505	0.182721
	N265	N	0.540301	0.085647	0.181953
	N266	N	0.467429	0.085974	0.822488
	N267	N	0.541054	0.912464	0.822772
	N268	N	0.918141	0.180796	0.464627
	N269	N	0.089894	0.180305	0.539465
	N270	N	0.089946	0.822899	0.465091
	N271	N	0.917816	0.822898	0.539362
	N272	N	0.182627	0.462584	0.917300
	N273	N	0.183148	0.537229	0.086809
	N274	N	0.826758	0.462315	0.088859
	N275	N	0.827580	0.536988	0.916829
	O276	O	0.512119	0.428990	0.444160
	H277	H	0.508842	0.428391	0.443377
	H278	H	0.515141	0.433225	0.441236
	O279	O	0.440917	0.442318	0.505609
	H280	H	0.443900	0.441368	0.506723
	H281	H	0.439952	0.445654	0.501531
	O282	O	1.053031	1.053302	-0.065396
	H283	H	1.048229	1.056399	-0.053041
	H284	H	1.060852	1.049132	-0.069334
	O285	O	1.023146	0.099984	1.000707
	H286	H	1.026173	0.095379	0.995124
	H287	H	1.024324	0.104851	0.997912
	O288	O	0.553195	0.446658	0.477471
	H289	H	0.547944	0.445025	0.486350
	H290	H	0.558229	0.442108	0.485262
	O291	O	0.522270	0.435011	0.524968
	H292	H	0.514367	0.436725	0.534295
	H293	H	0.511574	0.440521	0.514947
	O294	O	0.490815	0.486855	0.641396
	H295	H	0.494820	0.484495	0.632209
	H296	H	0.478659	0.481343	0.643546
	O297	O	0.507461	0.470496	0.447836
	H298	H	0.512737	0.476005	0.442983
	H299	H	0.508296	0.472481	0.444829
	O300	O	0.924827	-0.025088	1.158893
	H301	H	0.925804	-0.010916	1.156326
	H302	H	0.897958	-0.015996	1.159302
	O303	O	1.551119	1.499069	0.431424
	H304	H	1.540888	1.495925	0.432938
	H305	H	1.551534	1.497439	0.431322
	O306	O	0.089398	0.963302	0.928230
	H307	H	0.099757	0.968571	0.943831
	H308	H	0.088119	0.959504	0.921624
	O309	O	0.470559	0.550395	0.441016
	H310	H	0.467076	0.547366	0.450502
	H311	H	0.477520	0.559883	0.437849
	O312	O	-0.046346	-0.053060	-0.023746
	H313	H	-0.047684	-0.045930	-0.020341
	H314	H	-0.044814	-0.064292	-0.024360
	O315	O	0.942955	0.047750	-0.093325
	H316	H	0.954456	0.050391	-0.088235
	H317	H	0.927756	0.040558	-0.095010
	O318	O	0.985114	1.122586	0.933886
	H319	H	0.997665	1.126363	0.922572
	H320	H	0.999056	1.112233	0.937890
	O321	O	-0.535037	-0.517642	0.606474
	H322	H	-0.534031	-0.511348	0.608999
	H323	H	-0.541973	-0.522751	0.614270
	O324	O	0.409276	0.485913	0.549828
	H325	H	0.405313	0.492451	0.545597
	H326	H	0.408445	0.484985	0.542987
	O327	O	-0.819351	-0.142145	0.276109
	H328	H	-0.831751	-0.133893	0.275779
	H329	H	-0.831065	-0.146018	0.279466
	O330	O	0.454236	0.565211	0.428124
	H331	H	0.458844	0.575112	0.410099
	H332	H	0.460212	0.565865	0.427758
	O333	O	-0.501257	0.526417	0.500382
	H334	H	-0.497306	0.520310	0.506635
	H335	H	-0.504242	0.535319	0.492130
	O336	O	0.004445	-0.075450	0.083638
	H337	H	-0.000602	-0.087673	0.094800
	H338	H	-0.012600	-0.073899	0.079993
	O339	O	-0.060286	1.015965	1.063428
	H340	H	-0.063638	1.017691	1.062037
	H341	H	-0.060597	1.020884	1.066339
	O342	O	0.973449	0.864214	1.040094
	H343	H	0.979979	0.860027	1.037485
	H344	H	0.973410	0.861641	1.044789
	O345	O	1.183114	1.047455	-0.015512
	H346	H	1.183037	1.041937	-0.016391
	H347	H	1.185302	1.047803	-0.012730
	O348	O	-0.010052	0.988118	0.002367
	H349	H	0.006244	0.985565	-0.012414
	H350	H	-0.005271	0.990627	0.007208
	O351	O	0.497539	0.527022	0.423772
	H352	H	0.506435	0.529897	0.435517
	H353	H	0.500057	0.525776	0.420994
	O354	O	1.063020	-0.105105	1.016293
	H355	H	1.063992	-0.107381	1.009952
	H356	H	1.057012	-0.091360	1.033539
	O357	O	1.011670	-0.124128	0.993911
	H358	H	1.017787	-0.130669	0.996148
	H359	H	1.004484	-0.123989	1.009287
	O360	O	0.519190	0.504137	0.467979
	H361	H	0.524036	0.495094	0.476877
	H362	H	0.525895	0.510510	0.448999
	O363	O	0.835050	1.078562	-0.065232
	H364	H	0.841486	1.091335	-0.073731
	H365	H	0.829052	1.059101	-0.084073
	O366	O	0.899580	1.032971	0.988670
	H367	H	0.901059	1.031034	0.973257
	H368	H	0.890541	1.039847	0.984721
	O369	O	1.063391	-0.163251	0.939999
	H370	H	1.066476	-0.162249	0.943888
	H371	H	1.064001	-0.181027	0.942757
	O372	O	-0.068650	0.023324	0.002291
	H373	H	-0.081756	0.018986	0.011011
	H374	H	-0.067043	0.034304	-0.001409
	O375	O	0.964235	0.093399	0.040207
	H376	H	0.967144	0.105442	0.037155
	H377	H	0.956904	0.104563	0.021081
	O378	O	0.497420	0.490132	0.503278
	H379	H	0.500269	0.481152	0.499578
	H380	H	0.494411	0.481267	0.496395
	O381	O	0.508424	0.491968	0.469788
	H382	H	0.490776	0.493011	0.469826
	H383	H	0.514687	0.492192	0.481775
