data_Molecule from HDF5

_cell_length_a		16.500470
_cell_length_b		16.407375
_cell_length_c		16.484034
_cell_angle_alpha	89.897063
_cell_angle_beta	89.960633
_cell_angle_gamma	90.195709
_symmetry_space_group_name_H-M	'P 1'
_symmetry_Int_Tables_number		1

loop_
	_symmetry_equiv_pos_as_xyz
	x,y,z

loop_
	_atom_site_label
	_atom_site_type_symbol
	_atom_site_fract_x
	_atom_site_fract_y
	_atom_site_fract_z
	H0	H	0.401240	0.854313	0.724355
	H1	H	0.618024	0.169186	0.723363
	H2	H	0.611328	0.853484	0.280291
	H3	H	0.402704	0.170351	0.276700
	H4	H	0.735132	0.400804	0.842834
	H5	H	0.726605	0.610770	0.157591
	H6	H	0.286455	0.615940	0.839885
	H7	H	0.287250	0.403055	0.157471
	H8	H	0.849900	0.726355	0.399721
	H9	H	0.166877	0.733634	0.605531
	H10	H	0.852394	0.283413	0.608490
	H11	H	0.164867	0.285406	0.390169
	H12	H	0.852282	0.399866	0.724683
	H13	H	0.165895	0.617798	0.722368
	H14	H	0.849906	0.608081	0.283600
	H15	H	0.166469	0.403419	0.276879
	H16	H	0.402340	0.734239	0.840387
	H17	H	0.609600	0.726510	0.157321
	H18	H	0.616140	0.288755	0.841256
	H19	H	0.405994	0.289698	0.158091
	H20	H	0.727851	0.853058	0.396064
	H21	H	0.734452	0.168994	0.608333
	H22	H	0.287054	0.853297	0.607203
	H23	H	0.286664	0.169674	0.393263
	H24	H	0.901014	0.351701	0.223828
	H25	H	0.109419	0.669485	0.214394
	H26	H	0.117004	0.352897	0.771884
	H27	H	0.904602	0.667850	0.777791
	H28	H	0.229509	0.907949	0.343742
	H29	H	0.232868	0.120245	0.656426
	H30	H	0.783815	0.118326	0.342830
	H31	H	0.785098	0.903718	0.657980
	H32	H	0.353294	0.234339	0.891758
	H33	H	0.669367	0.231734	0.103559
	H34	H	0.352296	0.789943	0.101991
	H35	H	0.667239	0.788410	0.893548
	H36	H	0.351577	0.908371	0.217536
	H37	H	0.668534	0.116821	0.220789
	H38	H	0.354085	0.118726	0.774727
	H39	H	0.666436	0.902958	0.775495
	H40	H	0.899813	0.234087	0.341677
	H41	H	0.113041	0.233782	0.656108
	H42	H	0.108798	0.795436	0.341446
	H43	H	0.903240	0.788980	0.659004
	H44	H	0.230474	0.350232	0.890397
	H45	H	0.227404	0.668212	0.099584
	H46	H	0.785294	0.350937	0.107929
	H47	H	0.790080	0.668239	0.895197
	H48	H	0.427730	0.120824	0.583202
	H49	H	0.597438	0.898802	0.588190
	H50	H	0.596815	0.127402	0.404921
	H51	H	0.417778	0.897891	0.407762
	H52	H	0.593432	0.422416	0.108884
	H53	H	0.597143	0.597617	0.885732
	H54	H	0.423058	0.601159	0.109661
	H55	H	0.423909	0.423258	0.888587
	H56	H	0.126191	0.607023	0.404645
	H57	H	0.897785	0.599619	0.585945
	H58	H	0.113619	0.432596	0.582269
	H59	H	0.895720	0.417817	0.412474
	H60	H	0.120563	0.422855	0.590419
	H61	H	0.896289	0.596175	0.591217
	H62	H	0.124114	0.604281	0.408809
	H63	H	0.899200	0.425127	0.413730
	H64	H	0.414015	0.601604	0.112210
	H65	H	0.599792	0.602941	0.883785
	H66	H	0.599721	0.417866	0.113369
	H67	H	0.419992	0.419241	0.885619
	H68	H	0.592090	0.122647	0.415145
	H69	H	0.595577	0.899615	0.588878
	H70	H	0.415969	0.124999	0.583834
	H71	H	0.421076	0.899261	0.409500
	H72	H	0.910477	0.625950	0.093232
	H73	H	0.097226	0.395022	0.087800
	H74	H	0.103405	0.620866	0.915705
	H75	H	0.923148	0.397237	0.913201
	H76	H	0.099476	0.922305	0.615484
	H77	H	0.098102	0.090765	0.390971
	H78	H	0.925671	0.099912	0.610027
	H79	H	0.916295	0.911128	0.383910
	H80	H	0.621944	0.099331	0.909769
	H81	H	0.400311	0.097451	0.084567
	H82	H	0.621696	0.924176	0.086860
	H83	H	0.397010	0.919395	0.912073
	H84	H	0.626355	0.920246	0.097730
	H85	H	0.398018	0.097884	0.091236
	H86	H	0.621055	0.100013	0.913863
	H87	H	0.400707	0.924470	0.915891
	H88	H	0.917748	0.097139	0.612154
	H89	H	0.091637	0.100482	0.389396
	H90	H	0.098215	0.923079	0.614236
	H91	H	0.909482	0.925524	0.386189
	H92	H	0.097200	0.623936	0.904016
	H93	H	0.097995	0.394156	0.089155
	H94	H	0.924810	0.622973	0.096176
	H95	H	0.922368	0.397689	0.913520
	H96	H	0.423025	0.125530	0.594427
	H97	H	0.596159	0.899428	0.586947
	H98	H	0.603594	0.125661	0.414537
	H99	H	0.418086	0.898784	0.411685
	H100	H	0.601042	0.426106	0.110505
	H101	H	0.603205	0.597181	0.883651
	H102	H	0.417457	0.593476	0.107718
	H103	H	0.418371	0.425159	0.887031
	H104	H	0.124434	0.601577	0.403871
	H105	H	0.894882	0.602280	0.590822
	H106	H	0.117398	0.419990	0.576699
	H107	H	0.896014	0.423525	0.406454
	H108	H	0.918840	0.620000	0.082153
	H109	H	0.096726	0.394628	0.089276
	H110	H	0.090695	0.617079	0.913816
	H111	H	0.923086	0.397647	0.912540
	H112	H	0.097745	0.921060	0.614669
	H113	H	0.102689	0.100520	0.385204
	H114	H	0.922993	0.092160	0.607773
	H115	H	0.924743	0.923297	0.390968
	H116	H	0.620380	0.096689	0.912308
	H117	H	0.396798	0.103225	0.086604
	H118	H	0.625979	0.912832	0.088125
	H119	H	0.397878	0.926130	0.909154
	C120	C	0.388562	0.019773	0.621059
	C121	C	0.630841	1.002836	0.621840
	C122	C	0.629303	0.020428	0.379595
	C123	C	0.386693	1.003316	0.377287
	C124	C	0.631734	0.388432	0.007528
	C125	C	0.630464	0.630320	0.989483
	C126	C	0.386557	0.631570	0.005749
	C127	C	0.388221	0.388775	0.991213
	C128	C	0.018418	0.632659	0.377326
	C129	C	1.000401	0.632634	0.621648
	C130	C	0.015031	0.390214	0.618629
	C131	C	1.000291	0.388100	0.377353
	C132	C	0.886085	0.517979	0.122466
	C133	C	0.129201	0.500243	0.119376
	C134	C	0.130403	0.517048	0.876698
	C135	C	0.889799	0.501703	0.879846
	C136	C	0.129620	0.890821	0.509909
	C137	C	0.130786	0.132501	0.491253
	C138	C	0.887921	0.130562	0.506814
	C139	C	0.885677	0.888439	0.492019
	C140	C	0.518089	0.132639	0.878102
	C141	C	0.502744	0.132311	0.120214
	C142	C	0.519190	0.888784	0.121083
	C143	C	0.501975	0.889815	0.878635
	C144	C	0.383805	0.901638	0.683471
	C145	C	0.635750	0.121594	0.683475
	C146	C	0.630561	0.901085	0.319757
	C147	C	0.384370	0.122627	0.316779
	C148	C	0.694081	0.383652	0.889824
	C149	C	0.687764	0.630453	0.109459
	C150	C	0.326688	0.634239	0.887100
	C151	C	0.327354	0.385229	0.109749
	C152	C	0.897668	0.687828	0.379501
	C153	C	0.119043	0.693702	0.624137
	C154	C	0.898677	0.325802	0.624818
	C155	C	0.117833	0.325865	0.372929
	C156	C	0.898632	0.383695	0.682946
	C157	C	0.118660	0.635798	0.682184
	C158	C	0.897888	0.629664	0.321527
	C159	C	0.118956	0.384809	0.316621
	C160	C	0.384871	0.692714	0.887245
	C161	C	0.629614	0.687897	0.109566
	C162	C	0.634527	0.328055	0.888777
	C163	C	0.386524	0.328770	0.110301
	C164	C	0.688186	0.900851	0.377699
	C165	C	0.693589	0.121524	0.625986
	C166	C	0.326951	0.901208	0.624978
	C167	C	0.326404	0.122082	0.374682
	C168	C	0.883261	0.399117	0.183250
	C169	C	0.129572	0.621076	0.176433
	C170	C	0.134246	0.399307	0.813664
	C171	C	0.886812	0.620492	0.818554
	C172	C	0.188968	0.889646	0.390694
	C173	C	0.192016	0.137449	0.609254
	C174	C	0.825345	0.135205	0.389308
	C175	C	0.825585	0.885870	0.610708
	C176	C	0.400435	0.194115	0.874080
	C177	C	0.621883	0.191937	0.121675
	C178	C	0.399781	0.829909	0.121209
	C179	C	0.619943	0.828617	0.875069
	C180	C	0.399397	0.888467	0.178743
	C181	C	0.621414	0.134724	0.180269
	C182	C	0.400655	0.136473	0.815983
	C183	C	0.619558	0.885858	0.816477
	C184	C	0.883020	0.193077	0.388981
	C185	C	0.132732	0.194042	0.609076
	C186	C	0.129231	0.833551	0.389684
	C187	C	0.884412	0.828637	0.611063
	C188	C	0.191063	0.398193	0.872435
	C189	C	0.188031	0.620450	0.119210
	C190	C	0.825456	0.398808	0.125291
	C191	C	0.829539	0.620630	0.876815
	C192	C	0.414859	0.102383	0.594767
	C193	C	0.603993	0.920806	0.595708
	C194	C	0.604657	0.103544	0.404439
	C195	C	0.411919	0.920111	0.402552
	C196	C	0.605486	0.414516	0.089580
	C197	C	0.606903	0.606411	0.906032
	C198	C	0.411144	0.606159	0.088303
	C199	C	0.413596	0.414932	0.908701
	C200	C	0.102729	0.610844	0.399429
	C201	C	0.917837	0.606747	0.596629
	C202	C	0.096198	0.417514	0.590954
	C203	C	0.918407	0.414466	0.403384
	C204	C	0.910973	0.601234	0.097653
	C205	C	0.104449	0.416372	0.095580
	C206	C	0.104485	0.599198	0.903471
	C207	C	0.915474	0.419169	0.905808
	C208	C	0.105567	0.915121	0.593006
	C209	C	0.104897	0.105200	0.409582
	C210	C	0.914476	0.103997	0.588553
	C211	C	0.909806	0.913080	0.408954
	C212	C	0.599966	0.106368	0.904318
	C213	C	0.419902	0.106868	0.094892
	C214	C	0.602855	0.912402	0.097692
	C215	C	0.419980	0.915973	0.904635
	Zn216	Zn	0.509707	0.011292	0.749429
	Zn217	Zn	0.509338	0.011980	0.249500
	Zn218	Zn	0.759239	0.509126	-0.001214
	Zn219	Zn	0.258263	0.508260	-0.001891
	Zn220	Zn	0.008822	0.760733	0.500295
	Zn221	Zn	0.008116	0.260284	0.498543
	Zn222	Zn	0.008644	0.509423	0.748902
	Zn223	Zn	0.009598	0.509296	0.249411
	Zn224	Zn	0.509795	0.759822	-0.001760
	Zn225	Zn	0.510240	0.261321	-0.000743
	Zn226	Zn	0.757888	0.011503	0.500462
	Zn227	Zn	0.259692	0.011900	0.500690
	N228	N	0.421351	0.976468	0.681312
	N229	N	0.597544	0.046974	0.681026
	N230	N	0.594715	0.976521	0.320774
	N231	N	0.421338	0.047517	0.318369
	N232	N	0.692383	0.420469	0.964497
	N233	N	0.688686	0.595749	0.033650
	N234	N	0.327781	0.596611	0.961575
	N235	N	0.328147	0.421538	0.034463
	N236	N	0.973792	0.690218	0.413065
	N237	N	0.044332	0.691834	0.587273
	N238	N	0.971654	0.330145	0.585013
	N239	N	0.042972	0.327880	0.409835
	N240	N	0.971854	0.423319	0.678706
	N241	N	0.044023	0.598426	0.680550
	N242	N	0.974125	0.596314	0.319886
	N243	N	0.044925	0.422763	0.319211
	N244	N	0.421265	0.691293	0.962171
	N245	N	0.594825	0.688111	0.033908
	N246	N	0.596489	0.330970	0.962949
	N247	N	0.423507	0.330728	0.035541
	N248	N	0.687555	0.976148	0.414162
	N249	N	0.690978	0.046607	0.588707
	N250	N	0.329979	0.975712	0.586744
	N251	N	0.327652	0.046856	0.411392
	N252	N	0.920672	0.474035	0.181437
	N253	N	0.093981	0.545043	0.176893
	N254	N	0.097376	0.474277	0.816074
	N255	N	0.923342	0.545446	0.820038
	N256	N	0.189376	0.924435	0.466375
	N257	N	0.191036	0.100018	0.534848
	N258	N	0.828105	0.097315	0.463649
	N259	N	0.825974	0.922171	0.535534
	N260	N	0.474505	0.191911	0.911847
	N261	N	0.547006	0.190486	0.084937
	N262	N	0.475342	0.829760	0.086254
	N263	N	0.545892	0.831010	0.912774
	N264	N	0.474818	0.924291	0.178911
	N265	N	0.546278	0.098332	0.179246
	N266	N	0.475043	0.099258	0.818169
	N267	N	0.545023	0.923215	0.818399
	N268	N	0.921490	0.190124	0.462962
	N269	N	0.095408	0.191069	0.534719
	N270	N	0.093074	0.833957	0.464767
	N271	N	0.921095	0.830050	0.536143
	N272	N	0.188997	0.472560	0.910546
	N273	N	0.188176	0.544176	0.084828
	N274	N	0.827399	0.473805	0.087840
	N275	N	0.831363	0.545791	0.914383
	O276	O	0.572897	0.501564	0.320019
	H277	H	0.565072	0.501170	0.319555
	H278	H	0.563744	0.504867	0.324465
	O279	O	0.807994	-0.032832	1.205004
	H280	H	0.790368	-0.030931	1.203601
	H281	H	0.803691	-0.042303	1.196903
	O282	O	0.530847	0.415519	0.297867
	H283	H	0.536695	0.425840	0.296421
	H284	H	0.538199	0.397824	0.284277
	O285	O	0.715662	0.717670	0.523925
	H286	H	0.724471	0.728922	0.513936
	H287	H	0.701304	0.727958	0.522415
	O288	O	1.008573	1.209627	0.207538
	H289	H	1.016352	1.238150	0.241572
	H290	H	0.982152	1.187363	0.195663
	O291	O	0.708727	0.310998	0.479308
	H292	H	0.713164	0.288036	0.483671
	H293	H	0.684651	0.307981	0.494568
	O294	O	0.206199	0.022730	1.201083
	H295	H	0.195301	0.005813	1.193680
	H296	H	0.209452	0.011140	1.207379
	O297	O	0.296884	0.724039	0.462327
	H298	H	0.290542	0.720878	0.478561
	H299	H	0.285145	0.725933	0.483268
	O300	O	1.135253	0.912699	0.892948
	H301	H	1.115802	0.907899	0.879434
	H302	H	1.130161	0.940146	0.887883
	O303	O	0.477346	0.695109	0.285927
	H304	H	0.440401	0.695490	0.279424
	H305	H	0.464269	0.706215	0.266418
	O306	O	0.714382	0.530430	0.702397
	H307	H	0.724196	0.539238	0.706876
	H308	H	0.719358	0.547720	0.689295
	O309	O	0.617288	0.500689	0.376401
	H310	H	0.609985	0.498519	0.375064
	H311	H	0.608478	0.500170	0.389307
	O312	O	0.016426	1.026260	0.826688
	H313	H	0.008971	1.030847	0.829059
	H314	H	0.048238	1.025429	0.831098
	O315	O	0.690766	0.343888	0.312108
	H316	H	0.700582	0.353466	0.337188
	H317	H	0.694881	0.372781	0.317281
	O318	O	1.195735	0.003362	-0.210637
	H319	H	1.194030	0.023486	-0.180856
	H320	H	1.214739	0.014878	-0.233822
	O321	O	-0.000029	-0.183567	0.120094
	H322	H	-0.006245	-0.180839	0.117463
	H323	H	-0.005543	-0.197496	0.134322
	O324	O	0.698292	0.693261	0.689341
	H325	H	0.672131	0.689775	0.694796
	H326	H	0.694775	0.699610	0.651820
	O327	O	0.401899	0.311775	0.409368
	H328	H	0.416285	0.317039	0.403149
	H329	H	0.403101	0.297218	0.394080
	O330	O	-0.201602	1.028589	-0.207671
	H331	H	-0.213236	1.035195	-0.226657
	H332	H	-0.216892	1.012792	-0.195049
	O333	O	0.503031	0.298219	0.477713
	H334	H	0.503023	0.304944	0.470080
	H335	H	0.496791	0.294122	0.471980
	O336	O	-0.792716	-0.115011	0.980158
	H337	H	-0.797831	-0.108366	0.962862
	H338	H	-0.801647	-0.127484	0.965633
	O339	O	0.109744	1.215082	0.904947
	H340	H	0.104842	1.211998	0.883165
	H341	H	0.130081	1.215478	0.912160
	O342	O	-0.182794	0.804623	1.205906
	H343	H	-0.196236	0.804825	1.212137
	H344	H	-0.207189	0.784421	1.201327
	O345	O	1.078199	0.986730	0.016257
	H346	H	1.065834	0.975694	0.011898
	H347	H	1.081467	1.004942	0.018376
	O348	O	0.345236	0.437716	0.381958
	H349	H	0.352972	0.423629	0.377590
	H350	H	0.335897	0.448734	0.361714
	O351	O	0.686477	0.685647	0.312944
	H352	H	0.671175	0.658803	0.323357
	H353	H	0.662633	0.674905	0.332475
	O354	O	0.167000	0.814615	-0.126056
	H355	H	0.156445	0.815124	-0.157442
	H356	H	0.159192	0.825277	-0.137930
	O357	O	-0.085444	-0.015923	1.000052
	H358	H	-0.076841	-0.026431	0.998312
	H359	H	-0.089433	-0.015086	0.987158
	O360	O	0.397020	0.667571	0.526374
	H361	H	0.396077	0.661585	0.525809
	H362	H	0.397645	0.656217	0.528119
	O363	O	-0.117623	-0.189195	1.115802
	H364	H	-0.140568	-0.217009	1.132729
	H365	H	-0.119362	-0.190886	1.120438
	O366	O	0.037757	-0.047531	0.170663
	H367	H	0.010605	-0.039740	0.170962
	H368	H	0.021375	-0.059186	0.178552
	O369	O	0.432601	0.581740	0.678411
	H370	H	0.431661	0.586592	0.668780
	H371	H	0.418565	0.575280	0.670101
	O372	O	0.978578	-0.111136	0.885655
	H373	H	0.989079	-0.103302	0.897819
	H374	H	0.970059	-0.107239	0.873915
	O375	O	0.566990	0.349387	0.545453
	H376	H	0.560964	0.358151	0.577123
	H377	H	0.543002	0.343269	0.529214
	O378	O	0.485357	0.612210	0.613949
	H379	H	0.471978	0.606376	0.599298
	H380	H	0.484530	0.621820	0.620436
	O381	O	0.317090	0.325027	0.606909
	H382	H	0.341243	0.311072	0.620016
	H383	H	0.307921	0.318310	0.590378
	O384	O	0.299685	0.539823	0.286370
	H385	H	0.272808	0.550579	0.261603
	H386	H	0.307042	0.581046	0.289919
	O387	O	0.230942	0.229259	1.024866
	H388	H	0.219165	0.212839	1.078001
	H389	H	0.269322	0.267698	1.031091
	O390	O	-0.053426	0.223492	0.080488
	H391	H	-0.032592	0.218122	0.087960
	H392	H	-0.025881	0.228333	0.066616
	O393	O	1.192711	1.185668	1.178990
	H394	H	1.185571	1.159169	1.194368
	H395	H	1.164405	1.170972	1.191174
	O396	O	0.521470	-0.277752	0.472323
	H397	H	0.519431	-0.270273	0.469874
	H398	H	0.518894	-0.287764	0.469632
	O399	O	0.865739	-0.046215	0.904534
	H400	H	0.863863	-0.035433	0.926799
	H401	H	0.855781	-0.064675	0.915072
	O402	O	0.844643	1.189178	0.818334
	H403	H	0.834939	1.148285	0.820620
	H404	H	0.832000	1.203927	0.856538
	O405	O	1.008106	1.189257	-0.175229
	H406	H	0.986607	1.187043	-0.185928
	H407	H	0.984972	1.185792	-0.173349
	O408	O	1.199135	-0.176888	0.189839
	H409	H	1.172686	-0.151234	0.183270
	H410	H	1.190066	-0.163437	0.157704
	O411	O	0.799110	1.174536	-0.004911
	H412	H	0.766744	1.201659	-0.001580
	H413	H	0.831627	1.173301	0.010194
	O414	O	0.031896	-0.194580	-0.002010
	H415	H	0.025234	-0.189086	-0.016986
	H416	H	0.056512	-0.206151	-0.006895
	O417	O	0.480500	0.299543	0.705348
	H418	H	0.478890	0.314391	0.717354
	H419	H	0.478878	0.284599	0.726431
	O420	O	-0.054536	0.063436	0.181757
	H421	H	-0.076213	0.050962	0.174380
	H422	H	-0.060851	0.062434	0.179615
	O423	O	0.442775	0.487104	0.476282
	H424	H	0.444370	0.493206	0.466296
	H425	H	0.434694	0.476970	0.475990
	O426	O	0.708789	0.549032	0.467926
	H427	H	0.704233	0.549816	0.486090
	H428	H	0.719229	0.543857	0.490322
	O429	O	0.521899	0.575790	0.526512
	H430	H	0.515445	0.587275	0.530583
	H431	H	0.528846	0.567857	0.521025
	O432	O	0.665359	0.464546	0.596678
	H433	H	0.650341	0.432818	0.578078
	H434	H	0.683632	0.445912	0.612660
	O435	O	0.297327	0.541494	0.617642
	H436	H	0.305550	0.531965	0.594656
	H437	H	0.283225	0.530498	0.647440
	O438	O	-0.197270	0.027164	-0.006363
	H439	H	-0.193930	0.042773	-0.016525
	H440	H	-0.199231	0.031131	-0.010023
	O441	O	1.226048	0.046809	-0.041643
	H442	H	1.222669	0.034802	-0.027317
	H443	H	1.226985	0.062167	-0.028134
	O444	O	-0.018356	0.905911	0.832945
	H445	H	-0.029515	0.919071	0.842878
	H446	H	-0.018294	0.900663	0.831291
	O447	O	0.305238	0.712627	0.290836
	H448	H	0.303328	0.721902	0.340459
	H449	H	0.272612	0.748675	0.262097
	O450	O	0.296758	0.415517	0.707220
	H451	H	0.273316	0.431295	0.730431
	H452	H	0.293986	0.377765	0.710760
	O453	O	0.556892	0.533488	0.712436
	H454	H	0.562464	0.539678	0.717227
	H455	H	0.548061	0.557349	0.718568
