data_Molecule from HDF5

_cell_length_a		16.304915
_cell_length_b		16.316354
_cell_length_c		16.263807
_cell_angle_alpha	89.854656
_cell_angle_beta	90.367844
_cell_angle_gamma	90.070220
_symmetry_space_group_name_H-M	'P 1'
_symmetry_Int_Tables_number		1

loop_
	_symmetry_equiv_pos_as_xyz
	x,y,z

loop_
	_atom_site_label
	_atom_site_type_symbol
	_atom_site_fract_x
	_atom_site_fract_y
	_atom_site_fract_z
	H0	H	0.395632	0.844671	0.713994
	H1	H	0.601438	0.168481	0.712347
	H2	H	0.595639	0.841803	0.280621
	H3	H	0.398969	0.169163	0.280697
	H4	H	0.715733	0.405460	0.835380
	H5	H	0.715576	0.605609	0.160695
	H6	H	0.276391	0.610237	0.837255
	H7	H	0.285680	0.404975	0.161705
	H8	H	0.836344	0.721297	0.394320
	H9	H	0.160859	0.720660	0.600546
	H10	H	0.835541	0.285889	0.599626
	H11	H	0.160937	0.287066	0.399482
	H12	H	0.835347	0.402126	0.714732
	H13	H	0.160142	0.604635	0.716300
	H14	H	0.836458	0.603980	0.279579
	H15	H	0.161921	0.403702	0.284414
	H16	H	0.395336	0.722721	0.834565
	H17	H	0.600731	0.722823	0.159735
	H18	H	0.600335	0.289539	0.834008
	H19	H	0.399563	0.287720	0.159538
	H20	H	0.714756	0.842769	0.393480
	H21	H	0.717826	0.166860	0.597480
	H22	H	0.284071	0.842092	0.595563
	H23	H	0.278968	0.166008	0.391932
	H24	H	0.901475	0.340567	0.212633
	H25	H	0.098801	0.667139	0.215223
	H26	H	0.098225	0.341219	0.784374
	H27	H	0.895547	0.665679	0.779764
	H28	H	0.210582	0.905461	0.332540
	H29	H	0.218209	0.104861	0.658282
	H30	H	0.781780	0.106496	0.333728
	H31	H	0.779953	0.901121	0.658312
	H32	H	0.335426	0.223005	0.893566
	H33	H	0.661547	0.219963	0.095527
	H34	H	0.336620	0.787374	0.096984
	H35	H	0.661912	0.789776	0.896295
	H36	H	0.334420	0.906124	0.209994
	H37	H	0.661205	0.105143	0.212297
	H38	H	0.335698	0.108742	0.776426
	H39	H	0.661570	0.907725	0.780710
	H40	H	0.897439	0.221594	0.335016
	H41	H	0.101103	0.219092	0.660990
	H42	H	0.096552	0.788092	0.334829
	H43	H	0.896598	0.786496	0.659696
	H44	H	0.215774	0.342941	0.899799
	H45	H	0.217338	0.666949	0.103208
	H46	H	0.781867	0.342678	0.099896
	H47	H	0.782862	0.667301	0.898188
	H48	H	0.403939	0.121819	0.586233
	H49	H	0.583118	0.890423	0.594545
	H50	H	0.584184	0.119719	0.399401
	H51	H	0.409351	0.889903	0.401691
	H52	H	0.600490	0.412862	0.115877
	H53	H	0.593333	0.595239	0.881604
	H54	H	0.405799	0.592077	0.112479
	H55	H	0.403712	0.419017	0.882192
	H56	H	0.115405	0.595158	0.403600
	H57	H	0.885429	0.596349	0.577401
	H58	H	0.113466	0.411710	0.591206
	H59	H	0.880080	0.412149	0.397248
	H60	H	0.113420	0.412009	0.593609
	H61	H	0.884877	0.584098	0.593329
	H62	H	0.114191	0.600574	0.410973
	H63	H	0.883213	0.404888	0.411718
	H64	H	0.416333	0.596578	0.110632
	H65	H	0.586120	0.597323	0.882443
	H66	H	0.585941	0.420319	0.109366
	H67	H	0.410551	0.417861	0.884276
	H68	H	0.590449	0.118089	0.411386
	H69	H	0.585112	0.894104	0.579421
	H70	H	0.411518	0.120309	0.586732
	H71	H	0.400142	0.889053	0.405682
	H72	H	0.904309	0.622177	0.093949
	H73	H	0.093928	0.387537	0.097462
	H74	H	0.085006	0.620287	0.901694
	H75	H	0.903519	0.390553	0.914257
	H76	H	0.088030	0.915479	0.611846
	H77	H	0.082622	0.100783	0.381814
	H78	H	0.915498	0.088634	0.609051
	H79	H	0.913544	0.916335	0.384623
	H80	H	0.615912	0.101774	0.900661
	H81	H	0.383650	0.102402	0.077689
	H82	H	0.615899	0.912920	0.095783
	H83	H	0.383618	0.911208	0.905964
	H84	H	0.613528	0.909140	0.082212
	H85	H	0.384180	0.088859	0.088678
	H86	H	0.612284	0.100727	0.908447
	H87	H	0.385267	0.918034	0.906692
	H88	H	0.908989	0.101921	0.615199
	H89	H	0.093316	0.098403	0.379504
	H90	H	0.091857	0.907197	0.614115
	H91	H	0.906699	0.903960	0.379025
	H92	H	0.084555	0.616098	0.913698
	H93	H	0.087876	0.390737	0.089920
	H94	H	0.912546	0.619869	0.091757
	H95	H	0.901998	0.386016	0.902893
	H96	H	0.407555	0.118667	0.579984
	H97	H	0.596979	0.887638	0.587530
	H98	H	0.597463	0.123486	0.400592
	H99	H	0.401760	0.886980	0.396108
	H100	H	0.586547	0.403261	0.115043
	H101	H	0.591215	0.601849	0.879893
	H102	H	0.408381	0.602872	0.114805
	H103	H	0.406815	0.412059	0.881179
	H104	H	0.111615	0.591849	0.411574
	H105	H	0.878308	0.602766	0.594336
	H106	H	0.114261	0.409890	0.592186
	H107	H	0.886296	0.420874	0.409748
	H108	H	0.905823	0.619182	0.085730
	H109	H	0.096791	0.388092	0.088026
	H110	H	0.094691	0.621676	0.908966
	H111	H	0.913346	0.390536	0.906365
	H112	H	0.096914	0.914666	0.613815
	H113	H	0.087034	0.090481	0.384384
	H114	H	0.900168	0.089351	0.613815
	H115	H	0.899074	0.916432	0.380824
	H116	H	0.612475	0.093374	0.903087
	H117	H	0.378210	0.104455	0.094474
	H118	H	0.610885	0.922495	0.086795
	H119	H	0.382997	0.915355	0.900581
	C120	C	0.377347	0.013552	0.615644
	C121	C	0.619616	0.997667	0.617033
	C122	C	0.619381	0.013079	0.374364
	C123	C	0.374894	0.996197	0.372134
	C124	C	0.620504	0.383751	0.005786
	C125	C	0.620428	0.627212	0.989222
	C126	C	0.377497	0.627620	0.006035
	C127	C	0.378015	0.385439	0.989724
	C128	C	0.006823	0.625926	0.376747
	C129	C	0.989574	0.625568	0.620193
	C130	C	0.006292	0.381323	0.621091
	C131	C	0.990427	0.382736	0.377268
	C132	C	0.877800	0.512893	0.120281
	C133	C	0.122131	0.495958	0.121756
	C134	C	0.118943	0.512463	0.878253
	C135	C	0.876125	0.495958	0.877190
	C136	C	0.120183	0.882847	0.505542
	C137	C	0.119926	0.126140	0.488757
	C138	C	0.877637	0.124656	0.505203
	C139	C	0.876077	0.882024	0.488417
	C140	C	0.506123	0.128464	0.873437
	C141	C	0.489955	0.127429	0.117042
	C142	C	0.506287	0.884549	0.117627
	C143	C	0.491046	0.885141	0.874639
	C144	C	0.377031	0.892596	0.674411
	C145	C	0.620172	0.119690	0.673778
	C146	C	0.616879	0.890678	0.318332
	C147	C	0.377443	0.119669	0.317386
	C148	C	0.677237	0.385402	0.883659
	C149	C	0.677347	0.625995	0.111793
	C150	C	0.316972	0.628516	0.885027
	C151	C	0.322999	0.385234	0.112437
	C152	C	0.884943	0.682463	0.375740
	C153	C	0.111769	0.682620	0.620112
	C154	C	0.884173	0.324401	0.619453
	C155	C	0.112497	0.325768	0.379138
	C156	C	0.884114	0.382187	0.676828
	C157	C	0.111592	0.624675	0.677643
	C158	C	0.885094	0.624368	0.318436
	C159	C	0.113135	0.384010	0.322203
	C160	C	0.376231	0.684589	0.883514
	C161	C	0.620243	0.683964	0.111280
	C162	C	0.619387	0.328052	0.882863
	C163	C	0.379875	0.327089	0.111461
	C164	C	0.675870	0.891014	0.374821
	C165	C	0.678104	0.118912	0.616480
	C166	C	0.321384	0.891371	0.615396
	C167	C	0.318234	0.118290	0.372990
	C168	C	0.880025	0.389856	0.175395
	C169	C	0.119926	0.618360	0.177866
	C170	C	0.118571	0.390206	0.822135
	C171	C	0.876565	0.617572	0.819046
	C172	C	0.173710	0.885081	0.382050
	C173	C	0.179160	0.124827	0.610261
	C174	C	0.820640	0.125086	0.382475
	C175	C	0.818739	0.881945	0.610174
	C176	C	0.384254	0.185313	0.873523
	C177	C	0.612632	0.182693	0.115843
	C178	C	0.384512	0.826703	0.116282
	C179	C	0.613088	0.828378	0.876157
	C180	C	0.383611	0.885742	0.172666
	C181	C	0.612395	0.125386	0.173692
	C182	C	0.384188	0.128009	0.815573
	C183	C	0.612965	0.886910	0.818705
	C184	C	0.877624	0.182941	0.383371
	C185	C	0.120715	0.181439	0.611789
	C186	C	0.117292	0.826463	0.383128
	C187	C	0.876718	0.824869	0.610899
	C188	C	0.176836	0.391062	0.879615
	C189	C	0.178720	0.618145	0.121983
	C190	C	0.820671	0.390953	0.119353
	C191	C	0.820640	0.618470	0.878114
	C192	C	0.400857	0.098325	0.591400
	C193	C	0.595405	0.912796	0.594009
	C194	C	0.597054	0.098214	0.397024
	C195	C	0.397196	0.910946	0.394627
	C196	C	0.597868	0.405888	0.091288
	C197	C	0.597212	0.604753	0.903555
	C198	C	0.402740	0.604006	0.090723
	C199	C	0.400365	0.409308	0.904595
	C200	C	0.091759	0.602676	0.401509
	C201	C	0.904841	0.601483	0.595502
	C202	C	0.091560	0.404572	0.598784
	C203	C	0.905407	0.405922	0.399630
	C204	C	0.900902	0.598104	0.097321
	C205	C	0.099331	0.410890	0.098662
	C206	C	0.094932	0.597297	0.901308
	C207	C	0.899457	0.411049	0.900896
	C208	C	0.098584	0.905691	0.591066
	C209	C	0.094839	0.103361	0.403857
	C210	C	0.901380	0.100424	0.590433
	C211	C	0.899513	0.905396	0.403450
	C212	C	0.591505	0.105194	0.896991
	C213	C	0.404279	0.105102	0.093868
	C214	C	0.591281	0.907940	0.094849
	C215	C	0.405903	0.908109	0.897742
	Zn216	Zn	0.497887	0.006542	0.745209
	Zn217	Zn	0.497601	0.006253	0.245842
	Zn218	Zn	0.748471	0.505574	-0.001169
	Zn219	Zn	0.248952	0.505931	-0.000540
	Zn220	Zn	-0.001834	0.754523	0.497885
	Zn221	Zn	-0.001738	0.253932	0.498643
	Zn222	Zn	-0.002165	0.503499	0.749000
	Zn223	Zn	-0.000207	0.503977	0.248744
	Zn224	Zn	0.499228	0.755802	-0.003398
	Zn225	Zn	0.498384	0.256228	-0.004111
	Zn226	Zn	0.748564	0.004221	0.495972
	Zn227	Zn	0.248377	0.004433	0.495380
	N228	N	0.411185	0.969830	0.674824
	N229	N	0.584192	0.043184	0.674201
	N230	N	0.582504	0.967504	0.317906
	N231	N	0.411998	0.042888	0.316785
	N232	N	0.678103	0.419179	0.961049
	N233	N	0.677481	0.591307	0.034800
	N234	N	0.317621	0.594003	0.962237
	N235	N	0.321966	0.421043	0.035772
	N236	N	0.961672	0.683373	0.411320
	N237	N	0.034528	0.683456	0.585153
	N238	N	0.961207	0.323715	0.585568
	N239	N	0.035358	0.325048	0.412773
	N240	N	0.960970	0.417044	0.677971
	N241	N	0.034744	0.590021	0.677808
	N242	N	0.962105	0.589973	0.318913
	N243	N	0.036209	0.418719	0.320774
	N244	N	0.413123	0.684345	0.959749
	N245	N	0.585600	0.685009	0.033883
	N246	N	0.584857	0.326687	0.959800
	N247	N	0.413490	0.327015	0.034148
	N248	N	0.677576	0.968031	0.408870
	N249	N	0.677908	0.042084	0.582100
	N250	N	0.321541	0.967669	0.579565
	N251	N	0.316341	0.040720	0.406381
	N252	N	0.914856	0.466687	0.176077
	N253	N	0.085256	0.541468	0.177724
	N254	N	0.083320	0.466766	0.821300
	N255	N	0.910365	0.540365	0.818350
	N256	N	0.175838	0.919208	0.459263
	N257	N	0.178547	0.090904	0.532917
	N258	N	0.820358	0.089597	0.459365
	N259	N	0.817979	0.916441	0.533005
	N260	N	0.461216	0.185839	0.908492
	N261	N	0.535462	0.183871	0.081237
	N262	N	0.461845	0.825948	0.082673
	N263	N	0.536028	0.827108	0.910200
	N264	N	0.460231	0.920993	0.173590
	N265	N	0.534984	0.091774	0.174564
	N266	N	0.461267	0.093443	0.815375
	N267	N	0.536109	0.921409	0.817695
	N268	N	0.912604	0.182528	0.460612
	N269	N	0.084711	0.182548	0.535151
	N270	N	0.084903	0.824770	0.460904
	N271	N	0.911729	0.824834	0.534287
	N272	N	0.177238	0.468105	0.913664
	N273	N	0.180390	0.541039	0.087930
	N274	N	0.819184	0.468470	0.085847
	N275	N	0.820190	0.541770	0.913442
	O276	O	0.886620	-0.055154	0.966893
	H277	H	0.878823	-0.058136	0.964411
	H278	H	0.902067	-0.048849	0.955639
	O279	O	0.502227	0.379435	0.615643
	H280	H	0.499910	0.375247	0.633105
	H281	H	0.498529	0.386648	0.602896
	O282	O	0.561824	0.574737	0.484176
	H283	H	0.565540	0.568904	0.485377
	H284	H	0.573122	0.582518	0.491418
	O285	O	0.609136	0.546914	0.548582
	H286	H	0.592916	0.540051	0.559231
	H287	H	0.597707	0.532249	0.542605
	O288	O	0.351365	0.530962	0.323985
	H289	H	0.342441	0.527053	0.321223
	H290	H	0.349707	0.551423	0.319846
	O291	O	0.032590	-0.070681	1.058972
	H292	H	0.030657	-0.082327	1.059582
	H293	H	0.022753	-0.070638	1.053491
	O294	O	1.139367	0.878579	-0.087607
	H295	H	1.134168	0.892732	-0.092277
	H296	H	1.156445	0.866679	-0.071534
	O297	O	0.844411	1.070350	-0.066048
	H298	H	0.852429	1.066317	-0.065969
	H299	H	0.831856	1.058807	-0.063690
	O300	O	0.549106	0.612551	0.651540
	H301	H	0.553967	0.627664	0.658504
	H302	H	0.547571	0.610577	0.640325
	O303	O	0.509607	0.467715	0.459383
	H304	H	0.507153	0.462803	0.457395
	H305	H	0.506101	0.464239	0.453977
	O306	O	0.561302	0.537215	0.478321
	H307	H	0.565425	0.540841	0.477792
	H308	H	0.577005	0.533222	0.477308
	O309	O	0.665075	0.526834	0.493319
	H310	H	0.676396	0.519142	0.514997
	H311	H	0.646441	0.527406	0.471428
	O312	O	0.902082	1.021494	1.033608
	H313	H	0.908317	1.007727	1.012916
	H314	H	0.904331	1.023282	1.057912
	O315	O	0.380441	0.488793	0.464168
	H316	H	0.377054	0.491262	0.481406
	H317	H	0.379478	0.477708	0.451423
	O318	O	0.370069	0.556710	0.510458
	H319	H	0.374152	0.558873	0.512201
	H320	H	0.368657	0.550973	0.496936
	O321	O	0.386835	0.380240	0.644830
	H322	H	0.391263	0.382020	0.646386
	H323	H	0.376833	0.371355	0.653811
	O324	O	0.023738	1.041772	0.938472
	H325	H	0.025422	1.042985	0.927528
	H326	H	0.024131	1.050238	0.945195
	O327	O	0.076184	0.986618	1.033478
	H328	H	0.082180	0.980503	1.030290
	H329	H	0.077461	0.986506	1.025604
	O330	O	0.005654	0.057255	-0.071393
	H331	H	0.006390	0.051201	-0.068554
	H332	H	0.013956	0.052293	-0.060728
	O333	O	0.578900	0.470913	0.506063
	H334	H	0.568049	0.475664	0.506646
	H335	H	0.584035	0.461388	0.498049
	O336	O	0.056857	-0.063997	-0.079572
	H337	H	0.064208	-0.054536	-0.079017
	H338	H	0.062013	-0.054533	-0.071722
	O339	O	-0.110858	-0.080001	0.030983
	H340	H	-0.129595	-0.084327	0.027590
	H341	H	-0.100977	-0.085850	0.022242
	O342	O	0.538507	0.608887	0.427428
	H343	H	0.544492	0.593202	0.424524
	H344	H	0.538835	0.605816	0.417654
	O345	O	0.102940	0.986070	1.101431
	H346	H	0.112087	0.991269	1.115156
	H347	H	0.090862	0.983533	1.109154
	O348	O	0.618080	0.565456	0.601843
	H349	H	0.625745	0.565793	0.612953
	H350	H	0.624320	0.571129	0.615718
	O351	O	0.387851	0.624885	0.371876
	H352	H	0.372744	0.643862	0.357536
	H353	H	0.392070	0.633629	0.382607
	O354	O	0.147593	1.018102	-0.043248
	H355	H	0.150617	1.008173	-0.049903
	H356	H	0.141495	1.033876	-0.046844
	O357	O	0.377522	0.358936	0.578105
	H358	H	0.387089	0.365890	0.585556
	H359	H	0.375549	0.366433	0.583989
	O360	O	0.953102	0.083154	1.001863
	H361	H	0.954929	0.079753	0.988965
	H362	H	0.949777	0.075509	1.008103
	O363	O	0.483216	0.493621	0.594241
	H364	H	0.488293	0.507101	0.605322
	H365	H	0.480973	0.486450	0.592135
	O366	O	0.380180	0.660216	0.421756
	H367	H	0.379960	0.662379	0.423294
	H368	H	0.378613	0.668582	0.410254
	O369	O	0.961871	-0.006129	-0.044893
	H370	H	0.956212	0.008385	-0.040399
	H371	H	0.950337	-0.003939	-0.029667
	O372	O	0.535696	0.438005	0.499450
	H373	H	0.542899	0.437032	0.503269
	H374	H	0.535944	0.429731	0.502273
	O375	O	1.027791	-0.042531	1.063934
	H376	H	1.019775	-0.048814	1.070983
	H377	H	1.021332	-0.040894	1.057325
	O378	O	0.060715	1.031122	-0.005136
	H379	H	0.060170	1.030728	-0.019274
	H380	H	0.066599	1.026349	-0.000509
	O381	O	0.409562	0.518017	0.599444
	H382	H	0.412488	0.518544	0.616717
	H383	H	0.422397	0.522321	0.596685
	O384	O	1.015920	1.049437	-0.002251
	H385	H	1.013224	1.058611	-0.003724
	H386	H	1.024393	1.054217	0.001735
	O387	O	1.006198	-0.049040	1.054437
	H388	H	1.010271	-0.039496	1.051661
	H389	H	1.003141	-0.050082	1.068733
	O390	O	0.936425	1.090672	-0.086952
	H391	H	0.942334	1.083223	-0.087116
	H392	H	0.917415	1.094481	-0.086776
	O393	O	0.568490	0.350893	0.390123
	H394	H	0.554547	0.359291	0.382893
	H395	H	0.563526	0.334733	0.392537
