data_Molecule from HDF5

_cell_length_a		16.358542
_cell_length_b		16.464027
_cell_length_c		16.355506
_cell_angle_alpha	89.930557
_cell_angle_beta	90.000925
_cell_angle_gamma	89.977752
_symmetry_space_group_name_H-M	'P 1'
_symmetry_Int_Tables_number		1

loop_
	_symmetry_equiv_pos_as_xyz
	x,y,z

loop_
	_atom_site_label
	_atom_site_type_symbol
	_atom_site_fract_x
	_atom_site_fract_y
	_atom_site_fract_z
	H0	H	0.378121	0.847099	0.723895
	H1	H	0.580797	0.166411	0.720919
	H2	H	0.583806	0.847556	0.284173
	H3	H	0.371085	0.163920	0.280258
	H4	H	0.695921	0.406409	0.842138
	H5	H	0.700564	0.612796	0.162951
	H6	H	0.261645	0.608632	0.842623
	H7	H	0.257399	0.401702	0.163270
	H8	H	0.819969	0.725707	0.402208
	H9	H	0.138931	0.726650	0.611128
	H10	H	0.820197	0.286039	0.609630
	H11	H	0.136447	0.279369	0.394044
	H12	H	0.818138	0.405379	0.721224
	H13	H	0.140637	0.607246	0.722695
	H14	H	0.820467	0.611581	0.285021
	H15	H	0.137237	0.396905	0.279467
	H16	H	0.376243	0.726164	0.842936
	H17	H	0.587344	0.730755	0.161372
	H18	H	0.582700	0.288097	0.843592
	H19	H	0.371974	0.284323	0.162844
	H20	H	0.698661	0.846774	0.402701
	H21	H	0.699204	0.165380	0.608730
	H22	H	0.259136	0.847754	0.610136
	H23	H	0.253433	0.162581	0.394517
	H24	H	0.873361	0.348518	0.225672
	H25	H	0.087479	0.662999	0.228725
	H26	H	0.081745	0.346683	0.787045
	H27	H	0.878313	0.666541	0.785493
	H28	H	0.202736	0.898312	0.345763
	H29	H	0.199407	0.108155	0.665388
	H30	H	0.759889	0.109656	0.345387
	H31	H	0.761734	0.904185	0.667054
	H32	H	0.319624	0.229061	0.896565
	H33	H	0.638657	0.225958	0.106823
	H34	H	0.321108	0.784260	0.109314
	H35	H	0.638561	0.786305	0.896219
	H36	H	0.320882	0.897956	0.226250
	H37	H	0.638183	0.111595	0.224039
	H38	H	0.318953	0.110536	0.783931
	H39	H	0.641496	0.908035	0.786928
	H40	H	0.872908	0.228344	0.347154
	H41	H	0.085100	0.225783	0.665144
	H42	H	0.086166	0.783481	0.345890
	H43	H	0.877367	0.787620	0.666258
	H44	H	0.200204	0.348352	0.899933
	H45	H	0.200818	0.665881	0.109641
	H46	H	0.760090	0.348032	0.105164
	H47	H	0.762028	0.667358	0.900957
	H48	H	0.391852	0.118372	0.591922
	H49	H	0.574738	0.891375	0.593781
	H50	H	0.567893	0.118844	0.413899
	H51	H	0.394533	0.896305	0.418776
	H52	H	0.567377	0.411430	0.119268
	H53	H	0.576922	0.587201	0.891363
	H54	H	0.392409	0.592004	0.115116
	H55	H	0.388465	0.414616	0.888228
	H56	H	0.092181	0.591310	0.419659
	H57	H	0.866867	0.591887	0.594513
	H58	H	0.093072	0.416453	0.594151
	H59	H	0.871372	0.425919	0.421920
	H60	H	0.095257	0.415650	0.597804
	H61	H	0.863555	0.598091	0.600232
	H62	H	0.094174	0.593595	0.412620
	H63	H	0.865031	0.418941	0.409560
	H64	H	0.395397	0.599793	0.117167
	H65	H	0.557543	0.598845	0.892660
	H66	H	0.573667	0.419299	0.119104
	H67	H	0.388579	0.420911	0.890821
	H68	H	0.569723	0.119366	0.415456
	H69	H	0.571673	0.890542	0.600451
	H70	H	0.388504	0.119606	0.591389
	H71	H	0.388139	0.893655	0.416460
	H72	H	0.894438	0.620711	0.100561
	H73	H	0.058694	0.397992	0.093663
	H74	H	0.064624	0.618508	0.915337
	H75	H	0.884601	0.392999	0.917135
	H76	H	0.065719	0.913358	0.617675
	H77	H	0.069398	0.084584	0.394096
	H78	H	0.894610	0.100368	0.619487
	H79	H	0.891234	0.913233	0.390531
	H80	H	0.595234	0.105294	0.914221
	H81	H	0.369460	0.090466	0.083926
	H82	H	0.588773	0.926165	0.088705
	H83	H	0.367223	0.924104	0.913051
	H84	H	0.594795	0.918601	0.098256
	H85	H	0.364101	0.091387	0.100227
	H86	H	0.590619	0.094882	0.917475
	H87	H	0.363206	0.913631	0.909027
	H88	H	0.884014	0.099164	0.622366
	H89	H	0.056547	0.093222	0.396578
	H90	H	0.072256	0.913606	0.619869
	H91	H	0.886413	0.915449	0.390592
	H92	H	0.074943	0.621786	0.916823
	H93	H	0.070365	0.396973	0.082105
	H94	H	0.894155	0.617341	0.087364
	H95	H	0.885097	0.390652	0.908305
	H96	H	0.389918	0.120465	0.594637
	H97	H	0.566755	0.893137	0.595381
	H98	H	0.570182	0.120203	0.413471
	H99	H	0.394206	0.893756	0.412564
	H100	H	0.564716	0.420175	0.115204
	H101	H	0.576122	0.608443	0.883349
	H102	H	0.387717	0.597939	0.119154
	H103	H	0.393994	0.416782	0.891382
	H104	H	0.093728	0.597998	0.419029
	H105	H	0.864849	0.601209	0.591653
	H106	H	0.095678	0.412648	0.594213
	H107	H	0.867068	0.410762	0.422591
	H108	H	0.882984	0.622422	0.093329
	H109	H	0.073703	0.391807	0.097346
	H110	H	0.070429	0.623269	0.907021
	H111	H	0.892422	0.393398	0.912323
	H112	H	0.069160	0.919335	0.617299
	H113	H	0.069033	0.099300	0.389262
	H114	H	0.890199	0.090555	0.617839
	H115	H	0.890652	0.917872	0.392374
	H116	H	0.594702	0.096340	0.906397
	H117	H	0.362428	0.104815	0.090072
	H118	H	0.591797	0.913714	0.086666
	H119	H	0.366722	0.914705	0.920705
	C120	C	0.358630	0.014561	0.625262
	C121	C	0.601646	0.997406	0.626530
	C122	C	0.601060	0.014568	0.382784
	C123	C	0.357863	0.998145	0.381996
	C124	C	0.599949	0.386281	0.011804
	C125	C	0.602059	0.629958	0.994499
	C126	C	0.359450	0.628027	0.011410
	C127	C	0.357622	0.385256	0.995369
	C128	C	-0.011706	0.626872	0.384676
	C129	C	0.971035	0.627510	0.626593
	C130	C	-0.011665	0.384448	0.626427
	C131	C	0.971627	0.384479	0.383584
	C132	C	0.857871	0.515243	0.125341
	C133	C	0.101045	0.499033	0.125009
	C134	C	0.101328	0.515654	0.882131
	C135	C	0.857438	0.498201	0.881512
	C136	C	0.102003	0.882999	0.513523
	C137	C	0.099361	0.125827	0.497600
	C138	C	0.857387	0.128386	0.514505
	C139	C	0.858807	0.885180	0.497528
	C140	C	0.487635	0.129898	0.881130
	C141	C	0.470694	0.127667	0.124292
	C142	C	0.487691	0.885464	0.124618
	C143	C	0.471323	0.886599	0.882279
	C144	C	0.358225	0.894863	0.684735
	C145	C	0.601060	0.118071	0.683214
	C146	C	0.602534	0.895332	0.323719
	C147	C	0.353036	0.116236	0.320078
	C148	C	0.657911	0.386511	0.890883
	C149	C	0.661889	0.631783	0.114456
	C150	C	0.300451	0.628329	0.890875
	C151	C	0.297644	0.383675	0.115486
	C152	C	0.868012	0.686423	0.383172
	C153	C	0.091456	0.686264	0.628457
	C154	C	0.867788	0.326120	0.627475
	C155	C	0.089749	0.321559	0.378009
	C156	C	0.866957	0.385150	0.683390
	C157	C	0.092082	0.627146	0.684455
	C158	C	0.868326	0.629405	0.324921
	C159	C	0.090071	0.380139	0.320793
	C160	C	0.357509	0.686806	0.890848
	C161	C	0.604914	0.690238	0.113937
	C162	C	0.601117	0.327894	0.891384
	C163	C	0.354417	0.324962	0.115153
	C164	C	0.659729	0.894730	0.382720
	C165	C	0.659854	0.117664	0.627172
	C166	C	0.299433	0.894991	0.627918
	C167	C	0.294627	0.115616	0.377442
	C168	C	0.855823	0.396048	0.184865
	C169	C	0.104773	0.616462	0.187701
	C170	C	0.101341	0.395154	0.825095
	C171	C	0.858450	0.618676	0.824144
	C172	C	0.162378	0.880626	0.393713
	C173	C	0.159920	0.127461	0.617311
	C174	C	0.798669	0.129059	0.393780
	C175	C	0.800923	0.885187	0.618755
	C176	C	0.367540	0.189051	0.878900
	C177	C	0.590756	0.186661	0.125692
	C178	C	0.368633	0.824346	0.127520
	C179	C	0.591461	0.827250	0.879377
	C180	C	0.368621	0.881179	0.185955
	C181	C	0.590404	0.129694	0.183994
	C182	C	0.367377	0.130175	0.822483
	C183	C	0.592597	0.887484	0.824692
	C184	C	0.854821	0.188570	0.394772
	C185	C	0.102989	0.186116	0.617130
	C186	C	0.104654	0.822870	0.393622
	C187	C	0.858394	0.827035	0.618457
	C188	C	0.160184	0.396071	0.881597
	C189	C	0.161716	0.617648	0.128719
	C190	C	0.799002	0.395707	0.125528
	C191	C	0.800717	0.619156	0.881860
	C192	C	0.382850	0.097584	0.599854
	C193	C	0.578161	0.913593	0.603326
	C194	C	0.576450	0.097974	0.407060
	C195	C	0.384636	0.916011	0.408431
	C196	C	0.575643	0.409975	0.095890
	C197	C	0.577164	0.605276	0.910762
	C198	C	0.384589	0.603606	0.095219
	C199	C	0.383025	0.410143	0.911837
	C200	C	0.071687	0.601604	0.409609
	C201	C	0.887076	0.603982	0.602460
	C202	C	0.072530	0.408064	0.602303
	C203	C	0.889436	0.410843	0.410422
	C204	C	0.883148	0.598413	0.100781
	C205	C	0.075116	0.416977	0.098661
	C206	C	0.077054	0.599241	0.906086
	C207	C	0.880612	0.414300	0.905692
	C208	C	0.076408	0.908292	0.596762
	C209	C	0.072619	0.099902	0.414714
	C210	C	0.882301	0.103587	0.598203
	C211	C	0.882617	0.908776	0.413194
	C212	C	0.571830	0.105927	0.905762
	C213	C	0.387072	0.102772	0.098727
	C214	C	0.570472	0.911897	0.098641
	C215	C	0.387633	0.910409	0.907197
	Zn216	Zn	0.479467	0.007266	0.754065
	Zn217	Zn	0.479310	0.006371	0.253105
	Zn218	Zn	0.729105	0.507345	0.003089
	Zn219	Zn	0.230153	0.507549	0.003874
	Zn220	Zn	-0.020216	0.755711	0.505228
	Zn221	Zn	-0.020084	0.255607	0.505645
	Zn222	Zn	-0.020434	0.505767	0.754026
	Zn223	Zn	-0.020259	0.506649	0.254985
	Zn224	Zn	0.479821	0.757602	0.002844
	Zn225	Zn	0.479073	0.257132	0.003638
	Zn226	Zn	0.729546	0.005963	0.505758
	Zn227	Zn	0.229593	0.005785	0.504554
	N228	N	0.394192	0.970180	0.683240
	N229	N	0.565576	0.042451	0.682950
	N230	N	0.566959	0.970961	0.323682
	N231	N	0.391255	0.041999	0.322613
	N232	N	0.657239	0.422266	0.966738
	N233	N	0.660143	0.595036	0.039103
	N234	N	0.301631	0.592548	0.966874
	N235	N	0.299395	0.420312	0.039842
	N236	N	0.943827	0.685176	0.419267
	N237	N	0.015194	0.686714	0.593309
	N238	N	0.944391	0.325427	0.592792
	N239	N	0.015168	0.323935	0.416397
	N240	N	0.942889	0.420782	0.682791
	N241	N	0.016311	0.591231	0.683348
	N242	N	0.944104	0.593191	0.325666
	N243	N	0.015582	0.418562	0.324037
	N244	N	0.393545	0.686685	0.966806
	N245	N	0.568545	0.689360	0.038209
	N246	N	0.565833	0.327524	0.967635
	N247	N	0.390808	0.325626	0.039496
	N248	N	0.659339	0.970194	0.418373
	N249	N	0.660235	0.041606	0.592398
	N250	N	0.299626	0.970208	0.591532
	N251	N	0.297186	0.040965	0.415078
	N252	N	0.891366	0.471666	0.185128
	N253	N	0.067954	0.541522	0.185785
	N254	N	0.065406	0.470640	0.825386
	N255	N	0.892922	0.542486	0.823874
	N256	N	0.160866	0.917280	0.469101
	N257	N	0.157932	0.090763	0.541864
	N258	N	0.799965	0.092415	0.469274
	N259	N	0.800864	0.920295	0.542351
	N260	N	0.443567	0.189087	0.914747
	N261	N	0.514901	0.185861	0.089613
	N262	N	0.443839	0.826697	0.090082
	N263	N	0.515076	0.826464	0.914684
	N264	N	0.443608	0.918550	0.184167
	N265	N	0.514435	0.094084	0.183408
	N266	N	0.443090	0.094113	0.823820
	N267	N	0.517084	0.923617	0.826338
	N268	N	0.890458	0.188234	0.470896
	N269	N	0.066267	0.185136	0.541525
	N270	N	0.068064	0.824001	0.469319
	N271	N	0.893704	0.826766	0.542119
	N272	N	0.160490	0.471949	0.916334
	N273	N	0.159569	0.543632	0.090575
	N274	N	0.800087	0.470962	0.089430
	N275	N	0.799902	0.543198	0.916901
	O276	O	0.436476	0.570982	0.431471
	H277	H	0.442387	0.563159	0.419823
	H278	H	0.432020	0.580115	0.431056
	O279	O	0.986084	-0.020403	-0.047729
	H280	H	0.981798	-0.011694	-0.058960
	H281	H	0.995525	-0.030264	-0.055991
	O282	O	0.524516	0.431334	0.583290
	H283	H	0.529719	0.425141	0.594275
	H284	H	0.523497	0.454696	0.586513
	O285	O	1.152648	0.158259	0.053097
	H286	H	1.146234	0.164904	0.070188
	H287	H	1.169927	0.168620	0.048623
	O288	O	0.117907	-0.020914	0.968108
	H289	H	0.115061	-0.006692	0.953183
	H290	H	0.117040	-0.041676	0.984035
	O291	O	0.539571	0.501715	0.360283
	H292	H	0.537563	0.497813	0.359724
	H293	H	0.518006	0.490671	0.358625
	O294	O	0.385021	0.326523	0.596051
	H295	H	0.387272	0.334135	0.605831
	H296	H	0.410158	0.326814	0.615099
	O297	O	0.863770	0.819137	1.109344
	H298	H	0.867681	0.825887	1.093108
	H299	H	0.876909	0.835187	1.113546
	O300	O	0.049557	0.117752	-0.115082
	H301	H	0.058964	0.122825	-0.114666
	H302	H	0.056228	0.099882	-0.128417
	O303	O	0.650872	0.327295	0.399518
	H304	H	0.646725	0.350799	0.387727
	H305	H	0.631436	0.332294	0.392685
	O306	O	1.344104	0.226841	-0.260247
	H307	H	1.330488	0.245970	-0.250831
	H308	H	1.376192	0.227991	-0.264894
	O309	O	0.275544	0.364135	0.507863
	H310	H	0.280553	0.366317	0.538747
	H311	H	0.258213	0.352953	0.521965
	O312	O	0.421041	1.670696	-0.672099
	H313	H	0.425148	1.660133	-0.679629
	H314	H	0.432581	1.664197	-0.671751
	O315	O	0.423608	0.497516	0.535583
	H316	H	0.419876	0.493528	0.546317
	H317	H	0.426868	0.486047	0.543079
	O318	O	0.343329	0.519441	0.673216
	H319	H	0.358577	0.523867	0.656344
	H320	H	0.332267	0.523571	0.689004
	O321	O	0.994813	-0.008122	0.861686
	H322	H	0.996552	-0.014351	0.863653
	H323	H	0.998652	-0.010347	0.868055
	O324	O	0.105978	-0.186258	1.023022
	H325	H	0.105435	-0.201213	1.021106
	H326	H	0.105617	-0.177801	1.025364
	O327	O	0.870827	1.124407	0.967413
	H328	H	0.856999	1.114386	0.969612
	H329	H	0.863722	1.125457	0.979094
	O330	O	0.940321	1.173134	0.206549
	H331	H	0.942232	1.183875	0.204550
	H332	H	0.930907	1.182014	0.210913
	O333	O	1.035891	1.132876	1.066764
	H334	H	1.035444	1.123164	1.049092
	H335	H	1.018086	1.136027	1.061724
	O336	O	0.605476	0.486163	0.303953
	H337	H	0.628507	0.478397	0.293839
	H338	H	0.577385	0.497891	0.306693
	O339	O	1.346319	-0.563912	1.449638
	H340	H	1.346688	-0.582887	1.456959
	H341	H	1.333024	-0.566157	1.458962
	O342	O	-0.127104	1.106290	0.857395
	H343	H	-0.118442	1.109693	0.856428
	H344	H	-0.124685	1.084956	0.852341
	O345	O	0.186254	1.001946	1.180302
	H346	H	0.190889	1.023320	1.190728
	H347	H	0.205857	0.996603	1.186262
	O348	O	1.599154	0.300269	0.532299
	H349	H	1.627372	0.281092	0.535626
	H350	H	1.599247	0.308543	0.512464
	O351	O	-0.172012	-0.050541	0.185181
	H352	H	-0.194121	-0.057514	0.214284
	H353	H	-0.152831	-0.036637	0.190199
	O354	O	0.892552	0.991685	0.015070
	H355	H	0.898319	0.983662	0.030960
	H356	H	0.888735	1.000544	0.008132
	O357	O	-0.082833	0.866052	0.093837
	H358	H	-0.089770	0.858242	0.094899
	H359	H	-0.086467	0.870746	0.094293
	O360	O	1.018462	-0.057627	1.126597
	H361	H	1.012176	-0.084256	1.113821
	H362	H	1.052371	-0.051919	1.138544
	O363	O	0.020527	-0.126538	-0.047449
	H364	H	0.033431	-0.123071	-0.048726
	H365	H	0.018373	-0.123627	-0.047044
	O366	O	-0.011176	1.113928	-0.015632
	H367	H	-0.018631	1.097240	-0.014974
	H368	H	-0.001977	1.111320	-0.028782
	O369	O	0.520742	0.570745	0.570946
	H370	H	0.523771	0.579873	0.568705
	H371	H	0.519344	0.560749	0.579501
	O372	O	0.299494	0.709531	0.470550
	H373	H	0.290500	0.723660	0.455595
	H374	H	0.297528	0.713869	0.443959
	O375	O	0.627410	0.557288	0.567678
	H376	H	0.633456	0.561430	0.551307
	H377	H	0.634923	0.557599	0.579217
	O378	O	0.295307	0.504512	0.310162
	H379	H	0.276431	0.492122	0.321680
	H380	H	0.276113	0.492740	0.307779
	O381	O	0.644984	0.528104	0.600272
	H382	H	0.649468	0.535224	0.585098
	H383	H	0.646529	0.525589	0.602586
	O384	O	-0.223761	0.823972	1.064542
	H385	H	-0.230813	0.831486	1.069166
	H386	H	-0.236169	0.821154	1.070117
	O387	O	1.661598	0.634994	-0.487423
	H388	H	1.663163	0.640826	-0.489775
	H389	H	1.649850	0.639296	-0.480021
	O390	O	0.553249	0.306961	0.299545
	H391	H	0.537635	0.307099	0.315382
	H392	H	0.551986	0.290261	0.295249
	O393	O	1.117591	-0.025871	0.824791
	H394	H	1.120385	-0.023861	0.813263
	H395	H	1.111244	-0.027049	0.840140
	O396	O	0.560485	0.537704	0.680193
	H397	H	0.564741	0.540710	0.678091
	H398	H	0.560612	0.561006	0.679075
	O399	O	0.575894	0.670324	0.627580
	H400	H	0.559973	0.673540	0.629974
	H401	H	0.573426	0.670190	0.612689
	O402	O	0.945047	0.054223	0.917158
	H403	H	0.942876	0.055111	0.920787
	H404	H	0.922348	0.052782	0.905761
	O405	O	0.427971	-0.696389	0.408726
	H406	H	0.425233	-0.704997	0.420599
	H407	H	0.433505	-0.695066	0.423201
	O408	O	0.985678	0.923482	1.026173
	H409	H	0.977212	0.931750	1.028587
	H410	H	0.988582	0.919819	1.041503
	O411	O	0.512557	0.692772	0.457180
	H412	H	0.504896	0.688206	0.453976
	H413	H	0.509675	0.699227	0.443636
	O414	O	-0.207238	0.050050	0.979343
	H415	H	-0.212025	0.043253	0.988645
	H416	H	-0.195710	0.060765	1.000664
	O417	O	0.373634	0.581071	0.560582
	H418	H	0.379896	0.573530	0.548471
	H419	H	0.367281	0.592507	0.549066
	O420	O	0.640889	1.408600	-0.353398
	H421	H	0.646048	1.397745	-0.356307
	H422	H	0.656349	1.399113	-0.370137
	O423	O	0.922284	-0.050084	0.119219
	H424	H	0.933683	-0.023093	0.127587
	H425	H	0.942396	-0.072861	0.112048
	O426	O	0.152843	0.169814	1.143692
	H427	H	0.158905	0.155238	1.134373
	H428	H	0.125278	0.170774	1.137347
	O429	O	0.328506	0.663451	0.399225
	H430	H	0.326406	0.636939	0.394298
	H431	H	0.359496	0.679226	0.388607
