data_Molecule from HDF5

_cell_length_a		16.349972
_cell_length_b		16.316537
_cell_length_c		16.329816
_cell_angle_alpha	89.965849
_cell_angle_beta	89.982249
_cell_angle_gamma	90.023718
_symmetry_space_group_name_H-M	'P 1'
_symmetry_Int_Tables_number		1

loop_
	_symmetry_equiv_pos_as_xyz
	x,y,z

loop_
	_atom_site_label
	_atom_site_type_symbol
	_atom_site_fract_x
	_atom_site_fract_y
	_atom_site_fract_z
	H0	H	0.400733	0.841161	0.715503
	H1	H	0.595931	0.168563	0.716712
	H2	H	0.594635	0.841827	0.288893
	H3	H	0.400387	0.169141	0.287097
	H4	H	0.713873	0.406441	0.838549
	H5	H	0.713964	0.604343	0.164917
	H6	H	0.284611	0.603259	0.837861
	H7	H	0.282564	0.405833	0.164178
	H8	H	0.834877	0.720654	0.402168
	H9	H	0.161040	0.720507	0.598450
	H10	H	0.834641	0.291677	0.599518
	H11	H	0.160876	0.290931	0.402837
	H12	H	0.836240	0.405678	0.717838
	H13	H	0.161553	0.604036	0.715625
	H14	H	0.835424	0.603944	0.285764
	H15	H	0.161950	0.407851	0.287524
	H16	H	0.400965	0.719477	0.837318
	H17	H	0.597047	0.720020	0.164852
	H18	H	0.597136	0.290405	0.838822
	H19	H	0.400048	0.290267	0.165039
	H20	H	0.711494	0.841711	0.404587
	H21	H	0.711568	0.169249	0.599695
	H22	H	0.282601	0.842193	0.600337
	H23	H	0.283698	0.170039	0.402676
	H24	H	0.901030	0.342137	0.215911
	H25	H	0.096297	0.669163	0.214850
	H26	H	0.097158	0.341699	0.787447
	H27	H	0.901246	0.668556	0.787980
	H28	H	0.212860	0.907813	0.338181
	H29	H	0.212929	0.104555	0.665303
	H30	H	0.783509	0.103739	0.338449
	H31	H	0.784454	0.908291	0.665028
	H32	H	0.335408	0.220156	0.904171
	H33	H	0.661780	0.220193	0.100332
	H34	H	0.334987	0.790186	0.098875
	H35	H	0.662559	0.792243	0.904234
	H36	H	0.334510	0.906837	0.215933
	H37	H	0.661928	0.103215	0.216814
	H38	H	0.335202	0.102730	0.788495
	H39	H	0.661638	0.908261	0.787431
	H40	H	0.900664	0.219302	0.338322
	H41	H	0.095605	0.220291	0.665206
	H42	H	0.095402	0.792127	0.337844
	H43	H	0.899448	0.791133	0.664823
	H44	H	0.213363	0.342021	0.903811
	H45	H	0.213872	0.668896	0.099653
	H46	H	0.785010	0.341493	0.099402
	H47	H	0.783115	0.668264	0.902958
	H48	H	0.410966	0.122557	0.605665
	H49	H	0.593096	0.888291	0.597324
	H50	H	0.588260	0.122155	0.405253
	H51	H	0.407023	0.890503	0.407567
	H52	H	0.592284	0.413287	0.116902
	H53	H	0.590762	0.605470	0.884377
	H54	H	0.411338	0.598975	0.115412
	H55	H	0.405506	0.406385	0.883944
	H56	H	0.114383	0.603447	0.409926
	H57	H	0.880808	0.603445	0.594339
	H58	H	0.114742	0.408537	0.595221
	H59	H	0.882665	0.415886	0.406632
	H60	H	0.111919	0.413704	0.589224
	H61	H	0.884100	0.595438	0.590682
	H62	H	0.112097	0.596481	0.410230
	H63	H	0.881273	0.409766	0.406020
	H64	H	0.402756	0.601517	0.119029
	H65	H	0.598542	0.595375	0.885038
	H66	H	0.590897	0.412242	0.117470
	H67	H	0.401035	0.415315	0.885739
	H68	H	0.589363	0.120587	0.411932
	H69	H	0.589150	0.889503	0.595493
	H70	H	0.412152	0.116376	0.585770
	H71	H	0.404669	0.890999	0.412036
	H72	H	0.907067	0.620284	0.092491
	H73	H	0.088849	0.388575	0.101085
	H74	H	0.091397	0.619339	0.913183
	H75	H	0.898188	0.387950	0.913324
	H76	H	0.086953	0.918700	0.614381
	H77	H	0.090691	0.097339	0.387449
	H78	H	0.892297	0.103860	0.622695
	H79	H	0.909105	0.921151	0.388803
	H80	H	0.615371	0.103057	0.909659
	H81	H	0.382298	0.092173	0.102984
	H82	H	0.612882	0.911811	0.094099
	H83	H	0.378380	0.901699	0.902683
	H84	H	0.614040	0.913587	0.096693
	H85	H	0.380021	0.108157	0.095284
	H86	H	0.612283	0.095049	0.912806
	H87	H	0.386186	0.909364	0.919965
	H88	H	0.905707	0.087332	0.613834
	H89	H	0.090719	0.101389	0.385102
	H90	H	0.088557	0.905454	0.618442
	H91	H	0.909952	0.904374	0.384657
	H92	H	0.098288	0.624070	0.906176
	H93	H	0.088193	0.392130	0.088824
	H94	H	0.904775	0.621495	0.092581
	H95	H	0.906466	0.387048	0.900270
	H96	H	0.393737	0.124128	0.592767
	H97	H	0.593170	0.889500	0.593191
	H98	H	0.594866	0.122991	0.407822
	H99	H	0.402290	0.888478	0.407731
	H100	H	0.592884	0.412106	0.118435
	H101	H	0.586687	0.594414	0.888773
	H102	H	0.403961	0.592483	0.115270
	H103	H	0.410449	0.414200	0.887814
	H104	H	0.115137	0.599379	0.403802
	H105	H	0.881841	0.596231	0.599505
	H106	H	0.113258	0.416728	0.597014
	H107	H	0.883704	0.412309	0.411726
	H108	H	0.906436	0.622058	0.094716
	H109	H	0.098997	0.387762	0.093597
	H110	H	0.088024	0.621420	0.902496
	H111	H	0.912874	0.392964	0.913184
	H112	H	0.099238	0.913863	0.619169
	H113	H	0.094610	0.098594	0.385917
	H114	H	0.914275	0.108000	0.617767
	H115	H	0.895087	0.912847	0.382767
	H116	H	0.614754	0.096013	0.903931
	H117	H	0.387241	0.094070	0.085715
	H118	H	0.614709	0.910310	0.095922
	H119	H	0.383610	0.920885	0.902796
	C120	C	0.376800	0.013193	0.623447
	C121	C	0.619740	0.996982	0.623571
	C122	C	0.619432	0.013701	0.380429
	C123	C	0.376454	0.998135	0.380522
	C124	C	0.620279	0.384095	0.009679
	C125	C	0.620455	0.626693	0.993753
	C126	C	0.377421	0.626616	0.009002
	C127	C	0.377164	0.383555	0.993585
	C128	C	0.006090	0.627430	0.379539
	C129	C	0.989921	0.627060	0.622808
	C130	C	0.006265	0.384069	0.622910
	C131	C	0.990202	0.384474	0.379825
	C132	C	0.877425	0.513506	0.122692
	C133	C	0.120461	0.497459	0.122553
	C134	C	0.120780	0.513297	0.879621
	C135	C	0.876980	0.497137	0.880256
	C136	C	0.119538	0.884753	0.509346
	C137	C	0.119962	0.127676	0.493996
	C138	C	0.876152	0.127411	0.509883
	C139	C	0.876467	0.884393	0.493261
	C140	C	0.506523	0.126645	0.880394
	C141	C	0.490576	0.126737	0.123551
	C142	C	0.506022	0.883566	0.123456
	C143	C	0.490475	0.883223	0.880161
	C144	C	0.379433	0.890135	0.678063
	C145	C	0.616398	0.120012	0.678542
	C146	C	0.616011	0.890597	0.326155
	C147	C	0.379434	0.120642	0.325040
	C148	C	0.675537	0.386391	0.887111
	C149	C	0.675559	0.624208	0.116332
	C150	C	0.322226	0.624133	0.886387
	C151	C	0.321483	0.385947	0.115911
	C152	C	0.883550	0.682639	0.381683
	C153	C	0.112556	0.682312	0.619531
	C154	C	0.883496	0.329063	0.620316
	C155	C	0.112727	0.329428	0.382530
	C156	C	0.884157	0.385886	0.678845
	C157	C	0.113003	0.624081	0.677161
	C158	C	0.883922	0.625206	0.323424
	C159	C	0.112949	0.387352	0.324958
	C160	C	0.380505	0.681329	0.886093
	C161	C	0.617552	0.681745	0.116376
	C162	C	0.617757	0.328828	0.887189
	C163	C	0.379699	0.328395	0.116316
	C164	C	0.673895	0.890663	0.383765
	C165	C	0.673916	0.120377	0.620511
	C166	C	0.321217	0.890593	0.620493
	C167	C	0.321747	0.121070	0.382749
	C168	C	0.880400	0.390691	0.177794
	C169	C	0.117000	0.620610	0.176816
	C170	C	0.117832	0.390469	0.825013
	C171	C	0.879795	0.619789	0.825272
	C172	C	0.174365	0.887492	0.386537
	C173	C	0.174667	0.125030	0.616760
	C174	C	0.821474	0.124344	0.387147
	C175	C	0.822078	0.887468	0.616304
	C176	C	0.384175	0.182289	0.883067
	C177	C	0.613306	0.181852	0.120848
	C178	C	0.383494	0.828094	0.120209
	C179	C	0.613698	0.829497	0.883395
	C180	C	0.383185	0.886142	0.178037
	C181	C	0.613350	0.123765	0.178699
	C182	C	0.384021	0.124129	0.825616
	C183	C	0.613269	0.886987	0.825378
	C184	C	0.879603	0.181718	0.387107
	C185	C	0.116990	0.182845	0.616446
	C186	C	0.115954	0.830240	0.386290
	C187	C	0.879051	0.829098	0.616144
	C188	C	0.175498	0.390659	0.882838
	C189	C	0.175450	0.620250	0.119701
	C190	C	0.822285	0.390603	0.120603
	C191	C	0.821530	0.619655	0.882690
	C192	C	0.399178	0.098851	0.601253
	C193	C	0.598051	0.911187	0.601823
	C194	C	0.597351	0.099589	0.402061
	C195	C	0.398212	0.912300	0.402689
	C196	C	0.598528	0.406159	0.095472
	C197	C	0.598437	0.604916	0.908007
	C198	C	0.399422	0.604193	0.094446
	C199	C	0.399281	0.405479	0.907871
	C200	C	0.091691	0.605976	0.401579
	C201	C	0.904438	0.604886	0.601305
	C202	C	0.091394	0.406455	0.600356
	C203	C	0.904589	0.406363	0.401605
	C204	C	0.899552	0.599164	0.099980
	C205	C	0.098622	0.411672	0.100886
	C206	C	0.098977	0.599314	0.900960
	C207	C	0.899224	0.411352	0.902346
	C208	C	0.097939	0.906200	0.594996
	C209	C	0.098479	0.105461	0.408252
	C210	C	0.897617	0.106104	0.595851
	C211	C	0.898185	0.906381	0.407522
	C212	C	0.592076	0.104558	0.902337
	C213	C	0.405188	0.104714	0.101402
	C214	C	0.591770	0.905488	0.101856
	C215	C	0.404782	0.904478	0.901905
	Zn216	Zn	0.498163	0.005163	0.751888
	Zn217	Zn	0.498158	0.005239	0.252092
	Zn218	Zn	0.748954	0.505091	0.002061
	Zn219	Zn	0.249058	0.505442	0.001147
	Zn220	Zn	-0.002353	0.756073	0.501223
	Zn221	Zn	-0.002035	0.255872	0.501437
	Zn222	Zn	-0.001208	0.505074	0.751328
	Zn223	Zn	-0.001479	0.505901	0.250904
	Zn224	Zn	0.498998	0.754812	0.001410
	Zn225	Zn	0.498936	0.255524	0.001887
	Zn226	Zn	0.747863	0.005819	0.501894
	Zn227	Zn	0.248186	0.006388	0.502084
	N228	N	0.413309	0.967262	0.679838
	N229	N	0.583598	0.042310	0.680683
	N230	N	0.582752	0.967984	0.324215
	N231	N	0.412635	0.043154	0.323486
	N232	N	0.677128	0.419951	0.964356
	N233	N	0.677431	0.590853	0.039110
	N234	N	0.320540	0.590606	0.963742
	N235	N	0.319864	0.419475	0.038640
	N236	N	0.960616	0.684525	0.415664
	N237	N	0.035277	0.684213	0.586271
	N238	N	0.960397	0.328020	0.585944
	N239	N	0.035372	0.327196	0.415571
	N240	N	0.961274	0.419160	0.680726
	N241	N	0.035736	0.590780	0.679586
	N242	N	0.960977	0.591602	0.322240
	N243	N	0.035791	0.421083	0.323281
	N244	N	0.413897	0.683211	0.963356
	N245	N	0.583884	0.683355	0.039137
	N246	N	0.584163	0.327305	0.964450
	N247	N	0.413799	0.327141	0.039272
	N248	N	0.676150	0.968253	0.416667
	N249	N	0.675924	0.043132	0.586841
	N250	N	0.319354	0.968245	0.587428
	N251	N	0.319651	0.043816	0.416501
	N252	N	0.914057	0.467993	0.179062
	N253	N	0.083655	0.543332	0.178880
	N254	N	0.084290	0.467858	0.823076
	N255	N	0.913667	0.542546	0.823836
	N256	N	0.176637	0.920734	0.463850
	N257	N	0.176736	0.091661	0.539428
	N258	N	0.819462	0.091110	0.464522
	N259	N	0.820307	0.920888	0.538960
	N260	N	0.461441	0.183845	0.916579
	N261	N	0.536216	0.183719	0.087082
	N262	N	0.460778	0.826530	0.086971
	N263	N	0.536450	0.827106	0.916798
	N264	N	0.460306	0.919935	0.180169
	N265	N	0.535980	0.090436	0.180533
	N266	N	0.460922	0.090224	0.824057
	N267	N	0.535682	0.919656	0.823284
	N268	N	0.912980	0.183619	0.464378
	N269	N	0.083301	0.184241	0.539194
	N270	N	0.082563	0.828394	0.463747
	N271	N	0.912314	0.827067	0.538718
	N272	N	0.177330	0.468003	0.915856
	N273	N	0.177471	0.542732	0.086575
	N274	N	0.820625	0.467915	0.086900
	N275	N	0.819717	0.542288	0.915936
	O276	O	1.435233	-0.468214	0.498101
	H277	H	1.426225	-0.477670	0.510695
	H278	H	1.427520	-0.462998	0.493391
	O279	O	0.465341	0.537362	0.465860
	H280	H	0.462816	0.543964	0.463693
	H281	H	0.464575	0.534030	0.479888
	O282	O	0.411335	0.517807	0.489239
	H283	H	0.415230	0.508704	0.483281
	H284	H	0.408506	0.526199	0.483526
	O285	O	0.441457	0.527294	0.454219
	H286	H	0.436030	0.535553	0.449316
	H287	H	0.457267	0.525005	0.450614
