data_Molecule from HDF5

_cell_length_a		16.376756
_cell_length_b		16.298454
_cell_length_c		16.333155
_cell_angle_alpha	90.080463
_cell_angle_beta	90.005305
_cell_angle_gamma	90.062362
_symmetry_space_group_name_H-M	'P 1'
_symmetry_Int_Tables_number		1

loop_
	_symmetry_equiv_pos_as_xyz
	x,y,z

loop_
	_atom_site_label
	_atom_site_type_symbol
	_atom_site_fract_x
	_atom_site_fract_y
	_atom_site_fract_z
	H0	H	0.396295	0.842766	0.714820
	H1	H	0.592899	0.169862	0.714502
	H2	H	0.592778	0.842466	0.285711
	H3	H	0.398226	0.169548	0.287077
	H4	H	0.709250	0.406921	0.837759
	H5	H	0.710206	0.606142	0.163333
	H6	H	0.279619	0.603815	0.837287
	H7	H	0.279833	0.407218	0.163454
	H8	H	0.832247	0.719843	0.402773
	H9	H	0.158356	0.721378	0.598122
	H10	H	0.831886	0.292488	0.596692
	H11	H	0.158190	0.290810	0.401144
	H12	H	0.831590	0.408496	0.713257
	H13	H	0.158348	0.605295	0.715468
	H14	H	0.832232	0.603507	0.286047
	H15	H	0.157924	0.408257	0.285470
	H16	H	0.397498	0.719280	0.836592
	H17	H	0.591470	0.720240	0.164171
	H18	H	0.591547	0.292126	0.837118
	H19	H	0.397714	0.291776	0.164182
	H20	H	0.709945	0.842680	0.401167
	H21	H	0.710208	0.169233	0.599044
	H22	H	0.280061	0.842567	0.599003
	H23	H	0.281510	0.169603	0.403097
	H24	H	0.896350	0.342103	0.214265
	H25	H	0.092104	0.669316	0.214454
	H26	H	0.092392	0.342299	0.785734
	H27	H	0.897546	0.670003	0.786761
	H28	H	0.209944	0.907219	0.337631
	H29	H	0.210808	0.105892	0.663405
	H30	H	0.780849	0.103222	0.336454
	H31	H	0.779097	0.906873	0.662880
	H32	H	0.331874	0.219574	0.903672
	H33	H	0.658710	0.220522	0.097441
	H34	H	0.331580	0.792786	0.097321
	H35	H	0.657492	0.791067	0.902209
	H36	H	0.331658	0.908977	0.213911
	H37	H	0.657834	0.105140	0.215838
	H38	H	0.332726	0.105132	0.784767
	H39	H	0.657375	0.907933	0.785909
	H40	H	0.898648	0.218387	0.336354
	H41	H	0.091283	0.219331	0.664267
	H42	H	0.091717	0.792927	0.336690
	H43	H	0.897082	0.791833	0.663779
	H44	H	0.209172	0.342481	0.901325
	H45	H	0.209033	0.669570	0.099123
	H46	H	0.780155	0.342762	0.097645
	H47	H	0.780171	0.669458	0.902772
	H48	H	0.409363	0.120635	0.596537
	H49	H	0.583906	0.887976	0.604531
	H50	H	0.588420	0.123073	0.406476
	H51	H	0.399117	0.888691	0.406003
	H52	H	0.583137	0.412507	0.115674
	H53	H	0.593617	0.596381	0.883742
	H54	H	0.402471	0.601473	0.116055
	H55	H	0.403948	0.413047	0.885653
	H56	H	0.109664	0.595345	0.407604
	H57	H	0.884111	0.588897	0.590823
	H58	H	0.112649	0.412747	0.600880
	H59	H	0.880922	0.409221	0.413151
	H60	H	0.110337	0.406878	0.588601
	H61	H	0.876460	0.601594	0.603671
	H62	H	0.112646	0.600572	0.401611
	H63	H	0.881617	0.419484	0.405926
	H64	H	0.398708	0.599854	0.117161
	H65	H	0.583359	0.594804	0.887695
	H66	H	0.591769	0.409297	0.118577
	H67	H	0.400544	0.409363	0.883423
	H68	H	0.585727	0.120835	0.408675
	H69	H	0.581167	0.894349	0.584981
	H70	H	0.401450	0.119883	0.586103
	H71	H	0.403816	0.890011	0.406494
	H72	H	0.897126	0.620503	0.083469
	H73	H	0.089563	0.393357	0.076314
	H74	H	0.088319	0.620768	0.909963
	H75	H	0.899563	0.389603	0.907829
	H76	H	0.088411	0.918672	0.615125
	H77	H	0.099204	0.094111	0.383024
	H78	H	0.908557	0.100152	0.614370
	H79	H	0.902827	0.915592	0.385732
	H80	H	0.611095	0.102594	0.910584
	H81	H	0.379389	0.102491	0.092524
	H82	H	0.612175	0.908734	0.093252
	H83	H	0.379557	0.914181	0.907902
	H84	H	0.607894	0.916257	0.089934
	H85	H	0.381470	0.097510	0.093063
	H86	H	0.609036	0.095078	0.909600
	H87	H	0.378788	0.912753	0.905934
	H88	H	0.896985	0.105471	0.618927
	H89	H	0.081142	0.091601	0.388448
	H90	H	0.083895	0.909932	0.616215
	H91	H	0.902942	0.910289	0.384401
	H92	H	0.090637	0.623487	0.906618
	H93	H	0.101670	0.383169	0.101828
	H94	H	0.896018	0.626126	0.101336
	H95	H	0.899849	0.388594	0.904670
	H96	H	0.396975	0.124502	0.597173
	H97	H	0.599272	0.887114	0.590620
	H98	H	0.589372	0.121576	0.409902
	H99	H	0.400554	0.890038	0.410321
	H100	H	0.590643	0.418690	0.116440
	H101	H	0.586322	0.604433	0.884059
	H102	H	0.401914	0.597191	0.115707
	H103	H	0.399136	0.414317	0.884614
	H104	H	0.111272	0.603053	0.409471
	H105	H	0.880305	0.607258	0.585190
	H106	H	0.108182	0.420448	0.590059
	H107	H	0.877180	0.409177	0.401316
	H108	H	0.912393	0.619715	0.094213
	H109	H	0.072696	0.391108	0.101245
	H110	H	0.085939	0.621889	0.906026
	H111	H	0.902541	0.390709	0.905995
	H112	H	0.093077	0.910748	0.618285
	H113	H	0.086912	0.108671	0.382019
	H114	H	0.897169	0.092504	0.615154
	H115	H	0.898413	0.912860	0.383396
	H116	H	0.611333	0.099226	0.903563
	H117	H	0.378321	0.099371	0.097484
	H118	H	0.611214	0.915570	0.098358
	H119	H	0.378941	0.911868	0.907716
	C120	C	0.373639	0.013836	0.621962
	C121	C	0.616329	0.997824	0.621924
	C122	C	0.616591	0.014282	0.378909
	C123	C	0.373335	0.997748	0.379162
	C124	C	0.616101	0.384908	0.008890
	C125	C	0.616114	0.627549	0.992438
	C126	C	0.373128	0.627340	0.008313
	C127	C	0.373046	0.384125	0.992516
	C128	C	0.003474	0.627769	0.378223
	C129	C	0.987611	0.628211	0.622204
	C130	C	0.003114	0.384796	0.621379
	C131	C	0.987073	0.383605	0.377866
	C132	C	0.873390	0.514189	0.121510
	C133	C	0.116455	0.497635	0.121801
	C134	C	0.116490	0.513900	0.878640
	C135	C	0.873047	0.497906	0.878441
	C136	C	0.116533	0.885201	0.508658
	C137	C	0.116794	0.127187	0.492380
	C138	C	0.873038	0.127191	0.507935
	C139	C	0.872949	0.884184	0.492267
	C140	C	0.503093	0.127375	0.879265
	C141	C	0.487185	0.128139	0.122594
	C142	C	0.503024	0.884921	0.121845
	C143	C	0.486539	0.884113	0.878632
	C144	C	0.376067	0.891364	0.676795
	C145	C	0.613528	0.120847	0.676871
	C146	C	0.613709	0.891283	0.323329
	C147	C	0.376836	0.120844	0.324686
	C148	C	0.671315	0.386608	0.886348
	C149	C	0.671782	0.626142	0.114856
	C150	C	0.317766	0.624504	0.885833
	C151	C	0.317734	0.386411	0.114859
	C152	C	0.880809	0.682071	0.381952
	C153	C	0.109983	0.683351	0.619181
	C154	C	0.880397	0.330011	0.617977
	C155	C	0.109611	0.328550	0.380567
	C156	C	0.880365	0.387568	0.675880
	C157	C	0.109752	0.626053	0.677711
	C158	C	0.880754	0.624306	0.323857
	C159	C	0.109441	0.386474	0.322723
	C160	C	0.376440	0.681789	0.885366
	C161	C	0.613000	0.682761	0.115402
	C162	C	0.612905	0.329510	0.886066
	C163	C	0.375921	0.329029	0.115308
	C164	C	0.671570	0.891250	0.380845
	C165	C	0.671606	0.120633	0.619428
	C166	C	0.318130	0.891392	0.619345
	C167	C	0.318669	0.120588	0.381949
	C168	C	0.876179	0.390840	0.176166
	C169	C	0.113165	0.620650	0.176593
	C170	C	0.113009	0.391024	0.823732
	C171	C	0.876482	0.621032	0.824339
	C172	C	0.171661	0.887117	0.386008
	C173	C	0.172044	0.125587	0.614977
	C174	C	0.818534	0.124056	0.385257
	C175	C	0.817253	0.886315	0.614402
	C176	C	0.380705	0.182151	0.882254
	C177	C	0.609949	0.182969	0.118893
	C178	C	0.380226	0.830307	0.118361
	C179	C	0.609046	0.829272	0.881601
	C180	C	0.380328	0.887955	0.176322
	C181	C	0.609571	0.125608	0.177531
	C182	C	0.381081	0.125041	0.823556
	C183	C	0.609033	0.887044	0.823787
	C184	C	0.877224	0.180979	0.385073
	C185	C	0.113170	0.182330	0.615306
	C186	C	0.113147	0.830141	0.385464
	C187	C	0.876008	0.829379	0.614950
	C188	C	0.171068	0.391208	0.881187
	C189	C	0.171238	0.620533	0.119303
	C190	C	0.818491	0.391081	0.118374
	C191	C	0.817884	0.620623	0.881536
	C192	C	0.396091	0.099757	0.599718
	C193	C	0.594487	0.912015	0.600027
	C194	C	0.594374	0.099646	0.401550
	C195	C	0.395026	0.911832	0.400941
	C196	C	0.594816	0.407122	0.094702
	C197	C	0.594241	0.605094	0.907202
	C198	C	0.394844	0.605909	0.094197
	C199	C	0.394929	0.405779	0.906710
	C200	C	0.089198	0.606092	0.399753
	C201	C	0.902329	0.605813	0.600011
	C202	C	0.088311	0.406899	0.599566
	C203	C	0.901879	0.405867	0.400297
	C204	C	0.895491	0.599780	0.099609
	C205	C	0.094468	0.411263	0.099518
	C206	C	0.094577	0.600038	0.900879
	C207	C	0.894398	0.411881	0.899916
	C208	C	0.095010	0.906783	0.594204
	C209	C	0.095208	0.104849	0.406701
	C210	C	0.894535	0.105616	0.594105
	C211	C	0.895160	0.906248	0.406509
	C212	C	0.588485	0.105335	0.901228
	C213	C	0.401753	0.106162	0.100807
	C214	C	0.588309	0.906906	0.100260
	C215	C	0.401214	0.906306	0.900771
	Zn216	Zn	0.495025	0.005994	0.750507
	Zn217	Zn	0.495023	0.005914	0.251002
	Zn218	Zn	0.744666	0.505971	0.000719
	Zn219	Zn	0.244546	0.505634	0.000498
	Zn220	Zn	-0.004730	0.756575	0.500401
	Zn221	Zn	-0.004894	0.255626	0.500175
	Zn222	Zn	-0.005025	0.505937	0.750340
	Zn223	Zn	-0.005019	0.505460	0.249849
	Zn224	Zn	0.494974	0.755978	0.000312
	Zn225	Zn	0.494870	0.256647	0.000709
	Zn226	Zn	0.744745	0.005660	0.500065
	Zn227	Zn	0.245377	0.005989	0.500499
	N228	N	0.409782	0.968625	0.678576
	N229	N	0.579728	0.043539	0.678365
	N230	N	0.580524	0.968684	0.321804
	N231	N	0.410294	0.043425	0.323011
	N232	N	0.673356	0.420300	0.963677
	N233	N	0.673933	0.592395	0.037586
	N234	N	0.315797	0.591404	0.963196
	N235	N	0.316097	0.419974	0.037609
	N236	N	0.958014	0.684438	0.415067
	N237	N	0.033005	0.684836	0.585386
	N238	N	0.957558	0.328283	0.584620
	N239	N	0.032510	0.326719	0.414212
	N240	N	0.957515	0.420938	0.678124
	N241	N	0.032653	0.592303	0.679460
	N242	N	0.957973	0.591217	0.321561
	N243	N	0.032559	0.420107	0.321136
	N244	N	0.410080	0.683705	0.962563
	N245	N	0.579007	0.683634	0.038448
	N246	N	0.579321	0.328366	0.963187
	N247	N	0.409608	0.327661	0.038118
	N248	N	0.673330	0.968517	0.414838
	N249	N	0.673729	0.043197	0.586110
	N250	N	0.316628	0.968811	0.585937
	N251	N	0.316624	0.043200	0.415079
	N252	N	0.909691	0.468296	0.177963
	N253	N	0.079790	0.543131	0.178051
	N254	N	0.079609	0.468459	0.822321
	N255	N	0.909952	0.543763	0.822295
	N256	N	0.173806	0.920605	0.463267
	N257	N	0.174445	0.092143	0.537649
	N258	N	0.816023	0.091363	0.462872
	N259	N	0.815490	0.919651	0.537108
	N260	N	0.457468	0.183508	0.916430
	N261	N	0.532813	0.184667	0.085608
	N262	N	0.457469	0.828010	0.085345
	N263	N	0.531938	0.827388	0.914857
	N264	N	0.457424	0.921328	0.178461
	N265	N	0.532392	0.092395	0.179928
	N266	N	0.458281	0.091871	0.821684
	N267	N	0.531861	0.920326	0.821764
	N268	N	0.910239	0.183185	0.462546
	N269	N	0.079553	0.183492	0.538043
	N270	N	0.079584	0.828813	0.462568
	N271	N	0.909536	0.827760	0.537711
	N272	N	0.173200	0.468773	0.914492
	N273	N	0.172975	0.542903	0.085917
	N274	N	0.816557	0.468449	0.085094
	N275	N	0.815926	0.543146	0.914686
	O276	O	1.558290	-0.464373	0.544233
	H277	H	1.562632	-0.469327	0.541179
	H278	H	1.553168	-0.481020	0.549083
	O279	O	0.577610	0.522295	0.503686
	H280	H	0.582490	0.538945	0.506810
	H281	H	0.573442	0.529273	0.510794
	O282	O	0.566851	0.464443	0.527017
	H283	H	0.575546	0.457705	0.534285
	H284	H	0.566682	0.460565	0.508096
	O285	O	0.576998	0.521573	0.520124
	H286	H	0.575490	0.527259	0.514933
	H287	H	0.576605	0.528967	0.525154
