data_Molecule from HDF5

_cell_length_a		16.779525
_cell_length_b		16.733275
_cell_length_c		16.706497
_cell_angle_alpha	89.981421
_cell_angle_beta	90.224591
_cell_angle_gamma	89.876254
_symmetry_space_group_name_H-M	'P 1'
_symmetry_Int_Tables_number		1

loop_
	_symmetry_equiv_pos_as_xyz
	x,y,z

loop_
	_atom_site_label
	_atom_site_type_symbol
	_atom_site_fract_x
	_atom_site_fract_y
	_atom_site_fract_z
	H0	H	0.386834	0.847167	0.710681
	H1	H	0.602654	0.150651	0.721021
	H2	H	0.596879	0.848138	0.270406
	H3	H	0.381804	0.152766	0.267636
	H4	H	0.710052	0.394277	0.837807
	H5	H	0.707600	0.603815	0.147132
	H6	H	0.263743	0.609107	0.839490
	H7	H	0.265125	0.391678	0.143557
	H8	H	0.838381	0.728472	0.379865
	H9	H	0.137648	0.728485	0.605473
	H10	H	0.833776	0.284351	0.590100
	H11	H	0.143494	0.279891	0.385972
	H12	H	0.832528	0.400204	0.705871
	H13	H	0.138312	0.611633	0.719939
	H14	H	0.837080	0.611420	0.265842
	H15	H	0.142555	0.395763	0.270467
	H16	H	0.382103	0.721882	0.837923
	H17	H	0.591164	0.718595	0.147484
	H18	H	0.596177	0.277527	0.838689
	H19	H	0.380108	0.274848	0.142258
	H20	H	0.715135	0.850768	0.383068
	H21	H	0.716369	0.151541	0.604868
	H22	H	0.269841	0.847878	0.595927
	H23	H	0.265678	0.153658	0.382727
	H24	H	0.881218	0.348286	0.214854
	H25	H	0.094462	0.654676	0.213165
	H26	H	0.097051	0.347175	0.768259
	H27	H	0.882703	0.653824	0.769629
	H28	H	0.212182	0.891706	0.340005
	H29	H	0.208201	0.103489	0.646385
	H30	H	0.765621	0.107741	0.340382
	H31	H	0.754895	0.881441	0.635798
	H32	H	0.342135	0.232490	0.874505
	H33	H	0.639001	0.226841	0.102058
	H34	H	0.339228	0.773958	0.103553
	H35	H	0.642484	0.780186	0.887783
	H36	H	0.339128	0.889061	0.218411
	H37	H	0.640372	0.108589	0.216231
	H38	H	0.338638	0.112839	0.764004
	H39	H	0.641030	0.893924	0.770872
	H40	H	0.883776	0.220937	0.338562
	H41	H	0.092196	0.218845	0.646479
	H42	H	0.095788	0.777273	0.340081
	H43	H	0.867974	0.765736	0.635177
	H44	H	0.214818	0.349191	0.881646
	H45	H	0.211629	0.653394	0.099842
	H46	H	0.764778	0.349119	0.100443
	H47	H	0.769045	0.655480	0.886502
	H48	H	0.399165	0.114074	0.580386
	H49	H	0.566170	0.900286	0.567363
	H50	H	0.577613	0.112522	0.403841
	H51	H	0.395471	0.889918	0.406997
	H52	H	0.569930	0.413588	0.098676
	H53	H	0.576378	0.593478	0.879088
	H54	H	0.407467	0.587274	0.099172
	H55	H	0.400349	0.420014	0.882512
	H56	H	0.094662	0.585260	0.410329
	H57	H	0.878150	0.588618	0.581110
	H58	H	0.100223	0.411466	0.581444
	H59	H	0.880179	0.417570	0.400428
	H60	H	0.100987	0.410057	0.584397
	H61	H	0.882302	0.588066	0.571415
	H62	H	0.097529	0.584562	0.400914
	H63	H	0.875053	0.406259	0.396244
	H64	H	0.398510	0.597069	0.105215
	H65	H	0.582539	0.594070	0.877596
	H66	H	0.580243	0.407800	0.103698
	H67	H	0.406806	0.418672	0.886622
	H68	H	0.574048	0.110701	0.403523
	H69	H	0.584995	0.890423	0.573878
	H70	H	0.402665	0.112334	0.579927
	H71	H	0.400043	0.888248	0.398117
	H72	H	0.898818	0.610299	0.076863
	H73	H	0.078457	0.391243	0.077055
	H74	H	0.071009	0.610174	0.899318
	H75	H	0.893449	0.387097	0.897945
	H76	H	0.083216	0.911760	0.604984
	H77	H	0.078802	0.094911	0.378317
	H78	H	0.903892	0.093175	0.604370
	H79	H	0.912834	0.921754	0.388982
	H80	H	0.598348	0.085721	0.902781
	H81	H	0.379076	0.089114	0.078352
	H82	H	0.600616	0.913541	0.087052
	H83	H	0.378607	0.911007	0.905078
	H84	H	0.600321	0.904193	0.079714
	H85	H	0.381744	0.087636	0.072612
	H86	H	0.596922	0.089566	0.911329
	H87	H	0.378677	0.914432	0.901471
	H88	H	0.898902	0.091008	0.605866
	H89	H	0.082148	0.089749	0.377814
	H90	H	0.077852	0.920549	0.599500
	H91	H	0.906382	0.912967	0.383107
	H92	H	0.068447	0.602949	0.911207
	H93	H	0.079436	0.388766	0.082626
	H94	H	0.896388	0.612089	0.080146
	H95	H	0.900673	0.389412	0.898216
	H96	H	0.399642	0.112117	0.577140
	H97	H	0.567810	0.892196	0.588107
	H98	H	0.575632	0.110655	0.406777
	H99	H	0.405536	0.892710	0.405516
	H100	H	0.581304	0.419982	0.100770
	H101	H	0.580227	0.588879	0.880401
	H102	H	0.393917	0.583641	0.102198
	H103	H	0.403549	0.413712	0.882297
	H104	H	0.098251	0.592957	0.405632
	H105	H	0.882381	0.579201	0.578064
	H106	H	0.100796	0.408395	0.581642
	H107	H	0.879821	0.406991	0.407453
	H108	H	0.900993	0.610681	0.081183
	H109	H	0.074239	0.392653	0.081430
	H110	H	0.081135	0.609733	0.909956
	H111	H	0.896280	0.389539	0.904500
	H112	H	0.072078	0.910681	0.601494
	H113	H	0.076666	0.089296	0.380691
	H114	H	0.902761	0.087987	0.602263
	H115	H	0.901409	0.924254	0.385708
	H116	H	0.592924	0.081461	0.909164
	H117	H	0.381471	0.083479	0.077373
	H118	H	0.596447	0.914777	0.076058
	H119	H	0.376856	0.910109	0.900684
	C120	C	0.369148	0.010450	0.611572
	C121	C	0.610137	0.992890	0.613260
	C122	C	0.609938	0.010326	0.371128
	C123	C	0.367555	0.991775	0.369773
	C124	C	0.609518	0.380772	-0.000394
	C125	C	0.610128	0.622264	0.982513
	C126	C	0.367104	0.621978	0.000472
	C127	C	0.368560	0.381000	0.983323
	C128	C	-0.003199	0.622124	0.370773
	C129	C	0.979892	0.621994	0.613333
	C130	C	-0.002205	0.379947	0.611972
	C131	C	0.980610	0.378986	0.369667
	C132	C	0.866782	0.509442	0.112569
	C133	C	0.110076	0.492334	0.112980
	C134	C	0.108766	0.507789	0.871515
	C135	C	0.866322	0.491534	0.869762
	C136	C	0.110456	0.880084	0.500889
	C137	C	0.110883	0.122376	0.481941
	C138	C	0.867961	0.122840	0.502095
	C139	C	0.868383	0.880684	0.483015
	C140	C	0.497589	0.122014	0.870411
	C141	C	0.480580	0.121429	0.111583
	C142	C	0.498354	0.878051	0.114186
	C143	C	0.480004	0.879669	0.870992
	C144	C	0.367968	0.893871	0.671127
	C145	C	0.618006	0.105594	0.678687
	C146	C	0.614494	0.894996	0.310207
	C147	C	0.364032	0.106974	0.308309
	C148	C	0.670210	0.376672	0.884161
	C149	C	0.668275	0.622648	0.100182
	C150	C	0.305435	0.625985	0.885192
	C151	C	0.306026	0.374645	0.097530
	C152	C	0.883262	0.685910	0.364370
	C153	C	0.092330	0.686676	0.621259
	C154	C	0.880349	0.323255	0.609982
	C155	C	0.096882	0.319985	0.367891
	C156	C	0.879726	0.380873	0.667489
	C157	C	0.092922	0.628339	0.678050
	C158	C	0.882863	0.627991	0.307265
	C159	C	0.096381	0.377446	0.310231
	C160	C	0.364055	0.682216	0.884482
	C161	C	0.610263	0.679600	0.100371
	C162	C	0.613334	0.318803	0.884506
	C163	C	0.363303	0.316835	0.096936
	C164	C	0.672973	0.895960	0.366793
	C165	C	0.674927	0.105776	0.621076
	C166	C	0.310163	0.894158	0.613834
	C167	C	0.306361	0.107267	0.365412
	C168	C	0.863782	0.394564	0.174195
	C169	C	0.112574	0.608178	0.173292
	C170	C	0.114042	0.393462	0.809004
	C171	C	0.864913	0.607839	0.810201
	C172	C	0.171459	0.874929	0.385967
	C173	C	0.169289	0.122859	0.599355
	C174	C	0.806502	0.125409	0.386349
	C175	C	0.799062	0.868398	0.592151
	C176	C	0.386255	0.188847	0.860510
	C177	C	0.594036	0.184688	0.118041
	C178	C	0.384710	0.815134	0.119924
	C179	C	0.595694	0.819511	0.869133
	C180	C	0.384710	0.872717	0.177090
	C181	C	0.594620	0.126204	0.174893
	C182	C	0.384824	0.129627	0.805012
	C183	C	0.595193	0.876413	0.811122
	C184	C	0.865078	0.181587	0.385190
	C185	C	0.111634	0.180060	0.599348
	C186	C	0.113832	0.817751	0.386183
	C187	C	0.855718	0.810533	0.591775
	C188	C	0.172636	0.394180	0.865548
	C189	C	0.170628	0.607706	0.116643
	C190	C	0.805806	0.394735	0.117081
	C191	C	0.808115	0.608481	0.868126
	C192	C	0.393704	0.091751	0.586391
	C193	C	0.581315	0.914680	0.584517
	C194	C	0.583281	0.090516	0.397376
	C195	C	0.392971	0.911314	0.396055
	C196	C	0.584304	0.406450	0.079965
	C197	C	0.586444	0.598717	0.900380
	C198	C	0.392608	0.596550	0.081371
	C199	C	0.395872	0.409379	0.904150
	C200	C	0.076152	0.595187	0.398095
	C201	C	0.901319	0.593397	0.584766
	C202	C	0.079401	0.403324	0.589165
	C203	C	0.899502	0.403451	0.394312
	C204	C	0.891537	0.590027	0.086665
	C205	C	0.084711	0.411916	0.087482
	C206	C	0.081269	0.587071	0.899023
	C207	C	0.890159	0.409921	0.893645
	C208	C	0.084956	0.906730	0.581194
	C209	C	0.086430	0.098110	0.400261
	C210	C	0.894196	0.097824	0.582951
	C211	C	0.898352	0.911350	0.405956
	C212	C	0.575892	0.093541	0.899518
	C213	C	0.401440	0.094469	0.083940
	C214	C	0.578322	0.903638	0.088264
	C215	C	0.399253	0.904825	0.895575
	Zn216	Zn	0.489407	0.001212	0.741719
	Zn217	Zn	0.489095	0.000422	0.241535
	Zn218	Zn	0.738215	0.500911	-0.008700
	Zn219	Zn	0.238660	0.500711	-0.008075
	Zn220	Zn	-0.011432	0.751462	0.491831
	Zn221	Zn	-0.010278	0.250299	0.491230
	Zn222	Zn	-0.011849	0.500028	0.741972
	Zn223	Zn	-0.011197	0.501360	0.241230
	Zn224	Zn	0.488220	0.750416	-0.008267
	Zn225	Zn	0.489127	0.251270	-0.009061
	Zn226	Zn	0.739495	0.001825	0.492625
	Zn227	Zn	0.239328	0.001152	0.490829
	N228	N	0.403737	0.967520	0.670283
	N229	N	0.578067	0.034234	0.674091
	N230	N	0.575880	0.967231	0.312726
	N231	N	0.401377	0.034073	0.310620
	N232	N	0.668208	0.414423	0.956896
	N233	N	0.668738	0.588000	0.025592
	N234	N	0.307075	0.589321	0.958469
	N235	N	0.309229	0.414131	0.025826
	N236	N	0.955190	0.682455	0.403363
	N237	N	0.020779	0.683093	0.581637
	N238	N	0.954920	0.322096	0.576402
	N239	N	0.023655	0.320570	0.404185
	N240	N	0.953969	0.415087	0.669457
	N241	N	0.021593	0.588816	0.673601
	N242	N	0.954482	0.588616	0.311082
	N243	N	0.023032	0.413833	0.311265
	N244	N	0.401825	0.680074	0.957365
	N245	N	0.575021	0.679846	0.026063
	N246	N	0.576198	0.320935	0.957285
	N247	N	0.401479	0.320395	0.024709
	N248	N	0.670658	0.969037	0.403967
	N249	N	0.670296	0.034607	0.580860
	N250	N	0.310490	0.967916	0.577760
	N251	N	0.308124	0.034424	0.402952
	N252	N	0.901238	0.467114	0.171693
	N253	N	0.075386	0.535427	0.171343
	N254	N	0.074774	0.465201	0.812600
	N255	N	0.900313	0.534018	0.810764
	N256	N	0.169759	0.912988	0.458520
	N257	N	0.169318	0.087793	0.525035
	N258	N	0.807777	0.089932	0.460306
	N259	N	0.806980	0.911913	0.523621
	N260	N	0.457359	0.184285	0.900918
	N261	N	0.522039	0.181814	0.079313
	N262	N	0.456317	0.818231	0.081055
	N263	N	0.522799	0.821085	0.905657
	N264	N	0.456448	0.911408	0.173732
	N265	N	0.522806	0.087361	0.171161
	N266	N	0.455262	0.088761	0.810756
	N267	N	0.522132	0.913315	0.811920
	N268	N	0.902582	0.180434	0.458309
	N269	N	0.076225	0.180170	0.525165
	N270	N	0.076343	0.820625	0.458916
	N271	N	0.898692	0.818180	0.523003
	N272	N	0.169583	0.466512	0.903950
	N273	N	0.169413	0.534466	0.079807
	N274	N	0.807518	0.467338	0.079344
	N275	N	0.808416	0.534930	0.904416
	O276	O	0.115621	0.801330	0.106379
	H277	H	0.115243	0.817781	0.094572
	H278	H	0.105156	0.799401	0.088357
	O279	O	0.264676	0.291713	0.514576
	H280	H	0.252919	0.288269	0.508717
	H281	H	0.257406	0.286056	0.517623
	O282	O	0.802697	-0.009738	0.786138
	H283	H	0.776849	0.002140	0.788318
	H284	H	0.796205	0.013022	0.790549
	O285	O	0.707682	0.532076	0.713046
	H286	H	0.702904	0.571378	0.708167
	H287	H	0.730407	0.530225	0.744048
	O288	O	0.297749	0.689433	0.678649
	H289	H	0.316192	0.667778	0.665541
	H290	H	0.309826	0.672492	0.658149
	O291	O	0.377688	0.450292	0.466448
	H292	H	0.374164	0.439505	0.470652
	H293	H	0.381360	0.454365	0.450805
	O294	O	0.763367	0.219860	0.974092
	H295	H	0.749600	0.233180	0.957199
	H296	H	0.773829	0.226820	0.970668
	O297	O	0.650306	0.498202	0.274562
	H298	H	0.653525	0.492039	0.288699
	H299	H	0.666034	0.504741	0.260121
	O300	O	0.062805	0.055015	0.766337
	H301	H	0.056586	0.037237	0.763533
	H302	H	0.060635	0.030878	0.755075
	O303	O	0.584084	0.523010	0.521730
	H304	H	0.576448	0.527759	0.528940
	H305	H	0.590661	0.519290	0.527532
	O306	O	0.702976	0.276014	0.455224
	H307	H	0.692646	0.284209	0.475795
	H308	H	0.718292	0.247454	0.466097
	O309	O	0.418399	0.506060	0.624281
	H310	H	0.416399	0.490428	0.629404
	H311	H	0.405364	0.503385	0.615434
	O312	O	0.517381	0.614234	0.607605
	H313	H	0.500860	0.601016	0.614433
	H314	H	0.508447	0.614194	0.605239
	O315	O	1.025515	0.839632	1.042217
	H316	H	1.032805	0.835641	1.034942
	H317	H	1.014126	0.840472	1.046560
	O318	O	0.661592	0.674728	0.294016
	H319	H	0.664919	0.670798	0.291100
	H320	H	0.663706	0.664694	0.309158
	O321	O	0.210826	0.796965	0.773849
	H322	H	0.238150	0.761504	0.742034
	H323	H	0.188675	0.805862	0.784854
	O324	O	0.943891	0.903971	0.195686
	H325	H	0.922263	0.906482	0.197507
	H326	H	0.941309	0.897945	0.197657
	O327	O	0.082608	0.211074	1.036615
	H328	H	0.083856	0.188331	1.019419
	H329	H	0.045721	0.215915	1.029772
	O330	O	0.536147	0.524054	0.647343
	H331	H	0.541817	0.531088	0.655021
	H332	H	0.538627	0.505944	0.640309
	O333	O	0.445651	0.306555	0.701383
	H334	H	0.407025	0.310509	0.696042
	H335	H	0.442215	0.281520	0.718854
	O336	O	0.746504	0.236676	0.234496
	H337	H	0.727058	0.262719	0.261348
	H338	H	0.742612	0.241689	0.230236
	O339	O	0.973877	-0.201596	0.756959
	H340	H	0.982518	-0.205396	0.761423
	H341	H	0.982900	-0.210972	0.742056
	O342	O	-0.016024	-0.156241	0.223906
	H343	H	-0.027495	-0.174190	0.231435
	H344	H	-0.030616	-0.165307	0.221867
	O345	O	-0.052833	0.934044	0.986721
	H346	H	-0.057752	0.935808	0.980225
	H347	H	-0.052077	0.938835	0.996165
	O348	O	0.481340	0.395301	0.340585
	H349	H	0.483820	0.410680	0.352909
	H350	H	0.477761	0.395804	0.339592
	O351	O	0.520011	0.725647	0.394560
	H352	H	0.514807	0.727409	0.387002
	H353	H	0.518822	0.719063	0.403475
	O354	O	0.233869	-0.045271	1.044516
	H355	H	0.239444	-0.072577	1.045214
	H356	H	0.238942	-0.045079	1.082183
	O357	O	0.292203	0.590286	0.535500
	H358	H	0.288069	0.592754	0.524052
	H359	H	0.290553	0.584308	0.539848
	O360	O	0.281172	0.293094	0.691874
	H361	H	0.273181	0.301338	0.655477
	H362	H	0.248857	0.261384	0.723361
	O363	O	-0.123885	0.142789	0.014253
	H364	H	-0.120852	0.140032	0.012140
	H365	H	-0.128311	0.147284	0.005337
	O366	O	0.378516	0.439247	0.439234
	H367	H	0.378691	0.445827	0.441480
	H368	H	0.376030	0.430877	0.426118
	O369	O	0.857688	0.216681	0.118980
	H370	H	0.842799	0.236093	0.140322
	H371	H	0.871000	0.214416	0.106875
	O372	O	0.761856	0.774316	0.034624
	H373	H	0.746877	0.754418	0.052892
	H374	H	0.763325	0.762267	0.029916
	O375	O	0.963160	0.045520	0.219132
	H376	H	0.965671	0.057550	0.205100
	H377	H	0.963454	0.033998	0.209761
	O378	O	0.712368	0.464206	0.517128
	H379	H	0.719395	0.480290	0.535849
	H380	H	0.701719	0.483554	0.508196
	O381	O	0.074437	0.807023	0.876893
	H382	H	0.081891	0.819419	0.872118
	H383	H	0.063460	0.827869	0.870512
	O384	O	0.962484	-0.011505	0.900841
	H385	H	0.969803	-0.003661	0.898937
	H386	H	0.968963	-0.000864	0.907676
	O387	O	1.065273	0.980784	0.175517
	H388	H	1.082930	0.978380	0.177779
	H389	H	1.046376	0.969570	0.173052
	O390	O	0.506669	0.285834	0.271293
	H391	H	0.513968	0.282724	0.266023
	H392	H	0.495970	0.275063	0.263056
	O393	O	0.696662	0.683787	0.506653
	H394	H	0.709472	0.704020	0.527020
	H395	H	0.690906	0.680565	0.517861
	O396	O	0.220358	0.968047	0.769911
	H397	H	0.253307	0.967689	0.736426
	H398	H	0.222609	0.947680	0.791799
	O399	O	-0.053996	-0.056307	0.742089
	H400	H	-0.073468	-0.064362	0.746322
	H401	H	-0.077266	-0.065308	0.745676
	O402	O	0.422560	0.506287	0.434186
	H403	H	0.418394	0.507854	0.437189
	H404	H	0.431059	0.502334	0.430989
	O405	O	1.012601	0.024161	1.015267
	H406	H	1.034010	0.024545	1.014161
	H407	H	1.003670	0.013993	1.023087
	O408	O	0.220468	0.214705	0.003837
	H409	H	0.201583	0.213574	0.005801
	H410	H	0.244325	0.229231	0.006891
	O411	O	0.691574	0.702883	0.699427
	H412	H	0.663988	0.703715	0.687965
	H413	H	0.719536	0.737636	0.727974
	O414	O	0.774263	0.230983	0.766204
	H415	H	0.768055	0.223026	0.771780
	H416	H	0.756564	0.246325	0.749397
	O417	O	0.511780	0.494620	0.324303
	H418	H	0.510808	0.513431	0.324384
	H419	H	0.516359	0.502069	0.328665
	O420	O	0.499647	0.610045	0.415928
	H421	H	0.498912	0.616441	0.435317
	H422	H	0.502784	0.614100	0.399937
	O423	O	-0.056558	0.214701	0.779906
	H424	H	-0.071368	0.230748	0.763345
	H425	H	-0.064634	0.217871	0.769752
	O426	O	0.258685	0.718623	0.467569
	H427	H	0.252155	0.736363	0.468172
	H428	H	0.261273	0.730115	0.458552
	O429	O	0.906840	0.785378	0.930183
	H430	H	0.905024	0.792613	0.940755
	H431	H	0.912523	0.791207	0.928828
	O432	O	0.484446	0.708380	0.662513
	H433	H	0.489567	0.690649	0.664653
	H434	H	0.494633	0.712563	0.668279
	O435	O	0.228171	0.758420	0.235363
	H436	H	0.244789	0.742124	0.242244
	H437	H	0.222603	0.776284	0.207722
	O438	O	0.217137	0.011590	0.208215
	H439	H	0.208707	0.019348	0.224671
	H440	H	0.210088	0.011680	0.231787
	O441	O	0.003785	0.221145	0.215716
	H442	H	0.017670	0.223280	0.224554
	H443	H	0.013500	0.237075	0.222938
	O444	O	0.430740	0.269492	0.440448
	H445	H	0.424143	0.286169	0.441167
	H446	H	0.421008	0.268525	0.434213
	O447	O	0.226460	1.051347	0.917861
	H448	H	0.234375	1.039406	0.907144
	H449	H	0.227514	1.041151	0.945949
	O450	O	0.224286	0.777252	0.975929
	H451	H	0.240686	0.750247	0.958491
	H452	H	0.209551	0.769709	0.951399
	O453	O	0.546319	0.450226	0.724533
	H454	H	0.550455	0.432031	0.720990
	H455	H	0.555544	0.444159	0.730035
	O456	O	0.187074	0.196872	0.793677
	H457	H	0.149145	0.174466	0.794635
	H458	H	0.193553	0.180219	0.833034
	O459	O	0.770465	0.960717	0.214288
	H460	H	0.780408	0.979455	0.231832
	H461	H	0.766634	0.976708	0.223829
	O462	O	0.727399	0.518810	0.389238
	H463	H	0.739302	0.530743	0.381001
	H464	H	0.727620	0.508304	0.394362
	O465	O	0.761580	-0.062384	-0.032234
	H466	H	0.755191	-0.046634	-0.010375
	H467	H	0.755419	-0.084984	-0.015603
	O468	O	0.261686	0.523798	0.271702
	H469	H	0.247246	0.528090	0.244737
	H470	H	0.268673	0.550079	0.262531
	O471	O	0.670097	0.319304	0.670826
	H472	H	0.641792	0.323948	0.655074
	H473	H	0.662838	0.342839	0.649132
	O474	O	0.346603	0.697759	0.300295
	H475	H	0.365548	0.696131	0.311293
	H476	H	0.341097	0.698289	0.302669
	O477	O	0.648450	0.396046	1.306607
	H478	H	0.647866	0.389119	1.348177
	H479	H	0.645952	0.408161	1.301570
	O480	O	0.539565	0.268017	0.591554
	H481	H	0.520150	0.265101	0.605521
	H482	H	0.512509	0.268688	0.585527
	O483	O	0.787578	0.797930	0.785273
	H484	H	0.805101	0.819537	0.800687
	H485	H	0.803880	0.814513	0.800531
	O486	O	0.992590	0.162046	0.895646
	H487	H	0.977448	0.172874	0.883436
	H488	H	1.011609	0.149123	0.888780
	O489	O	0.852724	1.100921	0.058491
	H490	H	0.854139	1.106127	0.070061
	H491	H	0.847062	1.116146	0.065788
	O492	O	0.281538	0.288272	0.286447
	H493	H	0.276337	0.281825	0.275388
	H494	H	0.294231	0.299354	0.273121
	O495	O	0.000495	0.058377	0.907962
	H496	H	0.002815	0.070447	0.903243
	H497	H	-0.002380	0.055087	0.910299
	O498	O	0.808028	1.089136	0.889594
	H499	H	0.806714	1.095793	0.899205
	H500	H	0.832446	1.090041	0.903538
	O501	O	0.423185	0.564871	0.416381
	H502	H	0.432400	0.569159	0.411290
	H503	H	0.423187	0.553878	0.410993
	O504	O	0.268275	0.480007	0.710665
	H505	H	0.265497	0.460190	0.712430
	H506	H	0.261220	0.471963	0.725875
	O507	O	0.382610	0.647562	0.506316
	H508	H	0.393415	0.642021	0.501981
	H509	H	0.374852	0.645430	0.519256
	O510	O	0.197061	0.182095	0.183310
	H511	H	0.188312	0.176674	0.158153
	H512	H	0.194557	0.167320	0.180556
	O513	O	0.781411	0.795324	0.198272
	H514	H	0.774792	0.780102	0.190589
	H515	H	0.776345	0.848044	0.206556
