data_Molecule from HDF5

_cell_length_a		16.359551
_cell_length_b		16.409053
_cell_length_c		16.345860
_cell_angle_alpha	90.186845
_cell_angle_beta	90.086618
_cell_angle_gamma	89.948529
_symmetry_space_group_name_H-M	'P 1'
_symmetry_Int_Tables_number		1

loop_
	_symmetry_equiv_pos_as_xyz
	x,y,z

loop_
	_atom_site_label
	_atom_site_type_symbol
	_atom_site_fract_x
	_atom_site_fract_y
	_atom_site_fract_z
	H0	H	0.370923	0.831288	0.739521
	H1	H	0.583624	0.148991	0.738925
	H2	H	0.578262	0.828315	0.297785
	H3	H	0.375815	0.151083	0.301357
	H4	H	0.701251	0.382849	0.858922
	H5	H	0.697723	0.596159	0.177885
	H6	H	0.258158	0.593727	0.856824
	H7	H	0.260258	0.389360	0.178992
	H8	H	0.819227	0.710455	0.413573
	H9	H	0.139954	0.708514	0.621869
	H10	H	0.818645	0.269307	0.623260
	H11	H	0.137806	0.269087	0.414776
	H12	H	0.818990	0.384980	0.738761
	H13	H	0.140477	0.591350	0.736113
	H14	H	0.817885	0.592918	0.298944
	H15	H	0.138408	0.385966	0.298935
	H16	H	0.369893	0.712423	0.858265
	H17	H	0.580233	0.710376	0.177618
	H18	H	0.584537	0.268089	0.858541
	H19	H	0.373727	0.271103	0.177995
	H20	H	0.696636	0.828262	0.413062
	H21	H	0.699460	0.148037	0.623505
	H22	H	0.259536	0.828359	0.618622
	H23	H	0.256062	0.148637	0.412857
	H24	H	0.877567	0.329072	0.233633
	H25	H	0.081243	0.650415	0.238127
	H26	H	0.083325	0.329084	0.799324
	H27	H	0.876837	0.649637	0.798805
	H28	H	0.192425	0.889713	0.354886
	H29	H	0.196190	0.090592	0.679199
	H30	H	0.759968	0.090272	0.357010
	H31	H	0.759250	0.885157	0.679115
	H32	H	0.317560	0.210025	0.914090
	H33	H	0.639679	0.206756	0.118991
	H34	H	0.316150	0.772369	0.119309
	H35	H	0.637740	0.769549	0.912850
	H36	H	0.314926	0.890519	0.233410
	H37	H	0.638510	0.091788	0.236320
	H38	H	0.317021	0.093586	0.797955
	H39	H	0.639001	0.887607	0.799134
	H40	H	0.873781	0.208488	0.358062
	H41	H	0.080405	0.206868	0.679617
	H42	H	0.081287	0.769738	0.356997
	H43	H	0.876722	0.770829	0.679265
	H44	H	0.198543	0.329835	0.915066
	H45	H	0.196643	0.651350	0.120755
	H46	H	0.760486	0.330340	0.119346
	H47	H	0.758873	0.649521	0.913280
	H48	H	0.389911	0.102108	0.607810
	H49	H	0.565411	0.877954	0.602137
	H50	H	0.564990	0.101535	0.427550
	H51	H	0.392330	0.878765	0.430296
	H52	H	0.572141	0.400791	0.132939
	H53	H	0.571505	0.581871	0.901890
	H54	H	0.384837	0.584353	0.134134
	H55	H	0.385866	0.394365	0.900449
	H56	H	0.092104	0.579016	0.429344
	H57	H	0.866681	0.577486	0.606358
	H58	H	0.091703	0.400171	0.606175
	H59	H	0.862777	0.396377	0.429412
	H60	H	0.093680	0.398265	0.611401
	H61	H	0.865102	0.578852	0.609548
	H62	H	0.091704	0.578446	0.428774
	H63	H	0.865608	0.401566	0.427749
	H64	H	0.387578	0.575812	0.129370
	H65	H	0.568696	0.575847	0.904812
	H66	H	0.567563	0.403115	0.130489
	H67	H	0.384908	0.405999	0.904468
	H68	H	0.570382	0.101887	0.430478
	H69	H	0.572251	0.874668	0.607606
	H70	H	0.387437	0.101567	0.603212
	H71	H	0.377551	0.873351	0.427702
	H72	H	0.877405	0.608163	0.108188
	H73	H	0.068839	0.376663	0.107893
	H74	H	0.066878	0.603124	0.926799
	H75	H	0.881418	0.374703	0.931654
	H76	H	0.066089	0.902801	0.630135
	H77	H	0.074326	0.074238	0.402230
	H78	H	0.884430	0.073851	0.632040
	H79	H	0.890210	0.897299	0.404259
	H80	H	0.595273	0.080290	0.917196
	H81	H	0.358265	0.091141	0.115140
	H82	H	0.591346	0.910865	0.117569
	H83	H	0.364743	0.900737	0.932248
	H84	H	0.595982	0.886566	0.111462
	H85	H	0.365303	0.084606	0.097751
	H86	H	0.592202	0.088921	0.935278
	H87	H	0.365640	0.906366	0.927331
	H88	H	0.894490	0.078241	0.630150
	H89	H	0.059722	0.076186	0.407700
	H90	H	0.067275	0.891837	0.633734
	H91	H	0.886273	0.898511	0.403479
	H92	H	0.068428	0.603112	0.929149
	H93	H	0.071127	0.376253	0.107132
	H94	H	0.892740	0.606432	0.118807
	H95	H	0.891179	0.374152	0.920423
	H96	H	0.384534	0.103734	0.607015
	H97	H	0.563468	0.875950	0.611039
	H98	H	0.569459	0.103760	0.425024
	H99	H	0.388792	0.872998	0.416122
	H100	H	0.567440	0.397725	0.131506
	H101	H	0.564181	0.581833	0.903784
	H102	H	0.394081	0.583655	0.129906
	H103	H	0.395302	0.400228	0.906028
	H104	H	0.092869	0.578845	0.428500
	H105	H	0.864766	0.581010	0.606600
	H106	H	0.093282	0.394825	0.606966
	H107	H	0.862554	0.397857	0.423719
	H108	H	0.893302	0.600153	0.100794
	H109	H	0.070493	0.375946	0.109223
	H110	H	0.069428	0.603903	0.926970
	H111	H	0.895528	0.379894	0.933396
	H112	H	0.076289	0.898920	0.634266
	H113	H	0.067069	0.088310	0.401601
	H114	H	0.886756	0.084011	0.634342
	H115	H	0.889660	0.901031	0.405673
	H116	H	0.586380	0.069301	0.931936
	H117	H	0.363884	0.072358	0.113092
	H118	H	0.586257	0.902547	0.094591
	H119	H	0.362688	0.899354	0.925333
	C120	C	0.355943	-0.002864	0.637835
	C121	C	0.599260	0.981374	0.639072
	C122	C	0.599077	-0.003237	0.395585
	C123	C	0.355195	0.981096	0.394621
	C124	C	0.600519	0.368613	0.026171
	C125	C	0.599260	0.611795	1.009243
	C126	C	0.356446	0.612102	0.025326
	C127	C	0.357176	0.369393	1.009704
	C128	C	-0.013455	0.610427	0.397317
	C129	C	0.971403	0.610313	0.639419
	C130	C	-0.012983	0.367109	0.639731
	C131	C	0.969813	0.367608	0.396806
	C132	C	0.857284	0.498892	0.139497
	C133	C	0.100546	0.482140	0.139649
	C134	C	0.100432	0.497925	0.896691
	C135	C	0.857783	0.481415	0.896474
	C136	C	0.099806	0.867529	0.525928
	C137	C	0.098634	0.110172	0.509862
	C138	C	0.856416	0.110482	0.526698
	C139	C	0.857404	0.867341	0.510310
	C140	C	0.485933	0.111692	0.896188
	C141	C	0.469294	0.112120	0.139158
	C142	C	0.484999	0.869377	0.138407
	C143	C	0.469876	0.869634	0.896298
	C144	C	0.353531	0.878161	0.698220
	C145	C	0.601630	0.101104	0.699055
	C146	C	0.598513	0.876714	0.336565
	C147	C	0.355481	0.102366	0.338651
	C148	C	0.660556	0.365705	0.906405
	C149	C	0.658104	0.613829	0.129728
	C150	C	0.296702	0.612831	0.905142
	C151	C	0.299115	0.369504	0.130600
	C152	C	0.866690	0.670584	0.394914
	C153	C	0.091799	0.668889	0.640537
	C154	C	0.866630	0.308638	0.641763
	C155	C	0.090136	0.308646	0.396025
	C156	C	0.866683	0.366660	0.698858
	C157	C	0.091930	0.610781	0.697835
	C158	C	0.866165	0.611922	0.338073
	C159	C	0.090525	0.366943	0.338622
	C160	C	0.352548	0.671913	0.905772
	C161	C	0.599717	0.671163	0.129513
	C162	C	0.602715	0.308041	0.906440
	C163	C	0.355731	0.310782	0.130184
	C164	C	0.657217	0.876347	0.394151
	C165	C	0.659542	0.100538	0.641671
	C166	C	0.297994	0.876664	0.638135
	C167	C	0.296235	0.101154	0.394286
	C168	C	0.857806	0.377616	0.195614
	C169	C	0.100308	0.602665	0.198414
	C170	C	0.101618	0.377152	0.838571
	C171	C	0.857303	0.601653	0.837795
	C172	C	0.155319	0.868749	0.403733
	C173	C	0.156771	0.109712	0.631324
	C174	C	0.798535	0.110023	0.405376
	C175	C	0.798560	0.866591	0.630846
	C176	C	0.365439	0.170593	0.894962
	C177	C	0.590941	0.168609	0.138933
	C178	C	0.364178	0.811508	0.138288
	C179	C	0.590051	0.809954	0.894775
	C180	C	0.363430	0.870299	0.195154
	C181	C	0.590634	0.111223	0.197015
	C182	C	0.365289	0.112561	0.837171
	C183	C	0.590668	0.868423	0.837890
	C184	C	0.854939	0.169246	0.406088
	C185	C	0.099284	0.167688	0.631477
	C186	C	0.100006	0.809210	0.404857
	C187	C	0.856841	0.809443	0.630955
	C188	C	0.159035	0.377558	0.896199
	C189	C	0.157772	0.603176	0.140143
	C190	C	0.799743	0.378135	0.138529
	C191	C	0.798890	0.601872	0.894973
	C192	C	0.380258	0.080694	0.612998
	C193	C	0.574266	0.897967	0.614064
	C194	C	0.575118	0.080731	0.420471
	C195	C	0.379265	0.896951	0.417960
	C196	C	0.576095	0.393556	0.109861
	C197	C	0.575141	0.587079	0.925231
	C198	C	0.381600	0.588071	0.109413
	C199	C	0.381651	0.393395	0.925504
	C200	C	0.070459	0.585888	0.421896
	C201	C	0.887290	0.586255	0.614439
	C202	C	0.070972	0.390969	0.615175
	C203	C	0.885570	0.391681	0.420230
	C204	C	0.880903	0.582880	0.116270
	C205	C	0.077094	0.398171	0.115183
	C206	C	0.075730	0.581661	0.920856
	C207	C	0.882112	0.398007	0.921185
	C208	C	0.076562	0.891033	0.610667
	C209	C	0.074198	0.086462	0.425728
	C210	C	0.881278	0.085838	0.610392
	C211	C	0.881792	0.891907	0.426267
	C212	C	0.569506	0.086802	0.920980
	C213	C	0.384709	0.089201	0.115644
	C214	C	0.569373	0.893124	0.114666
	C215	C	0.386177	0.894760	0.921118
	Zn216	Zn	0.477592	-0.010136	0.766936
	Zn217	Zn	0.476760	-0.009672	0.267036
	Zn218	Zn	0.728841	0.490701	0.017873
	Zn219	Zn	0.228639	0.490582	0.017537
	Zn220	Zn	-0.021072	0.739113	0.518554
	Zn221	Zn	-0.022215	0.239052	0.518585
	Zn222	Zn	-0.020548	0.488898	0.767972
	Zn223	Zn	-0.021402	0.489719	0.268193
	Zn224	Zn	0.476896	0.740384	0.016434
	Zn225	Zn	0.477989	0.240642	0.017580
	Zn226	Zn	0.728231	-0.011829	0.517836
	Zn227	Zn	0.227149	-0.010780	0.516920
	N228	N	0.389011	0.954080	0.697978
	N229	N	0.564559	0.026163	0.697232
	N230	N	0.563280	0.952792	0.337460
	N231	N	0.391419	0.026618	0.338726
	N232	N	0.659194	0.402962	0.981735
	N233	N	0.658053	0.577710	0.053643
	N234	N	0.299184	0.576360	0.980735
	N235	N	0.299838	0.405194	0.054571
	N236	N	0.942607	0.669709	0.431012
	N237	N	0.015657	0.668652	0.604852
	N238	N	0.942247	0.309087	0.605389
	N239	N	0.013863	0.308706	0.431253
	N240	N	0.942491	0.402424	0.697576
	N241	N	0.015867	0.575098	0.697288
	N242	N	0.941868	0.575591	0.339145
	N243	N	0.014697	0.402666	0.338731
	N244	N	0.389053	0.671503	0.981436
	N245	N	0.563655	0.670000	0.053570
	N246	N	0.565571	0.310092	0.981769
	N247	N	0.390981	0.310555	0.053887
	N248	N	0.657535	0.952031	0.430420
	N249	N	0.658013	0.025084	0.604683
	N250	N	0.299355	0.951818	0.601239
	N251	N	0.295873	0.024760	0.428468
	N252	N	0.892974	0.453673	0.196277
	N253	N	0.065619	0.526334	0.198371
	N254	N	0.065717	0.452839	0.838845
	N255	N	0.893008	0.525825	0.838654
	N256	N	0.155554	0.903943	0.480026
	N257	N	0.156580	0.074651	0.554705
	N258	N	0.799139	0.074277	0.481261
	N259	N	0.798604	0.901609	0.554420
	N260	N	0.441538	0.170274	0.930644
	N261	N	0.514498	0.169413	0.104010
	N262	N	0.440773	0.810857	0.103651
	N263	N	0.513779	0.810358	0.930066
	N264	N	0.439588	0.905480	0.195306
	N265	N	0.513939	0.076975	0.197459
	N266	N	0.441243	0.076607	0.837768
	N267	N	0.514888	0.904624	0.838640
	N268	N	0.890197	0.169515	0.482519
	N269	N	0.063771	0.168028	0.555218
	N270	N	0.066190	0.808278	0.481975
	N271	N	0.892551	0.809825	0.555052
	N272	N	0.158458	0.453663	0.931516
	N273	N	0.158196	0.527269	0.104441
	N274	N	0.799059	0.454617	0.104544
	N275	N	0.798912	0.526110	0.930639
	O276	O	0.316219	0.457196	0.708041
	H277	H	0.322577	0.442686	0.707298
	H278	H	0.309088	0.459318	0.711677
	O279	O	0.569190	0.403076	0.721033
	H280	H	0.578880	0.388737	0.752923
	H281	H	0.537559	0.397515	0.718260
	O282	O	0.972506	-0.099189	0.978261
	H283	H	0.979199	-0.102978	0.973445
	H284	H	0.986413	-0.085216	0.980450
	O285	O	1.078792	-0.086910	-0.061308
	H286	H	1.077821	-0.091702	-0.069258
	H287	H	1.097847	-0.097217	-0.062954
	O288	O	1.018801	1.003762	1.037203
	H289	H	1.013739	1.003726	1.046128
	H290	H	1.021285	0.999619	1.044712
	O291	O	0.675616	1.362961	0.582256
	H292	H	0.691520	1.353726	0.588392
	H293	H	0.684663	1.377949	0.591593
	O294	O	0.606017	0.336640	0.492505
	H295	H	0.626670	0.333109	0.473526
	H296	H	0.606870	0.330229	0.476468
	O297	O	0.622134	0.454741	0.624438
	H298	H	0.621466	0.478551	0.632253
	H299	H	0.605251	0.468626	0.637548
	O300	O	0.855325	0.020281	0.051845
	H301	H	0.854417	0.008740	0.049295
	H302	H	0.852019	0.009430	0.047831
	O303	O	0.326376	0.339159	0.599279
	H304	H	0.326277	0.343185	0.592664
	H305	H	0.336059	0.335634	0.591347
	O306	O	0.771734	1.221118	0.860470
	H307	H	0.781430	1.234992	0.874033
	H308	H	0.781266	1.219957	0.856328
	O309	O	0.419799	0.362836	0.691381
	H310	H	0.420251	0.369087	0.676259
	H311	H	0.428484	0.346746	0.708198
	O312	O	0.641021	0.682553	0.468911
	H313	H	0.657116	0.682407	0.481633
	H314	H	0.625157	0.665463	0.449910
	O315	O	0.472445	0.464269	0.607069
	H316	H	0.470946	0.471096	0.609941
	H317	H	0.462357	0.472124	0.616161
	O318	O	-0.056756	0.828879	1.067635
	H319	H	-0.049437	0.833290	1.069875
	H320	H	-0.052591	0.817247	1.069952
	O321	O	0.473657	0.436097	0.540274
	H322	H	0.466278	0.444045	0.546808
	H323	H	0.468844	0.431982	0.557726
	O324	O	0.657760	0.299918	-0.664965
	H325	H	0.656821	0.287982	-0.648118
	H326	H	0.667568	0.335151	-0.665958
	O327	O	0.074932	0.988213	0.106889
	H328	H	0.083142	0.978117	0.103740
	H329	H	0.078535	0.990806	0.101324
	O330	O	-0.011291	0.000199	1.082818
	H331	H	-0.017049	-0.007399	1.070075
	H332	H	-0.016634	0.013637	1.075784
	O333	O	0.036998	0.023847	0.872511
	H334	H	0.028323	0.032099	0.884962
	H335	H	0.026982	0.020634	0.865470
	O336	O	0.333450	0.618286	0.465983
	H337	H	0.327073	0.615902	0.469720
	H338	H	0.332301	0.619912	0.478596
	O339	O	1.042457	-0.088408	0.096659
	H340	H	1.041981	-0.081282	0.105576
	H341	H	1.043570	-0.087938	0.091695
	O342	O	-0.108157	0.032436	0.043972
	H343	H	-0.104940	0.049391	0.037859
	H344	H	-0.127294	0.035073	0.041928
	O345	O	0.971912	-0.058219	0.893115
	H346	H	0.965021	-0.064143	0.881969
	H347	H	0.969134	-0.059819	0.893777
	O348	O	1.027950	1.050606	0.002065
	H349	H	1.037382	1.052676	0.014252
	H350	H	1.028507	1.067969	0.016227
	O351	O	0.487966	0.664874	0.368540
	H352	H	0.474707	0.656819	0.381280
	H353	H	0.490318	0.666620	0.365580
	O354	O	0.467659	0.285225	1.344097
	H355	H	0.486431	0.272355	1.343093
	H356	H	0.486943	0.280614	1.333689
	O357	O	0.677389	0.470909	0.343297
	H358	H	0.690394	0.476649	0.312317
	H359	H	0.659514	0.481200	0.355386
	O360	O	1.410689	-0.343783	-0.456614
	H361	H	1.410978	-0.345238	-0.454063
	H362	H	1.412480	-0.346163	-0.458335
	O363	O	-0.016477	1.152071	1.099133
	H364	H	-0.019934	1.162961	1.108866
	H365	H	-0.008755	1.151023	1.091076
	O366	O	0.472607	0.691949	0.658009
	H367	H	0.472085	0.709346	0.649990
	H368	H	0.493018	0.689205	0.666744
	O369	O	-0.580435	0.384309	-0.554292
	H370	H	-0.585572	0.372231	-0.546670
	H371	H	-0.581848	0.374176	-0.542514
	O372	O	0.463383	0.440701	0.368694
	H373	H	0.465600	0.432606	0.361767
	H374	H	0.464664	0.437867	0.364610
	O375	O	0.323320	0.592728	0.317378
	H376	H	0.309320	0.588877	0.294196
	H377	H	0.328960	0.603704	0.319972
	O378	O	1.416531	1.542521	-0.474307
	H379	H	1.428365	1.542737	-0.478351
	H380	H	1.424636	1.537487	-0.461377
	O381	O	0.828068	-0.037689	0.142347
	H382	H	0.813731	-0.052514	0.151438
	H383	H	0.817836	-0.027150	0.134320
	O384	O	0.979744	0.982974	-0.089576
	H385	H	0.974071	0.972712	-0.087017
	H386	H	0.977535	0.982624	-0.088641
	O387	O	0.415183	-0.552855	0.333185
	H388	H	0.412668	-0.549949	0.333185
	H389	H	0.402774	-0.540683	0.340287
	O390	O	0.668549	1.678835	-0.346659
	H391	H	0.685747	1.674677	-0.365004
	H392	H	0.667127	1.671109	-0.361783
	O393	O	0.899080	1.117151	1.057558
	H394	H	0.915804	1.107240	1.050048
	H395	H	0.901978	1.111525	1.076282
	O396	O	0.096818	-0.004161	0.052184
	H397	H	0.099831	0.010275	0.058521
	H398	H	0.103614	-0.014024	0.052532
	O399	O	-0.087376	0.948224	1.154855
	H400	H	-0.098591	0.951690	1.161265
	H401	H	-0.091198	0.933464	1.175843
	O402	O	0.510415	0.433917	0.640713
	H403	H	0.507326	0.420185	0.647348
	H404	H	0.498186	0.447805	0.648437
	O405	O	0.886266	0.974617	0.012973
	H406	H	0.882378	0.971004	0.006693
	H407	H	0.882736	0.971929	0.014274
	O408	O	1.670314	1.538795	-0.514934
	H409	H	1.657488	1.522241	-0.507124
	H410	H	1.663965	1.531671	-0.521825
	O411	O	1.095943	0.046243	1.068040
	H412	H	1.087424	0.043832	1.075076
	H413	H	1.094801	0.047743	1.066682
	O414	O	0.320883	0.463914	0.596079
	H415	H	0.334666	0.461101	0.595454
	H416	H	0.324221	0.452540	0.594070
	O417	O	0.283573	0.588652	0.454281
	H418	H	0.278435	0.596348	0.445020
	H419	H	0.275814	0.590197	0.442104
