data_Molecule from HDF5

_cell_length_a		16.271308
_cell_length_b		16.285532
_cell_length_c		16.392729
_cell_angle_alpha	89.538913
_cell_angle_beta	90.025851
_cell_angle_gamma	89.787870
_symmetry_space_group_name_H-M	'P 1'
_symmetry_Int_Tables_number		1

loop_
	_symmetry_equiv_pos_as_xyz
	x,y,z

loop_
	_atom_site_label
	_atom_site_type_symbol
	_atom_site_fract_x
	_atom_site_fract_y
	_atom_site_fract_z
	H0	H	0.402307	0.842144	0.723733
	H1	H	0.605900	0.165657	0.718835
	H2	H	0.609799	0.840364	0.286490
	H3	H	0.402066	0.163048	0.282341
	H4	H	0.721293	0.400726	0.842566
	H5	H	0.718428	0.599961	0.165605
	H6	H	0.283884	0.605990	0.842803
	H7	H	0.286320	0.398776	0.164675
	H8	H	0.841181	0.721724	0.403317
	H9	H	0.166702	0.715610	0.603168
	H10	H	0.841025	0.284008	0.607264
	H11	H	0.165047	0.286981	0.404279
	H12	H	0.841196	0.398138	0.722964
	H13	H	0.164709	0.602197	0.721196
	H14	H	0.839860	0.607053	0.287238
	H15	H	0.163117	0.398670	0.284692
	H16	H	0.399812	0.722908	0.843025
	H17	H	0.604861	0.718464	0.164969
	H18	H	0.604458	0.286163	0.841003
	H19	H	0.402329	0.283002	0.163481
	H20	H	0.721612	0.839897	0.405963
	H21	H	0.719568	0.166234	0.601719
	H22	H	0.288487	0.840058	0.606375
	H23	H	0.286785	0.164373	0.399698
	H24	H	0.898090	0.340999	0.224964
	H25	H	0.102772	0.664837	0.219687
	H26	H	0.105618	0.339917	0.787117
	H27	H	0.899272	0.663296	0.784684
	H28	H	0.222747	0.901506	0.342341
	H29	H	0.221634	0.101420	0.664670
	H30	H	0.787324	0.106581	0.342231
	H31	H	0.788807	0.903505	0.666033
	H32	H	0.340912	0.220194	0.900498
	H33	H	0.666314	0.216807	0.100302
	H34	H	0.341484	0.785898	0.105918
	H35	H	0.666198	0.786375	0.904365
	H36	H	0.344214	0.897046	0.225572
	H37	H	0.667327	0.102253	0.217349
	H38	H	0.342703	0.108935	0.782365
	H39	H	0.666918	0.903938	0.788418
	H40	H	0.903350	0.222339	0.343400
	H41	H	0.106160	0.218130	0.665274
	H42	H	0.105842	0.785557	0.341941
	H43	H	0.905008	0.786219	0.666081
	H44	H	0.219577	0.339450	0.904856
	H45	H	0.219639	0.664174	0.104495
	H46	H	0.787333	0.338554	0.104438
	H47	H	0.786381	0.664588	0.903529
	H48	H	0.408077	0.119649	0.594292
	H49	H	0.592931	0.886949	0.602516
	H50	H	0.596579	0.120390	0.403142
	H51	H	0.422761	0.889905	0.414812
	H52	H	0.587256	0.392604	0.120338
	H53	H	0.595718	0.594926	0.888916
	H54	H	0.410505	0.591496	0.118754
	H55	H	0.421666	0.414284	0.892452
	H56	H	0.116792	0.595113	0.418110
	H57	H	0.887595	0.593863	0.593469
	H58	H	0.116586	0.417747	0.598778
	H59	H	0.885005	0.409264	0.411519
	H60	H	0.121763	0.406446	0.601027
	H61	H	0.887840	0.592821	0.596502
	H62	H	0.117240	0.586150	0.408443
	H63	H	0.888961	0.412497	0.420153
	H64	H	0.412670	0.593325	0.117424
	H65	H	0.593310	0.593237	0.889559
	H66	H	0.610459	0.409711	0.122933
	H67	H	0.408659	0.400681	0.883092
	H68	H	0.591231	0.115966	0.409333
	H69	H	0.593188	0.889859	0.591488
	H70	H	0.417156	0.118531	0.595520
	H71	H	0.412761	0.889022	0.420424
	H72	H	0.900367	0.622342	0.101315
	H73	H	0.084766	0.387328	0.104364
	H74	H	0.097709	0.618977	0.911775
	H75	H	0.905144	0.383347	0.910718
	H76	H	0.092442	0.914663	0.614849
	H77	H	0.101782	0.091341	0.387707
	H78	H	0.908249	0.086604	0.618466
	H79	H	0.904687	0.918288	0.388116
	H80	H	0.618857	0.093967	0.911154
	H81	H	0.390065	0.087618	0.093063
	H82	H	0.619704	0.902287	0.086099
	H83	H	0.383183	0.907971	0.900631
	H84	H	0.615312	0.920031	0.093651
	H85	H	0.387527	0.091910	0.096268
	H86	H	0.619608	0.093833	0.909673
	H87	H	0.389703	0.906199	0.923135
	H88	H	0.919037	0.094210	0.616863
	H89	H	0.089259	0.091861	0.391701
	H90	H	0.093688	0.901450	0.619042
	H91	H	0.921724	0.917378	0.393635
	H92	H	0.087867	0.617858	0.906583
	H93	H	0.089471	0.391071	0.086392
	H94	H	0.919772	0.616627	0.101082
	H95	H	0.918379	0.385974	0.908359
	H96	H	0.413172	0.116610	0.587624
	H97	H	0.603349	0.885475	0.596975
	H98	H	0.599672	0.119967	0.411814
	H99	H	0.413074	0.884948	0.409921
	H100	H	0.585719	0.420182	0.112162
	H101	H	0.593065	0.596352	0.888667
	H102	H	0.409942	0.594266	0.119306
	H103	H	0.401627	0.420085	0.887850
	H104	H	0.121940	0.598030	0.405728
	H105	H	0.886028	0.595723	0.595417
	H106	H	0.116595	0.408948	0.589618
	H107	H	0.887820	0.418981	0.412270
	H108	H	0.908609	0.615012	0.084087
	H109	H	0.102383	0.383688	0.097778
	H110	H	0.089099	0.614111	0.916588
	H111	H	0.913241	0.388945	0.920277
	H112	H	0.103976	0.910789	0.620952
	H113	H	0.094830	0.102677	0.386544
	H114	H	0.908230	0.099188	0.621465
	H115	H	0.913509	0.903319	0.386350
	H116	H	0.619188	0.094916	0.910400
	H117	H	0.388883	0.093419	0.091205
	H118	H	0.623589	0.906417	0.104402
	H119	H	0.391969	0.926486	0.911577
	C120	C	0.382832	0.011307	0.624422
	C121	C	0.625665	0.995171	0.624747
	C122	C	0.626869	0.011273	0.380452
	C123	C	0.384161	0.993875	0.382088
	C124	C	0.624842	0.379177	0.011512
	C125	C	0.623889	0.623374	0.995562
	C126	C	0.380418	0.624405	0.012300
	C127	C	0.380606	0.380047	0.994260
	C128	C	0.011436	0.624650	0.381598
	C129	C	0.994541	0.623277	0.624861
	C130	C	0.011302	0.380115	0.626766
	C131	C	0.993793	0.382297	0.383812
	C132	C	0.880058	0.510395	0.125917
	C133	C	0.122883	0.494160	0.125576
	C134	C	0.122951	0.510015	0.882353
	C135	C	0.881316	0.493178	0.882355
	C136	C	0.126653	0.879677	0.511972
	C137	C	0.125625	0.124215	0.495205
	C138	C	0.882115	0.125083	0.512610
	C139	C	0.883261	0.882396	0.496016
	C140	C	0.512266	0.125416	0.879823
	C141	C	0.496015	0.121429	0.122773
	C142	C	0.512756	0.879346	0.125947
	C143	C	0.495607	0.882874	0.882641
	C144	C	0.383312	0.889962	0.683690
	C145	C	0.625068	0.117107	0.680504
	C146	C	0.628308	0.888950	0.325007
	C147	C	0.382918	0.115011	0.322042
	C148	C	0.682107	0.381265	0.890463
	C149	C	0.680430	0.620706	0.117210
	C150	C	0.322745	0.625252	0.890952
	C151	C	0.324337	0.379781	0.115817
	C152	C	0.889574	0.683005	0.383281
	C153	C	0.117377	0.678493	0.623522
	C154	C	0.889823	0.322381	0.626599
	C155	C	0.116118	0.325069	0.384386
	C156	C	0.889766	0.379274	0.684373
	C157	C	0.116529	0.621990	0.682173
	C158	C	0.888992	0.626086	0.325314
	C159	C	0.115144	0.380844	0.324994
	C160	C	0.380522	0.683204	0.891025
	C161	C	0.623627	0.679575	0.116902
	C162	C	0.624029	0.324236	0.889679
	C163	C	0.381853	0.321826	0.115335
	C164	C	0.684189	0.888895	0.384320
	C165	C	0.681997	0.117386	0.622490
	C166	C	0.326295	0.889211	0.625511
	C167	C	0.325717	0.115640	0.380529
	C168	C	0.879667	0.388975	0.185049
	C169	C	0.122734	0.616056	0.181608
	C170	C	0.124289	0.388496	0.825681
	C171	C	0.880494	0.615094	0.824303
	C172	C	0.183970	0.881279	0.390460
	C173	C	0.182779	0.121572	0.616531
	C174	C	0.825864	0.125477	0.390786
	C175	C	0.826929	0.883189	0.617653
	C176	C	0.389854	0.182399	0.880471
	C177	C	0.618016	0.178443	0.120503
	C178	C	0.390443	0.823505	0.125782
	C179	C	0.617639	0.825260	0.884145
	C180	C	0.391916	0.878997	0.185156
	C181	C	0.618411	0.121560	0.178967
	C182	C	0.390867	0.126895	0.821686
	C183	C	0.618142	0.883546	0.826546
	C184	C	0.883339	0.183268	0.391236
	C185	C	0.125398	0.179980	0.616829
	C186	C	0.125891	0.823545	0.390421
	C187	C	0.884690	0.824842	0.617566
	C188	C	0.181024	0.388147	0.884177
	C189	C	0.180589	0.615771	0.124017
	C190	C	0.824596	0.387829	0.125054
	C191	C	0.824077	0.615636	0.883114
	C192	C	0.406039	0.096235	0.599652
	C193	C	0.602941	0.909581	0.603162
	C194	C	0.602725	0.096668	0.401855
	C195	C	0.409053	0.909698	0.407551
	C196	C	0.601274	0.400962	0.096290
	C197	C	0.600782	0.601170	0.910997
	C198	C	0.404070	0.600204	0.096335
	C199	C	0.403952	0.404506	0.909766
	C200	C	0.096503	0.600095	0.404151
	C201	C	0.909197	0.600559	0.601893
	C202	C	0.096322	0.404066	0.603279
	C203	C	0.909259	0.406588	0.407660
	C204	C	0.902915	0.595731	0.102511
	C205	C	0.099186	0.409377	0.102966
	C206	C	0.098563	0.594787	0.905103
	C207	C	0.905261	0.408068	0.906083
	C208	C	0.103510	0.902302	0.596426
	C209	C	0.102173	0.101893	0.410687
	C210	C	0.905203	0.100638	0.597125
	C211	C	0.906403	0.906155	0.411242
	C212	C	0.597243	0.101361	0.903444
	C213	C	0.410881	0.097805	0.100048
	C214	C	0.597609	0.902814	0.101842
	C215	C	0.410393	0.906686	0.905133
	Zn216	Zn	0.503912	0.003965	0.753116
	Zn217	Zn	0.505341	0.001483	0.252974
	Zn218	Zn	0.752629	0.501381	0.003692
	Zn219	Zn	0.251999	0.502140	0.003752
	Zn220	Zn	0.004079	0.752120	0.503532
	Zn221	Zn	0.003460	0.253044	0.505030
	Zn222	Zn	0.002131	0.502127	0.753311
	Zn223	Zn	0.001203	0.502779	0.254311
	Zn224	Zn	0.502598	0.752712	0.003767
	Zn225	Zn	0.502605	0.251612	0.002398
	Zn226	Zn	0.753465	0.003633	0.503637
	Zn227	Zn	0.254794	0.002110	0.503043
	N228	N	0.417525	0.967045	0.683314
	N229	N	0.590493	0.040286	0.681845
	N230	N	0.593540	0.966010	0.322391
	N231	N	0.418594	0.038328	0.322981
	N232	N	0.682592	0.414750	0.967108
	N233	N	0.680782	0.586382	0.040785
	N234	N	0.322166	0.589486	0.967278
	N235	N	0.323498	0.415469	0.039337
	N236	N	0.966755	0.682362	0.417482
	N237	N	0.040608	0.679292	0.588509
	N238	N	0.966543	0.322732	0.591658
	N239	N	0.039834	0.325948	0.420536
	N240	N	0.966460	0.414574	0.684593
	N241	N	0.039008	0.588445	0.683171
	N242	N	0.965740	0.590497	0.324071
	N243	N	0.038132	0.415687	0.324417
	N244	N	0.415370	0.682901	0.967415
	N245	N	0.588975	0.681163	0.040435
	N246	N	0.589198	0.322548	0.966146
	N247	N	0.415871	0.321804	0.038652
	N248	N	0.683426	0.966062	0.418000
	N249	N	0.682441	0.040406	0.588508
	N250	N	0.326125	0.965607	0.589245
	N251	N	0.326216	0.039349	0.417029
	N252	N	0.913320	0.466356	0.185753
	N253	N	0.087560	0.539476	0.182749
	N254	N	0.088854	0.465259	0.824462
	N255	N	0.914941	0.537885	0.823292
	N256	N	0.184890	0.915264	0.466980
	N257	N	0.183109	0.087852	0.539876
	N258	N	0.824853	0.090110	0.467192
	N259	N	0.825994	0.918154	0.540958
	N260	N	0.466249	0.181668	0.915999
	N261	N	0.540900	0.178481	0.086328
	N262	N	0.466628	0.823914	0.089627
	N263	N	0.540319	0.824750	0.918212
	N264	N	0.469209	0.912841	0.185533
	N265	N	0.541515	0.086598	0.180332
	N266	N	0.468120	0.092139	0.821279
	N267	N	0.541147	0.918562	0.825420
	N268	N	0.917359	0.183303	0.468039
	N269	N	0.090523	0.181724	0.540409
	N270	N	0.091230	0.822320	0.466917
	N271	N	0.918846	0.824101	0.540833
	N272	N	0.180468	0.464826	0.918688
	N273	N	0.181010	0.538881	0.089825
	N274	N	0.824904	0.464221	0.088871
	N275	N	0.824413	0.538674	0.918362
	O276	O	-0.070635	0.006165	0.052568
	H277	H	-0.078051	0.009939	0.042630
	H278	H	-0.070366	0.023575	0.055908
	O279	O	0.351652	0.552266	0.396445
	H280	H	0.348075	0.551004	0.404550
	H281	H	0.348893	0.537847	0.388219
	O282	O	1.612082	0.597136	0.676088
	H283	H	1.630227	0.612459	0.673908
	H284	H	1.603143	0.609294	0.682837
	O285	O	-0.344263	0.566274	0.629092
	H286	H	-0.335885	0.567730	0.638306
	H287	H	-0.351987	0.570709	0.634717
	O288	O	0.441134	0.687487	0.434940
	H289	H	0.426142	0.684920	0.428494
	H290	H	0.441238	0.696260	0.426820
	O291	O	0.553958	0.480521	0.404522
	H292	H	0.555824	0.476806	0.393144
	H293	H	0.551589	0.475170	0.408889
	O294	O	1.106405	0.872979	0.927630
	H295	H	1.108936	0.876260	0.929722
	H296	H	1.117884	0.867365	0.923702
	O297	O	-0.016263	-0.024835	-0.130655
	H298	H	-0.016408	-0.022886	-0.131119
	H299	H	-0.019569	-0.022001	-0.137371
	O300	O	0.591335	0.399614	0.566205
	H301	H	0.580549	0.410677	0.576449
	H302	H	0.577354	0.400600	0.582046
	O303	O	-0.037098	1.041079	0.892240
	H304	H	-0.038902	1.052019	0.892445
	H305	H	-0.043518	1.044844	0.897963
	O306	O	0.467154	0.371472	0.651603
	H307	H	0.459417	0.379289	0.646063
	H308	H	0.457062	0.351065	0.679377
	O309	O	1.024703	-0.058261	0.002396
	H310	H	1.020831	-0.047254	-0.010248
	H311	H	1.014933	-0.056868	-0.004623
	O312	O	0.099331	-0.120245	0.979248
	H313	H	0.090985	-0.107960	0.970963
	H314	H	0.110018	-0.139743	0.986061
	O315	O	-0.039352	0.961878	0.026023
	H316	H	-0.033878	0.957824	0.017869
	H317	H	-0.034990	0.947681	0.025888
	O318	O	0.672623	0.332143	0.435128
	H319	H	0.682876	0.326457	0.454643
	H320	H	0.676251	0.339289	0.441579
	O321	O	0.458097	0.619716	0.412021
	H322	H	0.457816	0.597900	0.408381
	H323	H	0.446259	0.636631	0.413055
	O324	O	0.599725	0.459464	0.381263
	H325	H	0.597754	0.441879	0.388274
	H326	H	0.603104	0.458928	0.376252
	O327	O	0.584659	0.566921	0.613712
	H328	H	0.583636	0.562153	0.620712
	H329	H	0.579430	0.563154	0.610524
	O330	O	0.419131	0.528614	0.592848
	H331	H	0.409707	0.529117	0.582590
	H332	H	0.423664	0.521472	0.586311
	O333	O	-0.120080	0.868708	1.165582
	H334	H	-0.124543	0.863027	1.175812
	H335	H	-0.129189	0.871057	1.169992
	O336	O	0.938903	0.964294	1.023095
	H337	H	0.938851	0.972798	1.030840
	H338	H	0.946117	0.973233	1.024212
	O339	O	0.517888	0.585324	0.405650
	H340	H	0.521553	0.577942	0.403513
	H341	H	0.511783	0.589704	0.402846
	O342	O	1.176613	0.096642	0.124275
	H343	H	1.163277	0.076653	0.132546
	H344	H	1.190234	0.104320	0.136825
	O345	O	0.441281	0.479312	0.429832
	H346	H	0.457275	0.481960	0.426007
	H347	H	0.430698	0.474663	0.427804
	O348	O	1.038964	0.884890	0.951758
	H349	H	1.052370	0.882948	0.932642
	H350	H	1.036064	0.890061	0.957708
	O351	O	1.077921	1.045378	-0.096807
	H352	H	1.072177	1.054177	-0.087986
	H353	H	1.084165	1.045822	-0.094861
	O354	O	0.382473	0.462255	0.627031
	H355	H	0.378092	0.463474	0.614323
	H356	H	0.379239	0.461170	0.631462
	O357	O	0.012231	0.099535	0.129812
	H358	H	0.013452	0.092186	0.134650
	H359	H	0.008627	0.082297	0.127926
	O360	O	-0.003727	0.126057	-0.049868
	H361	H	-0.011323	0.118306	-0.047388
	H362	H	-0.008071	0.122898	-0.049898
	O363	O	0.366568	0.548692	0.482738
	H364	H	0.373241	0.569171	0.488329
	H365	H	0.376460	0.537653	0.472894
	O366	O	-0.063291	0.114605	-0.125672
	H367	H	-0.072297	0.106652	-0.119497
	H368	H	-0.065961	0.110920	-0.144040
	O369	O	0.444098	0.541650	0.499262
	H370	H	0.445502	0.547278	0.501761
	H371	H	0.447008	0.531517	0.498819
	O372	O	0.373862	0.606903	0.474934
	H373	H	0.380621	0.609197	0.465176
	H374	H	0.361057	0.613930	0.471469
	O375	O	0.646887	0.485015	0.506998
	H376	H	0.638111	0.482787	0.511753
	H377	H	0.658892	0.485599	0.508007
	O378	O	0.534306	0.401336	0.491919
	H379	H	0.547747	0.410833	0.491938
	H380	H	0.531104	0.404750	0.492543
	O381	O	0.547115	0.581179	0.412906
	H382	H	0.542341	0.584018	0.415943
	H383	H	0.541486	0.588578	0.398515
	O384	O	0.025235	1.003361	0.077894
	H385	H	0.021563	0.990781	0.084816
	H386	H	0.014785	1.000348	0.072267
	O387	O	1.129214	0.097708	0.996215
	H388	H	1.133545	0.121938	0.985988
	H389	H	1.134638	0.082541	1.010110
	O390	O	0.019606	1.012427	0.009357
	H391	H	0.015387	1.009104	0.012051
	H392	H	0.026236	1.008587	0.030542
	O393	O	1.036847	1.031131	0.131071
	H394	H	1.043234	1.027589	0.129837
	H395	H	1.034508	1.033784	0.128190
	O396	O	0.505140	0.412293	0.461202
	H397	H	0.505082	0.409533	0.472288
	H398	H	0.526584	0.405968	0.461783
	O399	O	-0.015003	0.968462	0.891444
	H400	H	-0.015964	0.965973	0.884841
	H401	H	-0.007893	0.980578	0.885075
	O402	O	0.925498	1.091602	0.997859
	H403	H	0.934345	1.100475	0.991453
	H404	H	0.915510	1.097481	0.980998
	O405	O	0.328914	0.353051	0.592988
	H406	H	0.328031	0.374214	0.578369
	H407	H	0.315605	0.342850	0.590531
