data_Molecule from HDF5

_cell_length_a		16.303544
_cell_length_b		16.364631
_cell_length_c		16.321152
_cell_angle_alpha	89.972642
_cell_angle_beta	89.984204
_cell_angle_gamma	90.005320
_symmetry_space_group_name_H-M	'P 1'
_symmetry_Int_Tables_number		1

loop_
	_symmetry_equiv_pos_as_xyz
	x,y,z

loop_
	_atom_site_label
	_atom_site_type_symbol
	_atom_site_fract_x
	_atom_site_fract_y
	_atom_site_fract_z
	H0	H	0.401444	0.837141	0.714513
	H1	H	0.599707	0.162378	0.715751
	H2	H	0.597654	0.836771	0.285684
	H3	H	0.401013	0.162509	0.284053
	H4	H	0.713343	0.403096	0.836278
	H5	H	0.714109	0.596948	0.163374
	H6	H	0.286822	0.596773	0.837380
	H7	H	0.286513	0.401920	0.163123
	H8	H	0.836250	0.713333	0.402877
	H9	H	0.162956	0.714652	0.598080
	H10	H	0.836548	0.285877	0.598312
	H11	H	0.163141	0.285478	0.401903
	H12	H	0.836466	0.402740	0.714378
	H13	H	0.163709	0.598397	0.714575
	H14	H	0.836787	0.598934	0.284688
	H15	H	0.163152	0.402964	0.286740
	H16	H	0.401552	0.714354	0.836862
	H17	H	0.600307	0.715948	0.162991
	H18	H	0.599137	0.284636	0.837148
	H19	H	0.402460	0.285447	0.162707
	H20	H	0.714190	0.836570	0.402018
	H21	H	0.715230	0.163175	0.597475
	H22	H	0.285860	0.836852	0.597626
	H23	H	0.285504	0.163382	0.401729
	H24	H	0.903713	0.336552	0.212727
	H25	H	0.097336	0.663400	0.213561
	H26	H	0.098328	0.337706	0.786439
	H27	H	0.900703	0.662833	0.785768
	H28	H	0.213741	0.902757	0.336262
	H29	H	0.213692	0.097363	0.663266
	H30	H	0.787320	0.096696	0.335679
	H31	H	0.784751	0.902239	0.663019
	H32	H	0.337046	0.215611	0.900341
	H33	H	0.663776	0.212666	0.096207
	H34	H	0.337198	0.784899	0.098837
	H35	H	0.663019	0.784932	0.901567
	H36	H	0.336641	0.901622	0.213928
	H37	H	0.663780	0.097196	0.213435
	H38	H	0.336847	0.098722	0.785180
	H39	H	0.663354	0.902122	0.785934
	H40	H	0.901235	0.215181	0.337173
	H41	H	0.098029	0.214740	0.663706
	H42	H	0.098154	0.784344	0.336778
	H43	H	0.900656	0.784946	0.663447
	H44	H	0.214873	0.337385	0.902372
	H45	H	0.215270	0.662677	0.098467
	H46	H	0.786179	0.336857	0.097475
	H47	H	0.784724	0.662538	0.902318
	H48	H	0.397101	0.117689	0.590004
	H49	H	0.594152	0.885190	0.590145
	H50	H	0.598367	0.117183	0.405859
	H51	H	0.403521	0.884910	0.411200
	H52	H	0.587030	0.405934	0.113807
	H53	H	0.592390	0.602140	0.881987
	H54	H	0.407922	0.597647	0.116995
	H55	H	0.404936	0.401041	0.880864
	H56	H	0.115048	0.592630	0.407885
	H57	H	0.885789	0.593166	0.586474
	H58	H	0.115580	0.407939	0.592317
	H59	H	0.883840	0.405553	0.406943
	H60	H	0.116200	0.407110	0.595210
	H61	H	0.884232	0.586946	0.598100
	H62	H	0.116456	0.592782	0.404690
	H63	H	0.883659	0.408083	0.406672
	H64	H	0.403670	0.591729	0.117233
	H65	H	0.600171	0.589154	0.883323
	H66	H	0.596443	0.399450	0.118310
	H67	H	0.402756	0.412824	0.884095
	H68	H	0.590606	0.116427	0.402035
	H69	H	0.593289	0.883811	0.596340
	H70	H	0.408548	0.117845	0.603445
	H71	H	0.404224	0.882658	0.402241
	H72	H	0.909047	0.615059	0.091517
	H73	H	0.083060	0.389492	0.086034
	H74	H	0.094342	0.615144	0.910393
	H75	H	0.893253	0.379740	0.905393
	H76	H	0.095854	0.907294	0.616237
	H77	H	0.096244	0.094603	0.382683
	H78	H	0.912055	0.101729	0.616859
	H79	H	0.905498	0.906800	0.383735
	H80	H	0.613584	0.094832	0.916211
	H81	H	0.385391	0.093518	0.086972
	H82	H	0.616926	0.905472	0.094730
	H83	H	0.383184	0.903480	0.909902
	H84	H	0.615891	0.906608	0.090764
	H85	H	0.384702	0.088348	0.095426
	H86	H	0.614690	0.083914	0.904087
	H87	H	0.385390	0.910415	0.907912
	H88	H	0.897083	0.093635	0.618854
	H89	H	0.092317	0.089699	0.385275
	H90	H	0.090729	0.908682	0.614661
	H91	H	0.907876	0.907085	0.384594
	H92	H	0.095509	0.617022	0.905480
	H93	H	0.106579	0.382879	0.088126
	H94	H	0.903950	0.616104	0.091211
	H95	H	0.914736	0.383219	0.895702
	H96	H	0.413881	0.111921	0.587435
	H97	H	0.588412	0.885487	0.592885
	H98	H	0.591952	0.113280	0.410125
	H99	H	0.411389	0.886097	0.406591
	H100	H	0.598029	0.411453	0.115978
	H101	H	0.585036	0.589484	0.887591
	H102	H	0.411181	0.591154	0.115043
	H103	H	0.414316	0.407789	0.885826
	H104	H	0.117207	0.595359	0.406764
	H105	H	0.880926	0.600114	0.596671
	H106	H	0.116742	0.405385	0.592534
	H107	H	0.883290	0.406535	0.405252
	H108	H	0.906893	0.616948	0.095907
	H109	H	0.091988	0.381348	0.107312
	H110	H	0.090576	0.615210	0.906357
	H111	H	0.910949	0.389053	0.917915
	H112	H	0.092294	0.903582	0.616016
	H113	H	0.089477	0.095823	0.384012
	H114	H	0.910368	0.085492	0.612652
	H115	H	0.907187	0.904555	0.384237
	H116	H	0.619953	0.099239	0.901486
	H117	H	0.381473	0.097760	0.095393
	H118	H	0.615782	0.909078	0.094092
	H119	H	0.382416	0.906183	0.902968
	C120	C	0.377957	0.008304	0.621966
	C121	C	0.621259	0.992295	0.621611
	C122	C	0.621779	0.007987	0.377859
	C123	C	0.378058	0.992106	0.377962
	C124	C	0.621978	0.377674	0.008381
	C125	C	0.621621	0.621881	0.991964
	C126	C	0.378744	0.621868	0.008789
	C127	C	0.378854	0.378799	0.991436
	C128	C	0.008176	0.621717	0.378358
	C129	C	0.991621	0.621612	0.621692
	C130	C	0.008165	0.378950	0.621477
	C131	C	0.991585	0.378820	0.378445
	C132	C	0.878481	0.508260	0.121563
	C133	C	0.122134	0.491932	0.121965
	C134	C	0.121928	0.508265	0.879330
	C135	C	0.878038	0.491731	0.878302
	C136	C	0.121343	0.878273	0.507865
	C137	C	0.121069	0.121691	0.492056
	C138	C	0.878107	0.121783	0.508049
	C139	C	0.878046	0.877843	0.491815
	C140	C	0.508178	0.121240	0.878321
	C141	C	0.491860	0.121231	0.120934
	C142	C	0.508195	0.878463	0.121479
	C143	C	0.491571	0.878143	0.878230
	C144	C	0.380775	0.885726	0.676336
	C145	C	0.619250	0.114426	0.677232
	C146	C	0.618202	0.885161	0.323772
	C147	C	0.380408	0.114256	0.322184
	C148	C	0.676223	0.381483	0.885320
	C149	C	0.676586	0.618232	0.114757
	C150	C	0.323901	0.618300	0.885830
	C151	C	0.324096	0.381369	0.114352
	C152	C	0.885261	0.676245	0.381613
	C153	C	0.114595	0.676233	0.618575
	C154	C	0.885287	0.323778	0.619038
	C155	C	0.114346	0.323922	0.381199
	C156	C	0.885355	0.381688	0.676775
	C157	C	0.114742	0.618948	0.676662
	C158	C	0.885442	0.619155	0.323232
	C159	C	0.114700	0.382247	0.324157
	C160	C	0.381030	0.676544	0.885826
	C161	C	0.619929	0.677165	0.114579
	C162	C	0.619644	0.322630	0.885642
	C163	C	0.381676	0.323537	0.114076
	C164	C	0.676618	0.885212	0.381062
	C165	C	0.676910	0.114510	0.618864
	C166	C	0.323002	0.885834	0.618631
	C167	C	0.323429	0.114817	0.380970
	C168	C	0.882211	0.385256	0.175501
	C169	C	0.119003	0.614656	0.176407
	C170	C	0.119038	0.386187	0.824253
	C171	C	0.880702	0.614389	0.823983
	C172	C	0.176387	0.881077	0.385078
	C173	C	0.175998	0.118385	0.614672
	C174	C	0.824748	0.117811	0.384852
	C175	C	0.823208	0.881180	0.614708
	C176	C	0.385710	0.177136	0.880385
	C177	C	0.614924	0.175628	0.117807
	C178	C	0.385780	0.822986	0.119185
	C179	C	0.614485	0.823247	0.880987
	C180	C	0.385434	0.881128	0.176270
	C181	C	0.614892	0.117953	0.175574
	C182	C	0.385418	0.118914	0.823205
	C183	C	0.614347	0.881002	0.823329
	C184	C	0.881089	0.176841	0.385486
	C185	C	0.118532	0.176576	0.614842
	C186	C	0.118867	0.822648	0.385323
	C187	C	0.880269	0.822594	0.614537
	C188	C	0.176955	0.386125	0.881889
	C189	C	0.177108	0.614300	0.118968
	C190	C	0.824166	0.385407	0.117963
	C191	C	0.822689	0.614141	0.881330
	C192	C	0.400041	0.093909	0.600117
	C193	C	0.598659	0.906978	0.599433
	C194	C	0.600139	0.093443	0.399703
	C195	C	0.399869	0.906651	0.400085
	C196	C	0.600230	0.399165	0.094028
	C197	C	0.599105	0.600000	0.906358
	C198	C	0.401104	0.599939	0.094358
	C199	C	0.400925	0.400696	0.905788
	C200	C	0.094138	0.599926	0.400045
	C201	C	0.905812	0.599737	0.600022
	C202	C	0.093953	0.400341	0.599687
	C203	C	0.905637	0.400388	0.399916
	C204	C	0.900300	0.593924	0.099474
	C205	C	0.100220	0.406534	0.100260
	C206	C	0.099889	0.593844	0.901137
	C207	C	0.899789	0.406028	0.899904
	C208	C	0.099400	0.900033	0.593590
	C209	C	0.099063	0.099849	0.406085
	C210	C	0.900010	0.099922	0.594025
	C211	C	0.900381	0.899711	0.406314
	C212	C	0.593849	0.099115	0.900683
	C213	C	0.406094	0.099557	0.099130
	C214	C	0.594094	0.900591	0.099477
	C215	C	0.405658	0.900025	0.900557
	Zn216	Zn	0.499882	-0.000189	0.750553
	Zn217	Zn	0.499762	-0.000242	0.249558
	Zn218	Zn	0.749848	0.499647	-0.000144
	Zn219	Zn	0.250666	0.500143	0.000663
	Zn220	Zn	-0.000043	0.749620	0.500533
	Zn221	Zn	-0.000207	0.250204	0.500041
	Zn222	Zn	0.000386	0.500584	0.750319
	Zn223	Zn	-0.000057	0.500224	0.249992
	Zn224	Zn	0.499845	0.750181	0.000041
	Zn225	Zn	0.500018	0.249784	-0.000473
	Zn226	Zn	0.750163	0.000062	0.500048
	Zn227	Zn	0.249548	0.000332	0.499574
	N228	N	0.414278	0.962630	0.678495
	N229	N	0.585686	0.037279	0.679083
	N230	N	0.585138	0.962382	0.321470
	N231	N	0.413819	0.037153	0.320399
	N232	N	0.677666	0.415188	0.962449
	N233	N	0.677601	0.584422	0.037787
	N234	N	0.322473	0.585009	0.963121
	N235	N	0.322531	0.415197	0.037292
	N236	N	0.962475	0.677745	0.415365
	N237	N	0.037198	0.678031	0.585350
	N238	N	0.962500	0.322087	0.585297
	N239	N	0.036872	0.321646	0.414248
	N240	N	0.962696	0.415127	0.678491
	N241	N	0.037295	0.585563	0.678573
	N242	N	0.962962	0.586095	0.321060
	N243	N	0.037379	0.415756	0.322435
	N244	N	0.414340	0.678818	0.963205
	N245	N	0.586507	0.679505	0.037224
	N246	N	0.586454	0.320440	0.962919
	N247	N	0.414901	0.321683	0.036701
	N248	N	0.678822	0.962414	0.414159
	N249	N	0.678204	0.037717	0.585016
	N250	N	0.321245	0.963175	0.585350
	N251	N	0.322009	0.037970	0.414944
	N252	N	0.915104	0.462664	0.177969
	N253	N	0.085397	0.537700	0.178170
	N254	N	0.085309	0.463126	0.822806
	N255	N	0.914413	0.537426	0.822069
	N256	N	0.177893	0.914865	0.462024
	N257	N	0.177492	0.085162	0.537254
	N258	N	0.822780	0.084404	0.462093
	N259	N	0.821540	0.914440	0.537495
	N260	N	0.463067	0.178603	0.913958
	N261	N	0.537572	0.177509	0.084276
	N262	N	0.463124	0.821253	0.085896
	N263	N	0.537161	0.821448	0.914361
	N264	N	0.462631	0.914845	0.177740
	N265	N	0.537395	0.084884	0.177699
	N266	N	0.462632	0.084933	0.821920
	N267	N	0.537051	0.914672	0.821863
	N268	N	0.913713	0.179219	0.463067
	N269	N	0.084992	0.178593	0.537485
	N270	N	0.085398	0.820672	0.462669
	N271	N	0.914093	0.820700	0.537305
	N272	N	0.178673	0.463059	0.915509
	N273	N	0.179195	0.537117	0.085875
	N274	N	0.821802	0.462776	0.085163
	N275	N	0.820994	0.536879	0.914382
