data_Molecule from HDF5

_cell_length_a		16.386328
_cell_length_b		16.325226
_cell_length_c		16.359441
_cell_angle_alpha	90.150324
_cell_angle_beta	90.213982
_cell_angle_gamma	89.637215
_symmetry_space_group_name_H-M	'P 1'
_symmetry_Int_Tables_number		1

loop_
	_symmetry_equiv_pos_as_xyz
	x,y,z

loop_
	_atom_site_label
	_atom_site_type_symbol
	_atom_site_fract_x
	_atom_site_fract_y
	_atom_site_fract_z
	H0	H	0.384057	0.825814	0.737293
	H1	H	0.586646	0.148061	0.738310
	H2	H	0.587348	0.825078	0.302197
	H3	H	0.383924	0.149540	0.301385
	H4	H	0.706259	0.381697	0.859311
	H5	H	0.705111	0.588213	0.180748
	H6	H	0.266714	0.590737	0.858667
	H7	H	0.271676	0.387980	0.181004
	H8	H	0.824564	0.707269	0.419094
	H9	H	0.147532	0.706771	0.624128
	H10	H	0.823630	0.274208	0.620480
	H11	H	0.145357	0.268559	0.418435
	H12	H	0.825407	0.389091	0.737847
	H13	H	0.147053	0.591082	0.740455
	H14	H	0.825592	0.592479	0.300700
	H15	H	0.147551	0.387674	0.305104
	H16	H	0.383125	0.705421	0.857863
	H17	H	0.588901	0.705443	0.180678
	H18	H	0.588850	0.267408	0.858431
	H19	H	0.387615	0.271441	0.181169
	H20	H	0.705139	0.826364	0.417280
	H21	H	0.699515	0.149681	0.620963
	H22	H	0.269329	0.825336	0.619744
	H23	H	0.265937	0.149074	0.415867
	H24	H	0.886968	0.327293	0.237501
	H25	H	0.088923	0.650520	0.240157
	H26	H	0.088460	0.326753	0.802854
	H27	H	0.883598	0.650805	0.804248
	H28	H	0.202863	0.884484	0.358328
	H29	H	0.205176	0.090822	0.680152
	H30	H	0.766739	0.090102	0.358669
	H31	H	0.767840	0.886544	0.681857
	H32	H	0.325656	0.207993	0.915785
	H33	H	0.648113	0.202181	0.119331
	H34	H	0.324875	0.770452	0.120073
	H35	H	0.647059	0.766624	0.916153
	H36	H	0.325516	0.885174	0.237512
	H37	H	0.646555	0.087525	0.237183
	H38	H	0.324684	0.089382	0.800696
	H39	H	0.646894	0.882408	0.799622
	H40	H	0.883689	0.204945	0.358376
	H41	H	0.085087	0.203583	0.682082
	H42	H	0.088210	0.767785	0.359764
	H43	H	0.885381	0.772017	0.682738
	H44	H	0.202945	0.325991	0.919944
	H45	H	0.204962	0.649921	0.122952
	H46	H	0.770854	0.326195	0.121543
	H47	H	0.765940	0.648274	0.918023
	H48	H	0.409265	0.096220	0.608026
	H49	H	0.572735	0.870322	0.618394
	H50	H	0.572864	0.101170	0.427982
	H51	H	0.397871	0.874087	0.427506
	H52	H	0.581159	0.391744	0.136250
	H53	H	0.574187	0.573870	0.906741
	H54	H	0.404148	0.582920	0.132898
	H55	H	0.397954	0.400344	0.906775
	H56	H	0.099014	0.578464	0.433467
	H57	H	0.870818	0.584712	0.612008
	H58	H	0.100792	0.396858	0.614429
	H59	H	0.869679	0.403561	0.419326
	H60	H	0.102311	0.393268	0.611071
	H61	H	0.874117	0.579478	0.608047
	H62	H	0.099772	0.576154	0.429984
	H63	H	0.866919	0.388744	0.425309
	H64	H	0.390285	0.583798	0.137107
	H65	H	0.574140	0.577086	0.905651
	H66	H	0.581077	0.398218	0.134645
	H67	H	0.396530	0.392233	0.903300
	H68	H	0.578647	0.102812	0.430064
	H69	H	0.571638	0.876707	0.600715
	H70	H	0.385900	0.100268	0.597783
	H71	H	0.392998	0.873843	0.429835
	H72	H	0.901618	0.601117	0.109827
	H73	H	0.079785	0.374110	0.114691
	H74	H	0.075172	0.603596	0.928872
	H75	H	0.895576	0.369649	0.918705
	H76	H	0.076019	0.904843	0.631556
	H77	H	0.071881	0.080868	0.406041
	H78	H	0.884129	0.085008	0.639319
	H79	H	0.898565	0.897118	0.407785
	H80	H	0.601953	0.080587	0.926134
	H81	H	0.370439	0.083110	0.109627
	H82	H	0.599484	0.898640	0.112366
	H83	H	0.370825	0.897446	0.922572
	H84	H	0.601296	0.892583	0.111857
	H85	H	0.373296	0.078267	0.105831
	H86	H	0.599737	0.078521	0.932471
	H87	H	0.371903	0.892501	0.930561
	H88	H	0.892680	0.072378	0.631830
	H89	H	0.078731	0.080418	0.403566
	H90	H	0.074235	0.892596	0.635948
	H91	H	0.893416	0.898991	0.406483
	H92	H	0.077700	0.603529	0.932022
	H93	H	0.077943	0.374505	0.111349
	H94	H	0.892453	0.601861	0.103620
	H95	H	0.905341	0.377428	0.931654
	H96	H	0.390607	0.106961	0.622722
	H97	H	0.587719	0.869695	0.607756
	H98	H	0.577332	0.104215	0.424492
	H99	H	0.393951	0.872241	0.424710
	H100	H	0.576208	0.394623	0.133271
	H101	H	0.577216	0.575444	0.906055
	H102	H	0.394993	0.571552	0.130763
	H103	H	0.390226	0.398355	0.903690
	H104	H	0.100996	0.580490	0.429959
	H105	H	0.871850	0.578492	0.614553
	H106	H	0.099555	0.397592	0.609674
	H107	H	0.873476	0.400410	0.434975
	H108	H	0.892055	0.604628	0.114123
	H109	H	0.081499	0.373252	0.111510
	H110	H	0.078885	0.604274	0.928167
	H111	H	0.888533	0.372476	0.934740
	H112	H	0.086361	0.897671	0.636658
	H113	H	0.075189	0.074510	0.406473
	H114	H	0.899925	0.086989	0.634613
	H115	H	0.896863	0.902387	0.408802
	H116	H	0.599366	0.073252	0.926966
	H117	H	0.371547	0.077205	0.111921
	H118	H	0.599961	0.895817	0.106045
	H119	H	0.374386	0.901275	0.929885
	C120	C	0.364937	-0.004941	0.639954
	C121	C	0.607043	0.978697	0.640463
	C122	C	0.607567	-0.003927	0.397270
	C123	C	0.363958	0.979771	0.396985
	C124	C	0.609302	0.364226	0.028001
	C125	C	0.606913	0.607225	1.011979
	C126	C	0.364495	0.610408	0.027514
	C127	C	0.366079	0.366824	1.011069
	C128	C	-0.005843	0.610163	0.399453
	C129	C	0.978494	0.610498	0.642420
	C130	C	-0.005774	0.367453	0.641568
	C131	C	0.976770	0.366888	0.397709
	C132	C	0.865752	0.495941	0.140399
	C133	C	0.109325	0.480456	0.142727
	C134	C	0.107806	0.497043	0.899395
	C135	C	0.865000	0.479849	0.898309
	C136	C	0.108384	0.866468	0.528206
	C137	C	0.106536	0.109434	0.511315
	C138	C	0.862148	0.111207	0.528471
	C139	C	0.865341	0.867942	0.513276
	C140	C	0.494336	0.108382	0.897653
	C141	C	0.477999	0.108263	0.139462
	C142	C	0.494268	0.865637	0.140327
	C143	C	0.478358	0.865271	0.896849
	C144	C	0.364993	0.873823	0.697801
	C145	C	0.606232	0.099936	0.698840
	C146	C	0.607287	0.873894	0.340307
	C147	C	0.364155	0.101172	0.339979
	C148	C	0.667038	0.363113	0.907351
	C149	C	0.665229	0.607417	0.132884
	C150	C	0.305806	0.609950	0.906798
	C151	C	0.310130	0.368043	0.132782
	C152	C	0.872802	0.668375	0.399227
	C153	C	0.099532	0.667761	0.642822
	C154	C	0.872483	0.312023	0.640318
	C155	C	0.097736	0.308333	0.399041
	C156	C	0.873302	0.369084	0.698898
	C157	C	0.099260	0.610579	0.701163
	C158	C	0.873321	0.611379	0.340412
	C159	C	0.098862	0.367419	0.342617
	C160	C	0.363760	0.667203	0.906303
	C161	C	0.607850	0.666037	0.132478
	C162	C	0.608413	0.306489	0.906798
	C163	C	0.367885	0.310405	0.132917
	C164	C	0.665645	0.874397	0.397789
	C165	C	0.662443	0.100789	0.640517
	C166	C	0.307815	0.873617	0.639384
	C167	C	0.305375	0.100843	0.396824
	C168	C	0.866923	0.375307	0.198572
	C169	C	0.108239	0.602364	0.200456
	C170	C	0.107692	0.375152	0.841877
	C171	C	0.864584	0.601665	0.842175
	C172	C	0.164925	0.865272	0.406951
	C173	C	0.165275	0.109609	0.632228
	C174	C	0.805489	0.109570	0.406964
	C175	C	0.807354	0.867688	0.634002
	C176	C	0.373544	0.167826	0.896863
	C177	C	0.599654	0.164006	0.138924
	C178	C	0.373117	0.808931	0.139385
	C179	C	0.598935	0.806001	0.896802
	C180	C	0.373424	0.865973	0.197892
	C181	C	0.599166	0.106951	0.197271
	C182	C	0.373160	0.109066	0.839456
	C183	C	0.599062	0.864085	0.839306
	C184	C	0.863352	0.167067	0.406965
	C185	C	0.105551	0.165800	0.633177
	C186	C	0.107509	0.807386	0.407561
	C187	C	0.865807	0.810627	0.634363
	C188	C	0.164726	0.374690	0.900104
	C189	C	0.166236	0.601925	0.142508
	C190	C	0.809356	0.374592	0.140621
	C191	C	0.805763	0.600691	0.898804
	C192	C	0.388417	0.079339	0.616300
	C193	C	0.584074	0.894311	0.616105
	C194	C	0.583229	0.080690	0.420701
	C195	C	0.387964	0.895280	0.420491
	C196	C	0.586245	0.388055	0.112793
	C197	C	0.582223	0.582594	0.927892
	C198	C	0.389226	0.586479	0.111687
	C199	C	0.388527	0.389990	0.926660
	C200	C	0.077846	0.585477	0.423784
	C201	C	0.894351	0.587619	0.618435
	C202	C	0.078991	0.389559	0.618324
	C203	C	0.892129	0.390637	0.419976
	C204	C	0.888815	0.580747	0.116260
	C205	C	0.086337	0.395934	0.119331
	C206	C	0.084262	0.581739	0.922926
	C207	C	0.889391	0.395133	0.921496
	C208	C	0.085424	0.891136	0.612726
	C209	C	0.082290	0.085632	0.427138
	C210	C	0.885415	0.088297	0.613235
	C211	C	0.889426	0.892400	0.429325
	C212	C	0.578484	0.084410	0.921502
	C213	C	0.393690	0.085823	0.116178
	C214	C	0.578436	0.888843	0.116886
	C215	C	0.394321	0.890021	0.920633
	Zn216	Zn	0.486047	-0.013355	0.768191
	Zn217	Zn	0.485900	-0.012231	0.268792
	Zn218	Zn	0.736645	0.486566	0.019326
	Zn219	Zn	0.236961	0.488422	0.019984
	Zn220	Zn	-0.013657	0.738941	0.521085
	Zn221	Zn	-0.015154	0.238566	0.520355
	Zn222	Zn	-0.013071	0.488761	0.770749
	Zn223	Zn	-0.013632	0.489296	0.270246
	Zn224	Zn	0.486412	0.737543	0.018681
	Zn225	Zn	0.486653	0.237611	0.019669
	Zn226	Zn	0.735272	-0.012018	0.519981
	Zn227	Zn	0.235832	-0.012332	0.519096
	N228	N	0.399571	0.950283	0.698390
	N229	N	0.572539	0.023055	0.699066
	N230	N	0.571852	0.950532	0.339917
	N231	N	0.399731	0.024774	0.339781
	N232	N	0.667555	0.398559	0.983759
	N233	N	0.664899	0.571619	0.056816
	N234	N	0.305987	0.575381	0.983454
	N235	N	0.308630	0.402436	0.056158
	N236	N	0.948750	0.667835	0.435252
	N237	N	0.023412	0.668041	0.607280
	N238	N	0.948832	0.310771	0.605575
	N239	N	0.020802	0.307638	0.432442
	N240	N	0.949997	0.402740	0.699955
	N241	N	0.023076	0.575866	0.701242
	N242	N	0.949672	0.576271	0.340159
	N243	N	0.022718	0.402889	0.341525
	N244	N	0.399469	0.667435	0.982358
	N245	N	0.572336	0.665917	0.056160
	N246	N	0.573360	0.307118	0.983059
	N247	N	0.401845	0.309493	0.056219
	N248	N	0.666092	0.951298	0.432095
	N249	N	0.663365	0.024419	0.604892
	N250	N	0.307799	0.950022	0.603962
	N251	N	0.304987	0.024356	0.431418
	N252	N	0.901420	0.451943	0.198467
	N253	N	0.073642	0.525798	0.201030
	N254	N	0.073216	0.452095	0.841175
	N255	N	0.900816	0.525336	0.841905
	N256	N	0.165583	0.901074	0.482996
	N257	N	0.165998	0.075113	0.555410
	N258	N	0.804456	0.075700	0.483763
	N259	N	0.807058	0.902555	0.557572
	N260	N	0.449810	0.167768	0.932167
	N261	N	0.523527	0.164809	0.103636
	N262	N	0.449297	0.808632	0.104366
	N263	N	0.522741	0.806596	0.931816
	N264	N	0.449705	0.900562	0.198690
	N265	N	0.522662	0.072967	0.197737
	N266	N	0.449036	0.072658	0.839957
	N267	N	0.523133	0.900172	0.839207
	N268	N	0.897888	0.168213	0.483529
	N269	N	0.069990	0.166089	0.557069
	N270	N	0.073346	0.807751	0.484218
	N271	N	0.901241	0.810755	0.558154
	N272	N	0.165094	0.451516	0.935026
	N273	N	0.166971	0.525375	0.107298
	N274	N	0.808819	0.450700	0.105021
	N275	N	0.805698	0.523942	0.932747
	O276	O	0.593237	0.472775	0.617710
	H277	H	0.591788	0.474531	0.624310
	H278	H	0.596596	0.484182	0.624596
	O279	O	0.465025	0.596161	0.466673
	H280	H	0.460279	0.601858	0.459666
	H281	H	0.454339	0.610254	0.474192
	O282	O	1.109401	-0.124244	0.854777
	H283	H	1.120702	-0.119475	0.851349
	H284	H	1.124249	-0.132810	0.866540
	O285	O	0.755049	0.241053	0.148602
	H286	H	0.745851	0.245748	0.152594
	H287	H	0.759760	0.242151	0.145262
	O288	O	0.823799	0.996486	1.085873
	H289	H	0.846878	0.987708	1.082966
	H290	H	0.807937	0.996041	1.080816
	O291	O	0.342792	1.458396	0.687601
	H292	H	0.342129	1.463399	0.660401
	H293	H	0.338426	1.458444	0.696277
	O294	O	0.454025	0.510592	0.413534
	H295	H	0.457771	0.513297	0.407748
	H296	H	0.446125	0.510240	0.410489
	O297	O	0.299278	0.647339	0.433193
	H298	H	0.286980	0.655189	0.429085
	H299	H	0.294452	0.652497	0.421451
	O300	O	0.723108	0.291693	0.217093
	H301	H	0.708258	0.301751	0.208277
	H302	H	0.725213	0.287038	0.207768
	O303	O	0.547905	0.360530	0.471390
	H304	H	0.556661	0.358221	0.480991
	H305	H	0.550740	0.372019	0.467508
	O306	O	1.176619	1.062044	1.117383
	H307	H	1.160457	1.075845	1.105797
	H308	H	1.169998	1.065019	1.124457
	O309	O	0.407768	0.646100	0.389744
	H310	H	0.406066	0.644699	0.400986
	H311	H	0.401812	0.652907	0.396511
	O312	O	0.127763	0.079754	0.014452
	H313	H	0.116704	0.073811	-0.010322
	H314	H	0.131909	0.091706	0.026060
	O315	O	0.453551	0.426237	0.553502
	H316	H	0.453209	0.426288	0.530586
	H317	H	0.461018	0.444213	0.553645
	O318	O	-0.185128	1.024614	0.914128
	H319	H	-0.182151	1.013206	0.916644
	H320	H	-0.196647	1.028503	0.902492
	O321	O	0.440066	0.358454	0.619626
	H322	H	0.426631	0.344740	0.609554
	H323	H	0.450824	0.357474	0.629704
	O324	O	0.466216	0.490702	-0.562839
	H325	H	0.469337	0.486506	-0.559889
	H326	H	0.479827	0.476500	-0.553887
	O327	O	-0.176369	0.827104	0.187200
	H328	H	-0.186134	0.828064	0.156960
	H329	H	-0.188945	0.821526	0.186679
	O330	O	0.108755	-0.136406	1.091089
	H331	H	0.119299	-0.121690	1.100808
	H332	H	0.094960	-0.137439	1.111748
	O333	O	-0.034707	0.010638	1.016420
	H334	H	-0.037421	0.024749	1.008479
	H335	H	-0.025842	0.001957	1.007056
	O336	O	0.412720	0.382603	0.452649
	H337	H	0.408414	0.381539	0.446912
	H338	H	0.425477	0.391852	0.462228
	O339	O	0.995014	0.183096	0.120231
	H340	H	0.969506	0.174119	0.119579
	H341	H	0.989375	0.197819	0.133763
	O342	O	-0.050901	0.005282	-0.061689
	H343	H	-0.041244	0.014179	-0.064962
	H344	H	-0.043647	0.004684	-0.060784
	O345	O	1.043290	-0.032620	0.918055
	H346	H	1.048317	-0.028607	0.935198
	H347	H	1.021032	-0.025698	0.921712
	O348	O	1.078458	0.862286	-0.061475
	H349	H	1.081395	0.865900	-0.069697
	H350	H	1.088851	0.862258	-0.051049
	O351	O	0.562639	0.380312	0.658333
	H352	H	0.570527	0.394611	0.648303
	H353	H	0.548905	0.368565	0.671814
	O354	O	0.967173	-0.035237	1.192743
	H355	H	0.956192	-0.037056	1.192309
	H356	H	0.959515	-0.045299	1.188489
	O357	O	0.545095	0.445897	0.563615
	H358	H	0.528932	0.456150	0.561132
	H359	H	0.560658	0.443897	0.570480
	O360	O	0.833893	-0.023151	-0.059535
	H361	H	0.838628	-0.024984	-0.051005
	H362	H	0.839507	-0.020651	-0.063350
	O363	O	-0.031158	0.873241	1.222704
	H364	H	-0.037578	0.841026	1.245433
	H365	H	-0.066415	0.879457	1.210706
	O366	O	0.648549	0.626654	0.536972
	H367	H	0.650649	0.618492	0.547851
	H368	H	0.641363	0.612627	0.534371
	O369	O	-0.519790	0.504773	-0.502500
	H370	H	-0.519564	0.505076	-0.494254
	H371	H	-0.528745	0.502678	-0.504488
	O372	O	0.455196	0.603243	0.519387
	H373	H	0.454564	0.603315	0.527270
	H374	H	0.446149	0.611546	0.506399
	O375	O	0.455984	0.553479	0.419634
	H376	H	0.458131	0.566604	0.423922
	H377	H	0.461603	0.558344	0.439066
	O378	O	1.428135	1.371550	-0.440175
	H379	H	1.409520	1.359173	-0.444483
	H380	H	1.428006	1.375392	-0.443122
	O381	O	0.970450	0.126982	-0.052775
	H382	H	0.955312	0.116940	-0.039986
	H383	H	0.962609	0.146630	-0.069288
	O384	O	0.836578	0.875141	-0.000563
	H385	H	0.835779	0.871806	-0.001960
	H386	H	0.838940	0.883623	-0.007112
	O387	O	0.081199	-0.030770	-0.015732
	H388	H	0.085134	-0.041205	-0.009132
	H389	H	0.090433	-0.025083	-0.006642
	O390	O	0.555894	1.402545	-0.419678
	H391	H	0.547256	1.396292	-0.429013
	H392	H	0.564042	1.384653	-0.429213
	O393	O	0.922547	1.094463	1.132524
	H394	H	0.932784	1.099278	1.120543
	H395	H	0.918737	1.096689	1.140756
	O396	O	0.178710	-0.008444	0.078763
	H397	H	0.178667	-0.024679	0.081818
	H398	H	0.197211	0.000649	0.098970
	O399	O	0.010007	1.045162	0.921182
	H400	H	0.010972	1.042151	0.918317
	H401	H	0.015266	1.048362	0.925195
	O402	O	0.335335	0.462190	0.633185
	H403	H	0.331630	0.442400	0.633450
	H404	H	0.330257	0.451488	0.630837
	O405	O	0.994463	1.088532	0.100322
	H406	H	0.996739	1.078287	0.109532
	H407	H	0.992854	1.086303	0.106275
	O408	O	1.507227	1.556399	-0.301588
	H409	H	1.504029	1.552695	-0.309062
	H410	H	1.514208	1.556644	-0.290926
	O411	O	0.948661	-0.189897	0.991876
	H412	H	0.954981	-0.202951	0.987440
	H413	H	0.948417	-0.186938	0.987424
	O414	O	0.662933	0.517910	0.405956
	H415	H	0.669312	0.524251	0.408383
	H416	H	0.663337	0.504027	0.410600
	O417	O	0.535732	0.502530	0.455810
	H418	H	0.529446	0.500291	0.460216
	H419	H	0.543168	0.506861	0.445395
