data_Molecule from HDF5

_cell_length_a		16.431577
_cell_length_b		16.384595
_cell_length_c		16.427638
_cell_angle_alpha	89.909902
_cell_angle_beta	89.928564
_cell_angle_gamma	90.109660
_symmetry_space_group_name_H-M	'P 1'
_symmetry_Int_Tables_number		1

loop_
	_symmetry_equiv_pos_as_xyz
	x,y,z

loop_
	_atom_site_label
	_atom_site_type_symbol
	_atom_site_fract_x
	_atom_site_fract_y
	_atom_site_fract_z
	H0	H	0.386244	0.861406	0.713689
	H1	H	0.596652	0.179932	0.708567
	H2	H	0.596334	0.862787	0.267845
	H3	H	0.387685	0.180070	0.272151
	H4	H	0.711738	0.417885	0.832070
	H5	H	0.714928	0.628515	0.148490
	H6	H	0.269279	0.628756	0.832740
	H7	H	0.270379	0.415799	0.149734
	H8	H	0.833056	0.739686	0.386162
	H9	H	0.150772	0.741090	0.595293
	H10	H	0.833206	0.298197	0.594665
	H11	H	0.152213	0.300712	0.387529
	H12	H	0.832682	0.414217	0.711845
	H13	H	0.152260	0.623706	0.710957
	H14	H	0.833417	0.622988	0.270579
	H15	H	0.150114	0.414032	0.268796
	H16	H	0.387406	0.742419	0.832089
	H17	H	0.595887	0.741895	0.149303
	H18	H	0.596034	0.302638	0.831185
	H19	H	0.384797	0.298594	0.148622
	H20	H	0.711388	0.860593	0.384932
	H21	H	0.713210	0.177928	0.594177
	H22	H	0.271599	0.859751	0.596692
	H23	H	0.271785	0.179492	0.387787
	H24	H	0.887007	0.360425	0.210232
	H25	H	0.097359	0.678899	0.212884
	H26	H	0.094714	0.361508	0.773656
	H27	H	0.886213	0.679298	0.768511
	H28	H	0.214882	0.911835	0.332387
	H29	H	0.211103	0.121549	0.649535
	H30	H	0.769602	0.126918	0.333056
	H31	H	0.767823	0.911350	0.649117
	H32	H	0.332686	0.239479	0.889295
	H33	H	0.650597	0.242313	0.094703
	H34	H	0.333472	0.798683	0.097069
	H35	H	0.650588	0.797854	0.884414
	H36	H	0.333200	0.915134	0.212766
	H37	H	0.649327	0.129163	0.213041
	H38	H	0.332835	0.123283	0.771783
	H39	H	0.650922	0.913746	0.768656
	H40	H	0.887857	0.240765	0.332413
	H41	H	0.098146	0.239132	0.648671
	H42	H	0.095247	0.799759	0.330741
	H43	H	0.886080	0.797008	0.650295
	H44	H	0.211400	0.362453	0.887898
	H45	H	0.212271	0.680205	0.096546
	H46	H	0.769321	0.362043	0.096488
	H47	H	0.771551	0.681019	0.885449
	H48	H	0.390470	0.137192	0.581838
	H49	H	0.581763	0.906015	0.578392
	H50	H	0.578094	0.131934	0.404066
	H51	H	0.401492	0.907789	0.405920
	H52	H	0.580986	0.434951	0.103722
	H53	H	0.578636	0.607106	0.879484
	H54	H	0.404246	0.605935	0.101841
	H55	H	0.396831	0.437875	0.877941
	H56	H	0.104724	0.603713	0.398348
	H57	H	0.878917	0.609928	0.579533
	H58	H	0.105033	0.434613	0.584313
	H59	H	0.879599	0.430178	0.400991
	H60	H	0.107184	0.425946	0.585254
	H61	H	0.880944	0.605444	0.579309
	H62	H	0.107146	0.613244	0.400163
	H63	H	0.878073	0.427828	0.401163
	H64	H	0.404550	0.613674	0.104553
	H65	H	0.579323	0.612674	0.877393
	H66	H	0.577987	0.431366	0.103113
	H67	H	0.408382	0.433095	0.879721
	H68	H	0.584274	0.133937	0.404897
	H69	H	0.579099	0.905235	0.582917
	H70	H	0.409652	0.133755	0.589427
	H71	H	0.399702	0.903598	0.397314
	H72	H	0.908854	0.632325	0.080429
	H73	H	0.084041	0.406955	0.078028
	H74	H	0.082784	0.635112	0.905645
	H75	H	0.900914	0.410063	0.908979
	H76	H	0.081743	0.928195	0.603925
	H77	H	0.082654	0.113521	0.374889
	H78	H	0.904797	0.104434	0.602940
	H79	H	0.902955	0.929192	0.378087
	H80	H	0.605265	0.113752	0.906493
	H81	H	0.378404	0.107200	0.082757
	H82	H	0.603123	0.936487	0.079896
	H83	H	0.384235	0.937353	0.908062
	H84	H	0.605743	0.932608	0.079889
	H85	H	0.377297	0.114742	0.081958
	H86	H	0.605674	0.105022	0.896119
	H87	H	0.378563	0.936130	0.893101
	H88	H	0.904389	0.108600	0.603697
	H89	H	0.086842	0.107072	0.375381
	H90	H	0.083842	0.931866	0.603246
	H91	H	0.900580	0.929364	0.377847
	H92	H	0.081438	0.636335	0.898495
	H93	H	0.081705	0.406290	0.083228
	H94	H	0.900148	0.632439	0.075689
	H95	H	0.894564	0.404681	0.899813
	H96	H	0.405741	0.128205	0.569659
	H97	H	0.577018	0.907514	0.578673
	H98	H	0.581001	0.134659	0.398865
	H99	H	0.408911	0.907660	0.399346
	H100	H	0.581870	0.431273	0.105894
	H101	H	0.584258	0.608889	0.877324
	H102	H	0.397617	0.609394	0.104923
	H103	H	0.399035	0.426115	0.873847
	H104	H	0.102455	0.607314	0.407511
	H105	H	0.879010	0.607119	0.583514
	H106	H	0.104370	0.428389	0.577043
	H107	H	0.879116	0.428905	0.402992
	H108	H	0.900551	0.636319	0.084953
	H109	H	0.078611	0.408138	0.078763
	H110	H	0.075776	0.633517	0.902756
	H111	H	0.906854	0.407331	0.898141
	H112	H	0.079273	0.931075	0.602758
	H113	H	0.079069	0.106895	0.377899
	H114	H	0.900898	0.106155	0.603887
	H115	H	0.901375	0.930934	0.378969
	H116	H	0.609659	0.117837	0.894051
	H117	H	0.379710	0.110326	0.076222
	H118	H	0.602968	0.933531	0.076107
	H119	H	0.377134	0.923607	0.903355
	C120	C	0.370620	0.027654	0.612498
	C121	C	0.612617	1.011136	0.611817
	C122	C	0.613106	0.028678	0.369240
	C123	C	0.371026	1.011654	0.369600
	C124	C	0.612059	0.400885	-0.000748
	C125	C	0.613007	0.642814	0.982157
	C126	C	0.370023	0.642444	-0.000690
	C127	C	0.369524	0.400007	0.982375
	C128	C	0.000098	0.639933	0.370087
	C129	C	0.984379	0.640351	0.612573
	C130	C	0.000671	0.397408	0.613512
	C131	C	0.983825	0.397504	0.369352
	C132	C	0.870317	0.528658	0.112354
	C133	C	0.113472	0.512108	0.112671
	C134	C	0.112003	0.529778	0.871203
	C135	C	0.869750	0.512654	0.869818
	C136	C	0.113386	0.897861	0.498558
	C137	C	0.114114	0.140171	0.481407
	C138	C	0.871596	0.139498	0.498692
	C139	C	0.869039	0.896760	0.482864
	C140	C	0.501106	0.142646	0.868759
	C141	C	0.483022	0.143588	0.112577
	C142	C	0.499634	0.900696	0.111847
	C143	C	0.484429	0.899089	0.869060
	C144	C	0.368464	0.908831	0.673262
	C145	C	0.615130	0.131618	0.669715
	C146	C	0.614916	0.909766	0.308352
	C147	C	0.369079	0.132068	0.311114
	C148	C	0.671759	0.399681	0.879414
	C149	C	0.674277	0.646298	0.101311
	C150	C	0.309506	0.646126	0.880271
	C151	C	0.310204	0.397781	0.101788
	C152	C	0.880523	0.699588	0.368052
	C153	C	0.103572	0.700611	0.614050
	C154	C	0.880915	0.337923	0.614043
	C155	C	0.104034	0.339542	0.368531
	C156	C	0.880844	0.395567	0.672471
	C157	C	0.104000	0.642725	0.672070
	C158	C	0.880490	0.641492	0.310618
	C159	C	0.102986	0.395904	0.309212
	C160	C	0.368339	0.702772	0.879823
	C161	C	0.615165	0.702825	0.101828
	C162	C	0.614351	0.341781	0.879397
	C163	C	0.367356	0.339380	0.101516
	C164	C	0.671927	0.908764	0.366987
	C165	C	0.673248	0.130645	0.612821
	C166	C	0.311303	0.907771	0.614759
	C167	C	0.311325	0.131535	0.368523
	C168	C	0.868090	0.408727	0.171465
	C169	C	0.115339	0.631485	0.172860
	C170	C	0.113456	0.409456	0.812811
	C171	C	0.868115	0.632127	0.809027
	C172	C	0.173852	0.894696	0.379523
	C173	C	0.172518	0.140721	0.601530
	C174	C	0.810504	0.143890	0.380247
	C175	C	0.808089	0.893230	0.601708
	C176	C	0.380678	0.200383	0.869357
	C177	C	0.602807	0.202869	0.113611
	C178	C	0.381016	0.839279	0.114876
	C179	C	0.603176	0.838249	0.866433
	C180	C	0.380829	0.897126	0.172763
	C181	C	0.602083	0.146186	0.172498
	C182	C	0.380633	0.142640	0.811160
	C183	C	0.603326	0.895803	0.808367
	C184	C	0.869537	0.200539	0.379855
	C185	C	0.116144	0.199365	0.601044
	C186	C	0.114283	0.838900	0.378734
	C187	C	0.867197	0.836458	0.602325
	C188	C	0.171511	0.409854	0.869589
	C189	C	0.172805	0.632124	0.115049
	C190	C	0.809472	0.409644	0.114743
	C191	C	0.811037	0.632772	0.867475
	C192	C	0.394963	0.111189	0.587322
	C193	C	0.586826	0.927760	0.587083
	C194	C	0.588239	0.111767	0.395058
	C195	C	0.396134	0.928218	0.393882
	C196	C	0.587251	0.425466	0.082541
	C197	C	0.588069	0.617153	0.899623
	C198	C	0.394915	0.617073	0.082207
	C199	C	0.394306	0.425157	0.898856
	C200	C	0.083043	0.615143	0.394999
	C201	C	0.901297	0.614756	0.587839
	C202	C	0.083890	0.422355	0.589118
	C203	C	0.900472	0.422148	0.394404
	C204	C	0.895887	0.612193	0.087462
	C205	C	0.088602	0.428661	0.087178
	C206	C	0.087238	0.613294	0.895509
	C207	C	0.893928	0.429040	0.894910
	C208	C	0.088723	0.923129	0.581737
	C209	C	0.089809	0.116066	0.397888
	C210	C	0.896202	0.113692	0.581745
	C211	C	0.894399	0.922314	0.399992
	C212	C	0.584939	0.118905	0.892158
	C213	C	0.400242	0.118041	0.087601
	C214	C	0.582321	0.926685	0.086001
	C215	C	0.401467	0.924977	0.894293
	Zn216	Zn	0.492836	0.020737	0.740999
	Zn217	Zn	0.491267	0.021769	0.240978
	Zn218	Zn	0.741385	0.521279	-0.008493
	Zn219	Zn	0.241233	0.521603	-0.009097
	Zn220	Zn	-0.007954	0.769140	0.490575
	Zn221	Zn	-0.007236	0.268858	0.490993
	Zn222	Zn	-0.007984	0.520012	0.742022
	Zn223	Zn	-0.008190	0.519424	0.240533
	Zn224	Zn	0.491827	0.771071	-0.009086
	Zn225	Zn	0.491929	0.271852	-0.009526
	Zn226	Zn	0.741264	0.019207	0.490781
	Zn227	Zn	0.242385	0.018708	0.490136
	N228	N	0.404610	0.984445	0.671941
	N229	N	0.578146	0.056252	0.669141
	N230	N	0.579510	0.985466	0.309357
	N231	N	0.405433	0.056521	0.311694
	N232	N	0.670824	0.435479	0.955009
	N233	N	0.673258	0.609906	0.026135
	N234	N	0.310219	0.609606	0.955588
	N235	N	0.311679	0.434934	0.026665
	N236	N	0.955873	0.698890	0.404238
	N237	N	0.028304	0.699276	0.577981
	N238	N	0.956537	0.338833	0.578255
	N239	N	0.028891	0.340271	0.405244
	N240	N	0.956237	0.431842	0.672277
	N241	N	0.028609	0.606035	0.671363
	N242	N	0.955706	0.605068	0.311890
	N243	N	0.027035	0.431057	0.309594
	N244	N	0.405327	0.700778	0.954780
	N245	N	0.577758	0.700575	0.027011
	N246	N	0.578026	0.342492	0.954801
	N247	N	0.403761	0.340744	0.026162
	N248	N	0.670937	0.983900	0.403959
	N249	N	0.671798	0.054659	0.577658
	N250	N	0.312572	0.982827	0.577443
	N251	N	0.312019	0.055551	0.403838
	N252	N	0.905246	0.483943	0.169907
	N253	N	0.079214	0.555768	0.171514
	N254	N	0.076960	0.484846	0.813827
	N255	N	0.903813	0.556396	0.810200
	N256	N	0.173609	0.930652	0.455043
	N257	N	0.171437	0.104492	0.526208
	N258	N	0.812069	0.106097	0.454955
	N259	N	0.808871	0.929744	0.526395
	N260	N	0.456641	0.200646	0.904089
	N261	N	0.527852	0.201421	0.077082
	N262	N	0.456030	0.841231	0.077738
	N263	N	0.528249	0.840235	0.903520
	N264	N	0.455565	0.934763	0.170797
	N265	N	0.526515	0.110105	0.172032
	N266	N	0.456663	0.107640	0.810468
	N267	N	0.528442	0.933021	0.810188
	N268	N	0.906914	0.197921	0.454580
	N269	N	0.080603	0.199300	0.525283
	N270	N	0.077637	0.840553	0.453907
	N271	N	0.904341	0.838428	0.527242
	N272	N	0.170886	0.485811	0.904982
	N273	N	0.171718	0.556902	0.078304
	N274	N	0.810702	0.485388	0.078788
	N275	N	0.811999	0.557510	0.904653
	O276	O	0.315808	0.478055	0.302341
	H277	H	0.300762	0.458469	0.304896
	H278	H	0.321156	0.490350	0.287504
	O279	O	0.447022	0.611956	0.695646
	H280	H	0.456206	0.626039	0.704290
	H281	H	0.450472	0.618047	0.690848
	O282	O	0.300091	0.713138	0.480685
	H283	H	0.301473	0.716349	0.469609
	H284	H	0.296263	0.721687	0.469833
	O285	O	1.618552	1.585591	0.611369
	H286	H	1.628429	1.589571	0.617042
	H287	H	1.610608	1.572799	0.601288
	O288	O	0.785241	0.046752	0.780039
	H289	H	0.793898	0.043692	0.774211
	H290	H	0.772779	0.037275	0.765652
	O291	O	0.316204	0.326621	0.513732
	H292	H	0.294371	0.323145	0.510491
	H293	H	0.310723	0.319490	0.531942
	O294	O	1.147438	1.176851	0.976772
	H295	H	1.120713	1.175976	0.974184
	H296	H	1.149932	1.157847	0.986498
	O297	O	0.478230	0.599908	0.438283
	H298	H	0.485053	0.606398	0.440735
	H299	H	0.484730	0.576528	0.443249
	O300	O	-0.325928	-0.406085	-0.328226
	H301	H	-0.312683	-0.401642	-0.336007
	H302	H	-0.332557	-0.384477	-0.340590
	O303	O	0.988482	0.201981	0.983749
	H304	H	0.987815	0.207946	0.966915
	H305	H	0.983241	0.191563	0.982518
	O306	O	-0.220333	-0.021803	1.202007
	H307	H	-0.221166	-0.032750	1.200540
	H308	H	-0.243906	-0.016085	1.219870
	O309	O	0.973936	-0.008271	0.094925
	H310	H	0.963195	-0.000517	0.086728
	H311	H	0.952070	-0.012636	0.105031
	O312	O	0.494431	0.715553	0.441150
	H313	H	0.491956	0.710209	0.425694
	H314	H	0.478041	0.709314	0.441609
	O315	O	0.527369	0.456473	0.466802
	H316	H	0.518459	0.449259	0.494580
	H317	H	0.522674	0.452543	0.465771
	O318	O	0.881040	-0.791272	0.091337
	H319	H	0.868680	-0.776963	0.078910
	H320	H	0.875950	-0.802103	0.079974
	O321	O	0.356482	0.322108	0.668641
	H322	H	0.348757	0.357242	0.680616
	H323	H	0.340123	0.312332	0.680428
	O324	O	0.863371	-0.185742	1.108363
	H325	H	0.844218	-0.204700	1.121544
	H326	H	0.847283	-0.174969	1.087440
	O327	O	-0.189301	1.204465	0.808911
	H328	H	-0.195562	1.185954	0.815754
	H329	H	-0.185698	1.201449	0.811706
	O330	O	0.183131	0.902966	0.873331
	H331	H	0.174168	0.904979	0.876027
	H332	H	0.185418	0.908441	0.873961
	O333	O	0.549206	0.484931	-0.693028
	H334	H	0.560969	0.485447	-0.672502
	H335	H	0.563979	0.462017	-0.715299
	O336	O	1.177355	0.862664	-0.195165
	H337	H	1.194869	0.882826	-0.188210
	H338	H	1.185885	0.883706	-0.166265
	O339	O	0.191547	0.909155	0.963443
	H340	H	0.210590	0.901810	0.969339
	H341	H	0.176746	0.910318	0.969715
	O342	O	0.676382	0.498453	0.578755
	H343	H	0.674863	0.512079	0.571220
	H344	H	0.680348	0.497313	0.576386
	O345	O	0.175418	0.206618	0.860650
	H346	H	0.190955	0.220591	0.889287
	H347	H	0.138518	0.198596	0.850930
	O348	O	0.490427	0.600399	0.560328
	H349	H	0.482980	0.594662	0.548766
	H350	H	0.487847	0.606781	0.551383
	O351	O	0.683415	0.329508	0.389589
	H352	H	0.657610	0.330448	0.390233
	H353	H	0.689678	0.318023	0.395858
	O354	O	0.456546	0.663647	1.310046
	H355	H	0.446818	0.651753	1.315254
	H356	H	0.460007	0.666569	1.302071
	O357	O	-0.217125	-0.078299	0.009332
	H358	H	-0.228504	-0.105501	0.008881
	H359	H	-0.214547	-0.083896	0.021994
	O360	O	1.051112	0.043038	0.852749
	H361	H	1.042440	0.026311	0.864975
	H362	H	1.057899	0.046302	0.861360
	O363	O	0.961425	-0.106882	0.012998
	H364	H	0.975048	-0.104880	0.021636
	H365	H	0.965362	-0.120567	0.017733
	O366	O	-0.072984	-0.003498	0.903444
	H367	H	-0.056949	0.003851	0.914192
	H368	H	-0.070194	-0.022410	0.887698
	O369	O	0.895523	0.024573	1.011947
	H370	H	0.891459	0.043007	0.996085
	H371	H	0.879879	0.011978	0.993347
	O372	O	0.462496	0.698412	0.383111
	H373	H	0.451889	0.687532	0.390319
	H374	H	0.492918	0.697627	0.373581
	O375	O	-0.152453	0.009193	0.970493
	H376	H	-0.143322	-0.005882	0.977742
	H377	H	-0.158061	-0.000730	0.972372
	O378	O	0.451865	0.538917	0.589049
	H379	H	0.452400	0.526015	0.575068
	H380	H	0.455554	0.555174	0.593179
	O381	O	-0.125288	1.163944	0.043039
	H382	H	-0.128341	1.172271	0.041032
	H383	H	-0.122055	1.160062	0.050476
	O384	O	0.650093	0.422779	0.351507
	H385	H	0.650580	0.415970	0.344064
	H386	H	0.639068	0.423870	0.366550
	O387	O	1.160768	0.103990	1.131671
	H388	H	1.146291	0.106118	1.131946
	H389	H	1.158260	0.099518	1.118128
	O390	O	1.062948	1.213868	0.178098
	H391	H	1.051699	1.213562	0.169700
	H392	H	1.061738	1.221577	0.181837
	O393	O	1.184877	0.017496	1.057801
	H394	H	1.188197	0.023253	1.075824
	H395	H	1.190199	0.008024	1.058232
	O396	O	0.493615	0.336687	0.344142
	H397	H	0.490585	0.350645	0.346520
	H398	H	0.486627	0.321749	0.338062
	O399	O	0.295417	0.462497	0.675861
	H400	H	0.290922	0.486024	0.683086
	H401	H	0.304170	0.470074	0.673871
	O402	O	1.090150	0.932433	-0.034001
	H403	H	1.072531	0.932210	-0.017839
	H404	H	1.102474	0.931007	-0.035680
	O405	O	-0.280444	-0.259391	0.400642
	H406	H	-0.306626	-0.273211	0.397792
	H407	H	-0.267433	-0.231185	0.405185
	O408	O	0.494388	0.508993	0.625955
	H409	H	0.489745	0.493335	0.630896
	H410	H	0.509632	0.508342	0.612574
	O411	O	1.135910	1.025810	1.188207
	H412	H	1.107010	1.028649	1.190576
	H413	H	1.160310	1.042403	1.212427
	O414	O	0.622862	0.648236	0.450223
	H415	H	0.619587	0.632837	0.454773
	H416	H	0.619402	0.646430	0.462623
	O417	O	-0.072406	0.848321	0.968238
	H418	H	-0.066355	0.846187	0.969845
	H419	H	-0.068571	0.855446	0.958989
	O420	O	0.334433	1.476550	1.486398
	H421	H	0.339125	1.486854	1.490278
	H422	H	0.329012	1.479770	1.493964
	O423	O	0.005602	0.849729	-0.207840
	H424	H	0.018855	0.823782	-0.232120
	H425	H	0.040820	0.858313	-0.206149
	O426	O	0.927685	-0.112516	0.179366
	H427	H	0.912486	-0.113644	0.161905
	H428	H	0.937142	-0.131233	0.184274
	O429	O	0.426747	0.419676	0.402134
	H430	H	0.420141	0.413744	0.408828
	H431	H	0.413267	0.427044	0.416765
	O432	O	0.601901	0.449029	0.503172
	H433	H	0.603736	0.450507	0.514119
	H434	H	0.589953	0.438873	0.508668
	O435	O	-0.008931	0.219051	-0.204578
	H436	H	-0.019489	0.217153	-0.213603
	H437	H	-0.032228	0.223649	-0.207913
	O438	O	-0.540654	1.554559	0.292532
	H439	H	-0.540319	1.555563	0.292846
	H440	H	-0.545460	1.562850	0.286563
	O441	O	0.457587	0.313657	0.701055
	H442	H	0.428745	0.306090	0.712432
	H443	H	0.446618	0.311588	0.719185
