data_Molecule from HDF5

_cell_length_a		16.240428
_cell_length_b		16.426420
_cell_length_c		16.322211
_cell_angle_alpha	90.154954
_cell_angle_beta	89.694382
_cell_angle_gamma	89.959593
_symmetry_space_group_name_H-M	'P 1'
_symmetry_Int_Tables_number		1

loop_
	_symmetry_equiv_pos_as_xyz
	x,y,z

loop_
	_atom_site_label
	_atom_site_type_symbol
	_atom_site_fract_x
	_atom_site_fract_y
	_atom_site_fract_z
	H0	H	0.399308	0.842231	0.723783
	H1	H	0.602647	0.163606	0.718488
	H2	H	0.607337	0.841951	0.281776
	H3	H	0.400586	0.163488	0.288470
	H4	H	0.719472	0.403668	0.840901
	H5	H	0.720760	0.605998	0.164793
	H6	H	0.288442	0.602901	0.840359
	H7	H	0.287000	0.404001	0.165763
	H8	H	0.841867	0.716601	0.400094
	H9	H	0.165462	0.718716	0.605384
	H10	H	0.839651	0.284554	0.603261
	H11	H	0.165960	0.280169	0.399602
	H12	H	0.840793	0.400505	0.719993
	H13	H	0.167974	0.598994	0.717144
	H14	H	0.840697	0.598936	0.288736
	H15	H	0.167043	0.397962	0.284824
	H16	H	0.400958	0.721008	0.841526
	H17	H	0.607027	0.723588	0.163775
	H18	H	0.607624	0.284778	0.842200
	H19	H	0.398533	0.284832	0.164368
	H20	H	0.720436	0.839502	0.400373
	H21	H	0.721911	0.161316	0.604440
	H22	H	0.286145	0.840100	0.605484
	H23	H	0.283543	0.161766	0.404195
	H24	H	0.902079	0.340282	0.219090
	H25	H	0.106371	0.661136	0.222745
	H26	H	0.106260	0.339097	0.785750
	H27	H	0.903415	0.662287	0.784387
	H28	H	0.224369	0.895897	0.342172
	H29	H	0.214885	0.098160	0.666843
	H30	H	0.791084	0.095717	0.340259
	H31	H	0.786495	0.900393	0.665752
	H32	H	0.340676	0.220207	0.904934
	H33	H	0.666680	0.219299	0.103610
	H34	H	0.341683	0.784668	0.107633
	H35	H	0.665550	0.786762	0.900436
	H36	H	0.340743	0.902969	0.221325
	H37	H	0.665825	0.103008	0.219583
	H38	H	0.338878	0.103621	0.789369
	H39	H	0.665477	0.903943	0.786868
	H40	H	0.901668	0.215814	0.341701
	H41	H	0.106806	0.218937	0.663145
	H42	H	0.107225	0.780333	0.341531
	H43	H	0.900583	0.782334	0.664733
	H44	H	0.222895	0.340783	0.901208
	H45	H	0.217697	0.664355	0.102084
	H46	H	0.784876	0.342041	0.103581
	H47	H	0.787714	0.664160	0.902942
	H48	H	0.408270	0.117243	0.596717
	H49	H	0.592945	0.886760	0.596626
	H50	H	0.588178	0.113780	0.410520
	H51	H	0.413836	0.885955	0.406904
	H52	H	0.588484	0.410838	0.117399
	H53	H	0.587922	0.588559	0.893221
	H54	H	0.418213	0.588764	0.114515
	H55	H	0.417700	0.407841	0.888752
	H56	H	0.119084	0.585852	0.409535
	H57	H	0.887534	0.593620	0.593550
	H58	H	0.121912	0.408151	0.601681
	H59	H	0.885069	0.402952	0.406973
	H60	H	0.120321	0.399554	0.588106
	H61	H	0.890117	0.588615	0.591723
	H62	H	0.121086	0.594974	0.410281
	H63	H	0.890707	0.405188	0.418638
	H64	H	0.414974	0.604086	0.120017
	H65	H	0.592711	0.605846	0.885485
	H66	H	0.596359	0.407047	0.121267
	H67	H	0.410294	0.410815	0.886638
	H68	H	0.599932	0.114017	0.420107
	H69	H	0.593435	0.886687	0.595393
	H70	H	0.410174	0.116174	0.597183
	H71	H	0.420546	0.890833	0.414971
	H72	H	0.906798	0.618315	0.094368
	H73	H	0.097315	0.387407	0.090638
	H74	H	0.099792	0.617216	0.908602
	H75	H	0.920254	0.388770	0.907320
	H76	H	0.091068	0.919370	0.612844
	H77	H	0.092409	0.081946	0.391050
	H78	H	0.910881	0.095747	0.620312
	H79	H	0.909857	0.909281	0.387311
	H80	H	0.616152	0.089744	0.915113
	H81	H	0.383888	0.100519	0.102658
	H82	H	0.617648	0.914691	0.092391
	H83	H	0.385211	0.909706	0.913161
	H84	H	0.619076	0.911517	0.092950
	H85	H	0.388549	0.099799	0.088137
	H86	H	0.621420	0.093300	0.902892
	H87	H	0.387848	0.911460	0.917146
	H88	H	0.909058	0.090353	0.618489
	H89	H	0.088036	0.094489	0.387886
	H90	H	0.081894	0.899181	0.617195
	H91	H	0.916549	0.908471	0.389759
	H92	H	0.094260	0.616362	0.906108
	H93	H	0.097505	0.385805	0.095299
	H94	H	0.915271	0.617742	0.102943
	H95	H	0.911243	0.390190	0.919965
	H96	H	0.409328	0.116305	0.595349
	H97	H	0.594660	0.886199	0.595631
	H98	H	0.600923	0.118582	0.405821
	H99	H	0.409465	0.888659	0.417610
	H100	H	0.596369	0.416457	0.118418
	H101	H	0.605734	0.592021	0.885774
	H102	H	0.402552	0.593170	0.119522
	H103	H	0.415859	0.415803	0.890182
	H104	H	0.118648	0.589584	0.417642
	H105	H	0.888256	0.589024	0.597358
	H106	H	0.115203	0.414722	0.588324
	H107	H	0.889663	0.414336	0.409861
	H108	H	0.917509	0.613783	0.092367
	H109	H	0.092995	0.388363	0.093197
	H110	H	0.095269	0.614651	0.911958
	H111	H	0.904940	0.384369	0.907164
	H112	H	0.104107	0.903383	0.622868
	H113	H	0.100738	0.090490	0.385295
	H114	H	0.914663	0.091475	0.618596
	H115	H	0.912965	0.902650	0.387310
	H116	H	0.620372	0.102270	0.912791
	H117	H	0.389201	0.087150	0.096826
	H118	H	0.618237	0.912828	0.089997
	H119	H	0.388227	0.913717	0.913520
	C120	C	0.379380	0.010708	0.627006
	C121	C	0.623997	0.993032	0.624898
	C122	C	0.626017	0.009269	0.380977
	C123	C	0.382424	0.993955	0.383013
	C124	C	0.624650	0.381876	0.011805
	C125	C	0.625239	0.625639	0.994891
	C126	C	0.381878	0.625226	0.011170
	C127	C	0.382752	0.381683	0.995012
	C128	C	0.012023	0.619972	0.382688
	C129	C	0.995790	0.620442	0.623841
	C130	C	0.011921	0.377629	0.623961
	C131	C	0.995914	0.377160	0.380800
	C132	C	0.881919	0.510575	0.125666
	C133	C	0.125485	0.493460	0.124016
	C134	C	0.126864	0.509519	0.879646
	C135	C	0.882841	0.494105	0.881493
	C136	C	0.124412	0.877096	0.511156
	C137	C	0.123400	0.120053	0.494736
	C138	C	0.881976	0.120869	0.511987
	C139	C	0.881487	0.877057	0.494698
	C140	C	0.511341	0.124799	0.881868
	C141	C	0.494764	0.125215	0.125140
	C142	C	0.511695	0.882262	0.124191
	C143	C	0.494438	0.881981	0.882696
	C144	C	0.380040	0.890057	0.684907
	C145	C	0.623104	0.114888	0.680764
	C146	C	0.626495	0.889656	0.321390
	C147	C	0.381686	0.114997	0.326659
	C148	C	0.681699	0.383232	0.889814
	C149	C	0.681948	0.625153	0.116561
	C150	C	0.326222	0.623249	0.889054
	C151	C	0.324837	0.383346	0.116757
	C152	C	0.890308	0.677486	0.381917
	C153	C	0.117722	0.678677	0.623822
	C154	C	0.888988	0.322179	0.623259
	C155	C	0.117524	0.319134	0.380347
	C156	C	0.889400	0.379790	0.681335
	C157	C	0.118821	0.619288	0.679344
	C158	C	0.889687	0.618787	0.326344
	C159	C	0.118172	0.377749	0.323302
	C160	C	0.382164	0.682376	0.889790
	C161	C	0.625394	0.683791	0.115926
	C162	C	0.625803	0.324160	0.890435
	C163	C	0.380420	0.323870	0.116101
	C164	C	0.682944	0.888416	0.380521
	C165	C	0.682271	0.113738	0.623685
	C166	C	0.323623	0.888875	0.625972
	C167	C	0.323139	0.114143	0.384179
	C168	C	0.882273	0.388922	0.181146
	C169	C	0.125041	0.613812	0.182571
	C170	C	0.126370	0.387943	0.823507
	C171	C	0.884233	0.614863	0.824042
	C172	C	0.184166	0.876984	0.390243
	C173	C	0.178326	0.118781	0.617489
	C174	C	0.827416	0.117317	0.389370
	C175	C	0.824186	0.879109	0.616709
	C176	C	0.389026	0.181664	0.884417
	C177	C	0.617752	0.181161	0.123481
	C178	C	0.390028	0.823992	0.126247
	C179	C	0.616639	0.825185	0.881415
	C180	C	0.389555	0.882631	0.182934
	C181	C	0.617574	0.123683	0.181207
	C182	C	0.388229	0.123554	0.826977
	C183	C	0.616528	0.883477	0.824966
	C184	C	0.882721	0.176751	0.390002
	C185	C	0.124226	0.178844	0.615594
	C186	C	0.126261	0.819187	0.389971
	C187	C	0.881258	0.820735	0.616405
	C188	C	0.184133	0.388594	0.881249
	C189	C	0.180831	0.615156	0.122954
	C190	C	0.823803	0.389805	0.123847
	C191	C	0.826657	0.615803	0.882969
	C192	C	0.402408	0.094958	0.603279
	C193	C	0.600569	0.908601	0.602362
	C194	C	0.602904	0.093637	0.405295
	C195	C	0.407385	0.910084	0.406278
	C196	C	0.600742	0.404875	0.096972
	C197	C	0.602044	0.602346	0.910210
	C198	C	0.405102	0.602080	0.096146
	C199	C	0.407491	0.404813	0.910380
	C200	C	0.097446	0.596906	0.405874
	C201	C	0.910746	0.597292	0.600893
	C202	C	0.097223	0.400624	0.599833
	C203	C	0.910525	0.400783	0.404732
	C204	C	0.906013	0.594696	0.103068
	C205	C	0.102720	0.409149	0.099964
	C206	C	0.103360	0.594090	0.902202
	C207	C	0.905434	0.409691	0.904859
	C208	C	0.099452	0.900665	0.595990
	C209	C	0.100457	0.096029	0.410152
	C210	C	0.904715	0.098861	0.597140
	C211	C	0.905993	0.899877	0.409965
	C212	C	0.597021	0.101803	0.903866
	C213	C	0.409502	0.102496	0.102546
	C214	C	0.596384	0.906167	0.099157
	C215	C	0.409119	0.904852	0.907543
	Zn216	Zn	0.502008	0.002934	0.754179
	Zn217	Zn	0.503612	0.003084	0.252470
	Zn218	Zn	0.753034	0.503600	0.003360
	Zn219	Zn	0.254594	0.502557	0.002405
	Zn220	Zn	0.003067	0.748443	0.502787
	Zn221	Zn	0.003173	0.249023	0.502722
	Zn222	Zn	0.004483	0.499932	0.751840
	Zn223	Zn	0.004532	0.500452	0.253862
	Zn224	Zn	0.503429	0.753559	0.003207
	Zn225	Zn	0.503930	0.253044	0.003877
	Zn226	Zn	0.753921	-0.000168	0.503310
	Zn227	Zn	0.251945	0.000011	0.503910
	N228	N	0.414245	0.966660	0.685430
	N229	N	0.587437	0.038984	0.681547
	N230	N	0.591830	0.966025	0.321571
	N231	N	0.417986	0.039303	0.325840
	N232	N	0.681054	0.418493	0.966373
	N233	N	0.682039	0.589531	0.040195
	N234	N	0.325838	0.588576	0.965517
	N235	N	0.326398	0.418575	0.040397
	N236	N	0.967481	0.678348	0.416092
	N237	N	0.040204	0.679787	0.590001
	N238	N	0.966247	0.320890	0.588403
	N239	N	0.040382	0.318794	0.415408
	N240	N	0.966836	0.413468	0.681964
	N241	N	0.042265	0.583699	0.679345
	N242	N	0.966642	0.583690	0.326508
	N243	N	0.041306	0.413085	0.323385
	N244	N	0.416253	0.683607	0.966820
	N245	N	0.590727	0.683874	0.039332
	N246	N	0.590958	0.323210	0.967549
	N247	N	0.415687	0.322646	0.039480
	N248	N	0.682631	0.964004	0.416946
	N249	N	0.682979	0.037024	0.589799
	N250	N	0.323010	0.964775	0.590736
	N251	N	0.323540	0.037823	0.418557
	N252	N	0.917666	0.464954	0.182445
	N253	N	0.091499	0.536980	0.183604
	N254	N	0.091783	0.464188	0.822155
	N255	N	0.918507	0.538201	0.823218
	N256	N	0.183179	0.912081	0.466732
	N257	N	0.177875	0.082615	0.541354
	N258	N	0.826999	0.083243	0.466214
	N259	N	0.824116	0.913260	0.540032
	N260	N	0.466601	0.182551	0.917591
	N261	N	0.540354	0.182502	0.089623
	N262	N	0.466723	0.823763	0.090435
	N263	N	0.539461	0.824087	0.916617
	N264	N	0.466171	0.918342	0.181471
	N265	N	0.540302	0.089823	0.182455
	N266	N	0.465465	0.089014	0.825345
	N267	N	0.539492	0.917945	0.825530
	N268	N	0.915602	0.179389	0.467386
	N269	N	0.090761	0.179706	0.538368
	N270	N	0.089809	0.819290	0.466295
	N271	N	0.916055	0.819345	0.539382
	N272	N	0.184680	0.465303	0.915313
	N273	N	0.180984	0.539413	0.086902
	N274	N	0.822920	0.466521	0.090473
	N275	N	0.825609	0.539705	0.917884
	O276	O	-0.081190	0.024680	-0.099908
	H277	H	-0.078729	0.019828	-0.101134
	H278	H	-0.092980	0.028160	-0.116341
	O279	O	0.542654	0.346821	0.370471
	H280	H	0.554887	0.345052	0.362363
	H281	H	0.540653	0.348860	0.366485
	O282	O	1.439338	0.566078	0.381214
	H283	H	1.439410	0.560605	0.369537
	H284	H	1.440938	0.558445	0.376202
	O285	O	-0.482069	0.517979	0.504579
	H286	H	-0.491634	0.533918	0.499816
	H287	H	-0.472465	0.524531	0.495369
	O288	O	0.476494	0.606944	0.593596
	H289	H	0.478965	0.607848	0.580077
	H290	H	0.477536	0.619378	0.600261
	O291	O	0.600589	0.403933	0.376745
	H292	H	0.606820	0.385336	0.379676
	H293	H	0.610581	0.407272	0.383543
	O294	O	1.066582	0.899197	1.032916
	H295	H	1.068350	0.905082	1.007854
	H296	H	1.058081	0.894228	1.035312
	O297	O	0.053271	-0.028230	0.098555
	H298	H	0.064579	-0.037070	0.095864
	H299	H	0.060162	-0.034477	0.095835
	O300	O	0.419005	0.466698	0.464980
	H301	H	0.419840	0.476430	0.471017
	H302	H	0.416204	0.475917	0.452473
	O303	O	-0.108614	0.886569	0.998189
	H304	H	-0.096872	0.888559	1.007147
	H305	H	-0.103140	0.885889	1.001729
	O306	O	0.632840	0.515342	0.663881
	H307	H	0.632296	0.512188	0.678651
	H308	H	0.605450	0.526220	0.661275
	O309	O	0.950973	0.105439	0.169219
	H310	H	0.956662	0.104234	0.174911
	H311	H	0.949359	0.095194	0.156033
	O312	O	0.080754	-0.008390	1.059031
	H313	H	0.079491	-0.006320	1.051916
	H314	H	0.076288	-0.009005	1.058025
	O315	O	-0.067166	1.008442	0.118053
	H316	H	-0.060469	1.000652	0.114477
	H317	H	-0.065328	1.000474	0.110131
	O318	O	0.671680	0.454776	0.329836
	H319	H	0.681961	0.445018	0.321458
	H320	H	0.671745	0.441857	0.329839
	O321	O	0.365275	0.452317	0.650495
	H322	H	0.352552	0.451988	0.646419
	H323	H	0.353414	0.456327	0.652477
	O324	O	0.436992	0.394190	0.661018
	H325	H	0.430314	0.380006	0.653352
	H326	H	0.421476	0.396456	0.667529
	O327	O	0.523587	0.522074	0.532558
	H328	H	0.530372	0.519677	0.548030
	H329	H	0.523812	0.526985	0.535842
	O330	O	0.394260	0.434017	0.450555
	H331	H	0.396661	0.434615	0.456556
	H332	H	0.388731	0.422317	0.454538
	O333	O	-0.030408	0.959355	0.961074
	H334	H	-0.033895	0.936088	0.946193
	H335	H	-0.038692	0.961475	0.960282
	O336	O	0.965933	0.998229	1.045001
	H337	H	0.957310	1.002751	1.037704
	H338	H	0.968560	0.994257	1.058677
	O339	O	0.413914	0.573966	0.619557
	H340	H	0.404012	0.584906	0.618130
	H341	H	0.420380	0.573382	0.603686
	O342	O	1.065682	-0.060707	-0.035276
	H343	H	1.080857	-0.073759	-0.032623
	H344	H	1.077307	-0.051414	-0.039434
	O345	O	0.673804	0.665702	0.518951
	H346	H	0.684264	0.670909	0.524824
	H347	H	0.671906	0.668934	0.510866
	O348	O	1.092961	1.070814	1.015879
	H349	H	1.090921	1.072338	1.012764
	H350	H	1.086485	1.067793	1.013554
	O351	O	0.972647	1.163033	-0.083221
	H352	H	0.986934	1.170386	-0.092175
	H353	H	0.961867	1.159971	-0.087122
	O354	O	0.559603	0.554025	0.476390
	H355	H	0.571630	0.548222	0.476775
	H356	H	0.570097	0.537842	0.476983
	O357	O	-0.013687	-0.042690	-0.093179
	H358	H	-0.025982	-0.035421	-0.099381
	H359	H	-0.016599	-0.051889	-0.102464
	O360	O	0.149947	-0.054199	-0.049371
	H361	H	0.164637	-0.057099	-0.056476
	H362	H	0.149039	-0.051411	-0.048767
	O363	O	0.524200	0.656784	0.572642
	H364	H	0.526166	0.664874	0.550309
	H365	H	0.528498	0.639978	0.562538
	O366	O	-0.015824	-0.009620	-0.102172
	H367	H	-0.013397	-0.016577	-0.095023
	H368	H	-0.016077	0.000521	-0.084119
	O369	O	0.658943	0.360814	0.553202
	H370	H	0.651994	0.372142	0.554792
	H371	H	0.658746	0.351754	0.563908
	O372	O	0.415529	0.459873	0.400466
	H373	H	0.417375	0.458441	0.411086
	H374	H	0.421526	0.451125	0.392034
	O375	O	0.397165	0.681880	0.430809
	H376	H	0.404842	0.671017	0.420923
	H377	H	0.382163	0.688152	0.416963
	O378	O	0.536405	0.578914	0.605346
	H379	H	0.538570	0.579733	0.616864
	H380	H	0.533196	0.588256	0.602902
	O381	O	0.446880	0.466383	0.481214
	H382	H	0.430116	0.473620	0.485503
	H383	H	0.443964	0.455059	0.486733
	O384	O	0.129536	1.127384	0.133691
	H385	H	0.132434	1.132628	0.158984
	H386	H	0.141821	1.126822	0.121970
	O387	O	0.874109	0.040853	0.888803
	H388	H	0.879148	0.033529	0.881884
	H389	H	0.860194	0.034692	0.890984
	O390	O	0.027994	1.022633	0.000704
	H391	H	0.032083	1.024732	-0.003447
	H392	H	0.031197	1.026700	0.005921
	O393	O	1.002236	1.051640	0.066784
	H394	H	0.999778	1.048608	0.074267
	H395	H	1.007071	1.068023	0.072152
	O396	O	0.503875	0.617753	0.370068
	H397	H	0.509526	0.595722	0.359709
	H398	H	0.513346	0.613673	0.376871
	O399	O	0.042505	1.087430	0.902917
	H400	H	0.027681	1.094057	0.899880
	H401	H	0.036697	1.091211	0.909095
	O402	O	0.926181	0.969277	1.072769
	H403	H	0.909352	0.973580	1.067373
	H404	H	0.936609	0.968457	1.076080
	O405	O	0.487039	0.352264	0.509851
	H406	H	0.501032	0.350228	0.510224
	H407	H	0.490959	0.361029	0.506941
