data_Molecule from HDF5

_cell_length_a		16.549376
_cell_length_b		16.536858
_cell_length_c		16.716485
_cell_angle_alpha	90.046884
_cell_angle_beta	89.987283
_cell_angle_gamma	89.989771
_symmetry_space_group_name_H-M	'P 1'
_symmetry_Int_Tables_number		1

loop_
	_symmetry_equiv_pos_as_xyz
	x,y,z

loop_
	_atom_site_label
	_atom_site_type_symbol
	_atom_site_fract_x
	_atom_site_fract_y
	_atom_site_fract_z
	H0	H	0.396766	0.851488	0.689716
	H1	H	0.606003	0.165741	0.691479
	H2	H	0.608426	0.853735	0.248984
	H3	H	0.400025	0.167202	0.251448
	H4	H	0.719838	0.407076	0.813343
	H5	H	0.724525	0.614812	0.124751
	H6	H	0.281155	0.612999	0.814505
	H7	H	0.282097	0.407270	0.125760
	H8	H	0.843423	0.730070	0.366117
	H9	H	0.156809	0.731139	0.574949
	H10	H	0.844285	0.291635	0.571215
	H11	H	0.158926	0.292770	0.368206
	H12	H	0.846579	0.403136	0.692070
	H13	H	0.154831	0.619926	0.695023
	H14	H	0.844206	0.615410	0.248332
	H15	H	0.157633	0.406447	0.249664
	H16	H	0.399162	0.728202	0.813806
	H17	H	0.607742	0.731652	0.125351
	H18	H	0.601012	0.292823	0.812000
	H19	H	0.397085	0.288305	0.124906
	H20	H	0.719910	0.851778	0.369282
	H21	H	0.720467	0.166790	0.573809
	H22	H	0.283514	0.851304	0.570930
	H23	H	0.283301	0.167440	0.367988
	H24	H	0.895599	0.352709	0.190404
	H25	H	0.105686	0.665723	0.190071
	H26	H	0.110163	0.354763	0.745481
	H27	H	0.894679	0.664903	0.748269
	H28	H	0.221154	0.906014	0.314045
	H29	H	0.221404	0.113696	0.625721
	H30	H	0.778152	0.115147	0.316741
	H31	H	0.779771	0.903778	0.625721
	H32	H	0.342480	0.225166	0.869277
	H33	H	0.659287	0.226129	0.069459
	H34	H	0.344442	0.789784	0.073752
	H35	H	0.658587	0.788426	0.867573
	H36	H	0.346508	0.903625	0.192592
	H37	H	0.659191	0.112832	0.188475
	H38	H	0.343170	0.110390	0.752281
	H39	H	0.657902	0.902796	0.749240
	H40	H	0.895757	0.231150	0.315798
	H41	H	0.103738	0.229029	0.625959
	H42	H	0.104524	0.788686	0.314356
	H43	H	0.894454	0.785150	0.624139
	H44	H	0.223003	0.353053	0.863942
	H45	H	0.220444	0.666343	0.072396
	H46	H	0.781455	0.351819	0.072754
	H47	H	0.779021	0.664552	0.864466
	H48	H	0.408026	0.123887	0.562623
	H49	H	0.592018	0.895475	0.562166
	H50	H	0.591509	0.122566	0.380139
	H51	H	0.415390	0.899019	0.383498
	H52	H	0.595696	0.419441	0.081876
	H53	H	0.587735	0.598858	0.860401
	H54	H	0.411439	0.598164	0.080652
	H55	H	0.409452	0.417833	0.856856
	H56	H	0.113746	0.598805	0.377016
	H57	H	0.889041	0.602556	0.554757
	H58	H	0.112515	0.424228	0.556205
	H59	H	0.889546	0.424323	0.380339
	H60	H	0.115118	0.423745	0.562938
	H61	H	0.893331	0.590087	0.554144
	H62	H	0.113065	0.600101	0.380064
	H63	H	0.886204	0.419651	0.373477
	H64	H	0.412548	0.600232	0.081243
	H65	H	0.591561	0.597599	0.859823
	H66	H	0.589750	0.418459	0.080518
	H67	H	0.410652	0.419039	0.858597
	H68	H	0.591118	0.123426	0.379061
	H69	H	0.587888	0.896792	0.561529
	H70	H	0.414528	0.122351	0.564511
	H71	H	0.407951	0.895746	0.380547
	H72	H	0.910104	0.620297	0.052875
	H73	H	0.092277	0.395785	0.062078
	H74	H	0.093509	0.620977	0.885214
	H75	H	0.916370	0.396852	0.878142
	H76	H	0.089857	0.924438	0.579263
	H77	H	0.090778	0.103207	0.356837
	H78	H	0.918968	0.105184	0.581280
	H79	H	0.914896	0.923939	0.361976
	H80	H	0.614403	0.105236	0.883046
	H81	H	0.387085	0.097722	0.064802
	H82	H	0.616042	0.915988	0.059822
	H83	H	0.388709	0.916695	0.881557
	H84	H	0.611695	0.921951	0.054591
	H85	H	0.388009	0.101175	0.060048
	H86	H	0.611865	0.092755	0.880300
	H87	H	0.390546	0.922373	0.881326
	H88	H	0.904776	0.103743	0.585667
	H89	H	0.095819	0.099401	0.357285
	H90	H	0.087313	0.915343	0.580600
	H91	H	0.912969	0.917668	0.358837
	H92	H	0.088010	0.622414	0.875875
	H93	H	0.088011	0.397448	0.060205
	H94	H	0.909234	0.624126	0.064270
	H95	H	0.913247	0.398179	0.883386
	H96	H	0.412502	0.120580	0.558479
	H97	H	0.590994	0.897709	0.558514
	H98	H	0.590486	0.122372	0.379699
	H99	H	0.414981	0.896279	0.374989
	H100	H	0.592448	0.414483	0.083398
	H101	H	0.588630	0.595246	0.861281
	H102	H	0.410559	0.599796	0.081770
	H103	H	0.411061	0.417001	0.857794
	H104	H	0.111958	0.597087	0.379395
	H105	H	0.887642	0.594559	0.565406
	H106	H	0.115093	0.417621	0.558396
	H107	H	0.887245	0.416062	0.381149
	H108	H	0.919596	0.619585	0.060582
	H109	H	0.092012	0.396405	0.057784
	H110	H	0.082913	0.617717	0.884323
	H111	H	0.910226	0.395061	0.878638
	H112	H	0.096057	0.918438	0.583687
	H113	H	0.089941	0.097393	0.359560
	H114	H	0.911387	0.091988	0.578760
	H115	H	0.908258	0.922914	0.359563
	H116	H	0.617080	0.100399	0.871578
	H117	H	0.390216	0.095365	0.060153
	H118	H	0.613805	0.924336	0.062980
	H119	H	0.388016	0.919556	0.876255
	C120	C	0.380041	0.018001	0.591955
	C121	C	0.621950	1.000831	0.591833
	C122	C	0.622938	0.018510	0.349120
	C123	C	0.381930	1.001533	0.349352
	C124	C	0.622499	0.387570	-0.021888
	C125	C	0.622715	0.630109	0.962540
	C126	C	0.379849	0.630846	-0.021558
	C127	C	0.379213	0.387321	0.961021
	C128	C	0.009064	0.630751	0.348023
	C129	C	0.992769	0.629737	0.590623
	C130	C	0.010621	0.389242	0.590929
	C131	C	0.991824	0.388642	0.347676
	C132	C	0.880411	0.517677	0.090709
	C133	C	0.122123	0.500546	0.091156
	C134	C	0.121874	0.517826	0.848516
	C135	C	0.880401	0.500131	0.848440
	C136	C	0.122451	0.887934	0.478181
	C137	C	0.123274	0.131660	0.460999
	C138	C	0.879252	0.131830	0.479487
	C139	C	0.879848	0.888734	0.462397
	C140	C	0.509737	0.129789	0.848410
	C141	C	0.493031	0.129659	0.091117
	C142	C	0.510635	0.888223	0.091728
	C143	C	0.493110	0.887526	0.848660
	C144	C	0.378545	0.899078	0.649861
	C145	C	0.624213	0.118720	0.651544
	C146	C	0.625897	0.900413	0.289582
	C147	C	0.381264	0.120272	0.291316
	C148	C	0.679804	0.388215	0.860010
	C149	C	0.683768	0.633012	0.078665
	C150	C	0.321104	0.631620	0.861022
	C151	C	0.321151	0.387221	0.078793
	C152	C	0.890675	0.690126	0.347174
	C153	C	0.109892	0.691314	0.593419
	C154	C	0.892009	0.330029	0.591481
	C155	C	0.110975	0.330813	0.347994
	C156	C	0.892920	0.385668	0.651118
	C157	C	0.108770	0.636012	0.653139
	C158	C	0.891034	0.633222	0.288565
	C159	C	0.110483	0.387286	0.289160
	C160	C	0.379447	0.689252	0.860873
	C161	C	0.625781	0.691055	0.078848
	C162	C	0.621066	0.331051	0.859575
	C163	C	0.378370	0.328416	0.078347
	C164	C	0.681316	0.899515	0.349275
	C165	C	0.681069	0.119272	0.593078
	C166	C	0.322063	0.898794	0.591118
	C167	C	0.323304	0.120389	0.349034
	C168	C	0.877666	0.399614	0.150253
	C169	C	0.124148	0.618789	0.150340
	C170	C	0.126683	0.401198	0.786561
	C171	C	0.876953	0.617791	0.788559
	C172	C	0.181354	0.886975	0.360750
	C173	C	0.181678	0.132500	0.578600
	C174	C	0.818849	0.133792	0.362840
	C175	C	0.819617	0.885607	0.579084
	C176	C	0.390432	0.186700	0.849373
	C177	C	0.612104	0.187293	0.089667
	C178	C	0.392082	0.829102	0.093169
	C179	C	0.611546	0.828302	0.848235
	C180	C	0.392956	0.885672	0.151980
	C181	C	0.612038	0.131242	0.148881
	C182	C	0.390651	0.129487	0.791311
	C183	C	0.611115	0.884862	0.789384
	C184	C	0.876883	0.191687	0.362601
	C185	C	0.123201	0.189961	0.578784
	C186	C	0.123400	0.828750	0.360878
	C187	C	0.876787	0.826850	0.578230
	C188	C	0.183192	0.400501	0.845338
	C189	C	0.180930	0.619148	0.091812
	C190	C	0.820936	0.399149	0.091816
	C191	C	0.819504	0.617754	0.846389
	C192	C	0.404693	0.100731	0.568712
	C193	C	0.597369	0.918365	0.567622
	C194	C	0.598278	0.101162	0.372903
	C195	C	0.405741	0.918666	0.372949
	C196	C	0.599331	0.410743	0.060455
	C197	C	0.596824	0.604476	0.881538
	C198	C	0.404343	0.606457	0.060063
	C199	C	0.403210	0.411245	0.879017
	C200	C	0.091479	0.605894	0.372072
	C201	C	0.911326	0.603259	0.565276
	C202	C	0.092836	0.414605	0.566205
	C203	C	0.908985	0.413156	0.371404
	C204	C	0.905718	0.600045	0.065991
	C205	C	0.097774	0.418029	0.066960
	C206	C	0.095625	0.599171	0.874487
	C207	C	0.905853	0.418156	0.873231
	C208	C	0.098082	0.912430	0.559824
	C209	C	0.098958	0.107117	0.379251
	C210	C	0.904454	0.107217	0.560836
	C211	C	0.904816	0.914257	0.381271
	C212	C	0.592842	0.106149	0.871606
	C213	C	0.410015	0.105100	0.068292
	C214	C	0.592609	0.913442	0.066347
	C215	C	0.410776	0.912433	0.872720
	Zn216	Zn	0.501397	0.008260	0.720284
	Zn217	Zn	0.502431	0.009429	0.219911
	Zn218	Zn	0.752106	0.508602	-0.029989
	Zn219	Zn	0.250479	0.509364	-0.030302
	Zn220	Zn	0.000506	0.758718	0.470098
	Zn221	Zn	0.001300	0.260648	0.469893
	Zn222	Zn	0.001516	0.509660	0.719477
	Zn223	Zn	0.000308	0.509431	0.219059
	Zn224	Zn	0.501660	0.759741	-0.029542
	Zn225	Zn	0.501114	0.257975	-0.029762
	Zn226	Zn	0.750485	0.009973	0.470988
	Zn227	Zn	0.252218	0.009486	0.469872
	N228	N	0.413704	0.974226	0.650712
	N229	N	0.588295	0.043977	0.650972
	N230	N	0.590363	0.975483	0.289242
	N231	N	0.416651	0.045309	0.291049
	N232	N	0.681220	0.422258	0.934788
	N233	N	0.682042	0.595867	0.005268
	N234	N	0.321070	0.596264	0.935286
	N235	N	0.321506	0.423030	0.004696
	N236	N	0.965082	0.688878	0.383344
	N237	N	0.036587	0.687807	0.555213
	N238	N	0.966176	0.332104	0.554765
	N239	N	0.036070	0.331164	0.383402
	N240	N	0.967867	0.421566	0.651090
	N241	N	0.035007	0.598283	0.651322
	N242	N	0.965728	0.596905	0.288855
	N243	N	0.035174	0.422194	0.288539
	N244	N	0.414983	0.689408	0.935113
	N245	N	0.588375	0.689282	0.005529
	N246	N	0.586307	0.330201	0.934075
	N247	N	0.413555	0.328083	0.003980
	N248	N	0.679857	0.974033	0.385482
	N249	N	0.679913	0.044917	0.556717
	N250	N	0.322530	0.973869	0.555802
	N251	N	0.323251	0.045337	0.384251
	N252	N	0.913728	0.474299	0.149645
	N253	N	0.088374	0.543988	0.150192
	N254	N	0.089312	0.475258	0.788304
	N255	N	0.914079	0.543612	0.789482
	N256	N	0.181274	0.922882	0.434842
	N257	N	0.182143	0.097070	0.504196
	N258	N	0.820182	0.097256	0.436599
	N259	N	0.821484	0.923504	0.506093
	N260	N	0.465601	0.187197	0.884024
	N261	N	0.537082	0.186578	0.054647
	N262	N	0.466371	0.830179	0.056559
	N263	N	0.537064	0.829580	0.884253
	N264	N	0.467710	0.921671	0.151287
	N265	N	0.536752	0.096261	0.150095
	N266	N	0.466216	0.094976	0.790213
	N267	N	0.536400	0.920884	0.789450
	N268	N	0.913758	0.190736	0.436076
	N269	N	0.087823	0.189837	0.504453
	N270	N	0.087537	0.829056	0.434843
	N271	N	0.913655	0.828654	0.504790
	N272	N	0.180334	0.473908	0.883370
	N273	N	0.179992	0.544528	0.055681
	N274	N	0.822378	0.473672	0.055425
	N275	N	0.821304	0.543466	0.882864
	O276	O	0.053260	0.795935	0.021012
	H277	H	0.052676	0.796169	0.032623
	H278	H	0.067581	0.793595	0.021759
	O279	O	0.598736	0.493394	0.486967
	H280	H	0.597004	0.502874	0.484821
	H281	H	0.593722	0.495679	0.501315
	O282	O	1.040484	0.054442	1.052308
	H283	H	1.046430	0.062226	1.066479
	H284	H	1.042814	0.032273	1.072964
	O285	O	0.564565	0.425655	0.598355
	H286	H	0.551987	0.432860	0.598340
	H287	H	0.582759	0.444716	0.597259
	O288	O	0.273253	0.557180	0.522117
	H289	H	0.265169	0.569739	0.542434
	H290	H	0.280229	0.574570	0.529752
	O291	O	0.027798	-0.104205	0.158818
	H292	H	0.038848	-0.107807	0.166284
	H293	H	0.032254	-0.109669	0.165969
	O294	O	1.092984	0.048210	0.749093
	H295	H	1.081403	0.042234	0.750586
	H296	H	1.078062	0.041483	0.746134
	O297	O	-0.215124	1.041662	0.750914
	H298	H	-0.224480	1.050390	0.748069
	H299	H	-0.226752	1.062648	0.743070
	O300	O	0.211969	0.211675	1.180851
	H301	H	0.237005	0.244020	1.213991
	H302	H	0.160438	0.217058	1.190063
	O303	O	0.287927	0.442324	0.403369
	H304	H	0.283545	0.451773	0.430397
	H305	H	0.288226	0.439114	0.425068
	O306	O	0.289896	0.548134	0.255745
	H307	H	0.292196	0.524335	0.265301
	H308	H	0.271301	0.533526	0.248263
	O309	O	0.779449	0.227520	0.925940
	H310	H	0.761257	0.247832	0.905485
	H311	H	0.776461	0.233638	0.895793
	O312	O	0.443286	0.448825	0.250059
	H313	H	0.461180	0.459744	0.243003
	H314	H	0.457412	0.452716	0.250733
	O315	O	1.043290	1.223506	1.189449
	H316	H	1.029592	1.247053	1.206424
	H317	H	1.019315	1.219860	1.169799
	O318	O	0.537776	0.622847	0.319361
	H319	H	0.535780	0.624979	0.326876
	H320	H	0.537894	0.630420	0.315340
	O321	O	0.402618	1.685898	0.564716
	H322	H	0.389376	1.678005	0.558165
	H323	H	0.394827	1.691436	0.572400
	O324	O	1.062588	1.237510	-0.095381
	H325	H	1.079957	1.241081	-0.093500
	H326	H	1.058336	1.239140	-0.081417
	O327	O	0.103180	-0.112840	0.810587
	H328	H	0.112382	-0.103539	0.824988
	H329	H	0.095680	-0.103279	0.821220
	O330	O	0.776374	-0.045922	0.915448
	H331	H	0.779771	-0.050561	0.926984
	H332	H	0.774502	-0.041118	0.908025
	O333	O	0.712187	0.717839	0.508138
	H334	H	0.717115	0.722057	0.515462
	H335	H	0.722805	0.728088	0.503624
	O336	O	1.188581	0.194892	-0.210607
	H337	H	1.170578	0.185397	-0.184953
	H338	H	1.172297	0.167649	-0.203212
	O339	O	1.030078	-0.969883	0.944685
	H340	H	1.025715	-0.960937	0.948313
	H341	H	1.036970	-0.974227	0.943321
	O342	O	-0.094969	0.109443	0.195851
	H343	H	-0.097918	0.096256	0.192801
	H344	H	-0.102671	0.116325	0.197137
	O345	O	-0.261655	1.273403	1.230913
	H346	H	-0.277981	1.276239	1.224830
	H347	H	-0.261939	1.270692	1.239305
	O348	O	0.189151	0.003518	-0.112776
	H349	H	0.193877	0.020330	-0.105203
	H350	H	0.180596	0.013266	-0.111913
	O351	O	0.711982	0.713627	0.679543
	H352	H	0.683137	0.719767	0.662531
	H353	H	0.741739	0.747919	0.707643
	O354	O	-0.512883	0.287343	1.478233
	H355	H	-0.525547	0.284396	1.474404
	H356	H	-0.516542	0.289905	1.470226
	O357	O	-0.043827	0.024883	0.124341
	H358	H	-0.055799	0.038759	0.127493
	H359	H	-0.041206	0.013702	0.130001
	O360	O	0.501282	0.290139	0.630039
	H361	H	0.500447	0.272425	0.631376
	H362	H	0.503823	0.296172	0.631493
	O363	O	0.550865	0.513624	0.552235
	H364	H	0.565697	0.501010	0.557670
	H365	H	0.562768	0.528794	0.544400
	O366	O	0.718537	0.532781	0.687449
	H367	H	0.734688	0.551596	0.696640
	H368	H	0.726044	0.561722	0.695334
	O369	O	1.221042	-0.036632	0.017794
	H370	H	1.223685	-0.038652	0.033163
	H371	H	1.214823	-0.028532	0.033249
	O372	O	0.600383	0.596482	0.407545
	H373	H	0.581612	0.606512	0.412746
	H374	H	0.607077	0.616243	0.389484
	O375	O	0.526681	-0.698277	0.257600
	H376	H	0.542580	-0.701700	0.260820
	H377	H	0.527696	-0.702908	0.249033
	O378	O	0.959923	0.973640	0.736190
	H379	H	0.951221	0.967729	0.740896
	H380	H	0.945424	0.975176	0.736109
	O381	O	-0.087646	1.053193	1.025699
	H382	H	-0.088186	1.049391	1.015350
	H383	H	-0.090858	1.050509	1.022221
	O384	O	1.218758	-0.209669	0.936185
	H385	H	1.218794	-0.205885	0.914193
	H386	H	1.244815	-0.221248	0.935407
	O387	O	1.219323	1.040702	0.183957
	H388	H	1.219982	1.073983	0.187240
	H389	H	1.236790	1.056272	0.204952
	O390	O	0.278896	0.729396	0.435570
	H391	H	0.262719	0.752924	0.422344
	H392	H	0.279766	0.735861	0.404360
	O393	O	0.419276	0.569248	0.587272
	H394	H	0.426567	0.572813	0.580524
	H395	H	0.428747	0.547538	0.582277
	O396	O	-0.242657	0.772882	1.211562
	H397	H	-0.242308	0.782861	1.204037
	H398	H	-0.235878	0.784365	1.212315
	O399	O	-0.063600	0.225566	1.061120
	H400	H	-0.075264	0.226428	1.046941
	H401	H	-0.072889	0.215238	1.051136
	O402	O	0.374078	0.308392	0.465374
	H403	H	0.360082	0.312370	0.478002
	H404	H	0.357638	0.298212	0.473772
	O405	O	0.964049	0.221531	0.756842
	H406	H	0.969491	0.232120	0.744592
	H407	H	0.973579	0.221518	0.772216
	O408	O	0.315127	0.325707	0.281136
	H409	H	0.328146	0.347333	0.304316
	H410	H	0.340172	0.345588	0.290743
	O411	O	0.620452	0.393014	0.388129
	H412	H	0.631238	0.396150	0.383241
	H413	H	0.619576	0.405664	0.403319
	O414	O	0.540166	0.726857	0.690380
	H415	H	0.542211	0.743419	0.699409
	H416	H	0.537308	0.734517	0.687472
	O417	O	-0.048347	0.822920	1.139897
	H418	H	-0.057145	0.815769	1.145714
	H419	H	-0.044119	0.824294	1.152127
	O420	O	-0.058526	0.786283	0.915453
	H421	H	-0.042062	0.782920	0.909915
	H422	H	-0.049274	0.783770	0.924962
	O423	O	0.028226	-0.197810	0.757776
	H424	H	0.043240	-0.197273	0.757035
	H425	H	0.045262	-0.206083	0.753188
	O426	O	0.283794	0.490347	0.682267
	H427	H	0.275878	0.470874	0.691304
	H428	H	0.283774	0.469300	0.696631
	O429	O	0.645113	0.583169	0.322975
	H430	H	0.639515	0.595512	0.337783
	H431	H	0.652335	0.593493	0.319084
	O432	O	0.515644	0.672269	0.484205
	H433	H	0.501455	0.670146	0.472304
	H434	H	0.506240	0.671045	0.487892
	O435	O	-0.210245	0.796608	0.004597
	H436	H	-0.217808	0.783250	0.009991
	H437	H	-0.204426	0.794528	-0.003408
	O438	O	0.212702	-0.086425	-0.218371
	H439	H	0.238857	-0.092359	-0.245150
	H440	H	0.206001	-0.058334	-0.207337
	O441	O	-0.182317	-0.178893	-0.217742
	H442	H	-0.153636	-0.165820	-0.208839
	H443	H	-0.172590	-0.159519	-0.193875
	O444	O	0.706731	0.381699	0.258024
	H445	H	0.717568	0.371359	0.260554
	H446	H	0.707917	0.395033	0.265090
	O447	O	0.291809	1.303008	1.677304
	H448	H	0.284245	1.277199	1.702271
	H449	H	0.320402	1.294995	1.690829
	O450	O	0.220784	1.227725	1.010260
	H451	H	0.225924	1.233876	1.043742
	H452	H	0.238388	1.241419	1.026603
	O453	O	0.370143	0.436024	0.490789
	H454	H	0.356991	0.424864	0.497857
	H455	H	0.372624	0.430692	0.499391
	O456	O	-0.177740	0.073365	0.980294
	H457	H	-0.190965	0.093449	0.969048
	H458	H	-0.181920	0.059539	0.971734
	O459	O	0.453831	0.554599	0.674522
	H460	H	0.465463	0.569476	0.674468
	H461	H	0.447099	0.547026	0.678696
	O462	O	0.822743	-0.051004	1.185679
	H463	H	0.815948	-0.041910	1.170681
	H464	H	0.826331	-0.054264	1.193470
	O465	O	0.968226	0.030994	-0.035123
	H466	H	0.969812	0.036805	-0.039611
	H467	H	0.976013	0.038864	-0.029309
	O468	O	0.692381	0.322345	0.657383
	H469	H	0.667284	0.330865	0.634740
	H470	H	0.684853	0.351298	0.639948
	O471	O	0.791961	0.219643	0.759019
	H472	H	0.831977	0.211304	0.749287
	H473	H	0.762618	0.252509	0.724049
	O474	O	0.137875	0.867165	0.057713
	H475	H	0.126876	0.889979	0.060425
	H476	H	0.132047	0.859945	0.034277
	O477	O	0.653467	0.360640	1.495202
	H478	H	0.651536	0.351619	1.490007
	H479	H	0.660774	0.373447	1.504236
	O480	O	0.379078	0.582153	0.380125
	H481	H	0.402898	0.572284	0.385024
	H482	H	0.360166	0.561619	0.394621
	O483	O	0.245995	0.764850	0.220154
	H484	H	0.234696	0.772630	0.202151
	H485	H	0.249759	0.737217	0.217519
	O486	O	1.475837	-0.276375	1.254617
	H487	H	1.468694	-0.257060	1.237533
	H488	H	1.461327	-0.283018	1.267132
	O489	O	1.726148	0.530799	0.448964
	H490	H	1.725563	0.548586	0.436919
	H491	H	1.722472	0.535516	0.447598
