data_Molecule from HDF5

_cell_length_a		16.221366
_cell_length_b		16.373825
_cell_length_c		16.296886
_cell_angle_alpha	90.061295
_cell_angle_beta	90.092431
_cell_angle_gamma	90.329413
_symmetry_space_group_name_H-M	'P 1'
_symmetry_Int_Tables_number		1

loop_
	_symmetry_equiv_pos_as_xyz
	x,y,z

loop_
	_atom_site_label
	_atom_site_type_symbol
	_atom_site_fract_x
	_atom_site_fract_y
	_atom_site_fract_z
	H0	H	0.391875	0.837623	0.714984
	H1	H	0.594139	0.163025	0.714959
	H2	H	0.589861	0.837743	0.284664
	H3	H	0.395409	0.163718	0.284939
	H4	H	0.705234	0.405455	0.834943
	H5	H	0.708715	0.599681	0.164259
	H6	H	0.279760	0.597784	0.836237
	H7	H	0.281412	0.403371	0.163652
	H8	H	0.829621	0.714645	0.399430
	H9	H	0.156558	0.716947	0.600424
	H10	H	0.829372	0.285227	0.598024
	H11	H	0.157102	0.285973	0.399868
	H12	H	0.829157	0.401530	0.713519
	H13	H	0.157172	0.600833	0.715187
	H14	H	0.829031	0.598291	0.284538
	H15	H	0.157394	0.403223	0.285214
	H16	H	0.393702	0.715959	0.837134
	H17	H	0.594699	0.718365	0.162694
	H18	H	0.594194	0.284351	0.836797
	H19	H	0.393694	0.284634	0.162242
	H20	H	0.707081	0.836968	0.400181
	H21	H	0.708798	0.162705	0.597832
	H22	H	0.277008	0.837823	0.597158
	H23	H	0.280817	0.164292	0.403846
	H24	H	0.893878	0.338174	0.213665
	H25	H	0.094475	0.663474	0.215600
	H26	H	0.092374	0.338059	0.784281
	H27	H	0.894925	0.662843	0.783549
	H28	H	0.205257	0.903436	0.336002
	H29	H	0.207761	0.099510	0.663523
	H30	H	0.779857	0.096728	0.336322
	H31	H	0.778056	0.901749	0.663853
	H32	H	0.329829	0.214452	0.899554
	H33	H	0.657746	0.215497	0.097337
	H34	H	0.330403	0.785013	0.098535
	H35	H	0.657951	0.787392	0.899858
	H36	H	0.329158	0.902236	0.212468
	H37	H	0.657640	0.100536	0.214341
	H38	H	0.329500	0.098391	0.784386
	H39	H	0.657751	0.903946	0.785232
	H40	H	0.893881	0.214547	0.337289
	H41	H	0.094416	0.218056	0.662949
	H42	H	0.093367	0.783673	0.337964
	H43	H	0.890722	0.782822	0.662867
	H44	H	0.207208	0.337349	0.902202
	H45	H	0.210488	0.663264	0.098954
	H46	H	0.777703	0.338627	0.098008
	H47	H	0.780583	0.664078	0.901401
	H48	H	0.402881	0.119145	0.603559
	H49	H	0.581883	0.885787	0.591456
	H50	H	0.597927	0.119653	0.404589
	H51	H	0.403295	0.887083	0.407897
	H52	H	0.591164	0.408563	0.117449
	H53	H	0.594121	0.597430	0.881486
	H54	H	0.406165	0.597969	0.116312
	H55	H	0.405812	0.408149	0.885072
	H56	H	0.109095	0.590827	0.406632
	H57	H	0.877488	0.587717	0.593432
	H58	H	0.109330	0.406930	0.589700
	H59	H	0.874286	0.399883	0.406594
	H60	H	0.109507	0.412195	0.593194
	H61	H	0.875165	0.594850	0.593596
	H62	H	0.110756	0.596514	0.406571
	H63	H	0.879202	0.409865	0.413477
	H64	H	0.397730	0.593363	0.117220
	H65	H	0.586491	0.587548	0.885947
	H66	H	0.582668	0.411764	0.113226
	H67	H	0.400512	0.402582	0.881064
	H68	H	0.578229	0.115896	0.398293
	H69	H	0.587165	0.884151	0.591237
	H70	H	0.409509	0.111382	0.587144
	H71	H	0.393211	0.884365	0.408593
	H72	H	0.911269	0.612650	0.088394
	H73	H	0.093681	0.384837	0.088417
	H74	H	0.091116	0.619084	0.902447
	H75	H	0.901019	0.386193	0.909251
	H76	H	0.084209	0.908288	0.616434
	H77	H	0.093121	0.096779	0.380450
	H78	H	0.896077	0.095737	0.618800
	H79	H	0.894026	0.908993	0.383678
	H80	H	0.611289	0.099032	0.908865
	H81	H	0.375592	0.099638	0.087934
	H82	H	0.609284	0.910582	0.090758
	H83	H	0.374852	0.905973	0.901911
	H84	H	0.610854	0.909830	0.094256
	H85	H	0.379924	0.087040	0.088526
	H86	H	0.608241	0.090196	0.909202
	H87	H	0.376968	0.903023	0.911579
	H88	H	0.901121	0.088291	0.614668
	H89	H	0.084510	0.086867	0.386246
	H90	H	0.084968	0.908124	0.615932
	H91	H	0.905309	0.910092	0.386951
	H92	H	0.080510	0.613689	0.906811
	H93	H	0.087170	0.383294	0.101879
	H94	H	0.893197	0.617824	0.087353
	H95	H	0.895922	0.383933	0.905930
	H96	H	0.390790	0.117766	0.588105
	H97	H	0.584273	0.884095	0.595397
	H98	H	0.584254	0.111399	0.418071
	H99	H	0.398648	0.882803	0.398919
	H100	H	0.583103	0.402353	0.116481
	H101	H	0.581052	0.599717	0.883868
	H102	H	0.405547	0.589372	0.113513
	H103	H	0.397595	0.410210	0.882895
	H104	H	0.108427	0.593965	0.411251
	H105	H	0.877964	0.592383	0.588151
	H106	H	0.110949	0.407155	0.595269
	H107	H	0.876347	0.411414	0.400842
	H108	H	0.902110	0.619933	0.103374
	H109	H	0.078355	0.387894	0.089833
	H110	H	0.089888	0.614357	0.914014
	H111	H	0.901063	0.384358	0.902931
	H112	H	0.084352	0.908107	0.616738
	H113	H	0.079456	0.100533	0.384129
	H114	H	0.905826	0.096864	0.616580
	H115	H	0.901417	0.900426	0.382924
	H116	H	0.611648	0.093374	0.901210
	H117	H	0.374494	0.093203	0.099345
	H118	H	0.611208	0.907256	0.091211
	H119	H	0.379547	0.912764	0.908740
	C120	C	0.371404	0.008479	0.621221
	C121	C	0.614728	0.992176	0.621458
	C122	C	0.614900	0.008212	0.377885
	C123	C	0.370778	0.992373	0.377226
	C124	C	0.614560	0.379474	0.007781
	C125	C	0.615925	0.623509	0.991925
	C126	C	0.373399	0.622056	0.007926
	C127	C	0.372342	0.378473	0.991010
	C128	C	0.001349	0.622106	0.378476
	C129	C	0.984988	0.621604	0.621046
	C130	C	0.001747	0.379483	0.621260
	C131	C	0.984775	0.378932	0.377892
	C132	C	0.872304	0.509298	0.121280
	C133	C	0.116103	0.492498	0.122314
	C134	C	0.115651	0.508763	0.878644
	C135	C	0.871589	0.492462	0.877753
	C136	C	0.113039	0.879865	0.508353
	C137	C	0.114503	0.123011	0.491893
	C138	C	0.871957	0.121816	0.508850
	C139	C	0.870596	0.877474	0.492054
	C140	C	0.501906	0.122070	0.877694
	C141	C	0.485035	0.122353	0.120963
	C142	C	0.502043	0.879885	0.120846
	C143	C	0.485488	0.879445	0.878178
	C144	C	0.372449	0.886133	0.676637
	C145	C	0.613485	0.114311	0.676821
	C146	C	0.610969	0.886057	0.322635
	C147	C	0.374372	0.115260	0.322932
	C148	C	0.668889	0.383368	0.884348
	C149	C	0.670945	0.620481	0.115098
	C150	C	0.317799	0.618499	0.885240
	C151	C	0.317819	0.381750	0.114206
	C152	C	0.878210	0.676588	0.379856
	C153	C	0.107801	0.678593	0.620024
	C154	C	0.878352	0.323467	0.618915
	C155	C	0.108108	0.324129	0.380119
	C156	C	0.878145	0.381284	0.676249
	C157	C	0.108304	0.620688	0.676997
	C158	C	0.878078	0.618458	0.322848
	C159	C	0.108398	0.382258	0.322956
	C160	C	0.373964	0.677567	0.885479
	C161	C	0.614475	0.679494	0.114459
	C162	C	0.613342	0.323591	0.885086
	C163	C	0.374273	0.323215	0.113800
	C164	C	0.669041	0.885703	0.380349
	C165	C	0.670607	0.114277	0.618635
	C166	C	0.315243	0.886205	0.618199
	C167	C	0.317373	0.115470	0.381766
	C168	C	0.873569	0.386956	0.176277
	C169	C	0.114500	0.614857	0.177505
	C170	C	0.112879	0.386463	0.822910
	C171	C	0.874788	0.614779	0.822383
	C172	C	0.168178	0.882226	0.385286
	C173	C	0.170166	0.120567	0.614764
	C174	C	0.817275	0.117779	0.385357
	C175	C	0.815358	0.880438	0.614871
	C176	C	0.378767	0.177168	0.879004
	C177	C	0.608577	0.177830	0.118387
	C178	C	0.379074	0.823351	0.118860
	C179	C	0.608839	0.824831	0.879742
	C180	C	0.378456	0.881560	0.175501
	C181	C	0.608497	0.120779	0.176535
	C182	C	0.378580	0.119327	0.822026
	C183	C	0.608771	0.882879	0.822917
	C184	C	0.873969	0.176244	0.385782
	C185	C	0.113521	0.179174	0.614542
	C186	C	0.112457	0.823006	0.386063
	C187	C	0.871056	0.821186	0.614269
	C188	C	0.169901	0.386081	0.881333
	C189	C	0.172392	0.614677	0.119755
	C190	C	0.815900	0.387134	0.118602
	C191	C	0.817900	0.615249	0.880855
	C192	C	0.394336	0.093829	0.599404
	C193	C	0.591262	0.906655	0.599239
	C194	C	0.593107	0.093668	0.400378
	C195	C	0.392070	0.906912	0.398899
	C196	C	0.592206	0.401086	0.093509
	C197	C	0.593702	0.601488	0.905951
	C198	C	0.396545	0.600096	0.093646
	C199	C	0.394724	0.400394	0.905128
	C200	C	0.087250	0.600162	0.401490
	C201	C	0.899175	0.598450	0.598330
	C202	C	0.087603	0.402107	0.599212
	C203	C	0.898810	0.400642	0.400327
	C204	C	0.895574	0.594731	0.099397
	C205	C	0.093047	0.407198	0.099903
	C206	C	0.093548	0.593809	0.901124
	C207	C	0.893065	0.407028	0.899753
	C208	C	0.090717	0.901613	0.594069
	C209	C	0.092185	0.101136	0.406071
	C210	C	0.894313	0.099844	0.594490
	C211	C	0.893543	0.899926	0.406608
	C212	C	0.588097	0.100583	0.899834
	C213	C	0.398927	0.099825	0.098523
	C214	C	0.588182	0.902643	0.098638
	C215	C	0.399329	0.900862	0.900824
	Zn216	Zn	0.492957	0.000322	0.749866
	Zn217	Zn	0.493155	0.001072	0.248713
	Zn218	Zn	0.743274	0.501322	-0.000417
	Zn219	Zn	0.244691	0.500045	-0.000110
	Zn220	Zn	-0.007426	0.750170	0.500433
	Zn221	Zn	-0.006588	0.250824	0.499925
	Zn222	Zn	-0.006376	0.500504	0.749609
	Zn223	Zn	-0.006321	0.500831	0.250001
	Zn224	Zn	0.494060	0.751620	-0.000422
	Zn225	Zn	0.493648	0.250193	-0.000991
	Zn226	Zn	0.743482	0.000043	0.499963
	Zn227	Zn	0.242200	0.000707	0.499709
	N228	N	0.406621	0.963224	0.678485
	N229	N	0.579349	0.037193	0.678584
	N230	N	0.578064	0.963306	0.321191
	N231	N	0.406733	0.037852	0.319993
	N232	N	0.669818	0.417579	0.961584
	N233	N	0.672101	0.586722	0.037744
	N234	N	0.317169	0.584991	0.962494
	N235	N	0.316595	0.415428	0.036886
	N236	N	0.955836	0.679122	0.413707
	N237	N	0.030079	0.679132	0.585893
	N238	N	0.955974	0.322544	0.585176
	N239	N	0.030163	0.321788	0.413394
	N240	N	0.955778	0.415464	0.677834
	N241	N	0.031021	0.585806	0.677709
	N242	N	0.955923	0.585435	0.321752
	N243	N	0.030734	0.415613	0.321444
	N244	N	0.407821	0.679925	0.962860
	N245	N	0.581121	0.681531	0.036762
	N246	N	0.580312	0.321227	0.962731
	N247	N	0.407358	0.320993	0.036132
	N248	N	0.671625	0.962846	0.413961
	N249	N	0.671484	0.037259	0.585066
	N250	N	0.314395	0.963225	0.584520
	N251	N	0.314882	0.038029	0.414706
	N252	N	0.908040	0.463927	0.177771
	N253	N	0.080271	0.537742	0.179319
	N254	N	0.079701	0.463604	0.821148
	N255	N	0.907367	0.537436	0.820289
	N256	N	0.168780	0.916966	0.462362
	N257	N	0.171184	0.086585	0.537499
	N258	N	0.816002	0.084504	0.462930
	N259	N	0.814705	0.914591	0.537892
	N260	N	0.456368	0.178961	0.913071
	N261	N	0.530892	0.178932	0.084496
	N262	N	0.456916	0.822473	0.085327
	N263	N	0.531100	0.822537	0.913422
	N264	N	0.455929	0.916077	0.176672
	N265	N	0.530717	0.086879	0.177848
	N266	N	0.456058	0.085773	0.821019
	N267	N	0.531042	0.916058	0.821927
	N268	N	0.907076	0.179000	0.463414
	N269	N	0.079853	0.180846	0.537045
	N270	N	0.078770	0.821533	0.463456
	N271	N	0.904527	0.819008	0.536744
	N272	N	0.171723	0.462942	0.915285
	N273	N	0.173250	0.537804	0.085989
	N274	N	0.815179	0.464227	0.084996
	N275	N	0.816006	0.538241	0.914755
	O276	O	0.503874	0.510295	0.471610
	H277	H	0.505499	0.510306	0.475623
	H278	H	0.506209	0.508743	0.471038
	O279	O	0.479545	0.453959	0.547979
	H280	H	0.476711	0.451047	0.547677
	H281	H	0.481431	0.455047	0.550741
	O282	O	0.467953	0.491154	0.478963
	H283	H	0.471818	0.491351	0.480075
	H284	H	0.464742	0.495954	0.481019
	O285	O	0.039173	0.976405	1.012043
	H286	H	0.032601	0.983256	1.016497
	H287	H	0.049949	0.982539	1.019336
	O288	O	1.061825	0.987581	0.024563
	H289	H	1.049997	0.992369	0.021829
	H290	H	1.072311	0.986591	0.019832
	O291	O	-0.028015	0.033906	1.009025
	H292	H	-0.016573	0.035985	1.014854
	H293	H	-0.023430	0.024116	1.006966
	O294	O	0.514656	0.513666	0.444044
	H295	H	0.511572	0.513351	0.442257
	H296	H	0.520006	0.515646	0.443525
	O297	O	0.499077	0.454604	0.484404
	H298	H	0.495609	0.448187	0.491132
	H299	H	0.499850	0.449333	0.486675
	O300	O	0.514533	0.519815	0.559437
	H301	H	0.511695	0.521808	0.560565
	H302	H	0.520443	0.526476	0.559220
	O303	O	0.481751	0.484412	0.514620
	H304	H	0.487784	0.483572	0.510033
	H305	H	0.479817	0.487459	0.517253
	O306	O	1.015867	-0.043670	1.032241
	H307	H	1.008752	-0.040580	1.031849
	H308	H	1.008932	-0.044791	1.035663
	O309	O	0.477104	0.526701	0.505945
	H310	H	0.486585	0.540305	0.499414
	H311	H	0.482417	0.525865	0.510899
	O312	O	0.497197	0.506134	0.510706
	H313	H	0.498035	0.500940	0.505436
	H314	H	0.491155	0.506470	0.512780
	O315	O	1.037362	0.010777	1.042284
	H316	H	1.046612	0.008970	1.054424
	H317	H	1.037116	-0.001027	1.045875
	O318	O	0.024979	-0.030962	0.044896
	H319	H	0.034893	-0.025789	0.050227
	H320	H	0.024058	-0.025157	0.049558
	O321	O	0.479514	0.534050	0.487460
	H322	H	0.484655	0.534078	0.481364
	H323	H	0.479038	0.531360	0.487538
	O324	O	1.023926	-0.038777	0.034839
	H325	H	1.025427	-0.029687	0.037279
	H326	H	1.023951	-0.044950	0.032503
	O327	O	0.992198	1.039793	0.031725
	H328	H	0.990979	1.045471	0.023996
	H329	H	0.995350	1.039680	0.031824
	O330	O	0.469767	0.430095	0.570028
	H331	H	0.475764	0.429010	0.575643
	H332	H	0.459466	0.430656	0.568559
	O333	O	0.507252	0.412543	0.487324
	H334	H	0.506503	0.417588	0.493488
	H335	H	0.509615	0.417768	0.486904
