data_Molecule from HDF5

_cell_length_a		16.329769
_cell_length_b		16.390929
_cell_length_c		16.259562
_cell_angle_alpha	90.105161
_cell_angle_beta	90.030065
_cell_angle_gamma	90.068190
_symmetry_space_group_name_H-M	'P 1'
_symmetry_Int_Tables_number		1

loop_
	_symmetry_equiv_pos_as_xyz
	x,y,z

loop_
	_atom_site_label
	_atom_site_type_symbol
	_atom_site_fract_x
	_atom_site_fract_y
	_atom_site_fract_z
	H0	H	0.394868	0.840597	0.715592
	H1	H	0.591992	0.166186	0.716056
	H2	H	0.590965	0.840224	0.285855
	H3	H	0.396974	0.166084	0.287885
	H4	H	0.706615	0.405639	0.837182
	H5	H	0.708047	0.601732	0.165696
	H6	H	0.280238	0.599046	0.837008
	H7	H	0.280120	0.404943	0.165172
	H8	H	0.830221	0.716718	0.402530
	H9	H	0.155799	0.719541	0.601988
	H10	H	0.830211	0.288855	0.598078
	H11	H	0.155595	0.285115	0.400500
	H12	H	0.830037	0.405282	0.714415
	H13	H	0.157439	0.599481	0.714982
	H14	H	0.829842	0.597880	0.288219
	H15	H	0.157496	0.404824	0.288417
	H16	H	0.395241	0.716203	0.837360
	H17	H	0.592923	0.718439	0.165540
	H18	H	0.591540	0.288545	0.837612
	H19	H	0.395011	0.288720	0.165267
	H20	H	0.709126	0.840269	0.400954
	H21	H	0.708840	0.165631	0.599998
	H22	H	0.278206	0.840420	0.599966
	H23	H	0.277758	0.165278	0.402474
	H24	H	0.896892	0.338934	0.214421
	H25	H	0.091572	0.664822	0.216211
	H26	H	0.090794	0.339268	0.786712
	H27	H	0.897033	0.665703	0.787091
	H28	H	0.205717	0.905006	0.336742
	H29	H	0.206917	0.101019	0.665634
	H30	H	0.780156	0.098972	0.337194
	H31	H	0.779960	0.905304	0.665813
	H32	H	0.330925	0.217793	0.902837
	H33	H	0.656537	0.218289	0.100599
	H34	H	0.330856	0.788103	0.099730
	H35	H	0.656554	0.787326	0.901554
	H36	H	0.329739	0.907087	0.213599
	H37	H	0.657196	0.100587	0.215969
	H38	H	0.330212	0.099235	0.788392
	H39	H	0.657346	0.905997	0.787380
	H40	H	0.895168	0.215615	0.337526
	H41	H	0.092460	0.218119	0.664364
	H42	H	0.091704	0.787495	0.337810
	H43	H	0.895082	0.787678	0.664667
	H44	H	0.208870	0.339652	0.902566
	H45	H	0.207649	0.665059	0.098810
	H46	H	0.778450	0.339506	0.099268
	H47	H	0.779667	0.665930	0.903640
	H48	H	0.389372	0.120696	0.591613
	H49	H	0.586983	0.889667	0.588350
	H50	H	0.584520	0.117280	0.408179
	H51	H	0.401597	0.886581	0.405210
	H52	H	0.585870	0.406401	0.119023
	H53	H	0.587304	0.601243	0.883431
	H54	H	0.403841	0.593000	0.115955
	H55	H	0.399176	0.407904	0.884533
	H56	H	0.108943	0.594255	0.408434
	H57	H	0.877357	0.597618	0.595537
	H58	H	0.113226	0.403464	0.598907
	H59	H	0.876997	0.408491	0.404483
	H60	H	0.108004	0.406885	0.586016
	H61	H	0.878724	0.595802	0.590445
	H62	H	0.110670	0.597689	0.407682
	H63	H	0.877442	0.405127	0.409270
	H64	H	0.402017	0.601536	0.119005
	H65	H	0.590601	0.591638	0.885734
	H66	H	0.589884	0.411957	0.118567
	H67	H	0.400598	0.410041	0.884800
	H68	H	0.588818	0.117760	0.411906
	H69	H	0.591048	0.885605	0.596595
	H70	H	0.403740	0.120150	0.604267
	H71	H	0.401312	0.889179	0.410472
	H72	H	0.906218	0.617127	0.097751
	H73	H	0.100277	0.385117	0.087234
	H74	H	0.081120	0.617102	0.904042
	H75	H	0.897692	0.387076	0.909836
	H76	H	0.084168	0.901818	0.619366
	H77	H	0.089656	0.089273	0.385567
	H78	H	0.889965	0.092581	0.620549
	H79	H	0.899486	0.908525	0.384660
	H80	H	0.611300	0.098138	0.906215
	H81	H	0.376864	0.102941	0.092020
	H82	H	0.610762	0.901177	0.089792
	H83	H	0.376323	0.906183	0.905949
	H84	H	0.605965	0.917675	0.088626
	H85	H	0.380013	0.092002	0.090723
	H86	H	0.609881	0.098573	0.911191
	H87	H	0.379235	0.908169	0.912090
	H88	H	0.907687	0.088248	0.613255
	H89	H	0.080274	0.094650	0.386641
	H90	H	0.093317	0.912560	0.618879
	H91	H	0.899567	0.909635	0.385139
	H92	H	0.087993	0.615688	0.915598
	H93	H	0.086288	0.381837	0.108933
	H94	H	0.900490	0.615898	0.089359
	H95	H	0.898285	0.386144	0.905226
	H96	H	0.406671	0.114098	0.586373
	H97	H	0.581575	0.888100	0.596575
	H98	H	0.589791	0.119886	0.406895
	H99	H	0.396469	0.887086	0.407372
	H100	H	0.583248	0.412518	0.116362
	H101	H	0.579973	0.594610	0.887598
	H102	H	0.395835	0.594724	0.118794
	H103	H	0.401667	0.407609	0.884738
	H104	H	0.108910	0.596279	0.411321
	H105	H	0.878819	0.592177	0.594893
	H106	H	0.108008	0.416222	0.596608
	H107	H	0.878828	0.410544	0.409646
	H108	H	0.896164	0.619800	0.097671
	H109	H	0.075331	0.391689	0.087371
	H110	H	0.094052	0.620916	0.904087
	H111	H	0.902078	0.388277	0.908010
	H112	H	0.079740	0.914615	0.614901
	H113	H	0.089377	0.099660	0.382837
	H114	H	0.904320	0.106238	0.619989
	H115	H	0.900609	0.908246	0.384353
	H116	H	0.609180	0.093669	0.908649
	H117	H	0.375965	0.095735	0.100914
	H118	H	0.612466	0.911566	0.103919
	H119	H	0.378920	0.912441	0.907356
	C120	C	0.371642	0.011041	0.622692
	C121	C	0.615301	0.995395	0.622799
	C122	C	0.615362	0.010888	0.379691
	C123	C	0.371597	0.994809	0.379576
	C124	C	0.614481	0.381934	0.009717
	C125	C	0.614970	0.624735	0.993642
	C126	C	0.372302	0.624601	0.009494
	C127	C	0.372179	0.380773	0.992978
	C128	C	0.001611	0.623577	0.380312
	C129	C	0.985582	0.623945	0.622622
	C130	C	0.001896	0.380582	0.622310
	C131	C	0.985515	0.379635	0.379048
	C132	C	0.872241	0.510376	0.122862
	C133	C	0.115662	0.493751	0.123067
	C134	C	0.115643	0.510262	0.879505
	C135	C	0.871690	0.494846	0.879446
	C136	C	0.114421	0.881169	0.509415
	C137	C	0.114821	0.123687	0.493007
	C138	C	0.872426	0.123484	0.509612
	C139	C	0.871434	0.880614	0.492878
	C140	C	0.502428	0.124770	0.880243
	C141	C	0.485391	0.124820	0.123048
	C142	C	0.501873	0.881741	0.122667
	C143	C	0.485757	0.880906	0.879482
	C144	C	0.374218	0.889049	0.677834
	C145	C	0.612625	0.117547	0.678123
	C146	C	0.611827	0.888632	0.324221
	C147	C	0.375416	0.117731	0.325676
	C148	C	0.669022	0.384833	0.886191
	C149	C	0.669994	0.621970	0.116941
	C150	C	0.317501	0.620451	0.886261
	C151	C	0.317606	0.384166	0.116376
	C152	C	0.878802	0.678530	0.382329
	C153	C	0.107830	0.680200	0.621117
	C154	C	0.879074	0.326103	0.619374
	C155	C	0.107699	0.324460	0.381480
	C156	C	0.878861	0.384255	0.676712
	C157	C	0.108471	0.621292	0.677822
	C158	C	0.878763	0.619724	0.325459
	C159	C	0.108277	0.383164	0.324951
	C160	C	0.374463	0.678892	0.886566
	C161	C	0.613203	0.680280	0.116752
	C162	C	0.611477	0.327050	0.886234
	C163	C	0.374718	0.326405	0.116374
	C164	C	0.670347	0.888600	0.381595
	C165	C	0.671016	0.117222	0.620926
	C166	C	0.316176	0.888998	0.620280
	C167	C	0.316025	0.116891	0.382061
	C168	C	0.875202	0.387698	0.177405
	C169	C	0.112730	0.616259	0.178470
	C170	C	0.112221	0.387782	0.824497
	C171	C	0.875827	0.617322	0.824940
	C172	C	0.168642	0.884176	0.386084
	C173	C	0.169764	0.121498	0.616271
	C174	C	0.817597	0.120033	0.386045
	C175	C	0.817405	0.884279	0.616602
	C176	C	0.379180	0.179236	0.882723
	C177	C	0.608157	0.180195	0.121134
	C178	C	0.379392	0.826350	0.120268
	C179	C	0.608207	0.825730	0.881459
	C180	C	0.378623	0.885441	0.176686
	C181	C	0.608469	0.121644	0.178197
	C182	C	0.378961	0.120567	0.825901
	C183	C	0.608443	0.884378	0.824545
	C184	C	0.874698	0.177992	0.386266
	C185	C	0.112571	0.179445	0.615938
	C186	C	0.111860	0.825756	0.386462
	C187	C	0.874575	0.826095	0.616211
	C188	C	0.170538	0.387979	0.882049
	C189	C	0.170211	0.616414	0.120059
	C190	C	0.816692	0.388004	0.120209
	C191	C	0.817098	0.617244	0.882440
	C192	C	0.393685	0.096495	0.600624
	C193	C	0.592965	0.909833	0.600332
	C194	C	0.593893	0.096352	0.402203
	C195	C	0.393447	0.909630	0.401211
	C196	C	0.592720	0.403787	0.095693
	C197	C	0.592437	0.602478	0.907781
	C198	C	0.394208	0.602872	0.095853
	C199	C	0.394012	0.402277	0.906806
	C200	C	0.087336	0.602243	0.402484
	C201	C	0.900364	0.601641	0.600219
	C202	C	0.087663	0.402504	0.600302
	C203	C	0.899717	0.401611	0.401418
	C204	C	0.894376	0.595550	0.101301
	C205	C	0.093852	0.408253	0.100939
	C206	C	0.093923	0.595870	0.901452
	C207	C	0.893170	0.409295	0.901128
	C208	C	0.092223	0.903231	0.595737
	C209	C	0.092658	0.101319	0.407100
	C210	C	0.894450	0.102084	0.595612
	C211	C	0.893462	0.902268	0.406864
	C212	C	0.587766	0.103336	0.902206
	C213	C	0.399926	0.103283	0.100955
	C214	C	0.587596	0.903789	0.100538
	C215	C	0.400287	0.902515	0.901982
	Zn216	Zn	0.493686	0.003385	0.751575
	Zn217	Zn	0.493725	0.003271	0.251091
	Zn218	Zn	0.743080	0.503274	0.001794
	Zn219	Zn	0.244557	0.502067	0.001411
	Zn220	Zn	-0.006647	0.752927	0.501392
	Zn221	Zn	-0.006542	0.251774	0.501173
	Zn222	Zn	-0.005947	0.502252	0.750720
	Zn223	Zn	-0.006265	0.502006	0.251873
	Zn224	Zn	0.493855	0.753020	0.001638
	Zn225	Zn	0.493787	0.253025	0.001406
	Zn226	Zn	0.744023	0.002738	0.501448
	Zn227	Zn	0.242733	0.002602	0.501194
	N228	N	0.408046	0.966079	0.679561
	N229	N	0.578535	0.040707	0.679292
	N230	N	0.578499	0.965704	0.323038
	N231	N	0.409272	0.041041	0.323947
	N232	N	0.671001	0.418313	0.963805
	N233	N	0.671283	0.588091	0.039420
	N234	N	0.316134	0.587229	0.963967
	N235	N	0.315830	0.417003	0.038582
	N236	N	0.956160	0.681008	0.415882
	N237	N	0.030428	0.682059	0.587614
	N238	N	0.956661	0.323651	0.586406
	N239	N	0.030036	0.322173	0.414375
	N240	N	0.956195	0.417516	0.678594
	N241	N	0.031743	0.586768	0.678658
	N242	N	0.955972	0.586473	0.324047
	N243	N	0.031265	0.417010	0.323615
	N244	N	0.408013	0.681167	0.964194
	N245	N	0.579627	0.682099	0.039187
	N246	N	0.578377	0.325080	0.964089
	N247	N	0.408070	0.324184	0.038746
	N248	N	0.672585	0.965658	0.415424
	N249	N	0.672685	0.040015	0.587319
	N250	N	0.314722	0.965762	0.586593
	N251	N	0.313453	0.039442	0.414635
	N252	N	0.909095	0.464591	0.179097
	N253	N	0.079442	0.539015	0.180326
	N254	N	0.078656	0.464725	0.823187
	N255	N	0.908826	0.540136	0.822931
	N256	N	0.170245	0.917776	0.463658
	N257	N	0.171162	0.087462	0.538784
	N258	N	0.815931	0.086973	0.463736
	N259	N	0.815372	0.917469	0.538978
	N260	N	0.456815	0.182212	0.915448
	N261	N	0.530790	0.182232	0.087511
	N262	N	0.456962	0.824130	0.087285
	N263	N	0.530994	0.823516	0.914874
	N264	N	0.455899	0.919082	0.178363
	N265	N	0.531250	0.088060	0.179513
	N266	N	0.456230	0.087173	0.824333
	N267	N	0.531347	0.917987	0.823219
	N268	N	0.908239	0.179937	0.463954
	N269	N	0.079164	0.180952	0.538224
	N270	N	0.078709	0.824054	0.464258
	N271	N	0.907429	0.823835	0.538318
	N272	N	0.172826	0.465232	0.915485
	N273	N	0.172275	0.539326	0.086581
	N274	N	0.814547	0.465243	0.087251
	N275	N	0.814754	0.540161	0.915833
	O276	O	1.531256	-0.426337	0.535788
	H277	H	1.532357	-0.424432	0.540329
	H278	H	1.519355	-0.426384	0.539187
	O279	O	0.592046	0.611024	0.520585
	H280	H	0.595219	0.607773	0.522101
	H281	H	0.602150	0.620045	0.521143
	O282	O	0.785113	0.796073	0.361389
	H283	H	0.788162	0.802421	0.370705
	H284	H	0.794810	0.796986	0.352868
	O285	O	0.572426	0.567623	0.528338
	H286	H	0.572425	0.561853	0.526289
	H287	H	0.562831	0.564002	0.528062
