data_Molecule from HDF5

_cell_length_a		16.602078
_cell_length_b		16.625565
_cell_length_c		16.445998
_cell_angle_alpha	90.042342
_cell_angle_beta	89.867780
_cell_angle_gamma	90.089166
_symmetry_space_group_name_H-M	'P 1'
_symmetry_Int_Tables_number		1

loop_
	_symmetry_equiv_pos_as_xyz
	x,y,z

loop_
	_atom_site_label
	_atom_site_type_symbol
	_atom_site_fract_x
	_atom_site_fract_y
	_atom_site_fract_z
	H0	H	0.386407	0.856808	0.724690
	H1	H	0.602175	0.166188	0.725769
	H2	H	0.599534	0.856404	0.279154
	H3	H	0.387295	0.167907	0.278701
	H4	H	0.717010	0.404533	0.844603
	H5	H	0.714647	0.616383	0.158556
	H6	H	0.273038	0.617825	0.843872
	H7	H	0.274661	0.408915	0.159141
	H8	H	0.839647	0.734419	0.393905
	H9	H	0.147454	0.739001	0.611650
	H10	H	0.840702	0.286447	0.612041
	H11	H	0.150057	0.288777	0.393903
	H12	H	0.839842	0.404326	0.725437
	H13	H	0.149328	0.620148	0.725223
	H14	H	0.837939	0.614879	0.281174
	H15	H	0.151458	0.407379	0.279705
	H16	H	0.388454	0.734195	0.844474
	H17	H	0.598778	0.732959	0.158019
	H18	H	0.599929	0.289810	0.843913
	H19	H	0.389035	0.291712	0.158695
	H20	H	0.719222	0.859190	0.391134
	H21	H	0.718577	0.166812	0.610541
	H22	H	0.268587	0.857918	0.610623
	H23	H	0.268132	0.166310	0.392134
	H24	H	0.891443	0.354088	0.221769
	H25	H	0.098392	0.668155	0.221501
	H26	H	0.103603	0.357702	0.774750
	H27	H	0.886164	0.665798	0.777935
	H28	H	0.215183	0.907584	0.345239
	H29	H	0.218306	0.120949	0.658350
	H30	H	0.773547	0.118426	0.344465
	H31	H	0.769015	0.903111	0.655953
	H32	H	0.337952	0.234666	0.893800
	H33	H	0.648902	0.235323	0.108296
	H34	H	0.339284	0.786847	0.111353
	H35	H	0.648311	0.788632	0.894339
	H36	H	0.338038	0.906304	0.224306
	H37	H	0.649975	0.116307	0.222202
	H38	H	0.338991	0.119429	0.777226
	H39	H	0.649621	0.906284	0.779522
	H40	H	0.888604	0.234309	0.344170
	H41	H	0.104012	0.237613	0.657935
	H42	H	0.101056	0.789906	0.345858
	H43	H	0.883904	0.786261	0.655554
	H44	H	0.219510	0.356895	0.890599
	H45	H	0.216746	0.667636	0.107472
	H46	H	0.771137	0.355202	0.109932
	H47	H	0.769079	0.664466	0.892921
	H48	H	0.411752	0.119762	0.588156
	H49	H	0.587214	0.899920	0.587150
	H50	H	0.583617	0.122959	0.412829
	H51	H	0.403405	0.901508	0.413660
	H52	H	0.584968	0.426378	0.113766
	H53	H	0.580838	0.592342	0.891300
	H54	H	0.408236	0.603226	0.113784
	H55	H	0.404081	0.422874	0.886665
	H56	H	0.107989	0.605358	0.412074
	H57	H	0.886287	0.596481	0.583996
	H58	H	0.106235	0.424235	0.589059
	H59	H	0.883392	0.424895	0.411058
	H60	H	0.104400	0.424265	0.584163
	H61	H	0.883190	0.595421	0.592714
	H62	H	0.105123	0.600647	0.417377
	H63	H	0.880991	0.418654	0.409913
	H64	H	0.401041	0.599899	0.115062
	H65	H	0.576234	0.603600	0.889194
	H66	H	0.577837	0.424174	0.112371
	H67	H	0.406209	0.423334	0.888193
	H68	H	0.583572	0.124048	0.412944
	H69	H	0.580497	0.899706	0.592393
	H70	H	0.403722	0.121526	0.584199
	H71	H	0.406919	0.902367	0.413811
	H72	H	0.900652	0.623394	0.090388
	H73	H	0.091000	0.398192	0.088940
	H74	H	0.080219	0.620465	0.916825
	H75	H	0.906940	0.400143	0.914609
	H76	H	0.078140	0.921735	0.615403
	H77	H	0.083195	0.098814	0.390615
	H78	H	0.906340	0.101064	0.613844
	H79	H	0.905439	0.922593	0.387133
	H80	H	0.605896	0.106675	0.916521
	H81	H	0.382009	0.099905	0.088866
	H82	H	0.604260	0.921265	0.085725
	H83	H	0.382237	0.925261	0.912116
	H84	H	0.604202	0.925803	0.090056
	H85	H	0.382124	0.101272	0.091081
	H86	H	0.601747	0.096480	0.918978
	H87	H	0.381222	0.920012	0.913869
	H88	H	0.906399	0.098105	0.613438
	H89	H	0.080025	0.097941	0.391431
	H90	H	0.085349	0.924074	0.615856
	H91	H	0.906857	0.927143	0.389604
	H92	H	0.085959	0.622122	0.916398
	H93	H	0.081028	0.398960	0.096251
	H94	H	0.904850	0.624118	0.092704
	H95	H	0.908162	0.402171	0.915737
	H96	H	0.405281	0.124595	0.592779
	H97	H	0.580692	0.903553	0.584612
	H98	H	0.582940	0.123752	0.412945
	H99	H	0.405346	0.902318	0.416397
	H100	H	0.582554	0.418960	0.115155
	H101	H	0.588534	0.601356	0.886448
	H102	H	0.406799	0.595657	0.111754
	H103	H	0.406083	0.421083	0.887242
	H104	H	0.106389	0.598237	0.410348
	H105	H	0.882119	0.603852	0.587773
	H106	H	0.104519	0.427760	0.587589
	H107	H	0.883748	0.419903	0.415964
	H108	H	0.904515	0.621417	0.088638
	H109	H	0.080560	0.402842	0.084773
	H110	H	0.081855	0.622594	0.911243
	H111	H	0.905976	0.401014	0.916454
	H112	H	0.080298	0.928973	0.612968
	H113	H	0.080559	0.101387	0.390732
	H114	H	0.909003	0.099839	0.612698
	H115	H	0.910460	0.922814	0.389505
	H116	H	0.605365	0.098807	0.908552
	H117	H	0.381983	0.102361	0.088848
	H118	H	0.606980	0.920279	0.091040
	H119	H	0.383247	0.924343	0.918053
	C120	C	0.372612	0.020276	0.622800
	C121	C	0.616933	1.002974	0.623004
	C122	C	0.615885	0.020810	0.379665
	C123	C	0.372141	1.004239	0.380587
	C124	C	0.614699	0.390519	0.009815
	C125	C	0.614641	0.631966	0.992890
	C126	C	0.372819	0.632739	0.009756
	C127	C	0.372984	0.390510	0.991864
	C128	C	0.003178	0.632913	0.380691
	C129	C	0.985625	0.633831	0.623216
	C130	C	0.003271	0.390877	0.622143
	C131	C	0.986259	0.389539	0.379558
	C132	C	0.871871	0.519494	0.123839
	C133	C	0.116206	0.503137	0.122684
	C134	C	0.116262	0.519662	0.879750
	C135	C	0.873052	0.502689	0.881103
	C136	C	0.114692	0.891645	0.511054
	C137	C	0.115742	0.133453	0.493921
	C138	C	0.874352	0.133015	0.509877
	C139	C	0.872802	0.890532	0.491890
	C140	C	0.501926	0.133803	0.880390
	C141	C	0.485065	0.133504	0.122724
	C142	C	0.502285	0.889905	0.122772
	C143	C	0.485180	0.890765	0.880921
	C144	C	0.368687	0.903658	0.684604
	C145	C	0.620107	0.119403	0.685289
	C146	C	0.618042	0.903826	0.319123
	C147	C	0.369010	0.121004	0.318890
	C148	C	0.676258	0.386956	0.891603
	C149	C	0.674649	0.634915	0.111298
	C150	C	0.312766	0.635970	0.891280
	C151	C	0.313798	0.389542	0.111201
	C152	C	0.886039	0.693334	0.376925
	C153	C	0.101344	0.697151	0.628482
	C154	C	0.887343	0.327902	0.628095
	C155	C	0.103684	0.329599	0.376459
	C156	C	0.886649	0.386862	0.684749
	C157	C	0.102207	0.638006	0.685267
	C158	C	0.885419	0.634017	0.320576
	C159	C	0.104292	0.388431	0.319592
	C160	C	0.369993	0.694021	0.891729
	C161	C	0.617150	0.692779	0.110999
	C162	C	0.617980	0.330003	0.891221
	C163	C	0.370795	0.331574	0.111245
	C164	C	0.677862	0.905123	0.374756
	C165	C	0.678278	0.119558	0.627677
	C166	C	0.309876	0.904313	0.627784
	C167	C	0.309873	0.120389	0.375608
	C168	C	0.871827	0.401504	0.182884
	C169	C	0.117445	0.621069	0.182108
	C170	C	0.120526	0.403736	0.816243
	C171	C	0.868899	0.619102	0.818800
	C172	C	0.175278	0.888999	0.392636
	C173	C	0.177773	0.138402	0.611253
	C174	C	0.813339	0.136567	0.391853
	C175	C	0.810135	0.885960	0.609258
	C176	C	0.385102	0.194553	0.876134
	C177	C	0.602309	0.194266	0.125947
	C178	C	0.385650	0.828178	0.127884
	C179	C	0.601776	0.829489	0.876761
	C180	C	0.385202	0.887450	0.184401
	C181	C	0.602862	0.135210	0.182774
	C182	C	0.385558	0.137050	0.817960
	C183	C	0.602726	0.888258	0.819878
	C184	C	0.871020	0.194117	0.391854
	C185	C	0.121095	0.196634	0.610971
	C186	C	0.118445	0.830494	0.392959
	C187	C	0.866971	0.827803	0.608948
	C188	C	0.178262	0.403423	0.874150
	C189	C	0.176282	0.620553	0.125074
	C190	C	0.812041	0.401946	0.126869
	C191	C	0.810614	0.618571	0.876241
	C192	C	0.399345	0.101186	0.596067
	C193	C	0.590515	0.922064	0.595932
	C194	C	0.590544	0.102479	0.405720
	C195	C	0.397908	0.923157	0.407071
	C196	C	0.589132	0.415869	0.092146
	C197	C	0.589229	0.606288	0.910378
	C198	C	0.398139	0.606953	0.092019
	C199	C	0.398224	0.415184	0.909033
	C200	C	0.085046	0.608443	0.406030
	C201	C	0.904896	0.606548	0.595892
	C202	C	0.084141	0.417834	0.594718
	C203	C	0.904199	0.413978	0.404930
	C204	C	0.896306	0.601568	0.098132
	C205	C	0.091277	0.421041	0.097238
	C206	C	0.090096	0.600553	0.907149
	C207	C	0.899500	0.422058	0.907960
	C208	C	0.088703	0.917263	0.593463
	C209	C	0.088868	0.106921	0.412318
	C210	C	0.899950	0.107119	0.592069
	C211	C	0.899796	0.916779	0.410231
	C212	C	0.583165	0.108055	0.907052
	C213	C	0.403337	0.108244	0.097110
	C214	C	0.583877	0.915255	0.096402
	C215	C	0.403560	0.916101	0.907227
	Zn216	Zn	0.493848	0.011560	0.751769
	Zn217	Zn	0.493793	0.012266	0.251415
	Zn218	Zn	0.743216	0.510580	0.002119
	Zn219	Zn	0.244880	0.511719	0.000653
	Zn220	Zn	-0.006255	0.762541	0.501598
	Zn221	Zn	-0.004570	0.261488	0.501770
	Zn222	Zn	-0.005371	0.512019	0.751389
	Zn223	Zn	-0.005349	0.511628	0.251562
	Zn224	Zn	0.493643	0.761111	0.001614
	Zn225	Zn	0.493897	0.262649	0.001445
	Zn226	Zn	0.745434	0.011898	0.500644
	Zn227	Zn	0.243096	0.012484	0.502648
	N228	N	0.406887	0.976908	0.681727
	N229	N	0.582638	0.045875	0.682692
	N230	N	0.580188	0.976998	0.322126
	N231	N	0.406888	0.047819	0.321817
	N232	N	0.674460	0.423777	0.966417
	N233	N	0.673158	0.597545	0.036820
	N234	N	0.314277	0.598706	0.965708
	N235	N	0.314745	0.425306	0.035954
	N236	N	0.960317	0.692897	0.413548
	N237	N	0.027528	0.694905	0.591016
	N238	N	0.960908	0.330476	0.589708
	N239	N	0.029229	0.330001	0.412779
	N240	N	0.959834	0.425358	0.681342
	N241	N	0.029167	0.599339	0.682109
	N242	N	0.959341	0.597021	0.322737
	N243	N	0.030146	0.424892	0.321222
	N244	N	0.406456	0.692313	0.966586
	N245	N	0.580700	0.691180	0.036154
	N246	N	0.580683	0.331948	0.965692
	N247	N	0.406734	0.331855	0.035811
	N248	N	0.676636	0.979012	0.412016
	N249	N	0.676676	0.045852	0.589765
	N250	N	0.312302	0.977927	0.589968
	N251	N	0.311675	0.046720	0.413429
	N252	N	0.908409	0.475572	0.180927
	N253	N	0.080952	0.546865	0.180751
	N254	N	0.082472	0.476968	0.819694
	N255	N	0.907306	0.546104	0.821758
	N256	N	0.173123	0.926135	0.467199
	N257	N	0.174483	0.099779	0.537508
	N258	N	0.815024	0.099282	0.466417
	N259	N	0.813674	0.924319	0.535503
	N260	N	0.458652	0.192787	0.914088
	N261	N	0.528099	0.193257	0.089368
	N262	N	0.459575	0.829554	0.090322
	N263	N	0.527620	0.830900	0.913942
	N264	N	0.458800	0.925128	0.181399
	N265	N	0.528950	0.098072	0.180827
	N266	N	0.459459	0.099944	0.820319
	N267	N	0.529063	0.925633	0.822186
	N268	N	0.907886	0.192304	0.466426
	N269	N	0.083142	0.193720	0.536828
	N270	N	0.081584	0.831787	0.467813
	N271	N	0.905397	0.830640	0.535055
	N272	N	0.175666	0.476527	0.913007
	N273	N	0.175729	0.546073	0.088913
	N274	N	0.811965	0.476483	0.090660
	N275	N	0.813030	0.545255	0.914359
	O276	O	1.280643	0.628005	-0.393695
	H277	H	1.305654	0.613750	-0.395517
	H278	H	1.289446	0.606913	-0.404964
	O279	O	-0.040021	0.023931	0.968998
	H280	H	-0.053077	0.043297	0.976994
	H281	H	-0.037754	0.018003	0.967543
	O282	O	0.347968	0.608644	0.648917
	H283	H	0.346667	0.612712	0.667793
	H284	H	0.355841	0.615866	0.636020
	O285	O	-0.051448	-0.151377	0.954259
	H286	H	-0.045103	-0.153665	0.938891
	H287	H	-0.041517	-0.139692	0.955821
	O288	O	0.778044	-0.191178	1.027453
	H289	H	0.786388	-0.190303	1.044172
	H290	H	0.773605	-0.206853	1.034724
	O291	O	0.007698	0.207849	1.011975
	H292	H	-0.013587	0.214319	1.016842
	H293	H	0.004231	0.196602	1.020916
	O294	O	-0.199997	-0.010731	-0.044900
	H295	H	-0.183764	-0.006578	-0.050319
	H296	H	-0.208742	-0.034529	-0.033548
	O297	O	0.695249	0.356237	0.303371
	H298	H	0.687321	0.365740	0.293126
	H299	H	0.694965	0.356011	0.327239
	O300	O	0.265525	0.289120	-0.296710
	H301	H	0.293928	0.283835	-0.290266
	H302	H	0.261582	0.298935	-0.282759
	O303	O	-0.031788	0.223754	-0.204286
	H304	H	-0.016543	0.219845	-0.194636
	H305	H	-0.023056	0.244533	-0.217636
	O306	O	1.044729	-0.203475	0.026016
	H307	H	1.070857	-0.204279	0.012671
	H308	H	1.028104	-0.200623	0.036437
	O309	O	0.599998	0.704898	0.392416
	H310	H	0.597314	0.691833	0.389541
	H311	H	0.606971	0.716292	0.375855
	O312	O	0.448707	0.439902	0.649544
	H313	H	0.461762	0.439046	0.642057
	H314	H	0.445016	0.418240	0.646212
	O315	O	0.708753	0.538721	0.712002
	H316	H	0.704740	0.545952	0.716896
	H317	H	0.722482	0.530433	0.722006
	O318	O	1.291151	0.710859	0.301532
	H319	H	1.280356	0.735806	0.285801
	H320	H	1.291552	0.719009	0.347739
	O321	O	0.332114	0.534457	0.653974
	H322	H	0.338956	0.508758	0.645706
	H323	H	0.337832	0.525591	0.661098
	O324	O	1.208066	0.036996	1.213716
	H325	H	1.212803	0.056336	1.224852
	H326	H	1.210808	0.048214	1.227312
	O327	O	0.992400	0.795251	1.172319
	H328	H	0.986464	0.782498	1.190989
	H329	H	0.975667	0.801663	1.163616
	O330	O	0.285390	0.376532	0.540287
	H331	H	0.274986	0.360132	0.560110
	H332	H	0.283547	0.382064	0.557105
	O333	O	0.275190	0.728261	0.470511
	H334	H	0.246006	0.749655	0.477430
	H335	H	0.280603	0.706351	0.494519
	O336	O	0.510106	0.288976	0.512526
	H337	H	0.501294	0.290502	0.496446
	H338	H	0.516518	0.291353	0.500967
	O339	O	0.697224	0.713605	0.702969
	H340	H	0.718647	0.731692	0.719783
	H341	H	0.680329	0.693209	0.703592
	O342	O	0.007100	1.194151	0.146242
	H343	H	0.013995	1.205268	0.150410
	H344	H	0.015619	1.196324	0.150722
	O345	O	0.209683	-0.202165	-0.023028
	H346	H	0.217960	-0.211252	-0.025496
	H347	H	0.214931	-0.206663	-0.017791
	O348	O	0.647854	0.658467	0.520670
	H349	H	0.649510	0.668769	0.529981
	H350	H	0.650607	0.670334	0.522302
	O351	O	-0.019800	0.150722	1.217460
	H352	H	-0.021807	0.170191	1.212394
	H353	H	-0.019138	0.164930	1.228286
	O354	O	0.875867	0.028668	1.126573
	H355	H	0.882306	0.012767	1.113875
	H356	H	0.872878	0.049113	1.119458
	O357	O	0.713711	0.290308	0.473478
	H358	H	0.733526	0.268199	0.467509
	H359	H	0.724636	0.301145	0.474446
	O360	O	0.275892	0.539796	0.287098
	H361	H	0.272765	0.570435	0.283744
	H362	H	0.262998	0.558094	0.266072
	O363	O	0.784810	0.800863	0.210050
	H364	H	0.792377	0.815999	0.216043
	H365	H	0.784057	0.805673	0.200894
	O366	O	0.800871	0.202955	0.811265
	H367	H	0.822879	0.205404	0.796943
	H368	H	0.809564	0.164579	0.805755
	O369	O	0.179928	0.062383	0.980288
	H370	H	0.169664	0.070102	0.985089
	H371	H	0.182332	0.064142	0.986419
	O372	O	-0.196132	0.854580	0.843686
	H373	H	-0.179731	0.859165	0.870279
	H374	H	-0.180244	0.859950	0.852144
	O375	O	1.152559	-0.064771	0.047110
	H376	H	1.160756	-0.062072	0.046925
	H377	H	1.159758	-0.059508	0.051523
	O378	O	0.518615	0.301894	0.294240
	H379	H	0.512914	0.304879	0.300239
	H380	H	0.516245	0.296238	0.282881
	O381	O	0.027419	0.963998	0.172826
	H382	H	0.020944	0.962307	0.182144
	H383	H	0.040173	0.973386	0.170519
	O384	O	0.710603	0.507053	0.336758
	H385	H	0.706563	0.495317	0.336847
	H386	H	0.719346	0.498097	0.335595
	O387	O	0.190088	0.815678	0.806016
	H388	H	0.209801	0.810943	0.814293
	H389	H	0.173917	0.809077	0.802482
	O390	O	0.486089	0.675561	0.580018
	H391	H	0.505395	0.664734	0.563249
	H392	H	0.481421	0.676144	0.582047
	O393	O	1.208615	0.017109	-0.166952
	H394	H	1.210153	-0.006548	-0.165176
	H395	H	1.219068	0.011640	-0.171985
	O396	O	0.627159	0.629575	0.524964
	H397	H	0.618613	0.628647	0.537243
	H398	H	0.638974	0.648192	0.534568
	O399	O	0.487229	0.740100	0.618919
	H400	H	0.502943	0.739314	0.606918
	H401	H	0.485919	0.752881	0.620576
	O402	O	0.832400	-0.069110	1.163333
	H403	H	0.841945	-0.057592	1.169407
	H404	H	0.826517	-0.066479	1.164831
	O405	O	0.551085	0.510835	0.648693
	H406	H	0.556885	0.492107	0.644905
	H407	H	0.537110	0.520870	0.650116
	O408	O	1.176289	0.857303	1.154927
	H409	H	1.164953	0.868790	1.146679
	H410	H	1.164220	0.871028	1.143421
	O411	O	1.190441	1.207696	0.198080
	H412	H	1.205485	1.222174	0.223132
	H413	H	1.182883	1.214494	0.164527
	O414	O	-0.221956	0.038542	-0.217571
	H415	H	-0.226929	0.024635	-0.208609
	H416	H	-0.243522	0.030058	-0.236573
	O417	O	0.481517	0.697870	0.285005
	H418	H	0.468747	0.682524	0.283123
	H419	H	0.480299	0.719833	0.258531
	O420	O	0.972143	0.238366	1.018533
	H421	H	0.963571	0.237655	1.016631
	H422	H	0.965073	0.238201	1.041416
	O423	O	0.916033	0.971914	0.029510
	H424	H	0.926193	0.967379	0.033277
	H425	H	0.915695	0.992833	0.031714
	O426	O	0.470378	0.487620	0.303972
	H427	H	0.456589	0.494391	0.309352
	H428	H	0.461379	0.497668	0.306034
	O429	O	0.297534	0.484953	0.467124
	H430	H	0.304137	0.493091	0.445743
	H431	H	0.306951	0.499023	0.461389
	O432	O	1.047250	0.026959	0.841394
	H433	H	1.057439	0.019949	0.836747
	H434	H	1.044104	0.033502	0.840173
	O435	O	0.509650	0.577583	0.369280
	H436	H	0.509965	0.565930	0.374736
	H437	H	0.513669	0.568065	0.374376
	O438	O	0.296164	0.328900	0.375871
	H439	H	0.300466	0.343283	0.395306
	H440	H	0.303219	0.351569	0.379995
	O441	O	0.502134	0.315188	0.384908
	H442	H	0.489561	0.317533	0.394615
	H443	H	0.499697	0.310789	0.388161
	O444	O	0.483370	0.510967	0.363583
	H445	H	0.494383	0.521149	0.359932
	H446	H	0.493955	0.508270	0.366434
	O447	O	0.678116	0.603880	0.407174
	H448	H	0.678503	0.605118	0.404084
	H449	H	0.680332	0.598336	0.418467
	O450	O	1.213867	0.234948	0.032616
	H451	H	1.219665	0.236015	0.038358
	H452	H	1.229663	0.250760	0.022701
	O453	O	0.466873	0.298279	0.712717
	H454	H	0.485097	0.287722	0.702973
	H455	H	0.475174	0.275060	0.713779
	O456	O	-0.194495	1.111822	1.158413
	H457	H	-0.207811	1.130817	1.163118
	H458	H	-0.202449	1.099508	1.137427
	O459	O	0.544399	0.595066	0.714092
	H460	H	0.530613	0.593412	0.710634
	H461	H	0.534613	0.606102	0.714625
	O462	O	0.777899	1.230675	-0.023891
	H463	H	0.770656	1.241059	-0.050127
	H464	H	0.767974	1.240004	-0.050022
	O465	O	0.624984	0.314305	0.639961
	H466	H	0.618939	0.336654	0.628584
	H467	H	0.621151	0.303274	0.624815
	O468	O	-0.036539	0.911752	-0.179561
	H469	H	-0.020771	0.924492	-0.175180
	H470	H	-0.043411	0.910930	-0.185742
	O471	O	0.669300	0.466838	0.522836
	H472	H	0.662289	0.475455	0.532675
	H473	H	0.670105	0.494705	0.511648
	O474	O	1.128191	1.087623	-0.188558
	H475	H	1.140671	1.062488	-0.182673
	H476	H	1.111054	1.095928	-0.189890
	O477	O	0.022829	-0.149776	0.790690
	H478	H	0.038688	-0.162727	0.776475
	H479	H	0.017606	-0.146288	0.787251
