data_Molecule from HDF5

_cell_length_a		16.624531
_cell_length_b		16.472104
_cell_length_c		16.586574
_cell_angle_alpha	90.136421
_cell_angle_beta	89.928338
_cell_angle_gamma	90.151415
_symmetry_space_group_name_H-M	'P 1'
_symmetry_Int_Tables_number		1

loop_
	_symmetry_equiv_pos_as_xyz
	x,y,z

loop_
	_atom_site_label
	_atom_site_type_symbol
	_atom_site_fract_x
	_atom_site_fract_y
	_atom_site_fract_z
	H0	H	0.391046	0.864992	0.720160
	H1	H	0.598643	0.180489	0.722419
	H2	H	0.598918	0.866646	0.280349
	H3	H	0.390106	0.181673	0.281650
	H4	H	0.713997	0.419420	0.846505
	H5	H	0.715471	0.629754	0.159526
	H6	H	0.272417	0.629122	0.847300
	H7	H	0.271300	0.417992	0.158517
	H8	H	0.837620	0.743851	0.398047
	H9	H	0.151727	0.744004	0.603680
	H10	H	0.836842	0.306320	0.603170
	H11	H	0.150955	0.304519	0.399431
	H12	H	0.836394	0.422257	0.721028
	H13	H	0.150674	0.630811	0.723099
	H14	H	0.837405	0.627649	0.281911
	H15	H	0.148674	0.416738	0.279345
	H16	H	0.391473	0.742743	0.845443
	H17	H	0.596924	0.743963	0.160892
	H18	H	0.596314	0.304446	0.846374
	H19	H	0.389917	0.303547	0.159695
	H20	H	0.715683	0.866994	0.395335
	H21	H	0.713863	0.181433	0.604943
	H22	H	0.275490	0.865623	0.603926
	H23	H	0.274381	0.182364	0.398275
	H24	H	0.886276	0.365549	0.223582
	H25	H	0.097576	0.680838	0.223434
	H26	H	0.094499	0.366265	0.783454
	H27	H	0.890747	0.683435	0.783762
	H28	H	0.215883	0.920422	0.345694
	H29	H	0.216596	0.131655	0.658761
	H30	H	0.770993	0.131038	0.346535
	H31	H	0.770747	0.916491	0.656565
	H32	H	0.339883	0.245290	0.897145
	H33	H	0.652038	0.245708	0.107950
	H34	H	0.337675	0.802724	0.107825
	H35	H	0.652690	0.807089	0.902555
	H36	H	0.338576	0.918273	0.225531
	H37	H	0.651403	0.130679	0.225421
	H38	H	0.339744	0.129959	0.779615
	H39	H	0.651188	0.920595	0.782768
	H40	H	0.887553	0.246648	0.346186
	H41	H	0.096339	0.243613	0.660438
	H42	H	0.098365	0.804283	0.344669
	H43	H	0.891060	0.804426	0.658998
	H44	H	0.211499	0.365648	0.898443
	H45	H	0.214203	0.681414	0.107036
	H46	H	0.770458	0.367113	0.108619
	H47	H	0.772951	0.682040	0.898419
	H48	H	0.405690	0.137179	0.593640
	H49	H	0.584486	0.909481	0.591082
	H50	H	0.582362	0.136345	0.413981
	H51	H	0.402884	0.912531	0.418387
	H52	H	0.585013	0.432290	0.117550
	H53	H	0.578664	0.613143	0.893281
	H54	H	0.403868	0.614218	0.115308
	H55	H	0.401168	0.434712	0.890649
	H56	H	0.106885	0.613313	0.410727
	H57	H	0.880640	0.616433	0.597010
	H58	H	0.108715	0.430503	0.593732
	H59	H	0.879845	0.428715	0.414864
	H60	H	0.104650	0.436755	0.589536
	H61	H	0.882178	0.616722	0.590295
	H62	H	0.105421	0.613621	0.414155
	H63	H	0.885680	0.438727	0.418480
	H64	H	0.402635	0.611631	0.115230
	H65	H	0.586255	0.621069	0.888252
	H66	H	0.585579	0.439873	0.115124
	H67	H	0.405772	0.435283	0.891722
	H68	H	0.582737	0.135517	0.415609
	H69	H	0.584602	0.909258	0.591678
	H70	H	0.405516	0.136726	0.592144
	H71	H	0.403571	0.910065	0.410371
	H72	H	0.907308	0.636767	0.097436
	H73	H	0.076666	0.412349	0.092512
	H74	H	0.084232	0.637116	0.914948
	H75	H	0.902743	0.412392	0.912997
	H76	H	0.085778	0.933028	0.614064
	H77	H	0.081432	0.115034	0.390637
	H78	H	0.910032	0.112136	0.610593
	H79	H	0.906816	0.930513	0.389298
	H80	H	0.602367	0.106040	0.914597
	H81	H	0.384587	0.109788	0.094329
	H82	H	0.603304	0.943380	0.093493
	H83	H	0.380164	0.926905	0.911384
	H84	H	0.608863	0.930627	0.097594
	H85	H	0.383582	0.115149	0.093424
	H86	H	0.608169	0.113328	0.906545
	H87	H	0.384230	0.935421	0.915332
	H88	H	0.902641	0.117550	0.614915
	H89	H	0.087853	0.114531	0.389373
	H90	H	0.085498	0.935676	0.614598
	H91	H	0.899937	0.935368	0.388420
	H92	H	0.085043	0.638032	0.913366
	H93	H	0.082540	0.412899	0.084112
	H94	H	0.910503	0.632320	0.087633
	H95	H	0.902778	0.411274	0.911190
	H96	H	0.404558	0.138262	0.592563
	H97	H	0.584051	0.910596	0.591951
	H98	H	0.583910	0.136266	0.414749
	H99	H	0.410120	0.914580	0.414255
	H100	H	0.578645	0.435746	0.113079
	H101	H	0.589953	0.609559	0.890713
	H102	H	0.405357	0.612172	0.114320
	H103	H	0.403895	0.431075	0.890056
	H104	H	0.104990	0.610844	0.412466
	H105	H	0.883435	0.611385	0.594090
	H106	H	0.107149	0.437581	0.597116
	H107	H	0.881480	0.437570	0.407340
	H108	H	0.900439	0.636685	0.088790
	H109	H	0.086160	0.408586	0.093466
	H110	H	0.083489	0.637834	0.913284
	H111	H	0.904917	0.411736	0.911859
	H112	H	0.083723	0.934703	0.613946
	H113	H	0.084701	0.109533	0.391778
	H114	H	0.901190	0.107540	0.613018
	H115	H	0.906791	0.938664	0.391585
	H116	H	0.606581	0.117430	0.917781
	H117	H	0.385513	0.111919	0.089784
	H118	H	0.603988	0.932427	0.083981
	H119	H	0.381139	0.935387	0.905557
	C120	C	0.373773	0.032426	0.623179
	C121	C	0.615888	1.014389	0.622966
	C122	C	0.615248	0.032151	0.381469
	C123	C	0.373662	1.016322	0.381886
	C124	C	0.614821	0.403667	0.011578
	C125	C	0.616054	0.646170	0.994659
	C126	C	0.372901	0.644733	0.011232
	C127	C	0.371633	0.401421	0.994104
	C128	C	0.002215	0.644365	0.381116
	C129	C	0.985712	0.646997	0.624613
	C130	C	0.002606	0.403655	0.624036
	C131	C	0.985085	0.401784	0.380673
	C132	C	0.872615	0.531539	0.123520
	C133	C	0.114306	0.515168	0.122897
	C134	C	0.114459	0.532864	0.882083
	C135	C	0.872419	0.516420	0.881180
	C136	C	0.115821	0.903391	0.510296
	C137	C	0.115979	0.145567	0.494386
	C138	C	0.872601	0.144978	0.509889
	C139	C	0.872415	0.902407	0.492974
	C140	C	0.503044	0.144515	0.880981
	C141	C	0.487460	0.145246	0.124651
	C142	C	0.502431	0.902610	0.124515
	C143	C	0.486058	0.901873	0.880745
	C144	C	0.372452	0.912740	0.680971
	C145	C	0.617508	0.133257	0.682574
	C146	C	0.617547	0.914078	0.320364
	C147	C	0.371502	0.134585	0.321669
	C148	C	0.674131	0.401058	0.893684
	C149	C	0.675241	0.647977	0.112767
	C150	C	0.312838	0.647395	0.893807
	C151	C	0.311835	0.399949	0.111821
	C152	C	0.884664	0.704130	0.379377
	C153	C	0.104210	0.705484	0.624156
	C154	C	0.883757	0.345798	0.622890
	C155	C	0.103526	0.343183	0.379834
	C156	C	0.883911	0.403433	0.681455
	C157	C	0.103566	0.649173	0.683522
	C158	C	0.884616	0.646217	0.321540
	C159	C	0.102390	0.398892	0.320198
	C160	C	0.372077	0.703791	0.893045
	C161	C	0.616305	0.704681	0.113474
	C162	C	0.615553	0.344091	0.893361
	C163	C	0.370535	0.342839	0.112442
	C164	C	0.675306	0.914065	0.377839
	C165	C	0.674534	0.133861	0.624284
	C166	C	0.314807	0.913119	0.623394
	C167	C	0.314142	0.134941	0.379820
	C168	C	0.868558	0.413283	0.183800
	C169	C	0.116499	0.633546	0.183520
	C170	C	0.114297	0.413803	0.822772
	C171	C	0.871567	0.635532	0.822762
	C172	C	0.175624	0.901762	0.392482
	C173	C	0.175852	0.148841	0.612089
	C174	C	0.811667	0.148487	0.393029
	C175	C	0.811897	0.899304	0.610384
	C176	C	0.386194	0.204885	0.878815
	C177	C	0.604940	0.205530	0.126163
	C178	C	0.384722	0.842667	0.126380
	C179	C	0.604999	0.845123	0.882187
	C180	C	0.385309	0.899972	0.185125
	C181	C	0.604714	0.148333	0.184760
	C182	C	0.386376	0.147563	0.820197
	C183	C	0.604273	0.901379	0.822565
	C184	C	0.869940	0.205902	0.392957
	C185	C	0.116179	0.204764	0.612785
	C186	C	0.117015	0.844273	0.391715
	C187	C	0.871504	0.843348	0.611187
	C188	C	0.172165	0.413272	0.880149
	C189	C	0.174199	0.633843	0.125508
	C190	C	0.811008	0.413773	0.126261
	C191	C	0.813161	0.635189	0.879938
	C192	C	0.398286	0.115728	0.599331
	C193	C	0.591359	0.931353	0.598476
	C194	C	0.590036	0.114595	0.407457
	C195	C	0.398504	0.933668	0.407080
	C196	C	0.590228	0.428784	0.093792
	C197	C	0.591981	0.621572	0.912234
	C198	C	0.396947	0.619700	0.093460
	C199	C	0.396507	0.426508	0.912002
	C200	C	0.084332	0.619618	0.405388
	C201	C	0.903500	0.622306	0.600631
	C202	C	0.085184	0.427992	0.600277
	C203	C	0.903475	0.427635	0.406162
	C204	C	0.898572	0.613744	0.098398
	C205	C	0.089229	0.432704	0.097378
	C206	C	0.090939	0.616141	0.906904
	C207	C	0.896348	0.433407	0.905341
	C208	C	0.091735	0.927577	0.592848
	C209	C	0.091638	0.120314	0.411970
	C210	C	0.897637	0.119372	0.591681
	C211	C	0.897286	0.927669	0.410993
	C212	C	0.584575	0.119379	0.906005
	C213	C	0.405756	0.119389	0.099678
	C214	C	0.584050	0.928255	0.099048
	C215	C	0.403404	0.925631	0.903961
	Zn216	Zn	0.494878	0.023060	0.751104
	Zn217	Zn	0.494636	0.024382	0.253448
	Zn218	Zn	0.744216	0.524372	0.002802
	Zn219	Zn	0.243433	0.523189	0.002197
	Zn220	Zn	-0.005232	0.774212	0.501535
	Zn221	Zn	-0.005631	0.273874	0.502292
	Zn222	Zn	-0.005662	0.525327	0.753042
	Zn223	Zn	-0.006729	0.522546	0.251889
	Zn224	Zn	0.494061	0.773850	0.002996
	Zn225	Zn	0.494439	0.274012	0.002998
	Zn226	Zn	0.743916	0.024006	0.501960
	Zn227	Zn	0.245194	0.024874	0.502903
	N228	N	0.408158	0.988105	0.681316
	N229	N	0.582005	0.057900	0.681979
	N230	N	0.580998	0.988723	0.322558
	N231	N	0.407798	0.059748	0.322785
	N232	N	0.673930	0.437349	0.968213
	N233	N	0.675516	0.612574	0.037780
	N234	N	0.313266	0.611232	0.968183
	N235	N	0.312385	0.435548	0.037047
	N236	N	0.958900	0.703161	0.415779
	N237	N	0.029773	0.704447	0.588332
	N238	N	0.958715	0.345513	0.588155
	N239	N	0.029303	0.344508	0.416266
	N240	N	0.958927	0.438575	0.682253
	N241	N	0.028848	0.613618	0.684129
	N242	N	0.958833	0.609977	0.322207
	N243	N	0.027799	0.434667	0.320580
	N244	N	0.408697	0.702464	0.967131
	N245	N	0.580575	0.703934	0.038902
	N246	N	0.579618	0.345391	0.967827
	N247	N	0.407085	0.343554	0.038228
	N248	N	0.674323	0.988763	0.414849
	N249	N	0.673851	0.058785	0.588129
	N250	N	0.315144	0.988808	0.588796
	N251	N	0.315304	0.060346	0.416378
	N252	N	0.906559	0.487428	0.182015
	N253	N	0.079975	0.558651	0.182008
	N254	N	0.079561	0.489386	0.823648
	N255	N	0.907747	0.560739	0.823428
	N256	N	0.174849	0.937902	0.467073
	N257	N	0.175942	0.112717	0.537271
	N258	N	0.813460	0.110880	0.466762
	N259	N	0.812075	0.935154	0.535740
	N260	N	0.459757	0.203147	0.916185
	N261	N	0.530637	0.204155	0.089811
	N262	N	0.458616	0.844174	0.089493
	N263	N	0.530234	0.845090	0.917554
	N264	N	0.459465	0.936723	0.184020
	N265	N	0.530572	0.111584	0.183917
	N266	N	0.460084	0.110367	0.821602
	N267	N	0.529279	0.935734	0.821423
	N268	N	0.907370	0.203794	0.466651
	N269	N	0.079556	0.202718	0.538630
	N270	N	0.080257	0.845322	0.465848
	N271	N	0.908427	0.845039	0.537113
	N272	N	0.172709	0.488577	0.916061
	N273	N	0.173221	0.559092	0.088740
	N274	N	0.813127	0.488597	0.089794
	N275	N	0.813189	0.559882	0.915315
	O276	O	1.019731	0.234568	-0.844347
	H277	H	1.009564	0.213980	-0.859606
	H278	H	1.011207	0.259482	-0.822411
	O279	O	0.117458	0.219425	1.098634
	H280	H	0.112895	0.209958	1.103909
	H281	H	0.126869	0.230826	1.103397
	O282	O	0.353805	0.527243	0.717831
	H283	H	0.353178	0.513654	0.727152
	H284	H	0.343344	0.526685	0.717033
	O285	O	-0.207464	0.081721	1.170089
	H286	H	-0.203339	0.088257	1.168083
	H287	H	-0.225200	0.079215	1.182690
	O288	O	0.945164	-0.009058	0.901465
	H289	H	0.955226	-0.020180	0.907988
	H290	H	0.968516	0.007739	0.903734
	O291	O	0.454869	0.370095	1.437485
	H292	H	0.458944	0.375324	1.416364
	H293	H	0.450819	0.372508	1.428221
	O294	O	0.101990	0.032648	0.022551
	H295	H	0.104720	0.033506	0.018123
	H296	H	0.088487	0.037316	0.007267
	O297	O	0.452663	0.705769	0.598195
	H298	H	0.448985	0.692084	0.594810
	H299	H	0.464847	0.715862	0.630659
	O300	O	0.092337	0.018540	-0.190255
	H301	H	0.103843	0.019373	-0.185489
	H302	H	0.113557	0.026920	-0.199770
	O303	O	-0.311391	-0.284003	-0.306054
	H304	H	-0.287411	-0.264603	-0.306502
	H305	H	-0.300417	-0.327445	-0.296511
	O306	O	1.032674	0.224983	-0.023517
	H307	H	1.043659	0.218515	-0.030454
	H308	H	1.042758	0.225528	-0.019070
	O309	O	0.278422	0.400023	0.614229
	H310	H	0.268954	0.389897	0.615540
	H311	H	0.282024	0.391471	0.625461
	O312	O	0.274699	0.548904	0.286747
	H313	H	0.282944	0.578018	0.284855
	H314	H	0.254890	0.560401	0.268813
	O315	O	0.297591	0.319604	0.703734
	H316	H	0.282324	0.311203	0.678510
	H317	H	0.343565	0.316609	0.699662
	O318	O	1.216602	0.760379	0.231527
	H319	H	1.219155	0.749828	0.255871
	H320	H	1.188560	0.782699	0.196892
	O321	O	0.484632	0.393175	0.286799
	H322	H	0.494504	0.370769	0.275362
	H323	H	0.463690	0.394908	0.284287
	O324	O	1.201442	0.052999	1.217152
	H325	H	1.225856	0.055114	1.236269
	H326	H	1.196231	0.035267	1.201270
	O327	O	1.144611	0.816223	0.792242
	H328	H	1.152461	0.801770	0.768662
	H329	H	1.129454	0.809242	0.792763
	O330	O	0.417417	0.437676	0.589303
	H331	H	0.413204	0.437740	0.584310
	H332	H	0.426826	0.441145	0.585949
	O333	O	0.593400	0.731802	0.398164
	H334	H	0.588791	0.721690	0.400260
	H335	H	0.579649	0.723903	0.414900
	O336	O	0.366333	0.604625	0.537163
	H337	H	0.363585	0.589212	0.546706
	H338	H	0.362503	0.631149	0.532082
	O339	O	0.709168	0.471929	0.546767
	H340	H	0.707546	0.476757	0.559637
	H341	H	0.710301	0.474308	0.559409
	O342	O	0.078307	0.854727	0.115507
	H343	H	0.058923	0.860087	0.114172
	H344	H	0.067320	0.876723	0.103568
	O345	O	-0.216070	0.232046	-0.204762
	H346	H	-0.194907	0.198144	-0.211318
	H347	H	-0.221780	0.235339	-0.150934
	O348	O	0.197840	0.227288	0.205728
	H349	H	0.187123	0.211330	0.195331
	H350	H	0.172349	0.209872	0.207700
	O351	O	0.008932	-0.186745	0.839607
	H352	H	0.007063	-0.192990	0.824415
	H353	H	0.006193	-0.177106	0.835036
	O354	O	0.955769	-0.108244	1.016003
	H355	H	0.958677	-0.101663	1.005266
	H356	H	0.961805	-0.119376	0.998438
	O357	O	0.679476	0.342137	0.682967
	H358	H	0.666126	0.337806	0.682854
	H359	H	0.685952	0.318576	0.703141
	O360	O	0.463472	0.555802	0.409145
	H361	H	0.441579	0.554245	0.405324
	H362	H	0.466081	0.549433	0.394246
	O363	O	0.820708	1.021968	0.195698
	H364	H	0.803171	1.010448	0.205537
	H365	H	0.833596	1.007152	0.179217
	O366	O	0.784916	0.022361	0.984160
	H367	H	0.798283	0.022451	0.971775
	H368	H	0.784260	0.027413	0.983248
	O369	O	0.009305	0.041986	1.194501
	H370	H	-0.004045	0.034831	1.203212
	H371	H	0.010017	0.036263	1.193481
	O372	O	0.185344	0.870724	0.957378
	H373	H	0.193552	0.865350	0.949875
	H374	H	0.184043	0.864566	0.952830
	O375	O	1.222625	-0.051181	0.039776
	H376	H	1.227128	-0.053411	0.032064
	H377	H	1.222131	-0.052958	0.043751
	O378	O	0.423960	0.411916	0.417400
	H379	H	0.430001	0.392151	0.413846
	H380	H	0.449105	0.412097	0.414129
	O381	O	-0.297404	0.555928	-0.284312
	H382	H	-0.295439	0.543780	-0.260434
	H383	H	-0.302284	0.534125	-0.283199
	O384	O	0.794061	0.821021	0.207894
	H385	H	0.784939	0.837337	0.208288
	H386	H	0.789699	0.811921	0.230357
	O387	O	0.054744	0.893418	0.997976
	H388	H	0.068737	0.892949	0.994511
	H389	H	0.044037	0.889373	1.012335
	O390	O	0.494836	0.341388	0.502594
	H391	H	0.484557	0.346572	0.497106
	H392	H	0.479779	0.352409	0.486805
	O393	O	0.782224	0.051194	-0.207913
	H394	H	0.764719	0.055527	-0.215231
	H395	H	0.789512	0.046418	-0.212832
	O396	O	0.710497	0.741050	0.529897
	H397	H	0.723216	0.751068	0.544867
	H398	H	0.720592	0.748112	0.529063
	O399	O	0.509118	0.521469	0.665561
	H400	H	0.501917	0.523876	0.666694
	H401	H	0.507653	0.537965	0.662611
	O402	O	0.961747	0.109069	1.158853
	H403	H	0.960053	0.116452	1.149280
	H404	H	0.976682	0.109569	1.165155
	O405	O	0.330378	0.380982	0.318688
	H406	H	0.311433	0.371288	0.299387
	H407	H	0.346252	0.393328	0.317825
	O408	O	0.776885	1.233529	0.963325
	H409	H	0.761600	1.253750	0.977995
	H410	H	0.790840	1.225220	0.989181
	O411	O	1.221289	1.168031	-0.011828
	H412	H	1.230707	1.176840	-0.001964
	H413	H	1.214134	1.168035	0.003861
	O414	O	-0.220793	-0.195552	0.032916
	H415	H	-0.236340	-0.212235	0.048964
	H416	H	-0.224245	-0.200309	0.051364
	O417	O	0.621175	0.544889	0.281087
	H418	H	0.610017	0.553509	0.278813
	H419	H	0.620821	0.534669	0.273754
	O420	O	1.038761	0.137226	0.842191
	H421	H	1.020617	0.145413	0.821702
	H422	H	1.059980	0.135994	0.853981
	O423	O	0.942902	1.224581	-0.217696
	H424	H	0.936480	1.225358	-0.228909
	H425	H	0.939908	1.239633	-0.220876
	O426	O	0.521114	0.512513	0.585663
	H427	H	0.514084	0.501506	0.552951
	H428	H	0.504801	0.518890	0.601155
	O429	O	0.460418	0.735397	0.292325
	H430	H	0.456316	0.747104	0.305861
	H431	H	0.459452	0.746186	0.280316
	O432	O	0.837564	-0.104525	0.844090
	H433	H	0.854306	-0.083484	0.842340
	H434	H	0.847382	-0.105032	0.858423
	O435	O	0.693902	0.586462	0.342078
	H436	H	0.684348	0.585496	0.346974
	H437	H	0.682803	0.587947	0.339938
	O438	O	0.680021	0.344664	0.471623
	H439	H	0.684669	0.351170	0.481454
	H440	H	0.669722	0.358603	0.489590
	O441	O	1.169585	-0.052848	-0.210043
	H442	H	1.162429	-0.070999	-0.217010
	H443	H	1.184670	-0.066247	-0.208363
	O444	O	0.499837	0.314055	0.643257
	H445	H	0.513489	0.317532	0.620159
	H446	H	0.514836	0.313635	0.646637
	O447	O	0.525115	0.746360	0.725132
	H448	H	0.550102	0.759119	0.735578
	H449	H	0.551862	0.759834	0.733775
	O450	O	1.283169	-0.268246	0.460466
	H451	H	1.269116	-0.259412	0.467471
	H452	H	1.291955	-0.265751	0.461420
	O453	O	0.298222	0.677768	0.653094
	H454	H	0.303164	0.652774	0.653498
	H455	H	0.313101	0.659250	0.632265
	O456	O	-0.018703	0.902105	1.196395
	H457	H	-0.017539	0.905088	1.196463
	H458	H	-0.017615	0.887122	1.199577
	O459	O	0.673783	0.586239	0.453738
	H460	H	0.680680	0.595133	0.457924
	H461	H	0.670205	0.582527	0.459059
	O462	O	1.288949	0.397868	0.480952
	H463	H	1.301559	0.397255	0.464555
	H464	H	1.273398	0.383469	0.466359
	O465	O	0.171216	0.196124	0.813185
	H466	H	0.181094	0.183462	0.822531
	H467	H	0.179507	0.197329	0.815095
	O468	O	-0.014491	0.821560	0.143461
	H469	H	-0.032080	0.817321	0.147461
	H470	H	-0.030261	0.808911	0.143366
	O471	O	0.496933	0.646338	0.381716
	H472	H	0.507334	0.645016	0.395008
	H473	H	0.489690	0.643536	0.397859
	O474	O	0.926556	1.080226	-0.056599
	H475	H	0.917789	1.089484	-0.055604
	H476	H	0.947709	1.095417	-0.044793
	O477	O	0.686575	0.329551	1.317935
	H478	H	0.673569	0.334817	1.339836
	H479	H	0.695268	0.346166	1.332374
