data_Molecule from HDF5

_cell_length_a		16.314753
_cell_length_b		16.274752
_cell_length_c		16.395280
_cell_angle_alpha	90.010016
_cell_angle_beta	90.000625
_cell_angle_gamma	89.890227
_symmetry_space_group_name_H-M	'P 1'
_symmetry_Int_Tables_number		1

loop_
	_symmetry_equiv_pos_as_xyz
	x,y,z

loop_
	_atom_site_label
	_atom_site_type_symbol
	_atom_site_fract_x
	_atom_site_fract_y
	_atom_site_fract_z
	H0	H	0.401508	0.836254	0.714792
	H1	H	0.597375	0.163167	0.714745
	H2	H	0.598585	0.836429	0.285741
	H3	H	0.401652	0.162978	0.285280
	H4	H	0.714559	0.401861	0.836319
	H5	H	0.713674	0.597068	0.162674
	H6	H	0.284363	0.597959	0.837651
	H7	H	0.284988	0.400983	0.162760
	H8	H	0.836406	0.713603	0.404019
	H9	H	0.163730	0.713127	0.597390
	H10	H	0.836104	0.286853	0.596093
	H11	H	0.163533	0.286782	0.403196
	H12	H	0.836679	0.401707	0.714082
	H13	H	0.162418	0.599122	0.715791
	H14	H	0.836444	0.599313	0.285867
	H15	H	0.162429	0.401242	0.284566
	H16	H	0.402217	0.714177	0.837439
	H17	H	0.597468	0.714363	0.162850
	H18	H	0.596568	0.285319	0.836858
	H19	H	0.403875	0.286468	0.163851
	H20	H	0.713878	0.836083	0.402763
	H21	H	0.712610	0.164121	0.597478
	H22	H	0.287714	0.835706	0.596425
	H23	H	0.287151	0.164409	0.402619
	H24	H	0.900899	0.336750	0.214929
	H25	H	0.098298	0.664032	0.213866
	H26	H	0.098551	0.336420	0.785374
	H27	H	0.900961	0.663050	0.784797
	H28	H	0.214358	0.903069	0.337184
	H29	H	0.214494	0.098627	0.663406
	H30	H	0.785343	0.099005	0.337771
	H31	H	0.786057	0.902131	0.662873
	H32	H	0.336175	0.213054	0.904204
	H33	H	0.664855	0.210961	0.096522
	H34	H	0.335816	0.787155	0.095811
	H35	H	0.663672	0.786300	0.902775
	H36	H	0.336222	0.901281	0.213986
	H37	H	0.662405	0.098076	0.216444
	H38	H	0.336517	0.098564	0.785650
	H39	H	0.663282	0.900984	0.785313
	H40	H	0.903636	0.213204	0.337220
	H41	H	0.096842	0.214303	0.662992
	H42	H	0.096714	0.786795	0.336513
	H43	H	0.903008	0.786008	0.662542
	H44	H	0.214168	0.336146	0.902603
	H45	H	0.212943	0.664279	0.096489
	H46	H	0.787977	0.335579	0.095334
	H47	H	0.785999	0.664590	0.901701
	H48	H	0.405978	0.118115	0.597395
	H49	H	0.597685	0.883041	0.592253
	H50	H	0.588738	0.116016	0.405406
	H51	H	0.405385	0.881607	0.404861
	H52	H	0.595992	0.405082	0.116152
	H53	H	0.596913	0.596956	0.881932
	H54	H	0.394473	0.592690	0.118919
	H55	H	0.398969	0.406067	0.882837
	H56	H	0.116430	0.591756	0.404349
	H57	H	0.884133	0.593890	0.591131
	H58	H	0.115126	0.401185	0.583340
	H59	H	0.883434	0.410158	0.402984
	H60	H	0.112828	0.418114	0.593454
	H61	H	0.884657	0.590664	0.592699
	H62	H	0.117111	0.595367	0.405679
	H63	H	0.882030	0.403521	0.405295
	H64	H	0.412592	0.583643	0.111150
	H65	H	0.595158	0.588023	0.885901
	H66	H	0.595084	0.406377	0.115580
	H67	H	0.409134	0.412958	0.887820
	H68	H	0.593501	0.115448	0.410262
	H69	H	0.592468	0.881802	0.598096
	H70	H	0.410841	0.115475	0.594328
	H71	H	0.409160	0.883332	0.405759
	H72	H	0.904230	0.616090	0.086916
	H73	H	0.090244	0.383842	0.096133
	H74	H	0.086985	0.619933	0.890453
	H75	H	0.903664	0.382401	0.905425
	H76	H	0.088998	0.899243	0.616889
	H77	H	0.091547	0.100159	0.382973
	H78	H	0.911547	0.095164	0.614653
	H79	H	0.914514	0.910553	0.387754
	H80	H	0.616287	0.095099	0.908056
	H81	H	0.379775	0.096602	0.104538
	H82	H	0.615776	0.906805	0.095552
	H83	H	0.383853	0.908634	0.905364
	H84	H	0.615752	0.906080	0.093193
	H85	H	0.384223	0.101421	0.083783
	H86	H	0.615813	0.090100	0.906411
	H87	H	0.382898	0.905932	0.904681
	H88	H	0.902427	0.097107	0.617874
	H89	H	0.101497	0.092033	0.382737
	H90	H	0.102872	0.905871	0.618572
	H91	H	0.905846	0.896759	0.381371
	H92	H	0.081774	0.609046	0.917907
	H93	H	0.091105	0.385443	0.089762
	H94	H	0.901294	0.619240	0.098193
	H95	H	0.909533	0.383656	0.903043
	H96	H	0.405220	0.116254	0.591517
	H97	H	0.590554	0.885197	0.591012
	H98	H	0.594740	0.118021	0.404493
	H99	H	0.405992	0.883309	0.408776
	H100	H	0.594282	0.404834	0.115723
	H101	H	0.588165	0.594550	0.885021
	H102	H	0.412345	0.604159	0.116952
	H103	H	0.410713	0.399954	0.883971
	H104	H	0.115659	0.592440	0.407704
	H105	H	0.882667	0.593307	0.594846
	H106	H	0.120054	0.402098	0.602168
	H107	H	0.884654	0.408440	0.409858
	H108	H	0.912647	0.615398	0.095763
	H109	H	0.096553	0.382547	0.093090
	H110	H	0.108800	0.619536	0.911306
	H111	H	0.907790	0.384643	0.909341
	H112	H	0.091377	0.913800	0.612509
	H113	H	0.090309	0.088120	0.387913
	H114	H	0.904759	0.087823	0.615127
	H115	H	0.897730	0.911891	0.383267
	H116	H	0.617237	0.093832	0.903244
	H117	H	0.387559	0.081235	0.091216
	H118	H	0.615732	0.908396	0.094008
	H119	H	0.383735	0.906077	0.907856
	C120	C	0.379144	0.008186	0.621665
	C121	C	0.621513	0.991623	0.621977
	C122	C	0.620987	0.008093	0.378706
	C123	C	0.378887	0.991532	0.378892
	C124	C	0.622600	0.377857	0.008073
	C125	C	0.621545	0.621531	0.991743
	C126	C	0.378223	0.621668	0.008213
	C127	C	0.378118	0.377993	0.992405
	C128	C	0.008386	0.621950	0.378293
	C129	C	0.991864	0.621049	0.621255
	C130	C	0.008189	0.378374	0.621330
	C131	C	0.991384	0.378741	0.378190
	C132	C	0.878537	0.508468	0.121181
	C133	C	0.121063	0.492165	0.121312
	C134	C	0.120983	0.507943	0.878591
	C135	C	0.878700	0.491926	0.878112
	C136	C	0.122213	0.878247	0.508122
	C137	C	0.122089	0.121872	0.492309
	C138	C	0.878032	0.121986	0.508426
	C139	C	0.878489	0.878435	0.491756
	C140	C	0.508211	0.121137	0.878323
	C141	C	0.491717	0.121002	0.121469
	C142	C	0.507737	0.878736	0.121616
	C143	C	0.491954	0.878835	0.878393
	C144	C	0.381428	0.884725	0.676345
	C145	C	0.618404	0.114723	0.676724
	C146	C	0.618915	0.885138	0.323776
	C147	C	0.381229	0.114584	0.323383
	C148	C	0.676402	0.381525	0.884957
	C149	C	0.676153	0.618486	0.114188
	C150	C	0.322957	0.618601	0.886078
	C151	C	0.323246	0.380875	0.114580
	C152	C	0.885097	0.676505	0.382085
	C153	C	0.114680	0.676079	0.618623
	C154	C	0.885059	0.323965	0.617940
	C155	C	0.114537	0.323972	0.381870
	C156	C	0.885285	0.380877	0.676504
	C157	C	0.114280	0.619177	0.677052
	C158	C	0.885411	0.619791	0.323380
	C159	C	0.114063	0.380635	0.323045
	C160	C	0.381307	0.676200	0.885685
	C161	C	0.618577	0.676902	0.114152
	C162	C	0.618366	0.323381	0.885267
	C163	C	0.381963	0.323708	0.114978
	C164	C	0.676012	0.885016	0.381877
	C165	C	0.675487	0.115008	0.618536
	C166	C	0.324996	0.884752	0.617797
	C167	C	0.324331	0.115069	0.381610
	C168	C	0.881253	0.385244	0.176269
	C169	C	0.118594	0.615258	0.176052
	C170	C	0.119042	0.385240	0.823308
	C171	C	0.880357	0.614789	0.822808
	C172	C	0.176567	0.881813	0.385598
	C173	C	0.176514	0.118868	0.614760
	C174	C	0.823230	0.119444	0.386318
	C175	C	0.824255	0.881570	0.614293
	C176	C	0.384791	0.175366	0.882481
	C177	C	0.615435	0.174706	0.118382
	C178	C	0.384633	0.824559	0.117276
	C179	C	0.614960	0.823921	0.881586
	C180	C	0.384797	0.881125	0.176072
	C181	C	0.614243	0.118454	0.177601
	C182	C	0.385132	0.118762	0.823803
	C183	C	0.614654	0.881013	0.823539
	C184	C	0.882069	0.176139	0.385902
	C185	C	0.118331	0.176666	0.614715
	C186	C	0.118051	0.824326	0.385132
	C187	C	0.882044	0.823684	0.614206
	C188	C	0.176312	0.384931	0.881548
	C189	C	0.175462	0.615436	0.117667
	C190	C	0.825064	0.384827	0.117167
	C191	C	0.823738	0.615254	0.881230
	C192	C	0.401011	0.094158	0.600580
	C193	C	0.600073	0.905543	0.600338
	C194	C	0.598831	0.094264	0.400291
	C195	C	0.400565	0.905194	0.400197
	C196	C	0.601429	0.399117	0.093732
	C197	C	0.599762	0.599666	0.906389
	C198	C	0.400081	0.600031	0.093713
	C199	C	0.399808	0.399999	0.906947
	C200	C	0.094352	0.599888	0.399631
	C201	C	0.906118	0.598891	0.599428
	C202	C	0.093780	0.400477	0.599463
	C203	C	0.905568	0.400943	0.399729
	C204	C	0.899855	0.594855	0.099867
	C205	C	0.099047	0.406084	0.099405
	C206	C	0.098881	0.594081	0.900199
	C207	C	0.900669	0.405762	0.899490
	C208	C	0.100709	0.899830	0.593746
	C209	C	0.100632	0.100003	0.406681
	C210	C	0.899894	0.099874	0.593903
	C211	C	0.899746	0.899998	0.406229
	C212	C	0.594072	0.099424	0.899607
	C213	C	0.406035	0.099468	0.099618
	C214	C	0.593686	0.900528	0.100445
	C215	C	0.405714	0.900653	0.899700
	Zn216	Zn	0.500073	-0.000384	0.750211
	Zn217	Zn	0.499639	-0.000218	0.250342
	Zn218	Zn	0.750737	0.500121	-0.000731
	Zn219	Zn	0.249206	0.499943	0.000274
	Zn220	Zn	0.000156	0.749393	0.500087
	Zn221	Zn	-0.000049	0.250292	0.499894
	Zn222	Zn	-0.000253	0.500022	0.749604
	Zn223	Zn	-0.000259	0.500479	0.250018
	Zn224	Zn	0.499902	0.750806	-0.000171
	Zn225	Zn	0.500260	0.249304	0.000354
	Zn226	Zn	0.749370	0.000190	0.500031
	Zn227	Zn	0.251256	0.000386	0.500548
	N228	N	0.414729	0.962269	0.678764
	N229	N	0.585721	0.037041	0.678949
	N230	N	0.585333	0.962668	0.321657
	N231	N	0.414619	0.036812	0.321772
	N232	N	0.679179	0.414386	0.962237
	N233	N	0.678020	0.584864	0.037266
	N234	N	0.321044	0.585433	0.963119
	N235	N	0.320648	0.413662	0.037366
	N236	N	0.962430	0.677896	0.415322
	N237	N	0.037687	0.677212	0.584589
	N238	N	0.962260	0.322372	0.584358
	N239	N	0.037240	0.322787	0.415588
	N240	N	0.962797	0.414103	0.678685
	N241	N	0.036941	0.585743	0.678817
	N242	N	0.963070	0.586520	0.320993
	N243	N	0.036738	0.414105	0.320786
	N244	N	0.414939	0.678226	0.962636
	N245	N	0.585347	0.678965	0.037031
	N246	N	0.585558	0.320980	0.962639
	N247	N	0.415575	0.321862	0.038021
	N248	N	0.677453	0.962568	0.415213
	N249	N	0.677270	0.037474	0.584861
	N250	N	0.323595	0.962248	0.584462
	N251	N	0.322910	0.037694	0.415333
	N252	N	0.914178	0.463225	0.178713
	N253	N	0.085584	0.537523	0.178507
	N254	N	0.085190	0.462670	0.821523
	N255	N	0.913844	0.537219	0.820793
	N256	N	0.179231	0.914786	0.462873
	N257	N	0.178939	0.085589	0.537644
	N258	N	0.820703	0.086440	0.463481
	N259	N	0.821947	0.914988	0.537331
	N260	N	0.462281	0.177020	0.915782
	N261	N	0.538353	0.176247	0.084021
	N262	N	0.462079	0.822960	0.084096
	N263	N	0.537763	0.822720	0.915194
	N264	N	0.462383	0.914049	0.178870
	N265	N	0.536599	0.085915	0.179700
	N266	N	0.462812	0.085915	0.820983
	N267	N	0.537084	0.914400	0.821452
	N268	N	0.915467	0.177785	0.462847
	N269	N	0.085064	0.178344	0.537643
	N270	N	0.085112	0.821822	0.462431
	N271	N	0.915079	0.821691	0.537016
	N272	N	0.177640	0.462297	0.915147
	N273	N	0.177170	0.537893	0.084603
	N274	N	0.823081	0.462332	0.084052
	N275	N	0.822715	0.537853	0.914955
