data_Molecule from HDF5

_cell_length_a		16.451026
_cell_length_b		16.145256
_cell_length_c		16.286477
_cell_angle_alpha	89.491798
_cell_angle_beta	90.295985
_cell_angle_gamma	89.658519
_symmetry_space_group_name_H-M	'P 1'
_symmetry_Int_Tables_number		1

loop_
	_symmetry_equiv_pos_as_xyz
	x,y,z

loop_
	_atom_site_label
	_atom_site_type_symbol
	_atom_site_fract_x
	_atom_site_fract_y
	_atom_site_fract_z
	H0	H	0.394720	0.849368	0.729359
	H1	H	0.592883	0.177784	0.723487
	H2	H	0.593199	0.848193	0.299582
	H3	H	0.391732	0.175790	0.292109
	H4	H	0.712888	0.407758	0.849542
	H5	H	0.714054	0.614724	0.171547
	H6	H	0.273221	0.618145	0.849347
	H7	H	0.278251	0.409159	0.172808
	H8	H	0.833451	0.731888	0.407830
	H9	H	0.157352	0.725324	0.609072
	H10	H	0.832727	0.297288	0.609367
	H11	H	0.155955	0.294256	0.412825
	H12	H	0.833853	0.409499	0.729961
	H13	H	0.155930	0.611666	0.729704
	H14	H	0.833860	0.616600	0.290056
	H15	H	0.156172	0.410451	0.295292
	H16	H	0.392813	0.730961	0.848025
	H17	H	0.591786	0.722326	0.175056
	H18	H	0.589685	0.301269	0.846550
	H19	H	0.399082	0.297209	0.173979
	H20	H	0.712197	0.850495	0.410265
	H21	H	0.710289	0.176360	0.611899
	H22	H	0.279230	0.848634	0.613476
	H23	H	0.274498	0.174555	0.405044
	H24	H	0.896898	0.348038	0.227531
	H25	H	0.092464	0.676981	0.224160
	H26	H	0.091976	0.346857	0.800875
	H27	H	0.891597	0.675360	0.792364
	H28	H	0.213312	0.908405	0.349748
	H29	H	0.215707	0.115253	0.670887
	H30	H	0.774571	0.118586	0.348977
	H31	H	0.778399	0.909997	0.672828
	H32	H	0.332985	0.231588	0.908652
	H33	H	0.657136	0.225438	0.107571
	H34	H	0.333230	0.795492	0.110871
	H35	H	0.656330	0.795617	0.913431
	H36	H	0.334021	0.910705	0.228684
	H37	H	0.655297	0.113046	0.228903
	H38	H	0.333889	0.116976	0.790158
	H39	H	0.656592	0.912545	0.796202
	H40	H	0.895097	0.228253	0.347061
	H41	H	0.093049	0.223414	0.674890
	H42	H	0.093038	0.800332	0.347344
	H43	H	0.897176	0.797097	0.673233
	H44	H	0.211955	0.350492	0.909148
	H45	H	0.210254	0.675811	0.111918
	H46	H	0.780094	0.347186	0.112906
	H47	H	0.774849	0.675273	0.906513
	H48	H	0.400767	0.131991	0.604811
	H49	H	0.586877	0.897973	0.600295
	H50	H	0.580025	0.129754	0.415355
	H51	H	0.406399	0.895129	0.416006
	H52	H	0.586657	0.426425	0.124329
	H53	H	0.581357	0.604167	0.896060
	H54	H	0.404057	0.617381	0.130552
	H55	H	0.405782	0.413390	0.891866
	H56	H	0.103830	0.594489	0.422933
	H57	H	0.881508	0.603123	0.600535
	H58	H	0.110284	0.415304	0.603961
	H59	H	0.882561	0.421698	0.425494
	H60	H	0.108066	0.422100	0.603466
	H61	H	0.880397	0.603148	0.603075
	H62	H	0.112381	0.604927	0.405582
	H63	H	0.880414	0.428328	0.413400
	H64	H	0.386013	0.596692	0.128707
	H65	H	0.587135	0.605938	0.893552
	H66	H	0.584419	0.413286	0.128311
	H67	H	0.388229	0.426182	0.892030
	H68	H	0.583183	0.128313	0.424275
	H69	H	0.590812	0.894758	0.604152
	H70	H	0.410224	0.125522	0.597334
	H71	H	0.403707	0.897226	0.425451
	H72	H	0.902826	0.626097	0.093073
	H73	H	0.083601	0.395485	0.107477
	H74	H	0.084533	0.630018	0.919408
	H75	H	0.905393	0.394853	0.917080
	H76	H	0.084014	0.916019	0.626598
	H77	H	0.083359	0.107011	0.393817
	H78	H	0.903438	0.108480	0.627083
	H79	H	0.900015	0.914306	0.391146
	H80	H	0.608294	0.104115	0.918732
	H81	H	0.381362	0.099199	0.102555
	H82	H	0.611722	0.908347	0.103942
	H83	H	0.380998	0.923423	0.919945
	H84	H	0.605362	0.923328	0.097302
	H85	H	0.378173	0.106813	0.104034
	H86	H	0.609993	0.104785	0.912454
	H87	H	0.381987	0.924744	0.918716
	H88	H	0.894135	0.103399	0.628209
	H89	H	0.089267	0.099417	0.394966
	H90	H	0.093950	0.918678	0.628821
	H91	H	0.892388	0.930690	0.393935
	H92	H	0.080616	0.628757	0.918876
	H93	H	0.087237	0.397287	0.098867
	H94	H	0.897236	0.630683	0.100059
	H95	H	0.903754	0.396986	0.924930
	H96	H	0.397824	0.127735	0.591688
	H97	H	0.584871	0.895623	0.605826
	H98	H	0.589213	0.132503	0.417633
	H99	H	0.397230	0.893245	0.418873
	H100	H	0.596614	0.419261	0.128978
	H101	H	0.585972	0.599703	0.896072
	H102	H	0.410858	0.592767	0.120070
	H103	H	0.406687	0.433985	0.900031
	H104	H	0.110220	0.615685	0.423528
	H105	H	0.880899	0.605737	0.601492
	H106	H	0.109790	0.419190	0.609876
	H107	H	0.877121	0.415013	0.415240
	H108	H	0.906606	0.627653	0.102059
	H109	H	0.093122	0.392795	0.106064
	H110	H	0.083255	0.628063	0.922566
	H111	H	0.897646	0.394297	0.920668
	H112	H	0.087730	0.926315	0.624526
	H113	H	0.080108	0.099586	0.397881
	H114	H	0.902585	0.098144	0.624569
	H115	H	0.909033	0.928125	0.397851
	H116	H	0.610827	0.109872	0.916517
	H117	H	0.381003	0.105403	0.096336
	H118	H	0.610845	0.923257	0.113769
	H119	H	0.380293	0.923661	0.918060
	C120	C	0.373552	0.020619	0.630442
	C121	C	0.616038	1.004475	0.632137
	C122	C	0.614383	0.021764	0.390122
	C123	C	0.371733	1.003225	0.388441
	C124	C	0.616799	0.390817	0.019293
	C125	C	0.614845	0.632362	1.002350
	C126	C	0.370593	0.634658	0.019492
	C127	C	0.372352	0.392566	1.002083
	C128	C	0.002658	0.635768	0.387194
	C129	C	0.987075	0.633447	0.632127
	C130	C	0.002756	0.389514	0.634319
	C131	C	0.986677	0.391440	0.389686
	C132	C	0.873644	0.520140	0.130413
	C133	C	0.116198	0.503771	0.132664
	C134	C	0.113359	0.520932	0.891266
	C135	C	0.871467	0.503203	0.888970
	C136	C	0.117076	0.890782	0.519333
	C137	C	0.115022	0.132294	0.502478
	C138	C	0.870886	0.134798	0.519217
	C139	C	0.872298	0.892612	0.501991
	C140	C	0.503079	0.136701	0.886427
	C141	C	0.486297	0.133564	0.131297
	C142	C	0.503007	0.889261	0.134037
	C143	C	0.487190	0.892281	0.889665
	C144	C	0.374776	0.898066	0.689857
	C145	C	0.613523	0.128294	0.686251
	C146	C	0.613740	0.897938	0.335819
	C147	C	0.372008	0.126525	0.330627
	C148	C	0.673102	0.390363	0.897438
	C149	C	0.673432	0.632504	0.123964
	C150	C	0.312698	0.636713	0.897550
	C151	C	0.317339	0.391139	0.124546
	C152	C	0.881678	0.693431	0.387945
	C153	C	0.108797	0.688089	0.629930
	C154	C	0.881075	0.334653	0.630862
	C155	C	0.107937	0.333636	0.392428
	C156	C	0.881767	0.390471	0.690741
	C157	C	0.108110	0.631486	0.689916
	C158	C	0.881866	0.636140	0.329229
	C159	C	0.107952	0.391338	0.333790
	C160	C	0.372083	0.692743	0.896989
	C161	C	0.612625	0.686153	0.125704
	C162	C	0.611968	0.337069	0.895909
	C163	C	0.376869	0.334922	0.124939
	C164	C	0.672886	0.899116	0.390865
	C165	C	0.671596	0.127619	0.630445
	C166	C	0.317436	0.897605	0.632151
	C167	C	0.313503	0.125780	0.386685
	C168	C	0.876033	0.397069	0.188650
	C169	C	0.113203	0.627646	0.187056
	C170	C	0.112510	0.396754	0.837138
	C171	C	0.871823	0.626258	0.830857
	C172	C	0.173752	0.890434	0.397567
	C173	C	0.174746	0.133081	0.623424
	C174	C	0.813879	0.136458	0.397277
	C175	C	0.816903	0.891397	0.624209
	C176	C	0.381370	0.193470	0.888069
	C177	C	0.608382	0.188650	0.129060
	C178	C	0.381619	0.833446	0.131627
	C179	C	0.608114	0.834544	0.892696
	C180	C	0.382050	0.890588	0.190263
	C181	C	0.607360	0.132752	0.189429
	C182	C	0.382060	0.136706	0.828873
	C183	C	0.608213	0.892777	0.834237
	C184	C	0.873755	0.191368	0.396464
	C185	C	0.113579	0.186876	0.625495
	C186	C	0.114249	0.836342	0.396441
	C187	C	0.875950	0.834933	0.624279
	C188	C	0.172054	0.398639	0.891139
	C189	C	0.171985	0.626876	0.131517
	C190	C	0.818140	0.396589	0.131476
	C191	C	0.813768	0.626231	0.887578
	C192	C	0.396209	0.106381	0.605255
	C193	C	0.593627	0.918302	0.609947
	C194	C	0.590790	0.107679	0.412281
	C195	C	0.395472	0.917691	0.412821
	C196	C	0.595485	0.413141	0.105078
	C197	C	0.591609	0.609768	0.917258
	C198	C	0.393624	0.609633	0.104453
	C199	C	0.393981	0.417247	0.916865
	C200	C	0.086957	0.611941	0.410588
	C201	C	0.902835	0.610731	0.608660
	C202	C	0.087240	0.412096	0.612272
	C203	C	0.901927	0.414927	0.411585
	C204	C	0.895835	0.605998	0.105616
	C205	C	0.094390	0.417383	0.110493
	C206	C	0.089585	0.606763	0.913682
	C207	C	0.895157	0.417564	0.913585
	C208	C	0.095168	0.913658	0.604493
	C209	C	0.091020	0.108910	0.417760
	C210	C	0.893458	0.110359	0.604903
	C211	C	0.894094	0.917255	0.416487
	C212	C	0.587706	0.113307	0.909257
	C213	C	0.402218	0.110484	0.107904
	C214	C	0.587511	0.911902	0.111645
	C215	C	0.402756	0.916752	0.912251
	Zn216	Zn	0.494780	0.013632	0.758538
	Zn217	Zn	0.494503	0.012432	0.261996
	Zn218	Zn	0.743996	0.511708	0.010592
	Zn219	Zn	0.242168	0.512797	0.010688
	Zn220	Zn	-0.004604	0.764568	0.509733
	Zn221	Zn	-0.005741	0.261267	0.511405
	Zn222	Zn	-0.005585	0.511462	0.762671
	Zn223	Zn	-0.005326	0.512771	0.259203
	Zn224	Zn	0.494577	0.760872	0.011365
	Zn225	Zn	0.494646	0.263995	0.010152
	Zn226	Zn	0.742570	0.013410	0.510502
	Zn227	Zn	0.244335	0.011616	0.510299
	N228	N	0.409004	0.975623	0.688812
	N229	N	0.579660	0.050637	0.687342
	N230	N	0.578057	0.975102	0.335281
	N231	N	0.407537	0.049375	0.331490
	N232	N	0.676081	0.423072	0.975167
	N233	N	0.674882	0.599679	0.046273
	N234	N	0.311494	0.601485	0.974718
	N235	N	0.314417	0.425997	0.047222
	N236	N	0.957653	0.693197	0.423370
	N237	N	0.032571	0.689633	0.594778
	N238	N	0.957327	0.333599	0.596501
	N239	N	0.031604	0.333598	0.426428
	N240	N	0.958384	0.423767	0.692931
	N241	N	0.031342	0.598304	0.691410
	N242	N	0.958181	0.601110	0.328571
	N243	N	0.031581	0.426677	0.332091
	N244	N	0.407209	0.691756	0.973769
	N245	N	0.576966	0.686101	0.049140
	N246	N	0.577622	0.337141	0.972731
	N247	N	0.410376	0.335810	0.047813
	N248	N	0.673474	0.977256	0.423830
	N249	N	0.673406	0.049599	0.597477
	N250	N	0.316721	0.974979	0.595972
	N251	N	0.313096	0.048040	0.422061
	N252	N	0.909706	0.474855	0.188209
	N253	N	0.079362	0.549988	0.188024
	N254	N	0.076775	0.473831	0.837067
	N255	N	0.906919	0.548843	0.831537
	N256	N	0.175777	0.923570	0.475078
	N257	N	0.175764	0.099772	0.545948
	N258	N	0.811853	0.102274	0.474809
	N259	N	0.814603	0.926486	0.546992
	N260	N	0.457560	0.193670	0.923145
	N261	N	0.532209	0.189379	0.093574
	N262	N	0.457783	0.832294	0.097529
	N263	N	0.531586	0.833966	0.926273
	N264	N	0.458566	0.924560	0.191884
	N265	N	0.530601	0.099250	0.190830
	N266	N	0.458619	0.102124	0.827837
	N267	N	0.531878	0.927990	0.832384
	N268	N	0.908665	0.190472	0.473475
	N269	N	0.077038	0.186402	0.549440
	N270	N	0.079467	0.836496	0.472962
	N271	N	0.910056	0.835770	0.547297
	N272	N	0.172624	0.476783	0.924279
	N273	N	0.173869	0.548758	0.098520
	N274	N	0.816497	0.474361	0.096035
	N275	N	0.813357	0.548605	0.923027
	O276	O	1.045891	-0.027892	1.023310
	H277	H	1.051592	-0.017907	1.033989
	H278	H	1.050748	-0.023351	1.018388
	O279	O	-0.006332	1.126694	-0.036232
	H280	H	-0.009168	1.130955	-0.037279
	H281	H	-0.009087	1.129899	-0.036080
	O282	O	0.526944	0.506458	0.538083
	H283	H	0.534094	0.510300	0.528337
	H284	H	0.514485	0.492100	0.540525
	O285	O	0.544224	0.540284	0.592211
	H286	H	0.534689	0.543159	0.595253
	H287	H	0.539106	0.528695	0.589416
	O288	O	0.431165	0.562951	0.557743
	H289	H	0.435826	0.549128	0.549699
	H290	H	0.429287	0.560293	0.570034
	O291	O	-0.014002	0.019069	1.093180
	H292	H	-0.004640	0.014064	1.085618
	H293	H	-0.014191	0.027139	1.084052
	O294	O	1.588931	0.572533	-0.435747
	H295	H	1.591603	0.576740	-0.435991
	H296	H	1.598862	0.575952	-0.436397
	O297	O	1.081507	0.916086	-0.104179
	H298	H	1.085812	0.900875	-0.097125
	H299	H	1.084939	0.924778	-0.105955
	O300	O	0.615102	0.586506	0.511196
	H301	H	0.613053	0.587200	0.513145
	H302	H	0.595428	0.591597	0.502170
	O303	O	0.391767	0.538115	0.471925
	H304	H	0.389479	0.542539	0.477148
	H305	H	0.376521	0.538872	0.469175
	O306	O	0.529553	0.403750	0.431248
	H307	H	0.535529	0.399591	0.434749
	H308	H	0.539847	0.398531	0.427679
	O309	O	0.408440	0.512558	0.442449
	H310	H	0.408638	0.520864	0.445529
	H311	H	0.412869	0.506714	0.446587
	O312	O	0.951667	1.095839	0.942535
	H313	H	0.954921	1.096127	0.944727
	H314	H	0.951808	1.088721	0.935508
	O315	O	0.429763	0.422861	0.537098
	H316	H	0.429897	0.408703	0.527316
	H317	H	0.432415	0.422228	0.543957
	O318	O	0.514863	0.498033	0.593498
	H319	H	0.519166	0.485779	0.587122
	H320	H	0.506555	0.499691	0.596182
	O321	O	0.485560	0.608267	0.547716
	H322	H	0.477628	0.610346	0.552410
	H323	H	0.492254	0.614675	0.541840
	O324	O	-0.018508	0.982746	1.051347
	H325	H	-0.027871	0.971243	1.048628
	H326	H	-0.018053	0.993433	1.046626
	O327	O	0.146929	1.073702	0.981910
	H328	H	0.152712	1.069159	0.982008
	H329	H	0.147400	1.084498	0.976331
	O330	O	-0.128235	-0.078840	0.117719
	H331	H	-0.128049	-0.080262	0.129254
	H332	H	-0.129630	-0.066346	0.123644
	O333	O	0.513392	0.412196	0.523582
	H334	H	0.515160	0.415025	0.518610
	H335	H	0.514842	0.410839	0.522554
	O336	O	-0.040787	0.049997	-0.015403
	H337	H	-0.026220	0.047260	-0.003778
	H338	H	-0.049026	0.052210	-0.034579
	O339	O	0.063261	-0.051681	-0.011795
	H340	H	0.063811	-0.062924	-0.011988
	H341	H	0.051123	-0.052405	-0.001369
	O342	O	0.464284	0.424251	0.529087
	H343	H	0.458161	0.434251	0.524013
	H344	H	0.468568	0.422203	0.529564
	O345	O	-0.003304	1.034619	1.023627
	H346	H	-0.006930	1.036814	1.029063
	H347	H	0.004147	1.043562	1.021345
	O348	O	0.909991	-0.037087	-0.032033
	H349	H	0.917406	-0.030442	-0.032948
	H350	H	0.911359	-0.046445	-0.036851
	O351	O	0.573648	0.573738	0.615875
	H352	H	0.569031	0.566673	0.628482
	H353	H	0.589645	0.583820	0.628678
	O354	O	-0.070750	1.123400	-0.044394
	H355	H	-0.072518	1.102668	-0.051950
	H356	H	-0.069418	1.139867	-0.039832
	O357	O	0.943450	-0.016877	0.058065
	H358	H	0.952108	-0.014792	0.060137
	H359	H	0.947184	-0.023411	0.056880
	O360	O	0.998643	-0.130836	0.999656
	H361	H	1.002102	-0.136037	1.010977
	H362	H	1.006930	-0.131775	0.997799
	O363	O	0.575964	0.560465	0.472481
	H364	H	0.583656	0.564622	0.478221
	H365	H	0.585073	0.561746	0.485624
	O366	O	0.540364	0.412005	0.407753
	H367	H	0.550971	0.406393	0.400464
	H368	H	0.536328	0.412769	0.408616
	O369	O	1.030543	0.025454	-0.017226
	H370	H	1.021167	0.035122	-0.020478
	H371	H	1.032729	0.034768	-0.009649
	O372	O	0.383544	0.589587	0.446886
	H373	H	0.379573	0.584094	0.444282
	H374	H	0.393274	0.596428	0.440992
	O375	O	0.980232	-0.070046	1.114461
	H376	H	0.970768	-0.080657	1.116591
	H377	H	0.984055	-0.072246	1.123020
	O378	O	0.013999	1.108101	-0.001235
	H379	H	0.015111	1.099744	0.003023
	H380	H	0.009798	1.112552	0.004306
	O381	O	0.426971	0.542043	0.572535
	H382	H	0.418845	0.553243	0.579898
	H383	H	0.429653	0.542149	0.572124
	O384	O	1.097217	0.893133	-0.099325
	H385	H	1.090025	0.890478	-0.103030
	H386	H	1.091142	0.872331	-0.112758
	O387	O	0.347022	-0.404418	0.348964
	H388	H	0.342933	-0.398460	0.347200
	H389	H	0.358001	-0.403344	0.353312
	O390	O	1.100221	1.033548	0.077180
	H391	H	1.096936	1.036937	0.063226
	H392	H	1.102770	1.024402	0.081993
	O393	O	0.667934	0.563841	0.607145
	H394	H	0.666708	0.565043	0.607557
	H395	H	0.675435	0.562441	0.613308
