data_Molecule from HDF5

_cell_length_a		16.360112
_cell_length_b		16.358328
_cell_length_c		16.237020
_cell_angle_alpha	90.105349
_cell_angle_beta	90.066519
_cell_angle_gamma	90.032087
_symmetry_space_group_name_H-M	'P 1'
_symmetry_Int_Tables_number		1

loop_
	_symmetry_equiv_pos_as_xyz
	x,y,z

loop_
	_atom_site_label
	_atom_site_type_symbol
	_atom_site_fract_x
	_atom_site_fract_y
	_atom_site_fract_z
	H0	H	0.408348	0.840834	0.717071
	H1	H	0.604018	0.166426	0.717734
	H2	H	0.602966	0.839851	0.288605
	H3	H	0.408057	0.166532	0.289218
	H4	H	0.719380	0.404968	0.838878
	H5	H	0.721515	0.603003	0.166605
	H6	H	0.290774	0.601206	0.838805
	H7	H	0.290991	0.404866	0.165820
	H8	H	0.843299	0.718903	0.402311
	H9	H	0.167827	0.720401	0.603622
	H10	H	0.843154	0.287552	0.601526
	H11	H	0.168052	0.285869	0.402744
	H12	H	0.842678	0.405237	0.716091
	H13	H	0.169212	0.601380	0.717669
	H14	H	0.842545	0.601486	0.287559
	H15	H	0.169244	0.405777	0.289592
	H16	H	0.406961	0.717342	0.838766
	H17	H	0.604717	0.718900	0.166663
	H18	H	0.605219	0.287157	0.839941
	H19	H	0.406938	0.289352	0.166477
	H20	H	0.721435	0.840194	0.402107
	H21	H	0.722088	0.165147	0.603177
	H22	H	0.289226	0.840932	0.603920
	H23	H	0.288888	0.165467	0.403155
	H24	H	0.908070	0.339479	0.215993
	H25	H	0.103554	0.666090	0.217947
	H26	H	0.103045	0.339794	0.788741
	H27	H	0.908292	0.666025	0.787173
	H28	H	0.220930	0.902885	0.339457
	H29	H	0.220410	0.102239	0.666498
	H30	H	0.791491	0.100365	0.338803
	H31	H	0.791171	0.903631	0.667425
	H32	H	0.343735	0.218833	0.903043
	H33	H	0.668311	0.219716	0.104068
	H34	H	0.342938	0.788236	0.101689
	H35	H	0.668412	0.788118	0.902701
	H36	H	0.342077	0.905721	0.216428
	H37	H	0.668025	0.101741	0.218709
	H38	H	0.342719	0.101182	0.788911
	H39	H	0.668565	0.905799	0.788475
	H40	H	0.907428	0.216311	0.339060
	H41	H	0.105068	0.217842	0.666734
	H42	H	0.103958	0.788652	0.338566
	H43	H	0.906405	0.787182	0.666301
	H44	H	0.221557	0.340672	0.902402
	H45	H	0.222119	0.665207	0.103950
	H46	H	0.789715	0.341425	0.101920
	H47	H	0.789649	0.665672	0.901258
	H48	H	0.411293	0.116982	0.587856
	H49	H	0.601769	0.885767	0.599203
	H50	H	0.610407	0.123713	0.403505
	H51	H	0.417685	0.888459	0.407418
	H52	H	0.606316	0.410720	0.122392
	H53	H	0.595676	0.593670	0.888204
	H54	H	0.402028	0.599535	0.123357
	H55	H	0.413975	0.399790	0.883085
	H56	H	0.120562	0.597282	0.412567
	H57	H	0.889974	0.591848	0.599255
	H58	H	0.121215	0.409326	0.591492
	H59	H	0.890782	0.403240	0.418663
	H60	H	0.121063	0.411546	0.597417
	H61	H	0.889044	0.602020	0.594095
	H62	H	0.120907	0.594382	0.409865
	H63	H	0.892210	0.418758	0.408354
	H64	H	0.415876	0.583954	0.114696
	H65	H	0.597434	0.598791	0.885696
	H66	H	0.596500	0.418811	0.116059
	H67	H	0.403901	0.415706	0.884890
	H68	H	0.587011	0.116831	0.404754
	H69	H	0.593789	0.888114	0.595802
	H70	H	0.405442	0.122500	0.599153
	H71	H	0.411721	0.889874	0.416240
	H72	H	0.905955	0.621364	0.096690
	H73	H	0.099802	0.387599	0.092682
	H74	H	0.101554	0.621069	0.906319
	H75	H	0.900965	0.384401	0.908512
	H76	H	0.090867	0.913172	0.616539
	H77	H	0.090011	0.098809	0.387628
	H78	H	0.918299	0.088499	0.615540
	H79	H	0.913900	0.911367	0.387949
	H80	H	0.620426	0.096854	0.915823
	H81	H	0.390624	0.096355	0.094593
	H82	H	0.618305	0.917218	0.092544
	H83	H	0.391244	0.906322	0.917555
	H84	H	0.623784	0.909587	0.103870
	H85	H	0.389785	0.096244	0.095969
	H86	H	0.620665	0.092357	0.908572
	H87	H	0.392333	0.917702	0.908784
	H88	H	0.917288	0.104802	0.620918
	H89	H	0.104609	0.099145	0.383136
	H90	H	0.099744	0.904385	0.621806
	H91	H	0.912736	0.907991	0.385980
	H92	H	0.095519	0.617607	0.910632
	H93	H	0.102093	0.386350	0.097469
	H94	H	0.919810	0.617575	0.099797
	H95	H	0.918662	0.386751	0.900836
	H96	H	0.418747	0.118628	0.599037
	H97	H	0.600567	0.888652	0.590222
	H98	H	0.601270	0.114649	0.424213
	H99	H	0.407070	0.885527	0.408065
	H100	H	0.593309	0.404931	0.119295
	H101	H	0.601840	0.594526	0.886356
	H102	H	0.424139	0.604489	0.118396
	H103	H	0.422195	0.415219	0.890163
	H104	H	0.121974	0.598160	0.408464
	H105	H	0.893033	0.592750	0.588733
	H106	H	0.123111	0.406098	0.596549
	H107	H	0.886267	0.403679	0.400644
	H108	H	0.915150	0.615527	0.086860
	H109	H	0.096808	0.387770	0.097091
	H110	H	0.102225	0.618151	0.914052
	H111	H	0.916044	0.392041	0.919133
	H112	H	0.103570	0.916855	0.619094
	H113	H	0.098104	0.086312	0.388564
	H114	H	0.903875	0.094817	0.622046
	H115	H	0.910481	0.910888	0.385800
	H116	H	0.623724	0.100627	0.908731
	H117	H	0.390144	0.097730	0.095720
	H118	H	0.621977	0.903271	0.091315
	H119	H	0.386498	0.905845	0.903984
	C120	C	0.383758	0.011719	0.624140
	C121	C	0.627127	0.995116	0.624443
	C122	C	0.627721	0.011100	0.381266
	C123	C	0.383342	0.995255	0.381486
	C124	C	0.627240	0.382231	0.011408
	C125	C	0.627421	0.625268	0.994583
	C126	C	0.384730	0.624585	0.010868
	C127	C	0.384484	0.381836	0.993967
	C128	C	0.013579	0.624623	0.381354
	C129	C	0.997869	0.624653	0.624012
	C130	C	0.014209	0.380934	0.623655
	C131	C	0.997411	0.380343	0.380694
	C132	C	0.884608	0.511132	0.123885
	C133	C	0.127961	0.494759	0.124798
	C134	C	0.127676	0.511329	0.881283
	C135	C	0.883735	0.495153	0.880509
	C136	C	0.126711	0.882083	0.510960
	C137	C	0.126610	0.123898	0.494725
	C138	C	0.884309	0.124264	0.511220
	C139	C	0.883645	0.881199	0.494810
	C140	C	0.514168	0.125298	0.881766
	C141	C	0.497610	0.125187	0.124749
	C142	C	0.513736	0.881417	0.124606
	C143	C	0.497423	0.881567	0.881186
	C144	C	0.387264	0.889271	0.679257
	C145	C	0.624692	0.117662	0.680040
	C146	C	0.624315	0.888492	0.326100
	C147	C	0.386679	0.117692	0.326383
	C148	C	0.682419	0.384141	0.888154
	C149	C	0.682883	0.622862	0.117846
	C150	C	0.329148	0.621762	0.887663
	C151	C	0.329371	0.384510	0.117208
	C152	C	0.891541	0.680390	0.382436
	C153	C	0.119791	0.681255	0.623353
	C154	C	0.891621	0.326013	0.621506
	C155	C	0.119645	0.324523	0.382737
	C156	C	0.891486	0.384111	0.678742
	C157	C	0.120319	0.622274	0.680024
	C158	C	0.891230	0.621735	0.325682
	C159	C	0.120384	0.384174	0.326757
	C160	C	0.386973	0.679452	0.887698
	C161	C	0.625290	0.680708	0.117900
	C162	C	0.625299	0.326133	0.888250
	C163	C	0.386712	0.327027	0.117537
	C164	C	0.682887	0.888586	0.382893
	C165	C	0.683178	0.117208	0.623137
	C166	C	0.328135	0.889456	0.622863
	C167	C	0.327577	0.117285	0.383107
	C168	C	0.887260	0.388498	0.178759
	C169	C	0.124665	0.617329	0.180100
	C170	C	0.124323	0.388625	0.826255
	C171	C	0.886931	0.617451	0.824978
	C172	C	0.182532	0.883353	0.387951
	C173	C	0.182458	0.122435	0.617771
	C174	C	0.829523	0.120967	0.387776
	C175	C	0.829174	0.883726	0.618404
	C176	C	0.392033	0.180756	0.882996
	C177	C	0.619703	0.180907	0.123370
	C178	C	0.391644	0.826282	0.122155
	C179	C	0.619783	0.826217	0.882837
	C180	C	0.391010	0.884811	0.179090
	C181	C	0.619760	0.122288	0.180311
	C182	C	0.391674	0.121930	0.826556
	C183	C	0.619738	0.884604	0.825906
	C184	C	0.887043	0.178594	0.387809
	C185	C	0.125111	0.179993	0.617785
	C186	C	0.124212	0.826802	0.387546
	C187	C	0.886258	0.825819	0.617847
	C188	C	0.183253	0.389134	0.882765
	C189	C	0.183482	0.616875	0.123374
	C190	C	0.828717	0.389215	0.121736
	C191	C	0.827771	0.617160	0.881316
	C192	C	0.405504	0.097275	0.601941
	C193	C	0.605106	0.909618	0.601751
	C194	C	0.605981	0.096385	0.404099
	C195	C	0.405683	0.909921	0.404007
	C196	C	0.604970	0.404783	0.097139
	C197	C	0.604676	0.602382	0.908779
	C198	C	0.407192	0.602406	0.096715
	C199	C	0.406844	0.403621	0.908231
	C200	C	0.099010	0.603031	0.403892
	C201	C	0.912918	0.602300	0.600791
	C202	C	0.099738	0.402609	0.601561
	C203	C	0.912001	0.402100	0.402704
	C204	C	0.907190	0.596173	0.101259
	C205	C	0.106111	0.409251	0.102223
	C206	C	0.105957	0.596901	0.903785
	C207	C	0.905554	0.409850	0.902911
	C208	C	0.104471	0.904704	0.597009
	C209	C	0.104177	0.101294	0.408723
	C210	C	0.906477	0.102351	0.597377
	C211	C	0.905994	0.903445	0.408761
	C212	C	0.599517	0.103025	0.904336
	C213	C	0.412054	0.103252	0.101914
	C214	C	0.599230	0.903654	0.102616
	C215	C	0.411985	0.903449	0.903703
	Zn216	Zn	0.505804	0.003988	0.752739
	Zn217	Zn	0.505440	0.002869	0.253162
	Zn218	Zn	0.755569	0.503836	0.002797
	Zn219	Zn	0.256402	0.502845	0.002933
	Zn220	Zn	0.005864	0.753751	0.502558
	Zn221	Zn	0.005711	0.252249	0.502851
	Zn222	Zn	0.006099	0.502823	0.752444
	Zn223	Zn	0.005849	0.502873	0.252950
	Zn224	Zn	0.505978	0.753315	0.002722
	Zn225	Zn	0.505819	0.254044	0.002894
	Zn226	Zn	0.756064	0.002577	0.503537
	Zn227	Zn	0.254655	0.002935	0.502964
	N228	N	0.421200	0.966050	0.679981
	N229	N	0.590434	0.040804	0.680629
	N230	N	0.590766	0.965550	0.324824
	N231	N	0.420554	0.040803	0.325256
	N232	N	0.683630	0.418445	0.965581
	N233	N	0.684168	0.589047	0.040131
	N234	N	0.327772	0.588301	0.965336
	N235	N	0.327897	0.417969	0.039628
	N236	N	0.968632	0.682304	0.416371
	N237	N	0.042912	0.682760	0.588979
	N238	N	0.968760	0.323857	0.588061
	N239	N	0.042237	0.322080	0.415545
	N240	N	0.968689	0.417810	0.680062
	N241	N	0.043588	0.587757	0.680477
	N242	N	0.968076	0.587896	0.324858
	N243	N	0.043437	0.418123	0.325407
	N244	N	0.420926	0.681153	0.965181
	N245	N	0.591614	0.682361	0.040294
	N246	N	0.591724	0.324776	0.965737
	N247	N	0.420452	0.325381	0.040040
	N248	N	0.685167	0.965843	0.416579
	N249	N	0.684902	0.040130	0.589380
	N250	N	0.325863	0.966636	0.589179
	N251	N	0.325333	0.040145	0.416564
	N252	N	0.921465	0.465395	0.180057
	N253	N	0.090885	0.540460	0.181168
	N254	N	0.090464	0.465712	0.825159
	N255	N	0.920792	0.540635	0.824117
	N256	N	0.184015	0.917128	0.465555
	N257	N	0.183266	0.088095	0.540279
	N258	N	0.827636	0.087914	0.465649
	N259	N	0.827500	0.917439	0.540764
	N260	N	0.469118	0.182751	0.916670
	N261	N	0.542622	0.182652	0.089320
	N262	N	0.468801	0.824382	0.088977
	N263	N	0.542563	0.824188	0.916488
	N264	N	0.468122	0.918420	0.180731
	N265	N	0.542815	0.088336	0.181296
	N266	N	0.468784	0.088228	0.825601
	N267	N	0.542881	0.918356	0.824729
	N268	N	0.920548	0.180486	0.465472
	N269	N	0.090976	0.180828	0.540305
	N270	N	0.090304	0.825952	0.465119
	N271	N	0.919505	0.824220	0.540040
	N272	N	0.185459	0.466424	0.916193
	N273	N	0.185576	0.539474	0.089819
	N274	N	0.826978	0.466300	0.088373
	N275	N	0.826139	0.540202	0.915527
	O276	O	0.508484	0.532183	0.457800
	H277	H	0.511039	0.533149	0.454970
	H278	H	0.499994	0.525162	0.446796
	O279	O	-0.001218	0.019650	0.058084
	H280	H	-0.004759	0.016374	0.056989
	H281	H	-0.002090	0.019054	0.058598
	O282	O	0.526790	0.567979	0.486959
	H283	H	0.530835	0.567256	0.493317
	H284	H	0.532649	0.571058	0.485851
	O285	O	0.466669	0.535277	0.501214
	H286	H	0.463053	0.546076	0.499711
	H287	H	0.463918	0.524695	0.492174
	O288	O	0.983182	-0.009005	0.070891
	H289	H	0.986304	-0.012898	0.070092
	H290	H	0.983559	-0.004762	0.087797
	O291	O	-0.497907	0.534305	-0.587184
	H292	H	-0.498911	0.534749	-0.588429
	H293	H	-0.489089	0.546450	-0.591305
	O294	O	0.484183	0.588059	0.470897
	H295	H	0.489622	0.592848	0.478398
	H296	H	0.477541	0.590109	0.477238
	O297	O	-0.017354	1.005289	0.041780
	H298	H	-0.017558	1.001005	0.046651
	H299	H	-0.014649	1.010590	0.036679
	O300	O	0.961141	-0.023598	1.024089
	H301	H	0.954936	-0.029144	1.025056
	H302	H	0.968783	-0.019027	1.025784
	O303	O	0.539103	0.565107	0.450875
	H304	H	0.544240	0.565370	0.449428
	H305	H	0.539828	0.571450	0.459518
	O306	O	0.019053	1.026822	1.047729
	H307	H	0.018921	1.030065	1.042228
	H308	H	0.025502	1.028313	1.044907
	O309	O	0.515549	0.554443	0.509594
	H310	H	0.514311	0.551152	0.509121
	H311	H	0.505970	0.547391	0.509791
