data_Molecule from HDF5

_cell_length_a		16.401501
_cell_length_b		16.278617
_cell_length_c		16.308811
_cell_angle_alpha	89.997925
_cell_angle_beta	89.848427
_cell_angle_gamma	89.918992
_symmetry_space_group_name_H-M	'P 1'
_symmetry_Int_Tables_number		1

loop_
	_symmetry_equiv_pos_as_xyz
	x,y,z

loop_
	_atom_site_label
	_atom_site_type_symbol
	_atom_site_fract_x
	_atom_site_fract_y
	_atom_site_fract_z
	H0	H	0.401952	0.837380	0.717761
	H1	H	0.600244	0.163982	0.717813
	H2	H	0.602055	0.837468	0.287231
	H3	H	0.400672	0.162026	0.285233
	H4	H	0.718345	0.398791	0.837029
	H5	H	0.720615	0.601750	0.162287
	H6	H	0.285433	0.603933	0.838260
	H7	H	0.280775	0.396686	0.161516
	H8	H	0.839219	0.718538	0.399014
	H9	H	0.162152	0.717945	0.599575
	H10	H	0.838618	0.286018	0.600526
	H11	H	0.161697	0.282166	0.396852
	H12	H	0.840119	0.400951	0.718298
	H13	H	0.162062	0.604518	0.716751
	H14	H	0.839259	0.601236	0.282536
	H15	H	0.161920	0.397565	0.279677
	H16	H	0.403086	0.718593	0.839022
	H17	H	0.602082	0.714563	0.165141
	H18	H	0.604255	0.280256	0.839836
	H19	H	0.400924	0.284192	0.164014
	H20	H	0.717827	0.838352	0.402741
	H21	H	0.717436	0.163436	0.604061
	H22	H	0.281599	0.838856	0.605575
	H23	H	0.283356	0.162126	0.399802
	H24	H	0.900585	0.337565	0.214943
	H25	H	0.100299	0.663918	0.213806
	H26	H	0.102386	0.338765	0.782308
	H27	H	0.902382	0.664458	0.784591
	H28	H	0.220701	0.897996	0.339824
	H29	H	0.217247	0.103313	0.663400
	H30	H	0.783171	0.101932	0.339536
	H31	H	0.785587	0.900238	0.663814
	H32	H	0.340996	0.218327	0.900492
	H33	H	0.662756	0.217906	0.104024
	H34	H	0.341022	0.782594	0.104399
	H35	H	0.664394	0.783756	0.902631
	H36	H	0.341267	0.897079	0.221837
	H37	H	0.662929	0.100658	0.219649
	H38	H	0.340527	0.102723	0.784596
	H39	H	0.662849	0.897407	0.783692
	H40	H	0.901698	0.215200	0.337018
	H41	H	0.097834	0.217178	0.663720
	H42	H	0.101098	0.785710	0.337749
	H43	H	0.900891	0.783250	0.662528
	H44	H	0.221028	0.340253	0.894531
	H45	H	0.217982	0.662891	0.101241
	H46	H	0.784328	0.338132	0.101001
	H47	H	0.783201	0.663076	0.897421
	H48	H	0.413844	0.114108	0.592447
	H49	H	0.590711	0.884373	0.598471
	H50	H	0.589409	0.114443	0.411654
	H51	H	0.416727	0.883428	0.402840
	H52	H	0.596842	0.406775	0.117856
	H53	H	0.586348	0.588269	0.889721
	H54	H	0.413753	0.583110	0.111212
	H55	H	0.413680	0.409454	0.887337
	H56	H	0.116547	0.593484	0.406117
	H57	H	0.889256	0.595213	0.579396
	H58	H	0.115078	0.408364	0.589104
	H59	H	0.886024	0.414151	0.401006
	H60	H	0.114593	0.410559	0.590269
	H61	H	0.888921	0.580552	0.594827
	H62	H	0.114873	0.592051	0.408257
	H63	H	0.883622	0.401941	0.405315
	H64	H	0.412297	0.600042	0.117716
	H65	H	0.592674	0.601745	0.882808
	H66	H	0.595877	0.415195	0.114387
	H67	H	0.411053	0.408610	0.885397
	H68	H	0.595789	0.116495	0.413151
	H69	H	0.590739	0.887053	0.589278
	H70	H	0.404121	0.115872	0.589539
	H71	H	0.415504	0.890127	0.422050
	H72	H	0.905428	0.615833	0.086433
	H73	H	0.088364	0.387150	0.088316
	H74	H	0.095985	0.619226	0.902716
	H75	H	0.906575	0.383745	0.904950
	H76	H	0.087683	0.904065	0.615904
	H77	H	0.096142	0.087794	0.386230
	H78	H	0.901731	0.096266	0.619092
	H79	H	0.919569	0.914251	0.389705
	H80	H	0.612999	0.085129	0.916328
	H81	H	0.386329	0.091851	0.099005
	H82	H	0.617276	0.905749	0.093418
	H83	H	0.389057	0.906500	0.916635
	H84	H	0.615589	0.909353	0.094013
	H85	H	0.386783	0.095385	0.091576
	H86	H	0.617216	0.087190	0.903323
	H87	H	0.388979	0.914082	0.910060
	H88	H	0.909419	0.088536	0.614434
	H89	H	0.089390	0.090822	0.387634
	H90	H	0.096775	0.910441	0.618173
	H91	H	0.907438	0.898460	0.381043
	H92	H	0.089265	0.615146	0.907836
	H93	H	0.094636	0.386088	0.085693
	H94	H	0.909908	0.616887	0.095445
	H95	H	0.915575	0.386587	0.906389
	H96	H	0.407577	0.118538	0.599330
	H97	H	0.598797	0.883660	0.592633
	H98	H	0.592895	0.117633	0.406905
	H99	H	0.399263	0.881777	0.412909
	H100	H	0.588968	0.409120	0.113963
	H101	H	0.601800	0.587824	0.884600
	H102	H	0.398964	0.588813	0.118152
	H103	H	0.411445	0.411380	0.887425
	H104	H	0.114882	0.590479	0.405610
	H105	H	0.881479	0.599672	0.598601
	H106	H	0.116417	0.408835	0.591471
	H107	H	0.889369	0.411012	0.413930
	H108	H	0.914628	0.613537	0.086945
	H109	H	0.093299	0.383953	0.092102
	H110	H	0.097461	0.616695	0.911685
	H111	H	0.909513	0.387385	0.912748
	H112	H	0.087909	0.915044	0.613078
	H113	H	0.094221	0.095136	0.383686
	H114	H	0.912910	0.099470	0.617176
	H115	H	0.898781	0.918572	0.384794
	H116	H	0.617761	0.097763	0.912768
	H117	H	0.389088	0.087232	0.092012
	H118	H	0.617704	0.907457	0.096702
	H119	H	0.385045	0.905688	0.906748
	C120	C	0.378975	0.009097	0.624120
	C121	C	0.622638	0.992508	0.623722
	C122	C	0.622923	0.008977	0.380934
	C123	C	0.380254	0.991881	0.381527
	C124	C	0.623864	0.378846	0.008517
	C125	C	0.623602	0.621738	0.993043
	C126	C	0.380060	0.621571	0.008775
	C127	C	0.380502	0.379080	0.992971
	C128	C	0.008981	0.622213	0.377169
	C129	C	0.992906	0.622457	0.620860
	C130	C	0.008829	0.380126	0.620853
	C131	C	0.992477	0.378446	0.376276
	C132	C	0.879837	0.508319	0.120142
	C133	C	0.122189	0.492684	0.119514
	C134	C	0.124109	0.509833	0.876842
	C135	C	0.880171	0.492895	0.877840
	C136	C	0.122069	0.879667	0.509023
	C137	C	0.122020	0.122329	0.493002
	C138	C	0.878941	0.123426	0.509294
	C139	C	0.879541	0.880007	0.492587
	C140	C	0.509667	0.121352	0.880844
	C141	C	0.493647	0.121502	0.124058
	C142	C	0.510431	0.877358	0.125108
	C143	C	0.494120	0.878451	0.881215
	C144	C	0.380941	0.886284	0.680082
	C145	C	0.620358	0.115103	0.679956
	C146	C	0.621780	0.886453	0.325295
	C147	C	0.380917	0.113653	0.323891
	C148	C	0.680705	0.378747	0.886431
	C149	C	0.681171	0.621116	0.114535
	C150	C	0.323836	0.622729	0.886870
	C151	C	0.321151	0.378422	0.113598
	C152	C	0.887602	0.679593	0.378602
	C153	C	0.114014	0.679715	0.619705
	C154	C	0.887166	0.324292	0.619860
	C155	C	0.113548	0.320498	0.376716
	C156	C	0.887947	0.381431	0.678594
	C157	C	0.113958	0.622964	0.678035
	C158	C	0.887494	0.620999	0.320996
	C159	C	0.113792	0.378403	0.318875
	C160	C	0.382387	0.679815	0.887369
	C161	C	0.622213	0.677125	0.115793
	C162	C	0.623553	0.320110	0.887406
	C163	C	0.380751	0.322230	0.115031
	C164	C	0.679571	0.887033	0.382616
	C165	C	0.678736	0.114777	0.623256
	C166	C	0.321689	0.886876	0.623813
	C167	C	0.322740	0.113721	0.381092
	C168	C	0.880601	0.386409	0.176983
	C169	C	0.120501	0.614822	0.176204
	C170	C	0.122840	0.387790	0.819986
	C171	C	0.881460	0.615591	0.821751
	C172	C	0.181100	0.879205	0.387901
	C173	C	0.178158	0.122386	0.615049
	C174	C	0.821942	0.121713	0.387657
	C175	C	0.823570	0.880557	0.615025
	C176	C	0.388911	0.179297	0.881319
	C177	C	0.614603	0.178970	0.123525
	C178	C	0.389464	0.820272	0.124557
	C179	C	0.615821	0.822071	0.882298
	C180	C	0.389544	0.877541	0.182919
	C181	C	0.614659	0.120613	0.181073
	C182	C	0.388831	0.121562	0.823608
	C183	C	0.615201	0.878790	0.823244
	C184	C	0.881091	0.177777	0.386211
	C185	C	0.118845	0.179160	0.614989
	C186	C	0.121537	0.823559	0.386628
	C187	C	0.880828	0.822197	0.614129
	C188	C	0.182018	0.388553	0.875824
	C189	C	0.179121	0.614422	0.119972
	C190	C	0.823037	0.386502	0.119900
	C191	C	0.822494	0.614843	0.878167
	C192	C	0.401766	0.094106	0.600615
	C193	C	0.600013	0.907082	0.600386
	C194	C	0.599457	0.094315	0.403755
	C195	C	0.403743	0.907062	0.405681
	C196	C	0.600579	0.403155	0.093349
	C197	C	0.600389	0.599124	0.907851
	C198	C	0.402216	0.597585	0.093614
	C199	C	0.404957	0.402835	0.908674
	C200	C	0.093418	0.598896	0.400055
	C201	C	0.908493	0.598611	0.597617
	C202	C	0.093293	0.402813	0.597135
	C203	C	0.908219	0.402105	0.399909
	C204	C	0.903169	0.593477	0.096521
	C205	C	0.098945	0.407721	0.095586
	C206	C	0.100997	0.594993	0.900535
	C207	C	0.903699	0.408044	0.901083
	C208	C	0.097864	0.903218	0.593627
	C209	C	0.099854	0.098273	0.407959
	C210	C	0.901304	0.101197	0.594716
	C211	C	0.902004	0.903521	0.407394
	C212	C	0.594054	0.097160	0.904082
	C213	C	0.409185	0.098274	0.101087
	C214	C	0.594895	0.900869	0.101620
	C215	C	0.409589	0.901889	0.904384
	Zn216	Zn	0.501531	0.000121	0.751796
	Zn217	Zn	0.501472	-0.000232	0.252662
	Zn218	Zn	0.751959	0.500514	-0.000316
	Zn219	Zn	0.251022	0.500534	-0.000714
	Zn220	Zn	0.001197	0.750868	0.499869
	Zn221	Zn	0.000233	0.250927	0.499237
	Zn222	Zn	0.001718	0.501773	0.749655
	Zn223	Zn	0.001293	0.500279	0.247850
	Zn224	Zn	0.502484	0.749443	0.002621
	Zn225	Zn	0.502353	0.250400	0.001681
	Zn226	Zn	0.751216	0.001494	0.502538
	Zn227	Zn	0.251024	0.000429	0.501966
	N228	N	0.415772	0.963088	0.680473
	N229	N	0.586192	0.037871	0.680373
	N230	N	0.587427	0.963387	0.324081
	N231	N	0.416052	0.036869	0.324225
	N232	N	0.680616	0.414780	0.962774
	N233	N	0.682293	0.587550	0.037196
	N234	N	0.322301	0.587269	0.963351
	N235	N	0.320754	0.413044	0.036581
	N236	N	0.964010	0.680417	0.412870
	N237	N	0.037782	0.679422	0.584767
	N238	N	0.963456	0.323369	0.584458
	N239	N	0.037221	0.320499	0.411885
	N240	N	0.964503	0.415419	0.679127
	N241	N	0.037668	0.588108	0.678762
	N242	N	0.963941	0.586060	0.319868
	N243	N	0.037521	0.413587	0.318486
	N244	N	0.416367	0.679610	0.964321
	N245	N	0.587189	0.677595	0.039168
	N246	N	0.589138	0.319963	0.964321
	N247	N	0.416967	0.322508	0.039020
	N248	N	0.680320	0.964369	0.416683
	N249	N	0.680286	0.037610	0.589073
	N250	N	0.320148	0.964274	0.590023
	N251	N	0.322094	0.036932	0.416104
	N252	N	0.915254	0.463371	0.177217
	N253	N	0.086027	0.537880	0.176220
	N254	N	0.087697	0.464436	0.820374
	N255	N	0.916904	0.539019	0.821821
	N256	N	0.181580	0.913470	0.465073
	N257	N	0.180278	0.087841	0.538164
	N258	N	0.820570	0.088446	0.465353
	N259	N	0.822726	0.915807	0.538461
	N260	N	0.465122	0.178983	0.916267
	N261	N	0.538287	0.179763	0.088753
	N262	N	0.465626	0.820171	0.089262
	N263	N	0.539708	0.821948	0.917780
	N264	N	0.465820	0.912359	0.183279
	N265	N	0.538430	0.085648	0.181398
	N266	N	0.465015	0.086265	0.823147
	N267	N	0.538431	0.913080	0.822170
	N268	N	0.915540	0.179003	0.462687
	N269	N	0.084808	0.179193	0.537986
	N270	N	0.085597	0.823634	0.462802
	N271	N	0.914896	0.821694	0.536963
	N272	N	0.183004	0.465516	0.910405
	N273	N	0.180006	0.537376	0.085269
	N274	N	0.822488	0.463417	0.085235
	N275	N	0.821472	0.537628	0.912319
	O276	O	0.023616	-0.040944	0.114918
	H277	H	0.031077	-0.047695	0.107916
	H278	H	0.012212	-0.036762	0.114377
	O279	O	0.483168	0.632510	0.436230
	H280	H	0.485458	0.630729	0.439196
	H281	H	0.487022	0.641986	0.450823
	O282	O	1.538794	0.506945	0.479681
	H283	H	1.541343	0.504685	0.491396
	H284	H	1.520225	0.516829	0.474156
	O285	O	0.119225	0.872105	-0.112812
	H286	H	0.119040	0.866555	-0.114885
	H287	H	0.109255	0.855806	-0.097012
	O288	O	0.438299	0.362522	0.545045
	H289	H	0.434969	0.360084	0.520503
	H290	H	0.437106	0.349241	0.551452
	O291	O	0.496054	0.645302	0.633169
	H292	H	0.502582	0.643458	0.637551
	H293	H	0.509480	0.650545	0.628826
	O294	O	1.099213	0.941459	0.954936
	H295	H	1.108774	0.921293	0.948071
	H296	H	1.106830	0.929060	0.943884
	O297	O	-0.021378	-0.039181	0.020169
	H298	H	-0.018597	-0.047185	0.032807
	H299	H	-0.019376	-0.044113	0.007857
	O300	O	0.474596	0.439711	0.383521
	H301	H	0.460473	0.452401	0.383311
	H302	H	0.453263	0.438538	0.379031
	O303	O	0.075457	0.997954	1.046764
	H304	H	0.074773	1.007700	1.039911
	H305	H	0.077884	0.998272	1.062007
	O306	O	0.576202	0.534144	0.622282
	H307	H	0.572454	0.535269	0.626210
	H308	H	0.576970	0.521675	0.605604
	O309	O	0.887624	-0.040891	-0.009086
	H310	H	0.891413	-0.028382	-0.014641
	H311	H	0.891263	-0.032188	-0.030578
	O312	O	0.026234	0.158004	1.115758
	H313	H	0.015573	0.164986	1.118173
	H314	H	0.024825	0.162087	1.122710
	O315	O	0.569204	0.596178	0.516752
	H316	H	0.566131	0.595000	0.505133
	H317	H	0.571890	0.589533	0.521279
	O318	O	0.343969	0.582163	0.564548
	H319	H	0.358876	0.576142	0.570695
	H320	H	0.331342	0.575295	0.578482
	O321	O	0.363220	0.390022	0.673448
	H322	H	0.374488	0.383797	0.667924
	H323	H	0.359238	0.375685	0.684195
	O324	O	0.429865	0.408517	0.631555
	H325	H	0.427735	0.409646	0.619948
	H326	H	0.436166	0.406201	0.629172
	O327	O	0.011523	1.124894	0.929386
	H328	H	0.023024	1.127085	0.921431
	H329	H	0.010340	1.127742	0.936475
	O330	O	0.356408	0.521136	0.348486
	H331	H	0.360934	0.526330	0.375416
	H332	H	0.354560	0.523793	0.338779
	O333	O	0.052874	0.976961	0.997993
	H334	H	0.044015	0.978938	1.011776
	H335	H	0.058766	0.985256	0.992409
	O336	O	0.919795	0.997337	0.898227
	H337	H	0.926484	0.998813	0.904014
	H338	H	0.921276	1.000035	0.903154
	O339	O	0.552899	0.391961	0.451201
	H340	H	0.554966	0.400050	0.436058
	H341	H	0.556924	0.391623	0.446823
	O342	O	1.071282	-0.108381	-0.112949
	H343	H	1.071379	-0.112666	-0.101006
	H344	H	1.071490	-0.099786	-0.107881
	O345	O	0.402443	0.502212	0.520921
	H346	H	0.405091	0.507647	0.521927
	H347	H	0.411340	0.504970	0.519933
	O348	O	1.068193	1.130863	0.922078
	H349	H	1.078416	1.133032	0.930466
	H350	H	1.086084	1.122490	0.924013
	O351	O	0.878562	0.931797	-0.039370
	H352	H	0.881015	0.937513	-0.036997
	H353	H	0.868739	0.930113	-0.039194
	O354	O	0.491206	0.350331	0.462203
	H355	H	0.481779	0.350779	0.465884
	H356	H	0.489710	0.333784	0.460901
	O357	O	0.108425	-0.013740	-0.023531
	H358	H	0.096933	-0.018213	-0.038240
	H359	H	0.096675	-0.013608	-0.021301
	O360	O	-0.117046	-0.030718	-0.018966
	H361	H	-0.109897	-0.035470	-0.017408
	H362	H	-0.118289	-0.043649	-0.012947
	O363	O	0.618216	0.607874	0.528559
	H364	H	0.617557	0.612757	0.525652
	H365	H	0.619853	0.598109	0.527874
	O366	O	0.094934	0.031690	0.039271
	H367	H	0.084711	0.032611	0.040547
	H368	H	0.095171	0.035662	0.046950
	O369	O	0.500657	0.466419	0.416225
	H370	H	0.499154	0.462767	0.418323
	H371	H	0.491760	0.463845	0.417364
	O372	O	0.564792	0.442412	0.515801
	H373	H	0.573662	0.446586	0.509747
	H374	H	0.562793	0.439170	0.523384
	O375	O	0.484429	0.430604	0.498762
	H376	H	0.488121	0.427754	0.505609
	H377	H	0.468074	0.423124	0.504638
	O378	O	0.436930	0.556917	0.456976
	H379	H	0.434433	0.552217	0.450709
	H380	H	0.437971	0.570369	0.464834
	O381	O	0.603667	0.612895	0.574461
	H382	H	0.609998	0.621292	0.577272
	H383	H	0.616313	0.611232	0.578755
	O384	O	0.047509	0.885106	0.050832
	H385	H	0.055776	0.877421	0.059727
	H386	H	0.059325	0.888937	0.046053
	O387	O	0.959499	-0.114552	0.957750
	H388	H	0.951574	-0.121057	0.955980
	H389	H	0.956062	-0.097010	0.955146
	O390	O	-0.102668	1.053584	-0.042246
	H391	H	-0.101152	1.067177	-0.041086
	H392	H	-0.092902	1.061833	-0.052113
	O393	O	1.109070	1.191799	0.065276
	H394	H	1.090166	1.183317	0.070397
	H395	H	1.110328	1.208427	0.069143
	O396	O	0.551298	0.411280	0.460395
	H397	H	0.561934	0.408596	0.468352
	H398	H	0.565266	0.404161	0.460308
	O399	O	-0.058741	0.990921	1.168321
	H400	H	-0.047871	0.973601	1.162050
	H401	H	-0.069066	0.982530	1.172002
	O402	O	0.987155	1.102514	1.001344
	H403	H	0.990782	1.096410	0.994920
	H404	H	0.976450	1.100890	0.994875
	O405	O	0.527106	0.590245	0.335980
	H406	H	0.508881	0.595457	0.336943
	H407	H	0.530565	0.595030	0.329850
