data_Molecule from HDF5

_cell_length_a		16.576438
_cell_length_b		16.616155
_cell_length_c		16.618309
_cell_angle_alpha	89.912927
_cell_angle_beta	90.146329
_cell_angle_gamma	89.858799
_symmetry_space_group_name_H-M	'P 1'
_symmetry_Int_Tables_number		1

loop_
	_symmetry_equiv_pos_as_xyz
	x,y,z

loop_
	_atom_site_label
	_atom_site_type_symbol
	_atom_site_fract_x
	_atom_site_fract_y
	_atom_site_fract_z
	H0	H	0.397761	0.850602	0.687799
	H1	H	0.605780	0.162643	0.689066
	H2	H	0.604516	0.851224	0.246281
	H3	H	0.394772	0.163399	0.246966
	H4	H	0.720087	0.402195	0.812159
	H5	H	0.721605	0.613909	0.122123
	H6	H	0.277280	0.612213	0.811739
	H7	H	0.278297	0.402402	0.123281
	H8	H	0.844293	0.731811	0.359544
	H9	H	0.153332	0.728733	0.574978
	H10	H	0.842474	0.286289	0.571537
	H11	H	0.155941	0.287985	0.365109
	H12	H	0.843347	0.401001	0.688411
	H13	H	0.154222	0.611480	0.689466
	H14	H	0.844635	0.616579	0.243919
	H15	H	0.155649	0.403536	0.248349
	H16	H	0.393268	0.728746	0.811705
	H17	H	0.603830	0.728871	0.123287
	H18	H	0.602503	0.288017	0.810586
	H19	H	0.394126	0.285222	0.122264
	H20	H	0.721400	0.851744	0.362275
	H21	H	0.718651	0.163819	0.569853
	H22	H	0.278173	0.852561	0.574561
	H23	H	0.279941	0.163779	0.364312
	H24	H	0.893891	0.351878	0.189205
	H25	H	0.104886	0.662527	0.190718
	H26	H	0.101776	0.350785	0.749395
	H27	H	0.891290	0.661778	0.743911
	H28	H	0.222212	0.901692	0.312874
	H29	H	0.218647	0.109649	0.624421
	H30	H	0.778723	0.112014	0.310431
	H31	H	0.778391	0.902938	0.621762
	H32	H	0.342847	0.226830	0.862443
	H33	H	0.655383	0.227976	0.071008
	H34	H	0.340802	0.789447	0.070821
	H35	H	0.654894	0.785623	0.863930
	H36	H	0.341486	0.904734	0.186333
	H37	H	0.655249	0.112904	0.188161
	H38	H	0.343482	0.111225	0.745536
	H39	H	0.656480	0.903064	0.749201
	H40	H	0.897200	0.226762	0.309989
	H41	H	0.103541	0.227038	0.623426
	H42	H	0.107874	0.783536	0.312480
	H43	H	0.894480	0.785357	0.621690
	H44	H	0.217106	0.350211	0.866209
	H45	H	0.219249	0.663655	0.072725
	H46	H	0.775776	0.352941	0.073865
	H47	H	0.776365	0.662585	0.861134
	H48	H	0.409176	0.120096	0.558816
	H49	H	0.592312	0.893898	0.558247
	H50	H	0.584848	0.117689	0.378459
	H51	H	0.409174	0.893557	0.374161
	H52	H	0.578649	0.418890	0.074710
	H53	H	0.585402	0.592623	0.857693
	H54	H	0.407791	0.592483	0.078321
	H55	H	0.408362	0.420777	0.856220
	H56	H	0.108805	0.590092	0.377688
	H57	H	0.886640	0.595426	0.555188
	H58	H	0.108147	0.417725	0.549028
	H59	H	0.889266	0.418815	0.382646
	H60	H	0.110415	0.423724	0.564637
	H61	H	0.887508	0.595513	0.552212
	H62	H	0.111774	0.597811	0.378813
	H63	H	0.886555	0.420907	0.373809
	H64	H	0.413146	0.600819	0.078847
	H65	H	0.582863	0.599808	0.855972
	H66	H	0.589165	0.411716	0.081575
	H67	H	0.409905	0.414541	0.854988
	H68	H	0.592639	0.119909	0.379298
	H69	H	0.586809	0.894997	0.558894
	H70	H	0.411863	0.118245	0.557340
	H71	H	0.416657	0.897390	0.378088
	H72	H	0.912548	0.617238	0.052657
	H73	H	0.083048	0.396412	0.062673
	H74	H	0.081506	0.619704	0.871624
	H75	H	0.908155	0.397971	0.884733
	H76	H	0.090167	0.915059	0.579406
	H77	H	0.084869	0.099908	0.355120
	H78	H	0.910780	0.102504	0.580666
	H79	H	0.909353	0.921409	0.355890
	H80	H	0.612953	0.098456	0.877209
	H81	H	0.386710	0.100626	0.054404
	H82	H	0.608241	0.923384	0.055271
	H83	H	0.387238	0.924843	0.871001
	H84	H	0.613407	0.916312	0.063059
	H85	H	0.388635	0.093571	0.054115
	H86	H	0.610933	0.097591	0.879114
	H87	H	0.383868	0.910275	0.876180
	H88	H	0.904239	0.095145	0.580387
	H89	H	0.094779	0.099768	0.353517
	H90	H	0.088636	0.921978	0.577487
	H91	H	0.914149	0.920551	0.356732
	H92	H	0.085490	0.616219	0.885020
	H93	H	0.088303	0.397901	0.050411
	H94	H	0.908618	0.618605	0.054402
	H95	H	0.905885	0.392902	0.876104
	H96	H	0.409195	0.118720	0.555093
	H97	H	0.589319	0.896519	0.554176
	H98	H	0.588868	0.120373	0.371691
	H99	H	0.409114	0.896476	0.383125
	H100	H	0.591197	0.425736	0.077967
	H101	H	0.589707	0.597265	0.853970
	H102	H	0.403622	0.600801	0.081874
	H103	H	0.404097	0.416501	0.853114
	H104	H	0.108711	0.593986	0.385237
	H105	H	0.887880	0.593164	0.553955
	H106	H	0.115362	0.407708	0.560677
	H107	H	0.884932	0.412648	0.377649
	H108	H	0.912666	0.618211	0.057404
	H109	H	0.095653	0.392392	0.060447
	H110	H	0.094333	0.622913	0.876557
	H111	H	0.915315	0.397103	0.877327
	H112	H	0.083832	0.917170	0.577659
	H113	H	0.090110	0.091885	0.356873
	H114	H	0.912511	0.094287	0.575729
	H115	H	0.911615	0.917017	0.354453
	H116	H	0.612083	0.095874	0.877376
	H117	H	0.386498	0.096167	0.060059
	H118	H	0.611188	0.913113	0.052217
	H119	H	0.390979	0.921126	0.885528
	C120	C	0.378787	0.015594	0.589186
	C121	C	0.621442	0.998578	0.588645
	C122	C	0.621049	0.016122	0.345031
	C123	C	0.379066	0.999084	0.346648
	C124	C	0.619173	0.386734	-0.024840
	C125	C	0.618954	0.628989	0.958878
	C126	C	0.376662	0.629164	-0.023648
	C127	C	0.376528	0.385456	0.958214
	C128	C	0.007611	0.628335	0.346635
	C129	C	0.990155	0.627157	0.587623
	C130	C	0.007588	0.384879	0.589202
	C131	C	0.990589	0.386028	0.346580
	C132	C	0.877648	0.515923	0.088434
	C133	C	0.120644	0.499043	0.089683
	C134	C	0.119018	0.515953	0.846756
	C135	C	0.876796	0.498655	0.846112
	C136	C	0.121081	0.885386	0.475895
	C137	C	0.120907	0.128313	0.458918
	C138	C	0.877612	0.129371	0.475596
	C139	C	0.878780	0.886462	0.458334
	C140	C	0.508466	0.128630	0.845481
	C141	C	0.490915	0.128439	0.087518
	C142	C	0.507268	0.886354	0.088520
	C143	C	0.490913	0.886620	0.846556
	C144	C	0.377913	0.897814	0.648586
	C145	C	0.623751	0.115891	0.648566
	C146	C	0.623183	0.898319	0.285785
	C147	C	0.376505	0.116609	0.286792
	C148	C	0.679436	0.384328	0.858531
	C149	C	0.680341	0.631620	0.075908
	C150	C	0.317053	0.630975	0.858598
	C151	C	0.318002	0.383914	0.076185
	C152	C	0.891078	0.690800	0.341990
	C153	C	0.107072	0.688020	0.592320
	C154	C	0.889775	0.325522	0.590463
	C155	C	0.108854	0.327317	0.345708
	C156	C	0.890036	0.382667	0.648412
	C157	C	0.107087	0.629751	0.649225
	C158	C	0.890954	0.633172	0.284746
	C159	C	0.108723	0.384951	0.288011
	C160	C	0.374684	0.688782	0.858663
	C161	C	0.621917	0.688773	0.076353
	C162	C	0.621227	0.327308	0.857783
	C163	C	0.375392	0.325460	0.075758
	C164	C	0.681367	0.898520	0.343382
	C165	C	0.679809	0.116595	0.589315
	C166	C	0.318962	0.898661	0.591970
	C167	C	0.319549	0.116721	0.345361
	C168	C	0.874876	0.399011	0.149408
	C169	C	0.122858	0.616108	0.149900
	C170	C	0.120499	0.397808	0.788622
	C171	C	0.873497	0.615186	0.784581
	C172	C	0.182100	0.882916	0.359212
	C173	C	0.179252	0.128671	0.577245
	C174	C	0.818744	0.130689	0.357443
	C175	C	0.818597	0.884227	0.575182
	C176	C	0.390053	0.187528	0.843334
	C177	C	0.608515	0.188006	0.089545
	C178	C	0.388489	0.828318	0.089492
	C179	C	0.608273	0.826244	0.845325
	C180	C	0.388949	0.885457	0.147347
	C181	C	0.608507	0.130633	0.147551
	C182	C	0.390361	0.129782	0.785702
	C183	C	0.609122	0.884395	0.788288
	C184	C	0.877209	0.187832	0.357184
	C185	C	0.121958	0.187015	0.576818
	C186	C	0.125000	0.824570	0.359048
	C187	C	0.875958	0.825713	0.575115
	C188	C	0.177751	0.397610	0.846765
	C189	C	0.179749	0.616563	0.091453
	C190	C	0.816322	0.399382	0.092075
	C191	C	0.816176	0.615599	0.842614
	C192	C	0.403033	0.097599	0.564411
	C193	C	0.596742	0.916456	0.564057
	C194	C	0.595923	0.097982	0.369490
	C195	C	0.404352	0.917023	0.371359
	C196	C	0.593606	0.411810	0.056937
	C197	C	0.593263	0.604073	0.877075
	C198	C	0.401180	0.604975	0.058525
	C199	C	0.400521	0.410248	0.876257
	C200	C	0.088606	0.601598	0.373173
	C201	C	0.908734	0.601975	0.561223
	C202	C	0.089924	0.409368	0.564943
	C203	C	0.908257	0.410550	0.371064
	C204	C	0.903782	0.596993	0.062299
	C205	C	0.095983	0.417009	0.065059
	C206	C	0.094176	0.598112	0.870932
	C207	C	0.902502	0.417178	0.872090
	C208	C	0.094960	0.910733	0.557031
	C209	C	0.096846	0.104356	0.376722
	C210	C	0.902339	0.104550	0.557752
	C211	C	0.904539	0.912209	0.376670
	C212	C	0.590670	0.104192	0.870734
	C213	C	0.408543	0.103873	0.063103
	C214	C	0.589474	0.910578	0.063988
	C215	C	0.408543	0.911894	0.870711
	Zn216	Zn	0.500474	0.006995	0.717488
	Zn217	Zn	0.498962	0.007393	0.216564
	Zn218	Zn	0.748103	0.507549	-0.032735
	Zn219	Zn	0.248330	0.507626	-0.032309
	Zn220	Zn	-0.000276	0.756678	0.467131
	Zn221	Zn	-0.000698	0.257187	0.467268
	Zn222	Zn	-0.002139	0.506674	0.717339
	Zn223	Zn	-0.001109	0.507512	0.218276
	Zn224	Zn	0.497902	0.757917	-0.032658
	Zn225	Zn	0.498980	0.257001	-0.033294
	Zn226	Zn	0.749525	0.007799	0.466984
	Zn227	Zn	0.249789	0.007001	0.467770
	N228	N	0.414298	0.971685	0.647118
	N229	N	0.587995	0.041407	0.648258
	N230	N	0.586746	0.972651	0.286168
	N231	N	0.412575	0.042240	0.287346
	N232	N	0.678397	0.420599	0.932757
	N233	N	0.678711	0.595207	0.001759
	N234	N	0.317896	0.594764	0.932813
	N235	N	0.318578	0.420531	0.002119
	N236	N	0.964748	0.688131	0.379618
	N237	N	0.033474	0.686409	0.554403
	N238	N	0.964050	0.326613	0.554423
	N239	N	0.034356	0.327977	0.381465
	N240	N	0.964400	0.418858	0.647873
	N241	N	0.033253	0.592748	0.646777
	N242	N	0.964588	0.595011	0.287343
	N243	N	0.034008	0.420565	0.288190
	N244	N	0.410915	0.687980	0.932902
	N245	N	0.584665	0.687472	0.002501
	N246	N	0.584413	0.328579	0.931537
	N247	N	0.411070	0.326247	0.001368
	N248	N	0.680372	0.972773	0.379379
	N249	N	0.678564	0.042516	0.552905
	N250	N	0.319228	0.972976	0.555758
	N251	N	0.320746	0.042473	0.381818
	N252	N	0.912183	0.472690	0.147428
	N253	N	0.086761	0.541890	0.149135
	N254	N	0.084660	0.472452	0.788296
	N255	N	0.910468	0.541321	0.786678
	N256	N	0.179994	0.919931	0.432889
	N257	N	0.178935	0.093060	0.502875
	N258	N	0.818628	0.095240	0.432162
	N259	N	0.820067	0.921129	0.501343
	N260	N	0.464646	0.187210	0.879571
	N261	N	0.534221	0.186710	0.053016
	N262	N	0.463203	0.828337	0.053882
	N263	N	0.533640	0.827536	0.880895
	N264	N	0.463871	0.920775	0.147056
	N265	N	0.534240	0.094279	0.146621
	N266	N	0.465026	0.094257	0.786635
	N267	N	0.535009	0.921326	0.788948
	N268	N	0.913110	0.187052	0.431778
	N269	N	0.086370	0.187118	0.502254
	N270	N	0.087718	0.825892	0.432773
	N271	N	0.912450	0.826942	0.501231
	N272	N	0.177408	0.472364	0.881749
	N273	N	0.178831	0.542472	0.055052
	N274	N	0.817822	0.473243	0.055057
	N275	N	0.818230	0.542125	0.880303
	O276	O	-0.031793	1.097510	-0.219894
	H277	H	-0.031835	1.079235	-0.212000
	H278	H	-0.028686	1.102003	-0.228997
	O279	O	0.694265	0.310028	0.259338
	H280	H	0.652401	0.315495	0.252839
	H281	H	0.696041	0.322323	0.289019
	O282	O	0.982633	0.071843	1.087645
	H283	H	0.978306	0.081445	1.089525
	H284	H	0.996915	0.077376	1.086613
	O285	O	0.461928	0.286145	0.688096
	H286	H	0.450526	0.277247	0.700850
	H287	H	0.456051	0.273405	0.699954
	O288	O	0.285003	0.610508	0.427797
	H289	H	0.286117	0.627025	0.419179
	H290	H	0.285652	0.611405	0.398100
	O291	O	-0.169052	0.112439	0.030315
	H292	H	-0.157544	0.096471	0.037585
	H293	H	-0.171798	0.120367	0.025052
	O294	O	1.211262	-0.213589	0.925553
	H295	H	1.216649	-0.232191	0.929500
	H296	H	1.216175	-0.220037	0.909632
	O297	O	-0.075922	0.860906	0.917110
	H298	H	-0.073829	0.860478	0.920795
	H299	H	-0.067155	0.848220	0.901431
	O300	O	-0.168179	-0.031882	0.922985
	H301	H	-0.160448	-0.030556	0.928862
	H302	H	-0.173313	-0.038373	0.922981
	O303	O	0.538721	0.290044	0.523332
	H304	H	0.549095	0.299307	0.528337
	H305	H	0.520130	0.284491	0.543499
	O306	O	0.394761	0.605282	0.500790
	H307	H	0.397568	0.600783	0.507931
	H308	H	0.396031	0.612004	0.488037
	O309	O	1.033325	0.217873	1.178120
	H310	H	1.015546	0.220328	1.180998
	H311	H	1.025463	0.229266	1.174873
	O312	O	0.638064	0.672363	0.308883
	H313	H	0.655979	0.677873	0.291269
	H314	H	0.647127	0.664793	0.313022
	O315	O	1.189203	1.108018	1.088719
	H316	H	1.194075	1.130852	1.107162
	H317	H	1.182417	1.119158	1.079539
	O318	O	0.709778	0.691539	0.509170
	H319	H	0.721348	0.697037	0.494534
	H320	H	0.707817	0.693808	0.506979
	O321	O	0.639106	1.474736	0.475382
	H322	H	0.639949	1.461680	0.472258
	H323	H	0.632144	1.472550	0.466829
	O324	O	1.250917	1.275870	0.236415
	H325	H	1.234273	1.282330	0.250427
	H326	H	1.265992	1.305262	0.254503
	O327	O	0.204115	-0.202605	0.754359
	H328	H	0.195423	-0.181690	0.767326
	H329	H	0.232752	-0.218709	0.736493
	O330	O	1.024524	0.194879	0.943335
	H331	H	1.038167	0.199190	0.943626
	H332	H	1.025151	0.192528	0.923926
	O333	O	0.723086	0.482830	0.244853
	H334	H	0.750608	0.478895	0.211869
	H335	H	0.707635	0.475792	0.252898
	O336	O	1.015717	-0.012207	-0.141726
	H337	H	1.023848	-0.022682	-0.138066
	H338	H	1.025311	-0.003728	-0.146222
	O339	O	1.163544	-0.807282	0.793225
	H340	H	1.138581	-0.820706	0.797624
	H341	H	1.165505	-0.801488	0.791347
	O342	O	-0.283503	0.293419	0.426545
	H343	H	-0.275607	0.290644	0.431387
	H344	H	-0.282617	0.281980	0.426387
	O345	O	-0.499698	1.290021	1.332156
	H346	H	-0.511140	1.281571	1.332632
	H347	H	-0.508099	1.282129	1.348857
	O348	O	0.181573	-0.169601	0.153692
	H349	H	0.160747	-0.165148	0.134678
	H350	H	0.173429	-0.141013	0.135642
	O351	O	0.507856	0.528012	0.646986
	H352	H	0.522717	0.508113	0.649909
	H353	H	0.515020	0.531618	0.655504
	O354	O	-0.526616	0.568210	1.561100
	H355	H	-0.502781	0.575094	1.570905
	H356	H	-0.528129	0.550050	1.561842
	O357	O	-0.011363	0.187162	-0.244860
	H358	H	-0.024190	0.211161	-0.265281
	H359	H	-0.026058	0.173264	-0.235905
	O360	O	0.653745	0.413559	0.632741
	H361	H	0.654028	0.422202	0.607691
	H362	H	0.639962	0.430530	0.631262
	O363	O	0.281424	0.288090	0.500608
	H364	H	0.270341	0.279469	0.508602
	H365	H	0.271542	0.290983	0.513111
	O366	O	0.507655	0.668269	0.374221
	H367	H	0.518144	0.648452	0.388914
	H368	H	0.498135	0.677770	0.380169
	O369	O	0.826544	0.205022	-0.081092
	H370	H	0.823422	0.214294	-0.072168
	H371	H	0.816615	0.192051	-0.085858
	O372	O	0.496854	0.515877	0.366519
	H373	H	0.498676	0.508789	0.366271
	H374	H	0.503543	0.525424	0.375663
	O375	O	0.580529	-0.657946	0.359964
	H376	H	0.578646	-0.660084	0.380944
	H377	H	0.572382	-0.635286	0.345917
	O378	O	1.191890	1.094520	0.881534
	H379	H	1.194607	1.085881	0.881916
	H380	H	1.191684	1.105470	0.871932
	O381	O	-0.008870	0.788699	1.153352
	H382	H	-0.021744	0.780347	1.167030
	H383	H	-0.006652	0.797192	1.152084
	O384	O	1.211595	0.034680	1.179840
	H385	H	1.215806	0.069897	1.180152
	H386	H	1.226143	0.048913	1.191884
	O387	O	1.025297	0.795751	-0.246075
	H388	H	1.047954	0.789207	-0.247623
	H389	H	1.030327	0.785060	-0.257294
	O390	O	0.639912	0.588235	0.624619
	H391	H	0.643031	0.615055	0.613708
	H392	H	0.654725	0.599448	0.626490
	O393	O	0.499151	0.474758	0.557384
	H394	H	0.508789	0.480579	0.549327
	H395	H	0.506444	0.476188	0.576192
	O396	O	-0.354520	0.670483	1.439744
	H397	H	-0.345478	0.680758	1.427260
	H398	H	-0.365802	0.663062	1.440706
	O399	O	0.215755	-0.032050	0.748588
	H400	H	0.218992	-0.035699	0.755502
	H401	H	0.226639	-0.026727	0.729080
	O402	O	0.279790	0.464284	0.686750
	H403	H	0.278403	0.481094	0.683629
	H404	H	0.265234	0.466560	0.693056
	O405	O	1.005986	-0.044496	0.828014
	H406	H	1.016566	-0.060783	0.819480
	H407	H	1.015150	-0.024188	0.834033
	O408	O	0.286656	0.686144	0.254904
	H409	H	0.262853	0.703709	0.233326
	H410	H	0.305490	0.694624	0.248586
	O411	O	0.282875	0.511535	0.511699
	H412	H	0.282262	0.532582	0.513007
	H413	H	0.295021	0.513512	0.499657
	O414	O	0.899284	-0.008138	0.072058
	H415	H	0.899004	0.014259	0.074671
	H416	H	0.894648	-0.011205	0.056032
	O417	O	0.063839	0.843440	0.987545
	H418	H	0.057239	0.829260	0.989743
	H419	H	0.070314	0.847344	0.994136
	O420	O	-0.218192	0.969434	1.177900
	H421	H	-0.235896	0.975000	1.199642
	H422	H	-0.206592	0.987568	1.175399
	O423	O	-0.134349	-0.156837	0.801973
	H424	H	-0.122806	-0.141563	0.806385
	H425	H	-0.127373	-0.142453	0.800514
	O426	O	0.311514	0.696002	0.654525
	H427	H	0.317762	0.682758	0.625447
	H428	H	0.327432	0.687015	0.654011
	O429	O	0.463245	0.727125	0.246568
	H430	H	0.477285	0.738423	0.237686
	H431	H	0.460442	0.737587	0.245547
	O432	O	0.663582	0.435556	0.656811
	H433	H	0.683941	0.420416	0.667532
	H434	H	0.670557	0.469751	0.657528
	O435	O	-0.221841	0.789152	-0.001607
	H436	H	-0.232291	0.773352	-0.004264
	H437	H	-0.219526	0.778929	0.020959
	O438	O	-0.105534	0.118666	0.116747
	H439	H	-0.123625	0.130321	0.114960
	H440	H	-0.104017	0.097465	0.120299
	O441	O	-0.025456	-0.023008	-0.063404
	H442	H	-0.017017	-0.017117	-0.057888
	H443	H	-0.021979	-0.016458	-0.045936
	O444	O	0.509781	0.539222	0.311273
	H445	H	0.507124	0.548183	0.310861
	H446	H	0.507671	0.543460	0.306369
	O447	O	0.292571	1.298957	1.674012
	H448	H	0.291208	1.305488	1.678247
	H449	H	0.289310	1.320262	1.670324
	O450	O	0.212593	1.221195	0.998674
	H451	H	0.222603	1.229982	1.009911
	H452	H	0.227645	1.224610	1.010234
	O453	O	0.732042	0.746767	0.706315
	H454	H	0.729664	0.743721	0.687721
	H455	H	0.747561	0.775235	0.721194
	O456	O	-0.212256	0.038410	0.750705
	H457	H	-0.214473	0.040784	0.747990
	H458	H	-0.222774	0.033180	0.746061
	O459	O	0.629650	0.561232	0.327337
	H460	H	0.635959	0.564954	0.309007
	H461	H	0.622745	0.563673	0.332388
	O462	O	0.797214	-0.198824	1.171350
	H463	H	0.826281	-0.199838	1.152493
	H464	H	0.798823	-0.155243	1.175062
	O465	O	1.400312	0.371327	0.331266
	H466	H	1.400386	0.385342	0.339956
	H467	H	1.403591	0.371390	0.349467
	O468	O	0.547469	0.674123	0.683389
	H469	H	0.547473	0.666550	0.692925
	H470	H	0.559497	0.680162	0.675559
	O471	O	0.789686	0.219795	0.760593
	H472	H	0.782337	0.213385	0.743263
	H473	H	0.803883	0.212069	0.787446
	O474	O	0.047959	0.952944	0.191531
	H475	H	0.049841	0.955762	0.183940
	H476	H	0.067783	0.965910	0.190300
	O477	O	0.399289	0.374353	1.406706
	H478	H	0.391101	0.383038	1.412402
	H479	H	0.402754	0.370599	1.434243
	O480	O	0.833986	0.196819	0.140720
	H481	H	0.814599	0.209224	0.153686
	H482	H	0.838103	0.202972	0.118811
	O483	O	0.133515	0.927846	0.011059
	H484	H	0.133842	0.929811	0.012457
	H485	H	0.124109	0.940681	0.013546
	O486	O	1.382057	-0.283831	1.537667
	H487	H	1.378919	-0.282690	1.530150
	H488	H	1.376241	-0.266027	1.526389
	O489	O	1.306501	0.520048	0.252238
	H490	H	1.319364	0.529111	0.241480
	H491	H	1.289596	0.540932	0.244825
