data_Molecule from HDF5

_cell_length_a		16.296404
_cell_length_b		16.388249
_cell_length_c		16.306370
_cell_angle_alpha	90.143777
_cell_angle_beta	90.053216
_cell_angle_gamma	90.002380
_symmetry_space_group_name_H-M	'P 1'
_symmetry_Int_Tables_number		1

loop_
	_symmetry_equiv_pos_as_xyz
	x,y,z

loop_
	_atom_site_label
	_atom_site_type_symbol
	_atom_site_fract_x
	_atom_site_fract_y
	_atom_site_fract_z
	H0	H	0.401431	0.837449	0.714102
	H1	H	0.597856	0.162738	0.715259
	H2	H	0.597671	0.837631	0.284266
	H3	H	0.401417	0.163149	0.285762
	H4	H	0.713661	0.401645	0.836153
	H5	H	0.713115	0.597135	0.163678
	H6	H	0.285824	0.597387	0.836250
	H7	H	0.285963	0.401799	0.163736
	H8	H	0.836735	0.715689	0.401432
	H9	H	0.162690	0.715655	0.600500
	H10	H	0.836750	0.285591	0.597838
	H11	H	0.164053	0.285309	0.401700
	H12	H	0.836675	0.402039	0.713366
	H13	H	0.163570	0.597442	0.714635
	H14	H	0.836225	0.596926	0.286383
	H15	H	0.164195	0.402997	0.286441
	H16	H	0.400793	0.714782	0.837113
	H17	H	0.599369	0.714748	0.163502
	H18	H	0.598269	0.284280	0.837084
	H19	H	0.401775	0.285836	0.163757
	H20	H	0.714039	0.837117	0.401425
	H21	H	0.715330	0.162274	0.599231
	H22	H	0.286038	0.837113	0.597269
	H23	H	0.284183	0.162868	0.402429
	H24	H	0.903514	0.337115	0.212972
	H25	H	0.098844	0.662881	0.214710
	H26	H	0.098740	0.337303	0.783366
	H27	H	0.901339	0.663074	0.784720
	H28	H	0.212921	0.902436	0.336163
	H29	H	0.213852	0.097149	0.663716
	H30	H	0.786780	0.096274	0.336325
	H31	H	0.785509	0.902620	0.663296
	H32	H	0.336780	0.215264	0.901439
	H33	H	0.663036	0.215539	0.099675
	H34	H	0.336926	0.784115	0.099525
	H35	H	0.663166	0.784495	0.901624
	H36	H	0.335652	0.903252	0.212695
	H37	H	0.663743	0.097480	0.213350
	H38	H	0.336333	0.098005	0.785176
	H39	H	0.663947	0.902135	0.786241
	H40	H	0.901544	0.214317	0.336410
	H41	H	0.099026	0.215372	0.663287
	H42	H	0.097787	0.784508	0.336953
	H43	H	0.900984	0.785657	0.663159
	H44	H	0.214138	0.336612	0.902095
	H45	H	0.214888	0.662747	0.099136
	H46	H	0.786317	0.337245	0.096490
	H47	H	0.785595	0.663043	0.902211
	H48	H	0.392195	0.119095	0.592522
	H49	H	0.599707	0.882948	0.591803
	H50	H	0.583842	0.114954	0.399481
	H51	H	0.398776	0.885232	0.413679
	H52	H	0.588836	0.412265	0.113610
	H53	H	0.601724	0.589421	0.881887
	H54	H	0.410478	0.595919	0.116571
	H55	H	0.403245	0.407676	0.883469
	H56	H	0.116782	0.593680	0.403630
	H57	H	0.883519	0.599593	0.587780
	H58	H	0.117026	0.412594	0.599266
	H59	H	0.882560	0.403021	0.404104
	H60	H	0.119609	0.397984	0.593389
	H61	H	0.886968	0.586099	0.589317
	H62	H	0.116694	0.596170	0.409767
	H63	H	0.885150	0.405381	0.409193
	H64	H	0.403499	0.593845	0.117326
	H65	H	0.585539	0.588137	0.887635
	H66	H	0.590363	0.400243	0.117477
	H67	H	0.410130	0.410040	0.886539
	H68	H	0.593097	0.112520	0.418049
	H69	H	0.590144	0.882948	0.599494
	H70	H	0.413224	0.117550	0.606263
	H71	H	0.403562	0.880453	0.395891
	H72	H	0.903320	0.618842	0.100342
	H73	H	0.089316	0.385159	0.095148
	H74	H	0.094196	0.614963	0.910720
	H75	H	0.904405	0.382655	0.902369
	H76	H	0.085682	0.904933	0.615246
	H77	H	0.093634	0.094225	0.383415
	H78	H	0.910997	0.090463	0.614655
	H79	H	0.902934	0.900258	0.380211
	H80	H	0.615607	0.088392	0.904627
	H81	H	0.383927	0.094837	0.089443
	H82	H	0.618309	0.897940	0.094737
	H83	H	0.382606	0.898836	0.910548
	H84	H	0.612892	0.909185	0.085004
	H85	H	0.384464	0.090321	0.094506
	H86	H	0.617085	0.097993	0.906117
	H87	H	0.387076	0.912496	0.911133
	H88	H	0.909462	0.098864	0.616722
	H89	H	0.092383	0.092021	0.384451
	H90	H	0.098602	0.900553	0.619534
	H91	H	0.903493	0.914049	0.384919
	H92	H	0.095737	0.616450	0.904683
	H93	H	0.094679	0.385837	0.088435
	H94	H	0.912558	0.614145	0.093263
	H95	H	0.910957	0.385848	0.905011
	H96	H	0.412994	0.110705	0.582525
	H97	H	0.588707	0.887429	0.587537
	H98	H	0.604429	0.120067	0.402316
	H99	H	0.417083	0.887977	0.407436
	H100	H	0.599993	0.408387	0.117642
	H101	H	0.591509	0.602876	0.880817
	H102	H	0.408468	0.589330	0.114563
	H103	H	0.409281	0.402461	0.884212
	H104	H	0.114789	0.590653	0.408576
	H105	H	0.881565	0.593131	0.600149
	H106	H	0.112869	0.409481	0.584032
	H107	H	0.884133	0.408835	0.404192
	H108	H	0.901543	0.615536	0.088400
	H109	H	0.097451	0.382803	0.095692
	H110	H	0.089725	0.614087	0.905778
	H111	H	0.904917	0.385137	0.909992
	H112	H	0.096679	0.914087	0.614866
	H113	H	0.091230	0.094544	0.384200
	H114	H	0.902874	0.092927	0.617420
	H115	H	0.915378	0.905573	0.386075
	H116	H	0.613872	0.092430	0.913541
	H117	H	0.381662	0.097135	0.095312
	H118	H	0.616649	0.912672	0.099950
	H119	H	0.382104	0.907605	0.899130
	C120	C	0.377988	0.008266	0.621749
	C121	C	0.621638	0.991916	0.621915
	C122	C	0.621449	0.008250	0.377903
	C123	C	0.377809	0.992056	0.377703
	C124	C	0.621396	0.378275	0.008173
	C125	C	0.621326	0.621639	0.991708
	C126	C	0.378849	0.621249	0.008211
	C127	C	0.378716	0.378326	0.992468
	C128	C	0.008120	0.621163	0.379282
	C129	C	0.991869	0.621094	0.621324
	C130	C	0.008378	0.378623	0.620858
	C131	C	0.992227	0.377662	0.377688
	C132	C	0.878160	0.508431	0.121718
	C133	C	0.122236	0.492038	0.121991
	C134	C	0.121561	0.507730	0.878554
	C135	C	0.878486	0.492196	0.877819
	C136	C	0.121243	0.878536	0.508507
	C137	C	0.121289	0.121649	0.492079
	C138	C	0.878778	0.121842	0.508160
	C139	C	0.878457	0.878284	0.491604
	C140	C	0.507748	0.121443	0.879206
	C141	C	0.491455	0.122321	0.121794
	C142	C	0.507817	0.878629	0.121482
	C143	C	0.491949	0.878059	0.878477
	C144	C	0.380952	0.885995	0.676327
	C145	C	0.619052	0.114067	0.677692
	C146	C	0.618551	0.885913	0.322511
	C147	C	0.380675	0.114812	0.323832
	C148	C	0.676116	0.380899	0.885106
	C149	C	0.675815	0.618170	0.114885
	C150	C	0.323554	0.618220	0.885231
	C151	C	0.324030	0.381509	0.115063
	C152	C	0.885345	0.676992	0.381081
	C153	C	0.114393	0.676769	0.619772
	C154	C	0.885657	0.323659	0.618368
	C155	C	0.115298	0.322921	0.380816
	C156	C	0.885417	0.381697	0.675493
	C157	C	0.114778	0.618435	0.676854
	C158	C	0.884845	0.618079	0.324206
	C159	C	0.115280	0.381476	0.323608
	C160	C	0.380662	0.676493	0.885622
	C161	C	0.618917	0.676319	0.114847
	C162	C	0.618925	0.322635	0.885558
	C163	C	0.381368	0.323541	0.114950
	C164	C	0.676259	0.885743	0.380685
	C165	C	0.677146	0.113943	0.619816
	C166	C	0.323548	0.885732	0.618284
	C167	C	0.322390	0.114411	0.381537
	C168	C	0.882690	0.385689	0.175238
	C169	C	0.119113	0.614401	0.176737
	C170	C	0.119026	0.385282	0.822690
	C171	C	0.881219	0.614558	0.823229
	C172	C	0.175791	0.881331	0.385033
	C173	C	0.176061	0.118317	0.614990
	C174	C	0.824326	0.117804	0.385094
	C175	C	0.823061	0.881350	0.614547
	C176	C	0.385172	0.176957	0.881233
	C177	C	0.614598	0.176935	0.119569
	C178	C	0.385197	0.823059	0.119266
	C179	C	0.614813	0.822989	0.881173
	C180	C	0.384699	0.881776	0.175945
	C181	C	0.614777	0.118287	0.175999
	C182	C	0.385022	0.118708	0.823776
	C183	C	0.615074	0.881483	0.824079
	C184	C	0.881345	0.176199	0.385197
	C185	C	0.119317	0.177134	0.614894
	C186	C	0.119027	0.822764	0.385552
	C187	C	0.880478	0.823373	0.614400
	C188	C	0.176624	0.385197	0.881105
	C189	C	0.176910	0.614358	0.119168
	C190	C	0.824230	0.385829	0.117622
	C191	C	0.823662	0.614724	0.881572
	C192	C	0.399577	0.093746	0.600165
	C193	C	0.599564	0.906637	0.599546
	C194	C	0.600013	0.093629	0.400019
	C195	C	0.399920	0.906698	0.399413
	C196	C	0.599595	0.400516	0.094304
	C197	C	0.599439	0.599811	0.905740
	C198	C	0.401029	0.599549	0.094051
	C199	C	0.400969	0.400170	0.906628
	C200	C	0.093912	0.599672	0.400948
	C201	C	0.906078	0.599275	0.599067
	C202	C	0.094444	0.400439	0.598810
	C203	C	0.906170	0.399201	0.399495
	C204	C	0.899388	0.594144	0.100483
	C205	C	0.100252	0.406405	0.099676
	C206	C	0.099555	0.593094	0.900482
	C207	C	0.900284	0.406768	0.899385
	C208	C	0.099994	0.900266	0.594267
	C209	C	0.098905	0.099856	0.406215
	C210	C	0.901083	0.100312	0.594145
	C211	C	0.900729	0.900176	0.406039
	C212	C	0.593530	0.099386	0.901627
	C213	C	0.405575	0.100571	0.099701
	C214	C	0.593749	0.900339	0.099636
	C215	C	0.406188	0.899800	0.900458
	Zn216	Zn	0.499940	0.000019	0.750316
	Zn217	Zn	0.499530	0.000668	0.249390
	Zn218	Zn	0.749274	0.499994	-0.000332
	Zn219	Zn	0.250428	0.499881	0.000289
	Zn220	Zn	0.000160	0.750042	0.500474
	Zn221	Zn	0.000028	0.250031	0.499814
	Zn222	Zn	0.000151	0.499856	0.749462
	Zn223	Zn	0.000583	0.500280	0.250002
	Zn224	Zn	0.500097	0.750120	0.000107
	Zn225	Zn	0.500103	0.250166	0.000307
	Zn226	Zn	0.750352	0.000104	0.499939
	Zn227	Zn	0.249352	-0.000322	0.500197
	N228	N	0.414314	0.963134	0.678450
	N229	N	0.585217	0.037285	0.678736
	N230	N	0.585183	0.962959	0.320795
	N231	N	0.414427	0.037846	0.321502
	N232	N	0.677919	0.414754	0.962602
	N233	N	0.677403	0.584541	0.037454
	N234	N	0.322384	0.584507	0.962531
	N235	N	0.322590	0.415007	0.037783
	N236	N	0.962695	0.678782	0.414732
	N237	N	0.037064	0.678381	0.585667
	N238	N	0.963042	0.321890	0.584777
	N239	N	0.037676	0.320766	0.413971
	N240	N	0.962935	0.415080	0.677171
	N241	N	0.037665	0.584596	0.677759
	N242	N	0.962138	0.584228	0.322862
	N243	N	0.037815	0.414628	0.321512
	N244	N	0.414349	0.678355	0.962974
	N245	N	0.586055	0.678709	0.037124
	N246	N	0.585699	0.321162	0.962955
	N247	N	0.414752	0.321658	0.037590
	N248	N	0.678311	0.962686	0.414430
	N249	N	0.678695	0.037044	0.585735
	N250	N	0.321485	0.962781	0.585243
	N251	N	0.320463	0.037058	0.414295
	N252	N	0.915489	0.463033	0.177736
	N253	N	0.085864	0.537289	0.178582
	N254	N	0.085397	0.462325	0.821168
	N255	N	0.914594	0.537513	0.820851
	N256	N	0.177408	0.915201	0.462325
	N257	N	0.177251	0.084551	0.537756
	N258	N	0.822674	0.084846	0.462604
	N259	N	0.821468	0.914638	0.537242
	N260	N	0.462615	0.178545	0.915131
	N261	N	0.537007	0.179459	0.086460
	N262	N	0.462815	0.820983	0.086243
	N263	N	0.537305	0.820949	0.914400
	N264	N	0.461816	0.915944	0.177231
	N265	N	0.537172	0.085088	0.177499
	N266	N	0.462230	0.084969	0.822388
	N267	N	0.537715	0.914878	0.822233
	N268	N	0.914454	0.178718	0.462826
	N269	N	0.085886	0.179153	0.537366
	N270	N	0.085829	0.820961	0.463053
	N271	N	0.914272	0.821452	0.537091
	N272	N	0.178148	0.462149	0.915169
	N273	N	0.178793	0.537265	0.085726
	N274	N	0.821527	0.463040	0.084912
	N275	N	0.821929	0.537703	0.915023
