data_Molecule from HDF5

_cell_length_a		16.500706
_cell_length_b		16.526392
_cell_length_c		16.517557
_cell_angle_alpha	89.863229
_cell_angle_beta	89.961098
_cell_angle_gamma	90.137869
_symmetry_space_group_name_H-M	'P 1'
_symmetry_Int_Tables_number		1

loop_
	_symmetry_equiv_pos_as_xyz
	x,y,z

loop_
	_atom_site_label
	_atom_site_type_symbol
	_atom_site_fract_x
	_atom_site_fract_y
	_atom_site_fract_z
	H0	H	0.382885	0.836121	0.706334
	H1	H	0.596697	0.149823	0.707506
	H2	H	0.598707	0.837622	0.258236
	H3	H	0.382184	0.148469	0.259979
	H4	H	0.711134	0.387234	0.826292
	H5	H	0.712896	0.601524	0.139052
	H6	H	0.265639	0.600186	0.827213
	H7	H	0.267339	0.388510	0.142311
	H8	H	0.830582	0.717512	0.375177
	H9	H	0.143025	0.717370	0.590278
	H10	H	0.831960	0.267110	0.593897
	H11	H	0.144887	0.273487	0.380161
	H12	H	0.832146	0.382085	0.709961
	H13	H	0.144543	0.598953	0.704736
	H14	H	0.830072	0.600600	0.261649
	H15	H	0.144670	0.389750	0.263533
	H16	H	0.383032	0.714781	0.825790
	H17	H	0.597766	0.717999	0.139102
	H18	H	0.594203	0.272253	0.825289
	H19	H	0.381276	0.269933	0.139800
	H20	H	0.712612	0.837228	0.376731
	H21	H	0.712158	0.149478	0.591634
	H22	H	0.265167	0.836413	0.591204
	H23	H	0.266633	0.150058	0.377553
	H24	H	0.881627	0.336603	0.205989
	H25	H	0.093878	0.651202	0.207147
	H26	H	0.093553	0.336464	0.763413
	H27	H	0.880756	0.648600	0.758554
	H28	H	0.210338	0.886248	0.326961
	H29	H	0.211062	0.100154	0.640104
	H30	H	0.764300	0.101573	0.328691
	H31	H	0.763379	0.884112	0.639859
	H32	H	0.330596	0.214209	0.878596
	H33	H	0.643166	0.219553	0.092167
	H34	H	0.332317	0.768548	0.091930
	H35	H	0.645380	0.772320	0.877168
	H36	H	0.332103	0.883904	0.208207
	H37	H	0.643385	0.102312	0.208540
	H38	H	0.330571	0.097572	0.763194
	H39	H	0.645737	0.889346	0.761974
	H40	H	0.881714	0.216282	0.327979
	H41	H	0.095355	0.216505	0.640268
	H42	H	0.093106	0.771210	0.326832
	H43	H	0.876702	0.765693	0.638031
	H44	H	0.207678	0.336117	0.882502
	H45	H	0.211782	0.650447	0.092570
	H46	H	0.765238	0.337279	0.089050
	H47	H	0.765892	0.649736	0.875492
	H48	H	0.399755	0.105175	0.572723
	H49	H	0.580973	0.879983	0.572074
	H50	H	0.571319	0.101846	0.400336
	H51	H	0.400387	0.883130	0.400886
	H52	H	0.573204	0.407412	0.092976
	H53	H	0.574990	0.580466	0.873122
	H54	H	0.399563	0.577360	0.094466
	H55	H	0.397833	0.403541	0.871427
	H56	H	0.096365	0.575916	0.395675
	H57	H	0.871001	0.589258	0.571864
	H58	H	0.097247	0.408276	0.570251
	H59	H	0.874632	0.399416	0.400282
	H60	H	0.100161	0.405485	0.576476
	H61	H	0.880684	0.575865	0.560918
	H62	H	0.100899	0.584881	0.391073
	H63	H	0.876779	0.410030	0.395845
	H64	H	0.405245	0.583170	0.094938
	H65	H	0.575807	0.585645	0.871196
	H66	H	0.574551	0.403875	0.094635
	H67	H	0.395875	0.405180	0.871193
	H68	H	0.579392	0.104610	0.398190
	H69	H	0.572583	0.881112	0.578486
	H70	H	0.398782	0.105688	0.573243
	H71	H	0.394592	0.879171	0.395700
	H72	H	0.896577	0.606510	0.069106
	H73	H	0.087170	0.378155	0.076120
	H74	H	0.074805	0.607366	0.889883
	H75	H	0.900612	0.383710	0.901822
	H76	H	0.076494	0.906789	0.595506
	H77	H	0.078228	0.078776	0.373447
	H78	H	0.903555	0.074627	0.593413
	H79	H	0.900512	0.900349	0.370383
	H80	H	0.600647	0.078691	0.890803
	H81	H	0.374677	0.087433	0.069232
	H82	H	0.598002	0.912641	0.070955
	H83	H	0.376466	0.911153	0.890359
	H84	H	0.601903	0.904619	0.074585
	H85	H	0.380811	0.075981	0.064437
	H86	H	0.604440	0.089386	0.891902
	H87	H	0.372583	0.896481	0.892510
	H88	H	0.903050	0.084071	0.596576
	H89	H	0.074065	0.084758	0.371852
	H90	H	0.073376	0.904835	0.594476
	H91	H	0.895795	0.911589	0.373682
	H92	H	0.073000	0.604184	0.898012
	H93	H	0.069089	0.381432	0.082312
	H94	H	0.898971	0.607281	0.077828
	H95	H	0.895611	0.379758	0.896086
	H96	H	0.399735	0.105213	0.574128
	H97	H	0.572107	0.884550	0.568186
	H98	H	0.573236	0.104283	0.392251
	H99	H	0.402869	0.881220	0.392768
	H100	H	0.577333	0.407226	0.094551
	H101	H	0.579355	0.581462	0.869550
	H102	H	0.397475	0.584339	0.097440
	H103	H	0.398465	0.405891	0.872057
	H104	H	0.097822	0.584890	0.401605
	H105	H	0.875356	0.571820	0.579389
	H106	H	0.099457	0.401194	0.569864
	H107	H	0.871983	0.401945	0.389394
	H108	H	0.904512	0.603997	0.071470
	H109	H	0.074072	0.386830	0.064550
	H110	H	0.081450	0.606806	0.895845
	H111	H	0.903776	0.381941	0.893471
	H112	H	0.076268	0.902828	0.596124
	H113	H	0.080677	0.084580	0.370153
	H114	H	0.895367	0.078825	0.597454
	H115	H	0.908071	0.908764	0.376115
	H116	H	0.599120	0.084729	0.900838
	H117	H	0.375852	0.076205	0.076996
	H118	H	0.597545	0.904137	0.065647
	H119	H	0.379156	0.904523	0.903614
	C120	C	0.366766	0.001482	0.605677
	C121	C	0.609081	0.985153	0.605746
	C122	C	0.608992	0.000957	0.363085
	C123	C	0.366765	0.984460	0.362796
	C124	C	0.608502	0.373020	-0.009226
	C125	C	0.610191	0.615224	0.974795
	C126	C	0.367157	0.614988	-0.007672
	C127	C	0.365472	0.372152	0.975538
	C128	C	-0.004701	0.615358	0.362385
	C129	C	0.978904	0.613389	0.604248
	C130	C	-0.003725	0.370602	0.606263
	C131	C	0.978745	0.372231	0.363052
	C132	C	0.866409	0.502281	0.105344
	C133	C	0.109850	0.485800	0.106915
	C134	C	0.108573	0.501968	0.863749
	C135	C	0.866822	0.484726	0.862697
	C136	C	0.108466	0.871936	0.491938
	C137	C	0.109949	0.114858	0.475431
	C138	C	0.867016	0.113702	0.492792
	C139	C	0.866121	0.871589	0.475506
	C140	C	0.496937	0.115441	0.862187
	C141	C	0.479848	0.114534	0.104501
	C142	C	0.496498	0.872286	0.104850
	C143	C	0.480283	0.872736	0.862936
	C144	C	0.364649	0.883338	0.666140
	C145	C	0.613957	0.102709	0.667157
	C146	C	0.614534	0.884011	0.300074
	C147	C	0.363910	0.101951	0.300889
	C148	C	0.670024	0.369700	0.873090
	C149	C	0.672283	0.618941	0.092069
	C150	C	0.306076	0.617972	0.874472
	C151	C	0.306567	0.370157	0.094427
	C152	C	0.877560	0.676635	0.358443
	C153	C	0.096206	0.675955	0.608004
	C154	C	0.878914	0.307813	0.611002
	C155	C	0.097337	0.312952	0.361245
	C156	C	0.879085	0.365116	0.668895
	C157	C	0.097191	0.616830	0.664793
	C158	C	0.877369	0.618735	0.301308
	C159	C	0.097214	0.370827	0.303144
	C160	C	0.364224	0.675546	0.873966
	C161	C	0.614587	0.676876	0.092127
	C162	C	0.611551	0.312324	0.872676
	C163	C	0.363295	0.311182	0.093369
	C164	C	0.671745	0.884016	0.358645
	C165	C	0.671543	0.102544	0.609417
	C166	C	0.306182	0.883340	0.608708
	C167	C	0.306672	0.102604	0.359501
	C168	C	0.863150	0.384151	0.166000
	C169	C	0.112801	0.603643	0.167681
	C170	C	0.111440	0.383467	0.803973
	C171	C	0.863403	0.601847	0.799769
	C172	C	0.169658	0.868955	0.374032
	C173	C	0.170728	0.117835	0.593214
	C174	C	0.805234	0.118507	0.375290
	C175	C	0.803815	0.866365	0.592643
	C176	C	0.378013	0.174475	0.859890
	C177	C	0.596552	0.177916	0.109412
	C178	C	0.379333	0.809482	0.109061
	C179	C	0.598490	0.812751	0.859615
	C180	C	0.379113	0.867067	0.167107
	C181	C	0.596661	0.119611	0.167239
	C182	C	0.378074	0.116639	0.802523
	C183	C	0.598604	0.870958	0.802250
	C184	C	0.863764	0.175663	0.375140
	C185	C	0.112987	0.175514	0.593373
	C186	C	0.111451	0.811193	0.374064
	C187	C	0.860390	0.807535	0.591753
	C188	C	0.168289	0.383257	0.862900
	C189	C	0.171278	0.603524	0.110475
	C190	C	0.805459	0.384319	0.107750
	C191	C	0.806326	0.602710	0.858280
	C192	C	0.392045	0.083922	0.580455
	C193	C	0.582732	0.903229	0.580131
	C194	C	0.582320	0.082343	0.389432
	C195	C	0.392240	0.902558	0.388952
	C196	C	0.582548	0.398895	0.072670
	C197	C	0.584235	0.589631	0.892715
	C198	C	0.393371	0.589280	0.074284
	C199	C	0.390228	0.397727	0.893119
	C200	C	0.077196	0.589309	0.388753
	C201	C	0.897050	0.586713	0.578233
	C202	C	0.077669	0.397236	0.579691
	C203	C	0.895956	0.396799	0.388142
	C204	C	0.892426	0.584520	0.080161
	C205	C	0.084183	0.403597	0.081545
	C206	C	0.083592	0.584442	0.887773
	C207	C	0.892527	0.403117	0.889411
	C208	C	0.082781	0.897484	0.573874
	C209	C	0.084940	0.089748	0.393125
	C210	C	0.893170	0.086836	0.574359
	C211	C	0.893621	0.899220	0.394349
	C212	C	0.579749	0.091189	0.887316
	C213	C	0.398294	0.087527	0.077757
	C214	C	0.577892	0.899621	0.078103
	C215	C	0.397612	0.897134	0.888173
	Zn216	Zn	0.488354	-0.006339	0.734387
	Zn217	Zn	0.488395	-0.007129	0.233756
	Zn218	Zn	0.737678	0.493326	-0.017149
	Zn219	Zn	0.237541	0.494187	-0.015172
	Zn220	Zn	-0.013345	0.742879	0.483478
	Zn221	Zn	-0.012259	0.242992	0.484724
	Zn222	Zn	-0.012160	0.492450	0.733500
	Zn223	Zn	-0.012959	0.494441	0.234717
	Zn224	Zn	0.489000	0.743770	-0.016993
	Zn225	Zn	0.487490	0.243777	-0.017149
	Zn226	Zn	0.737917	-0.007008	0.484786
	Zn227	Zn	0.237637	-0.007092	0.484290
	N228	N	0.401297	0.957979	0.664505
	N229	N	0.575815	0.028786	0.665062
	N230	N	0.576327	0.957742	0.302664
	N231	N	0.400472	0.027474	0.302826
	N232	N	0.668105	0.406634	0.947434
	N233	N	0.669625	0.581334	0.017987
	N234	N	0.307736	0.581151	0.949093
	N235	N	0.307910	0.407479	0.020061
	N236	N	0.952090	0.674679	0.395771
	N237	N	0.021453	0.674271	0.571530
	N238	N	0.952735	0.311158	0.572603
	N239	N	0.022612	0.313687	0.397908
	N240	N	0.952897	0.403621	0.666035
	N241	N	0.023050	0.578698	0.662667
	N242	N	0.951476	0.581129	0.303771
	N243	N	0.022312	0.406913	0.304234
	N244	N	0.401510	0.673984	0.948433
	N245	N	0.576544	0.674608	0.018263
	N246	N	0.574112	0.314012	0.947204
	N247	N	0.399282	0.312234	0.018492
	N248	N	0.668585	0.957640	0.397123
	N249	N	0.668584	0.028452	0.571779
	N250	N	0.307265	0.957901	0.571769
	N251	N	0.308042	0.028308	0.397121
	N252	N	0.900112	0.458623	0.164556
	N253	N	0.075225	0.529328	0.165682
	N254	N	0.075037	0.458277	0.804060
	N255	N	0.900199	0.527507	0.802260
	N256	N	0.167839	0.906137	0.448469
	N257	N	0.169004	0.080913	0.518788
	N258	N	0.807152	0.080628	0.449451
	N259	N	0.807418	0.905589	0.519333
	N260	N	0.452950	0.174046	0.896025
	N261	N	0.522808	0.174700	0.071027
	N262	N	0.453558	0.812357	0.071337
	N263	N	0.524053	0.813845	0.896632
	N264	N	0.453085	0.905416	0.164687
	N265	N	0.523051	0.080873	0.164402
	N266	N	0.453016	0.080632	0.803723
	N267	N	0.524016	0.907610	0.804211
	N268	N	0.901331	0.172800	0.449196
	N269	N	0.075846	0.173965	0.519154
	N270	N	0.074086	0.812810	0.448407
	N271	N	0.898754	0.810955	0.517948
	N272	N	0.166796	0.457984	0.899034
	N273	N	0.169700	0.529092	0.073632
	N274	N	0.807049	0.459005	0.070898
	N275	N	0.808452	0.528982	0.896856
	O276	O	0.626125	0.587640	0.690610
	H277	H	0.634155	0.584592	0.716889
	H278	H	0.609859	0.613723	0.677825
	O279	O	0.507830	0.283137	0.277720
	H280	H	0.510581	0.291763	0.267528
	H281	H	0.518332	0.276042	0.267597
	O282	O	1.133934	1.178461	-0.107368
	H283	H	1.126129	1.172992	-0.099202
	H284	H	1.153536	1.191194	-0.110638
	O285	O	0.532791	0.707054	0.416871
	H286	H	0.550829	0.715695	0.409588
	H287	H	0.531301	0.681897	0.407215
	O288	O	0.032947	0.033032	0.037066
	H289	H	0.046902	0.037869	0.039352
	H290	H	0.024821	0.033588	0.034508
	O291	O	1.194820	1.234303	0.229337
	H292	H	1.166147	1.229041	0.221276
	H293	H	1.208401	1.263807	0.248609
	O294	O	0.008423	0.821215	0.130484
	H295	H	0.017563	0.829116	0.137091
	H296	H	0.010618	0.821816	0.131194
	O297	O	0.280164	0.286877	0.570821
	H298	H	0.284539	0.277538	0.586535
	H299	H	0.272298	0.276393	0.559811
	O300	O	0.171102	0.802015	0.788668
	H301	H	0.153078	0.793018	0.810463
	H302	H	0.153415	0.791813	0.809126
	O303	O	0.381747	0.385118	0.279947
	H304	H	0.384421	0.403281	0.291175
	H305	H	0.399656	0.398696	0.285952
	O306	O	-0.197662	1.178892	1.100949
	H307	H	-0.180060	1.172067	1.098494
	H308	H	-0.195859	1.172999	1.083311
	O309	O	0.272222	0.661703	0.491047
	H310	H	0.276258	0.660723	0.477484
	H311	H	0.261821	0.664007	0.496509
	O312	O	0.466871	0.633765	0.605756
	H313	H	0.465761	0.623658	0.606350
	H314	H	0.452767	0.650684	0.591578
	O315	O	-0.123670	0.077230	0.785876
	H316	H	-0.126413	0.063774	0.780225
	H317	H	-0.118368	0.074476	0.804452
	O318	O	-0.137417	0.995162	0.192576
	H319	H	-0.130303	0.971274	0.186266
	H320	H	-0.144868	1.006381	0.195099
	O321	O	0.323935	0.409020	0.357428
	H322	H	0.319453	0.402747	0.356162
	H323	H	0.324321	0.410646	0.348430
	O324	O	0.547992	0.552960	0.259840
	H325	H	0.559499	0.564311	0.259345
	H326	H	0.539860	0.547685	0.272043
	O327	O	1.102937	0.185695	1.004387
	H328	H	1.122603	0.192922	0.994471
	H329	H	1.077028	0.184920	0.988466
	O330	O	0.940320	0.028040	-0.155782
	H331	H	0.939545	0.017998	-0.150189
	H332	H	0.949559	0.029363	-0.161172
	O333	O	0.858730	0.821142	0.938801
	H334	H	0.870620	0.815652	0.934857
	H335	H	0.873876	0.830003	0.952093
	O336	O	0.896358	0.130702	0.774335
	H337	H	0.898444	0.115897	0.772578
	H338	H	0.880564	0.154254	0.750820
	O339	O	0.881513	1.141285	1.029963
	H340	H	0.864318	1.137062	1.003350
	H341	H	0.896288	1.140969	1.018160
	O342	O	0.681896	0.690301	0.475850
	H343	H	0.682469	0.663451	0.479933
	H344	H	0.689186	0.703354	0.476957
	O345	O	0.003131	-0.009550	-0.232253
	H346	H	-0.009046	0.011443	-0.229745
	H347	H	0.020489	-0.003767	-0.225257
	O348	O	0.800725	-0.218077	0.992266
	H349	H	0.818024	-0.221918	0.981979
	H350	H	0.777158	-0.239522	0.992346
	O351	O	1.356374	0.604956	0.590844
	H352	H	1.352736	0.621210	0.599580
	H353	H	1.367287	0.620760	0.583346
	O354	O	0.345261	0.317911	0.687126
	H355	H	0.354375	0.344651	0.686529
	H356	H	0.360616	0.309797	0.690048
	O357	O	1.207771	0.994818	0.972604
	H358	H	1.202863	0.990518	0.983430
	H359	H	1.207981	0.993599	0.967510
	O360	O	0.429535	0.713442	0.542182
	H361	H	0.429354	0.723178	0.517457
	H362	H	0.423477	0.714162	0.518440
	O363	O	0.389024	0.363028	0.591632
	H364	H	0.385258	0.340600	0.573228
	H365	H	0.370510	0.365823	0.621663
	O366	O	1.305646	-0.321430	1.302661
	H367	H	1.294517	-0.357356	1.303885
	H368	H	1.343863	-0.310810	1.303699
	O369	O	0.464275	0.709037	0.264073
	H370	H	0.469655	0.722863	0.236506
	H371	H	0.471119	0.714127	0.271212
	O372	O	0.343860	0.462483	0.692452
	H373	H	0.325568	0.462555	0.702631
	H374	H	0.350461	0.475340	0.688712
	O375	O	0.133245	0.875578	1.113128
	H376	H	0.131181	0.892905	1.111633
	H377	H	0.122980	0.874578	1.126702
	O378	O	0.527957	0.540089	0.481143
	H379	H	0.518408	0.543063	0.473566
	H380	H	0.531356	0.527526	0.485414
	O381	O	1.009734	-0.214827	-0.235414
	H382	H	0.993601	-0.208756	-0.257521
	H383	H	0.998838	-0.217990	-0.254050
	O384	O	0.204413	-0.222491	0.953298
	H385	H	0.231976	-0.237744	0.964394
	H386	H	0.198340	-0.215376	0.979070
	O387	O	-0.455478	1.329983	0.637738
	H388	H	-0.462449	1.328677	0.631488
	H389	H	-0.447661	1.331165	0.642026
	O390	O	-0.063163	-0.137846	0.958386
	H391	H	-0.069317	-0.134100	0.939481
	H392	H	-0.071244	-0.150835	0.962145
	O393	O	0.967599	1.016981	-0.070885
	H394	H	0.969346	1.031606	-0.071167
	H395	H	0.969558	1.012957	-0.073325
	O396	O	0.707810	0.513888	0.341602
	H397	H	0.720341	0.496060	0.330830
	H398	H	0.703438	0.476343	0.348283
	O399	O	1.180625	0.995886	0.874518
	H400	H	1.193481	0.977657	0.856456
	H401	H	1.175394	0.983458	0.888365
	O402	O	-0.233422	0.013844	1.000993
	H403	H	-0.243373	0.010264	0.999658
	H404	H	-0.220912	-0.010852	1.016925
	O405	O	-0.209081	0.189291	-0.097933
	H406	H	-0.208080	0.180070	-0.105371
	H407	H	-0.210676	0.195413	-0.089516
	O408	O	0.676304	1.300582	1.296810
	H409	H	0.674219	1.312483	1.310993
	H410	H	0.681159	1.290182	1.282849
	O411	O	0.481586	0.493963	0.694881
	H412	H	0.491522	0.485612	0.691531
	H413	H	0.478008	0.504439	0.698244
	O414	O	0.471333	0.466531	0.490799
	H415	H	0.456872	0.476041	0.494404
	H416	H	0.488221	0.444232	0.499603
	O417	O	0.729602	0.378124	0.709262
	H418	H	0.736749	0.345409	0.710257
	H419	H	0.730018	0.380566	0.709119
	O420	O	0.451212	0.462818	0.498375
	H421	H	0.437828	0.450141	0.511400
	H422	H	0.452379	0.466883	0.520910
	O423	O	0.138100	1.200169	0.096084
	H424	H	0.125305	1.184633	0.118228
	H425	H	0.150566	1.224367	0.103415
	O426	O	1.151465	1.029663	0.771909
	H427	H	1.171533	1.008905	0.773106
	H428	H	1.157180	1.017819	0.776083
	O429	O	0.465192	0.319395	0.592717
	H430	H	0.479358	0.308041	0.586835
	H431	H	0.475351	0.333278	0.604068
	O432	O	0.906194	-0.193081	0.971828
	H433	H	0.898986	-0.189652	0.955731
	H434	H	0.901859	-0.192964	0.980127
	O435	O	-0.038177	0.186801	0.151204
	H436	H	-0.040857	0.172754	0.134995
	H437	H	-0.040317	0.194633	0.147907
	O438	O	1.505936	-0.605705	0.486651
	H439	H	1.502259	-0.595892	0.469365
	H440	H	1.510205	-0.622526	0.494587
	O441	O	0.699703	0.386268	0.542234
	H442	H	0.710207	0.386282	0.548935
	H443	H	0.714490	0.367799	0.517139
	O444	O	0.021603	1.004116	1.154444
	H445	H	0.010905	1.005548	1.145962
	H446	H	0.032750	1.007035	1.145358
	O447	O	0.912300	0.803998	0.130223
	H448	H	0.932468	0.801053	0.131859
	H449	H	0.918006	0.817607	0.125394
	O450	O	0.490577	0.446579	0.422806
	H451	H	0.496138	0.435259	0.425807
	H452	H	0.493799	0.448526	0.417852
	O453	O	0.669304	0.379419	0.372261
	H454	H	0.685817	0.372688	0.356843
	H455	H	0.650938	0.390738	0.386183
	O456	O	1.203391	0.016646	0.203281
	H457	H	1.226476	0.033781	0.223389
	H458	H	1.199555	0.046818	0.202261
	O459	O	0.332468	0.492984	0.272521
	H460	H	0.320810	0.487837	0.274372
	H461	H	0.334504	0.494052	0.271133
	O462	O	0.686677	0.687725	0.681807
	H463	H	0.664164	0.679528	0.666722
	H464	H	0.666099	0.689423	0.664198
	O465	O	0.787991	-0.109401	0.182564
	H466	H	0.811256	-0.121757	0.194130
	H467	H	0.795952	-0.102244	0.180902
