data_Molecule from HDF5

_cell_length_a		16.153613
_cell_length_b		16.313942
_cell_length_c		16.395857
_cell_angle_alpha	89.780692
_cell_angle_beta	90.158526
_cell_angle_gamma	89.823316
_symmetry_space_group_name_H-M	'P 1'
_symmetry_Int_Tables_number		1

loop_
	_symmetry_equiv_pos_as_xyz
	x,y,z

loop_
	_atom_site_label
	_atom_site_type_symbol
	_atom_site_fract_x
	_atom_site_fract_y
	_atom_site_fract_z
	H0	H	0.406564	0.836714	0.710907
	H1	H	0.608244	0.161331	0.710971
	H2	H	0.609392	0.837037	0.277094
	H3	H	0.405251	0.160810	0.275285
	H4	H	0.720085	0.400831	0.829279
	H5	H	0.721227	0.594806	0.155052
	H6	H	0.292073	0.595677	0.829208
	H7	H	0.292238	0.399772	0.155664
	H8	H	0.842668	0.716489	0.390100
	H9	H	0.171051	0.711393	0.590976
	H10	H	0.841588	0.284775	0.591212
	H11	H	0.171391	0.285294	0.395855
	H12	H	0.841521	0.398992	0.706969
	H13	H	0.169704	0.597515	0.707493
	H14	H	0.842330	0.599881	0.276097
	H15	H	0.170553	0.398682	0.276746
	H16	H	0.404143	0.716611	0.831052
	H17	H	0.608036	0.714035	0.154902
	H18	H	0.605510	0.282423	0.830715
	H19	H	0.405960	0.281104	0.154493
	H20	H	0.719503	0.834607	0.398706
	H21	H	0.719673	0.163506	0.590060
	H22	H	0.293904	0.834938	0.590540
	H23	H	0.293272	0.163131	0.394950
	H24	H	0.903685	0.337316	0.210518
	H25	H	0.106428	0.661358	0.208982
	H26	H	0.105708	0.336602	0.777320
	H27	H	0.901753	0.660817	0.772764
	H28	H	0.222090	0.900336	0.329849
	H29	H	0.219847	0.093659	0.655776
	H30	H	0.792050	0.096521	0.330129
	H31	H	0.794454	0.901491	0.657371
	H32	H	0.341272	0.213539	0.892533
	H33	H	0.670213	0.212495	0.091539
	H34	H	0.341420	0.784432	0.091225
	H35	H	0.670625	0.784025	0.894859
	H36	H	0.342405	0.897845	0.209378
	H37	H	0.670196	0.097836	0.208160
	H38	H	0.342759	0.100387	0.775991
	H39	H	0.670869	0.898630	0.779861
	H40	H	0.905254	0.216442	0.330856
	H41	H	0.108520	0.214684	0.654665
	H42	H	0.107117	0.782030	0.330046
	H43	H	0.907396	0.781042	0.654132
	H44	H	0.219553	0.335138	0.895909
	H45	H	0.219750	0.663279	0.089947
	H46	H	0.793337	0.335005	0.089019
	H47	H	0.790395	0.662449	0.893179
	H48	H	0.408329	0.114645	0.579949
	H49	H	0.596624	0.883252	0.592082
	H50	H	0.594064	0.116149	0.391215
	H51	H	0.410539	0.883831	0.408823
	H52	H	0.600840	0.411613	0.106451
	H53	H	0.605750	0.589871	0.875300
	H54	H	0.415052	0.592531	0.108024
	H55	H	0.411170	0.405982	0.877203
	H56	H	0.121952	0.587819	0.400447
	H57	H	0.886071	0.592835	0.590496
	H58	H	0.123838	0.405139	0.586831
	H59	H	0.887371	0.406093	0.395039
	H60	H	0.122795	0.405846	0.585587
	H61	H	0.889486	0.595963	0.576613
	H62	H	0.123444	0.590495	0.398577
	H63	H	0.889706	0.403742	0.405162
	H64	H	0.412057	0.592057	0.108778
	H65	H	0.590589	0.587169	0.880423
	H66	H	0.591332	0.401816	0.106590
	H67	H	0.413450	0.405668	0.877724
	H68	H	0.592788	0.111572	0.405778
	H69	H	0.597634	0.884899	0.583893
	H70	H	0.412704	0.117639	0.593887
	H71	H	0.411098	0.879033	0.392152
	H72	H	0.912504	0.612090	0.073308
	H73	H	0.096680	0.384748	0.082072
	H74	H	0.096718	0.614089	0.901272
	H75	H	0.923033	0.385401	0.898304
	H76	H	0.094666	0.906386	0.605580
	H77	H	0.097976	0.097504	0.375909
	H78	H	0.905773	0.099128	0.613098
	H79	H	0.898012	0.912690	0.374574
	H80	H	0.624056	0.093549	0.903640
	H81	H	0.389717	0.087601	0.085579
	H82	H	0.625163	0.901222	0.086428
	H83	H	0.392117	0.910410	0.907137
	H84	H	0.621382	0.906992	0.081866
	H85	H	0.387653	0.091268	0.086116
	H86	H	0.621823	0.086799	0.903269
	H87	H	0.388195	0.912041	0.894551
	H88	H	0.911975	0.080969	0.605771
	H89	H	0.102995	0.090984	0.376036
	H90	H	0.099689	0.898481	0.609318
	H91	H	0.925686	0.917481	0.384514
	H92	H	0.099947	0.616345	0.897087
	H93	H	0.101581	0.382644	0.086461
	H94	H	0.904951	0.619918	0.090942
	H95	H	0.908503	0.384031	0.906365
	H96	H	0.422102	0.111729	0.584022
	H97	H	0.604058	0.882096	0.588399
	H98	H	0.606778	0.117332	0.400531
	H99	H	0.425706	0.885664	0.400277
	H100	H	0.604507	0.398367	0.110999
	H101	H	0.594961	0.601199	0.875626
	H102	H	0.414064	0.590202	0.107554
	H103	H	0.412465	0.403496	0.877061
	H104	H	0.122808	0.590858	0.402063
	H105	H	0.891797	0.581949	0.581080
	H106	H	0.123646	0.407286	0.586667
	H107	H	0.891441	0.413772	0.401687
	H108	H	0.924764	0.612724	0.089542
	H109	H	0.095150	0.383109	0.088997
	H110	H	0.094176	0.615414	0.895843
	H111	H	0.909716	0.379381	0.891291
	H112	H	0.103945	0.906203	0.608285
	H113	H	0.095357	0.090054	0.379319
	H114	H	0.924988	0.097109	0.606811
	H115	H	0.918139	0.891333	0.374078
	H116	H	0.624136	0.090089	0.897308
	H117	H	0.389421	0.090098	0.082350
	H118	H	0.622972	0.908709	0.089521
	H119	H	0.386330	0.900064	0.899903
	C120	C	0.385273	0.007266	0.615162
	C121	C	0.628402	0.991101	0.616037
	C122	C	0.627719	0.007086	0.371616
	C123	C	0.385440	0.990430	0.370952
	C124	C	0.627983	0.375909	0.000652
	C125	C	0.627301	0.620475	0.984333
	C126	C	0.384268	0.620631	0.000878
	C127	C	0.383549	0.375883	0.984354
	C128	C	0.014450	0.619865	0.370986
	C129	C	0.997534	0.619469	0.612602
	C130	C	0.014473	0.377212	0.614448
	C131	C	0.997951	0.378212	0.371485
	C132	C	0.884620	0.507209	0.113917
	C133	C	0.127084	0.491011	0.114151
	C134	C	0.126461	0.507285	0.870616
	C135	C	0.883820	0.490734	0.869510
	C136	C	0.128897	0.875784	0.500437
	C137	C	0.128338	0.120462	0.484435
	C138	C	0.884483	0.121704	0.501422
	C139	C	0.884909	0.877568	0.484775
	C140	C	0.514540	0.119613	0.871863
	C141	C	0.497412	0.118968	0.113451
	C142	C	0.514721	0.876814	0.114630
	C143	C	0.497705	0.877846	0.872142
	C144	C	0.386815	0.884947	0.671646
	C145	C	0.627608	0.113163	0.672135
	C146	C	0.627541	0.884872	0.316319
	C147	C	0.385877	0.112604	0.314233
	C148	C	0.682270	0.380036	0.877960
	C149	C	0.683382	0.616459	0.106632
	C150	C	0.329001	0.617485	0.878166
	C151	C	0.329276	0.378863	0.106883
	C152	C	0.891470	0.677408	0.371004
	C153	C	0.121631	0.674034	0.610965
	C154	C	0.890792	0.322068	0.611681
	C155	C	0.121997	0.322749	0.374352
	C156	C	0.890712	0.378924	0.669290
	C157	C	0.120924	0.617486	0.668920
	C158	C	0.891303	0.619584	0.314103
	C159	C	0.121526	0.378972	0.315345
	C160	C	0.384605	0.677577	0.879126
	C161	C	0.627194	0.675689	0.106421
	C162	C	0.625713	0.320862	0.878621
	C163	C	0.385860	0.319866	0.106339
	C164	C	0.682750	0.883838	0.376414
	C165	C	0.682746	0.114369	0.611898
	C166	C	0.330761	0.884140	0.612098
	C167	C	0.330136	0.113714	0.373587
	C168	C	0.884755	0.385479	0.171145
	C169	C	0.126246	0.613276	0.170141
	C170	C	0.125176	0.384902	0.815964
	C171	C	0.883542	0.612707	0.812317
	C172	C	0.184101	0.879237	0.378232
	C173	C	0.183112	0.115827	0.607084
	C174	C	0.829241	0.118615	0.378907
	C175	C	0.831067	0.880450	0.608033
	C176	C	0.390608	0.175356	0.873270
	C177	C	0.621197	0.174664	0.111910
	C178	C	0.390850	0.821621	0.112096
	C179	C	0.621446	0.822126	0.874754
	C180	C	0.391370	0.877697	0.170935
	C181	C	0.621214	0.117435	0.169519
	C182	C	0.391181	0.118907	0.815479
	C183	C	0.621628	0.879283	0.817460
	C184	C	0.885575	0.178017	0.379390
	C185	C	0.127425	0.175545	0.606562
	C186	C	0.127083	0.820417	0.378384
	C187	C	0.887179	0.820657	0.606600
	C188	C	0.181723	0.384069	0.874922
	C189	C	0.182305	0.614000	0.110828
	C190	C	0.829770	0.384346	0.110902
	C191	C	0.828032	0.613546	0.872145
	C192	C	0.407964	0.092754	0.592642
	C193	C	0.606068	0.905394	0.594494
	C194	C	0.604586	0.092840	0.392911
	C195	C	0.408736	0.904983	0.393942
	C196	C	0.605471	0.397517	0.085961
	C197	C	0.603755	0.599067	0.899061
	C198	C	0.407106	0.598123	0.086058
	C199	C	0.405966	0.398307	0.899288
	C200	C	0.100728	0.596516	0.393758
	C201	C	0.911286	0.596879	0.589332
	C202	C	0.100902	0.399482	0.592702
	C203	C	0.911862	0.401304	0.393922
	C204	C	0.907443	0.592771	0.091284
	C205	C	0.104466	0.405645	0.092400
	C206	C	0.103744	0.593087	0.891904
	C207	C	0.907040	0.405170	0.891994
	C208	C	0.106159	0.897318	0.585608
	C209	C	0.105488	0.099155	0.399331
	C210	C	0.907439	0.099135	0.586585
	C211	C	0.907276	0.900491	0.399791
	C212	C	0.601031	0.096802	0.894707
	C213	C	0.411343	0.096366	0.091063
	C214	C	0.600970	0.899108	0.092573
	C215	C	0.411186	0.900710	0.894105
	Zn216	Zn	0.506709	-0.000825	0.744375
	Zn217	Zn	0.506483	-0.001477	0.241957
	Zn218	Zn	0.756117	0.498555	-0.008081
	Zn219	Zn	0.255398	0.499003	-0.007356
	Zn220	Zn	0.006362	0.747435	0.491604
	Zn221	Zn	0.006801	0.249861	0.493379
	Zn222	Zn	0.005387	0.498971	0.741024
	Zn223	Zn	0.006189	0.499109	0.243030
	Zn224	Zn	0.506108	0.749424	-0.006998
	Zn225	Zn	0.505699	0.247082	-0.007454
	Zn226	Zn	0.756005	-0.000716	0.493520
	Zn227	Zn	0.257198	-0.001654	0.492224
	N228	N	0.419964	0.962642	0.673721
	N229	N	0.594388	0.035638	0.674574
	N230	N	0.594280	0.962611	0.313129
	N231	N	0.419680	0.035055	0.312630
	N232	N	0.683892	0.413332	0.954941
	N233	N	0.683455	0.582673	0.029911
	N234	N	0.328441	0.582991	0.954936
	N235	N	0.327651	0.413022	0.030140
	N236	N	0.969047	0.677420	0.405708
	N237	N	0.043699	0.675394	0.576507
	N238	N	0.968889	0.320775	0.578399
	N239	N	0.044413	0.322117	0.408653
	N240	N	0.968726	0.412265	0.671312
	N241	N	0.042790	0.584302	0.669810
	N242	N	0.968900	0.584639	0.314042
	N243	N	0.043212	0.412398	0.313325
	N244	N	0.418378	0.679525	0.956280
	N245	N	0.593029	0.678200	0.029301
	N246	N	0.592815	0.318074	0.955798
	N247	N	0.418920	0.317988	0.029080
	N248	N	0.682935	0.960894	0.410099
	N249	N	0.683548	0.037452	0.577922
	N250	N	0.329725	0.961021	0.577564
	N251	N	0.329933	0.036607	0.408344
	N252	N	0.918378	0.462918	0.172849
	N253	N	0.092613	0.535942	0.172315
	N254	N	0.091778	0.462487	0.813040
	N255	N	0.917469	0.535245	0.810663
	N256	N	0.185248	0.912836	0.454961
	N257	N	0.183723	0.082246	0.530224
	N258	N	0.828396	0.084312	0.455583
	N259	N	0.829491	0.915003	0.531294
	N260	N	0.468458	0.175953	0.907636
	N261	N	0.543469	0.175558	0.077705
	N262	N	0.468628	0.820960	0.077886
	N263	N	0.543370	0.821084	0.908006
	N264	N	0.469305	0.911361	0.172485
	N265	N	0.543230	0.083713	0.170789
	N266	N	0.469353	0.085185	0.814424
	N267	N	0.543669	0.913575	0.815917
	N268	N	0.919389	0.179990	0.456685
	N269	N	0.094109	0.178668	0.529260
	N270	N	0.093502	0.818055	0.455520
	N271	N	0.919988	0.818668	0.529217
	N272	N	0.182536	0.461371	0.908381
	N273	N	0.182938	0.537038	0.076781
	N274	N	0.829290	0.461206	0.076234
	N275	N	0.827935	0.536704	0.906949
	O276	O	1.034828	0.918735	0.018179
	H277	H	1.020142	0.926313	0.015560
	H278	H	1.041862	0.917403	0.022503
	O279	O	-0.038217	-0.062452	1.045835
	H280	H	-0.028454	-0.061547	1.035302
	H281	H	-0.040702	-0.061978	1.045259
	O282	O	0.032019	0.092861	-0.016034
	H283	H	0.018966	0.096099	-0.017911
	H284	H	0.028999	0.093004	-0.031222
	O285	O	0.491515	0.521228	0.468843
	H286	H	0.478984	0.531130	0.462888
	H287	H	0.505451	0.522683	0.464659
	O288	O	0.008441	0.002617	0.029365
	H289	H	0.002113	0.010999	0.032906
	H290	H	0.007680	-0.001842	0.027822
	O291	O	0.071233	0.957509	0.044094
	H292	H	0.076452	0.961749	0.050961
	H293	H	0.085161	0.955823	0.047748
	O294	O	0.041319	0.990769	0.075548
	H295	H	0.035088	0.987020	0.075669
	H296	H	0.036624	0.994900	0.062799
	O297	O	0.543049	0.479238	0.487384
	H298	H	0.553763	0.489404	0.476941
	H299	H	0.551002	0.475371	0.481596
	O300	O	0.526253	0.510588	0.447238
	H301	H	0.521356	0.506111	0.447936
	H302	H	0.523816	0.505301	0.437784
	O303	O	1.019762	-0.020230	0.918325
	H304	H	1.020272	-0.018341	0.910600
	H305	H	1.018861	-0.019530	0.932030
	O306	O	-0.025772	1.036986	1.019443
	H307	H	-0.022595	1.030174	1.015200
	H308	H	-0.018181	1.037073	1.033425
	O309	O	-0.083253	1.014898	0.964273
	H310	H	-0.074466	1.015178	0.966846
	H311	H	-0.082373	0.997010	0.978590
	O312	O	-0.051272	0.027233	0.915684
	H313	H	-0.048207	0.038426	0.915161
	H314	H	-0.056409	0.027079	0.912666
	O315	O	0.512092	0.518951	0.522443
	H316	H	0.502913	0.512462	0.520697
	H317	H	0.501210	0.509898	0.522532
	O318	O	-0.051383	-0.029197	1.004454
	H319	H	-0.035105	-0.026768	1.001962
	H320	H	-0.044876	-0.031450	0.995801
	O321	O	0.487658	0.509442	0.482201
	H322	H	0.488768	0.511572	0.485511
	H323	H	0.488658	0.518028	0.488738
	O324	O	1.053745	0.096017	1.033287
	H325	H	1.041827	0.095934	1.036846
	H326	H	1.049200	0.097976	1.027734
	O327	O	0.987793	1.058640	1.024676
	H328	H	0.990133	1.056592	1.030491
	H329	H	0.987282	1.072132	1.023066
	O330	O	0.522905	0.549843	0.437632
	H331	H	0.526255	0.548075	0.440104
	H332	H	0.528440	0.538039	0.445664
	O333	O	-0.024206	0.091471	0.995811
	H334	H	-0.026275	0.091666	0.986443
	H335	H	-0.031696	0.089252	0.995087
	O336	O	0.540123	0.488118	0.456221
	H337	H	0.537711	0.497396	0.449467
	H338	H	0.538904	0.491781	0.456101
	O339	O	0.445323	0.479241	0.420448
	H340	H	0.441150	0.482253	0.419846
	H341	H	0.436689	0.473540	0.429185
	O342	O	0.515344	0.506564	0.445066
	H343	H	0.530684	0.509173	0.441261
	H344	H	0.526442	0.504098	0.442890
	O345	O	0.527788	0.618529	0.464743
	H346	H	0.520104	0.618452	0.469202
	H347	H	0.525926	0.626703	0.467925
