data_Molecule from HDF5

_cell_length_a		16.283886
_cell_length_b		16.232785
_cell_length_c		16.334310
_cell_angle_alpha	89.375926
_cell_angle_beta	90.281796
_cell_angle_gamma	89.447384
_symmetry_space_group_name_H-M	'P 1'
_symmetry_Int_Tables_number		1

loop_
	_symmetry_equiv_pos_as_xyz
	x,y,z

loop_
	_atom_site_label
	_atom_site_type_symbol
	_atom_site_fract_x
	_atom_site_fract_y
	_atom_site_fract_z
	H0	H	0.402329	0.839796	0.716110
	H1	H	0.598613	0.166000	0.716829
	H2	H	0.600719	0.839310	0.290027
	H3	H	0.395824	0.166213	0.280084
	H4	H	0.717667	0.401952	0.839988
	H5	H	0.715383	0.598133	0.165282
	H6	H	0.282078	0.603153	0.839812
	H7	H	0.285931	0.399975	0.164943
	H8	H	0.837156	0.723942	0.400965
	H9	H	0.163602	0.716113	0.601340
	H10	H	0.836115	0.290053	0.603425
	H11	H	0.163468	0.289740	0.406852
	H12	H	0.836290	0.405608	0.718524
	H13	H	0.162199	0.602812	0.719676
	H14	H	0.837208	0.608888	0.284120
	H15	H	0.162011	0.402925	0.288132
	H16	H	0.397482	0.719618	0.838583
	H17	H	0.598321	0.714701	0.165186
	H18	H	0.598212	0.289927	0.837353
	H19	H	0.403783	0.284590	0.164095
	H20	H	0.719288	0.842993	0.401986
	H21	H	0.710139	0.169224	0.597853
	H22	H	0.287267	0.840168	0.601052
	H23	H	0.283763	0.168748	0.399529
	H24	H	0.901716	0.341218	0.222147
	H25	H	0.098789	0.668059	0.216077
	H26	H	0.098853	0.339858	0.790819
	H27	H	0.896088	0.666783	0.784893
	H28	H	0.215067	0.906759	0.339041
	H29	H	0.217017	0.103395	0.664232
	H30	H	0.781030	0.111138	0.339308
	H31	H	0.785913	0.906602	0.664924
	H32	H	0.336855	0.218770	0.900042
	H33	H	0.664149	0.211452	0.098242
	H34	H	0.335441	0.788198	0.100192
	H35	H	0.662259	0.786264	0.904800
	H36	H	0.336119	0.901341	0.218703
	H37	H	0.661958	0.101191	0.217544
	H38	H	0.336195	0.102955	0.785073
	H39	H	0.662220	0.899932	0.787081
	H40	H	0.899135	0.225476	0.340610
	H41	H	0.096615	0.214199	0.667131
	H42	H	0.101315	0.788076	0.340514
	H43	H	0.902862	0.790061	0.665829
	H44	H	0.214471	0.338944	0.905855
	H45	H	0.215208	0.666634	0.100583
	H46	H	0.791017	0.337638	0.101772
	H47	H	0.779860	0.664755	0.899284
	H48	H	0.406772	0.122100	0.597155
	H49	H	0.590605	0.890029	0.587110
	H50	H	0.585631	0.121968	0.401583
	H51	H	0.398579	0.885167	0.409566
	H52	H	0.601803	0.405641	0.119601
	H53	H	0.590574	0.598648	0.885387
	H54	H	0.402901	0.591339	0.118711
	H55	H	0.401703	0.403519	0.882329
	H56	H	0.112676	0.588979	0.412625
	H57	H	0.885541	0.593742	0.590758
	H58	H	0.120972	0.398775	0.603051
	H59	H	0.881450	0.404624	0.415713
	H60	H	0.111756	0.409825	0.586773
	H61	H	0.882199	0.596187	0.599897
	H62	H	0.118104	0.596887	0.402050
	H63	H	0.889386	0.424927	0.421859
	H64	H	0.411277	0.590460	0.115760
	H65	H	0.594016	0.591732	0.886866
	H66	H	0.592756	0.409508	0.115810
	H67	H	0.399852	0.419796	0.886051
	H68	H	0.585567	0.118285	0.411105
	H69	H	0.601918	0.885164	0.594392
	H70	H	0.412070	0.118783	0.591109
	H71	H	0.412863	0.886867	0.402660
	H72	H	0.908936	0.620118	0.094154
	H73	H	0.092387	0.390133	0.086856
	H74	H	0.085899	0.619781	0.904176
	H75	H	0.918372	0.390468	0.914979
	H76	H	0.096705	0.912173	0.617870
	H77	H	0.085988	0.094829	0.389551
	H78	H	0.910131	0.098788	0.616838
	H79	H	0.913163	0.912157	0.387532
	H80	H	0.618222	0.099711	0.905886
	H81	H	0.385718	0.091904	0.088431
	H82	H	0.614889	0.907543	0.096942
	H83	H	0.383227	0.913784	0.904729
	H84	H	0.615132	0.907668	0.094971
	H85	H	0.382730	0.091933	0.092758
	H86	H	0.615295	0.093002	0.911471
	H87	H	0.381326	0.908980	0.907250
	H88	H	0.899809	0.102769	0.621192
	H89	H	0.089033	0.103815	0.385650
	H90	H	0.091933	0.911557	0.617529
	H91	H	0.904035	0.915435	0.385236
	H92	H	0.088389	0.617436	0.916515
	H93	H	0.103138	0.382657	0.102246
	H94	H	0.907646	0.618184	0.088942
	H95	H	0.901621	0.386366	0.917523
	H96	H	0.403474	0.121205	0.588694
	H97	H	0.589734	0.886188	0.601056
	H98	H	0.592806	0.122484	0.407188
	H99	H	0.411555	0.891379	0.417401
	H100	H	0.593347	0.399422	0.118848
	H101	H	0.586302	0.592271	0.888558
	H102	H	0.407672	0.598035	0.118431
	H103	H	0.414818	0.411225	0.888370
	H104	H	0.115757	0.602379	0.415114
	H105	H	0.882190	0.603288	0.592908
	H106	H	0.115431	0.419488	0.605730
	H107	H	0.882006	0.421508	0.400173
	H108	H	0.903491	0.620453	0.092412
	H109	H	0.082635	0.388797	0.104314
	H110	H	0.096921	0.622255	0.909384
	H111	H	0.909657	0.383906	0.901775
	H112	H	0.095215	0.908302	0.618726
	H113	H	0.095396	0.095816	0.386113
	H114	H	0.901324	0.091743	0.617228
	H115	H	0.910559	0.921498	0.389438
	H116	H	0.616658	0.090855	0.902149
	H117	H	0.383593	0.096357	0.089691
	H118	H	0.615042	0.908862	0.096321
	H119	H	0.383405	0.912791	0.910149
	C120	C	0.379150	0.012448	0.621879
	C121	C	0.621377	0.995147	0.622723
	C122	C	0.619866	0.012937	0.379339
	C123	C	0.377421	0.995457	0.378735
	C124	C	0.623549	0.378159	0.010006
	C125	C	0.619992	0.622375	0.994310
	C126	C	0.377104	0.624064	0.010342
	C127	C	0.378070	0.380515	0.993266
	C128	C	0.008325	0.627636	0.379909
	C129	C	0.991003	0.625292	0.623934
	C130	C	0.008061	0.381617	0.626532
	C131	C	0.991570	0.385449	0.383591
	C132	C	0.878853	0.511722	0.123143
	C133	C	0.121776	0.495205	0.125318
	C134	C	0.119982	0.511803	0.881959
	C135	C	0.878089	0.494335	0.880697
	C136	C	0.123537	0.882055	0.510768
	C137	C	0.120017	0.125626	0.494624
	C138	C	0.874949	0.129439	0.510913
	C139	C	0.879739	0.885723	0.494319
	C140	C	0.508585	0.124458	0.877658
	C141	C	0.491493	0.121885	0.120356
	C142	C	0.507274	0.879393	0.124727
	C143	C	0.490703	0.881239	0.879917
	C144	C	0.381696	0.888991	0.678301
	C145	C	0.618403	0.117842	0.678153
	C146	C	0.620283	0.889129	0.326319
	C147	C	0.376593	0.117856	0.319481
	C148	C	0.678824	0.381727	0.887947
	C149	C	0.676868	0.619091	0.116577
	C150	C	0.320530	0.623258	0.887973
	C151	C	0.323408	0.380225	0.115932
	C152	C	0.886094	0.685842	0.380682
	C153	C	0.114521	0.679142	0.622058
	C154	C	0.885030	0.327441	0.623890
	C155	C	0.114308	0.328158	0.386214
	C156	C	0.885157	0.384779	0.681209
	C157	C	0.113793	0.622556	0.680543
	C158	C	0.885880	0.628342	0.322842
	C159	C	0.113885	0.384658	0.327333
	C160	C	0.377893	0.681160	0.887603
	C161	C	0.618301	0.676652	0.116747
	C162	C	0.619708	0.325810	0.886835
	C163	C	0.381947	0.322655	0.115382
	C164	C	0.679538	0.891068	0.381796
	C165	C	0.673865	0.119368	0.619238
	C166	C	0.324636	0.889105	0.620864
	C167	C	0.320797	0.119082	0.378810
	C168	C	0.881652	0.389579	0.182268
	C169	C	0.119517	0.618732	0.178976
	C170	C	0.119032	0.388711	0.827825
	C171	C	0.877248	0.617473	0.823535
	C172	C	0.178220	0.885279	0.388163
	C173	C	0.177606	0.122952	0.616095
	C174	C	0.819364	0.130113	0.388278
	C175	C	0.823909	0.886399	0.616354
	C176	C	0.385838	0.181154	0.879216
	C177	C	0.614848	0.175497	0.118899
	C178	C	0.384398	0.825245	0.121251
	C179	C	0.613444	0.824322	0.883429
	C180	C	0.384724	0.881586	0.180086
	C181	C	0.613757	0.120189	0.178042
	C182	C	0.385558	0.123559	0.822232
	C183	C	0.613429	0.881385	0.825403
	C184	C	0.878008	0.187192	0.388822
	C185	C	0.117563	0.178077	0.617779
	C186	C	0.121607	0.826285	0.388909
	C187	C	0.881853	0.828265	0.616752
	C188	C	0.176165	0.388251	0.885345
	C189	C	0.177359	0.617962	0.121639
	C190	C	0.826662	0.387650	0.122305
	C191	C	0.819521	0.616631	0.880584
	C192	C	0.401025	0.098183	0.598909
	C193	C	0.600247	0.909430	0.600696
	C194	C	0.595173	0.098594	0.400472
	C195	C	0.400731	0.910098	0.402793
	C196	C	0.602366	0.398684	0.095861
	C197	C	0.597092	0.600549	0.909108
	C198	C	0.400418	0.600251	0.095417
	C199	C	0.399217	0.404552	0.907787
	C200	C	0.093463	0.603221	0.403167
	C201	C	0.905507	0.604092	0.601134
	C202	C	0.093730	0.403055	0.604961
	C203	C	0.906381	0.409908	0.406101
	C204	C	0.900353	0.597431	0.098817
	C205	C	0.099289	0.409370	0.104152
	C206	C	0.097083	0.597645	0.903570
	C207	C	0.902678	0.408689	0.904565
	C208	C	0.101220	0.904104	0.596020
	C209	C	0.096771	0.104320	0.409137
	C210	C	0.897259	0.105073	0.596488
	C211	C	0.902623	0.909586	0.409347
	C212	C	0.594626	0.101209	0.899919
	C213	C	0.406089	0.099774	0.097124
	C214	C	0.592809	0.901452	0.102545
	C215	C	0.404845	0.904824	0.901221
	Zn216	Zn	0.499940	0.002426	0.750735
	Zn217	Zn	0.499209	0.002700	0.250952
	Zn218	Zn	0.750247	0.501222	0.002050
	Zn219	Zn	0.248685	0.502826	0.002702
	Zn220	Zn	0.000648	0.754727	0.502631
	Zn221	Zn	-0.000841	0.255397	0.503960
	Zn222	Zn	-0.000705	0.503903	0.753485
	Zn223	Zn	-0.000627	0.505242	0.252576
	Zn224	Zn	0.498878	0.752345	0.001670
	Zn225	Zn	0.500869	0.251168	0.000206
	Zn226	Zn	0.748123	0.006116	0.500810
	Zn227	Zn	0.250289	0.005196	0.501709
	N228	N	0.414872	0.966522	0.679089
	N229	N	0.586424	0.039693	0.680727
	N230	N	0.584018	0.966060	0.324526
	N231	N	0.410919	0.040169	0.319264
	N232	N	0.681519	0.413405	0.965501
	N233	N	0.677709	0.585876	0.039184
	N234	N	0.319905	0.588495	0.965114
	N235	N	0.320918	0.415611	0.039032
	N236	N	0.963289	0.685644	0.415245
	N237	N	0.037431	0.681057	0.587489
	N238	N	0.962525	0.325131	0.590638
	N239	N	0.037223	0.328415	0.420441
	N240	N	0.962612	0.417429	0.683210
	N241	N	0.036033	0.590020	0.682237
	N242	N	0.962982	0.592905	0.322138
	N243	N	0.036643	0.419691	0.325566
	N244	N	0.412290	0.682039	0.964749
	N245	N	0.583751	0.678695	0.039928
	N246	N	0.586087	0.323454	0.963813
	N247	N	0.415074	0.322700	0.038049
	N248	N	0.679127	0.968935	0.414098
	N249	N	0.675776	0.042236	0.585362
	N250	N	0.323022	0.966910	0.586277
	N251	N	0.321204	0.042264	0.415260
	N252	N	0.913303	0.467800	0.182774
	N253	N	0.085803	0.541302	0.181323
	N254	N	0.084775	0.466611	0.825567
	N255	N	0.912965	0.540397	0.823673
	N256	N	0.179726	0.918924	0.465064
	N257	N	0.179032	0.090937	0.538463
	N258	N	0.817445	0.094972	0.465161
	N259	N	0.822428	0.921437	0.539204
	N260	N	0.463385	0.181816	0.913111
	N261	N	0.537907	0.176757	0.083743
	N262	N	0.461678	0.823675	0.087628
	N263	N	0.536169	0.824390	0.916947
	N264	N	0.462264	0.914579	0.182356
	N265	N	0.536037	0.087528	0.179049
	N266	N	0.463025	0.089022	0.821060
	N267	N	0.536038	0.916206	0.823144
	N268	N	0.911968	0.186648	0.466143
	N269	N	0.082438	0.179869	0.541065
	N270	N	0.088462	0.824044	0.466203
	N271	N	0.915958	0.827693	0.539823
	N272	N	0.176761	0.465711	0.918367
	N273	N	0.179170	0.540051	0.089457
	N274	N	0.824511	0.464633	0.086282
	N275	N	0.819972	0.539042	0.915480
	O276	O	0.463055	0.599912	0.553324
	H277	H	0.478340	0.597373	0.550788
	H278	H	0.460716	0.597233	0.555791
	O279	O	0.613740	0.535276	0.467600
	H280	H	0.620672	0.524132	0.461038
	H281	H	0.610183	0.528418	0.464140
	O282	O	0.964194	0.921891	0.030719
	H283	H	0.954190	0.930056	0.030743
	H284	H	0.965138	0.919877	0.037078
	O285	O	1.002235	-0.044409	0.969305
	H286	H	1.003336	-0.035384	0.976278
	H287	H	1.001327	-0.050422	0.960563
	O288	O	0.454086	0.533396	0.542881
	H289	H	0.455064	0.540259	0.536824
	H290	H	0.450513	0.539099	0.540619
	O291	O	0.460596	0.424972	0.476229
	H292	H	0.447854	0.435087	0.469084
	H293	H	0.452717	0.411310	0.479565
	O294	O	0.531125	0.482217	0.482171
	H295	H	0.527360	0.483103	0.496171
	H296	H	0.522343	0.489435	0.483070
	O297	O	0.491626	0.494919	0.458233
	H298	H	0.493216	0.498690	0.464740
	H299	H	0.507060	0.496107	0.458094
	O300	O	0.903461	-0.070158	0.979613
	H301	H	0.906985	-0.066992	0.983501
	H302	H	0.912331	-0.078027	0.992891
	O303	O	1.025789	0.923071	0.037929
	H304	H	1.040026	0.936936	0.050598
	H305	H	1.012530	0.924407	0.040184
	O306	O	0.022667	1.002601	1.110530
	H307	H	0.020293	1.010214	1.111766
	H308	H	0.031829	1.011312	1.116633
	O309	O	0.490239	0.459682	0.388009
	H310	H	0.493993	0.463172	0.392796
	H311	H	0.484491	0.458399	0.387275
	O312	O	-0.106982	0.115070	-0.025591
	H313	H	-0.115447	0.121980	-0.037562
	H314	H	-0.111804	0.123515	-0.021638
	O315	O	1.048275	0.034083	-0.027029
	H316	H	1.042624	0.036835	-0.028650
	H317	H	1.037908	0.023949	-0.022279
	O318	O	0.961903	1.055347	1.065755
	H319	H	0.951937	1.060801	1.056057
	H320	H	0.968546	1.047266	1.061881
	O321	O	-0.571708	-0.389958	0.363597
	H322	H	-0.572072	-0.374198	0.360064
	H323	H	-0.585029	-0.392380	0.365457
	O324	O	0.452877	0.542976	0.490531
	H325	H	0.464926	0.543357	0.491062
	H326	H	0.443657	0.543627	0.479407
	O327	O	-0.538238	-0.532841	0.487525
	H328	H	-0.534746	-0.528325	0.491944
	H329	H	-0.536038	-0.541872	0.489868
	O330	O	0.364271	0.474015	0.492064
	H331	H	0.362187	0.488101	0.496439
	H332	H	0.352492	0.462242	0.486126
	O333	O	0.009413	0.894508	1.090040
	H334	H	0.010994	0.893060	1.090833
	H335	H	0.010198	0.879238	1.113856
	O336	O	-0.138900	0.105120	-0.102438
	H337	H	-0.146688	0.110406	-0.102094
	H338	H	-0.140219	0.094096	-0.119311
	O339	O	0.501969	0.505035	0.626588
	H340	H	0.502750	0.498436	0.638779
	H341	H	0.507448	0.498977	0.618528
	O342	O	1.053981	1.028606	1.107390
	H343	H	1.064495	1.041674	1.111086
	H344	H	1.039534	1.026702	1.123762
	O345	O	0.939829	0.994559	-0.131640
	H346	H	0.937536	0.981814	-0.126581
	H347	H	0.953606	0.988839	-0.137377
	O348	O	0.553436	0.473885	0.456845
	H349	H	0.547841	0.474568	0.448314
	H350	H	0.555372	0.484524	0.457284
	O351	O	0.565689	0.549702	0.452330
	H352	H	0.569212	0.555181	0.452175
	H353	H	0.566588	0.548069	0.456111
	O354	O	0.487291	0.566452	0.471288
	H355	H	0.488253	0.564786	0.478752
	H356	H	0.481702	0.567510	0.476217
	O357	O	0.918214	0.035513	1.137857
	H358	H	0.916512	0.043773	1.136714
	H359	H	0.908929	0.013440	1.138436
	O360	O	0.525917	0.475581	0.558728
	H361	H	0.530504	0.474405	0.557668
	H362	H	0.532982	0.473636	0.555611
	O363	O	0.860174	0.892449	0.080159
	H364	H	0.865202	0.887340	0.064069
	H365	H	0.870118	0.891632	0.084092
	O366	O	1.036334	0.999444	0.912878
	H367	H	1.033098	0.989805	0.905890
	H368	H	1.024808	1.002673	0.908571
	O369	O	1.073301	0.029480	0.961110
	H370	H	1.069200	0.041893	0.965906
	H371	H	1.074910	0.026110	0.968670
	O372	O	0.110403	0.050447	0.079632
	H373	H	0.111943	0.058136	0.058957
	H374	H	0.118664	0.054596	0.083223
	O375	O	1.004170	0.034985	0.093417
	H376	H	1.019441	0.032182	0.097055
	H377	H	0.996074	0.057153	0.082353
	O378	O	0.543305	0.522167	0.564160
	H379	H	0.533789	0.515665	0.553310
	H380	H	0.547853	0.519832	0.573238
	O381	O	0.586445	0.367600	0.410644
	H382	H	0.578995	0.381997	0.398689
	H383	H	0.581367	0.369105	0.408517
