data_Molecule from HDF5

_cell_length_a		16.335828
_cell_length_b		16.313365
_cell_length_c		16.339179
_cell_angle_alpha	90.023215
_cell_angle_beta	90.036453
_cell_angle_gamma	90.029879
_symmetry_space_group_name_H-M	'P 1'
_symmetry_Int_Tables_number		1

loop_
	_symmetry_equiv_pos_as_xyz
	x,y,z

loop_
	_atom_site_label
	_atom_site_type_symbol
	_atom_site_fract_x
	_atom_site_fract_y
	_atom_site_fract_z
	H0	H	0.402144	0.836321	0.713818
	H1	H	0.599478	0.163562	0.715218
	H2	H	0.597496	0.836250	0.285532
	H3	H	0.402549	0.163916	0.286421
	H4	H	0.713938	0.401921	0.836688
	H5	H	0.713839	0.597583	0.163860
	H6	H	0.285732	0.597457	0.836515
	H7	H	0.284861	0.402028	0.163201
	H8	H	0.836044	0.713999	0.402955
	H9	H	0.163611	0.713749	0.597877
	H10	H	0.836127	0.286245	0.597429
	H11	H	0.163889	0.286591	0.402717
	H12	H	0.836607	0.401573	0.714996
	H13	H	0.162744	0.598942	0.715620
	H14	H	0.836633	0.598353	0.285064
	H15	H	0.162669	0.400510	0.283955
	H16	H	0.401212	0.714780	0.837043
	H17	H	0.597857	0.714413	0.163222
	H18	H	0.597350	0.286081	0.836943
	H19	H	0.401903	0.285664	0.163758
	H20	H	0.714163	0.836279	0.401671
	H21	H	0.715690	0.163331	0.598388
	H22	H	0.285749	0.836504	0.598514
	H23	H	0.285971	0.163651	0.402308
	H24	H	0.901429	0.336447	0.214067
	H25	H	0.097929	0.663323	0.214594
	H26	H	0.097514	0.337219	0.785985
	H27	H	0.901731	0.663747	0.786350
	H28	H	0.214512	0.901804	0.336748
	H29	H	0.214636	0.098195	0.663280
	H30	H	0.786291	0.098130	0.336557
	H31	H	0.784456	0.901466	0.662590
	H32	H	0.336941	0.214005	0.901964
	H33	H	0.663712	0.214245	0.097722
	H34	H	0.336729	0.785960	0.097038
	H35	H	0.662837	0.784525	0.900526
	H36	H	0.336614	0.901923	0.214235
	H37	H	0.663790	0.097816	0.214251
	H38	H	0.337451	0.099132	0.784869
	H39	H	0.662714	0.901140	0.784482
	H40	H	0.902759	0.214484	0.336811
	H41	H	0.097017	0.213905	0.663992
	H42	H	0.097838	0.785601	0.336813
	H43	H	0.902236	0.785918	0.663310
	H44	H	0.213827	0.336702	0.902238
	H45	H	0.214079	0.663470	0.098179
	H46	H	0.786009	0.336557	0.097452
	H47	H	0.785964	0.663214	0.902948
	H48	H	0.413751	0.114018	0.593508
	H49	H	0.592443	0.885265	0.590402
	H50	H	0.581822	0.114291	0.403612
	H51	H	0.408907	0.886745	0.413021
	H52	H	0.594490	0.403779	0.117106
	H53	H	0.589864	0.599022	0.883389
	H54	H	0.409284	0.588142	0.113340
	H55	H	0.397454	0.406708	0.881892
	H56	H	0.114637	0.588739	0.406057
	H57	H	0.885061	0.589821	0.592314
	H58	H	0.116433	0.410257	0.601138
	H59	H	0.882070	0.405233	0.402731
	H60	H	0.117997	0.399560	0.592686
	H61	H	0.882851	0.593551	0.596943
	H62	H	0.116378	0.595446	0.403775
	H63	H	0.884061	0.404472	0.410767
	H64	H	0.410159	0.597247	0.115865
	H65	H	0.599738	0.591548	0.882465
	H66	H	0.596530	0.406955	0.117138
	H67	H	0.410930	0.413266	0.888048
	H68	H	0.596968	0.113150	0.416965
	H69	H	0.595522	0.883140	0.593678
	H70	H	0.405677	0.115353	0.586220
	H71	H	0.399807	0.881444	0.405313
	H72	H	0.912160	0.616685	0.100683
	H73	H	0.083788	0.385198	0.097097
	H74	H	0.095953	0.615673	0.912205
	H75	H	0.899768	0.379655	0.899051
	H76	H	0.088339	0.904119	0.615218
	H77	H	0.095676	0.086288	0.385689
	H78	H	0.908768	0.094002	0.615776
	H79	H	0.906610	0.908947	0.384105
	H80	H	0.618809	0.098474	0.905245
	H81	H	0.383506	0.087445	0.100738
	H82	H	0.615399	0.904349	0.088434
	H83	H	0.383721	0.899059	0.911906
	H84	H	0.613937	0.912491	0.091984
	H85	H	0.381421	0.102457	0.094432
	H86	H	0.614029	0.092937	0.912937
	H87	H	0.387170	0.914746	0.910237
	H88	H	0.905326	0.094171	0.617081
	H89	H	0.086431	0.097120	0.385362
	H90	H	0.098221	0.903252	0.617521
	H91	H	0.908754	0.906677	0.384723
	H92	H	0.095757	0.618390	0.903455
	H93	H	0.094124	0.386806	0.082765
	H94	H	0.909232	0.613488	0.085734
	H95	H	0.916282	0.386128	0.903953
	H96	H	0.403872	0.117849	0.597427
	H97	H	0.591201	0.884599	0.595120
	H98	H	0.600706	0.120219	0.398443
	H99	H	0.412183	0.883900	0.400262
	H100	H	0.592951	0.407096	0.115616
	H101	H	0.589235	0.587153	0.887423
	H102	H	0.401793	0.592169	0.117843
	H103	H	0.410750	0.397722	0.882847
	H104	H	0.115016	0.593562	0.411182
	H105	H	0.883600	0.595916	0.591139
	H106	H	0.112703	0.411494	0.587948
	H107	H	0.886173	0.411609	0.406764
	H108	H	0.898124	0.618993	0.094854
	H109	H	0.100696	0.379940	0.098281
	H110	H	0.088109	0.615592	0.907732
	H111	H	0.902464	0.385898	0.915708
	H112	H	0.094513	0.912149	0.613712
	H113	H	0.100152	0.099405	0.381035
	H114	H	0.906677	0.091295	0.614813
	H115	H	0.906346	0.906000	0.384109
	H116	H	0.615721	0.087959	0.903535
	H117	H	0.387602	0.090544	0.085328
	H118	H	0.617942	0.905356	0.096849
	H119	H	0.381212	0.906257	0.897643
	C120	C	0.378982	0.007959	0.621165
	C121	C	0.622025	0.992168	0.621699
	C122	C	0.621436	0.008073	0.377938
	C123	C	0.378548	0.992103	0.378208
	C124	C	0.622114	0.378005	0.008562
	C125	C	0.621495	0.621564	0.991971
	C126	C	0.378606	0.621157	0.008139
	C127	C	0.378034	0.377874	0.992022
	C128	C	0.007566	0.621388	0.378795
	C129	C	0.991852	0.621528	0.621924
	C130	C	0.007676	0.378769	0.621848
	C131	C	0.991838	0.378496	0.378326
	C132	C	0.878314	0.508129	0.121459
	C133	C	0.121635	0.491939	0.121868
	C134	C	0.121239	0.508473	0.879135
	C135	C	0.878073	0.491985	0.878387
	C136	C	0.121947	0.877901	0.508159
	C137	C	0.122339	0.122339	0.492261
	C138	C	0.878734	0.121534	0.508021
	C139	C	0.878618	0.878578	0.491723
	C140	C	0.508420	0.121369	0.878546
	C141	C	0.492108	0.121632	0.121592
	C142	C	0.508096	0.878750	0.121061
	C143	C	0.491785	0.878394	0.878000
	C144	C	0.381403	0.885399	0.676500
	C145	C	0.619788	0.114857	0.677048
	C146	C	0.618506	0.885051	0.323211
	C147	C	0.381515	0.115092	0.323721
	C148	C	0.676143	0.381494	0.885428
	C149	C	0.676315	0.618660	0.114819
	C150	C	0.323412	0.618525	0.885285
	C151	C	0.323359	0.381397	0.114785
	C152	C	0.884930	0.676483	0.381761
	C153	C	0.114754	0.676285	0.618912
	C154	C	0.884859	0.324005	0.618618
	C155	C	0.114890	0.324072	0.381512
	C156	C	0.885239	0.381285	0.676957
	C157	C	0.114311	0.619336	0.677274
	C158	C	0.885045	0.619112	0.323459
	C159	C	0.114484	0.380851	0.322865
	C160	C	0.380919	0.676482	0.885563
	C161	C	0.618563	0.676460	0.114751
	C162	C	0.618171	0.324031	0.885419
	C163	C	0.381327	0.323646	0.115137
	C164	C	0.676322	0.885102	0.380909
	C165	C	0.677251	0.114911	0.618979
	C166	C	0.323725	0.885285	0.618906
	C167	C	0.323510	0.114809	0.381124
	C168	C	0.880854	0.385327	0.176212
	C169	C	0.118977	0.614463	0.176993
	C170	C	0.117692	0.385612	0.824318
	C171	C	0.881125	0.614985	0.824010
	C172	C	0.176754	0.880837	0.385315
	C173	C	0.176836	0.118925	0.614868
	C174	C	0.823932	0.118922	0.385200
	C175	C	0.822971	0.880986	0.614246
	C176	C	0.385896	0.176610	0.881027
	C177	C	0.614918	0.176423	0.118545
	C178	C	0.385269	0.823561	0.118223
	C179	C	0.614485	0.823279	0.880640
	C180	C	0.385210	0.881604	0.175813
	C181	C	0.615006	0.119020	0.176674
	C182	C	0.385932	0.119012	0.823333
	C183	C	0.614381	0.881005	0.822925
	C184	C	0.881684	0.176582	0.385298
	C185	C	0.118669	0.176519	0.615013
	C186	C	0.119107	0.823039	0.385447
	C187	C	0.881548	0.823678	0.614661
	C188	C	0.175703	0.385363	0.881736
	C189	C	0.176530	0.614754	0.119094
	C190	C	0.823920	0.385152	0.117882
	C191	C	0.823633	0.614821	0.881797
	C192	C	0.401159	0.093705	0.598829
	C193	C	0.599810	0.906474	0.599620
	C194	C	0.599449	0.093677	0.399865
	C195	C	0.400447	0.906135	0.399941
	C196	C	0.600921	0.399535	0.094380
	C197	C	0.599494	0.599135	0.906455
	C198	C	0.400499	0.599076	0.093609
	C199	C	0.399867	0.399399	0.906289
	C200	C	0.093157	0.599038	0.400615
	C201	C	0.905961	0.599550	0.599841
	C202	C	0.093503	0.400563	0.600139
	C203	C	0.906437	0.400616	0.400243
	C204	C	0.900079	0.594274	0.100056
	C205	C	0.099320	0.406088	0.099418
	C206	C	0.099659	0.594347	0.901334
	C207	C	0.899656	0.406050	0.899903
	C208	C	0.100074	0.900146	0.593556
	C209	C	0.100647	0.100596	0.406164
	C210	C	0.900635	0.099657	0.593745
	C211	C	0.900717	0.900789	0.406329
	C212	C	0.594183	0.099357	0.900652
	C213	C	0.406124	0.099805	0.099937
	C214	C	0.593551	0.900935	0.099014
	C215	C	0.406222	0.900305	0.900220
	Zn216	Zn	0.500056	-0.000089	0.749722
	Zn217	Zn	0.500138	-0.000018	0.249452
	Zn218	Zn	0.750162	0.500075	0.000006
	Zn219	Zn	0.249655	0.500128	0.000083
	Zn220	Zn	0.000178	0.749749	0.500417
	Zn221	Zn	-0.000008	0.250007	0.500152
	Zn222	Zn	-0.000297	0.500445	0.750569
	Zn223	Zn	-0.000585	0.499645	0.249555
	Zn224	Zn	0.499734	0.749873	-0.000259
	Zn225	Zn	0.499833	0.249757	0.000331
	Zn226	Zn	0.749922	0.000392	0.499609
	Zn227	Zn	0.250273	-0.000206	0.499736
	N228	N	0.414919	0.962656	0.677932
	N229	N	0.585960	0.037572	0.678611
	N230	N	0.585201	0.962423	0.321274
	N231	N	0.414976	0.037728	0.321728
	N232	N	0.678761	0.414286	0.963009
	N233	N	0.678129	0.584949	0.037584
	N234	N	0.321908	0.584800	0.962545
	N235	N	0.321306	0.414443	0.037357
	N236	N	0.962198	0.677956	0.415352
	N237	N	0.037558	0.677634	0.585102
	N238	N	0.962181	0.322131	0.585163
	N239	N	0.037773	0.322392	0.415385
	N240	N	0.962516	0.414636	0.678900
	N241	N	0.036852	0.586147	0.679244
	N242	N	0.962242	0.585375	0.321530
	N243	N	0.036935	0.413922	0.320658
	N244	N	0.414584	0.678010	0.962667
	N245	N	0.585385	0.678399	0.037286
	N246	N	0.585202	0.321743	0.962834
	N247	N	0.414616	0.321346	0.037845
	N248	N	0.678176	0.962462	0.414350
	N249	N	0.678469	0.037698	0.585077
	N250	N	0.322267	0.962532	0.584857
	N251	N	0.321902	0.037401	0.414485
	N252	N	0.914061	0.462875	0.178372
	N253	N	0.085276	0.537069	0.178384
	N254	N	0.084681	0.463133	0.822691
	N255	N	0.914309	0.537620	0.822052
	N256	N	0.178524	0.914487	0.462504
	N257	N	0.179261	0.086080	0.537350
	N258	N	0.822103	0.085366	0.462505
	N259	N	0.821124	0.914452	0.536987
	N260	N	0.463127	0.178208	0.914755
	N261	N	0.537618	0.177885	0.084928
	N262	N	0.462656	0.821659	0.084889
	N263	N	0.537097	0.821103	0.913737
	N264	N	0.462413	0.915080	0.177621
	N265	N	0.537659	0.085649	0.178597
	N266	N	0.463092	0.085315	0.821857
	N267	N	0.537167	0.914474	0.821162
	N268	N	0.915110	0.178195	0.462589
	N269	N	0.085232	0.178347	0.537750
	N270	N	0.085726	0.821182	0.462671
	N271	N	0.915449	0.822163	0.537605
	N272	N	0.177921	0.462757	0.915227
	N273	N	0.178239	0.537382	0.085424
	N274	N	0.822250	0.462679	0.084748
	N275	N	0.821623	0.537401	0.914946
