data_Molecule from HDF5

_cell_length_a		16.346707
_cell_length_b		16.326346
_cell_length_c		16.311519
_cell_angle_alpha	90.000291
_cell_angle_beta	89.926638
_cell_angle_gamma	90.115733
_symmetry_space_group_name_H-M	'P 1'
_symmetry_Int_Tables_number		1

loop_
	_symmetry_equiv_pos_as_xyz
	x,y,z

loop_
	_atom_site_label
	_atom_site_type_symbol
	_atom_site_fract_x
	_atom_site_fract_y
	_atom_site_fract_z
	H0	H	0.401988	0.844077	0.714189
	H1	H	0.598583	0.171274	0.714771
	H2	H	0.597973	0.844056	0.285698
	H3	H	0.402687	0.171144	0.285487
	H4	H	0.713130	0.409219	0.835729
	H5	H	0.713292	0.605471	0.163350
	H6	H	0.285001	0.605663	0.836602
	H7	H	0.284161	0.408800	0.163795
	H8	H	0.836164	0.722122	0.402029
	H9	H	0.162310	0.722339	0.597269
	H10	H	0.835486	0.292808	0.598781
	H11	H	0.162736	0.295726	0.401690
	H12	H	0.834911	0.410853	0.713799
	H13	H	0.162569	0.607015	0.714057
	H14	H	0.836155	0.605982	0.285722
	H15	H	0.162314	0.412504	0.285699
	H16	H	0.402280	0.721041	0.835501
	H17	H	0.596815	0.721318	0.163514
	H18	H	0.595674	0.293888	0.835921
	H19	H	0.401133	0.293892	0.163726
	H20	H	0.713899	0.844566	0.401601
	H21	H	0.713970	0.171504	0.597658
	H22	H	0.284010	0.844614	0.599066
	H23	H	0.286825	0.172147	0.402330
	H24	H	0.901468	0.344872	0.214415
	H25	H	0.096327	0.672313	0.212665
	H26	H	0.096218	0.344599	0.785124
	H27	H	0.902613	0.672434	0.786333
	H28	H	0.213181	0.911916	0.337026
	H29	H	0.213516	0.106385	0.664129
	H30	H	0.785029	0.106727	0.336611
	H31	H	0.784280	0.910167	0.663715
	H32	H	0.335474	0.221296	0.902405
	H33	H	0.662140	0.223350	0.098100
	H34	H	0.336431	0.792619	0.097822
	H35	H	0.662387	0.793184	0.901459
	H36	H	0.335924	0.909681	0.213997
	H37	H	0.663206	0.105390	0.213051
	H38	H	0.335774	0.104748	0.786017
	H39	H	0.663165	0.910606	0.786292
	H40	H	0.902154	0.221908	0.335828
	H41	H	0.096880	0.222954	0.663691
	H42	H	0.096364	0.795718	0.336383
	H43	H	0.900235	0.793273	0.663985
	H44	H	0.213381	0.344264	0.901642
	H45	H	0.213740	0.671615	0.097459
	H46	H	0.784245	0.344948	0.098587
	H47	H	0.784184	0.671600	0.901134
	H48	H	0.409523	0.121570	0.589180
	H49	H	0.595072	0.893787	0.583787
	H50	H	0.595685	0.127458	0.396784
	H51	H	0.402307	0.893269	0.415177
	H52	H	0.595822	0.408797	0.118362
	H53	H	0.595514	0.599857	0.883087
	H54	H	0.405731	0.603123	0.116509
	H55	H	0.413119	0.415964	0.886814
	H56	H	0.116271	0.601003	0.401477
	H57	H	0.882072	0.598330	0.599797
	H58	H	0.115080	0.407997	0.589291
	H59	H	0.882104	0.413653	0.403612
	H60	H	0.110418	0.422087	0.588677
	H61	H	0.881372	0.608659	0.592548
	H62	H	0.116201	0.606945	0.406480
	H63	H	0.883601	0.412375	0.409988
	H64	H	0.403848	0.599303	0.115734
	H65	H	0.590428	0.599807	0.884437
	H66	H	0.596416	0.421655	0.114652
	H67	H	0.404278	0.407772	0.881774
	H68	H	0.584023	0.119722	0.408308
	H69	H	0.598998	0.888248	0.600378
	H70	H	0.401670	0.124383	0.593079
	H71	H	0.400610	0.887978	0.400332
	H72	H	0.907761	0.623631	0.093570
	H73	H	0.092145	0.391266	0.095227
	H74	H	0.086094	0.620289	0.912036
	H75	H	0.903270	0.393252	0.913042
	H76	H	0.080877	0.917124	0.612658
	H77	H	0.093968	0.112620	0.381686
	H78	H	0.903286	0.100929	0.617054
	H79	H	0.901491	0.908261	0.381239
	H80	H	0.614029	0.095614	0.902286
	H81	H	0.384724	0.102609	0.090101
	H82	H	0.613726	0.913390	0.086182
	H83	H	0.382231	0.915394	0.899967
	H84	H	0.614281	0.920774	0.096524
	H85	H	0.384557	0.096260	0.093877
	H86	H	0.618230	0.108124	0.903232
	H87	H	0.382080	0.906750	0.909428
	H88	H	0.908368	0.098586	0.613959
	H89	H	0.103239	0.098798	0.382778
	H90	H	0.095477	0.903703	0.621090
	H91	H	0.902796	0.923694	0.385827
	H92	H	0.101048	0.624458	0.910898
	H93	H	0.091020	0.392728	0.093350
	H94	H	0.904319	0.624011	0.090044
	H95	H	0.902545	0.389767	0.901023
	H96	H	0.409204	0.123886	0.598251
	H97	H	0.582910	0.894535	0.596764
	H98	H	0.600669	0.124007	0.413769
	H99	H	0.414187	0.894895	0.405526
	H100	H	0.584500	0.414954	0.113259
	H101	H	0.592062	0.604245	0.882439
	H102	H	0.407765	0.599788	0.114802
	H103	H	0.400568	0.419943	0.884296
	H104	H	0.114037	0.600265	0.408922
	H105	H	0.886064	0.598103	0.588028
	H106	H	0.116162	0.416891	0.600978
	H107	H	0.884093	0.418468	0.406989
	H108	H	0.903528	0.625108	0.094952
	H109	H	0.093220	0.391944	0.092542
	H110	H	0.091730	0.625977	0.898272
	H111	H	0.913266	0.394513	0.906289
	H112	H	0.100856	0.924470	0.616950
	H113	H	0.087323	0.098275	0.386242
	H114	H	0.908591	0.104496	0.616435
	H115	H	0.915525	0.914180	0.386402
	H116	H	0.612993	0.102248	0.913671
	H117	H	0.381728	0.102425	0.096594
	H118	H	0.618613	0.908577	0.096683
	H119	H	0.386415	0.918815	0.911367
	C120	C	0.378000	0.015804	0.622047
	C121	C	0.621012	0.999822	0.621838
	C122	C	0.621722	0.015650	0.378078
	C123	C	0.378207	1.000133	0.378980
	C124	C	0.620567	0.386457	0.007650
	C125	C	0.621073	0.629395	0.991448
	C126	C	0.377791	0.629271	0.007781
	C127	C	0.377289	0.386199	0.992347
	C128	C	0.007814	0.630516	0.377750
	C129	C	0.990845	0.630075	0.621322
	C130	C	0.006396	0.386920	0.621618
	C131	C	0.991176	0.387165	0.378396
	C132	C	0.877050	0.516456	0.121484
	C133	C	0.120600	0.500100	0.121384
	C134	C	0.121048	0.515819	0.878386
	C135	C	0.877757	0.500543	0.878447
	C136	C	0.120347	0.887740	0.508500
	C137	C	0.122301	0.131219	0.491762
	C138	C	0.878461	0.129625	0.507808
	C139	C	0.877595	0.886790	0.492459
	C140	C	0.507061	0.129243	0.878688
	C141	C	0.491293	0.129486	0.121795
	C142	C	0.507739	0.886039	0.121387
	C143	C	0.491326	0.886190	0.878872
	C144	C	0.381059	0.892667	0.676385
	C145	C	0.618511	0.122882	0.676276
	C146	C	0.618634	0.892981	0.323353
	C147	C	0.381725	0.122749	0.323634
	C148	C	0.675309	0.389046	0.884579
	C149	C	0.675419	0.626160	0.114632
	C150	C	0.323037	0.626507	0.885211
	C151	C	0.321922	0.388512	0.114950
	C152	C	0.884885	0.684650	0.381178
	C153	C	0.113925	0.684699	0.618585
	C154	C	0.884064	0.330963	0.619210
	C155	C	0.113793	0.332905	0.380740
	C156	C	0.883764	0.389378	0.676613
	C157	C	0.113678	0.627038	0.676237
	C158	C	0.884731	0.626821	0.323502
	C159	C	0.113604	0.390884	0.323115
	C160	C	0.381209	0.683849	0.884744
	C161	C	0.617911	0.684057	0.114587
	C162	C	0.616996	0.331733	0.884475
	C163	C	0.380028	0.331297	0.114977
	C164	C	0.676368	0.893230	0.380827
	C165	C	0.676201	0.122680	0.618597
	C166	C	0.322450	0.893075	0.619263
	C167	C	0.324339	0.123295	0.381690
	C168	C	0.880436	0.393722	0.176628
	C169	C	0.117489	0.623410	0.175378
	C170	C	0.117774	0.393192	0.822872
	C171	C	0.881011	0.623588	0.823887
	C172	C	0.175111	0.890673	0.385514
	C173	C	0.175903	0.127321	0.615299
	C174	C	0.823083	0.127225	0.385298
	C175	C	0.822473	0.889645	0.615206
	C176	C	0.383998	0.183488	0.881762
	C177	C	0.613807	0.184773	0.118459
	C178	C	0.384944	0.830849	0.118372
	C179	C	0.614199	0.831756	0.881279
	C180	C	0.384856	0.888528	0.176324
	C181	C	0.614186	0.126520	0.175768
	C182	C	0.384213	0.125476	0.824184
	C183	C	0.614345	0.889732	0.823920
	C184	C	0.881483	0.184191	0.384893
	C185	C	0.118044	0.185191	0.615137
	C186	C	0.117264	0.833072	0.385408
	C187	C	0.879971	0.831517	0.615297
	C188	C	0.175460	0.393007	0.881079
	C189	C	0.175719	0.623015	0.118257
	C190	C	0.822588	0.393500	0.118797
	C191	C	0.822541	0.622977	0.880898
	C192	C	0.400256	0.101251	0.600088
	C193	C	0.598999	0.914234	0.600112
	C194	C	0.599665	0.101664	0.399782
	C195	C	0.399284	0.914219	0.400844
	C196	C	0.598585	0.408488	0.093320
	C197	C	0.599315	0.607646	0.905643
	C198	C	0.399547	0.607275	0.093585
	C199	C	0.399476	0.408083	0.906552
	C200	C	0.093499	0.609115	0.399334
	C201	C	0.905389	0.608316	0.599715
	C202	C	0.091839	0.409181	0.599621
	C203	C	0.905247	0.408537	0.400486
	C204	C	0.898694	0.602239	0.099317
	C205	C	0.098738	0.414256	0.100042
	C206	C	0.099300	0.601474	0.900464
	C207	C	0.899898	0.414820	0.900379
	C208	C	0.098824	0.908952	0.594589
	C209	C	0.101110	0.109783	0.405615
	C210	C	0.900280	0.107697	0.593688
	C211	C	0.900005	0.908770	0.406567
	C212	C	0.592936	0.108334	0.900157
	C213	C	0.405761	0.107212	0.099902
	C214	C	0.593405	0.907975	0.099620
	C215	C	0.405601	0.907362	0.900519
	Zn216	Zn	0.499646	0.007997	0.750470
	Zn217	Zn	0.499567	0.007295	0.250187
	Zn218	Zn	0.748907	0.507943	-0.000269
	Zn219	Zn	0.249399	0.507577	0.000452
	Zn220	Zn	-0.000494	0.758551	0.500356
	Zn221	Zn	-0.000704	0.258378	0.499854
	Zn222	Zn	-0.001322	0.508520	0.750068
	Zn223	Zn	-0.000829	0.508608	0.249641
	Zn224	Zn	0.499833	0.757540	-0.000350
	Zn225	Zn	0.498635	0.257943	-0.000116
	Zn226	Zn	0.749335	0.008174	0.499883
	Zn227	Zn	0.249456	0.008548	0.500296
	N228	N	0.414894	0.969780	0.678219
	N229	N	0.584932	0.045628	0.678562
	N230	N	0.585395	0.970197	0.321538
	N231	N	0.414565	0.045200	0.321849
	N232	N	0.677456	0.422455	0.962177
	N233	N	0.677675	0.593171	0.037062
	N234	N	0.320781	0.593385	0.962597
	N235	N	0.320279	0.421936	0.037415
	N236	N	0.962256	0.686958	0.414411
	N237	N	0.036774	0.686583	0.585076
	N238	N	0.961515	0.329261	0.585811
	N239	N	0.036631	0.330689	0.414552
	N240	N	0.960670	0.423411	0.678298
	N241	N	0.036067	0.593827	0.678244
	N242	N	0.962103	0.593806	0.321208
	N243	N	0.036331	0.424036	0.321860
	N244	N	0.414574	0.685642	0.962222
	N245	N	0.584430	0.685739	0.037109
	N246	N	0.583683	0.329939	0.961997
	N247	N	0.413866	0.329817	0.037707
	N248	N	0.677928	0.970573	0.414483
	N249	N	0.677718	0.045167	0.585316
	N250	N	0.320451	0.970620	0.586191
	N251	N	0.322047	0.045989	0.415311
	N252	N	0.913754	0.471135	0.178295
	N253	N	0.083828	0.546090	0.177371
	N254	N	0.084414	0.470572	0.821214
	N255	N	0.914678	0.546503	0.822428
	N256	N	0.176894	0.923921	0.462929
	N257	N	0.178442	0.094510	0.537539
	N258	N	0.821256	0.093740	0.462721
	N259	N	0.821032	0.923299	0.537789
	N260	N	0.461431	0.186127	0.914753
	N261	N	0.536482	0.186497	0.085380
	N262	N	0.462310	0.829002	0.085084
	N263	N	0.536917	0.829315	0.914591
	N264	N	0.462057	0.922154	0.178130
	N265	N	0.536922	0.092750	0.177997
	N266	N	0.461676	0.092679	0.822087
	N267	N	0.536953	0.923032	0.822378
	N268	N	0.915227	0.185777	0.462110
	N269	N	0.085426	0.187626	0.537375
	N270	N	0.083797	0.831132	0.462986
	N271	N	0.913562	0.829737	0.537932
	N272	N	0.177783	0.470331	0.914515
	N273	N	0.177641	0.545386	0.085394
	N274	N	0.820612	0.470820	0.085200
	N275	N	0.820499	0.545436	0.914206
	O276	O	1.396162	-0.599675	0.533302
	H277	H	1.396682	-0.590253	0.529556
	H278	H	1.395309	-0.595360	0.535094
	O279	O	0.403355	0.416152	0.540983
	H280	H	0.397978	0.409030	0.543199
	H281	H	0.407496	0.412535	0.544389
	O282	O	0.417271	0.469579	0.526022
	H283	H	0.417522	0.471116	0.531054
	H284	H	0.416870	0.477024	0.520849
	O285	O	0.400247	0.431773	0.546252
	H286	H	0.397702	0.417379	0.541201
	H287	H	0.390757	0.421185	0.554924
