data_Molecule from HDF5

_cell_length_a		16.402016
_cell_length_b		16.512687
_cell_length_c		16.473748
_cell_angle_alpha	90.006657
_cell_angle_beta	90.062825
_cell_angle_gamma	90.127640
_symmetry_space_group_name_H-M	'P 1'
_symmetry_Int_Tables_number		1

loop_
	_symmetry_equiv_pos_as_xyz
	x,y,z

loop_
	_atom_site_label
	_atom_site_type_symbol
	_atom_site_fract_x
	_atom_site_fract_y
	_atom_site_fract_z
	H0	H	0.404204	0.855767	0.725069
	H1	H	0.622713	0.168563	0.727142
	H2	H	0.615263	0.854058	0.281548
	H3	H	0.400514	0.167166	0.273790
	H4	H	0.739254	0.402310	0.846800
	H5	H	0.730316	0.614285	0.160952
	H6	H	0.287695	0.617476	0.845274
	H7	H	0.291095	0.405509	0.160317
	H8	H	0.855726	0.731580	0.398570
	H9	H	0.170361	0.735457	0.613391
	H10	H	0.855826	0.286956	0.611147
	H11	H	0.168210	0.284313	0.392359
	H12	H	0.855684	0.401733	0.727518
	H13	H	0.168473	0.621237	0.730849
	H14	H	0.855999	0.614484	0.282490
	H15	H	0.170277	0.401975	0.279803
	H16	H	0.403963	0.733546	0.843595
	H17	H	0.614653	0.731808	0.159396
	H18	H	0.623007	0.286815	0.846234
	H19	H	0.402259	0.285871	0.157385
	H20	H	0.730133	0.853472	0.399495
	H21	H	0.737811	0.168005	0.610043
	H22	H	0.288743	0.855992	0.608788
	H23	H	0.285551	0.168021	0.390910
	H24	H	0.904158	0.354301	0.227501
	H25	H	0.119880	0.667310	0.225585
	H26	H	0.123978	0.355794	0.776004
	H27	H	0.903588	0.665492	0.777786
	H28	H	0.229431	0.910438	0.343974
	H29	H	0.240424	0.123165	0.657404
	H30	H	0.789449	0.117202	0.345967
	H31	H	0.788866	0.905303	0.661259
	H32	H	0.356012	0.238319	0.890457
	H33	H	0.670194	0.235032	0.109717
	H34	H	0.353680	0.790312	0.106689
	H35	H	0.671198	0.792272	0.896757
	H36	H	0.353834	0.906322	0.222097
	H37	H	0.670335	0.116680	0.222665
	H38	H	0.354674	0.118975	0.778792
	H39	H	0.671489	0.909188	0.782651
	H40	H	0.902374	0.235843	0.347092
	H41	H	0.125048	0.238828	0.658129
	H42	H	0.116448	0.791606	0.346202
	H43	H	0.904612	0.788506	0.661132
	H44	H	0.237315	0.354272	0.894844
	H45	H	0.232924	0.668323	0.107523
	H46	H	0.787799	0.354826	0.111149
	H47	H	0.791804	0.668174	0.897502
	H48	H	0.428130	0.122251	0.586872
	H49	H	0.596580	0.901834	0.588686
	H50	H	0.601201	0.122604	0.417743
	H51	H	0.424625	0.899026	0.407304
	H52	H	0.600404	0.422909	0.114755
	H53	H	0.606533	0.599093	0.887867
	H54	H	0.425062	0.604961	0.115029
	H55	H	0.425957	0.418159	0.887797
	H56	H	0.128170	0.604788	0.417663
	H57	H	0.902179	0.599710	0.584934
	H58	H	0.121658	0.426246	0.583400
	H59	H	0.900170	0.426027	0.411453
	H60	H	0.124105	0.430157	0.592422
	H61	H	0.901533	0.593923	0.594116
	H62	H	0.126953	0.597432	0.416075
	H63	H	0.898323	0.418925	0.416449
	H64	H	0.420800	0.601931	0.115093
	H65	H	0.599017	0.599933	0.889142
	H66	H	0.599080	0.425755	0.113169
	H67	H	0.419741	0.431164	0.890679
	H68	H	0.604797	0.126975	0.410301
	H69	H	0.604105	0.899302	0.590634
	H70	H	0.423738	0.124204	0.589271
	H71	H	0.426887	0.903190	0.415300
	H72	H	0.925584	0.623993	0.096602
	H73	H	0.104394	0.396193	0.093113
	H74	H	0.100686	0.621840	0.917715
	H75	H	0.923896	0.398120	0.915201
	H76	H	0.102117	0.924415	0.616333
	H77	H	0.094752	0.107789	0.389315
	H78	H	0.928656	0.103574	0.616056
	H79	H	0.913052	0.921985	0.387856
	H80	H	0.622234	0.095114	0.916302
	H81	H	0.398818	0.098848	0.091041
	H82	H	0.628276	0.920140	0.095347
	H83	H	0.395049	0.916511	0.910454
	H84	H	0.625249	0.918774	0.087073
	H85	H	0.399733	0.102525	0.084130
	H86	H	0.625839	0.100130	0.911267
	H87	H	0.400789	0.922776	0.917882
	H88	H	0.920630	0.095895	0.615290
	H89	H	0.106667	0.093310	0.390011
	H90	H	0.100197	0.923687	0.616379
	H91	H	0.927592	0.927251	0.394513
	H92	H	0.096190	0.620989	0.915461
	H93	H	0.097274	0.397674	0.095376
	H94	H	0.923970	0.622803	0.091828
	H95	H	0.929414	0.399307	0.915039
	H96	H	0.428758	0.124311	0.591363
	H97	H	0.598556	0.899267	0.596263
	H98	H	0.595723	0.124184	0.410048
	H99	H	0.418535	0.900490	0.414297
	H100	H	0.597431	0.422805	0.113340
	H101	H	0.602938	0.605724	0.886200
	H102	H	0.425546	0.599760	0.113641
	H103	H	0.433581	0.428493	0.895262
	H104	H	0.129121	0.602079	0.410700
	H105	H	0.897948	0.604419	0.593960
	H106	H	0.126732	0.420363	0.589991
	H107	H	0.902486	0.425661	0.419687
	H108	H	0.920570	0.625196	0.095084
	H109	H	0.099569	0.399301	0.088483
	H110	H	0.097597	0.618930	0.919849
	H111	H	0.926545	0.400468	0.919433
	H112	H	0.101750	0.922510	0.617353
	H113	H	0.089688	0.091747	0.397653
	H114	H	0.930974	0.093581	0.611402
	H115	H	0.926242	0.911647	0.388984
	H116	H	0.623454	0.102371	0.918741
	H117	H	0.401203	0.095084	0.084772
	H118	H	0.624722	0.926748	0.090467
	H119	H	0.397939	0.927012	0.907791
	C120	C	0.392124	0.020336	0.622835
	C121	C	0.634323	1.003458	0.624935
	C122	C	0.632807	0.020461	0.380804
	C123	C	0.389508	1.004085	0.378524
	C124	C	0.634262	0.389815	0.011026
	C125	C	0.633937	0.633176	0.992593
	C126	C	0.389958	0.634066	0.010505
	C127	C	0.391730	0.390797	0.993970
	C128	C	0.022983	0.632642	0.382755
	C129	C	1.004315	0.632810	0.625442
	C130	C	0.021116	0.390614	0.623229
	C131	C	1.004281	0.389416	0.381888
	C132	C	0.890130	0.519958	0.126835
	C133	C	0.134274	0.501448	0.125136
	C134	C	0.133526	0.518377	0.882235
	C135	C	0.892191	0.502220	0.882322
	C136	C	0.133306	0.891225	0.512376
	C137	C	0.133760	0.133852	0.494220
	C138	C	0.891783	0.131802	0.511207
	C139	C	0.889736	0.888265	0.494854
	C140	C	0.520733	0.133726	0.880288
	C141	C	0.503848	0.132419	0.121559
	C142	C	0.520799	0.890370	0.122225
	C143	C	0.503526	0.890864	0.880379
	C144	C	0.387102	0.902892	0.684491
	C145	C	0.639653	0.121210	0.686524
	C146	C	0.633983	0.901509	0.321621
	C147	C	0.384349	0.120625	0.315348
	C148	C	0.698112	0.385070	0.893826
	C149	C	0.691087	0.633362	0.113057
	C150	C	0.328440	0.635766	0.892013
	C151	C	0.330559	0.387111	0.112455
	C152	C	0.903288	0.691708	0.380478
	C153	C	0.122557	0.695116	0.630551
	C154	C	0.902876	0.327814	0.628405
	C155	C	0.121492	0.325870	0.376037
	C156	C	0.902841	0.385314	0.686084
	C157	C	0.121918	0.637957	0.688928
	C158	C	0.903537	0.633814	0.322549
	C159	C	0.122511	0.384733	0.319743
	C160	C	0.386546	0.693456	0.891246
	C161	C	0.634036	0.692178	0.111983
	C162	C	0.640055	0.327413	0.893405
	C163	C	0.386001	0.327439	0.110870
	C164	C	0.691030	0.901070	0.380425
	C165	C	0.697090	0.121153	0.628115
	C166	C	0.329366	0.903063	0.626533
	C167	C	0.327341	0.121277	0.374371
	C168	C	0.886267	0.401805	0.187632
	C169	C	0.137352	0.619930	0.185394
	C170	C	0.139826	0.402007	0.818165
	C171	C	0.887342	0.619271	0.819491
	C172	C	0.191331	0.890471	0.392299
	C173	C	0.198666	0.139610	0.610730
	C174	C	0.829590	0.135453	0.393354
	C175	C	0.828912	0.886539	0.613671
	C176	C	0.403033	0.196816	0.874389
	C177	C	0.622283	0.194593	0.126658
	C178	C	0.401540	0.830182	0.124828
	C179	C	0.623343	0.831774	0.878407
	C180	C	0.401364	0.888138	0.182138
	C181	C	0.622533	0.135813	0.183159
	C182	C	0.402262	0.137427	0.818500
	C183	C	0.623569	0.890263	0.821852
	C184	C	0.886068	0.194647	0.394140
	C185	C	0.140997	0.197344	0.611127
	C186	C	0.134991	0.831503	0.393501
	C187	C	0.886523	0.828365	0.613787
	C188	C	0.196399	0.401335	0.877473
	C189	C	0.193948	0.620315	0.126546
	C190	C	0.828357	0.401978	0.129413
	C191	C	0.831524	0.620501	0.879087
	C192	C	0.419178	0.102207	0.596640
	C193	C	0.607362	0.921523	0.599193
	C194	C	0.607756	0.103246	0.405554
	C195	C	0.415882	0.922127	0.404911
	C196	C	0.606740	0.416308	0.092534
	C197	C	0.609830	0.608599	0.909343
	C198	C	0.415944	0.609285	0.092983
	C199	C	0.418749	0.418156	0.912434
	C200	C	0.106447	0.608539	0.407723
	C201	C	0.921984	0.606466	0.598933
	C202	C	0.102754	0.417560	0.596292
	C203	C	0.921923	0.415967	0.408364
	C204	C	0.915847	0.602423	0.101752
	C205	C	0.108108	0.419181	0.099660
	C206	C	0.105789	0.599444	0.909616
	C207	C	0.918840	0.420631	0.908916
	C208	C	0.108620	0.916525	0.595063
	C209	C	0.105221	0.106005	0.413453
	C210	C	0.918867	0.105177	0.592756
	C211	C	0.915004	0.913152	0.412212
	C212	C	0.602547	0.107090	0.907591
	C213	C	0.421590	0.106351	0.094631
	C214	C	0.604182	0.915067	0.097988
	C215	C	0.419899	0.915188	0.904735
	Zn216	Zn	0.511876	0.012619	0.752540
	Zn217	Zn	0.511889	0.011760	0.250656
	Zn218	Zn	0.763035	0.511566	0.002841
	Zn219	Zn	0.262847	0.510590	0.002662
	Zn220	Zn	0.013291	0.761555	0.504456
	Zn221	Zn	0.012118	0.261685	0.503132
	Zn222	Zn	0.012598	0.510195	0.752677
	Zn223	Zn	0.013680	0.510397	0.254169
	Zn224	Zn	0.512182	0.762003	0.000521
	Zn225	Zn	0.512169	0.261651	0.001588
	Zn226	Zn	0.762100	0.011315	0.502838
	Zn227	Zn	0.262307	0.012210	0.501917
	N228	N	0.425428	0.976859	0.682112
	N229	N	0.601410	0.047036	0.684645
	N230	N	0.598574	0.976859	0.321617
	N231	N	0.422687	0.046797	0.318288
	N232	N	0.694816	0.423153	0.968093
	N233	N	0.691550	0.597640	0.037709
	N234	N	0.330426	0.599515	0.967046
	N235	N	0.333996	0.425777	0.038673
	N236	N	0.978553	0.691097	0.417207
	N237	N	0.048485	0.691794	0.591604
	N238	N	0.977273	0.330777	0.590317
	N239	N	0.046963	0.328596	0.413967
	N240	N	0.977425	0.423523	0.683253
	N241	N	0.047290	0.600015	0.685958
	N242	N	0.978898	0.597818	0.323903
	N243	N	0.048505	0.423534	0.323500
	N244	N	0.424020	0.692677	0.965842
	N245	N	0.599353	0.692097	0.036073
	N246	N	0.601133	0.330220	0.967074
	N247	N	0.423344	0.329642	0.036237
	N248	N	0.690682	0.976231	0.416367
	N249	N	0.693952	0.046965	0.590535
	N250	N	0.332550	0.977139	0.588596
	N251	N	0.330644	0.047818	0.413252
	N252	N	0.923882	0.476212	0.186195
	N253	N	0.101064	0.544802	0.184703
	N254	N	0.101674	0.476032	0.820820
	N255	N	0.924264	0.544711	0.821399
	N256	N	0.190675	0.926745	0.467282
	N257	N	0.194805	0.101254	0.536789
	N258	N	0.833008	0.097142	0.467347
	N259	N	0.830711	0.923184	0.538782
	N260	N	0.477739	0.194577	0.912086
	N261	N	0.547294	0.192817	0.089082
	N262	N	0.476728	0.831281	0.088119
	N263	N	0.547476	0.831646	0.913930
	N264	N	0.476536	0.924885	0.180637
	N265	N	0.547780	0.098373	0.180490
	N266	N	0.476330	0.099041	0.821968
	N267	N	0.548017	0.925962	0.822772
	N268	N	0.924163	0.192491	0.468368
	N269	N	0.101247	0.193792	0.537679
	N270	N	0.099831	0.831680	0.469169
	N271	N	0.923565	0.829194	0.538963
	N272	N	0.192570	0.474652	0.916604
	N273	N	0.192425	0.545577	0.089949
	N274	N	0.830558	0.476528	0.092367
	N275	N	0.834407	0.546698	0.917580
	O276	O	0.516364	0.481937	0.519276
	H277	H	0.513494	0.509834	0.519583
	H278	H	0.499707	0.472687	0.482563
	O279	O	0.798197	-0.207504	1.044018
	H280	H	0.783279	-0.223791	1.050297
	H281	H	0.785491	-0.210226	1.067475
	O282	O	0.532390	0.290345	0.280717
	H283	H	0.577262	0.293041	0.283684
	H284	H	0.546697	0.264245	0.252757
	O285	O	0.723631	0.722691	0.521564
	H286	H	0.751601	0.754392	0.535764
	H287	H	0.709283	0.712316	0.561319
	O288	O	1.116828	1.130139	0.206811
	H289	H	1.109334	1.122909	0.210155
	H290	H	1.121536	1.121633	0.223596
	O291	O	0.717785	0.307693	0.481257
	H292	H	0.722541	0.285157	0.492847
	H293	H	0.701707	0.304981	0.503529
	O294	O	0.109460	0.014814	1.201652
	H295	H	0.100269	-0.013743	1.198966
	H296	H	0.106801	0.011735	1.195235
	O297	O	0.313909	0.725459	0.481868
	H298	H	0.287403	0.746540	0.461690
	H299	H	0.333611	0.719483	0.447756
	O300	O	1.063474	1.044491	0.988210
	H301	H	1.068254	1.032284	0.980795
	H302	H	1.056384	1.066460	0.996637
	O303	O	0.496333	0.480425	0.277547
	H304	H	0.487008	0.460044	0.266199
	H305	H	0.492025	0.466055	0.270797
	O306	O	0.719281	0.533064	0.712712
	H307	H	0.750546	0.528936	0.732042
	H308	H	0.718123	0.506231	0.676415
	O309	O	0.712122	0.491703	0.299496
	H310	H	0.733735	0.499901	0.293353
	H311	H	0.717732	0.504292	0.305286
	O312	O	-0.109403	0.961609	0.927094
	H313	H	-0.116983	0.964545	0.922444
	H314	H	-0.121343	0.964558	0.949800
	O315	O	0.689248	0.327172	0.319934
	H316	H	0.701012	0.319038	0.373959
	H317	H	0.707393	0.366937	0.306784
	O318	O	0.977351	-0.128185	-0.112169
	H319	H	0.944791	-0.134764	-0.097142
	H320	H	0.979180	-0.117222	-0.102416
	O321	O	-0.039388	-0.098345	-0.173987
	H322	H	-0.020959	-0.091351	-0.158458
	H323	H	-0.032890	-0.119530	-0.171336
	O324	O	0.508829	0.589186	0.691069
	H325	H	0.472811	0.590150	0.696262
	H326	H	0.516120	0.582653	0.679772
	O327	O	0.298067	0.296368	0.520933
	H328	H	0.329518	0.286291	0.496300
	H329	H	0.272488	0.259024	0.517943
	O330	O	-0.169729	1.024674	-0.183218
	H331	H	-0.182161	1.018312	-0.214625
	H332	H	-0.148627	1.003884	-0.168519
	O333	O	0.699657	0.435594	0.581067
	H334	H	0.680944	0.450712	0.566154
	H335	H	0.679021	0.411520	0.564734
	O336	O	-0.771617	-0.202249	0.980222
	H337	H	-0.785383	-0.185661	0.938600
	H338	H	-0.736919	-0.236933	0.970151
	O339	O	0.048351	1.221674	1.068035
	H340	H	0.082980	1.241402	1.088114
	H341	H	0.056986	1.216430	1.036846
	O342	O	-0.031596	0.809938	1.208462
	H343	H	-0.033081	0.787206	1.219438
	H344	H	-0.041045	0.813730	1.193901
	O345	O	1.029908	0.806253	-0.127617
	H346	H	1.008459	0.807126	-0.089971
	H347	H	1.030561	0.783296	-0.148391
	O348	O	0.424438	0.323196	0.432235
	H349	H	0.438050	0.349915	0.433779
	H350	H	0.434352	0.322794	0.396029
	O351	O	0.548749	0.636082	0.304552
	H352	H	0.526377	0.615262	0.293385
	H353	H	0.548839	0.625006	0.326867
	O354	O	0.197123	0.960752	-0.192524
	H355	H	0.186213	0.990544	-0.197100
	H356	H	0.189336	0.964001	-0.201781
	O357	O	-0.179399	-0.152664	1.208817
	H358	H	-0.165270	-0.133951	1.204689
	H359	H	-0.211517	-0.179632	1.243257
	O360	O	0.402249	0.700962	0.316119
	H361	H	0.403568	0.679462	0.303586
	H362	H	0.404040	0.700334	0.299349
	O363	O	0.141985	-0.066432	1.120294
	H364	H	0.150272	-0.075845	1.103464
	H365	H	0.120538	-0.072231	1.118761
	O366	O	0.079888	0.115211	-0.017959
	H367	H	0.073677	0.134473	-0.023688
	H368	H	0.099183	0.113828	-0.017384
	O369	O	0.483127	0.539443	0.458532
	H370	H	0.477289	0.551782	0.433983
	H371	H	0.461041	0.539408	0.440608
	O372	O	1.088254	0.080166	0.801943
	H373	H	1.064619	0.088654	0.805911
	H374	H	1.070588	0.099382	0.793489
	O375	O	0.348816	0.334678	0.661425
	H376	H	0.394508	0.321183	0.668091
	H377	H	0.337024	0.321261	0.609863
	O378	O	0.540948	0.729731	0.717055
	H379	H	0.519556	0.739517	0.712879
	H380	H	0.530043	0.737382	0.735054
	O381	O	0.293373	0.450839	0.470812
	H382	H	0.297254	0.469987	0.505273
	H383	H	0.286214	0.417811	0.485094
	O384	O	0.301291	0.535512	0.285800
	H385	H	0.283830	0.514297	0.315247
	H386	H	0.274846	0.547172	0.265302
	O387	O	0.223590	0.175435	0.985451
	H388	H	0.214605	0.164881	1.001483
	H389	H	0.239302	0.183573	0.995552
	O390	O	-0.075122	0.224544	0.052216
	H391	H	-0.045315	0.226485	0.068436
	H392	H	-0.049180	0.219263	0.045532
	O393	O	1.191444	1.191092	1.181049
	H394	H	1.166846	1.191935	1.174293
	H395	H	1.198029	1.153198	1.181157
	O396	O	0.685165	-0.297886	0.329967
	H397	H	0.664879	-0.310120	0.344107
	H398	H	0.677149	-0.319576	0.349860
	O399	O	0.713139	-0.289509	0.701709
	H400	H	0.677540	-0.277031	0.715954
	H401	H	0.714545	-0.339234	0.707725
	O402	O	0.840064	1.192476	0.825335
	H403	H	0.825658	1.200286	0.874306
	H404	H	0.829363	1.141757	0.818750
	O405	O	0.995146	1.233730	-0.218939
	H406	H	0.987657	1.271411	-0.257092
	H407	H	0.942839	1.220157	-0.204353
	O408	O	1.099830	-0.185975	0.080541
	H409	H	1.103022	-0.179318	0.072616
	H410	H	1.104233	-0.184819	0.068750
	O411	O	0.804954	1.182933	-0.020705
	H412	H	0.779620	1.206674	-0.024018
	H413	H	0.838818	1.196498	-0.001959
	O414	O	-0.201931	0.009364	0.084384
	H415	H	-0.214547	0.009251	0.086430
	H416	H	-0.191100	0.004622	0.086606
	O417	O	0.491005	0.295662	0.713886
	H418	H	0.509005	0.315662	0.721496
	H419	H	0.496142	0.282490	0.744952
	O420	O	-0.073718	0.096775	0.194830
	H421	H	-0.087963	0.076091	0.197534
	H422	H	-0.049375	0.095219	0.178460
	O423	O	0.330355	0.572623	0.585167
	H424	H	0.326409	0.599169	0.582864
	H425	H	0.320506	0.579670	0.607963
	O426	O	0.544181	0.677024	0.477730
	H427	H	0.533524	0.669378	0.483568
	H428	H	0.558954	0.689263	0.492045
	O429	O	0.563125	0.454874	0.716861
	H430	H	0.571156	0.473960	0.708579
	H431	H	0.559347	0.483910	0.718136
	O432	O	0.733571	0.555361	0.458110
	H433	H	0.727925	0.577005	0.466465
	H434	H	0.725330	0.554984	0.476336
	O435	O	0.397362	0.696851	0.596565
	H436	H	0.395999	0.683072	0.577515
	H437	H	0.378319	0.701019	0.598292
	O438	O	-0.188729	-0.002814	0.150151
	H439	H	-0.192843	0.020778	0.139735
	H440	H	-0.199211	-0.014826	0.149332
	O441	O	1.222264	0.086949	0.033498
	H442	H	1.220394	0.071351	0.016757
	H443	H	1.240249	0.106195	0.013760
	O444	O	0.158996	0.822755	0.812509
	H445	H	0.143719	0.839383	0.809475
	H446	H	0.142292	0.830048	0.797071
	O447	O	0.226322	0.793779	0.257918
	H448	H	0.241910	0.804704	0.248731
	H449	H	0.211068	0.808292	0.246249
	O450	O	0.301483	0.497162	0.714282
	H451	H	0.276058	0.478993	0.740772
	H452	H	0.304450	0.460963	0.699106
	O453	O	0.563025	0.308692	0.555668
	H454	H	0.543901	0.310275	0.562418
	H455	H	0.536590	0.313237	0.561119
