data_Molecule from HDF5

_cell_length_a		16.379097
_cell_length_b		16.277072
_cell_length_c		16.340807
_cell_angle_alpha	90.053223
_cell_angle_beta	90.030210
_cell_angle_gamma	89.863466
_symmetry_space_group_name_H-M	'P 1'
_symmetry_Int_Tables_number		1

loop_
	_symmetry_equiv_pos_as_xyz
	x,y,z

loop_
	_atom_site_label
	_atom_site_type_symbol
	_atom_site_fract_x
	_atom_site_fract_y
	_atom_site_fract_z
	H0	H	0.404229	0.836999	0.716198
	H1	H	0.599256	0.163909	0.716883
	H2	H	0.599504	0.836508	0.289373
	H3	H	0.402758	0.163828	0.287753
	H4	H	0.718489	0.399938	0.840307
	H5	H	0.716922	0.599710	0.165744
	H6	H	0.286894	0.599696	0.840027
	H7	H	0.286705	0.401794	0.165809
	H8	H	0.837904	0.714232	0.405769
	H9	H	0.164739	0.714854	0.600779
	H10	H	0.838275	0.287964	0.599273
	H11	H	0.164307	0.285168	0.404449
	H12	H	0.839269	0.402230	0.718187
	H13	H	0.164691	0.598664	0.718125
	H14	H	0.839064	0.599367	0.287632
	H15	H	0.165073	0.402451	0.288101
	H16	H	0.403761	0.715496	0.840090
	H17	H	0.597863	0.712934	0.166750
	H18	H	0.600870	0.285222	0.839446
	H19	H	0.404625	0.286685	0.166415
	H20	H	0.716222	0.836760	0.404216
	H21	H	0.715846	0.163382	0.601949
	H22	H	0.287151	0.837401	0.601321
	H23	H	0.286550	0.164300	0.404527
	H24	H	0.903881	0.337086	0.217170
	H25	H	0.100453	0.664512	0.217910
	H26	H	0.100057	0.336656	0.789022
	H27	H	0.903487	0.664398	0.789183
	H28	H	0.217506	0.900153	0.340765
	H29	H	0.214744	0.097970	0.666021
	H30	H	0.786256	0.098957	0.340174
	H31	H	0.787207	0.902495	0.665830
	H32	H	0.339261	0.215953	0.905651
	H33	H	0.665614	0.213920	0.100245
	H34	H	0.339248	0.787099	0.100346
	H35	H	0.665629	0.785837	0.905477
	H36	H	0.339210	0.902251	0.217332
	H37	H	0.664162	0.099898	0.219027
	H38	H	0.339505	0.100603	0.787144
	H39	H	0.664546	0.900283	0.786350
	H40	H	0.904009	0.214100	0.338664
	H41	H	0.099411	0.214939	0.666187
	H42	H	0.098645	0.787193	0.339577
	H43	H	0.903752	0.787088	0.665816
	H44	H	0.217229	0.337299	0.903358
	H45	H	0.216228	0.664492	0.101582
	H46	H	0.788124	0.336676	0.101114
	H47	H	0.786684	0.664049	0.904407
	H48	H	0.401132	0.119006	0.594118
	H49	H	0.587629	0.887107	0.590751
	H50	H	0.593667	0.116999	0.410018
	H51	H	0.409633	0.884993	0.411755
	H52	H	0.593119	0.406029	0.118160
	H53	H	0.598035	0.598121	0.884596
	H54	H	0.411779	0.592824	0.117641
	H55	H	0.403128	0.406195	0.884986
	H56	H	0.119239	0.595755	0.404281
	H57	H	0.886271	0.598141	0.593935
	H58	H	0.116077	0.407195	0.592527
	H59	H	0.881996	0.401330	0.398949
	H60	H	0.117082	0.410833	0.597968
	H61	H	0.887755	0.590734	0.594461
	H62	H	0.116903	0.597837	0.413791
	H63	H	0.887357	0.402101	0.420021
	H64	H	0.408400	0.598385	0.120617
	H65	H	0.598502	0.587848	0.887848
	H66	H	0.598237	0.406902	0.118978
	H67	H	0.410123	0.415926	0.890021
	H68	H	0.592461	0.115588	0.411467
	H69	H	0.603279	0.882567	0.591555
	H70	H	0.410508	0.118389	0.602036
	H71	H	0.405416	0.883077	0.409002
	H72	H	0.910946	0.614695	0.091407
	H73	H	0.091200	0.384912	0.100086
	H74	H	0.098910	0.615435	0.918639
	H75	H	0.913869	0.382449	0.898942
	H76	H	0.102630	0.908688	0.620893
	H77	H	0.094650	0.094595	0.385899
	H78	H	0.904884	0.091306	0.618575
	H79	H	0.906742	0.903367	0.384844
	H80	H	0.615552	0.088456	0.908891
	H81	H	0.386595	0.091613	0.099067
	H82	H	0.619684	0.901067	0.095904
	H83	H	0.385288	0.908643	0.901121
	H84	H	0.614857	0.910764	0.091678
	H85	H	0.385901	0.098175	0.095765
	H86	H	0.619011	0.094871	0.905514
	H87	H	0.385824	0.900789	0.912980
	H88	H	0.911321	0.092843	0.617596
	H89	H	0.095513	0.092515	0.386577
	H90	H	0.091546	0.914378	0.615991
	H91	H	0.904560	0.910132	0.386324
	H92	H	0.098292	0.619996	0.903192
	H93	H	0.093527	0.387241	0.089743
	H94	H	0.901981	0.619005	0.095268
	H95	H	0.917413	0.389828	0.918988
	H96	H	0.412485	0.114318	0.590401
	H97	H	0.594482	0.881142	0.604430
	H98	H	0.594386	0.116086	0.411801
	H99	H	0.410090	0.883608	0.406827
	H100	H	0.594687	0.410615	0.117138
	H101	H	0.589383	0.593457	0.888848
	H102	H	0.404630	0.592606	0.119521
	H103	H	0.415376	0.404133	0.888292
	H104	H	0.114838	0.588831	0.410285
	H105	H	0.884766	0.594498	0.600759
	H106	H	0.118654	0.404186	0.598236
	H107	H	0.890167	0.419684	0.407681
	H108	H	0.910614	0.617595	0.101321
	H109	H	0.100536	0.382464	0.096114
	H110	H	0.085794	0.613925	0.910357
	H111	H	0.898375	0.381973	0.913572
	H112	H	0.091710	0.901253	0.619782
	H113	H	0.093308	0.092573	0.387534
	H114	H	0.906851	0.098285	0.619739
	H115	H	0.911358	0.907594	0.387610
	H116	H	0.617140	0.094875	0.913012
	H117	H	0.388208	0.092687	0.092017
	H118	H	0.618611	0.910101	0.102269
	H119	H	0.390182	0.914708	0.912933
	C120	C	0.380111	0.008959	0.624091
	C121	C	0.623218	0.991864	0.624119
	C122	C	0.622517	0.008452	0.381922
	C123	C	0.379938	0.992200	0.381331
	C124	C	0.624290	0.378855	0.010662
	C125	C	0.623100	0.621242	0.994894
	C126	C	0.380010	0.622884	0.011446
	C127	C	0.380800	0.379438	0.995228
	C128	C	0.009480	0.622437	0.381173
	C129	C	0.993660	0.622590	0.624926
	C130	C	0.009697	0.379775	0.623779
	C131	C	0.993795	0.378985	0.380674
	C132	C	0.879899	0.508837	0.124651
	C133	C	0.123253	0.492933	0.123925
	C134	C	0.123600	0.508616	0.881353
	C135	C	0.880852	0.492620	0.881799
	C136	C	0.123434	0.878984	0.511377
	C137	C	0.122896	0.122104	0.494382
	C138	C	0.879526	0.122245	0.510717
	C139	C	0.879569	0.879218	0.494188
	C140	C	0.510134	0.121951	0.880936
	C141	C	0.494165	0.122444	0.124440
	C142	C	0.510247	0.879180	0.124537
	C143	C	0.494370	0.878888	0.880835
	C144	C	0.383222	0.885869	0.678659
	C145	C	0.619885	0.115121	0.678914
	C146	C	0.620351	0.885457	0.326890
	C147	C	0.382448	0.115249	0.326373
	C148	C	0.680260	0.380137	0.888593
	C149	C	0.678688	0.619556	0.117415
	C150	C	0.325365	0.619758	0.888619
	C151	C	0.325161	0.381600	0.117349
	C152	C	0.886875	0.676789	0.384952
	C153	C	0.116220	0.677030	0.621660
	C154	C	0.886874	0.325423	0.620485
	C155	C	0.116069	0.323756	0.383830
	C156	C	0.887353	0.382449	0.679185
	C157	C	0.116142	0.619563	0.680043
	C158	C	0.887163	0.619719	0.326322
	C159	C	0.116324	0.381767	0.325932
	C160	C	0.383306	0.677194	0.888457
	C161	C	0.619645	0.675860	0.117998
	C162	C	0.621859	0.323083	0.888190
	C163	C	0.383656	0.324290	0.117663
	C164	C	0.678351	0.885670	0.383885
	C165	C	0.677972	0.114670	0.621876
	C166	C	0.325143	0.886126	0.621529
	C167	C	0.324614	0.115304	0.383920
	C168	C	0.883418	0.385800	0.179125
	C169	C	0.120547	0.615812	0.179457
	C170	C	0.120877	0.385558	0.826430
	C171	C	0.882983	0.615588	0.826777
	C172	C	0.179168	0.880348	0.389176
	C173	C	0.177507	0.119141	0.617144
	C174	C	0.824788	0.119214	0.388282
	C175	C	0.824924	0.882280	0.617127
	C176	C	0.387856	0.177886	0.884204
	C177	C	0.616805	0.176623	0.121374
	C178	C	0.387767	0.824674	0.121106
	C179	C	0.616834	0.823463	0.884221
	C180	C	0.387686	0.882233	0.179071
	C181	C	0.615971	0.120103	0.180446
	C182	C	0.387931	0.120467	0.825483
	C183	C	0.616289	0.880472	0.825205
	C184	C	0.883086	0.176712	0.387820
	C185	C	0.119937	0.176939	0.617370
	C186	C	0.120355	0.823841	0.388593
	C187	C	0.882747	0.825013	0.617197
	C188	C	0.179238	0.386042	0.883408
	C189	C	0.178014	0.615701	0.121639
	C190	C	0.825563	0.385788	0.121624
	C191	C	0.825176	0.615525	0.884254
	C192	C	0.401731	0.094991	0.602085
	C193	C	0.601517	0.905855	0.601973
	C194	C	0.599955	0.094078	0.404306
	C195	C	0.401832	0.906045	0.402872
	C196	C	0.601800	0.401260	0.096180
	C197	C	0.601583	0.599582	0.909341
	C198	C	0.401645	0.601056	0.097016
	C199	C	0.403187	0.401969	0.909741
	C200	C	0.095066	0.600482	0.402989
	C201	C	0.908220	0.600673	0.602851
	C202	C	0.095151	0.401136	0.602573
	C203	C	0.908609	0.401293	0.402404
	C204	C	0.901603	0.595070	0.102638
	C205	C	0.101338	0.406869	0.101785
	C206	C	0.100934	0.594354	0.904024
	C207	C	0.903298	0.406958	0.903976
	C208	C	0.101518	0.901352	0.596929
	C209	C	0.100917	0.099948	0.408880
	C210	C	0.901230	0.100636	0.596578
	C211	C	0.901206	0.900733	0.408410
	C212	C	0.595305	0.099398	0.902736
	C213	C	0.408868	0.100708	0.102022
	C214	C	0.595630	0.901000	0.103054
	C215	C	0.409145	0.901319	0.902691
	Zn216	Zn	0.501808	0.000353	0.751546
	Zn217	Zn	0.501752	0.000705	0.253233
	Zn218	Zn	0.752161	0.500428	0.002828
	Zn219	Zn	0.251715	0.501045	0.002868
	Zn220	Zn	0.001449	0.751518	0.503436
	Zn221	Zn	0.001644	0.250639	0.503125
	Zn222	Zn	0.001923	0.500555	0.753586
	Zn223	Zn	0.001565	0.500983	0.252010
	Zn224	Zn	0.502110	0.750329	0.003139
	Zn225	Zn	0.502819	0.251013	0.002835
	Zn226	Zn	0.751003	0.000196	0.502521
	Zn227	Zn	0.251715	0.000669	0.503007
	N228	N	0.416515	0.963351	0.680320
	N229	N	0.586522	0.037661	0.680361
	N230	N	0.586286	0.962701	0.325734
	N231	N	0.415828	0.037701	0.324391
	N232	N	0.681714	0.413998	0.965846
	N233	N	0.681032	0.586345	0.040036
	N234	N	0.323233	0.586812	0.966003
	N235	N	0.323284	0.415185	0.040222
	N236	N	0.964016	0.678532	0.418382
	N237	N	0.039065	0.679116	0.588299
	N238	N	0.963801	0.323818	0.586788
	N239	N	0.038946	0.321646	0.416800
	N240	N	0.964585	0.415575	0.681477
	N241	N	0.039053	0.586246	0.681969
	N242	N	0.964285	0.586526	0.323974
	N243	N	0.039220	0.415585	0.323855
	N244	N	0.416647	0.679264	0.965721
	N245	N	0.585860	0.677112	0.040968
	N246	N	0.587864	0.322367	0.965118
	N247	N	0.417481	0.322832	0.040616
	N248	N	0.679808	0.963145	0.417462
	N249	N	0.680133	0.037010	0.588649
	N250	N	0.323228	0.963664	0.588304
	N251	N	0.323118	0.037853	0.417512
	N252	N	0.916405	0.463465	0.180947
	N253	N	0.087010	0.538208	0.180866
	N254	N	0.087115	0.462962	0.824999
	N255	N	0.917016	0.538212	0.825354
	N256	N	0.181272	0.914021	0.466392
	N257	N	0.179628	0.085832	0.539734
	N258	N	0.822324	0.086342	0.465641
	N259	N	0.822906	0.915290	0.539435
	N260	N	0.464725	0.178880	0.917932
	N261	N	0.539988	0.178162	0.087399
	N262	N	0.464870	0.822759	0.087709
	N263	N	0.539943	0.822247	0.918105
	N264	N	0.464782	0.915496	0.181179
	N265	N	0.538732	0.087168	0.182505
	N266	N	0.464997	0.086622	0.823207
	N267	N	0.539233	0.914313	0.823102
	N268	N	0.916505	0.178683	0.465153
	N269	N	0.086682	0.178869	0.540006
	N270	N	0.086578	0.822959	0.465667
	N271	N	0.916062	0.823061	0.540146
	N272	N	0.181070	0.463702	0.916664
	N273	N	0.179845	0.538347	0.088061
	N274	N	0.823394	0.463463	0.088526
	N275	N	0.823638	0.538031	0.917638
	O276	O	0.093869	-0.002240	0.989566
	H277	H	0.087643	0.000034	0.990529
	H278	H	0.097166	0.000614	0.992372
	O279	O	0.523448	0.395836	0.478631
	H280	H	0.515248	0.403179	0.483298
	H281	H	0.521356	0.389692	0.480837
	O282	O	0.516546	0.402859	0.485870
	H283	H	0.522399	0.408696	0.486239
	H284	H	0.519668	0.389240	0.481608
	O285	O	0.512909	0.443437	0.476764
	H286	H	0.516955	0.447331	0.478404
	H287	H	0.505171	0.443633	0.474078
	O288	O	0.107149	1.008775	-0.029660
	H289	H	0.115471	1.004063	-0.028962
	H290	H	0.103195	1.009784	-0.025386
	O291	O	0.083218	1.024341	0.965181
	H292	H	0.093386	1.022969	0.963481
	H293	H	0.084512	1.020322	0.961099
	O294	O	0.491459	0.427394	0.515458
	H295	H	0.493357	0.428747	0.508232
	H296	H	0.495733	0.418550	0.518692
	O297	O	1.062540	0.013366	-0.013967
	H298	H	1.057058	0.020859	-0.018632
	H299	H	1.065061	0.011678	-0.018213
