data_Molecule from HDF5

_cell_length_a		16.527956
_cell_length_b		16.552978
_cell_length_c		16.453971
_cell_angle_alpha	89.911286
_cell_angle_beta	90.008130
_cell_angle_gamma	90.113024
_symmetry_space_group_name_H-M	'P 1'
_symmetry_Int_Tables_number		1

loop_
	_symmetry_equiv_pos_as_xyz
	x,y,z

loop_
	_atom_site_label
	_atom_site_type_symbol
	_atom_site_fract_x
	_atom_site_fract_y
	_atom_site_fract_z
	H0	H	0.376352	0.852028	0.700668
	H1	H	0.589214	0.165259	0.695980
	H2	H	0.592710	0.851600	0.252799
	H3	H	0.382174	0.163307	0.254039
	H4	H	0.710232	0.400172	0.817314
	H5	H	0.709762	0.613423	0.129715
	H6	H	0.263882	0.615222	0.815889
	H7	H	0.266056	0.403831	0.131317
	H8	H	0.830069	0.731529	0.369302
	H9	H	0.141473	0.734670	0.584515
	H10	H	0.831155	0.282716	0.585705
	H11	H	0.142939	0.289410	0.372233
	H12	H	0.830301	0.401464	0.699071
	H13	H	0.142943	0.616516	0.697664
	H14	H	0.829781	0.614449	0.253125
	H15	H	0.143280	0.406460	0.255891
	H16	H	0.377293	0.732963	0.817885
	H17	H	0.596125	0.732257	0.129065
	H18	H	0.592720	0.285681	0.817490
	H19	H	0.381465	0.287829	0.131598
	H20	H	0.709153	0.852969	0.369608
	H21	H	0.708767	0.164282	0.582858
	H22	H	0.259517	0.852524	0.584638
	H23	H	0.266216	0.164137	0.370771
	H24	H	0.882534	0.351801	0.195437
	H25	H	0.090818	0.668264	0.193304
	H26	H	0.090238	0.352039	0.752608
	H27	H	0.877759	0.665340	0.749950
	H28	H	0.208500	0.901676	0.317641
	H29	H	0.206922	0.113920	0.632587
	H30	H	0.763294	0.114495	0.318778
	H31	H	0.763180	0.901363	0.633859
	H32	H	0.329236	0.229114	0.870755
	H33	H	0.643671	0.229537	0.080981
	H34	H	0.330346	0.783414	0.081078
	H35	H	0.641987	0.783625	0.864477
	H36	H	0.328486	0.902015	0.194916
	H37	H	0.643100	0.112835	0.196729
	H38	H	0.328065	0.112760	0.754229
	H39	H	0.642779	0.901645	0.751146
	H40	H	0.878652	0.231166	0.318502
	H41	H	0.088895	0.228176	0.632946
	H42	H	0.091298	0.787635	0.317102
	H43	H	0.879905	0.785609	0.633206
	H44	H	0.208114	0.352719	0.868127
	H45	H	0.208475	0.667006	0.077645
	H46	H	0.765543	0.351726	0.078498
	H47	H	0.759790	0.663672	0.863883
	H48	H	0.390435	0.120652	0.562697
	H49	H	0.576871	0.896568	0.559908
	H50	H	0.563846	0.115532	0.388455
	H51	H	0.399693	0.894894	0.385362
	H52	H	0.572363	0.423220	0.085059
	H53	H	0.569216	0.596787	0.861778
	H54	H	0.397581	0.597634	0.087208
	H55	H	0.399053	0.419727	0.861710
	H56	H	0.100579	0.600621	0.384927
	H57	H	0.875649	0.599494	0.556651
	H58	H	0.096514	0.425442	0.563774
	H59	H	0.873045	0.420852	0.383476
	H60	H	0.099774	0.416100	0.565030
	H61	H	0.876468	0.591015	0.562243
	H62	H	0.099190	0.599911	0.386343
	H63	H	0.871122	0.416200	0.384736
	H64	H	0.397144	0.592625	0.084992
	H65	H	0.575735	0.595597	0.860777
	H66	H	0.573575	0.413691	0.088326
	H67	H	0.397490	0.416440	0.859743
	H68	H	0.582550	0.120142	0.394714
	H69	H	0.572269	0.895504	0.566071
	H70	H	0.398994	0.120729	0.569553
	H71	H	0.394661	0.894784	0.389372
	H72	H	0.903225	0.620381	0.064893
	H73	H	0.078437	0.397181	0.064324
	H74	H	0.079484	0.622464	0.885565
	H75	H	0.900582	0.396555	0.881863
	H76	H	0.071744	0.916714	0.588266
	H77	H	0.072919	0.091194	0.363961
	H78	H	0.899282	0.100685	0.589087
	H79	H	0.894231	0.922598	0.363733
	H80	H	0.598577	0.093411	0.881763
	H81	H	0.374326	0.095419	0.066769
	H82	H	0.596301	0.922154	0.060799
	H83	H	0.376826	0.920217	0.892874
	H84	H	0.599777	0.920022	0.067183
	H85	H	0.372307	0.101321	0.065030
	H86	H	0.600804	0.102009	0.883717
	H87	H	0.376177	0.923794	0.886410
	H88	H	0.894065	0.097306	0.589052
	H89	H	0.069756	0.103828	0.361940
	H90	H	0.077888	0.923984	0.587971
	H91	H	0.900163	0.922690	0.365940
	H92	H	0.073147	0.621399	0.882312
	H93	H	0.077236	0.396388	0.066378
	H94	H	0.897382	0.619211	0.056373
	H95	H	0.902095	0.401204	0.889755
	H96	H	0.399859	0.116899	0.559304
	H97	H	0.569821	0.899750	0.560211
	H98	H	0.576971	0.124509	0.375737
	H99	H	0.393526	0.892412	0.383135
	H100	H	0.581173	0.419711	0.087430
	H101	H	0.571933	0.590879	0.863836
	H102	H	0.402128	0.594875	0.084218
	H103	H	0.395342	0.419581	0.859591
	H104	H	0.098979	0.599210	0.384386
	H105	H	0.872177	0.599216	0.566168
	H106	H	0.095825	0.418834	0.556415
	H107	H	0.873956	0.419126	0.388426
	H108	H	0.893021	0.623194	0.064721
	H109	H	0.075320	0.397827	0.064109
	H110	H	0.073846	0.619556	0.888964
	H111	H	0.894285	0.397430	0.888081
	H112	H	0.068837	0.925299	0.584497
	H113	H	0.081970	0.099892	0.359262
	H114	H	0.899317	0.094811	0.586689
	H115	H	0.898258	0.917986	0.362444
	H116	H	0.596883	0.096601	0.890096
	H117	H	0.374663	0.097522	0.060617
	H118	H	0.598711	0.915316	0.060992
	H119	H	0.373000	0.916505	0.887286
	C120	C	0.362814	0.016413	0.597833
	C121	C	0.606175	1.000158	0.595864
	C122	C	0.607295	0.016730	0.353630
	C123	C	0.364357	0.997859	0.353619
	C124	C	0.608328	0.386433	-0.017213
	C125	C	0.606970	0.628418	0.965004
	C126	C	0.365599	0.628874	-0.018201
	C127	C	0.365079	0.386835	0.964942
	C128	C	-0.004655	0.631453	0.353065
	C129	C	0.977858	0.630194	0.595706
	C130	C	-0.005826	0.387059	0.596285
	C131	C	0.976942	0.387505	0.353901
	C132	C	0.865241	0.517426	0.095070
	C133	C	0.108804	0.501197	0.096201
	C134	C	0.107468	0.517502	0.852715
	C135	C	0.864571	0.501105	0.852420
	C136	C	0.106412	0.888204	0.483257
	C137	C	0.106511	0.129658	0.466431
	C138	C	0.864044	0.130627	0.484643
	C139	C	0.864799	0.887943	0.468128
	C140	C	0.494392	0.129375	0.853921
	C141	C	0.477853	0.129618	0.096089
	C142	C	0.494872	0.885675	0.095906
	C143	C	0.477924	0.886674	0.853620
	C144	C	0.358779	0.899042	0.660159
	C145	C	0.608288	0.118104	0.656477
	C146	C	0.610812	0.898898	0.292960
	C147	C	0.363023	0.116232	0.293774
	C148	C	0.669441	0.382973	0.864540
	C149	C	0.668929	0.631782	0.082920
	C150	C	0.304226	0.632887	0.863519
	C151	C	0.305296	0.385291	0.083545
	C152	C	0.876857	0.691229	0.350804
	C153	C	0.095117	0.692856	0.600520
	C154	C	0.877607	0.324391	0.602076
	C155	C	0.095595	0.328795	0.352776
	C156	C	0.877241	0.383448	0.658557
	C157	C	0.095699	0.634008	0.657095
	C158	C	0.876903	0.633289	0.293046
	C159	C	0.095926	0.387156	0.295219
	C160	C	0.361048	0.691292	0.864132
	C161	C	0.612335	0.690552	0.082436
	C162	C	0.611091	0.325978	0.864520
	C163	C	0.363023	0.327628	0.083988
	C164	C	0.668899	0.899579	0.350707
	C165	C	0.667676	0.117642	0.600131
	C166	C	0.300842	0.899215	0.602087
	C167	C	0.305523	0.116510	0.351886
	C168	C	0.863549	0.399114	0.155411
	C169	C	0.109632	0.620534	0.154109
	C170	C	0.109158	0.399416	0.792379
	C171	C	0.860336	0.618183	0.790444
	C172	C	0.167850	0.884242	0.364893
	C173	C	0.166687	0.131852	0.585011
	C174	C	0.803322	0.133101	0.366114
	C175	C	0.804057	0.884610	0.586717
	C176	C	0.376198	0.189355	0.851997
	C177	C	0.596386	0.189445	0.098730
	C178	C	0.377280	0.824201	0.098936
	C179	C	0.595131	0.824597	0.847838
	C180	C	0.376177	0.883425	0.155517
	C181	C	0.596209	0.131088	0.156231
	C182	C	0.375585	0.131125	0.794489
	C183	C	0.595653	0.883525	0.791294
	C184	C	0.860537	0.191226	0.366022
	C185	C	0.108191	0.188917	0.585341
	C186	C	0.109400	0.827304	0.364822
	C187	C	0.861656	0.826541	0.586219
	C188	C	0.167742	0.399606	0.849698
	C189	C	0.168292	0.619972	0.096623
	C190	C	0.805732	0.398877	0.096965
	C191	C	0.801343	0.617302	0.847127
	C192	C	0.388900	0.098097	0.571485
	C193	C	0.580363	0.918317	0.569689
	C194	C	0.581686	0.098624	0.378938
	C195	C	0.388851	0.915398	0.378708
	C196	C	0.582896	0.411611	0.065295
	C197	C	0.579998	0.602037	0.883387
	C198	C	0.391705	0.602541	0.063986
	C199	C	0.390235	0.411416	0.881889
	C200	C	0.077799	0.606991	0.378041
	C201	C	0.896032	0.604222	0.569343
	C202	C	0.076207	0.412867	0.569459
	C203	C	0.894251	0.411797	0.378634
	C204	C	0.890537	0.599458	0.069283
	C205	C	0.084168	0.418665	0.072075
	C206	C	0.082576	0.599579	0.878392
	C207	C	0.891210	0.419556	0.879005
	C208	C	0.080340	0.914418	0.565400
	C209	C	0.081890	0.105160	0.383255
	C210	C	0.890040	0.104849	0.566867
	C211	C	0.890276	0.913654	0.385679
	C212	C	0.577093	0.104556	0.878279
	C213	C	0.395217	0.105171	0.071104
	C214	C	0.576951	0.911653	0.070399
	C215	C	0.396586	0.912763	0.880954
	Zn216	Zn	0.485609	0.007715	0.725130
	Zn217	Zn	0.486251	0.007308	0.224714
	Zn218	Zn	0.735909	0.508442	-0.026701
	Zn219	Zn	0.236744	0.509277	-0.026459
	Zn220	Zn	-0.014404	0.759112	0.475640
	Zn221	Zn	-0.014687	0.258385	0.475428
	Zn222	Zn	-0.013901	0.509481	0.723878
	Zn223	Zn	-0.013440	0.509806	0.224861
	Zn224	Zn	0.486480	0.757136	-0.026479
	Zn225	Zn	0.487099	0.258461	-0.025021
	Zn226	Zn	0.736152	0.008597	0.475860
	Zn227	Zn	0.235572	0.008011	0.475095
	N228	N	0.396647	0.973041	0.657597
	N229	N	0.570666	0.044046	0.653753
	N230	N	0.573540	0.972863	0.294503
	N231	N	0.398690	0.041390	0.294548
	N232	N	0.667826	0.419848	0.939296
	N233	N	0.665640	0.593720	0.008924
	N234	N	0.307169	0.594576	0.937602
	N235	N	0.306317	0.421319	0.008387
	N236	N	0.951741	0.690709	0.387168
	N237	N	0.020797	0.690553	0.562914
	N238	N	0.951324	0.326914	0.563730
	N239	N	0.020406	0.328607	0.388207
	N240	N	0.950784	0.421946	0.654918
	N241	N	0.021803	0.595914	0.654312
	N242	N	0.951402	0.597101	0.294375
	N243	N	0.021019	0.422814	0.295507
	N244	N	0.398514	0.689016	0.938730
	N245	N	0.574912	0.688768	0.007955
	N246	N	0.574007	0.327754	0.939108
	N247	N	0.399356	0.328166	0.008938
	N248	N	0.667099	0.973878	0.387705
	N249	N	0.666506	0.043328	0.563256
	N250	N	0.303095	0.973162	0.564245
	N251	N	0.305978	0.041754	0.388308
	N252	N	0.899843	0.473832	0.154441
	N253	N	0.073421	0.545715	0.154090
	N254	N	0.072674	0.473779	0.793993
	N255	N	0.899029	0.544869	0.793798
	N256	N	0.166285	0.921230	0.439553
	N257	N	0.165908	0.095745	0.509872
	N258	N	0.805400	0.096038	0.440774
	N259	N	0.805779	0.921818	0.511988
	N260	N	0.451167	0.188520	0.888040
	N261	N	0.521732	0.188655	0.062115
	N262	N	0.452051	0.825421	0.062748
	N263	N	0.521195	0.826531	0.885983
	N264	N	0.450544	0.920844	0.154030
	N265	N	0.521516	0.094593	0.154859
	N266	N	0.450155	0.094703	0.795218
	N267	N	0.521726	0.921356	0.794754
	N268	N	0.897510	0.189834	0.440780
	N269	N	0.071699	0.187789	0.510342
	N270	N	0.071919	0.829440	0.439476
	N271	N	0.898781	0.828539	0.511603
	N272	N	0.166972	0.474075	0.886336
	N273	N	0.168031	0.544725	0.061442
	N274	N	0.806516	0.473486	0.060426
	N275	N	0.803878	0.543291	0.884960
	O276	O	0.614336	0.546731	0.272197
	H277	H	0.632469	0.531294	0.278880
	H278	H	0.608732	0.527086	0.280466
	O279	O	0.561184	0.442366	0.683554
	H280	H	0.551113	0.456418	0.687444
	H281	H	0.539280	0.424949	0.679961
	O282	O	1.273357	0.533828	0.258200
	H283	H	1.291068	0.565644	0.268977
	H284	H	1.240757	0.543071	0.227524
	O285	O	0.968958	-0.189588	0.968182
	H286	H	0.942677	-0.193541	0.978182
	H287	H	0.975459	-0.183508	0.989828
	O288	O	0.134057	0.133778	-0.130020
	H289	H	0.120613	0.119134	-0.120492
	H290	H	0.121275	0.126057	-0.121945
	O291	O	1.270762	1.566012	0.541901
	H292	H	1.276435	1.550748	0.542035
	H293	H	1.266102	1.592811	0.538621
	O294	O	0.192992	1.208524	0.006490
	H295	H	0.211309	1.221528	-0.000933
	H296	H	0.187550	1.196287	0.006584
	O297	O	1.193010	-0.015367	-0.017250
	H298	H	1.198005	-0.001445	-0.008608
	H299	H	1.197185	-0.005644	-0.021683
	O300	O	0.052683	0.919009	1.075675
	H301	H	0.053893	0.935462	1.077963
	H302	H	0.061609	0.924226	1.086359
	O303	O	0.427943	0.301876	0.397543
	H304	H	0.452204	0.295197	0.414788
	H305	H	0.416386	0.300105	0.410539
	O306	O	0.201596	0.966949	0.771579
	H307	H	0.193411	0.921004	0.784092
	H308	H	0.230817	0.964272	0.742845
	O309	O	0.012925	0.221948	0.185914
	H310	H	0.019196	0.226046	0.192459
	H311	H	0.025982	0.228785	0.203678
	O312	O	0.382647	0.502003	0.441999
	H313	H	0.377409	0.505719	0.446473
	H314	H	0.379316	0.481747	0.437050
	O315	O	-0.220346	-0.198705	0.996367
	H316	H	-0.250405	-0.217890	1.003613
	H317	H	-0.221681	-0.175195	1.014274
	O318	O	0.175214	0.816269	-0.025883
	H319	H	0.176577	0.826864	-0.011813
	H320	H	0.175358	0.822654	-0.013062
	O321	O	0.490482	0.504780	0.262961
	H322	H	0.480117	0.515684	0.266367
	H323	H	0.494397	0.504987	0.267189
	O324	O	0.183100	0.205065	0.178609
	H325	H	0.206779	0.224301	0.199035
	H326	H	0.176792	0.219120	0.155595
	O327	O	1.201300	0.036976	1.193029
	H328	H	1.210459	0.055498	1.206933
	H329	H	1.212901	0.061452	1.205081
	O330	O	1.001153	0.106421	-0.133195
	H331	H	1.003904	0.089048	-0.133864
	H332	H	1.007868	0.110801	-0.138009
	O333	O	0.710985	0.360005	1.491933
	H334	H	0.709664	0.362941	1.478936
	H335	H	0.720663	0.361627	1.485176
	O336	O	0.885767	0.146768	0.895718
	H337	H	0.893012	0.139662	0.870742
	H338	H	0.869972	0.145583	0.883702
	O339	O	0.684229	0.314332	1.274724
	H340	H	0.641361	0.313367	1.264801
	H341	H	0.703608	0.287862	1.280064
	O342	O	0.691034	0.715408	0.494376
	H343	H	0.685187	0.718250	0.478456
	H344	H	0.705882	0.719951	0.483548
	O345	O	0.079960	0.024203	-0.046781
	H346	H	0.059821	0.022252	-0.054101
	H347	H	0.088700	0.014172	-0.061695
	O348	O	0.789545	0.198929	0.788745
	H349	H	0.791817	0.199057	0.789367
	H350	H	0.799918	0.202008	0.783543
	O351	O	0.972504	0.938289	0.789567
	H352	H	0.963674	0.916726	0.792922
	H353	H	0.968679	0.941738	0.784976
	O354	O	0.291407	0.317293	0.671377
	H355	H	0.303035	0.340571	0.662821
	H356	H	0.262584	0.315647	0.698328
	O357	O	1.009260	1.046083	1.136014
	H358	H	1.013732	1.040238	1.135092
	H359	H	1.003925	1.046115	1.130833
	O360	O	0.292979	0.312356	0.282102
	H361	H	0.315143	0.319308	0.309825
	H362	H	0.305515	0.337672	0.293368
	O363	O	0.828117	0.031887	1.162495
	H364	H	0.841377	0.025126	1.167984
	H365	H	0.814165	0.027919	1.166884
	O366	O	1.272524	-0.708158	1.505414
	H367	H	1.256542	-0.711665	1.520068
	H368	H	1.269933	-0.717294	1.523407
	O369	O	0.439076	0.553237	0.697016
	H370	H	0.442058	0.558065	0.694699
	H371	H	0.441510	0.574115	0.701814
	O372	O	0.612956	0.490744	0.328354
	H373	H	0.603499	0.459736	0.332960
	H374	H	0.623463	0.480053	0.311631
	O375	O	-0.213412	1.030779	0.772577
	H376	H	-0.218716	1.034456	0.761349
	H377	H	-0.205354	1.039210	0.767230
	O378	O	0.458033	0.719386	0.263542
	H379	H	0.454968	0.714083	0.249306
	H380	H	0.469641	0.721572	0.242424
	O381	O	0.863618	0.132683	-0.021595
	H382	H	0.872968	0.125081	-0.019981
	H383	H	0.856568	0.152536	-0.026729
	O384	O	-0.297103	-0.602115	1.481781
	H385	H	-0.295510	-0.601365	1.492817
	H386	H	-0.282054	-0.612917	1.477035
	O387	O	-0.724385	1.482088	0.688032
	H388	H	-0.738645	1.476441	0.712280
	H389	H	-0.718868	1.506918	0.680368
	O390	O	-0.016335	-0.169290	0.771850
	H391	H	-0.033029	-0.187561	0.773054
	H392	H	-0.026699	-0.191218	0.777501
	O393	O	0.775264	0.998570	0.061255
	H394	H	0.762305	0.997919	0.082877
	H395	H	0.780568	1.014792	0.056315
	O396	O	0.857064	0.208779	1.104767
	H397	H	0.847118	0.199216	1.087809
	H398	H	0.877595	0.195387	1.106983
	O399	O	0.970500	1.179640	0.805561
	H400	H	0.973883	1.185512	0.797592
	H401	H	0.976889	1.169516	0.816164
	O402	O	-0.225297	-0.043251	0.922547
	H403	H	-0.231882	-0.049651	0.906931
	H404	H	-0.224263	-0.016092	0.934676
	O405	O	0.301617	-0.308932	0.292901
	H406	H	0.334878	-0.298762	0.279893
	H407	H	0.293632	-0.305510	0.339770
	O408	O	0.567225	1.565426	1.426038
	H409	H	0.551571	1.561203	1.442566
	H410	H	0.556658	1.545290	1.430134
	O411	O	0.456013	0.293105	0.687925
	H412	H	0.423900	0.296127	0.685403
	H413	H	0.461179	0.268927	0.708323
	O414	O	0.271462	0.718252	0.454980
	H415	H	0.290780	0.725522	0.473517
	H416	H	0.258010	0.741622	0.461381
	O417	O	1.083490	0.934786	0.145385
	H418	H	1.093222	0.957712	0.145541
	H419	H	1.080947	0.951499	0.129853
	O420	O	0.414023	0.719763	0.547204
	H421	H	0.432291	0.718979	0.571618
	H422	H	0.438206	0.722577	0.541824
	O423	O	0.700434	1.723618	0.267649
	H424	H	0.693635	1.693620	0.279462
	H425	H	0.711491	1.723418	0.260259
	O426	O	0.865320	0.814897	1.078028
	H427	H	0.878838	0.811973	1.097792
	H428	H	0.882079	0.822829	1.069869
	O429	O	0.522399	0.291831	0.514079
	H430	H	0.516255	0.290274	0.536619
	H431	H	0.544866	0.290822	0.512522
	O432	O	0.929882	-0.176023	1.189568
	H433	H	0.936079	-0.191710	1.218881
	H434	H	0.945781	-0.157104	1.192210
	O435	O	-0.329624	-0.302054	-0.338140
	H436	H	-0.316721	-0.337009	-0.331413
	H437	H	-0.315194	-0.296668	-0.376118
	O438	O	0.924235	-0.089039	0.922968
	H439	H	0.925441	-0.071914	0.907649
	H440	H	0.905978	-0.099242	0.936867
	O441	O	0.622887	0.371264	0.613600
	H442	H	0.602873	0.377238	0.597587
	H443	H	0.630732	0.381115	0.604843
	O444	O	0.506180	1.724103	0.690172
	H445	H	0.533771	1.731858	0.702161
	H446	H	0.532766	1.731448	0.702163
	O447	O	1.167907	0.825037	-0.210679
	H448	H	1.176758	0.815319	-0.161109
	H449	H	1.120384	0.814813	-0.218463
	O450	O	0.350656	0.450940	0.329636
	H451	H	0.351080	0.476303	0.353228
	H452	H	0.348548	0.462417	0.309578
	O453	O	0.680231	0.528427	0.615779
	H454	H	0.692239	0.519681	0.642825
	H455	H	0.662599	0.517163	0.615896
	O456	O	1.030361	0.229016	-0.059239
	H457	H	1.022370	0.237185	-0.046383
	H458	H	1.050452	0.217543	-0.052375
	O459	O	0.527496	0.726775	0.430683
	H460	H	0.531595	0.719016	0.432653
	H461	H	0.514263	0.728962	0.405910
	O462	O	0.526592	0.307022	0.286825
	H463	H	0.508934	0.325365	0.289282
	H464	H	0.516730	0.300517	0.277420
	O465	O	0.584889	-0.446950	-0.488675
	H466	H	0.585175	-0.434801	-0.490777
	H467	H	0.576998	-0.449440	-0.494778
