data_Molecule from HDF5

_cell_length_a		16.303306
_cell_length_b		16.361345
_cell_length_c		16.312193
_cell_angle_alpha	90.218868
_cell_angle_beta	90.000602
_cell_angle_gamma	89.850402
_symmetry_space_group_name_H-M	'P 1'
_symmetry_Int_Tables_number		1

loop_
	_symmetry_equiv_pos_as_xyz
	x,y,z

loop_
	_atom_site_label
	_atom_site_type_symbol
	_atom_site_fract_x
	_atom_site_fract_y
	_atom_site_fract_z
	H0	H	0.397472	0.844967	0.716889
	H1	H	0.593173	0.170686	0.719579
	H2	H	0.593408	0.844643	0.288642
	H3	H	0.395776	0.171534	0.290503
	H4	H	0.709082	0.410221	0.839333
	H5	H	0.709222	0.607453	0.167047
	H6	H	0.281632	0.605428	0.839658
	H7	H	0.280885	0.412224	0.167443
	H8	H	0.831482	0.723254	0.405842
	H9	H	0.158862	0.722336	0.602103
	H10	H	0.831743	0.294797	0.601256
	H11	H	0.158366	0.291907	0.403526
	H12	H	0.830709	0.411980	0.716335
	H13	H	0.159074	0.605317	0.717687
	H14	H	0.831314	0.607078	0.289885
	H15	H	0.158950	0.409446	0.288554
	H16	H	0.396809	0.722545	0.840132
	H17	H	0.592657	0.723418	0.166591
	H18	H	0.594987	0.291789	0.840108
	H19	H	0.396212	0.295226	0.167446
	H20	H	0.710525	0.844925	0.404592
	H21	H	0.708499	0.171490	0.602606
	H22	H	0.280834	0.844971	0.600668
	H23	H	0.279265	0.171202	0.406862
	H24	H	0.897198	0.344820	0.218211
	H25	H	0.092725	0.671909	0.218694
	H26	H	0.092534	0.345159	0.789123
	H27	H	0.896057	0.671530	0.789644
	H28	H	0.207489	0.910669	0.339828
	H29	H	0.208315	0.105922	0.667266
	H30	H	0.780330	0.105921	0.339273
	H31	H	0.781319	0.912214	0.667052
	H32	H	0.331782	0.223834	0.905563
	H33	H	0.659109	0.222352	0.102278
	H34	H	0.331300	0.795620	0.099795
	H35	H	0.658337	0.793822	0.904410
	H36	H	0.330567	0.912028	0.215646
	H37	H	0.658248	0.106098	0.219200
	H38	H	0.331105	0.107632	0.788983
	H39	H	0.658083	0.910275	0.788907
	H40	H	0.897210	0.222512	0.339754
	H41	H	0.092127	0.222346	0.667116
	H42	H	0.093748	0.791911	0.340837
	H43	H	0.896880	0.795296	0.667329
	H44	H	0.210739	0.345383	0.904661
	H45	H	0.209591	0.671580	0.102827
	H46	H	0.779958	0.345083	0.102077
	H47	H	0.780212	0.671212	0.906548
	H48	H	0.403082	0.122044	0.592466
	H49	H	0.586485	0.892251	0.600264
	H50	H	0.589221	0.124707	0.408453
	H51	H	0.395551	0.889344	0.405322
	H52	H	0.582881	0.416211	0.117688
	H53	H	0.595603	0.606541	0.883320
	H54	H	0.400349	0.609600	0.122114
	H55	H	0.404946	0.413681	0.888040
	H56	H	0.114208	0.610456	0.407248
	H57	H	0.877606	0.609509	0.594215
	H58	H	0.112687	0.413320	0.598204
	H59	H	0.877081	0.412214	0.405443
	H60	H	0.110983	0.414057	0.594508
	H61	H	0.881786	0.597571	0.591832
	H62	H	0.107461	0.599732	0.421277
	H63	H	0.881430	0.412588	0.417562
	H64	H	0.396465	0.598764	0.119677
	H65	H	0.588921	0.592067	0.889541
	H66	H	0.589596	0.411721	0.120516
	H67	H	0.400288	0.415073	0.887681
	H68	H	0.583790	0.122114	0.410788
	H69	H	0.586635	0.894845	0.592190
	H70	H	0.397177	0.125211	0.597753
	H71	H	0.407803	0.893412	0.405859
	H72	H	0.904692	0.622172	0.096921
	H73	H	0.083493	0.394575	0.096272
	H74	H	0.096398	0.628251	0.906051
	H75	H	0.905336	0.396111	0.918732
	H76	H	0.092542	0.911923	0.622499
	H77	H	0.081375	0.110981	0.386131
	H78	H	0.899494	0.101216	0.619727
	H79	H	0.908113	0.914169	0.388751
	H80	H	0.607312	0.094667	0.915746
	H81	H	0.382236	0.100404	0.089222
	H82	H	0.609307	0.919018	0.093413
	H83	H	0.376305	0.906931	0.907815
	H84	H	0.612447	0.916411	0.101807
	H85	H	0.378762	0.096954	0.104466
	H86	H	0.611803	0.099179	0.904632
	H87	H	0.381365	0.917254	0.918070
	H88	H	0.902864	0.102262	0.618478
	H89	H	0.098757	0.099896	0.384785
	H90	H	0.089319	0.919973	0.618961
	H91	H	0.900172	0.909913	0.385399
	H92	H	0.080166	0.623860	0.904944
	H93	H	0.090934	0.393771	0.091829
	H94	H	0.899595	0.622792	0.094652
	H95	H	0.893548	0.389562	0.907950
	H96	H	0.404396	0.123717	0.600464
	H97	H	0.593107	0.891525	0.596104
	H98	H	0.588877	0.122671	0.414171
	H99	H	0.399907	0.894408	0.416416
	H100	H	0.590385	0.419992	0.118014
	H101	H	0.579544	0.606011	0.888858
	H102	H	0.407459	0.601544	0.116783
	H103	H	0.403517	0.417939	0.889185
	H104	H	0.110303	0.592449	0.403931
	H105	H	0.877748	0.601010	0.603746
	H106	H	0.110426	0.417544	0.597297
	H107	H	0.881652	0.422779	0.410890
	H108	H	0.900669	0.625244	0.099809
	H109	H	0.090444	0.391490	0.100045
	H110	H	0.088581	0.621445	0.919682
	H111	H	0.909275	0.392693	0.902385
	H112	H	0.083897	0.912816	0.619407
	H113	H	0.081745	0.091310	0.392390
	H114	H	0.900519	0.105327	0.619748
	H115	H	0.899603	0.920025	0.388154
	H116	H	0.611723	0.106784	0.914820
	H117	H	0.375647	0.112101	0.098872
	H118	H	0.612185	0.909961	0.094570
	H119	H	0.378053	0.921748	0.903790
	C120	C	0.373552	0.016190	0.624871
	C121	C	0.616722	1.000118	0.625165
	C122	C	0.616405	0.015814	0.382294
	C123	C	0.372687	1.000025	0.381521
	C124	C	0.616462	0.386839	0.011134
	C125	C	0.616666	0.630282	0.995174
	C126	C	0.373296	0.630804	0.011534
	C127	C	0.374039	0.387480	0.995885
	C128	C	0.002850	0.629803	0.382422
	C129	C	0.987076	0.630657	0.625461
	C130	C	0.003139	0.387471	0.624497
	C131	C	0.987524	0.386825	0.381985
	C132	C	0.873117	0.515913	0.125314
	C133	C	0.116598	0.500927	0.125347
	C134	C	0.116828	0.516419	0.881629
	C135	C	0.873893	0.500386	0.882089
	C136	C	0.116346	0.886471	0.512131
	C137	C	0.115908	0.129649	0.495463
	C138	C	0.872544	0.130893	0.511362
	C139	C	0.874090	0.886950	0.495260
	C140	C	0.502685	0.129543	0.882532
	C141	C	0.487043	0.130894	0.125977
	C142	C	0.502890	0.887468	0.124277
	C143	C	0.486550	0.886881	0.881584
	C144	C	0.376706	0.893514	0.678956
	C145	C	0.613399	0.122501	0.680962
	C146	C	0.614176	0.893273	0.326650
	C147	C	0.375217	0.122703	0.327850
	C148	C	0.671284	0.389448	0.888093
	C149	C	0.671240	0.627492	0.118095
	C150	C	0.318767	0.626840	0.888627
	C151	C	0.318805	0.391045	0.118813
	C152	C	0.880130	0.685253	0.385602
	C153	C	0.110000	0.684673	0.622838
	C154	C	0.880161	0.332826	0.621560
	C155	C	0.109978	0.330374	0.383289
	C156	C	0.879734	0.390952	0.678901
	C157	C	0.109928	0.626902	0.680504
	C158	C	0.880005	0.627428	0.327747
	C159	C	0.110011	0.388601	0.326202
	C160	C	0.375942	0.684975	0.888714
	C161	C	0.613610	0.685340	0.118087
	C162	C	0.615002	0.330465	0.888635
	C163	C	0.375970	0.332735	0.118660
	C164	C	0.672258	0.893344	0.384273
	C165	C	0.671075	0.122762	0.622957
	C166	C	0.318586	0.893613	0.621690
	C167	C	0.317380	0.122643	0.385744
	C168	C	0.876108	0.393469	0.180507
	C169	C	0.113405	0.623223	0.180946
	C170	C	0.113997	0.393844	0.826793
	C171	C	0.875873	0.623025	0.827641
	C172	C	0.170276	0.889559	0.388682
	C173	C	0.170572	0.126782	0.618542
	C174	C	0.817665	0.127500	0.388350
	C175	C	0.819118	0.891005	0.618559
	C176	C	0.380173	0.185410	0.885146
	C177	C	0.609976	0.185096	0.123033
	C178	C	0.379903	0.833354	0.120766
	C179	C	0.609634	0.831730	0.883935
	C180	C	0.379681	0.891182	0.178412
	C181	C	0.609881	0.127068	0.180772
	C182	C	0.379932	0.127552	0.827328
	C183	C	0.609525	0.889582	0.826613
	C184	C	0.875783	0.185198	0.388502
	C185	C	0.113126	0.184720	0.618274
	C186	C	0.113554	0.831001	0.389102
	C187	C	0.876606	0.833022	0.618629
	C188	C	0.172258	0.393983	0.884547
	C189	C	0.171256	0.623147	0.123162
	C190	C	0.818125	0.393464	0.122613
	C191	C	0.818650	0.622934	0.885871
	C192	C	0.395183	0.101665	0.603325
	C193	C	0.595076	0.914796	0.602849
	C194	C	0.593852	0.101056	0.404649
	C195	C	0.394715	0.914295	0.402887
	C196	C	0.594176	0.409235	0.096636
	C197	C	0.594562	0.608090	0.909361
	C198	C	0.395125	0.609652	0.097508
	C199	C	0.396334	0.409271	0.910392
	C200	C	0.088767	0.607344	0.404419
	C201	C	0.901223	0.608959	0.603174
	C202	C	0.089047	0.408708	0.603030
	C203	C	0.902324	0.409273	0.404714
	C204	C	0.895138	0.601355	0.103463
	C205	C	0.094862	0.415227	0.102709
	C206	C	0.094753	0.602232	0.903620
	C207	C	0.896120	0.414830	0.903534
	C208	C	0.095000	0.908429	0.598025
	C209	C	0.093621	0.107325	0.409687
	C210	C	0.894454	0.109310	0.597248
	C211	C	0.896071	0.908444	0.409731
	C212	C	0.588279	0.106741	0.904822
	C213	C	0.401163	0.109497	0.104045
	C214	C	0.589162	0.908806	0.102712
	C215	C	0.400727	0.908902	0.903439
	Zn216	Zn	0.494530	0.008120	0.753659
	Zn217	Zn	0.494589	0.008279	0.253418
	Zn218	Zn	0.744715	0.508189	0.003273
	Zn219	Zn	0.245518	0.509021	0.003600
	Zn220	Zn	-0.004713	0.758503	0.504266
	Zn221	Zn	-0.004606	0.258693	0.503235
	Zn222	Zn	-0.005041	0.508392	0.753094
	Zn223	Zn	-0.005019	0.508063	0.253574
	Zn224	Zn	0.495496	0.758721	0.002931
	Zn225	Zn	0.495168	0.258746	0.003546
	Zn226	Zn	0.745158	0.008051	0.503383
	Zn227	Zn	0.244279	0.007996	0.503653
	N228	N	0.410180	0.970672	0.681066
	N229	N	0.580056	0.045368	0.682204
	N230	N	0.580094	0.970341	0.325192
	N231	N	0.409051	0.045576	0.325500
	N232	N	0.672405	0.423758	0.965155
	N233	N	0.673175	0.593932	0.040617
	N234	N	0.317045	0.593962	0.966043
	N235	N	0.317563	0.424421	0.041706
	N236	N	0.957666	0.686719	0.418950
	N237	N	0.032573	0.687065	0.589565
	N238	N	0.957760	0.330612	0.588404
	N239	N	0.032936	0.329086	0.417386
	N240	N	0.956986	0.424343	0.680566
	N241	N	0.032325	0.593942	0.682137
	N242	N	0.957278	0.593533	0.325652
	N243	N	0.032951	0.422919	0.325292
	N244	N	0.409289	0.687462	0.966074
	N245	N	0.580207	0.686994	0.040721
	N246	N	0.581262	0.329099	0.965974
	N247	N	0.409893	0.330619	0.041317
	N248	N	0.673504	0.970295	0.418182
	N249	N	0.673215	0.045798	0.589036
	N250	N	0.316392	0.970712	0.588831
	N251	N	0.315637	0.045283	0.418342
	N252	N	0.909289	0.470623	0.182266
	N253	N	0.079918	0.546034	0.182192
	N254	N	0.080239	0.470861	0.825057
	N255	N	0.909636	0.545906	0.825227
	N256	N	0.171971	0.923439	0.466019
	N257	N	0.172342	0.093056	0.541142
	N258	N	0.815637	0.094472	0.465743
	N259	N	0.817691	0.924045	0.541139
	N260	N	0.457407	0.186624	0.918871
	N261	N	0.532505	0.187683	0.089894
	N262	N	0.457595	0.831014	0.087777
	N263	N	0.532212	0.829909	0.917451
	N264	N	0.457261	0.923863	0.180707
	N265	N	0.532353	0.094394	0.182846
	N266	N	0.457132	0.093397	0.825817
	N267	N	0.532238	0.923206	0.825311
	N268	N	0.909180	0.187440	0.465884
	N269	N	0.079868	0.186412	0.540850
	N270	N	0.080945	0.828915	0.466868
	N271	N	0.909778	0.830188	0.541147
	N272	N	0.174142	0.471438	0.917788
	N273	N	0.173246	0.546210	0.089299
	N274	N	0.816155	0.470526	0.089064
	N275	N	0.817229	0.545629	0.918977
	O276	O	1.544682	-0.596104	0.391798
	H277	H	1.552085	-0.596203	0.387066
	H278	H	1.540192	-0.598349	0.387194
	O279	O	0.577255	0.427792	0.407622
	H280	H	0.570515	0.424413	0.404412
	H281	H	0.575610	0.415405	0.397446
	O282	O	0.565265	0.404828	0.400776
	H283	H	0.570814	0.408941	0.404722
	H284	H	0.577239	0.404533	0.402996
	O285	O	0.589345	0.431094	0.411208
	H286	H	0.593902	0.436485	0.406914
	H287	H	0.587909	0.426065	0.420142
