data_Molecule from HDF5

_cell_length_a		16.484705
_cell_length_b		16.386956
_cell_length_c		16.401601
_cell_angle_alpha	89.965498
_cell_angle_beta	90.025692
_cell_angle_gamma	89.929893
_symmetry_space_group_name_H-M	'P 1'
_symmetry_Int_Tables_number		1

loop_
	_symmetry_equiv_pos_as_xyz
	x,y,z

loop_
	_atom_site_label
	_atom_site_type_symbol
	_atom_site_fract_x
	_atom_site_fract_y
	_atom_site_fract_z
	H0	H	0.391847	0.847366	0.721476
	H1	H	0.602877	0.164500	0.720938
	H2	H	0.602292	0.846340	0.279917
	H3	H	0.391927	0.163666	0.275814
	H4	H	0.720133	0.398430	0.841420
	H5	H	0.718793	0.610097	0.157356
	H6	H	0.274090	0.612098	0.841632
	H7	H	0.275348	0.398115	0.156645
	H8	H	0.841049	0.728121	0.395326
	H9	H	0.155864	0.730706	0.607865
	H10	H	0.840901	0.284468	0.606057
	H11	H	0.155659	0.282949	0.391916
	H12	H	0.841488	0.400806	0.722365
	H13	H	0.155467	0.614866	0.724248
	H14	H	0.841128	0.613257	0.276403
	H15	H	0.156363	0.402159	0.277447
	H16	H	0.390071	0.727529	0.840771
	H17	H	0.602093	0.726055	0.157906
	H18	H	0.603955	0.283386	0.841497
	H19	H	0.393631	0.284441	0.158346
	H20	H	0.720915	0.848378	0.393336
	H21	H	0.718490	0.165598	0.605081
	H22	H	0.274919	0.848684	0.607251
	H23	H	0.276664	0.165204	0.392744
	H24	H	0.892474	0.347343	0.220858
	H25	H	0.101312	0.665503	0.216071
	H26	H	0.102826	0.347700	0.777184
	H27	H	0.891773	0.665594	0.777753
	H28	H	0.218952	0.903464	0.341833
	H29	H	0.221365	0.115754	0.657886
	H30	H	0.777962	0.111876	0.339483
	H31	H	0.775727	0.900054	0.656851
	H32	H	0.339472	0.226106	0.895086
	H33	H	0.656748	0.226133	0.103941
	H34	H	0.338705	0.786250	0.101603
	H35	H	0.655618	0.782618	0.892685
	H36	H	0.339849	0.901791	0.218877
	H37	H	0.656672	0.109798	0.220416
	H38	H	0.340254	0.112723	0.776901
	H39	H	0.656882	0.900436	0.778735
	H40	H	0.895713	0.226246	0.338898
	H41	H	0.102777	0.227689	0.659120
	H42	H	0.102243	0.788550	0.340903
	H43	H	0.891952	0.784574	0.657639
	H44	H	0.218332	0.346584	0.892409
	H45	H	0.219898	0.663229	0.104345
	H46	H	0.777578	0.346336	0.105633
	H47	H	0.773436	0.663507	0.890413
	H48	H	0.406510	0.118925	0.583263
	H49	H	0.593600	0.891798	0.584878
	H50	H	0.591054	0.120570	0.409684
	H51	H	0.407579	0.894206	0.414343
	H52	H	0.589522	0.414063	0.114896
	H53	H	0.590952	0.597926	0.882818
	H54	H	0.402839	0.597506	0.115870
	H55	H	0.412258	0.413756	0.886319
	H56	H	0.111395	0.597822	0.407985
	H57	H	0.885511	0.596792	0.589449
	H58	H	0.112019	0.416200	0.591011
	H59	H	0.883775	0.414852	0.407955
	H60	H	0.110557	0.417081	0.582936
	H61	H	0.887777	0.596123	0.584903
	H62	H	0.112437	0.597896	0.408184
	H63	H	0.887359	0.417411	0.414362
	H64	H	0.408032	0.587097	0.109777
	H65	H	0.587839	0.589086	0.887105
	H66	H	0.589397	0.420386	0.112042
	H67	H	0.404660	0.415393	0.884059
	H68	H	0.586707	0.121079	0.406198
	H69	H	0.587147	0.890968	0.594110
	H70	H	0.409743	0.121078	0.592414
	H71	H	0.407611	0.892113	0.409628
	H72	H	0.900499	0.622803	0.091285
	H73	H	0.088522	0.390429	0.087794
	H74	H	0.087775	0.617684	0.916952
	H75	H	0.902282	0.392997	0.917677
	H76	H	0.088875	0.919776	0.614165
	H77	H	0.090555	0.096237	0.384965
	H78	H	0.910609	0.098558	0.612773
	H79	H	0.907654	0.912197	0.383448
	H80	H	0.609921	0.095015	0.914304
	H81	H	0.385483	0.097211	0.087236
	H82	H	0.612802	0.911157	0.090455
	H83	H	0.385549	0.920435	0.908936
	H84	H	0.610372	0.915294	0.084660
	H85	H	0.386887	0.092384	0.086664
	H86	H	0.608818	0.090281	0.910598
	H87	H	0.384057	0.914318	0.907736
	H88	H	0.905277	0.095726	0.613997
	H89	H	0.087062	0.091631	0.388789
	H90	H	0.086073	0.920154	0.613153
	H91	H	0.905343	0.925083	0.387368
	H92	H	0.089414	0.620849	0.909297
	H93	H	0.086326	0.391629	0.088912
	H94	H	0.915150	0.618158	0.091668
	H95	H	0.908950	0.390234	0.902115
	H96	H	0.415616	0.116287	0.586208
	H97	H	0.583264	0.895634	0.584871
	H98	H	0.585801	0.119048	0.411783
	H99	H	0.412196	0.893955	0.411576
	H100	H	0.583685	0.416059	0.111567
	H101	H	0.581599	0.596522	0.886405
	H102	H	0.415293	0.598117	0.111087
	H103	H	0.409424	0.420970	0.887737
	H104	H	0.112148	0.597573	0.408333
	H105	H	0.888049	0.592489	0.588434
	H106	H	0.109017	0.423331	0.588143
	H107	H	0.887317	0.422372	0.408129
	H108	H	0.907274	0.616176	0.078855
	H109	H	0.086714	0.391870	0.086713
	H110	H	0.081603	0.617696	0.911237
	H111	H	0.918295	0.398064	0.914300
	H112	H	0.086590	0.917633	0.614237
	H113	H	0.084386	0.097453	0.387269
	H114	H	0.909711	0.092374	0.610893
	H115	H	0.917955	0.919113	0.389655
	H116	H	0.611059	0.095406	0.908332
	H117	H	0.384277	0.094510	0.091119
	H118	H	0.610775	0.918303	0.091346
	H119	H	0.386096	0.915727	0.913155
	C120	C	0.377239	0.014596	0.620689
	C121	C	0.619668	0.997801	0.620618
	C122	C	0.619766	0.014724	0.377465
	C123	C	0.376824	0.997998	0.378736
	C124	C	0.619723	0.384149	0.008059
	C125	C	0.618980	0.626681	0.990441
	C126	C	0.376021	0.626346	0.007389
	C127	C	0.376487	0.384014	0.990599
	C128	C	0.007582	0.629519	0.376303
	C129	C	0.990550	0.628536	0.621416
	C130	C	0.006730	0.385722	0.620601
	C131	C	0.990225	0.385649	0.377867
	C132	C	0.876246	0.513757	0.120220
	C133	C	0.119221	0.496628	0.119875
	C134	C	0.118779	0.514109	0.878751
	C135	C	0.876891	0.498402	0.878250
	C136	C	0.119720	0.886551	0.508911
	C137	C	0.120317	0.128832	0.491320
	C138	C	0.876480	0.128523	0.507512
	C139	C	0.877193	0.885761	0.490938
	C140	C	0.505921	0.126682	0.878622
	C141	C	0.489675	0.127193	0.120993
	C142	C	0.506580	0.883579	0.120496
	C143	C	0.489404	0.883719	0.877403
	C144	C	0.374128	0.895124	0.681452
	C145	C	0.621405	0.117004	0.681253
	C146	C	0.621313	0.894679	0.318847
	C147	C	0.373614	0.116408	0.316552
	C148	C	0.679807	0.381156	0.888854
	C149	C	0.678803	0.628852	0.109713
	C150	C	0.314923	0.629557	0.888771
	C151	C	0.315823	0.380448	0.109597
	C152	C	0.888643	0.689363	0.375151
	C153	C	0.108655	0.690049	0.625290
	C154	C	0.888263	0.324760	0.623902
	C155	C	0.108764	0.324349	0.374641
	C156	C	0.888483	0.382584	0.681920
	C157	C	0.108556	0.632123	0.683242
	C158	C	0.888691	0.631930	0.316353
	C159	C	0.108999	0.383251	0.317369
	C160	C	0.373205	0.686664	0.888104
	C161	C	0.620790	0.686543	0.110096
	C162	C	0.622194	0.323745	0.888784
	C163	C	0.374749	0.323979	0.110275
	C164	C	0.680423	0.895570	0.375189
	C165	C	0.678969	0.117477	0.623320
	C166	C	0.315934	0.895849	0.624462
	C167	C	0.316642	0.117377	0.375142
	C168	C	0.874210	0.394945	0.180963
	C169	C	0.120641	0.616902	0.178115
	C170	C	0.121213	0.395224	0.817391
	C171	C	0.873800	0.617683	0.817729
	C172	C	0.179400	0.884732	0.389489
	C173	C	0.180984	0.132742	0.610300
	C174	C	0.817905	0.130003	0.387265
	C175	C	0.816083	0.882379	0.609601
	C176	C	0.387101	0.186946	0.876305
	C177	C	0.608991	0.186770	0.122980
	C178	C	0.386520	0.825092	0.121375
	C179	C	0.608231	0.822993	0.874715
	C180	C	0.387286	0.882349	0.179839
	C181	C	0.609076	0.128453	0.180513
	C182	C	0.387649	0.130300	0.817352
	C183	C	0.608845	0.881751	0.817829
	C184	C	0.876456	0.187004	0.386955
	C185	C	0.122014	0.188940	0.610878
	C186	C	0.121011	0.827850	0.388899
	C187	C	0.874191	0.824939	0.609924
	C188	C	0.178835	0.394696	0.874633
	C189	C	0.179880	0.615830	0.122538
	C190	C	0.816964	0.394402	0.123101
	C191	C	0.814838	0.616617	0.874081
	C192	C	0.403319	0.097279	0.594914
	C193	C	0.595120	0.914577	0.595207
	C194	C	0.595053	0.098420	0.401952
	C195	C	0.402082	0.915041	0.404385
	C196	C	0.594587	0.409495	0.091169
	C197	C	0.593961	0.601858	0.907113
	C198	C	0.401422	0.601446	0.090624
	C199	C	0.401424	0.409342	0.907651
	C200	C	0.090401	0.604918	0.400995
	C201	C	0.908523	0.602571	0.595113
	C202	C	0.089109	0.411550	0.594894
	C203	C	0.907599	0.410870	0.402855
	C204	C	0.900685	0.597443	0.094840
	C205	C	0.094306	0.413033	0.095140
	C206	C	0.093674	0.597085	0.904927
	C207	C	0.902396	0.415351	0.903927
	C208	C	0.094552	0.911703	0.592352
	C209	C	0.094643	0.102685	0.408362
	C210	C	0.901290	0.103122	0.590734
	C211	C	0.902878	0.911379	0.408187
	C212	C	0.588436	0.101032	0.903910
	C213	C	0.407065	0.101994	0.095815
	C214	C	0.589508	0.907741	0.095957
	C215	C	0.406917	0.909229	0.902667
	Zn216	Zn	0.497959	0.005732	0.749048
	Zn217	Zn	0.497798	0.005073	0.249443
	Zn218	Zn	0.747722	0.505129	-0.001168
	Zn219	Zn	0.247494	0.504721	-0.000965
	Zn220	Zn	-0.001038	0.757527	0.499931
	Zn221	Zn	-0.001329	0.256441	0.499418
	Zn222	Zn	-0.001387	0.507095	0.750321
	Zn223	Zn	-0.001757	0.506238	0.248210
	Zn224	Zn	0.497274	0.754798	-0.000931
	Zn225	Zn	0.498291	0.256275	-0.000757
	Zn226	Zn	0.748062	0.006986	0.499020
	Zn227	Zn	0.248023	0.007367	0.500587
	N228	N	0.411843	0.969969	0.679077
	N229	N	0.585250	0.041469	0.679637
	N230	N	0.584349	0.969852	0.320116
	N231	N	0.410547	0.041182	0.318698
	N232	N	0.678327	0.417928	0.964056
	N233	N	0.677937	0.592601	0.034222
	N234	N	0.317089	0.592182	0.963750
	N235	N	0.316800	0.417012	0.034226
	N236	N	0.963610	0.688047	0.411537
	N237	N	0.034313	0.688020	0.587438
	N238	N	0.962682	0.326508	0.586442
	N239	N	0.034079	0.325809	0.411569
	N240	N	0.963208	0.419691	0.680096
	N241	N	0.034206	0.594510	0.680813
	N242	N	0.963725	0.595477	0.316661
	N243	N	0.034289	0.420606	0.319195
	N244	N	0.410658	0.684748	0.962869
	N245	N	0.584228	0.685256	0.034788
	N246	N	0.585531	0.325405	0.963993
	N247	N	0.411938	0.326122	0.035382
	N248	N	0.679728	0.971474	0.410643
	N249	N	0.678231	0.042242	0.586427
	N250	N	0.317636	0.971084	0.587619
	N251	N	0.318349	0.042676	0.412932
	N252	N	0.910255	0.470481	0.179311
	N253	N	0.083822	0.541719	0.176710
	N254	N	0.084688	0.470583	0.819843
	N255	N	0.911904	0.543092	0.820290
	N256	N	0.178419	0.920501	0.465311
	N257	N	0.179959	0.096232	0.534899
	N258	N	0.817632	0.094618	0.463259
	N259	N	0.817653	0.919446	0.534497
	N260	N	0.461714	0.185005	0.913542
	N261	N	0.533880	0.186069	0.086596
	N262	N	0.461712	0.825625	0.085297
	N263	N	0.533112	0.823962	0.911065
	N264	N	0.462791	0.917735	0.179575
	N265	N	0.533777	0.092347	0.179670
	N266	N	0.462636	0.093427	0.818503
	N267	N	0.533757	0.918620	0.819039
	N268	N	0.911985	0.186308	0.462892
	N269	N	0.085144	0.186738	0.535604
	N270	N	0.084812	0.828705	0.464275
	N271	N	0.911509	0.826984	0.535209
	N272	N	0.177719	0.469837	0.911819
	N273	N	0.179167	0.539787	0.087146
	N274	N	0.818192	0.469601	0.085885
	N275	N	0.816674	0.541309	0.910914
	O276	O	0.291498	0.304284	0.558561
	H277	H	0.268050	0.286677	0.540074
	H278	H	0.286970	0.329734	0.543827
	O279	O	0.558014	0.561230	0.314268
	H280	H	0.568523	0.559986	0.323488
	H281	H	0.564182	0.572515	0.310078
	O282	O	0.542506	0.613689	0.383282
	H283	H	0.530310	0.594524	0.392470
	H284	H	0.559958	0.616589	0.399675
	O285	O	0.863939	0.874999	0.204777
	H286	H	0.858093	0.859810	0.203853
	H287	H	0.851969	0.862379	0.220865
	O288	O	0.703120	0.492425	0.296984
	H289	H	0.715763	0.509860	0.326354
	H290	H	0.731818	0.494409	0.291832
	O291	O	0.315048	0.597792	0.548991
	H292	H	0.333035	0.604624	0.536891
	H293	H	0.308429	0.615334	0.537960
	O294	O	1.044878	0.900569	0.992337
	H295	H	1.046088	0.902533	0.986320
	H296	H	1.047178	0.918053	0.993950
	O297	O	0.684880	0.692020	0.500979
	H298	H	0.675216	0.694428	0.538056
	H299	H	0.691406	0.713737	0.502086
	O300	O	-0.036508	0.037034	0.070457
	H301	H	-0.040488	0.028217	0.069444
	H302	H	-0.040053	0.035631	0.079530
	O303	O	0.519814	0.298861	0.296445
	H304	H	0.502983	0.283285	0.288251
	H305	H	0.506047	0.293591	0.309147
	O306	O	-0.082022	0.011798	1.123873
	H307	H	-0.084568	0.021241	1.130675
	H308	H	-0.093638	0.012782	1.116445
	O309	O	1.065973	0.190776	0.024848
	H310	H	1.069334	0.192518	0.012811
	H311	H	1.076638	0.198009	0.038311
	O312	O	0.500138	0.715866	0.489649
	H313	H	0.487196	0.712867	0.507524
	H314	H	0.487887	0.729038	0.491641
	O315	O	0.299662	0.723782	0.454900
	H316	H	0.269797	0.756552	0.451221
	H317	H	0.312358	0.714805	0.414009
	O318	O	0.491548	-0.533334	0.455930
	H319	H	0.497792	-0.534816	0.449691
	H320	H	0.482898	-0.545269	0.452736
	O321	O	0.553037	0.710593	0.698207
	H322	H	0.552470	0.718212	0.722404
	H323	H	0.536585	0.693190	0.699094
	O324	O	1.010087	0.041444	0.869908
	H325	H	1.006910	0.066660	0.873079
	H326	H	1.014515	0.041582	0.873787
	O327	O	0.704327	0.535088	0.705640
	H328	H	0.716623	0.517315	0.704834
	H329	H	0.698059	0.514154	0.710929
	O330	O	0.087539	0.876679	1.103700
	H331	H	0.098783	0.870545	1.098546
	H332	H	0.081637	0.874610	1.112458
	O333	O	0.394857	0.536777	-0.333828
	H334	H	0.391375	0.540015	-0.349328
	H335	H	0.400669	0.528631	-0.329430
	O336	O	1.078258	0.906087	0.107565
	H337	H	1.075095	0.896601	0.102230
	H338	H	1.070366	0.908547	0.098560
	O339	O	0.043114	1.151691	1.050450
	H340	H	0.040932	1.148485	1.056616
	H341	H	0.051303	1.149091	1.039850
	O342	O	0.286445	0.479737	0.346821
	H343	H	0.276326	0.497384	0.327209
	H344	H	0.283464	0.474343	0.350961
	O345	O	-0.107130	0.130303	0.862841
	H346	H	-0.114066	0.123522	0.874961
	H347	H	-0.112162	0.146230	0.847629
	O348	O	0.308696	0.688830	0.310500
	H349	H	0.320232	0.670041	0.303242
	H350	H	0.332197	0.696795	0.293533
	O351	O	1.135955	1.171815	0.113773
	H352	H	1.143048	1.158149	0.119424
	H353	H	1.130734	1.176015	0.101344
	O354	O	0.319799	0.423424	1.693173
	H355	H	0.297883	0.416130	1.683887
	H356	H	0.333859	0.449488	1.694080
	O357	O	0.047448	-0.120365	-0.112385
	H358	H	0.042210	-0.118717	-0.095117
	H359	H	0.020449	-0.118176	-0.120329
	O360	O	0.378452	0.535274	0.711192
	H361	H	0.371121	0.539838	0.697294
	H362	H	0.380125	0.525500	0.715207
	O363	O	0.963639	-0.153849	0.005590
	H364	H	0.979586	-0.144206	0.003709
	H365	H	0.943779	-0.173544	-0.012277
	O366	O	-0.044700	-0.178087	1.075964
	H367	H	-0.051751	-0.173216	1.079118
	H368	H	-0.033437	-0.178531	1.079903
	O369	O	0.961915	-0.107713	0.890083
	H370	H	0.946813	-0.111979	0.886567
	H371	H	0.965248	-0.093920	0.882328
	O372	O	0.643121	0.688672	0.671976
	H373	H	0.642338	0.669682	0.682584
	H374	H	0.619075	0.677701	0.682690
	O375	O	-0.105948	-0.103872	1.110370
	H376	H	-0.111623	-0.093615	1.115575
	H377	H	-0.100603	-0.106653	1.105322
	O378	O	0.709319	0.546433	0.459006
	H379	H	0.707580	0.526116	0.486860
	H380	H	0.706856	0.582978	0.479237
	O381	O	0.109895	1.159579	-0.000353
	H382	H	0.110334	1.138716	-0.000574
	H383	H	0.120051	1.165889	0.008993
	O384	O	0.517243	0.474050	0.654366
	H385	H	0.517393	0.465137	0.666392
	H386	H	0.506106	0.473481	0.650325
	O387	O	0.720302	0.285607	0.470334
	H388	H	0.754815	0.256218	0.470265
	H389	H	0.714210	0.292820	0.423155
	O390	O	1.054180	0.887624	0.005194
	H391	H	1.049674	0.891445	0.012484
	H392	H	1.037767	0.881935	0.000965
	O393	O	0.860665	0.053537	1.083648
	H394	H	0.850913	0.048567	1.069519
	H395	H	0.855673	0.048450	1.087663
	O396	O	0.545386	0.426346	0.624416
	H397	H	0.543670	0.420695	0.611684
	H398	H	0.529970	0.421604	0.631038
	O399	O	0.467156	0.322235	0.695289
	H400	H	0.445358	0.317127	0.678195
	H401	H	0.446705	0.334545	0.697442
	O402	O	0.952597	0.872709	-0.122369
	H403	H	0.960645	0.884101	-0.131462
	H404	H	0.938023	0.886451	-0.126090
	O405	O	0.190560	-0.010119	-0.202360
	H406	H	0.207502	-0.020701	-0.200313
	H407	H	0.191059	-0.017332	-0.208963
	O408	O	0.289791	0.408889	0.406116
	H409	H	0.291318	0.435440	0.422131
	H410	H	0.298078	0.413620	0.401225
	O411	O	1.118413	1.042944	0.985945
	H412	H	1.125618	1.037795	0.975334
	H413	H	1.121304	1.031562	0.984526
	O414	O	0.444944	0.295618	0.445374
	H415	H	0.438794	0.311262	0.448517
	H416	H	0.454017	0.283868	0.468646
	O417	O	-0.066772	1.136432	0.829741
	H418	H	-0.062453	1.144216	0.825243
	H419	H	-0.074684	1.151658	0.836216
	O420	O	0.401487	1.499156	1.368048
	H421	H	0.419192	1.522555	1.363648
	H422	H	0.391740	1.511366	1.369809
	O423	O	-0.064350	1.040865	-0.013393
	H424	H	-0.079167	1.057683	-0.020320
	H425	H	-0.057390	1.063139	-0.012190
	O426	O	0.680135	0.327610	0.316588
	H427	H	0.643159	0.333522	0.308422
	H428	H	0.674508	0.355817	0.310993
	O429	O	0.650517	0.439108	0.580842
	H430	H	0.646496	0.411907	0.573641
	H431	H	0.635357	0.434274	0.567919
	O432	O	0.489900	0.455594	0.579215
	H433	H	0.478972	0.457697	0.571055
	H434	H	0.491419	0.439787	0.573324
	O435	O	-0.103822	0.095180	-0.012811
	H436	H	-0.120619	0.102237	-0.028306
	H437	H	-0.102517	0.107672	-0.002064
	O438	O	-0.192446	1.159150	0.934742
	H439	H	-0.211297	1.148607	0.947176
	H440	H	-0.191787	1.158547	0.950802
	O441	O	0.479859	0.705600	0.306386
	H442	H	0.507191	0.700849	0.321444
	H443	H	0.486524	0.727250	0.285021
