data_Molecule from HDF5

_cell_length_a		16.352371
_cell_length_b		16.247470
_cell_length_c		16.248664
_cell_angle_alpha	89.584872
_cell_angle_beta	89.512740
_cell_angle_gamma	89.762255
_symmetry_space_group_name_H-M	'P 1'
_symmetry_Int_Tables_number		1

loop_
	_symmetry_equiv_pos_as_xyz
	x,y,z

loop_
	_atom_site_label
	_atom_site_type_symbol
	_atom_site_fract_x
	_atom_site_fract_y
	_atom_site_fract_z
	H0	H	0.399929	0.838167	0.717891
	H1	H	0.595746	0.165554	0.712645
	H2	H	0.599546	0.836401	0.287052
	H3	H	0.402359	0.164362	0.283838
	H4	H	0.719303	0.397515	0.839822
	H5	H	0.710881	0.599704	0.164831
	H6	H	0.285374	0.600339	0.836128
	H7	H	0.280396	0.397895	0.162954
	H8	H	0.837316	0.720320	0.401015
	H9	H	0.162929	0.715853	0.596518
	H10	H	0.836966	0.287055	0.600724
	H11	H	0.162990	0.286642	0.399599
	H12	H	0.836611	0.400621	0.718544
	H13	H	0.161915	0.599763	0.714657
	H14	H	0.835672	0.603731	0.286003
	H15	H	0.161221	0.402261	0.282523
	H16	H	0.399890	0.716774	0.837323
	H17	H	0.594112	0.713961	0.164508
	H18	H	0.598037	0.289316	0.835512
	H19	H	0.397903	0.284268	0.163402
	H20	H	0.718806	0.838826	0.398251
	H21	H	0.711708	0.165439	0.596638
	H22	H	0.282801	0.838413	0.603028
	H23	H	0.284034	0.165092	0.398688
	H24	H	0.897820	0.338104	0.220073
	H25	H	0.092088	0.666834	0.209119
	H26	H	0.098300	0.336659	0.786618
	H27	H	0.898848	0.664982	0.785683
	H28	H	0.217545	0.901371	0.337259
	H29	H	0.214274	0.101680	0.663216
	H30	H	0.785025	0.104681	0.336441
	H31	H	0.780985	0.899778	0.662233
	H32	H	0.336690	0.218328	0.900212
	H33	H	0.661728	0.216757	0.097257
	H34	H	0.335212	0.786692	0.102023
	H35	H	0.661368	0.783463	0.898572
	H36	H	0.337486	0.900474	0.219613
	H37	H	0.662447	0.098323	0.212477
	H38	H	0.336344	0.103495	0.784131
	H39	H	0.661229	0.901031	0.782986
	H40	H	0.902790	0.219003	0.336991
	H41	H	0.096460	0.214183	0.664458
	H42	H	0.100107	0.788744	0.335606
	H43	H	0.898288	0.785144	0.662801
	H44	H	0.215883	0.337339	0.900041
	H45	H	0.212229	0.664149	0.098081
	H46	H	0.781905	0.337355	0.105013
	H47	H	0.782203	0.663652	0.901801
	H48	H	0.410171	0.113727	0.582611
	H49	H	0.590919	0.886085	0.588952
	H50	H	0.578877	0.113847	0.405828
	H51	H	0.402254	0.880933	0.403043
	H52	H	0.591248	0.411565	0.116113
	H53	H	0.590259	0.590511	0.886138
	H54	H	0.407395	0.598348	0.117404
	H55	H	0.401097	0.412585	0.883266
	H56	H	0.117892	0.602644	0.400880
	H57	H	0.885555	0.592167	0.589467
	H58	H	0.113735	0.408590	0.588387
	H59	H	0.886877	0.411490	0.415998
	H60	H	0.115503	0.411383	0.597053
	H61	H	0.883995	0.591802	0.596573
	H62	H	0.113705	0.594164	0.411183
	H63	H	0.885056	0.414446	0.408176
	H64	H	0.395462	0.593332	0.119895
	H65	H	0.590207	0.592084	0.885066
	H66	H	0.583850	0.407704	0.115674
	H67	H	0.410242	0.413094	0.885898
	H68	H	0.601191	0.116499	0.416534
	H69	H	0.592886	0.884718	0.592016
	H70	H	0.395152	0.120240	0.591187
	H71	H	0.417399	0.887189	0.407954
	H72	H	0.894906	0.618288	0.087851
	H73	H	0.090670	0.385023	0.091124
	H74	H	0.083588	0.614372	0.907700
	H75	H	0.912544	0.386235	0.909616
	H76	H	0.094361	0.914181	0.615166
	H77	H	0.097914	0.099452	0.381159
	H78	H	0.903120	0.090748	0.616154
	H79	H	0.911189	0.906792	0.382706
	H80	H	0.613850	0.090024	0.902092
	H81	H	0.381398	0.097720	0.095446
	H82	H	0.613374	0.916171	0.098010
	H83	H	0.385819	0.907181	0.919340
	H84	H	0.620211	0.894735	0.097635
	H85	H	0.386309	0.092507	0.085340
	H86	H	0.616727	0.098533	0.903170
	H87	H	0.385894	0.919651	0.906453
	H88	H	0.906591	0.093744	0.615938
	H89	H	0.094001	0.087061	0.385322
	H90	H	0.084474	0.907875	0.614202
	H91	H	0.903251	0.913681	0.381976
	H92	H	0.096021	0.615846	0.913070
	H93	H	0.090573	0.383905	0.095055
	H94	H	0.902232	0.619914	0.102068
	H95	H	0.905540	0.385137	0.915394
	H96	H	0.410662	0.118269	0.600154
	H97	H	0.589056	0.885455	0.592189
	H98	H	0.598217	0.123362	0.392310
	H99	H	0.404012	0.886959	0.419035
	H100	H	0.590964	0.403520	0.118542
	H101	H	0.591383	0.591444	0.884480
	H102	H	0.404814	0.585569	0.114944
	H103	H	0.407305	0.405017	0.882480
	H104	H	0.114099	0.589714	0.398303
	H105	H	0.882700	0.598222	0.592801
	H106	H	0.117614	0.402722	0.594674
	H107	H	0.882529	0.406958	0.410086
	H108	H	0.910017	0.613901	0.088790
	H109	H	0.087142	0.384722	0.093033
	H110	H	0.093856	0.619658	0.900290
	H111	H	0.905091	0.382121	0.906985
	H112	H	0.094037	0.903427	0.618641
	H113	H	0.085815	0.097618	0.385229
	H114	H	0.901774	0.095408	0.617803
	H115	H	0.911701	0.916654	0.386176
	H116	H	0.612631	0.094389	0.910160
	H117	H	0.385609	0.086278	0.095639
	H118	H	0.611504	0.904691	0.079952
	H119	H	0.379756	0.903314	0.903155
	C120	C	0.376331	0.009853	0.622177
	C121	C	0.619509	0.993173	0.620102
	C122	C	0.622503	0.009616	0.376972
	C123	C	0.378587	0.992820	0.379427
	C124	C	0.619420	0.378538	0.009002
	C125	C	0.618408	0.620561	0.992867
	C126	C	0.375236	0.622111	0.009118
	C127	C	0.376293	0.379420	0.991534
	C128	C	0.007820	0.625042	0.376544
	C129	C	0.991413	0.622811	0.620917
	C130	C	0.007878	0.378962	0.623162
	C131	C	0.991759	0.381133	0.380152
	C132	C	0.874411	0.509489	0.123770
	C133	C	0.118136	0.492782	0.120739
	C134	C	0.120760	0.508790	0.878127
	C135	C	0.877419	0.492169	0.880233
	C136	C	0.121221	0.880093	0.507955
	C137	C	0.120656	0.122620	0.492006
	C138	C	0.876515	0.124269	0.508554
	C139	C	0.878282	0.881457	0.491345
	C140	C	0.507125	0.123927	0.876960
	C141	C	0.491315	0.121587	0.120321
	C142	C	0.507496	0.876876	0.122915
	C143	C	0.490893	0.879667	0.879050
	C144	C	0.379265	0.886892	0.679165
	C145	C	0.616468	0.116566	0.674784
	C146	C	0.620454	0.886039	0.323407
	C147	C	0.381011	0.115768	0.322414
	C148	C	0.678891	0.378945	0.887451
	C149	C	0.673173	0.619191	0.115804
	C150	C	0.321797	0.620604	0.885508
	C151	C	0.319187	0.378782	0.114356
	C152	C	0.885667	0.682180	0.379717
	C153	C	0.114166	0.677778	0.617329
	C154	C	0.885671	0.323842	0.621748
	C155	C	0.113912	0.324622	0.380052
	C156	C	0.885499	0.380689	0.680041
	C157	C	0.113588	0.620302	0.676178
	C158	C	0.884858	0.624089	0.322864
	C159	C	0.113055	0.382267	0.321785
	C160	C	0.378873	0.678430	0.885946
	C161	C	0.614829	0.675879	0.115820
	C162	C	0.618592	0.324969	0.885360
	C163	C	0.377429	0.321948	0.114178
	C164	C	0.679400	0.887046	0.379138
	C165	C	0.674108	0.116546	0.617413
	C166	C	0.321080	0.887075	0.622134
	C167	C	0.322448	0.115953	0.379530
	C168	C	0.876975	0.386965	0.181897
	C169	C	0.113895	0.617122	0.173224
	C170	C	0.118651	0.385556	0.823810
	C171	C	0.878632	0.615596	0.823859
	C172	C	0.178802	0.881682	0.385768
	C173	C	0.176086	0.121274	0.614555
	C174	C	0.822744	0.123764	0.385371
	C175	C	0.820398	0.881062	0.613708
	C176	C	0.385241	0.180410	0.879365
	C177	C	0.613404	0.178103	0.117525
	C178	C	0.384837	0.822738	0.122710
	C179	C	0.612693	0.822542	0.879617
	C180	C	0.385793	0.879687	0.180944
	C181	C	0.613750	0.119423	0.174948
	C182	C	0.384916	0.122783	0.821857
	C183	C	0.612873	0.880779	0.821885
	C184	C	0.881184	0.180689	0.385664
	C185	C	0.117281	0.176984	0.615320
	C186	C	0.120141	0.825785	0.384862
	C187	C	0.878489	0.823722	0.613871
	C188	C	0.177175	0.385946	0.880266
	C189	C	0.173613	0.615697	0.118079
	C190	C	0.819980	0.386157	0.124011
	C191	C	0.820557	0.615081	0.881515
	C192	C	0.398644	0.095426	0.598442
	C193	C	0.597533	0.907587	0.597782
	C194	C	0.599509	0.095485	0.398553
	C195	C	0.401145	0.907116	0.403240
	C196	C	0.595651	0.401046	0.094672
	C197	C	0.596916	0.597974	0.907293
	C198	C	0.396267	0.599106	0.095020
	C199	C	0.399622	0.403347	0.906074
	C200	C	0.093038	0.602204	0.397353
	C201	C	0.906186	0.600551	0.599266
	C202	C	0.093381	0.401123	0.600102
	C203	C	0.906794	0.404232	0.404491
	C204	C	0.895959	0.595128	0.099780
	C205	C	0.096077	0.406758	0.099517
	C206	C	0.097950	0.594489	0.900581
	C207	C	0.900847	0.406647	0.903821
	C208	C	0.097718	0.902039	0.593866
	C209	C	0.098971	0.101024	0.406092
	C210	C	0.897624	0.100203	0.594623
	C211	C	0.901794	0.905288	0.405718
	C212	C	0.592269	0.101079	0.898733
	C213	C	0.406260	0.098885	0.098581
	C214	C	0.592984	0.898811	0.098924
	C215	C	0.405853	0.903098	0.902715
	Zn216	Zn	0.499223	0.001736	0.749508
	Zn217	Zn	0.500430	0.000010	0.250239
	Zn218	Zn	0.747400	0.499554	0.001913
	Zn219	Zn	0.247523	0.500475	0.000368
	Zn220	Zn	-0.000338	0.752422	0.498998
	Zn221	Zn	-0.000114	0.251153	0.500888
	Zn222	Zn	-0.001082	0.500768	0.751129
	Zn223	Zn	-0.002116	0.502108	0.249867
	Zn224	Zn	0.497651	0.749569	0.000330
	Zn225	Zn	0.498634	0.251762	-0.000815
	Zn226	Zn	0.748702	0.001871	0.499356
	Zn227	Zn	0.248702	0.001530	0.500291
	N228	N	0.413022	0.964401	0.679406
	N229	N	0.583119	0.039005	0.676513
	N230	N	0.585692	0.963258	0.322041
	N231	N	0.415213	0.038345	0.322244
	N232	N	0.679558	0.411605	0.965302
	N233	N	0.675320	0.585149	0.038361
	N234	N	0.319528	0.586160	0.963064
	N235	N	0.318153	0.413694	0.037072
	N236	N	0.962934	0.683022	0.412376
	N237	N	0.037230	0.679492	0.583770
	N238	N	0.962725	0.322420	0.587205
	N239	N	0.037197	0.323717	0.415679
	N240	N	0.962708	0.414216	0.680951
	N241	N	0.036392	0.586907	0.678626
	N242	N	0.961619	0.589346	0.320556
	N243	N	0.036098	0.416390	0.321638
	N244	N	0.411178	0.679815	0.963709
	N245	N	0.581302	0.676604	0.038600
	N246	N	0.582544	0.324625	0.962161
	N247	N	0.412269	0.322425	0.036876
	N248	N	0.681076	0.965082	0.411385
	N249	N	0.676135	0.038910	0.584072
	N250	N	0.319275	0.964428	0.587467
	N251	N	0.320945	0.038411	0.414328
	N252	N	0.910153	0.464629	0.181954
	N253	N	0.079966	0.539675	0.174945
	N254	N	0.084359	0.462879	0.822449
	N255	N	0.913348	0.538269	0.823098
	N256	N	0.179555	0.914554	0.463463
	N257	N	0.178126	0.088003	0.536958
	N258	N	0.819931	0.089255	0.462906
	N259	N	0.820316	0.916354	0.536452
	N260	N	0.461976	0.181023	0.913001
	N261	N	0.536388	0.179365	0.084218
	N262	N	0.461513	0.820934	0.087117
	N263	N	0.535502	0.821600	0.914337
	N264	N	0.463352	0.912274	0.181462
	N265	N	0.537111	0.084855	0.176744
	N266	N	0.461809	0.088206	0.820114
	N267	N	0.536151	0.915494	0.821418
	N268	N	0.913648	0.181234	0.463458
	N269	N	0.083478	0.178061	0.538065
	N270	N	0.085186	0.824472	0.462053
	N271	N	0.914086	0.824296	0.536896
	N272	N	0.178502	0.463761	0.913379
	N273	N	0.176453	0.537398	0.086284
	N274	N	0.817917	0.463280	0.088943
	N275	N	0.819784	0.537464	0.916039
	O276	O	0.581584	0.468860	0.434574
	H277	H	0.580200	0.469619	0.433725
	H278	H	0.573719	0.486154	0.446594
	O279	O	0.554006	0.570459	0.513645
	H280	H	0.557531	0.573334	0.515430
	H281	H	0.545685	0.566381	0.511937
	O282	O	1.028283	0.960790	-0.034276
	H283	H	1.028931	0.966912	-0.028643
	H284	H	1.038624	0.964081	-0.051539
	O285	O	0.990851	-0.051227	0.982380
	H286	H	0.989949	-0.060210	0.981261
	H287	H	0.998408	-0.053287	0.967126
	O288	O	0.549203	0.497521	0.432754
	H289	H	0.565297	0.489078	0.419464
	H290	H	0.548506	0.502392	0.431828
	O291	O	0.460191	0.543260	0.568780
	H292	H	0.462478	0.546933	0.562686
	H293	H	0.460441	0.539238	0.570296
	O294	O	0.459604	0.502709	0.520616
	H295	H	0.470290	0.513076	0.509458
	H296	H	0.452221	0.510457	0.516155
	O297	O	0.412783	0.524801	0.434976
	H298	H	0.417446	0.515694	0.445273
	H299	H	0.410260	0.521566	0.422677
	O300	O	1.013526	0.035093	1.094825
	H301	H	1.005141	0.021940	1.085923
	H302	H	1.004585	0.031841	1.102790
	O303	O	1.173775	0.992181	-0.119916
	H304	H	1.183841	1.001703	-0.123283
	H305	H	1.186687	0.981467	-0.122998
	O306	O	-0.036812	0.943727	0.999634
	H307	H	-0.032378	0.949790	0.999209
	H308	H	-0.052184	0.956518	0.998134
	O309	O	0.557295	0.478831	0.548767
	H310	H	0.548960	0.484983	0.545386
	H311	H	0.564806	0.484339	0.539609
	O312	O	-0.047205	0.024373	0.058935
	H313	H	-0.054807	0.012522	0.058794
	H314	H	-0.045606	0.009110	0.049742
	O315	O	0.943492	-0.048936	-0.006300
	H316	H	0.930642	-0.048904	0.003657
	H317	H	0.943362	-0.062631	-0.006345
	O318	O	0.921218	1.055374	1.089283
	H319	H	0.916428	1.064813	1.084803
	H320	H	0.932275	1.065834	1.079947
	O321	O	-0.489475	-0.434268	0.490243
	H322	H	-0.476802	-0.425067	0.488410
	H323	H	-0.490605	-0.450993	0.494352
	O324	O	0.455208	0.415324	0.614022
	H325	H	0.446408	0.414245	0.613285
	H326	H	0.451489	0.420284	0.617554
	O327	O	-0.557961	-0.498222	0.509793
	H328	H	-0.555222	-0.504131	0.508077
	H329	H	-0.558899	-0.508543	0.514090
	O330	O	0.454847	0.519789	0.460469
	H331	H	0.464811	0.519936	0.449211
	H332	H	0.449963	0.518890	0.464504
	O333	O	-0.063185	1.003492	0.956481
	H334	H	-0.069077	0.994931	0.948552
	H335	H	-0.066646	1.004580	0.959922
	O336	O	-0.068772	0.103862	-0.062890
	H337	H	-0.070459	0.106514	-0.071410
	H338	H	-0.072573	0.108117	-0.059797
	O339	O	0.070834	1.069781	0.898959
	H340	H	0.086851	1.062677	0.908004
	H341	H	0.058879	1.068116	0.905931
	O342	O	0.989226	1.002118	0.952040
	H343	H	1.000345	0.995965	0.951406
	H344	H	1.000414	1.004242	0.951864
	O345	O	0.965874	0.912338	-0.082253
	H346	H	0.978014	0.919986	-0.080150
	H347	H	0.951598	0.917329	-0.092126
	O348	O	0.532473	0.458833	0.420727
	H349	H	0.526841	0.461152	0.437686
	H350	H	0.525705	0.463664	0.414606
	O351	O	0.463878	0.436337	0.612861
	H352	H	0.454734	0.439408	0.612042
	H353	H	0.467662	0.435637	0.605809
	O354	O	0.489835	0.502861	0.443717
	H355	H	0.483428	0.504944	0.447489
	H356	H	0.487278	0.489613	0.441819
	O357	O	0.986241	0.063848	1.103221
	H358	H	0.972777	0.059659	1.099480
	H359	H	0.990891	0.075713	1.110920
	O360	O	0.554358	0.403533	0.473492
	H361	H	0.550962	0.407860	0.480081
	H362	H	0.558440	0.396558	0.477014
	O363	O	1.076772	0.989671	-0.125802
	H364	H	1.084165	0.985785	-0.116337
	H365	H	1.081860	0.971639	-0.122684
	O366	O	1.079601	1.066789	1.112580
	H367	H	1.079066	1.076431	1.119121
	H368	H	1.078426	1.078106	1.111592
	O369	O	1.023522	-0.049478	1.019067
	H370	H	1.023476	-0.041606	1.017986
	H371	H	1.022665	-0.043047	1.029500
	O372	O	0.138329	-0.162565	-0.058172
	H373	H	0.137809	-0.172883	-0.058323
	H374	H	0.127521	-0.152834	-0.061160
	O375	O	0.959565	0.035067	0.076689
	H376	H	0.960960	0.033299	0.077017
	H377	H	0.958476	0.036659	0.073144
	O378	O	0.621198	0.529459	0.531696
	H379	H	0.627532	0.516651	0.525273
	H380	H	0.623375	0.527095	0.532655
	O381	O	0.551169	0.584948	0.528302
	H382	H	0.544704	0.586138	0.528816
	H383	H	0.540909	0.589077	0.519157
