data_Molecule from HDF5

_cell_length_a		16.292845
_cell_length_b		16.327815
_cell_length_c		16.224989
_cell_angle_alpha	89.866009
_cell_angle_beta	90.113899
_cell_angle_gamma	90.087126
_symmetry_space_group_name_H-M	'P 1'
_symmetry_Int_Tables_number		1

loop_
	_symmetry_equiv_pos_as_xyz
	x,y,z

loop_
	_atom_site_label
	_atom_site_type_symbol
	_atom_site_fract_x
	_atom_site_fract_y
	_atom_site_fract_z
	H0	H	0.407484	0.840383	0.710919
	H1	H	0.604974	0.166951	0.708897
	H2	H	0.603970	0.839582	0.281134
	H3	H	0.409840	0.166478	0.280920
	H4	H	0.718291	0.404365	0.831031
	H5	H	0.722603	0.602152	0.158814
	H6	H	0.292049	0.601202	0.830187
	H7	H	0.292312	0.404860	0.160062
	H8	H	0.842502	0.719481	0.394281
	H9	H	0.168201	0.718825	0.596300
	H10	H	0.842651	0.286371	0.593980
	H11	H	0.169001	0.287513	0.395543
	H12	H	0.841930	0.404250	0.707819
	H13	H	0.169155	0.600291	0.709143
	H14	H	0.841228	0.600655	0.279762
	H15	H	0.168602	0.404095	0.280363
	H16	H	0.404658	0.719368	0.831783
	H17	H	0.605536	0.716823	0.159944
	H18	H	0.602901	0.290103	0.831698
	H19	H	0.406994	0.287166	0.160013
	H20	H	0.720865	0.839214	0.397026
	H21	H	0.722727	0.165448	0.593809
	H22	H	0.289798	0.840793	0.596747
	H23	H	0.291356	0.165806	0.394313
	H24	H	0.906651	0.338873	0.209384
	H25	H	0.104900	0.665557	0.210273
	H26	H	0.102777	0.337858	0.781228
	H27	H	0.908099	0.664978	0.779131
	H28	H	0.220810	0.904517	0.331000
	H29	H	0.220967	0.100485	0.659373
	H30	H	0.792689	0.099691	0.331454
	H31	H	0.792099	0.902514	0.658885
	H32	H	0.342900	0.218864	0.895004
	H33	H	0.669785	0.217790	0.095003
	H34	H	0.342907	0.787026	0.096399
	H35	H	0.669152	0.788327	0.896951
	H36	H	0.342845	0.905170	0.209859
	H37	H	0.670522	0.100228	0.208942
	H38	H	0.342737	0.102353	0.779031
	H39	H	0.669579	0.905728	0.781590
	H40	H	0.906102	0.216962	0.331219
	H41	H	0.105517	0.216380	0.659346
	H42	H	0.105265	0.787461	0.331335
	H43	H	0.907058	0.788005	0.659221
	H44	H	0.220214	0.338854	0.896505
	H45	H	0.220945	0.666020	0.093718
	H46	H	0.791087	0.339449	0.093787
	H47	H	0.791174	0.665460	0.894038
	H48	H	0.414750	0.115494	0.577515
	H49	H	0.600531	0.886403	0.588572
	H50	H	0.599917	0.115884	0.412251
	H51	H	0.412147	0.887595	0.405098
	H52	H	0.591388	0.408869	0.110785
	H53	H	0.596933	0.602709	0.876656
	H54	H	0.406643	0.596749	0.114103
	H55	H	0.417707	0.411164	0.881273
	H56	H	0.123316	0.589905	0.390898
	H57	H	0.888165	0.603642	0.582696
	H58	H	0.123544	0.397554	0.581677
	H59	H	0.889150	0.411496	0.399871
	H60	H	0.117591	0.419240	0.582283
	H61	H	0.893348	0.587554	0.581765
	H62	H	0.123271	0.607504	0.405716
	H63	H	0.887472	0.405130	0.400986
	H64	H	0.414645	0.588038	0.109372
	H65	H	0.604087	0.592431	0.878899
	H66	H	0.603067	0.405114	0.115427
	H67	H	0.412620	0.405674	0.877068
	H68	H	0.611165	0.123040	0.398389
	H69	H	0.598221	0.886909	0.590818
	H70	H	0.403299	0.122993	0.590208
	H71	H	0.410972	0.885837	0.402430
	H72	H	0.917173	0.615861	0.081680
	H73	H	0.098544	0.385443	0.093274
	H74	H	0.095388	0.617186	0.899993
	H75	H	0.907844	0.383685	0.897872
	H76	H	0.091262	0.915136	0.607354
	H77	H	0.094505	0.098574	0.379482
	H78	H	0.905418	0.096956	0.615632
	H79	H	0.915200	0.909723	0.378512
	H80	H	0.622331	0.103151	0.908902
	H81	H	0.389088	0.099215	0.088041
	H82	H	0.617819	0.918402	0.080210
	H83	H	0.389369	0.916028	0.895901
	H84	H	0.625262	0.912187	0.100237
	H85	H	0.391600	0.093539	0.084547
	H86	H	0.619245	0.089657	0.903830
	H87	H	0.386693	0.900657	0.902109
	H88	H	0.916231	0.085844	0.609529
	H89	H	0.102488	0.098030	0.376742
	H90	H	0.097611	0.899110	0.614109
	H91	H	0.912028	0.910492	0.377890
	H92	H	0.099621	0.616880	0.905008
	H93	H	0.094610	0.388903	0.084727
	H94	H	0.908230	0.619468	0.085729
	H95	H	0.914895	0.386643	0.900058
	H96	H	0.421068	0.119381	0.594659
	H97	H	0.598188	0.887338	0.587234
	H98	H	0.592683	0.118344	0.394993
	H99	H	0.414307	0.887580	0.401762
	H100	H	0.601623	0.417501	0.111577
	H101	H	0.592057	0.592265	0.881339
	H102	H	0.418373	0.599446	0.110630
	H103	H	0.409728	0.413690	0.878899
	H104	H	0.115147	0.587059	0.413461
	H105	H	0.887080	0.593751	0.596237
	H106	H	0.125817	0.409432	0.600029
	H107	H	0.890748	0.407985	0.406241
	H108	H	0.916300	0.619184	0.091824
	H109	H	0.103910	0.385836	0.085523
	H110	H	0.101511	0.619208	0.898960
	H111	H	0.909124	0.386311	0.905045
	H112	H	0.108369	0.914046	0.613760
	H113	H	0.099104	0.090783	0.378949
	H114	H	0.921268	0.101647	0.611460
	H115	H	0.913836	0.912476	0.379002
	H116	H	0.625344	0.099630	0.894775
	H117	H	0.390219	0.093126	0.091169
	H118	H	0.624822	0.897249	0.083556
	H119	H	0.393095	0.913510	0.912152
	C120	C	0.384525	0.011548	0.616811
	C121	C	0.628175	0.994602	0.617311
	C122	C	0.628628	0.011145	0.373872
	C123	C	0.384529	0.994700	0.373674
	C124	C	0.627063	0.381806	0.004339
	C125	C	0.627111	0.624326	0.987339
	C126	C	0.384164	0.624158	0.003031
	C127	C	0.384169	0.381016	0.987512
	C128	C	0.013367	0.624052	0.373525
	C129	C	0.997373	0.623675	0.616192
	C130	C	0.014296	0.380074	0.616697
	C131	C	0.997039	0.379837	0.373242
	C132	C	0.884803	0.510565	0.115679
	C133	C	0.127675	0.494285	0.116912
	C134	C	0.127107	0.509704	0.872880
	C135	C	0.883092	0.493799	0.872003
	C136	C	0.128218	0.880708	0.503601
	C137	C	0.127818	0.124055	0.486729
	C138	C	0.885673	0.123174	0.503585
	C139	C	0.884757	0.881121	0.486780
	C140	C	0.514182	0.125564	0.873445
	C141	C	0.498143	0.123958	0.116654
	C142	C	0.514828	0.880633	0.117637
	C143	C	0.497451	0.881515	0.873965
	C144	C	0.386963	0.888882	0.672673
	C145	C	0.625756	0.117867	0.671598
	C146	C	0.624896	0.888049	0.319168
	C147	C	0.388428	0.117567	0.318263
	C148	C	0.681169	0.384313	0.880512
	C149	C	0.684050	0.622660	0.110064
	C150	C	0.329155	0.621868	0.879586
	C151	C	0.329746	0.384006	0.111004
	C152	C	0.890799	0.680388	0.374495
	C153	C	0.119720	0.680085	0.615527
	C154	C	0.891293	0.324591	0.614303
	C155	C	0.120000	0.325402	0.375566
	C156	C	0.890999	0.383025	0.670791
	C157	C	0.120236	0.621180	0.671757
	C158	C	0.890194	0.621592	0.317548
	C159	C	0.120013	0.383551	0.318439
	C160	C	0.385421	0.680453	0.880336
	C161	C	0.625763	0.679533	0.110534
	C162	C	0.623968	0.327151	0.880784
	C163	C	0.386744	0.325624	0.110928
	C164	C	0.682746	0.887803	0.376785
	C165	C	0.684428	0.117061	0.614769
	C166	C	0.328486	0.889289	0.615981
	C167	C	0.329467	0.117310	0.374757
	C168	C	0.886645	0.387719	0.171332
	C169	C	0.125229	0.616970	0.172142
	C170	C	0.124059	0.387053	0.818258
	C171	C	0.886973	0.616442	0.816903
	C172	C	0.183294	0.883282	0.380316
	C173	C	0.183383	0.121455	0.610263
	C174	C	0.830244	0.120501	0.380235
	C175	C	0.829811	0.882497	0.609828
	C176	C	0.391459	0.180511	0.875156
	C177	C	0.621065	0.179726	0.115215
	C178	C	0.391815	0.825131	0.116261
	C179	C	0.620298	0.826018	0.876134
	C180	C	0.391667	0.884144	0.172575
	C181	C	0.621473	0.121347	0.171743
	C182	C	0.391488	0.122755	0.817531
	C183	C	0.620531	0.884496	0.818900
	C184	C	0.886798	0.178803	0.380289
	C185	C	0.126112	0.179136	0.610162
	C186	C	0.125796	0.825310	0.380400
	C187	C	0.887112	0.825475	0.609890
	C188	C	0.182281	0.387431	0.875491
	C189	C	0.183084	0.617167	0.114312
	C190	C	0.828801	0.388085	0.114024
	C191	C	0.828465	0.616519	0.873900
	C192	C	0.406611	0.097029	0.594230
	C193	C	0.605736	0.909173	0.595282
	C194	C	0.607555	0.096879	0.395649
	C195	C	0.406161	0.909158	0.396464
	C196	C	0.605154	0.403936	0.090479
	C197	C	0.604247	0.602307	0.901375
	C198	C	0.406715	0.601409	0.089178
	C199	C	0.406626	0.403442	0.901238
	C200	C	0.098647	0.601454	0.396650
	C201	C	0.911847	0.601553	0.593392
	C202	C	0.100107	0.402166	0.594516
	C203	C	0.911257	0.401593	0.395788
	C204	C	0.907456	0.596112	0.093163
	C205	C	0.105670	0.408814	0.094495
	C206	C	0.105360	0.595635	0.894839
	C207	C	0.904403	0.407721	0.894299
	C208	C	0.105776	0.902897	0.589674
	C209	C	0.105271	0.102123	0.400702
	C210	C	0.907889	0.101192	0.589900
	C211	C	0.907350	0.904240	0.400526
	C212	C	0.600021	0.103766	0.895925
	C213	C	0.412498	0.101921	0.094363
	C214	C	0.600512	0.902731	0.094657
	C215	C	0.411733	0.903711	0.896650
	Zn216	Zn	0.506086	0.003396	0.745245
	Zn217	Zn	0.507179	0.002961	0.245378
	Zn218	Zn	0.755247	0.502760	-0.005257
	Zn219	Zn	0.256139	0.502571	-0.005427
	Zn220	Zn	0.005222	0.752952	0.495123
	Zn221	Zn	0.005815	0.251950	0.495675
	Zn222	Zn	0.005219	0.501544	0.744313
	Zn223	Zn	0.004936	0.502084	0.245266
	Zn224	Zn	0.505520	0.752660	-0.004537
	Zn225	Zn	0.506165	0.253325	-0.003722
	Zn226	Zn	0.757342	0.002086	0.495547
	Zn227	Zn	0.255783	0.003124	0.495027
	N228	N	0.421291	0.965851	0.673328
	N229	N	0.591605	0.040714	0.673451
	N230	N	0.591923	0.965405	0.317495
	N231	N	0.421844	0.040353	0.317375
	N232	N	0.683321	0.417527	0.958360
	N233	N	0.684846	0.588952	0.032589
	N234	N	0.328365	0.587365	0.957124
	N235	N	0.327859	0.417380	0.033071
	N236	N	0.968259	0.682189	0.408417
	N237	N	0.042324	0.681748	0.581599
	N238	N	0.969034	0.322743	0.581352
	N239	N	0.042500	0.323227	0.409074
	N240	N	0.968276	0.417122	0.672140
	N241	N	0.043270	0.586666	0.672210
	N242	N	0.967432	0.587267	0.316901
	N243	N	0.042452	0.416537	0.316743
	N244	N	0.418932	0.681892	0.958195
	N245	N	0.590889	0.680753	0.033086
	N246	N	0.590827	0.325575	0.958582
	N247	N	0.419702	0.323629	0.032869
	N248	N	0.685149	0.965259	0.410120
	N249	N	0.686077	0.039584	0.581735
	N250	N	0.326956	0.966541	0.581921
	N251	N	0.326935	0.039872	0.408500
	N252	N	0.920579	0.464885	0.172488
	N253	N	0.091544	0.539689	0.173779
	N254	N	0.090310	0.464142	0.816719
	N255	N	0.920062	0.539032	0.815746
	N256	N	0.184916	0.916787	0.458003
	N257	N	0.184278	0.087778	0.532618
	N258	N	0.829297	0.086740	0.457965
	N259	N	0.828284	0.916308	0.532123
	N260	N	0.468741	0.182444	0.909156
	N261	N	0.543419	0.181494	0.081556
	N262	N	0.469463	0.822596	0.082773
	N263	N	0.542706	0.824106	0.909642
	N264	N	0.469221	0.917484	0.173679
	N265	N	0.544293	0.087185	0.172622
	N266	N	0.468880	0.089288	0.816295
	N267	N	0.543154	0.918354	0.817662
	N268	N	0.920671	0.180335	0.457967
	N269	N	0.092488	0.181010	0.532327
	N270	N	0.092297	0.823559	0.458203
	N271	N	0.920560	0.824704	0.532055
	N272	N	0.184306	0.464770	0.908681
	N273	N	0.184906	0.539803	0.080645
	N274	N	0.827846	0.465349	0.079725
	N275	N	0.826005	0.539101	0.907309
	O276	O	0.031055	0.101655	0.006668
	H277	H	0.038569	0.104286	0.001169
	H278	H	0.042803	0.107017	0.001094
	O279	O	0.474117	0.491374	0.546308
	H280	H	0.462211	0.496120	0.547886
	H281	H	0.481873	0.497797	0.539848
	O282	O	0.484000	0.551853	0.434255
	H283	H	0.490964	0.553745	0.417859
	H284	H	0.476331	0.548924	0.436707
	O285	O	1.002800	0.013976	0.958209
	H286	H	1.012245	0.017306	0.951436
	H287	H	1.005155	0.013554	0.959170
	O288	O	1.063244	-0.033502	-0.062520
	H289	H	1.058220	-0.041474	-0.057116
	H290	H	1.061738	-0.036700	-0.068104
	O291	O	0.539177	0.469124	0.564201
	H292	H	0.533125	0.478769	0.571160
	H293	H	0.535287	0.472684	0.570124
	O294	O	0.979532	0.036022	1.055288
	H295	H	0.987857	0.039468	1.063287
	H296	H	0.978253	0.038610	1.049651
	O297	O	0.033333	-0.004047	-0.055813
	H298	H	0.026146	0.000093	-0.063220
	H299	H	0.043403	-0.001089	-0.055239
	O300	O	0.439742	0.582325	0.509548
	H301	H	0.428664	0.570688	0.509596
	H302	H	0.446966	0.592244	0.503210
	O303	O	0.527994	0.570048	0.596517
	H304	H	0.526166	0.566046	0.592457
	H305	H	0.517227	0.560984	0.607258
	O306	O	1.004494	-0.052761	-0.028547
	H307	H	1.002130	-0.052341	-0.034253
	H308	H	1.000750	-0.051491	-0.022701
	O309	O	0.054752	-0.004046	1.092394
	H310	H	0.041311	-0.012870	1.087973
	H311	H	0.054512	0.012232	1.100061
	O312	O	0.943218	0.968213	0.961164
	H313	H	0.946385	0.966905	0.963292
	H314	H	0.939740	0.970931	0.952927
	O315	O	0.493846	0.504105	0.490380
	H316	H	0.489976	0.506455	0.500230
	H317	H	0.484064	0.517335	0.492858
	O318	O	0.397432	0.458677	0.555611
	H319	H	0.399505	0.454946	0.541098
	H320	H	0.384053	0.467361	0.560360
	O321	O	0.050944	1.034425	1.053079
	H322	H	0.037756	1.030685	1.050627
	H323	H	0.059323	1.042441	1.039773
	O324	O	0.496281	0.498357	0.567885
	H325	H	0.497736	0.500838	0.562135
	H326	H	0.498845	0.509032	0.557469
	O327	O	0.496574	0.545406	0.447895
	H328	H	0.503918	0.551209	0.454024
	H329	H	0.494450	0.543496	0.453147
	O330	O	0.353872	0.495985	0.410693
	H331	H	0.345641	0.507663	0.412912
	H332	H	0.351832	0.498430	0.409249
	O333	O	0.581481	0.575255	0.535740
	H334	H	0.586743	0.580503	0.550176
	H335	H	0.579742	0.571536	0.531621
	O336	O	0.415106	0.396919	0.546389
	H337	H	0.415264	0.403949	0.539656
	H338	H	0.407891	0.387463	0.551100
	O339	O	0.989383	0.962669	0.048666
	H340	H	0.998117	0.975146	0.047267
	H341	H	0.980856	0.960585	0.059380
	O342	O	0.489434	0.612375	0.433674
	H343	H	0.490968	0.604840	0.439116
	H344	H	0.491477	0.607791	0.435410
	O345	O	0.493129	0.532861	0.438563
	H346	H	0.496035	0.531358	0.435698
	H347	H	0.501201	0.531746	0.431851
	O348	O	0.100570	-0.008365	0.033108
	H349	H	0.101251	-0.010771	0.035800
	H350	H	0.097592	-0.010717	0.027265
	O351	O	0.007137	0.992855	1.047227
	H352	H	0.012185	0.991846	1.052646
	H353	H	0.002680	1.001533	1.049077
	O354	O	0.457412	0.574985	0.451633
	H355	H	0.464370	0.565453	0.460598
	H356	H	0.453272	0.584321	0.436523
	O357	O	0.052918	1.058011	1.050627
	H358	H	0.049685	1.048870	1.048685
	H359	H	0.055349	1.059809	1.056703
