data_Molecule from HDF5

_cell_length_a		16.463826
_cell_length_b		16.239410
_cell_length_c		16.161531
_cell_angle_alpha	89.809054
_cell_angle_beta	89.589460
_cell_angle_gamma	90.465895
_symmetry_space_group_name_H-M	'P 1'
_symmetry_Int_Tables_number		1

loop_
	_symmetry_equiv_pos_as_xyz
	x,y,z

loop_
	_atom_site_label
	_atom_site_type_symbol
	_atom_site_fract_x
	_atom_site_fract_y
	_atom_site_fract_z
	H0	H	0.391506	0.846094	0.717028
	H1	H	0.591456	0.174206	0.713795
	H2	H	0.587542	0.845103	0.289240
	H3	H	0.398187	0.174764	0.286240
	H4	H	0.711713	0.409085	0.839379
	H5	H	0.706713	0.611452	0.166420
	H6	H	0.277174	0.611001	0.838144
	H7	H	0.272634	0.406189	0.164582
	H8	H	0.830294	0.724685	0.406947
	H9	H	0.154634	0.728182	0.601879
	H10	H	0.832518	0.289517	0.607656
	H11	H	0.154947	0.295722	0.401253
	H12	H	0.830873	0.410161	0.720429
	H13	H	0.154958	0.610189	0.717008
	H14	H	0.829091	0.606823	0.291178
	H15	H	0.153135	0.411916	0.284184
	H16	H	0.395668	0.723564	0.837313
	H17	H	0.587340	0.722700	0.167314
	H18	H	0.590163	0.299707	0.835274
	H19	H	0.390965	0.293161	0.165352
	H20	H	0.708201	0.846302	0.399697
	H21	H	0.712376	0.171826	0.603531
	H22	H	0.271622	0.847870	0.605432
	H23	H	0.277257	0.173042	0.396459
	H24	H	0.890904	0.345924	0.218918
	H25	H	0.088624	0.675202	0.214346
	H26	H	0.090060	0.346915	0.788998
	H27	H	0.896804	0.673755	0.789847
	H28	H	0.209174	0.909675	0.337991
	H29	H	0.212529	0.114497	0.664396
	H30	H	0.779818	0.110381	0.337880
	H31	H	0.771861	0.906035	0.665309
	H32	H	0.331090	0.226084	0.899526
	H33	H	0.654160	0.228377	0.097858
	H34	H	0.330316	0.792600	0.102209
	H35	H	0.654771	0.794399	0.900288
	H36	H	0.330933	0.909591	0.218608
	H37	H	0.656373	0.109285	0.212904
	H38	H	0.331145	0.108544	0.784931
	H39	H	0.654392	0.911414	0.783175
	H40	H	0.896949	0.225701	0.339149
	H41	H	0.091850	0.223163	0.668663
	H42	H	0.090376	0.797285	0.338112
	H43	H	0.893557	0.797991	0.668983
	H44	H	0.209245	0.348535	0.899458
	H45	H	0.210923	0.672603	0.104991
	H46	H	0.771041	0.347902	0.107949
	H47	H	0.778360	0.673423	0.901944
	H48	H	0.396223	0.127812	0.594112
	H49	H	0.593318	0.891287	0.589258
	H50	H	0.594218	0.128593	0.406624
	H51	H	0.390234	0.893857	0.418240
	H52	H	0.579337	0.420593	0.116422
	H53	H	0.593523	0.598640	0.885158
	H54	H	0.395779	0.597996	0.119396
	H55	H	0.411328	0.427507	0.890448
	H56	H	0.107447	0.603063	0.404817
	H57	H	0.879171	0.597354	0.600033
	H58	H	0.106597	0.417481	0.591759
	H59	H	0.878324	0.423617	0.406102
	H60	H	0.107586	0.420957	0.598457
	H61	H	0.875424	0.608052	0.602465
	H62	H	0.107899	0.609182	0.410296
	H63	H	0.874993	0.406252	0.411542
	H64	H	0.403434	0.597810	0.117056
	H65	H	0.581896	0.598830	0.886622
	H66	H	0.581510	0.415852	0.119128
	H67	H	0.400444	0.403974	0.880200
	H68	H	0.585065	0.127030	0.404992
	H69	H	0.578669	0.892812	0.601244
	H70	H	0.407888	0.124643	0.595206
	H71	H	0.398530	0.891107	0.400159
	H72	H	0.903156	0.625847	0.097819
	H73	H	0.075201	0.398380	0.091155
	H74	H	0.081915	0.624362	0.916676
	H75	H	0.897766	0.392731	0.910924
	H76	H	0.086351	0.919924	0.620483
	H77	H	0.088870	0.099582	0.386431
	H78	H	0.891895	0.090364	0.618939
	H79	H	0.903876	0.927015	0.389501
	H80	H	0.608320	0.105722	0.906589
	H81	H	0.381435	0.101789	0.084035
	H82	H	0.610294	0.907604	0.096368
	H83	H	0.378533	0.919769	0.905977
	H84	H	0.604805	0.918283	0.085475
	H85	H	0.380153	0.092551	0.099091
	H86	H	0.606563	0.104404	0.909238
	H87	H	0.376820	0.910442	0.908993
	H88	H	0.910798	0.095227	0.614831
	H89	H	0.082911	0.101728	0.387599
	H90	H	0.084336	0.921857	0.618613
	H91	H	0.905423	0.908461	0.384910
	H92	H	0.094553	0.628791	0.912781
	H93	H	0.087258	0.394795	0.086842
	H94	H	0.898443	0.624956	0.089740
	H95	H	0.902021	0.394704	0.913436
	H96	H	0.402462	0.123454	0.585186
	H97	H	0.576835	0.899116	0.583090
	H98	H	0.588463	0.125156	0.412792
	H99	H	0.409203	0.899179	0.415148
	H100	H	0.584603	0.420564	0.118135
	H101	H	0.587500	0.608089	0.882650
	H102	H	0.399681	0.603936	0.119669
	H103	H	0.384697	0.426646	0.882941
	H104	H	0.104909	0.601500	0.412207
	H105	H	0.878693	0.605608	0.591619
	H106	H	0.109289	0.413289	0.597875
	H107	H	0.882298	0.418602	0.423239
	H108	H	0.893421	0.628671	0.097572
	H109	H	0.083631	0.392047	0.099292
	H110	H	0.084261	0.628642	0.903316
	H111	H	0.897456	0.394050	0.916269
	H112	H	0.083090	0.919550	0.618677
	H113	H	0.087002	0.105572	0.384911
	H114	H	0.898554	0.108714	0.622963
	H115	H	0.889169	0.917102	0.381223
	H116	H	0.607378	0.102745	0.906414
	H117	H	0.374491	0.109592	0.099076
	H118	H	0.607504	0.922896	0.101057
	H119	H	0.379999	0.917305	0.915328
	C120	C	0.370907	0.017924	0.622432
	C121	C	0.613628	1.001622	0.621377
	C122	C	0.616038	0.018551	0.379442
	C123	C	0.371899	1.002596	0.380543
	C124	C	0.612671	0.390130	0.009920
	C125	C	0.614700	0.631509	0.993676
	C126	C	0.371730	0.629639	0.010194
	C127	C	0.368933	0.388150	0.992678
	C128	C	0.000189	0.632899	0.381199
	C129	C	0.984872	0.632854	0.625545
	C130	C	0.001228	0.386876	0.626690
	C131	C	0.984761	0.388343	0.382190
	C132	C	0.868761	0.518519	0.125390
	C133	C	0.112339	0.502257	0.122991
	C134	C	0.114905	0.519333	0.881181
	C135	C	0.871565	0.501609	0.883496
	C136	C	0.113567	0.890959	0.510663
	C137	C	0.115937	0.132248	0.494358
	C138	C	0.872316	0.129554	0.511022
	C139	C	0.869796	0.887785	0.494164
	C140	C	0.500661	0.132140	0.878580
	C141	C	0.485124	0.131817	0.122365
	C142	C	0.500668	0.886849	0.123982
	C143	C	0.484660	0.887358	0.879323
	C144	C	0.371430	0.895087	0.679085
	C145	C	0.612308	0.124854	0.676892
	C146	C	0.610386	0.894477	0.325321
	C147	C	0.376449	0.125629	0.323987
	C148	C	0.671053	0.391122	0.887247
	C149	C	0.668731	0.630583	0.117348
	C150	C	0.315564	0.630194	0.887260
	C151	C	0.311762	0.387323	0.115679
	C152	C	0.878438	0.687413	0.385552
	C153	C	0.106349	0.689655	0.622562
	C154	C	0.880212	0.329289	0.626464
	C155	C	0.106169	0.333367	0.381611
	C156	C	0.879574	0.389009	0.682733
	C157	C	0.106654	0.630697	0.679582
	C158	C	0.877808	0.628936	0.327747
	C159	C	0.105254	0.391187	0.323230
	C160	C	0.374742	0.685749	0.886345
	C161	C	0.609537	0.686016	0.117765
	C162	C	0.610997	0.336242	0.885361
	C163	C	0.370400	0.330888	0.116017
	C164	C	0.670138	0.895137	0.380382
	C165	C	0.672097	0.123767	0.621762
	C166	C	0.311828	0.896116	0.623712
	C167	C	0.316190	0.124764	0.378816
	C168	C	0.870264	0.395264	0.181550
	C169	C	0.110122	0.625810	0.177573
	C170	C	0.111211	0.395907	0.826146
	C171	C	0.875610	0.625220	0.827682
	C172	C	0.170289	0.890961	0.387188
	C173	C	0.173225	0.132860	0.616373
	C174	C	0.817691	0.129787	0.387247
	C175	C	0.811537	0.887484	0.616740
	C176	C	0.379117	0.187597	0.880038
	C177	C	0.606342	0.189406	0.118993
	C178	C	0.378793	0.831021	0.122138
	C179	C	0.606530	0.832356	0.880089
	C180	C	0.379210	0.889164	0.180298
	C181	C	0.607416	0.130322	0.176329
	C182	C	0.379312	0.129205	0.822837
	C183	C	0.606281	0.890615	0.822098
	C184	C	0.876051	0.186920	0.387677
	C185	C	0.113185	0.187025	0.618393
	C186	C	0.111127	0.835177	0.387077
	C187	C	0.871983	0.833365	0.618535
	C188	C	0.170852	0.396961	0.880824
	C189	C	0.170801	0.624357	0.123110
	C190	C	0.810695	0.396140	0.126125
	C191	C	0.816974	0.624887	0.883757
	C192	C	0.395040	0.103091	0.598331
	C193	C	0.589908	0.916410	0.598004
	C194	C	0.595423	0.104658	0.401646
	C195	C	0.393145	0.916674	0.404248
	C196	C	0.588828	0.412545	0.095818
	C197	C	0.593876	0.608579	0.907200
	C198	C	0.393341	0.606580	0.096400
	C199	C	0.392147	0.412314	0.906705
	C200	C	0.084894	0.610998	0.402809
	C201	C	0.899777	0.610192	0.604296
	C202	C	0.085933	0.410479	0.603013
	C203	C	0.900378	0.409801	0.406533
	C204	C	0.891733	0.604361	0.101946
	C205	C	0.088816	0.417106	0.099473
	C206	C	0.093231	0.605036	0.904196
	C207	C	0.892952	0.415970	0.906731
	C208	C	0.091146	0.913644	0.596868
	C209	C	0.092931	0.109152	0.408640
	C210	C	0.894025	0.105259	0.596750
	C211	C	0.892835	0.910769	0.407638
	C212	C	0.585148	0.110730	0.900852
	C213	C	0.400570	0.108254	0.100522
	C214	C	0.585510	0.909557	0.100955
	C215	C	0.400433	0.909323	0.903091
	Zn216	Zn	0.492657	0.010183	0.750187
	Zn217	Zn	0.493933	0.009906	0.252467
	Zn218	Zn	0.741892	0.510158	0.003023
	Zn219	Zn	0.241964	0.510427	0.002180
	Zn220	Zn	-0.007432	0.762266	0.503871
	Zn221	Zn	-0.006159	0.258225	0.504179
	Zn222	Zn	-0.007283	0.510350	0.754610
	Zn223	Zn	-0.008782	0.510590	0.251870
	Zn224	Zn	0.492616	0.758196	0.001401
	Zn225	Zn	0.491797	0.261890	0.000085
	Zn226	Zn	0.743082	0.009123	0.501468
	Zn227	Zn	0.243227	0.011241	0.501143
	N228	N	0.407617	0.971771	0.678373
	N229	N	0.576421	0.047977	0.676705
	N230	N	0.577422	0.972037	0.324568
	N231	N	0.410296	0.048431	0.324743
	N232	N	0.672033	0.423926	0.965763
	N233	N	0.672137	0.597684	0.038998
	N234	N	0.313872	0.596075	0.965314
	N235	N	0.310847	0.422155	0.038048
	N236	N	0.955533	0.690134	0.417743
	N237	N	0.029646	0.691084	0.589726
	N238	N	0.956979	0.327844	0.592298
	N239	N	0.030370	0.331298	0.417557
	N240	N	0.955935	0.423921	0.682987
	N241	N	0.030015	0.596149	0.681625
	N242	N	0.954480	0.595983	0.324716
	N243	N	0.028774	0.424728	0.323350
	N244	N	0.409018	0.685576	0.963786
	N245	N	0.576694	0.686742	0.039828
	N246	N	0.575123	0.335769	0.962495
	N247	N	0.405274	0.331276	0.038425
	N248	N	0.673704	0.973143	0.413308
	N249	N	0.672930	0.046258	0.588002
	N250	N	0.311754	0.973435	0.588918
	N251	N	0.313407	0.047159	0.413083
	N252	N	0.905694	0.472355	0.181228
	N253	N	0.074304	0.548965	0.177570
	N254	N	0.077060	0.472918	0.826196
	N255	N	0.908997	0.547826	0.827271
	N256	N	0.171988	0.924965	0.465104
	N257	N	0.175200	0.099693	0.538256
	N258	N	0.815177	0.094920	0.465000
	N259	N	0.810191	0.920644	0.538263
	N260	N	0.455485	0.189740	0.913991
	N261	N	0.529398	0.190744	0.086571
	N262	N	0.455530	0.829527	0.087845
	N263	N	0.529984	0.830000	0.914716
	N264	N	0.455932	0.923291	0.181274
	N265	N	0.531092	0.095145	0.178588
	N266	N	0.455808	0.095662	0.821641
	N267	N	0.529708	0.924115	0.821444
	N268	N	0.909379	0.186781	0.465469
	N269	N	0.078303	0.187009	0.541277
	N270	N	0.076525	0.834911	0.464800
	N271	N	0.907524	0.833580	0.541164
	N272	N	0.173129	0.474692	0.914369
	N273	N	0.172253	0.546495	0.089830
	N274	N	0.809512	0.473897	0.092225
	N275	N	0.814207	0.547000	0.917430
	O276	O	1.018882	-0.177351	0.915229
	H277	H	1.023480	-0.165392	0.920845
	H278	H	1.010067	-0.199061	0.911346
	O279	O	0.412256	0.533632	0.451754
	H280	H	0.421112	0.529517	0.452541
	H281	H	0.412437	0.545013	0.447761
	O282	O	0.496279	0.365092	0.541902
	H283	H	0.505504	0.358379	0.541653
	H284	H	0.494022	0.362657	0.537830
	O285	O	0.453354	0.505624	0.487262
	H286	H	0.453938	0.525635	0.488000
	H287	H	0.458782	0.509680	0.502529
	O288	O	0.439056	0.533749	0.549615
	H289	H	0.435177	0.536049	0.540772
	H290	H	0.431608	0.526455	0.564590
	O291	O	-0.121987	-0.045894	1.161600
	H292	H	-0.129017	-0.056011	1.151522
	H293	H	-0.128816	-0.058347	1.172471
	O294	O	1.116650	0.927706	-0.027903
	H295	H	1.105811	0.938655	-0.026871
	H296	H	1.119729	0.929225	-0.034208
	O297	O	1.011420	0.945124	-0.145067
	H298	H	1.014072	0.946861	-0.147622
	H299	H	1.012276	0.949056	-0.157816
	O300	O	0.387057	0.630620	0.365312
	H301	H	0.393245	0.644407	0.362315
	H302	H	0.381087	0.633276	0.355312
	O303	O	0.499089	0.543337	0.455180
	H304	H	0.508084	0.554240	0.450293
	H305	H	0.493871	0.540065	0.460862
	O306	O	0.505250	0.571948	0.639121
	H307	H	0.502185	0.564497	0.644415
	H308	H	0.494686	0.573763	0.654358
	O309	O	0.621256	0.483682	0.421488
	H310	H	0.622731	0.489422	0.423810
	H311	H	0.622103	0.480326	0.422184
	O312	O	0.925496	1.064778	0.957891
	H313	H	0.921668	1.068103	0.960321
	H314	H	0.928419	1.069119	0.950134
	O315	O	0.546441	0.587957	0.508606
	H316	H	0.559483	0.583884	0.500320
	H317	H	0.547634	0.593203	0.520545
	O318	O	0.448447	0.558444	0.535655
	H319	H	0.446982	0.572491	0.538372
	H320	H	0.450863	0.570946	0.537326
	O321	O	0.493265	0.605733	0.571749
	H322	H	0.492707	0.603669	0.571047
	H323	H	0.483506	0.602740	0.571402
	O324	O	-0.035971	1.037714	1.013392
	H325	H	-0.033572	1.048167	1.021319
	H326	H	-0.048689	1.048027	1.020102
	O327	O	0.108557	1.171635	1.029103
	H328	H	0.111340	1.163515	1.027032
	H329	H	0.104475	1.170697	1.040654
	O330	O	0.006694	-0.124804	0.030770
	H331	H	0.016283	-0.125789	0.022446
	H332	H	0.008728	-0.112808	0.036528
	O333	O	0.624946	0.609837	0.533024
	H334	H	0.627478	0.589868	0.538098
	H335	H	0.627230	0.602922	0.523455
	O336	O	0.078025	0.060536	-0.046540
	H337	H	0.077427	0.044906	-0.044140
	H338	H	0.069327	0.070699	-0.054328
	O339	O	-0.011008	0.076889	0.079598
	H340	H	-0.028293	0.081802	0.084001
	H341	H	-0.001357	0.078066	0.067320
	O342	O	0.364779	0.416830	0.531284
	H343	H	0.360272	0.420568	0.532738
	H344	H	0.363589	0.410935	0.538468
	O345	O	-0.144161	1.102366	0.949623
	H346	H	-0.146912	1.112893	0.937756
	H347	H	-0.150838	1.096226	0.955881
	O348	O	0.940583	0.007764	-0.021810
	H349	H	0.933047	0.005480	-0.016953
	H350	H	0.943198	0.009273	-0.004646
	O351	O	0.554188	0.539633	0.449058
	H352	H	0.544872	0.530204	0.447746
	H353	H	0.554693	0.527678	0.456626
	O354	O	-0.062549	0.987685	0.065323
	H355	H	-0.060846	0.984661	0.076588
	H356	H	-0.054195	0.974980	0.067531
	O357	O	0.964175	-0.030581	-0.076528
	H358	H	0.971867	-0.038784	-0.081389
	H359	H	0.960438	-0.019806	-0.088286
	O360	O	0.957522	-0.037234	0.898311
	H361	H	0.946594	-0.037446	0.898374
	H362	H	0.966728	-0.044837	0.892009
	O363	O	0.635892	0.481074	0.430595
	H364	H	0.636006	0.477352	0.440382
	H365	H	0.644528	0.470232	0.416009
	O366	O	0.439448	0.391858	0.612635
	H367	H	0.439326	0.392663	0.597425
	H368	H	0.440851	0.385986	0.607643
	O369	O	1.056404	0.094219	0.091407
	H370	H	1.068439	0.096188	0.089899
	H371	H	1.046750	0.085228	0.098895
	O372	O	0.626960	0.475437	0.564052
	H373	H	0.635463	0.478831	0.566614
	H374	H	0.616533	0.470432	0.570273
	O375	O	0.987054	-0.002409	1.059502
	H376	H	0.989921	-0.003194	1.041275
	H377	H	0.981324	0.006122	1.063156
	O378	O	0.032070	1.138409	0.074261
	H379	H	0.025941	1.125239	0.072361
	H380	H	0.046463	1.142970	0.092600
	O381	O	0.419614	0.371588	0.478418
	H382	H	0.417462	0.373125	0.484514
	H383	H	0.406490	0.362891	0.475152
	O384	O	0.882411	0.833389	0.142811
	H385	H	0.907471	0.832685	0.130360
	H386	H	0.873718	0.814234	0.158221
	O387	O	1.065569	0.021550	1.033055
	H388	H	1.084267	0.018178	1.035767
	H389	H	1.049005	0.026797	1.032824
	O390	O	1.015148	1.177014	-0.003288
	H391	H	1.008558	1.170863	-0.003888
	H392	H	1.018690	1.190239	0.003319
	O393	O	0.533074	0.426007	0.407736
	H394	H	0.530120	0.433050	0.391658
	H395	H	0.530221	0.413825	0.410116
