data_Molecule from HDF5

_cell_length_a		16.306667
_cell_length_b		16.389440
_cell_length_c		16.291664
_cell_angle_alpha	90.078146
_cell_angle_beta	89.896319
_cell_angle_gamma	90.068311
_symmetry_space_group_name_H-M	'P 1'
_symmetry_Int_Tables_number		1

loop_
	_symmetry_equiv_pos_as_xyz
	x,y,z

loop_
	_atom_site_label
	_atom_site_type_symbol
	_atom_site_fract_x
	_atom_site_fract_y
	_atom_site_fract_z
	H0	H	0.394919	0.843422	0.716397
	H1	H	0.592182	0.168307	0.715510
	H2	H	0.592788	0.843313	0.284710
	H3	H	0.396411	0.168905	0.286856
	H4	H	0.708571	0.408155	0.836635
	H5	H	0.708987	0.604722	0.164570
	H6	H	0.282346	0.601447	0.836331
	H7	H	0.281600	0.409422	0.164637
	H8	H	0.831821	0.720503	0.400648
	H9	H	0.157242	0.721813	0.601036
	H10	H	0.830795	0.290536	0.599718
	H11	H	0.158314	0.291291	0.402243
	H12	H	0.830717	0.407265	0.715866
	H13	H	0.158375	0.602746	0.714490
	H14	H	0.831405	0.602711	0.287237
	H15	H	0.158674	0.408528	0.287742
	H16	H	0.397563	0.718985	0.836746
	H17	H	0.593841	0.722145	0.163673
	H18	H	0.593808	0.290229	0.837103
	H19	H	0.395739	0.290953	0.163498
	H20	H	0.708093	0.842120	0.402011
	H21	H	0.709324	0.167890	0.598482
	H22	H	0.278905	0.842575	0.599770
	H23	H	0.280297	0.168057	0.404399
	H24	H	0.896495	0.342487	0.215730
	H25	H	0.091263	0.668974	0.214450
	H26	H	0.092221	0.342767	0.786882
	H27	H	0.897311	0.668731	0.786873
	H28	H	0.208932	0.906480	0.337638
	H29	H	0.207905	0.103460	0.664817
	H30	H	0.781864	0.101359	0.336335
	H31	H	0.779708	0.907970	0.664285
	H32	H	0.330904	0.219819	0.901995
	H33	H	0.658098	0.221400	0.099030
	H34	H	0.331153	0.791939	0.097980
	H35	H	0.657349	0.790223	0.900348
	H36	H	0.330787	0.909801	0.213158
	H37	H	0.658982	0.103361	0.213996
	H38	H	0.330465	0.101487	0.787623
	H39	H	0.658144	0.909472	0.786700
	H40	H	0.896314	0.219626	0.337382
	H41	H	0.092082	0.219705	0.664355
	H42	H	0.093508	0.790180	0.337785
	H43	H	0.894381	0.790403	0.664396
	H44	H	0.209771	0.343250	0.901842
	H45	H	0.209451	0.668388	0.098851
	H46	H	0.779295	0.342995	0.098922
	H47	H	0.780054	0.668907	0.902455
	H48	H	0.412622	0.116711	0.591316
	H49	H	0.587539	0.885984	0.606291
	H50	H	0.583254	0.117568	0.413230
	H51	H	0.406707	0.894512	0.414659
	H52	H	0.584679	0.420043	0.113805
	H53	H	0.585749	0.587466	0.889297
	H54	H	0.406826	0.597634	0.114867
	H55	H	0.394840	0.413085	0.882658
	H56	H	0.111084	0.609473	0.418000
	H57	H	0.882615	0.591070	0.587332
	H58	H	0.108805	0.419289	0.598119
	H59	H	0.877814	0.409213	0.408144
	H60	H	0.113688	0.404732	0.598090
	H61	H	0.876465	0.596020	0.603857
	H62	H	0.105900	0.586882	0.411609
	H63	H	0.879575	0.412519	0.410719
	H64	H	0.401192	0.605895	0.118667
	H65	H	0.578838	0.605215	0.884992
	H66	H	0.581090	0.408019	0.115873
	H67	H	0.405569	0.416976	0.886914
	H68	H	0.595873	0.122682	0.409542
	H69	H	0.575445	0.894934	0.588634
	H70	H	0.390339	0.120413	0.584869
	H71	H	0.391446	0.887398	0.408739
	H72	H	0.897107	0.623414	0.098494
	H73	H	0.087472	0.391343	0.090660
	H74	H	0.086929	0.621814	0.905221
	H75	H	0.910623	0.391862	0.903979
	H76	H	0.086061	0.913661	0.616381
	H77	H	0.088369	0.099070	0.383657
	H78	H	0.907781	0.094893	0.613689
	H79	H	0.906234	0.916651	0.387581
	H80	H	0.609294	0.098262	0.912859
	H81	H	0.379765	0.101728	0.088728
	H82	H	0.609444	0.908963	0.084395
	H83	H	0.377690	0.904590	0.915411
	H84	H	0.609620	0.921655	0.093837
	H85	H	0.379621	0.094702	0.095676
	H86	H	0.610094	0.094602	0.904542
	H87	H	0.381747	0.920471	0.909474
	H88	H	0.901354	0.106001	0.618729
	H89	H	0.087925	0.098054	0.384899
	H90	H	0.085330	0.912310	0.617137
	H91	H	0.904173	0.903732	0.382956
	H92	H	0.088115	0.620398	0.909382
	H93	H	0.091591	0.388856	0.095651
	H94	H	0.907542	0.620131	0.096385
	H95	H	0.897199	0.392330	0.917737
	H96	H	0.397573	0.125673	0.606638
	H97	H	0.597613	0.889342	0.585875
	H98	H	0.585781	0.121970	0.400283
	H99	H	0.405325	0.888416	0.397788
	H100	H	0.593014	0.410913	0.118673
	H101	H	0.597052	0.600778	0.881113
	H102	H	0.396548	0.596309	0.117752
	H103	H	0.404608	0.405869	0.882925
	H104	H	0.115751	0.601804	0.395739
	H105	H	0.877481	0.608283	0.590520
	H106	H	0.108355	0.410795	0.585124
	H107	H	0.878386	0.413561	0.406211
	H108	H	0.900105	0.618644	0.088541
	H109	H	0.085135	0.389858	0.097019
	H110	H	0.091144	0.622609	0.906438
	H111	H	0.892988	0.386035	0.900052
	H112	H	0.086376	0.912433	0.617334
	H113	H	0.086980	0.099330	0.384511
	H114	H	0.894336	0.094233	0.617756
	H115	H	0.893567	0.913040	0.382804
	H116	H	0.612082	0.103831	0.905854
	H117	H	0.376875	0.103214	0.097187
	H118	H	0.614811	0.907970	0.099152
	H119	H	0.374696	0.908659	0.898555
	C120	C	0.371810	0.013438	0.622848
	C121	C	0.615695	0.997588	0.622070
	C122	C	0.616640	0.013591	0.378459
	C123	C	0.372754	0.997499	0.378929
	C124	C	0.615354	0.384489	0.008354
	C125	C	0.615985	0.627123	0.992672
	C126	C	0.373549	0.627078	0.008946
	C127	C	0.373315	0.384006	0.992107
	C128	C	0.003066	0.627163	0.379692
	C129	C	0.986375	0.627056	0.622515
	C130	C	0.002467	0.383684	0.622302
	C131	C	0.986489	0.383539	0.379371
	C132	C	0.872760	0.513370	0.122820
	C133	C	0.116407	0.497894	0.122760
	C134	C	0.116753	0.513836	0.878882
	C135	C	0.872595	0.497825	0.879072
	C136	C	0.114942	0.884173	0.508941
	C137	C	0.115886	0.126988	0.492573
	C138	C	0.873198	0.126538	0.508771
	C139	C	0.872609	0.883219	0.492300
	C140	C	0.502438	0.126700	0.879331
	C141	C	0.486706	0.128078	0.122471
	C142	C	0.503013	0.884952	0.121121
	C143	C	0.486160	0.883512	0.878879
	C144	C	0.374374	0.891624	0.677946
	C145	C	0.612748	0.119901	0.677051
	C146	C	0.613728	0.891601	0.322766
	C147	C	0.375945	0.120083	0.324462
	C148	C	0.670817	0.387270	0.885490
	C149	C	0.671158	0.625183	0.115686
	C150	C	0.319270	0.623206	0.885390
	C151	C	0.318982	0.387734	0.115690
	C152	C	0.880445	0.682274	0.381295
	C153	C	0.108897	0.683121	0.620841
	C154	C	0.879439	0.328642	0.619977
	C155	C	0.109498	0.329000	0.381993
	C156	C	0.879369	0.386576	0.677612
	C157	C	0.109475	0.624017	0.677148
	C158	C	0.880345	0.623718	0.324638
	C159	C	0.109725	0.386890	0.324801
	C160	C	0.376600	0.681329	0.885456
	C161	C	0.613807	0.683225	0.115297
	C162	C	0.613797	0.328938	0.885541
	C163	C	0.375638	0.329112	0.115092
	C164	C	0.671037	0.890990	0.381021
	C165	C	0.671005	0.119520	0.619194
	C166	C	0.316416	0.891454	0.620299
	C167	C	0.318024	0.119793	0.382560
	C168	C	0.875554	0.391194	0.177837
	C169	C	0.112990	0.620123	0.177446
	C170	C	0.112873	0.391331	0.824585
	C171	C	0.876343	0.620364	0.824831
	C172	C	0.170296	0.886760	0.386190
	C173	C	0.170133	0.123891	0.615948
	C174	C	0.818829	0.122623	0.385391
	C175	C	0.817260	0.886523	0.615534
	C176	C	0.379757	0.181894	0.881562
	C177	C	0.609673	0.183064	0.119542
	C178	C	0.379950	0.829795	0.118691
	C179	C	0.608882	0.828588	0.880307
	C180	C	0.379698	0.888366	0.175707
	C181	C	0.610047	0.124793	0.176770
	C182	C	0.379271	0.123489	0.824755
	C183	C	0.609245	0.887695	0.824045
	C184	C	0.875720	0.181360	0.385793
	C185	C	0.113029	0.182022	0.615506
	C186	C	0.113332	0.828540	0.386365
	C187	C	0.874601	0.828615	0.615574
	C188	C	0.170998	0.391438	0.882064
	C189	C	0.171186	0.620042	0.119585
	C190	C	0.817565	0.391370	0.119692
	C191	C	0.817907	0.620278	0.882060
	C192	C	0.393798	0.099036	0.600844
	C193	C	0.593414	0.912247	0.600170
	C194	C	0.594774	0.098857	0.400959
	C195	C	0.394587	0.912043	0.400835
	C196	C	0.592842	0.406608	0.093967
	C197	C	0.593682	0.604619	0.907225
	C198	C	0.395079	0.606152	0.094853
	C199	C	0.395187	0.405512	0.906230
	C200	C	0.088832	0.605572	0.401889
	C201	C	0.900970	0.604971	0.600425
	C202	C	0.088069	0.405357	0.600230
	C203	C	0.900777	0.405307	0.401717
	C204	C	0.895126	0.598827	0.100954
	C205	C	0.094372	0.412104	0.100815
	C206	C	0.095197	0.599780	0.900626
	C207	C	0.893917	0.412165	0.900857
	C208	C	0.092472	0.906311	0.594952
	C209	C	0.094239	0.105136	0.406384
	C210	C	0.894827	0.104849	0.594621
	C211	C	0.894755	0.904864	0.406530
	C212	C	0.588172	0.105080	0.901099
	C213	C	0.400895	0.106160	0.100436
	C214	C	0.589006	0.906535	0.098874
	C215	C	0.400221	0.905029	0.901216
	Zn216	Zn	0.493855	0.005606	0.750884
	Zn217	Zn	0.495014	0.006123	0.250022
	Zn218	Zn	0.744189	0.506133	0.000593
	Zn219	Zn	0.245150	0.505665	0.000848
	Zn220	Zn	-0.005611	0.755203	0.501021
	Zn221	Zn	-0.005470	0.255359	0.500485
	Zn222	Zn	-0.005710	0.505706	0.750491
	Zn223	Zn	-0.005170	0.505290	0.251991
	Zn224	Zn	0.494689	0.755615	0.000121
	Zn225	Zn	0.494585	0.255412	0.000245
	Zn226	Zn	0.744579	0.004648	0.500597
	Zn227	Zn	0.243509	0.005309	0.501198
	N228	N	0.408006	0.968539	0.679771
	N229	N	0.578975	0.042894	0.678832
	N230	N	0.580458	0.968660	0.321381
	N231	N	0.409318	0.042940	0.322038
	N232	N	0.671936	0.421259	0.962762
	N233	N	0.672371	0.590778	0.038624
	N234	N	0.317239	0.590206	0.962989
	N235	N	0.317325	0.421122	0.038374
	N236	N	0.957811	0.684574	0.414770
	N237	N	0.031399	0.685012	0.587606
	N238	N	0.956967	0.326604	0.586411
	N239	N	0.031711	0.326815	0.415075
	N240	N	0.956673	0.419966	0.679408
	N241	N	0.032406	0.589919	0.678404
	N242	N	0.957455	0.589905	0.323882
	N243	N	0.032457	0.420296	0.323188
	N244	N	0.409641	0.683790	0.963104
	N245	N	0.580339	0.684615	0.037861
	N246	N	0.579973	0.327037	0.962913
	N247	N	0.408645	0.326741	0.037320
	N248	N	0.673038	0.967849	0.414998
	N249	N	0.672926	0.042431	0.585956
	N250	N	0.315034	0.968470	0.586689
	N251	N	0.315914	0.042701	0.415743
	N252	N	0.909192	0.468190	0.179884
	N253	N	0.079642	0.542940	0.179388
	N254	N	0.079793	0.468624	0.822642
	N255	N	0.909455	0.543327	0.822893
	N256	N	0.171420	0.920642	0.463549
	N257	N	0.171954	0.090435	0.538457
	N258	N	0.817204	0.089159	0.462820
	N259	N	0.815941	0.919700	0.538122
	N260	N	0.457298	0.183876	0.914908
	N261	N	0.531963	0.185350	0.086792
	N262	N	0.457639	0.827581	0.085480
	N263	N	0.531390	0.825924	0.913382
	N264	N	0.457068	0.921867	0.177265
	N265	N	0.532629	0.091368	0.178706
	N266	N	0.456478	0.090083	0.823107
	N267	N	0.531709	0.921130	0.822960
	N268	N	0.908809	0.183770	0.463306
	N269	N	0.079791	0.183902	0.537948
	N270	N	0.079473	0.827168	0.463608
	N271	N	0.908197	0.826403	0.537974
	N272	N	0.173562	0.468761	0.915049
	N273	N	0.173335	0.542837	0.086435
	N274	N	0.815497	0.468503	0.086665
	N275	N	0.815545	0.542995	0.915103
	O276	O	1.601139	-0.477902	0.493993
	H277	H	1.595997	-0.477933	0.493694
	H278	H	1.614081	-0.473980	0.497716
	O279	O	0.574269	0.516015	0.509840
	H280	H	0.575404	0.519429	0.505794
	H281	H	0.577615	0.515918	0.504035
	O282	O	0.585194	0.535904	0.504500
	H283	H	0.586997	0.535985	0.506716
	H284	H	0.584552	0.531049	0.507385
	O285	O	0.590078	0.533187	0.531467
	H286	H	0.594377	0.533606	0.534348
	H287	H	0.591284	0.531646	0.531047
