data_Molecule from HDF5

_cell_length_a		16.430210
_cell_length_b		16.279706
_cell_length_c		16.466170
_cell_angle_alpha	90.173849
_cell_angle_beta	89.853181
_cell_angle_gamma	89.975524
_symmetry_space_group_name_H-M	'P 1'
_symmetry_Int_Tables_number		1

loop_
	_symmetry_equiv_pos_as_xyz
	x,y,z

loop_
	_atom_site_label
	_atom_site_type_symbol
	_atom_site_fract_x
	_atom_site_fract_y
	_atom_site_fract_z
	H0	H	0.397282	0.838672	0.716094
	H1	H	0.603007	0.160467	0.714495
	H2	H	0.601977	0.837395	0.277459
	H3	H	0.396754	0.160330	0.279224
	H4	H	0.720775	0.395279	0.838312
	H5	H	0.719138	0.604997	0.156802
	H6	H	0.279678	0.603801	0.837320
	H7	H	0.280076	0.398077	0.156583
	H8	H	0.837606	0.714951	0.396770
	H9	H	0.160704	0.716729	0.596978
	H10	H	0.838862	0.281582	0.596441
	H11	H	0.159694	0.278242	0.391821
	H12	H	0.839742	0.395963	0.715866
	H13	H	0.158959	0.604539	0.717370
	H14	H	0.838613	0.600529	0.279417
	H15	H	0.158620	0.393131	0.274533
	H16	H	0.398727	0.717726	0.835844
	H17	H	0.599728	0.718178	0.157014
	H18	H	0.601628	0.281385	0.836805
	H19	H	0.396999	0.282612	0.157561
	H20	H	0.716385	0.836075	0.394438
	H21	H	0.715822	0.160629	0.595398
	H22	H	0.282565	0.837129	0.598855
	H23	H	0.279730	0.158877	0.393088
	H24	H	0.895361	0.337912	0.215414
	H25	H	0.101095	0.660164	0.216839
	H26	H	0.106065	0.339204	0.774909
	H27	H	0.896414	0.660397	0.778347
	H28	H	0.221277	0.891828	0.337214
	H29	H	0.219952	0.102703	0.654884
	H30	H	0.781187	0.100889	0.336830
	H31	H	0.778270	0.893579	0.654825
	H32	H	0.339094	0.217784	0.894874
	H33	H	0.659881	0.218633	0.098455
	H34	H	0.339167	0.783084	0.098056
	H35	H	0.659928	0.780768	0.894532
	H36	H	0.341227	0.894686	0.217722
	H37	H	0.659738	0.103856	0.216433
	H38	H	0.342052	0.107116	0.774393
	H39	H	0.658563	0.893175	0.774105
	H40	H	0.897922	0.216387	0.336608
	H41	H	0.104096	0.219058	0.655083
	H42	H	0.099886	0.780666	0.335483
	H43	H	0.899813	0.783560	0.657731
	H44	H	0.220064	0.338805	0.891909
	H45	H	0.215424	0.662138	0.099489
	H46	H	0.779227	0.338998	0.100256
	H47	H	0.781844	0.661490	0.895585
	H48	H	0.415055	0.112122	0.586378
	H49	H	0.586606	0.884869	0.586178
	H50	H	0.587603	0.112607	0.407932
	H51	H	0.410019	0.884869	0.411318
	H52	H	0.587380	0.407893	0.110118
	H53	H	0.580833	0.586636	0.887914
	H54	H	0.416227	0.594194	0.108252
	H55	H	0.408796	0.405694	0.882112
	H56	H	0.110996	0.583370	0.407061
	H57	H	0.887510	0.591985	0.583757
	H58	H	0.113419	0.410338	0.589194
	H59	H	0.888482	0.410315	0.409399
	H60	H	0.113869	0.406539	0.586679
	H61	H	0.887125	0.583595	0.590281
	H62	H	0.114074	0.589362	0.399770
	H63	H	0.886207	0.409180	0.401690
	H64	H	0.401460	0.597531	0.113753
	H65	H	0.593349	0.599761	0.879262
	H66	H	0.593606	0.410968	0.111501
	H67	H	0.406349	0.412646	0.883312
	H68	H	0.595870	0.113806	0.408053
	H69	H	0.590920	0.883647	0.584947
	H70	H	0.408596	0.112596	0.581911
	H71	H	0.408711	0.882253	0.402958
	H72	H	0.908022	0.611872	0.080584
	H73	H	0.087757	0.386713	0.081708
	H74	H	0.095654	0.616357	0.906133
	H75	H	0.914250	0.386863	0.906050
	H76	H	0.093830	0.907034	0.611609
	H77	H	0.088032	0.088367	0.383407
	H78	H	0.906709	0.086042	0.609049
	H79	H	0.906438	0.904414	0.381138
	H80	H	0.614496	0.091420	0.905205
	H81	H	0.384649	0.091908	0.091003
	H82	H	0.614220	0.898655	0.077784
	H83	H	0.389554	0.917618	0.907706
	H84	H	0.608682	0.923351	0.083556
	H85	H	0.386943	0.090213	0.086189
	H86	H	0.612566	0.089532	0.908542
	H87	H	0.383943	0.909743	0.899936
	H88	H	0.910812	0.088498	0.609005
	H89	H	0.092908	0.086857	0.382978
	H90	H	0.091402	0.912588	0.608750
	H91	H	0.906670	0.909387	0.382513
	H92	H	0.086144	0.614304	0.901528
	H93	H	0.094337	0.383639	0.086087
	H94	H	0.904056	0.617385	0.093118
	H95	H	0.909208	0.386339	0.911328
	H96	H	0.408269	0.115458	0.589317
	H97	H	0.589685	0.883352	0.588693
	H98	H	0.591218	0.115173	0.401446
	H99	H	0.417204	0.885898	0.405149
	H100	H	0.588129	0.414764	0.108715
	H101	H	0.599591	0.580899	0.884488
	H102	H	0.405093	0.581809	0.108191
	H103	H	0.413164	0.411037	0.885495
	H104	H	0.112941	0.592981	0.408415
	H105	H	0.883195	0.593149	0.593439
	H106	H	0.112159	0.410476	0.585001
	H107	H	0.884649	0.403223	0.406921
	H108	H	0.917833	0.612656	0.091359
	H109	H	0.086800	0.384767	0.090238
	H110	H	0.087766	0.611528	0.911875
	H111	H	0.908141	0.383181	0.904845
	H112	H	0.087845	0.906286	0.608619
	H113	H	0.089032	0.083355	0.384179
	H114	H	0.906871	0.090634	0.610605
	H115	H	0.910092	0.906383	0.383097
	H116	H	0.612711	0.087817	0.904926
	H117	H	0.386961	0.087073	0.090306
	H118	H	0.619131	0.907836	0.101037
	H119	H	0.386826	0.906348	0.910861
	C120	C	0.379177	0.007393	0.617698
	C121	C	0.620884	0.990196	0.617340
	C122	C	0.621897	0.007005	0.374471
	C123	C	0.379739	0.990337	0.375614
	C124	C	0.621451	0.378762	0.005163
	C125	C	0.621620	0.621458	0.988917
	C126	C	0.377412	0.622062	0.004483
	C127	C	0.377901	0.378733	0.988923
	C128	C	0.007025	0.619289	0.375580
	C129	C	0.991619	0.620755	0.618983
	C130	C	0.007732	0.377635	0.617777
	C131	C	0.991719	0.376175	0.374430
	C132	C	0.877942	0.507896	0.118738
	C133	C	0.120002	0.491600	0.117587
	C134	C	0.121679	0.507920	0.874697
	C135	C	0.879400	0.491541	0.876618
	C136	C	0.121828	0.876640	0.504289
	C137	C	0.121997	0.119212	0.487928
	C138	C	0.877963	0.119276	0.504536
	C139	C	0.877046	0.876195	0.487526
	C140	C	0.507875	0.121297	0.875328
	C141	C	0.491467	0.121494	0.119548
	C142	C	0.508383	0.878986	0.118131
	C143	C	0.492024	0.878808	0.874856
	C144	C	0.378462	0.886566	0.676515
	C145	C	0.621776	0.112033	0.675088
	C146	C	0.621559	0.885758	0.316257
	C147	C	0.377915	0.111816	0.318039
	C148	C	0.680840	0.376965	0.885706
	C149	C	0.680060	0.623595	0.108869
	C150	C	0.319084	0.622943	0.884844
	C151	C	0.319379	0.378776	0.108910
	C152	C	0.885936	0.676408	0.377297
	C153	C	0.112302	0.678720	0.617684
	C154	C	0.887102	0.320089	0.617016
	C155	C	0.111828	0.317750	0.373220
	C156	C	0.887595	0.376995	0.676334
	C157	C	0.111658	0.622313	0.677045
	C158	C	0.886366	0.619548	0.318626
	C159	C	0.111078	0.374728	0.314682
	C160	C	0.378542	0.679382	0.884101
	C161	C	0.620383	0.679714	0.109161
	C162	C	0.621759	0.320074	0.885054
	C163	C	0.377539	0.321236	0.109187
	C164	C	0.678543	0.885050	0.374247
	C165	C	0.678417	0.111774	0.616416
	C166	C	0.321183	0.885876	0.618507
	C167	C	0.319767	0.111101	0.374701
	C168	C	0.876494	0.386406	0.176563
	C169	C	0.120091	0.612587	0.176616
	C170	C	0.123826	0.387342	0.814991
	C171	C	0.878102	0.612576	0.818086
	C172	C	0.181257	0.874199	0.384812
	C173	C	0.181147	0.121679	0.607086
	C174	C	0.820360	0.119702	0.384418
	C175	C	0.818313	0.875344	0.607444
	C176	C	0.387564	0.179535	0.875513
	C177	C	0.611977	0.179690	0.118756
	C178	C	0.387625	0.821299	0.117880
	C179	C	0.611992	0.819778	0.874687
	C180	C	0.388632	0.876789	0.177568
	C181	C	0.611793	0.122685	0.177385
	C182	C	0.388926	0.124039	0.815588
	C183	C	0.611226	0.875559	0.814821
	C184	C	0.878358	0.177292	0.384377
	C185	C	0.123133	0.179563	0.607230
	C186	C	0.120723	0.818977	0.383836
	C187	C	0.878635	0.820307	0.608845
	C188	C	0.180814	0.387170	0.873236
	C189	C	0.177214	0.613349	0.118316
	C190	C	0.818796	0.386869	0.119342
	C191	C	0.821080	0.613228	0.876294
	C192	C	0.403520	0.091364	0.593037
	C193	C	0.596157	0.905939	0.593520
	C194	C	0.598555	0.091784	0.398766
	C195	C	0.404682	0.906230	0.399456
	C196	C	0.596637	0.403752	0.088582
	C197	C	0.598090	0.596285	0.905497
	C198	C	0.400838	0.598102	0.088269
	C199	C	0.402300	0.402785	0.905297
	C200	C	0.091196	0.595413	0.398533
	C201	C	0.907801	0.596330	0.595734
	C202	C	0.091420	0.401886	0.593972
	C203	C	0.907969	0.400470	0.398750
	C204	C	0.902636	0.591895	0.095153
	C205	C	0.096517	0.406968	0.093073
	C206	C	0.096981	0.592306	0.899330
	C207	C	0.903552	0.407483	0.900464
	C208	C	0.098047	0.901515	0.587972
	C209	C	0.097124	0.093643	0.405058
	C210	C	0.901589	0.095306	0.587935
	C211	C	0.900740	0.899906	0.403962
	C212	C	0.591472	0.096679	0.899319
	C213	C	0.407977	0.097074	0.095968
	C214	C	0.592091	0.903051	0.094286
	C215	C	0.408482	0.904026	0.899107
	Zn216	Zn	0.500231	0.000393	0.746077
	Zn217	Zn	0.500054	-0.000675	0.247370
	Zn218	Zn	0.750400	0.500222	-0.002576
	Zn219	Zn	0.248828	0.500116	-0.003340
	Zn220	Zn	-0.000664	0.748550	0.496066
	Zn221	Zn	0.000034	0.247603	0.495660
	Zn222	Zn	-0.000315	0.499267	0.747546
	Zn223	Zn	-0.001072	0.498535	0.246469
	Zn224	Zn	0.499856	0.750537	-0.003272
	Zn225	Zn	0.499338	0.249794	-0.002970
	Zn226	Zn	0.748996	-0.002077	0.495906
	Zn227	Zn	0.251397	-0.002295	0.495944
	N228	N	0.413418	0.963320	0.676490
	N229	N	0.587023	0.035203	0.676173
	N230	N	0.587189	0.962703	0.316205
	N231	N	0.414417	0.035919	0.318331
	N232	N	0.681002	0.412381	0.961659
	N233	N	0.680815	0.588053	0.032946
	N234	N	0.318146	0.588332	0.960834
	N235	N	0.319338	0.413673	0.032937
	N236	N	0.962186	0.676592	0.411715
	N237	N	0.036754	0.677693	0.582096
	N238	N	0.962821	0.320162	0.581531
	N239	N	0.036535	0.318466	0.409461
	N240	N	0.963876	0.411753	0.677154
	N241	N	0.035708	0.587104	0.678082
	N242	N	0.962614	0.584808	0.317461
	N243	N	0.035299	0.410455	0.315272
	N244	N	0.414091	0.678947	0.959582
	N245	N	0.584790	0.678619	0.033781
	N246	N	0.585694	0.321017	0.960414
	N247	N	0.413080	0.320989	0.033470
	N248	N	0.679127	0.961645	0.409340
	N249	N	0.677904	0.035056	0.581320
	N250	N	0.321232	0.962045	0.582922
	N251	N	0.320754	0.034481	0.409661
	N252	N	0.912610	0.462579	0.176331
	N253	N	0.085309	0.535843	0.176510
	N254	N	0.087854	0.463503	0.815745
	N255	N	0.913476	0.536080	0.817967
	N256	N	0.182001	0.909373	0.460801
	N257	N	0.180680	0.084994	0.531900
	N258	N	0.820116	0.084099	0.460045
	N259	N	0.817207	0.909282	0.531115
	N260	N	0.462637	0.177764	0.912230
	N261	N	0.536155	0.179437	0.083612
	N262	N	0.463042	0.822339	0.081656
	N263	N	0.536683	0.821655	0.911258
	N264	N	0.464780	0.911695	0.178040
	N265	N	0.535923	0.087335	0.178059
	N266	N	0.464676	0.088316	0.815596
	N267	N	0.535646	0.911746	0.814910
	N268	N	0.913552	0.177176	0.460019
	N269	N	0.086908	0.178148	0.532115
	N270	N	0.084611	0.820254	0.459155
	N271	N	0.914296	0.820512	0.533272
	N272	N	0.179604	0.463311	0.909687
	N273	N	0.177396	0.536948	0.082454
	N274	N	0.819542	0.463157	0.084078
	N275	N	0.821693	0.537124	0.912123
	O276	O	0.634584	0.429254	0.641641
	H277	H	0.629169	0.434975	0.640067
	H278	H	0.643702	0.433530	0.641620
	O279	O	0.598785	0.583703	0.404437
	H280	H	0.618497	0.573484	0.412942
	H281	H	0.593242	0.567140	0.399162
	O282	O	0.700343	0.538997	0.433767
	H283	H	0.694281	0.538366	0.451952
	H284	H	0.720788	0.554712	0.440648
	O285	O	0.855904	0.096115	-0.178573
	H286	H	0.848605	0.100909	-0.175119
	H287	H	0.855477	0.117267	-0.180416
	O288	O	-0.103742	0.075876	0.837677
	H289	H	-0.098817	0.085314	0.843926
	H290	H	-0.093469	0.086013	0.839381
	O291	O	0.357702	0.664788	0.456752
	H292	H	0.354714	0.679793	0.463450
	H293	H	0.371415	0.670343	0.457858
	O294	O	0.312565	0.516890	0.492114
	H295	H	0.309184	0.530521	0.480958
	H296	H	0.309825	0.518344	0.481641
	O297	O	0.930968	1.123662	1.085158
	H298	H	0.936526	1.137315	1.087625
	H299	H	0.950719	1.114313	1.077529
	O300	O	-0.037950	-0.023474	-0.043373
	H301	H	-0.042521	-0.023884	-0.037987
	H302	H	-0.039109	-0.019441	-0.039263
	O303	O	0.459165	0.467819	0.526843
	H304	H	0.470597	0.463851	0.519218
	H305	H	0.440434	0.470782	0.512518
	O306	O	0.996327	0.096372	0.001716
	H307	H	0.987329	0.097670	0.001130
	H308	H	0.995398	0.117057	0.010542
	O309	O	0.441717	0.562034	0.391525
	H310	H	0.436197	0.573786	0.395412
	H311	H	0.441664	0.553159	0.384763
	O312	O	1.150634	1.166592	0.135428
	H313	H	1.144562	1.146744	0.140214
	H314	H	1.157307	1.179414	0.102266
	O315	O	0.434877	0.453962	0.536485
	H316	H	0.439089	0.446001	0.521782
	H317	H	0.419052	0.446744	0.541367
	O318	O	0.585092	0.586512	0.579293
	H319	H	0.594851	0.588526	0.573180
	H320	H	0.572136	0.583824	0.578729
	O321	O	0.886880	-0.040545	0.805937
	H322	H	0.881507	-0.029001	0.799126
	H323	H	0.877869	-0.017843	0.807187
	O324	O	0.188272	-0.071239	1.049640
	H325	H	0.195065	-0.078323	1.054415
	H326	H	0.183386	-0.087278	1.055217
	O327	O	0.490694	0.446736	0.329736
	H328	H	0.494746	0.450096	0.327595
	H329	H	0.489650	0.452640	0.323693
	O330	O	0.324385	0.333667	0.570917
	H331	H	0.326947	0.337099	0.569668
	H332	H	0.328292	0.331906	0.562791
	O333	O	1.036923	1.160725	0.980041
	H334	H	1.050995	1.153359	0.989166
	H335	H	1.047890	1.171527	0.967533
	O336	O	0.537047	0.313684	0.508533
	H337	H	0.546891	0.300293	0.503497
	H338	H	0.539146	0.330957	0.508782
	O339	O	0.855615	0.163929	0.968270
	H340	H	0.856323	0.172216	0.957380
	H341	H	0.848815	0.164427	0.978392
	O342	O	-0.063082	0.832097	1.037829
	H343	H	-0.079904	0.833661	1.038298
	H344	H	-0.050573	0.836111	1.045990
	O345	O	0.034432	0.916894	0.867962
	H346	H	0.031187	0.915239	0.862392
	H347	H	0.010245	0.921946	0.870291
	O348	O	0.536066	0.558138	0.691384
	H349	H	0.536165	0.553034	0.700621
	H350	H	0.524077	0.549160	0.691070
	O351	O	-0.099356	0.158583	-0.125006
	H352	H	-0.085959	0.148329	-0.133378
	H353	H	-0.089745	0.169654	-0.146140
	O354	O	1.038366	0.893506	0.118046
	H355	H	1.038028	0.897969	0.126447
	H356	H	1.014328	0.879339	0.119009
	O357	O	-0.093349	1.112258	0.140209
	H358	H	-0.092241	1.105446	0.128207
	H359	H	-0.087573	1.110689	0.141981
	O360	O	0.491824	0.609842	0.538328
	H361	H	0.490709	0.607042	0.535451
	H362	H	0.492991	0.606363	0.526066
	O363	O	0.645623	0.532324	0.469283
	H364	H	0.665732	0.530890	0.470821
	H365	H	0.640159	0.517234	0.475297
	O366	O	0.612282	0.353842	0.408182
	H367	H	0.599067	0.356484	0.414838
	H368	H	0.604383	0.362754	0.399825
	O369	O	0.433253	0.682664	0.362119
	H370	H	0.437798	0.686763	0.358200
	H371	H	0.443936	0.671196	0.342021
	O372	O	0.501758	0.473063	0.556138
	H373	H	0.500108	0.474468	0.561801
	H374	H	0.489793	0.469348	0.568800
	O375	O	0.419233	0.540110	0.635664
	H376	H	0.423953	0.532009	0.626298
	H377	H	0.407858	0.544706	0.643783
	O378	O	0.566814	0.417619	0.349145
	H379	H	0.563190	0.405677	0.327337
	H380	H	0.558807	0.416863	0.362176
	O381	O	0.340032	0.557199	0.620239
	H382	H	0.330411	0.556850	0.611230
	H383	H	0.341749	0.566520	0.616901
	O384	O	0.102524	0.855359	0.805756
	H385	H	0.102974	0.862593	0.803012
	H386	H	0.094034	0.831882	0.807843
	O387	O	1.032911	1.027349	-0.017052
	H388	H	1.028494	1.027241	-0.019240
	H389	H	1.046563	1.015920	-0.027223
	O390	O	0.578692	0.458707	0.447762
	H391	H	0.579194	0.454223	0.438555
	H392	H	0.583843	0.461769	0.452367
	O393	O	1.133915	-0.071502	1.030672
	H394	H	1.144738	-0.068995	1.018569
	H395	H	1.118711	-0.110228	1.040801
	O396	O	0.132062	0.959680	0.856668
	H397	H	0.131515	0.950040	0.853105
	H398	H	0.146775	0.939345	0.850175
	O399	O	0.603627	0.565641	0.619447
	H400	H	0.583235	0.572273	0.624260
	H401	H	0.604934	0.556566	0.626402
	O402	O	1.063470	-0.189120	0.901228
	H403	H	1.052022	-0.190546	0.891483
	H404	H	1.078327	-0.197105	0.920554
	O405	O	0.099070	-0.020315	0.044065
	H406	H	0.091712	-0.012601	0.036186
	H407	H	0.104238	-0.024994	0.048449
	O408	O	0.982556	0.865329	1.140341
	H409	H	0.969728	0.877990	1.145211
	H410	H	0.975295	0.867825	1.122304
	O411	O	1.142814	1.085559	0.179716
	H412	H	1.139059	1.103135	0.190133
	H413	H	1.168180	1.088702	0.192499
	O414	O	-0.183045	-0.073862	1.140081
	H415	H	-0.192377	-0.059699	1.130598
	H416	H	-0.194228	-0.060153	1.146609
	O417	O	0.373279	0.307630	0.539298
	H418	H	0.370787	0.330210	0.555501
	H419	H	0.378611	0.293520	0.538319
	O420	O	0.168253	1.053420	-0.101670
	H421	H	0.172049	1.025598	-0.111481
	H422	H	0.177659	1.038096	-0.100304
	O423	O	0.834348	-0.088540	0.034239
	H424	H	0.832866	-0.078426	0.034173
	H425	H	0.832294	-0.098776	0.031553
	O426	O	-0.150134	-0.032615	1.069775
	H427	H	-0.137168	-0.019300	1.062662
	H428	H	-0.157512	-0.039862	1.057375
	O429	O	0.479146	0.528938	0.400684
	H430	H	0.486277	0.527611	0.392930
	H431	H	0.478095	0.541964	0.415542
