data_Molecule from HDF5

_cell_length_a		16.528733
_cell_length_b		16.643705
_cell_length_c		16.500290
_cell_angle_alpha	89.994197
_cell_angle_beta	90.089806
_cell_angle_gamma	90.070680
_symmetry_space_group_name_H-M	'P 1'
_symmetry_Int_Tables_number		1

loop_
	_symmetry_equiv_pos_as_xyz
	x,y,z

loop_
	_atom_site_label
	_atom_site_type_symbol
	_atom_site_fract_x
	_atom_site_fract_y
	_atom_site_fract_z
	H0	H	0.386868	0.855700	0.724212
	H1	H	0.597201	0.168433	0.723904
	H2	H	0.596480	0.855845	0.279641
	H3	H	0.386566	0.167436	0.281161
	H4	H	0.712097	0.407504	0.844376
	H5	H	0.711467	0.615814	0.159071
	H6	H	0.267557	0.618488	0.845668
	H7	H	0.271916	0.408570	0.159668
	H8	H	0.834788	0.731638	0.398311
	H9	H	0.147821	0.734479	0.609780
	H10	H	0.835559	0.289467	0.608622
	H11	H	0.147671	0.289060	0.396395
	H12	H	0.834629	0.407387	0.722178
	H13	H	0.149192	0.616508	0.724026
	H14	H	0.834102	0.614015	0.283368
	H15	H	0.147905	0.405533	0.280860
	H16	H	0.383217	0.735719	0.845610
	H17	H	0.595633	0.732488	0.159052
	H18	H	0.598066	0.289320	0.845761
	H19	H	0.386755	0.291632	0.158885
	H20	H	0.712074	0.855235	0.398515
	H21	H	0.712195	0.168586	0.605370
	H22	H	0.269360	0.855877	0.608381
	H23	H	0.269956	0.167013	0.397492
	H24	H	0.885417	0.356953	0.223466
	H25	H	0.098382	0.667161	0.225366
	H26	H	0.100672	0.356993	0.776605
	H27	H	0.888088	0.668201	0.781822
	H28	H	0.213213	0.905035	0.346322
	H29	H	0.213009	0.115875	0.660342
	H30	H	0.773043	0.114342	0.344884
	H31	H	0.772674	0.908830	0.661176
	H32	H	0.334633	0.235287	0.894174
	H33	H	0.646726	0.233403	0.108059
	H34	H	0.334540	0.788480	0.108346
	H35	H	0.645524	0.789654	0.895913
	H36	H	0.334743	0.904434	0.225235
	H37	H	0.647674	0.114987	0.221953
	H38	H	0.334687	0.117319	0.779603
	H39	H	0.648211	0.909172	0.782953
	H40	H	0.886376	0.233042	0.346838
	H41	H	0.099215	0.234593	0.659242
	H42	H	0.098591	0.787400	0.346959
	H43	H	0.886579	0.790143	0.659958
	H44	H	0.217188	0.356743	0.893364
	H45	H	0.213870	0.667450	0.107441
	H46	H	0.769266	0.356572	0.106535
	H47	H	0.769626	0.667324	0.896852
	H48	H	0.404830	0.122707	0.592847
	H49	H	0.580685	0.902154	0.588940
	H50	H	0.575399	0.121819	0.410858
	H51	H	0.406315	0.901789	0.415311
	H52	H	0.580439	0.421024	0.114326
	H53	H	0.585046	0.604496	0.886949
	H54	H	0.408140	0.595864	0.110085
	H55	H	0.397649	0.430794	0.889924
	H56	H	0.102733	0.599406	0.416343
	H57	H	0.880792	0.596149	0.593254
	H58	H	0.102575	0.420496	0.583454
	H59	H	0.878187	0.421370	0.410577
	H60	H	0.101873	0.430130	0.591363
	H61	H	0.877420	0.603930	0.596360
	H62	H	0.103302	0.599145	0.414023
	H63	H	0.878962	0.418619	0.415239
	H64	H	0.406403	0.607038	0.114823
	H65	H	0.579834	0.595709	0.890778
	H66	H	0.581457	0.423391	0.114159
	H67	H	0.412574	0.425425	0.893498
	H68	H	0.583400	0.121651	0.419423
	H69	H	0.585027	0.898397	0.594446
	H70	H	0.402983	0.121768	0.588145
	H71	H	0.398866	0.900027	0.416760
	H72	H	0.904809	0.623259	0.093451
	H73	H	0.079287	0.397230	0.101532
	H74	H	0.080062	0.622327	0.912463
	H75	H	0.906076	0.399591	0.908504
	H76	H	0.076635	0.920310	0.614446
	H77	H	0.070581	0.097976	0.394537
	H78	H	0.901100	0.103889	0.617545
	H79	H	0.903699	0.926479	0.391786
	H80	H	0.601522	0.101092	0.919461
	H81	H	0.378440	0.103444	0.089731
	H82	H	0.606883	0.910601	0.092019
	H83	H	0.378204	0.918733	0.919812
	H84	H	0.597816	0.925672	0.080547
	H85	H	0.378705	0.100361	0.090153
	H86	H	0.602186	0.097873	0.911722
	H87	H	0.381390	0.931591	0.915531
	H88	H	0.901052	0.099331	0.616051
	H89	H	0.081154	0.109363	0.387652
	H90	H	0.082600	0.922272	0.615590
	H91	H	0.905886	0.915313	0.389631
	H92	H	0.077223	0.620034	0.914893
	H93	H	0.071656	0.405607	0.086230
	H94	H	0.900094	0.623938	0.088393
	H95	H	0.903810	0.402632	0.917925
	H96	H	0.399897	0.123963	0.591770
	H97	H	0.577722	0.900631	0.596155
	H98	H	0.586101	0.125487	0.408974
	H99	H	0.402076	0.898602	0.410018
	H100	H	0.578541	0.423390	0.114357
	H101	H	0.574304	0.605275	0.889892
	H102	H	0.397314	0.598671	0.114907
	H103	H	0.401514	0.415209	0.886345
	H104	H	0.104136	0.601029	0.415203
	H105	H	0.880148	0.603219	0.586981
	H106	H	0.106755	0.419581	0.595140
	H107	H	0.881381	0.423655	0.415179
	H108	H	0.898559	0.625840	0.095026
	H109	H	0.089778	0.399914	0.085722
	H110	H	0.080700	0.621614	0.916968
	H111	H	0.896393	0.398020	0.912110
	H112	H	0.078265	0.926268	0.613054
	H113	H	0.086572	0.093227	0.390619
	H114	H	0.905091	0.101737	0.615483
	H115	H	0.894929	0.919365	0.387899
	H116	H	0.604668	0.105666	0.913532
	H117	H	0.376930	0.101788	0.091953
	H118	H	0.603229	0.929389	0.100814
	H119	H	0.375273	0.922533	0.906580
	C120	C	0.370094	0.019977	0.623843
	C121	C	0.613343	1.003730	0.624496
	C122	C	0.613554	0.020078	0.380612
	C123	C	0.369862	1.002896	0.381191
	C124	C	0.612316	0.390736	0.010619
	C125	C	0.611869	0.633431	0.993257
	C126	C	0.370323	0.633403	0.009770
	C127	C	0.370862	0.391422	0.993606
	C128	C	-0.000429	0.631634	0.382691
	C129	C	0.983341	0.633283	0.624658
	C130	C	0.000250	0.390849	0.623008
	C131	C	0.982868	0.389496	0.381075
	C132	C	0.869400	0.521018	0.123779
	C133	C	0.112913	0.503707	0.123971
	C134	C	0.113487	0.519475	0.880626
	C135	C	0.870181	0.503219	0.880861
	C136	C	0.112272	0.889929	0.511015
	C137	C	0.112599	0.132744	0.494722
	C138	C	0.870840	0.132574	0.511907
	C139	C	0.870248	0.889928	0.494498
	C140	C	0.499392	0.134281	0.881130
	C141	C	0.482087	0.132946	0.122726
	C142	C	0.499193	0.889440	0.123814
	C143	C	0.482153	0.891977	0.881533
	C144	C	0.368411	0.902516	0.684065
	C145	C	0.615345	0.121548	0.683576
	C146	C	0.614994	0.902563	0.320456
	C147	C	0.367831	0.120292	0.321056
	C148	C	0.672147	0.389041	0.891970
	C149	C	0.671383	0.634564	0.111930
	C150	C	0.308592	0.636614	0.892280
	C151	C	0.311137	0.389603	0.112163
	C152	C	0.881566	0.691234	0.380504
	C153	C	0.101161	0.693668	0.627695
	C154	C	0.882567	0.329994	0.626044
	C155	C	0.100617	0.329026	0.378092
	C156	C	0.882025	0.388829	0.682650
	C157	C	0.101676	0.635055	0.684541
	C158	C	0.881325	0.633073	0.323120
	C159	C	0.100677	0.387226	0.320889
	C160	C	0.365952	0.694843	0.892333
	C161	C	0.613842	0.692476	0.111939
	C162	C	0.615635	0.330088	0.892545
	C163	C	0.368348	0.331602	0.111882
	C164	C	0.672553	0.902047	0.379270
	C165	C	0.672627	0.121559	0.624768
	C166	C	0.309763	0.902714	0.626618
	C167	C	0.309993	0.120396	0.379154
	C168	C	0.867528	0.403567	0.183251
	C169	C	0.116100	0.620677	0.184681
	C170	C	0.118147	0.403358	0.817722
	C171	C	0.868957	0.621026	0.821279
	C172	C	0.173152	0.886879	0.393264
	C173	C	0.172807	0.134378	0.613081
	C174	C	0.812151	0.133319	0.392821
	C175	C	0.811915	0.889420	0.613457
	C176	C	0.381655	0.194827	0.876917
	C177	C	0.599948	0.193007	0.125718
	C178	C	0.381558	0.828893	0.126824
	C179	C	0.599410	0.830825	0.878388
	C180	C	0.381463	0.886658	0.184635
	C181	C	0.600359	0.134081	0.182333
	C182	C	0.381467	0.136177	0.819968
	C183	C	0.600690	0.890151	0.822168
	C184	C	0.868653	0.192326	0.393557
	C185	C	0.116588	0.193379	0.612652
	C186	C	0.116300	0.828194	0.393905
	C187	C	0.868834	0.830698	0.613059
	C188	C	0.176139	0.403397	0.875933
	C189	C	0.173904	0.620646	0.126377
	C190	C	0.809516	0.403607	0.125236
	C191	C	0.810116	0.620618	0.878383
	C192	C	0.395302	0.101642	0.598229
	C193	C	0.588431	0.921687	0.600022
	C194	C	0.588664	0.101708	0.405759
	C195	C	0.395229	0.921326	0.406796
	C196	C	0.587215	0.415513	0.092878
	C197	C	0.586658	0.608834	0.910555
	C198	C	0.396502	0.607762	0.091928
	C199	C	0.396436	0.416704	0.911396
	C200	C	0.082051	0.606849	0.407912
	C201	C	0.900976	0.608337	0.599446
	C202	C	0.082416	0.416138	0.597287
	C203	C	0.900872	0.414373	0.406533
	C204	C	0.894003	0.603000	0.099181
	C205	C	0.087387	0.422189	0.098407
	C206	C	0.086923	0.600226	0.907282
	C207	C	0.894965	0.421467	0.905922
	C208	C	0.086406	0.915600	0.593090
	C209	C	0.086699	0.107523	0.412519
	C210	C	0.895538	0.108654	0.594782
	C211	C	0.894546	0.913708	0.411391
	C212	C	0.581368	0.108919	0.907255
	C213	C	0.399402	0.108544	0.097898
	C214	C	0.581130	0.914688	0.098452
	C215	C	0.399664	0.917102	0.906747
	Zn216	Zn	0.491310	0.012710	0.753089
	Zn217	Zn	0.490624	0.011340	0.251776
	Zn218	Zn	0.740184	0.512464	0.001772
	Zn219	Zn	0.242134	0.512229	0.002182
	Zn220	Zn	-0.008193	0.761165	0.502951
	Zn221	Zn	-0.007735	0.261158	0.502996
	Zn222	Zn	-0.008188	0.511319	0.752059
	Zn223	Zn	-0.008158	0.511482	0.252994
	Zn224	Zn	0.490644	0.762108	0.001832
	Zn225	Zn	0.490918	0.262553	0.001946
	Zn226	Zn	0.742246	0.011260	0.502858
	Zn227	Zn	0.240644	0.011432	0.502780
	N228	N	0.405278	0.976571	0.682431
	N229	N	0.579311	0.047195	0.683765
	N230	N	0.579145	0.976953	0.320884
	N231	N	0.404290	0.046104	0.322070
	N232	N	0.670326	0.425953	0.966447
	N233	N	0.670432	0.598795	0.036985
	N234	N	0.311514	0.598850	0.966075
	N235	N	0.312353	0.425906	0.037432
	N236	N	0.956223	0.690266	0.417006
	N237	N	0.026558	0.692662	0.591210
	N238	N	0.957262	0.331077	0.589822
	N239	N	0.026291	0.330043	0.414829
	N240	N	0.956185	0.426048	0.680841
	N241	N	0.027211	0.598335	0.682914
	N242	N	0.955892	0.596844	0.324263
	N243	N	0.026449	0.423940	0.322471
	N244	N	0.403568	0.692763	0.966568
	N245	N	0.577587	0.691978	0.036927
	N246	N	0.579160	0.330891	0.967289
	N247	N	0.404386	0.332283	0.036960
	N248	N	0.671794	0.975982	0.415849
	N249	N	0.671835	0.047047	0.589278
	N250	N	0.310908	0.976668	0.589826
	N251	N	0.310871	0.046221	0.415475
	N252	N	0.904204	0.477545	0.182514
	N253	N	0.079275	0.546730	0.183509
	N254	N	0.079949	0.476381	0.820509
	N255	N	0.905474	0.546910	0.822374
	N256	N	0.170890	0.924546	0.467350
	N257	N	0.170601	0.097633	0.538632
	N258	N	0.813556	0.096878	0.467423
	N259	N	0.812518	0.925154	0.538517
	N260	N	0.456143	0.193782	0.914078
	N261	N	0.525272	0.192493	0.089292
	N262	N	0.455770	0.830557	0.089859
	N263	N	0.524678	0.831854	0.914578
	N264	N	0.455626	0.923748	0.182920
	N265	N	0.525971	0.097358	0.180659
	N266	N	0.455706	0.099274	0.822389
	N267	N	0.526667	0.927507	0.824190
	N268	N	0.904492	0.192190	0.468720
	N269	N	0.079854	0.192507	0.537927
	N270	N	0.079392	0.829839	0.468257
	N271	N	0.903987	0.830404	0.537691
	N272	N	0.173258	0.476648	0.914457
	N273	N	0.172179	0.546846	0.089388
	N274	N	0.810385	0.477721	0.089001
	N275	N	0.810660	0.546345	0.914575
	O276	O	1.446150	0.726596	-0.353911
	H277	H	1.441674	0.726601	-0.359164
	H278	H	1.458556	0.732391	-0.352299
	O279	O	-0.221642	-0.024371	1.216272
	H280	H	-0.229173	-0.041492	1.228005
	H281	H	-0.232147	-0.040806	1.233203
	O282	O	0.344123	0.325576	0.478533
	H283	H	0.339998	0.353078	0.479905
	H284	H	0.345289	0.315483	0.476068
	O285	O	0.193234	-0.109222	0.965740
	H286	H	0.198265	-0.099458	0.973255
	H287	H	0.196552	-0.113812	0.961581
	O288	O	0.775531	-0.198706	1.030433
	H289	H	0.790225	-0.206382	1.024624
	H290	H	0.766055	-0.211156	1.031112
	O291	O	0.226835	0.249304	1.237767
	H292	H	0.223387	0.254264	1.233521
	H293	H	0.234678	0.253729	1.230787
	O294	O	0.207308	0.071131	0.026108
	H295	H	0.213323	0.081518	0.017563
	H296	H	0.203847	0.066541	0.038536
	O297	O	0.562868	0.714148	0.317211
	H298	H	0.563128	0.706958	0.317099
	H299	H	0.566802	0.713210	0.337038
	O300	O	0.284747	0.462872	-0.289956
	H301	H	0.285928	0.449442	-0.278942
	H302	H	0.280765	0.432747	-0.293285
	O303	O	-0.204244	0.209293	-0.193865
	H304	H	-0.208568	0.212582	-0.200419
	H305	H	-0.202953	0.219862	-0.169565
	O306	O	0.930522	-0.188838	-0.025854
	H307	H	0.945033	-0.188701	-0.008548
	H308	H	0.946947	-0.193460	-0.035127
	O309	O	0.539734	0.434732	0.328944
	H310	H	0.529072	0.446610	0.329306
	H311	H	0.528865	0.425159	0.324983
	O312	O	0.544623	0.359520	0.527505
	H313	H	0.544576	0.359884	0.527335
	H314	H	0.561107	0.357708	0.522977
	O315	O	0.702721	0.541669	0.714624
	H316	H	0.714558	0.548837	0.724197
	H317	H	0.705676	0.551957	0.718031
	O318	O	1.295249	0.713367	0.311128
	H319	H	1.320026	0.702728	0.319663
	H320	H	1.303229	0.718001	0.348245
	O321	O	0.576027	0.563304	0.464270
	H322	H	0.557328	0.545424	0.477317
	H323	H	0.582534	0.556492	0.469030
	O324	O	1.202985	0.224275	1.093023
	H325	H	1.235041	0.256199	1.101861
	H326	H	1.189711	0.220674	1.058552
	O327	O	0.801304	0.822697	0.823937
	H328	H	0.815685	0.831864	0.849679
	H329	H	0.818162	0.843859	0.840002
	O330	O	0.575177	0.542063	0.333527
	H331	H	0.586436	0.542022	0.328549
	H332	H	0.557678	0.551938	0.336334
	O333	O	0.295044	0.637550	0.619575
	H334	H	0.288542	0.626815	0.641970
	H335	H	0.316805	0.611880	0.618148
	O336	O	0.543800	0.299033	0.335104
	H337	H	0.521999	0.296459	0.324839
	H338	H	0.552552	0.282904	0.334234
	O339	O	0.694699	0.719121	0.705789
	H340	H	0.692055	0.736979	0.730183
	H341	H	0.695037	0.712834	0.718986
	O342	O	0.056163	0.955826	0.085334
	H343	H	0.057476	0.955221	0.101333
	H344	H	0.068529	0.972800	0.080537
	O345	O	0.053012	-0.155014	0.006681
	H346	H	0.068236	-0.157749	0.013026
	H347	H	0.055996	-0.142985	-0.001457
	O348	O	0.592756	0.366639	0.497896
	H349	H	0.603871	0.370334	0.516786
	H350	H	0.609962	0.366247	0.485863
	O351	O	0.186222	-0.152432	1.090245
	H352	H	0.207528	-0.171998	1.111691
	H353	H	0.179218	-0.129324	1.096084
	O354	O	1.013287	0.232549	1.219225
	H355	H	1.022908	0.231013	1.220396
	H356	H	1.029376	0.241950	1.239237
	O357	O	0.666882	0.350470	0.645531
	H358	H	0.658263	0.358379	0.616392
	H359	H	0.661095	0.370095	0.641615
	O360	O	0.336183	0.477946	0.362197
	H361	H	0.346556	0.496676	0.355007
	H362	H	0.330984	0.488217	0.357008
	O363	O	0.791226	0.810435	0.206617
	H364	H	0.804208	0.800651	0.173864
	H365	H	0.764330	0.795255	0.230706
	O366	O	0.779664	0.124743	0.903452
	H367	H	0.762902	0.129653	0.886688
	H368	H	0.782845	0.143575	0.912508
	O369	O	0.004676	0.077479	1.031832
	H370	H	0.023119	0.086016	1.029780
	H371	H	0.001980	0.064596	1.021588
	O372	O	0.069126	1.050765	0.953478
	H373	H	0.068060	1.037332	0.960663
	H374	H	0.072461	1.041372	0.953548
	O375	O	0.982977	0.118349	-0.095131
	H376	H	0.976564	0.110988	-0.103388
	H377	H	0.975696	0.117795	-0.082839
	O378	O	0.677280	0.321138	0.369470
	H379	H	0.684592	0.326810	0.374624
	H380	H	0.679174	0.307620	0.355484
	O381	O	0.060481	0.883719	0.165200
	H382	H	0.053317	0.896015	0.173631
	H383	H	0.075369	0.875798	0.175458
	O384	O	0.449676	0.537985	0.724752
	H385	H	0.444600	0.537632	0.730682
	H386	H	0.450361	0.533304	0.728425
	O387	O	0.190376	0.819765	0.804798
	H388	H	0.190548	0.816847	0.815597
	H389	H	0.194074	0.848078	0.818181
	O390	O	0.538579	0.604978	0.713296
	H391	H	0.517673	0.621289	0.716676
	H392	H	0.521437	0.602067	0.701654
	O393	O	1.192928	0.008078	-0.199089
	H394	H	1.194580	0.004360	-0.184399
	H395	H	1.183197	0.008526	-0.211697
	O396	O	0.710557	0.733438	0.534866
	H397	H	0.711304	0.733509	0.572020
	H398	H	0.736256	0.753399	0.545246
	O399	O	0.281991	0.718510	0.478985
	H400	H	0.256658	0.720032	0.494338
	H401	H	0.284529	0.708432	0.501771
	O402	O	1.107561	0.149530	0.820382
	H403	H	1.090488	0.150189	0.825124
	H404	H	1.106327	0.129232	0.827031
	O405	O	0.713080	0.543261	0.469663
	H406	H	0.708039	0.540740	0.453288
	H407	H	0.725349	0.554301	0.464078
	O408	O	0.872818	1.113238	1.105573
	H409	H	0.875427	1.099737	1.111467
	H410	H	0.869436	1.107498	1.110672
	O411	O	1.211691	1.036499	0.222006
	H412	H	1.212522	1.052176	0.229632
	H413	H	1.226877	1.058800	0.237391
	O414	O	-0.143710	0.167815	-0.036366
	H415	H	-0.161621	0.170836	-0.020610
	H416	H	-0.135163	0.164374	-0.026859
	O417	O	0.347246	0.544250	0.293476
	H418	H	0.345973	0.553531	0.293383
	H419	H	0.343150	0.553631	0.273731
	O420	O	0.965063	0.232302	0.789191
	H421	H	0.963847	0.250204	0.761945
	H422	H	0.953091	0.225655	0.794827
	O423	O	0.979899	0.856291	0.175584
	H424	H	0.959636	0.856683	0.181621
	H425	H	0.971629	0.842584	0.188931
	O426	O	0.292966	0.314811	0.662463
	H427	H	0.279859	0.290175	0.675506
	H428	H	0.302915	0.314599	0.636515
	O429	O	0.421688	0.635606	0.428462
	H430	H	0.413721	0.637606	0.422749
	H431	H	0.429397	0.630609	0.446917
	O432	O	0.850582	0.008717	0.921777
	H433	H	0.843050	0.003445	0.935226
	H434	H	0.847577	0.003677	0.913452
	O435	O	0.675128	0.437423	0.302515
	H436	H	0.690284	0.426587	0.284406
	H437	H	0.666212	0.426730	0.307209
	O438	O	0.420088	0.465410	0.322964
	H439	H	0.409651	0.471447	0.331515
	H440	H	0.422634	0.485834	0.321711
	O441	O	0.789666	0.213390	0.198524
	H442	H	0.822654	0.215270	0.197024
	H443	H	0.783685	0.199237	0.185343
	O444	O	0.315240	0.556937	0.502280
	H445	H	0.313527	0.549298	0.500587
	H446	H	0.317500	0.558501	0.505176
	O447	O	0.606354	0.574154	0.564524
	H448	H	0.605497	0.588825	0.585308
	H449	H	0.608267	0.579212	0.538674
	O450	O	0.770378	0.019228	0.013292
	H451	H	0.765573	0.004892	0.026169
	H452	H	0.771292	0.011157	0.018524
	O453	O	0.387519	0.297664	0.626292
	H454	H	0.370900	0.266794	0.632523
	H455	H	0.396375	0.304237	0.627343
	O456	O	-0.030209	1.020513	1.221312
	H457	H	-0.034546	1.016621	1.223161
	H458	H	-0.024430	1.030685	1.224411
	O459	O	0.491437	0.417549	0.718102
	H460	H	0.502218	0.420805	0.721582
	H461	H	0.499838	0.398999	0.731073
	O462	O	0.945273	0.977002	-0.038542
	H463	H	0.942101	0.987118	-0.043206
	H464	H	0.941049	0.989959	-0.037534
	O465	O	0.518520	0.531704	0.463224
	H466	H	0.527030	0.539554	0.468277
	H467	H	0.512409	0.526705	0.472902
	O468	O	-0.051160	0.949747	-0.216305
	H469	H	-0.065539	0.949191	-0.224013
	H470	H	-0.045553	0.943500	-0.214475
	O471	O	0.490650	0.629283	0.495670
	H472	H	0.491305	0.616714	0.516537
	H473	H	0.496274	0.632500	0.503884
	O474	O	1.023560	1.244845	-0.055875
	H475	H	1.002311	1.245546	-0.064180
	H476	H	1.013002	1.247140	-0.043178
	O477	O	0.035007	-0.182920	0.805329
	H478	H	0.058180	-0.164623	0.805151
	H479	H	0.027741	-0.212419	0.776636
