data_Molecule from HDF5

_cell_length_a		16.407077
_cell_length_b		16.255365
_cell_length_c		16.246419
_cell_angle_alpha	89.753564
_cell_angle_beta	89.923642
_cell_angle_gamma	90.019139
_symmetry_space_group_name_H-M	'P 1'
_symmetry_Int_Tables_number		1

loop_
	_symmetry_equiv_pos_as_xyz
	x,y,z

loop_
	_atom_site_label
	_atom_site_type_symbol
	_atom_site_fract_x
	_atom_site_fract_y
	_atom_site_fract_z
	H0	H	0.412117	0.835667	0.703172
	H1	H	0.608560	0.163868	0.703807
	H2	H	0.606918	0.836161	0.275810
	H3	H	0.411651	0.164449	0.273677
	H4	H	0.726611	0.401166	0.826854
	H5	H	0.725152	0.599932	0.152885
	H6	H	0.293976	0.603989	0.826165
	H7	H	0.292451	0.400164	0.151693
	H8	H	0.846558	0.717402	0.389028
	H9	H	0.171300	0.716439	0.585761
	H10	H	0.846619	0.285077	0.589473
	H11	H	0.170860	0.285164	0.387081
	H12	H	0.846767	0.401839	0.705317
	H13	H	0.171202	0.601940	0.703239
	H14	H	0.846859	0.600763	0.272273
	H15	H	0.171244	0.403653	0.273174
	H16	H	0.414170	0.714869	0.825024
	H17	H	0.607023	0.713408	0.153999
	H18	H	0.609789	0.286918	0.825560
	H19	H	0.411242	0.286418	0.152618
	H20	H	0.725251	0.837573	0.389888
	H21	H	0.724864	0.164424	0.588461
	H22	H	0.293490	0.837344	0.589615
	H23	H	0.293563	0.163551	0.386851
	H24	H	0.911137	0.338341	0.204549
	H25	H	0.107183	0.665866	0.200139
	H26	H	0.108309	0.338405	0.774470
	H27	H	0.911237	0.666693	0.773837
	H28	H	0.226056	0.901346	0.325210
	H29	H	0.225844	0.101274	0.651782
	H30	H	0.792424	0.103936	0.326024
	H31	H	0.792573	0.898178	0.651822
	H32	H	0.346887	0.218494	0.887899
	H33	H	0.671476	0.216433	0.087930
	H34	H	0.346395	0.786026	0.087821
	H35	H	0.672156	0.785639	0.891040
	H36	H	0.347120	0.901627	0.204263
	H37	H	0.671831	0.098492	0.202210
	H38	H	0.346855	0.099944	0.772595
	H39	H	0.672705	0.901273	0.773622
	H40	H	0.911622	0.216050	0.324330
	H41	H	0.107229	0.215094	0.652460
	H42	H	0.107039	0.789552	0.323874
	H43	H	0.911759	0.786312	0.652126
	H44	H	0.226016	0.339534	0.888164
	H45	H	0.225611	0.663976	0.087414
	H46	H	0.793118	0.339229	0.092040
	H47	H	0.792724	0.665184	0.887703
	H48	H	0.415896	0.115157	0.575689
	H49	H	0.614293	0.879290	0.584553
	H50	H	0.607045	0.118268	0.394557
	H51	H	0.417497	0.887089	0.406957
	H52	H	0.601085	0.412538	0.104287
	H53	H	0.599801	0.594083	0.874403
	H54	H	0.417106	0.597601	0.107793
	H55	H	0.416645	0.413887	0.873939
	H56	H	0.128077	0.602588	0.388880
	H57	H	0.891467	0.593643	0.587937
	H58	H	0.124279	0.402993	0.576332
	H59	H	0.897452	0.412238	0.405419
	H60	H	0.120831	0.415321	0.578059
	H61	H	0.893056	0.600293	0.577477
	H62	H	0.123584	0.597819	0.401052
	H63	H	0.893538	0.416133	0.389015
	H64	H	0.411258	0.591387	0.106156
	H65	H	0.605069	0.595529	0.871686
	H66	H	0.598719	0.403920	0.105826
	H67	H	0.421117	0.408491	0.872958
	H68	H	0.598821	0.117086	0.391608
	H69	H	0.593012	0.885073	0.589380
	H70	H	0.414716	0.118523	0.583254
	H71	H	0.407567	0.880978	0.393953
	H72	H	0.917336	0.617728	0.078192
	H73	H	0.098203	0.386057	0.080495
	H74	H	0.107003	0.619117	0.899830
	H75	H	0.912570	0.384713	0.895564
	H76	H	0.103248	0.905581	0.606161
	H77	H	0.110358	0.094825	0.368892
	H78	H	0.914134	0.092818	0.605577
	H79	H	0.924860	0.907102	0.373873
	H80	H	0.623783	0.090457	0.892996
	H81	H	0.391031	0.105023	0.080851
	H82	H	0.622549	0.907928	0.077800
	H83	H	0.392796	0.899226	0.898330
	H84	H	0.624671	0.910213	0.085245
	H85	H	0.398019	0.089230	0.071961
	H86	H	0.625647	0.098143	0.894786
	H87	H	0.397490	0.913380	0.902803
	H88	H	0.916651	0.089565	0.603971
	H89	H	0.100346	0.084635	0.375534
	H90	H	0.104235	0.911801	0.604442
	H91	H	0.909155	0.906003	0.369277
	H92	H	0.103276	0.620236	0.890498
	H93	H	0.104391	0.385519	0.077386
	H94	H	0.914683	0.618561	0.079888
	H95	H	0.922378	0.386743	0.893403
	H96	H	0.422337	0.115417	0.580978
	H97	H	0.601205	0.888279	0.569145
	H98	H	0.601514	0.115271	0.399392
	H99	H	0.423900	0.884670	0.391138
	H100	H	0.607071	0.406999	0.107551
	H101	H	0.604378	0.590263	0.873702
	H102	H	0.419207	0.589923	0.103759
	H103	H	0.414493	0.408225	0.871209
	H104	H	0.123911	0.589678	0.390559
	H105	H	0.895874	0.588616	0.577618
	H106	H	0.126049	0.408814	0.587261
	H107	H	0.890924	0.399980	0.395119
	H108	H	0.917464	0.618412	0.081049
	H109	H	0.103573	0.383438	0.083833
	H110	H	0.098468	0.616245	0.897405
	H111	H	0.918604	0.388320	0.902976
	H112	H	0.099040	0.909232	0.603582
	H113	H	0.096152	0.099377	0.372981
	H114	H	0.918519	0.093790	0.604888
	H115	H	0.914804	0.920559	0.374432
	H116	H	0.622218	0.092838	0.900627
	H117	H	0.392801	0.088134	0.090156
	H118	H	0.626046	0.902662	0.082708
	H119	H	0.393664	0.910563	0.888262
	C120	C	0.388354	0.008271	0.609908
	C121	C	0.631566	0.992043	0.610240
	C122	C	0.631242	0.009030	0.367001
	C123	C	0.387394	0.992280	0.367129
	C124	C	0.631647	0.379212	-0.002095
	C125	C	0.631460	0.622363	0.981297
	C126	C	0.388022	0.622537	-0.002360
	C127	C	0.387972	0.380506	0.980394
	C128	C	0.017652	0.624843	0.365167
	C129	C	1.000820	0.623107	0.609434
	C130	C	0.016866	0.379315	0.610755
	C131	C	1.001069	0.380539	0.367059
	C132	C	0.888017	0.510325	0.110153
	C133	C	0.130921	0.493020	0.109206
	C134	C	0.131576	0.510890	0.866787
	C135	C	0.888396	0.494359	0.867627
	C136	C	0.130971	0.880161	0.496720
	C137	C	0.131126	0.122354	0.480438
	C138	C	0.888005	0.122150	0.496918
	C139	C	0.887685	0.880449	0.480500
	C140	C	0.516744	0.122736	0.866826
	C141	C	0.501284	0.122546	0.109830
	C142	C	0.517323	0.878130	0.110970
	C143	C	0.501693	0.878839	0.867698
	C144	C	0.391102	0.884964	0.665419
	C145	C	0.629097	0.115307	0.665609
	C146	C	0.628164	0.885328	0.312956
	C147	C	0.390785	0.115409	0.311347
	C148	C	0.688345	0.381245	0.875442
	C149	C	0.686768	0.620235	0.104341
	C150	C	0.332716	0.622262	0.874838
	C151	C	0.331418	0.380856	0.103149
	C152	C	0.895185	0.679832	0.368016
	C153	C	0.122978	0.678301	0.606345
	C154	C	0.895223	0.323196	0.609448
	C155	C	0.122575	0.324079	0.367875
	C156	C	0.895261	0.381083	0.667309
	C157	C	0.122863	0.621276	0.664561
	C158	C	0.895323	0.621946	0.310179
	C159	C	0.122975	0.383272	0.311338
	C160	C	0.392075	0.677716	0.874200
	C161	C	0.627814	0.676246	0.104969
	C162	C	0.630152	0.324286	0.874729
	C163	C	0.390581	0.324598	0.103611
	C164	C	0.686954	0.886172	0.369623
	C165	C	0.687060	0.115293	0.608509
	C166	C	0.332052	0.885721	0.609109
	C167	C	0.332407	0.115156	0.368048
	C168	C	0.890579	0.387275	0.166637
	C169	C	0.128410	0.616575	0.163355
	C170	C	0.129034	0.387678	0.811575
	C171	C	0.890720	0.617448	0.811754
	C172	C	0.187020	0.882276	0.373651
	C173	C	0.187372	0.120951	0.603154
	C174	C	0.831764	0.122491	0.374358
	C175	C	0.831461	0.879889	0.603010
	C176	C	0.395416	0.179892	0.867885
	C177	C	0.623223	0.177741	0.107585
	C178	C	0.395360	0.823101	0.108669
	C179	C	0.623876	0.823513	0.870252
	C180	C	0.395421	0.880739	0.166392
	C181	C	0.623275	0.119083	0.164561
	C182	C	0.395208	0.120795	0.810744
	C183	C	0.623958	0.881191	0.812000
	C184	C	0.890892	0.178279	0.373606
	C185	C	0.128678	0.177979	0.603405
	C186	C	0.127850	0.826541	0.372943
	C187	C	0.890533	0.824064	0.603312
	C188	C	0.187539	0.388117	0.868264
	C189	C	0.186827	0.615852	0.107035
	C190	C	0.831783	0.387764	0.110851
	C191	C	0.831730	0.616666	0.868329
	C192	C	0.410959	0.094097	0.586725
	C193	C	0.609326	0.906594	0.587755
	C194	C	0.608965	0.094586	0.388655
	C195	C	0.409744	0.906481	0.390402
	C196	C	0.608812	0.401282	0.083776
	C197	C	0.609409	0.599790	0.895270
	C198	C	0.409484	0.599636	0.083666
	C199	C	0.410802	0.403541	0.894731
	C200	C	0.102930	0.603039	0.386992
	C201	C	0.915517	0.600690	0.587472
	C202	C	0.101756	0.402334	0.587442
	C203	C	0.916039	0.402747	0.389889
	C204	C	0.910087	0.595948	0.086488
	C205	C	0.108623	0.407243	0.087149
	C206	C	0.109273	0.596522	0.889187
	C207	C	0.911072	0.408760	0.890711
	C208	C	0.108809	0.902372	0.582474
	C209	C	0.108837	0.099713	0.394661
	C210	C	0.910003	0.098851	0.582769
	C211	C	0.909836	0.904329	0.394531
	C212	C	0.601687	0.100296	0.889541
	C213	C	0.415853	0.100480	0.087303
	C214	C	0.602556	0.900450	0.088486
	C215	C	0.416778	0.901200	0.889855
	Zn216	Zn	0.509695	0.000335	0.738067
	Zn217	Zn	0.509089	0.000233	0.239006
	Zn218	Zn	0.759709	0.501363	-0.010318
	Zn219	Zn	0.259527	0.501671	-0.011505
	Zn220	Zn	0.009058	0.752286	0.487972
	Zn221	Zn	0.008828	0.250671	0.488619
	Zn222	Zn	0.009569	0.502266	0.738682
	Zn223	Zn	0.009501	0.502198	0.237490
	Zn224	Zn	0.509627	0.749637	-0.010210
	Zn225	Zn	0.509393	0.251873	-0.011270
	Zn226	Zn	0.759459	0.001262	0.488860
	Zn227	Zn	0.259473	0.000689	0.488812
	N228	N	0.425470	0.962234	0.665874
	N229	N	0.595279	0.037893	0.666916
	N230	N	0.594172	0.962684	0.311123
	N231	N	0.424564	0.037997	0.310920
	N232	N	0.689713	0.414370	0.953303
	N233	N	0.689103	0.587493	0.026499
	N234	N	0.330224	0.588577	0.952683
	N235	N	0.329818	0.414923	0.025477
	N236	N	0.972324	0.682006	0.401375
	N237	N	0.045976	0.679646	0.572857
	N238	N	0.972004	0.321893	0.575227
	N239	N	0.045865	0.322599	0.402233
	N240	N	0.972033	0.415289	0.668323
	N241	N	0.045875	0.587787	0.666560
	N242	N	0.972283	0.588627	0.308197
	N243	N	0.046379	0.417574	0.310552
	N244	N	0.425726	0.677860	0.951538
	N245	N	0.594526	0.677898	0.027237
	N246	N	0.595635	0.323021	0.951751
	N247	N	0.424640	0.323968	0.026256
	N248	N	0.688919	0.963927	0.402425
	N249	N	0.688485	0.037795	0.574658
	N250	N	0.330408	0.963512	0.575145
	N251	N	0.330268	0.037523	0.402038
	N252	N	0.924965	0.464467	0.166138
	N253	N	0.094036	0.539318	0.164702
	N254	N	0.094896	0.464978	0.810580
	N255	N	0.925385	0.540427	0.811334
	N256	N	0.188974	0.914852	0.451599
	N257	N	0.188931	0.087256	0.525532
	N258	N	0.829825	0.088420	0.451961
	N259	N	0.829545	0.914057	0.525308
	N260	N	0.472090	0.181164	0.902040
	N261	N	0.546136	0.179762	0.074257
	N262	N	0.472329	0.821580	0.074869
	N263	N	0.547096	0.822043	0.904248
	N264	N	0.472363	0.914029	0.168199
	N265	N	0.546252	0.085594	0.166225
	N266	N	0.471768	0.086448	0.809586
	N267	N	0.547088	0.914941	0.810342
	N268	N	0.925309	0.177965	0.450774
	N269	N	0.094389	0.178824	0.526257
	N270	N	0.093899	0.824899	0.450352
	N271	N	0.924940	0.824506	0.526146
	N272	N	0.189292	0.465595	0.901776
	N273	N	0.188406	0.538112	0.074062
	N274	N	0.830130	0.465158	0.076336
	N275	N	0.830101	0.539064	0.902472
	O276	O	0.999177	1.045681	-0.030756
	H277	H	1.003149	1.041039	-0.032792
	H278	H	1.002134	1.058020	-0.023471
	O279	O	-0.083664	-0.073857	0.974050
	H280	H	-0.087782	-0.064988	0.973258
	H281	H	-0.078712	-0.082731	0.966404
	O282	O	0.049507	0.057752	-0.148697
	H283	H	0.050551	0.060351	-0.139166
	H284	H	0.044019	0.051962	-0.143849
	O285	O	0.485927	0.400634	0.530236
	H286	H	0.490412	0.401776	0.528963
	H287	H	0.486507	0.393907	0.526749
	O288	O	-0.012466	0.006460	0.042451
	H289	H	-0.013672	0.005900	0.041811
	H290	H	-0.007638	0.006029	0.038093
	O291	O	-0.053638	1.008644	-0.067789
	H292	H	-0.063465	1.008880	-0.076527
	H293	H	-0.063266	1.014688	-0.065381
	O294	O	0.080219	0.972019	-0.023955
	H295	H	0.070734	0.978367	-0.018282
	H296	H	0.089633	0.977287	-0.014418
	O297	O	0.426287	0.467159	0.548752
	H298	H	0.425376	0.468717	0.547646
	H299	H	0.424478	0.470951	0.543577
	O300	O	0.489691	0.505436	0.559334
	H301	H	0.489258	0.506589	0.566752
	H302	H	0.482212	0.509591	0.568545
	O303	O	0.896409	0.044748	0.990460
	H304	H	0.914146	0.047977	0.974385
	H305	H	0.885966	0.040011	0.996243
	O306	O	0.000269	1.090113	1.036612
	H307	H	-0.000362	1.095864	1.050119
	H308	H	0.000259	1.086335	1.037092
	O309	O	0.068330	1.028692	1.025544
	H310	H	0.051159	1.021800	1.014314
	H311	H	0.078561	1.025059	1.023257
	O312	O	-0.094419	-0.067367	0.995261
	H313	H	-0.097707	-0.068045	0.999807
	H314	H	-0.109279	-0.059865	0.989797
	O315	O	0.473286	0.485911	0.599171
	H316	H	0.469132	0.480453	0.604598
	H317	H	0.465101	0.489121	0.606778
	O318	O	-0.015679	0.114756	1.022754
	H319	H	-0.015209	0.107132	1.035875
	H320	H	-0.017328	0.105049	1.019181
	O321	O	0.401854	0.489195	0.536443
	H322	H	0.393801	0.479229	0.534560
	H323	H	0.399925	0.485989	0.540139
	O324	O	0.955011	0.059141	1.021586
	H325	H	0.938878	0.061991	1.016812
	H326	H	0.959163	0.048799	1.027272
	O327	O	1.121617	1.016136	1.022432
	H328	H	1.124599	1.016080	1.017838
	H329	H	1.117875	1.027000	1.017986
	O330	O	0.446955	0.456194	0.616256
	H331	H	0.456341	0.447607	0.614274
	H332	H	0.454260	0.458043	0.606719
	O333	O	0.011866	0.000921	0.951739
	H334	H	0.012453	0.000959	0.941404
	H335	H	0.009664	-0.008462	0.944748
	O336	O	0.926597	-0.055912	0.987671
	H337	H	0.935095	-0.064976	0.992791
	H338	H	0.931140	-0.050324	0.981502
	O339	O	0.488476	0.414535	0.559921
	H340	H	0.489762	0.410145	0.564270
	H341	H	0.491517	0.416042	0.570214
	O342	O	0.027714	1.045942	-0.024173
	H343	H	0.037786	1.049616	-0.020858
	H344	H	0.034615	1.055937	-0.026754
	O345	O	0.499713	0.462115	0.591186
	H346	H	0.496395	0.460145	0.589254
	H347	H	0.501520	0.467156	0.588533
