data_Molecule from HDF5

_cell_length_a		16.328745
_cell_length_b		16.342368
_cell_length_c		16.345261
_cell_angle_alpha	90.132634
_cell_angle_beta	89.931822
_cell_angle_gamma	89.994184
_symmetry_space_group_name_H-M	'P 1'
_symmetry_Int_Tables_number		1

loop_
	_symmetry_equiv_pos_as_xyz
	x,y,z

loop_
	_atom_site_label
	_atom_site_type_symbol
	_atom_site_fract_x
	_atom_site_fract_y
	_atom_site_fract_z
	H0	H	0.396841	0.845836	0.717042
	H1	H	0.592793	0.172393	0.718107
	H2	H	0.593162	0.845190	0.287529
	H3	H	0.395678	0.171465	0.289945
	H4	H	0.708122	0.410504	0.839246
	H5	H	0.709228	0.608379	0.166085
	H6	H	0.280129	0.606339	0.839799
	H7	H	0.278536	0.411611	0.165972
	H8	H	0.831173	0.722884	0.406425
	H9	H	0.157252	0.722371	0.600913
	H10	H	0.830939	0.295353	0.600721
	H11	H	0.157960	0.293798	0.403761
	H12	H	0.830838	0.411306	0.717161
	H13	H	0.157110	0.606453	0.716785
	H14	H	0.830963	0.607448	0.288410
	H15	H	0.157317	0.409118	0.286841
	H16	H	0.395307	0.723553	0.840116
	H17	H	0.591235	0.723864	0.165991
	H18	H	0.593109	0.292188	0.840205
	H19	H	0.394459	0.294658	0.166372
	H20	H	0.708954	0.844888	0.404899
	H21	H	0.708431	0.172043	0.601040
	H22	H	0.279567	0.845440	0.601944
	H23	H	0.279510	0.171693	0.406018
	H24	H	0.894630	0.345323	0.217673
	H25	H	0.091559	0.671512	0.217707
	H26	H	0.091379	0.346311	0.788307
	H27	H	0.896013	0.672386	0.789617
	H28	H	0.209475	0.909259	0.340936
	H29	H	0.207862	0.107687	0.666643
	H30	H	0.779140	0.105926	0.339976
	H31	H	0.780663	0.912640	0.667146
	H32	H	0.330037	0.221798	0.907696
	H33	H	0.658144	0.222990	0.100236
	H34	H	0.330595	0.794643	0.100807
	H35	H	0.657012	0.793366	0.903978
	H36	H	0.330788	0.911641	0.217081
	H37	H	0.658024	0.105967	0.217168
	H38	H	0.330566	0.106665	0.789946
	H39	H	0.657125	0.910210	0.787505
	H40	H	0.894776	0.223562	0.339910
	H41	H	0.091352	0.223183	0.666555
	H42	H	0.091874	0.794261	0.340330
	H43	H	0.896914	0.795548	0.666765
	H44	H	0.208299	0.346151	0.903528
	H45	H	0.207241	0.672203	0.100705
	H46	H	0.778790	0.345372	0.100368
	H47	H	0.779220	0.671973	0.905599
	H48	H	0.407242	0.122751	0.596160
	H49	H	0.582909	0.894349	0.596087
	H50	H	0.580489	0.122858	0.407002
	H51	H	0.401197	0.892659	0.412257
	H52	H	0.591085	0.418326	0.119541
	H53	H	0.593237	0.594130	0.887739
	H54	H	0.400672	0.599341	0.118269
	H55	H	0.399607	0.426219	0.890219
	H56	H	0.108783	0.598365	0.411590
	H57	H	0.877040	0.599562	0.602004
	H58	H	0.111700	0.411418	0.597251
	H59	H	0.877423	0.424454	0.396477
	H60	H	0.109057	0.417047	0.592100
	H61	H	0.875559	0.607960	0.596750
	H62	H	0.111263	0.600781	0.405071
	H63	H	0.875149	0.400767	0.411760
	H64	H	0.402806	0.605792	0.119826
	H65	H	0.577313	0.600586	0.890833
	H66	H	0.582410	0.421684	0.114742
	H67	H	0.411361	0.410191	0.888887
	H68	H	0.588729	0.121614	0.417816
	H69	H	0.591114	0.892676	0.592389
	H70	H	0.396843	0.124465	0.591519
	H71	H	0.398375	0.891831	0.408928
	H72	H	0.907382	0.622185	0.095498
	H73	H	0.087884	0.393474	0.091898
	H74	H	0.091380	0.626921	0.908825
	H75	H	0.898642	0.389989	0.901275
	H76	H	0.086788	0.910083	0.621755
	H77	H	0.093768	0.097016	0.386429
	H78	H	0.898414	0.098739	0.617978
	H79	H	0.902990	0.915892	0.388261
	H80	H	0.608646	0.098110	0.910576
	H81	H	0.379662	0.100376	0.093621
	H82	H	0.608459	0.911315	0.085520
	H83	H	0.381126	0.918534	0.916291
	H84	H	0.607351	0.926423	0.097757
	H85	H	0.377532	0.100644	0.102545
	H86	H	0.610935	0.102746	0.908772
	H87	H	0.377859	0.920074	0.903302
	H88	H	0.905792	0.103613	0.617193
	H89	H	0.080923	0.097311	0.390731
	H90	H	0.092802	0.917935	0.621515
	H91	H	0.901446	0.912043	0.386382
	H92	H	0.084363	0.625696	0.906241
	H93	H	0.089024	0.390932	0.098306
	H94	H	0.896009	0.624050	0.091366
	H95	H	0.909384	0.396171	0.911089
	H96	H	0.398173	0.126756	0.602720
	H97	H	0.590236	0.891437	0.601146
	H98	H	0.593335	0.126764	0.405874
	H99	H	0.401964	0.893377	0.407912
	H100	H	0.582985	0.411773	0.118424
	H101	H	0.589813	0.610554	0.883854
	H102	H	0.396465	0.604174	0.120314
	H103	H	0.392315	0.409016	0.882866
	H104	H	0.111240	0.605355	0.410715
	H105	H	0.879486	0.599549	0.592090
	H106	H	0.110595	0.419125	0.599810
	H107	H	0.885555	0.424250	0.423741
	H108	H	0.898919	0.627270	0.102723
	H109	H	0.082700	0.393556	0.096098
	H110	H	0.086443	0.623867	0.913700
	H111	H	0.894588	0.393547	0.916188
	H112	H	0.083512	0.918268	0.617104
	H113	H	0.086915	0.108918	0.385929
	H114	H	0.898692	0.107122	0.620971
	H115	H	0.898517	0.915824	0.387018
	H116	H	0.609059	0.102224	0.914083
	H117	H	0.377301	0.108176	0.097528
	H118	H	0.613811	0.909221	0.104426
	H119	H	0.376010	0.908390	0.909381
	C120	C	0.372415	0.016911	0.625065
	C121	C	0.616074	1.000935	0.624887
	C122	C	0.615905	0.016270	0.381816
	C123	C	0.372086	1.000157	0.382014
	C124	C	0.614825	0.387603	0.010391
	C125	C	0.615512	0.630601	0.994728
	C126	C	0.372152	0.630731	0.011155
	C127	C	0.372036	0.387004	0.994966
	C128	C	0.002610	0.629800	0.381341
	C129	C	0.985259	0.630498	0.624993
	C130	C	0.002370	0.387745	0.624686
	C131	C	0.986846	0.387440	0.381494
	C132	C	0.872138	0.516522	0.124624
	C133	C	0.115083	0.500495	0.124151
	C134	C	0.115570	0.517663	0.881100
	C135	C	0.872094	0.500601	0.881177
	C136	C	0.115971	0.886770	0.512191
	C137	C	0.115500	0.129823	0.495537
	C138	C	0.871727	0.131289	0.511156
	C139	C	0.872939	0.886997	0.495245
	C140	C	0.501723	0.129840	0.882472
	C141	C	0.486133	0.131267	0.125878
	C142	C	0.502338	0.887492	0.124267
	C143	C	0.485791	0.887140	0.881206
	C144	C	0.375610	0.894300	0.679340
	C145	C	0.613401	0.123542	0.680122
	C146	C	0.613616	0.893605	0.325931
	C147	C	0.375051	0.122958	0.327617
	C148	C	0.670640	0.389348	0.887995
	C149	C	0.670744	0.628489	0.117419
	C150	C	0.317858	0.627256	0.888520
	C151	C	0.316672	0.390630	0.117420
	C152	C	0.879728	0.685018	0.384994
	C153	C	0.108416	0.684828	0.621656
	C154	C	0.879658	0.333130	0.621339
	C155	C	0.109168	0.331731	0.383370
	C156	C	0.879676	0.390236	0.679581
	C157	C	0.108320	0.627496	0.679412
	C158	C	0.879468	0.627546	0.326672
	C159	C	0.108926	0.389267	0.325406
	C160	C	0.374965	0.685519	0.888694
	C161	C	0.612606	0.686010	0.117471
	C162	C	0.612921	0.331263	0.888222
	C163	C	0.374179	0.332489	0.117513
	C164	C	0.670967	0.893412	0.384026
	C165	C	0.670907	0.123459	0.622031
	C166	C	0.317435	0.894282	0.622214
	C167	C	0.317335	0.122942	0.385322
	C168	C	0.874246	0.394067	0.179731
	C169	C	0.112255	0.623053	0.179417
	C170	C	0.112677	0.395138	0.825769
	C171	C	0.875070	0.623659	0.827195
	C172	C	0.171095	0.889298	0.389364
	C173	C	0.169919	0.127739	0.617990
	C174	C	0.817239	0.126973	0.388497
	C175	C	0.818209	0.891202	0.618334
	C176	C	0.378815	0.184245	0.886202
	C177	C	0.609121	0.185817	0.122090
	C178	C	0.379132	0.832857	0.121379
	C179	C	0.608630	0.832001	0.883793
	C180	C	0.379333	0.890509	0.179276
	C181	C	0.609171	0.127607	0.180100
	C182	C	0.379092	0.126845	0.828000
	C183	C	0.608669	0.889708	0.825801
	C184	C	0.874397	0.185796	0.388620
	C185	C	0.112589	0.185632	0.617791
	C186	C	0.112857	0.831935	0.389074
	C187	C	0.875902	0.833247	0.618356
	C188	C	0.170507	0.395037	0.883241
	C189	C	0.169766	0.623341	0.121481
	C190	C	0.816899	0.394019	0.121420
	C191	C	0.817320	0.623509	0.884961
	C192	C	0.394339	0.102536	0.603434
	C193	C	0.594261	0.914988	0.603007
	C194	C	0.594004	0.101457	0.403804
	C195	C	0.393962	0.914676	0.403363
	C196	C	0.592088	0.410515	0.095481
	C197	C	0.593267	0.608342	0.909542
	C198	C	0.393806	0.609410	0.097159
	C199	C	0.394528	0.408643	0.909291
	C200	C	0.088342	0.607985	0.402653
	C201	C	0.899529	0.608716	0.603430
	C202	C	0.088307	0.409540	0.602834
	C203	C	0.901294	0.409925	0.404021
	C204	C	0.894314	0.602326	0.102991
	C205	C	0.092958	0.414807	0.102059
	C206	C	0.093719	0.603390	0.903264
	C207	C	0.894326	0.415136	0.902990
	C208	C	0.093962	0.908720	0.597862
	C209	C	0.093541	0.107613	0.409691
	C210	C	0.894210	0.109532	0.596765
	C211	C	0.894587	0.908202	0.409518
	C212	C	0.587565	0.107643	0.904882
	C213	C	0.400191	0.109354	0.104350
	C214	C	0.587823	0.909182	0.102301
	C215	C	0.400230	0.909178	0.903142
	Zn216	Zn	0.494161	0.009145	0.753199
	Zn217	Zn	0.494241	0.008336	0.253694
	Zn218	Zn	0.743805	0.508691	0.002786
	Zn219	Zn	0.243788	0.509116	0.002950
	Zn220	Zn	-0.005555	0.758302	0.503803
	Zn221	Zn	-0.005584	0.259116	0.502975
	Zn222	Zn	-0.006154	0.509247	0.752755
	Zn223	Zn	-0.005938	0.508477	0.252690
	Zn224	Zn	0.493656	0.758803	0.002967
	Zn225	Zn	0.493886	0.258642	0.003182
	Zn226	Zn	0.744236	0.008327	0.503036
	Zn227	Zn	0.243928	0.008717	0.503713
	N228	N	0.409204	0.971491	0.681317
	N229	N	0.579904	0.046167	0.681906
	N230	N	0.580049	0.970936	0.324352
	N231	N	0.408677	0.045685	0.325424
	N232	N	0.671734	0.423801	0.964915
	N233	N	0.672541	0.594590	0.040216
	N234	N	0.315866	0.594025	0.965770
	N235	N	0.315367	0.423869	0.040156
	N236	N	0.957203	0.686795	0.418113
	N237	N	0.030968	0.686859	0.588596
	N238	N	0.957153	0.331242	0.588123
	N239	N	0.032169	0.330619	0.417782
	N240	N	0.956964	0.423721	0.681404
	N241	N	0.030864	0.594370	0.681536
	N242	N	0.956681	0.593785	0.324433
	N243	N	0.031719	0.423204	0.324245
	N244	N	0.408022	0.687575	0.966030
	N245	N	0.578913	0.687335	0.040387
	N246	N	0.578761	0.330341	0.965252
	N247	N	0.408064	0.330328	0.040299
	N248	N	0.672394	0.970317	0.418177
	N249	N	0.672648	0.046276	0.588420
	N250	N	0.315390	0.971696	0.589201
	N251	N	0.315412	0.045668	0.418316
	N252	N	0.907796	0.471399	0.181685
	N253	N	0.079092	0.545694	0.181165
	N254	N	0.079143	0.472414	0.824255
	N255	N	0.908547	0.546324	0.824859
	N256	N	0.172974	0.922817	0.466666
	N257	N	0.171709	0.093913	0.540993
	N258	N	0.815634	0.094030	0.465830
	N259	N	0.816348	0.924093	0.540869
	N260	N	0.456264	0.186042	0.919238
	N261	N	0.531560	0.188130	0.089243
	N262	N	0.456435	0.830895	0.087892
	N263	N	0.531426	0.830308	0.917581
	N264	N	0.456772	0.923837	0.181265
	N265	N	0.531676	0.094534	0.182583
	N266	N	0.456737	0.093956	0.825530
	N267	N	0.531367	0.923401	0.824217
	N268	N	0.907668	0.188480	0.466044
	N269	N	0.079017	0.186848	0.540465
	N270	N	0.079699	0.829921	0.466588
	N271	N	0.909362	0.830633	0.541141
	N272	N	0.172290	0.472179	0.917050
	N273	N	0.171620	0.545957	0.087891
	N274	N	0.815254	0.471284	0.088079
	N275	N	0.815190	0.546029	0.917531
	O276	O	1.610576	-0.582242	0.434374
	H277	H	1.607083	-0.575562	0.436479
	H278	H	1.616987	-0.587141	0.433153
	O279	O	0.596391	0.396953	0.398752
	H280	H	0.594809	0.383671	0.384676
	H281	H	0.601287	0.396439	0.402280
	O282	O	0.599596	0.384556	0.401973
	H283	H	0.606176	0.389663	0.406606
	H284	H	0.605026	0.387134	0.408894
	O285	O	0.614742	0.418051	0.431442
	H286	H	0.618911	0.414391	0.418375
	H287	H	0.608018	0.411263	0.431981
