data_Molecule from HDF5

_cell_length_a		16.600449
_cell_length_b		16.744071
_cell_length_c		16.628778
_cell_angle_alpha	89.924211
_cell_angle_beta	90.023428
_cell_angle_gamma	89.838265
_symmetry_space_group_name_H-M	'P 1'
_symmetry_Int_Tables_number		1

loop_
	_symmetry_equiv_pos_as_xyz
	x,y,z

loop_
	_atom_site_label
	_atom_site_type_symbol
	_atom_site_fract_x
	_atom_site_fract_y
	_atom_site_fract_z
	H0	H	0.392825	0.845659	0.743594
	H1	H	0.605976	0.152213	0.734139
	H2	H	0.611648	0.842459	0.293337
	H3	H	0.398725	0.149695	0.293705
	H4	H	0.720470	0.396342	0.858569
	H5	H	0.726515	0.602696	0.170225
	H6	H	0.281629	0.602976	0.861376
	H7	H	0.282773	0.391853	0.171805
	H8	H	0.847596	0.717521	0.410707
	H9	H	0.158925	0.716287	0.620646
	H10	H	0.849048	0.274059	0.623579
	H11	H	0.157762	0.273170	0.408610
	H12	H	0.849002	0.390867	0.737598
	H13	H	0.160395	0.598973	0.735651
	H14	H	0.847762	0.602020	0.294680
	H15	H	0.158977	0.391045	0.295336
	H16	H	0.395974	0.719697	0.862367
	H17	H	0.613503	0.721418	0.168840
	H18	H	0.605500	0.279273	0.859365
	H19	H	0.398499	0.275553	0.172016
	H20	H	0.724646	0.840715	0.412489
	H21	H	0.722765	0.151679	0.618583
	H22	H	0.277128	0.845279	0.626855
	H23	H	0.281006	0.148975	0.409751
	H24	H	0.896671	0.342936	0.239646
	H25	H	0.110027	0.650027	0.239557
	H26	H	0.107783	0.340463	0.797775
	H27	H	0.896079	0.648961	0.791738
	H28	H	0.225553	0.890346	0.360805
	H29	H	0.228822	0.104246	0.667952
	H30	H	0.785724	0.099028	0.358959
	H31	H	0.786747	0.894590	0.673778
	H32	H	0.347723	0.217805	0.911588
	H33	H	0.660034	0.216713	0.120234
	H34	H	0.348988	0.775313	0.123136
	H35	H	0.657494	0.772244	0.907367
	H36	H	0.349939	0.890604	0.238940
	H37	H	0.661540	0.098777	0.234346
	H38	H	0.348607	0.102096	0.795618
	H39	H	0.659358	0.891840	0.794625
	H40	H	0.898504	0.217134	0.361019
	H41	H	0.111272	0.219565	0.668633
	H42	H	0.111495	0.773391	0.361631
	H43	H	0.900643	0.776255	0.672364
	H44	H	0.223888	0.340991	0.915293
	H45	H	0.228195	0.649377	0.125464
	H46	H	0.782512	0.341964	0.121327
	H47	H	0.779563	0.648896	0.907580
	H48	H	0.409321	0.109487	0.605482
	H49	H	0.596460	0.882643	0.612056
	H50	H	0.593897	0.108812	0.420994
	H51	H	0.425146	0.887898	0.425529
	H52	H	0.587726	0.404302	0.126346
	H53	H	0.588114	0.587858	0.905326
	H54	H	0.418836	0.588473	0.127437
	H55	H	0.409655	0.412151	0.905070
	H56	H	0.116066	0.587433	0.427582
	H57	H	0.894341	0.583199	0.600538
	H58	H	0.113759	0.409338	0.602470
	H59	H	0.890122	0.405847	0.423251
	H60	H	0.116379	0.406499	0.607119
	H61	H	0.890829	0.583547	0.609198
	H62	H	0.113580	0.584072	0.430591
	H63	H	0.892472	0.404724	0.433165
	H64	H	0.412267	0.585625	0.129338
	H65	H	0.593915	0.584676	0.904119
	H66	H	0.598366	0.401231	0.130847
	H67	H	0.421184	0.408423	0.906704
	H68	H	0.592610	0.105534	0.427574
	H69	H	0.587525	0.886978	0.606295
	H70	H	0.424381	0.104882	0.608511
	H71	H	0.414452	0.888090	0.435847
	H72	H	0.915701	0.605205	0.100948
	H73	H	0.097838	0.384213	0.105844
	H74	H	0.089606	0.606857	0.926756
	H75	H	0.913470	0.385962	0.929237
	H76	H	0.084589	0.911789	0.622789
	H77	H	0.087844	0.075829	0.408909
	H78	H	0.907098	0.090428	0.631788
	H79	H	0.912132	0.906459	0.403625
	H80	H	0.616913	0.088166	0.925740
	H81	H	0.389711	0.090874	0.111578
	H82	H	0.615334	0.906043	0.101742
	H83	H	0.394528	0.914028	0.928314
	H84	H	0.613805	0.909873	0.102304
	H85	H	0.392774	0.090592	0.098806
	H86	H	0.616604	0.088315	0.926526
	H87	H	0.392293	0.906932	0.927342
	H88	H	0.913437	0.078220	0.625494
	H89	H	0.084861	0.092402	0.403723
	H90	H	0.089948	0.900246	0.628377
	H91	H	0.915024	0.907350	0.405575
	H92	H	0.096046	0.607981	0.927735
	H93	H	0.087203	0.387281	0.108378
	H94	H	0.913069	0.606469	0.103898
	H95	H	0.913638	0.384107	0.924718
	H96	H	0.417598	0.101800	0.594187
	H97	H	0.597725	0.885876	0.601559
	H98	H	0.599046	0.108355	0.426469
	H99	H	0.411215	0.882232	0.421892
	H100	H	0.596414	0.412578	0.126279
	H101	H	0.588988	0.581462	0.906968
	H102	H	0.417359	0.581982	0.125397
	H103	H	0.412468	0.400839	0.902341
	H104	H	0.114729	0.582993	0.425680
	H105	H	0.890960	0.590961	0.603908
	H106	H	0.115640	0.403637	0.602167
	H107	H	0.894155	0.413636	0.428081
	H108	H	0.917568	0.606376	0.105015
	H109	H	0.091558	0.389405	0.098310
	H110	H	0.093355	0.608337	0.920808
	H111	H	0.917275	0.386267	0.926577
	H112	H	0.097265	0.911727	0.627510
	H113	H	0.100121	0.085492	0.401101
	H114	H	0.921621	0.091000	0.627254
	H115	H	0.914544	0.904005	0.404067
	H116	H	0.615880	0.087616	0.926278
	H117	H	0.394524	0.080243	0.106298
	H118	H	0.615882	0.907542	0.105156
	H119	H	0.394435	0.908869	0.934169
	C120	C	0.382360	0.004925	0.637533
	C121	C	0.625036	0.987872	0.637297
	C122	C	0.626909	0.004947	0.393577
	C123	C	0.384027	0.987766	0.395321
	C124	C	0.624911	0.375572	0.024442
	C125	C	0.624824	0.618031	1.007190
	C126	C	0.382770	0.617824	0.024963
	C127	C	0.382806	0.375646	1.007987
	C128	C	0.011844	0.617367	0.395385
	C129	C	0.995256	0.616916	0.636862
	C130	C	0.012491	0.374513	0.636760
	C131	C	0.994603	0.375016	0.394915
	C132	C	0.882273	0.504520	0.136804
	C133	C	0.125048	0.488417	0.137863
	C134	C	0.124851	0.504654	0.895148
	C135	C	0.882012	0.487290	0.893781
	C136	C	0.124573	0.875028	0.524199
	C137	C	0.124449	0.117519	0.506732
	C138	C	0.882495	0.117634	0.525078
	C139	C	0.882723	0.875049	0.508049
	C140	C	0.512880	0.119045	0.894633
	C141	C	0.495848	0.117849	0.137047
	C142	C	0.512740	0.875393	0.136661
	C143	C	0.495697	0.876324	0.895625
	C144	C	0.376310	0.890970	0.701616
	C145	C	0.625583	0.105199	0.695484
	C146	C	0.629351	0.888635	0.333968
	C147	C	0.380848	0.103719	0.334502
	C148	C	0.681893	0.376333	0.905935
	C149	C	0.686576	0.621168	0.123373
	C150	C	0.321627	0.621230	0.908409
	C151	C	0.323120	0.373641	0.125179
	C152	C	0.894470	0.677518	0.392805
	C153	C	0.112564	0.676122	0.638965
	C154	C	0.895824	0.314485	0.640622
	C155	C	0.111131	0.313982	0.391083
	C156	C	0.895686	0.372531	0.697458
	C157	C	0.112992	0.617966	0.696096
	C158	C	0.894475	0.619971	0.335215
	C159	C	0.111806	0.372563	0.334673
	C160	C	0.378492	0.679301	0.908719
	C161	C	0.630128	0.680019	0.122829
	C162	C	0.624645	0.318439	0.906328
	C163	C	0.380331	0.315561	0.125052
	C164	C	0.685819	0.887766	0.392979
	C165	C	0.683364	0.104887	0.637685
	C166	C	0.318684	0.890999	0.643620
	C167	C	0.322368	0.103393	0.391968
	C168	C	0.879209	0.388980	0.198582
	C169	C	0.128050	0.603901	0.199213
	C170	C	0.126413	0.387224	0.837268
	C171	C	0.878446	0.602894	0.832549
	C172	C	0.185425	0.872308	0.407526
	C173	C	0.186970	0.121590	0.622168
	C174	C	0.824245	0.118257	0.406752
	C175	C	0.825360	0.875089	0.626202
	C176	C	0.395057	0.178258	0.892760
	C177	C	0.613405	0.176803	0.138642
	C178	C	0.395972	0.815318	0.140559
	C179	C	0.611544	0.814031	0.890702
	C180	C	0.396234	0.872589	0.198223
	C181	C	0.614133	0.118057	0.195199
	C182	C	0.395412	0.120725	0.835253
	C183	C	0.612382	0.873184	0.834471
	C184	C	0.880330	0.176968	0.407501
	C185	C	0.128856	0.178930	0.622467
	C186	C	0.128715	0.814132	0.407992
	C187	C	0.882044	0.816297	0.625676
	C188	C	0.184126	0.387684	0.895396
	C189	C	0.186527	0.603658	0.142168
	C190	C	0.822411	0.388346	0.139735
	C191	C	0.820526	0.602706	0.890157
	C192	C	0.409490	0.084649	0.610331
	C193	C	0.600767	0.906340	0.613398
	C194	C	0.602072	0.086501	0.417915
	C195	C	0.409736	0.907082	0.420671
	C196	C	0.600855	0.399279	0.106588
	C197	C	0.597920	0.592103	0.926504
	C198	C	0.408833	0.592572	0.106086
	C199	C	0.407511	0.400225	0.926105
	C200	C	0.093428	0.592236	0.420855
	C201	C	0.913385	0.592807	0.611751
	C202	C	0.093940	0.399410	0.611130
	C203	C	0.913531	0.400691	0.420698
	C204	C	0.908118	0.584901	0.110688
	C205	C	0.099492	0.408038	0.111640
	C206	C	0.100100	0.586418	0.918554
	C207	C	0.907646	0.406485	0.919411
	C208	C	0.098109	0.900646	0.604997
	C209	C	0.098146	0.091864	0.425593
	C210	C	0.907173	0.093497	0.606820
	C211	C	0.907016	0.898892	0.425732
	C212	C	0.595000	0.094996	0.919161
	C213	C	0.413642	0.094066	0.112705
	C214	C	0.593891	0.900485	0.110450
	C215	C	0.414838	0.902626	0.922276
	Zn216	Zn	0.503696	-0.003120	0.766617
	Zn217	Zn	0.504863	-0.003821	0.265204
	Zn218	Zn	0.753092	0.496393	0.015530
	Zn219	Zn	0.254114	0.497295	0.016910
	Zn220	Zn	0.004157	0.746118	0.515728
	Zn221	Zn	0.003280	0.246024	0.515725
	Zn222	Zn	0.004421	0.495634	0.765177
	Zn223	Zn	0.003404	0.496494	0.266358
	Zn224	Zn	0.503598	0.746659	0.015971
	Zn225	Zn	0.503882	0.246933	0.016278
	Zn226	Zn	0.754296	-0.003904	0.515953
	Zn227	Zn	0.253267	-0.004296	0.515214
	N228	N	0.415199	0.963035	0.698052
	N229	N	0.590086	0.031240	0.695755
	N230	N	0.593650	0.962684	0.333896
	N231	N	0.418450	0.030822	0.336189
	N232	N	0.682303	0.411159	0.980453
	N233	N	0.683362	0.583119	0.050427
	N234	N	0.323900	0.583808	0.981858
	N235	N	0.324311	0.410247	0.051222
	N236	N	0.968676	0.676265	0.429277
	N237	N	0.038251	0.675880	0.602926
	N238	N	0.969436	0.315634	0.603426
	N239	N	0.037239	0.315300	0.427955
	N240	N	0.969407	0.409456	0.695291
	N241	N	0.038904	0.581925	0.695093
	N242	N	0.968512	0.583400	0.336336
	N243	N	0.038212	0.409997	0.336713
	N244	N	0.415921	0.677407	0.982250
	N245	N	0.592344	0.678158	0.049556
	N246	N	0.590278	0.317412	0.981176
	N247	N	0.416723	0.316523	0.051034
	N248	N	0.684429	0.961268	0.429382
	N249	N	0.683477	0.030907	0.602509
	N250	N	0.322189	0.962916	0.604313
	N251	N	0.324180	0.030279	0.428946
	N252	N	0.915542	0.462389	0.197235
	N253	N	0.090466	0.531011	0.196686
	N254	N	0.090592	0.461182	0.836505
	N255	N	0.916197	0.529913	0.834547
	N256	N	0.183176	0.909489	0.480959
	N257	N	0.184394	0.083967	0.548990
	N258	N	0.825023	0.082255	0.481001
	N259	N	0.825611	0.910715	0.551923
	N260	N	0.469367	0.177763	0.928834
	N261	N	0.538802	0.176920	0.103152
	N262	N	0.469512	0.816685	0.103117
	N263	N	0.537821	0.815691	0.927797
	N264	N	0.470063	0.909305	0.196259
	N265	N	0.539976	0.082030	0.194396
	N266	N	0.469699	0.084593	0.836105
	N267	N	0.539230	0.911392	0.837393
	N268	N	0.915594	0.177249	0.482181
	N269	N	0.090589	0.176396	0.549536
	N270	N	0.091388	0.815529	0.481543
	N271	N	0.916827	0.815778	0.550814
	N272	N	0.183673	0.461947	0.930244
	N273	N	0.184804	0.530836	0.104493
	N274	N	0.823954	0.461290	0.102024
	N275	N	0.822609	0.529841	0.927647
	O276	O	-0.210221	1.214263	0.066230
	H277	H	-0.197636	1.208213	0.027223
	H278	H	-0.220285	1.222428	0.056241
	O279	O	-0.106325	0.048665	-0.029619
	H280	H	-0.111195	0.050494	-0.045602
	H281	H	-0.102649	0.059364	-0.040476
	O282	O	1.217175	0.951816	0.099685
	H283	H	1.220580	0.967474	0.124318
	H284	H	1.221476	0.951482	0.111725
	O285	O	0.579144	0.453809	0.607415
	H286	H	0.572790	0.473520	0.603288
	H287	H	0.561092	0.440366	0.606734
	O288	O	0.604620	0.708787	0.417166
	H289	H	0.597099	0.711402	0.416563
	H290	H	0.638894	0.711486	0.426126
	O291	O	0.797453	0.203768	0.812427
	H292	H	0.809977	0.169463	0.809645
	H293	H	0.766060	0.231047	0.777222
	O294	O	0.729419	-0.275327	0.551763
	H295	H	0.764031	-0.239820	0.551737
	H296	H	0.720495	-0.282121	0.599645
	O297	O	0.563119	0.272046	0.548419
	H298	H	0.578448	0.270032	0.534816
	H299	H	0.562351	0.274774	0.537098
	O300	O	0.226825	0.023894	1.233870
	H301	H	0.249599	0.036922	1.259832
	H302	H	0.219398	0.061164	1.230856
	O303	O	0.345919	0.477988	0.631741
	H304	H	0.344711	0.479207	0.643896
	H305	H	0.347950	0.469576	0.647155
	O306	O	1.018426	0.879097	0.236893
	H307	H	1.037673	0.878812	0.246589
	H308	H	1.021239	0.862248	0.235222
	O309	O	0.195128	0.803523	0.206023
	H310	H	0.224970	0.782743	0.226464
	H311	H	0.202995	0.813547	0.190360
	O312	O	0.698329	0.303138	0.705853
	H313	H	0.684688	0.319512	0.680624
	H314	H	0.676822	0.323222	0.691456
	O315	O	0.879995	1.203366	1.147546
	H316	H	0.882287	1.196621	1.124615
	H317	H	0.888138	1.187266	1.134172
	O318	O	0.532300	0.721272	0.732661
	H319	H	0.542171	0.724361	0.744324
	H320	H	0.522599	0.734641	0.738939
	O321	O	0.318523	0.687982	0.704557
	H322	H	0.293988	0.701646	0.721907
	H323	H	0.336509	0.686751	0.683905
	O324	O	1.210133	0.780122	-0.198126
	H325	H	1.203830	0.808275	-0.179316
	H326	H	1.191927	0.780956	-0.204703
	O327	O	-0.283981	0.534001	0.725022
	H328	H	-0.276324	0.519397	0.727164
	H329	H	-0.277497	0.513023	0.717416
	O330	O	0.488198	0.698772	0.294636
	H331	H	0.492894	0.704233	0.288980
	H332	H	0.502496	0.699617	0.298932
	O333	O	1.061807	1.059377	-0.217795
	H334	H	1.050844	1.064580	-0.224292
	H335	H	1.041619	1.053878	-0.207609
	O336	O	0.791499	-0.227557	0.042731
	H337	H	0.778887	-0.235317	0.053414
	H338	H	0.789566	-0.225562	0.049665
	O339	O	1.211873	0.205190	1.226409
	H340	H	1.203633	0.218127	1.207642
	H341	H	1.229581	0.233090	1.251440
	O342	O	-0.140853	-0.053957	0.073204
	H343	H	-0.133955	-0.032721	0.067437
	H344	H	-0.132748	-0.053005	0.061698
	O345	O	-0.130396	0.851469	1.156081
	H346	H	-0.130263	0.869647	1.152969
	H347	H	-0.112304	0.842625	1.152921
	O348	O	-0.102410	0.217648	-0.126365
	H349	H	-0.105714	0.231161	-0.156465
	H350	H	-0.137968	0.225562	-0.127935
	O351	O	1.027649	1.213332	-0.112320
	H352	H	1.015874	1.218532	-0.128729
	H353	H	1.019073	1.219530	-0.093256
	O354	O	-0.104436	-0.222003	1.227246
	H355	H	-0.095069	-0.193033	1.226869
	H356	H	-0.090766	-0.243022	1.231450
	O357	O	0.468016	0.277160	0.736760
	H358	H	0.476721	0.268844	0.742810
	H359	H	0.457899	0.261246	0.740819
	O360	O	0.504653	0.532867	0.736588
	H361	H	0.492041	0.537999	0.734011
	H362	H	0.515877	0.539140	0.739270
	O363	O	0.052835	-0.097651	-0.070873
	H364	H	0.074978	-0.091760	-0.062997
	H365	H	0.055246	-0.091547	-0.079102
	O366	O	0.589079	0.465623	0.309806
	H367	H	0.606666	0.457429	0.292053
	H368	H	0.599738	0.466378	0.322017
	O369	O	0.945121	-0.056636	-0.211023
	H370	H	0.960830	-0.071742	-0.199393
	H371	H	0.935011	-0.075288	-0.206831
	O372	O	0.705098	1.294244	0.319550
	H373	H	0.729263	1.275215	0.286857
	H374	H	0.678249	1.308767	0.320058
	O375	O	1.000714	0.125430	0.173855
	H376	H	1.017817	0.125287	0.180118
	H377	H	1.006453	0.124503	0.182622
	O378	O	0.423847	0.585749	0.451902
	H379	H	0.422380	0.604684	0.458389
	H380	H	0.439635	0.581173	0.441762
	O381	O	0.221323	1.216243	1.055021
	H382	H	0.228659	1.219504	1.048450
	H383	H	0.223639	1.223859	1.066605
	O384	O	0.937340	0.049719	1.221628
	H385	H	0.940243	0.027140	1.226955
	H386	H	0.942061	0.027892	1.228994
	O387	O	1.044883	0.890382	0.103624
	H388	H	1.047808	0.902666	0.102903
	H389	H	1.042320	0.892712	0.116623
	O390	O	0.218387	-0.026265	-0.205784
	H391	H	0.228638	-0.030472	-0.216241
	H392	H	0.206507	-0.016255	-0.224257
	O393	O	0.292331	0.279307	0.550519
	H394	H	0.295035	0.285414	0.562357
	H395	H	0.280489	0.262498	0.549726
	O396	O	-0.077621	0.960787	1.113823
	H397	H	-0.063144	0.966430	1.105720
	H398	H	-0.079434	0.955324	1.114743
	O399	O	0.232940	0.054259	0.959642
	H400	H	0.234857	0.044784	0.970953
	H401	H	0.230819	0.063635	0.961109
	O402	O	0.646935	0.628233	0.314920
	H403	H	0.662495	0.629290	0.318842
	H404	H	0.641941	0.624867	0.302328
	O405	O	1.069528	-0.161145	0.957828
	H406	H	1.088206	-0.151113	0.977184
	H407	H	1.060219	-0.170845	0.976137
	O408	O	0.126448	-0.218698	-0.103125
	H409	H	0.118217	-0.226983	-0.110662
	H410	H	0.145623	-0.226900	-0.098263
	O411	O	0.728258	0.272076	0.485294
	H412	H	0.724761	0.275053	0.443185
	H413	H	0.755728	0.252871	0.482749
	O414	O	0.399358	0.630576	0.515181
	H415	H	0.410866	0.623121	0.523539
	H416	H	0.401444	0.618675	0.518346
	O417	O	0.491131	0.410233	0.610449
	H418	H	0.488947	0.420676	0.604232
	H419	H	0.477828	0.408053	0.626589
	O420	O	0.353483	0.479823	0.508133
	H421	H	0.358795	0.476628	0.514011
	H422	H	0.349399	0.478830	0.519100
	O423	O	-0.213233	-0.043732	1.237162
	H424	H	-0.240118	-0.046742	1.254549
	H425	H	-0.219863	-0.030743	1.214405
	O426	O	0.727991	0.455540	0.538655
	H427	H	0.729799	0.456946	0.528971
	H428	H	0.716623	0.459671	0.522391
	O429	O	0.436999	0.525252	0.377819
	H430	H	0.432137	0.527045	0.381649
	H431	H	0.450777	0.536334	0.374379
	O432	O	0.288444	0.699733	0.507226
	H433	H	0.263415	0.716311	0.508800
	H434	H	0.293020	0.679277	0.515985
	O435	O	0.288587	0.527683	0.298948
	H436	H	0.283638	0.528199	0.284093
	H437	H	0.281677	0.531364	0.306696
	O438	O	-0.460676	0.276665	0.294031
	H439	H	-0.458669	0.276645	0.300088
	H440	H	-0.458621	0.263112	0.276241
	O441	O	0.305451	0.707192	0.312618
	H442	H	0.306912	0.696916	0.348261
	H443	H	0.343041	0.697192	0.307593
	O444	O	0.450925	0.732742	0.580895
	H445	H	0.462350	0.736710	0.592205
	H446	H	0.430482	0.729861	0.568132
	O447	O	0.193258	1.181537	0.826926
	H448	H	0.183330	1.168076	0.840959
	H449	H	0.168428	1.167542	0.842165
	O450	O	0.072937	1.133358	1.046552
	H451	H	0.077054	1.134569	1.058219
	H452	H	0.078441	1.126454	1.048146
	O453	O	0.580927	0.432902	0.530282
	H454	H	0.579963	0.454223	0.522126
	H455	H	0.581719	0.421039	0.521025
	O456	O	-0.100449	-0.211582	0.911468
	H457	H	-0.100379	-0.218323	0.941378
	H458	H	-0.094699	-0.221598	0.908783
	O459	O	0.775982	0.981336	-0.016514
	H460	H	0.780058	0.977714	-0.019155
	H461	H	0.769906	0.993535	-0.022387
	O462	O	0.287255	0.453474	0.740689
	H463	H	0.287315	0.425999	0.735442
	H464	H	0.265326	0.444976	0.766522
	O465	O	0.928120	-0.211215	-0.188386
	H466	H	0.930964	-0.216552	-0.186840
	H467	H	0.925560	-0.209423	-0.161625
	O468	O	0.572329	0.536354	0.593892
	H469	H	0.566757	0.551221	0.589834
	H470	H	0.577146	0.552644	0.591345
	O471	O	0.642636	0.509323	0.472411
	H472	H	0.652469	0.518941	0.475593
	H473	H	0.642765	0.518046	0.481075
	O474	O	0.378313	0.505085	0.391711
	H475	H	0.384598	0.511609	0.396924
	H476	H	0.384950	0.495717	0.398331
	O477	O	0.312574	0.304173	1.324902
	H478	H	0.327424	0.320505	1.347888
	H479	H	0.328967	0.325710	1.340498
	O480	O	0.290851	0.285585	0.727053
	H481	H	0.308351	0.290529	0.709301
	H482	H	0.269561	0.254910	0.755126
	O483	O	0.447995	0.283190	0.430301
	H484	H	0.442451	0.289604	0.434756
	H485	H	0.448829	0.275544	0.430874
	O486	O	0.708365	-0.296192	0.719877
	H487	H	0.698315	-0.278116	0.742868
	H488	H	0.713889	-0.347932	0.721633
	O489	O	1.142246	0.789960	0.053648
	H490	H	1.162874	0.779919	0.041029
	H491	H	1.147627	0.799923	0.040332
	O492	O	0.006377	0.223388	0.139556
	H493	H	-0.006376	0.224318	0.153349
	H494	H	-0.007405	0.227459	0.147429
	O495	O	-0.002820	1.051410	0.958006
	H496	H	0.021316	1.057382	0.963202
	H497	H	-0.003952	1.036736	0.963740
	O498	O	0.785602	1.041167	0.795317
	H499	H	0.789977	1.043312	0.792607
	H500	H	0.782147	1.031290	0.774696
	O501	O	0.664258	0.486630	0.335422
	H502	H	0.679307	0.504661	0.323575
	H503	H	0.673636	0.481920	0.344639
