data_Molecule from HDF5

_cell_length_a		16.385764
_cell_length_b		16.213137
_cell_length_c		16.260841
_cell_angle_alpha	89.674996
_cell_angle_beta	90.387600
_cell_angle_gamma	89.136024
_symmetry_space_group_name_H-M	'P 1'
_symmetry_Int_Tables_number		1

loop_
	_symmetry_equiv_pos_as_xyz
	x,y,z

loop_
	_atom_site_label
	_atom_site_type_symbol
	_atom_site_fract_x
	_atom_site_fract_y
	_atom_site_fract_z
	H0	H	0.405421	0.839811	0.722247
	H1	H	0.599940	0.166915	0.717860
	H2	H	0.604193	0.837418	0.294112
	H3	H	0.402702	0.166868	0.288429
	H4	H	0.721258	0.399073	0.839664
	H5	H	0.721562	0.597581	0.166191
	H6	H	0.285301	0.606954	0.841555
	H7	H	0.291729	0.400589	0.166870
	H8	H	0.841384	0.720919	0.402096
	H9	H	0.166915	0.713106	0.603469
	H10	H	0.839660	0.291133	0.599368
	H11	H	0.165948	0.283488	0.406175
	H12	H	0.842402	0.402914	0.720501
	H13	H	0.166729	0.597941	0.719490
	H14	H	0.841635	0.604766	0.284633
	H15	H	0.167530	0.400909	0.291297
	H16	H	0.403460	0.719328	0.840556
	H17	H	0.604137	0.712485	0.167794
	H18	H	0.602627	0.286558	0.839473
	H19	H	0.412319	0.289256	0.168580
	H20	H	0.722505	0.840429	0.405363
	H21	H	0.718844	0.165551	0.605238
	H22	H	0.291571	0.838890	0.606149
	H23	H	0.283991	0.165499	0.401368
	H24	H	0.908657	0.337802	0.217968
	H25	H	0.102471	0.665242	0.217995
	H26	H	0.106017	0.337411	0.791776
	H27	H	0.903028	0.665085	0.786783
	H28	H	0.220795	0.899502	0.341987
	H29	H	0.219708	0.100785	0.666811
	H30	H	0.783347	0.106580	0.340960
	H31	H	0.790183	0.901300	0.667496
	H32	H	0.341949	0.221687	0.903592
	H33	H	0.668413	0.212061	0.103013
	H34	H	0.342287	0.786970	0.104307
	H35	H	0.665729	0.782784	0.904429
	H36	H	0.341988	0.904359	0.219421
	H37	H	0.666953	0.097846	0.220895
	H38	H	0.342113	0.108315	0.785250
	H39	H	0.665475	0.898935	0.787853
	H40	H	0.901581	0.219504	0.339370
	H41	H	0.100656	0.212949	0.667812
	H42	H	0.101775	0.786999	0.340461
	H43	H	0.906871	0.785624	0.667501
	H44	H	0.223960	0.338689	0.904325
	H45	H	0.219749	0.664862	0.105057
	H46	H	0.794307	0.336660	0.102855
	H47	H	0.783774	0.663390	0.898626
	H48	H	0.406406	0.116540	0.583676
	H49	H	0.597850	0.888066	0.590294
	H50	H	0.596591	0.120738	0.409561
	H51	H	0.410599	0.885156	0.412429
	H52	H	0.607950	0.403362	0.122484
	H53	H	0.595997	0.590918	0.887277
	H54	H	0.417619	0.586051	0.115387
	H55	H	0.416981	0.406737	0.887142
	H56	H	0.114376	0.582834	0.413270
	H57	H	0.891167	0.587049	0.593250
	H58	H	0.118825	0.402588	0.592111
	H59	H	0.883425	0.397661	0.407916
	H60	H	0.118270	0.412084	0.599402
	H61	H	0.886167	0.597165	0.600153
	H62	H	0.122391	0.594561	0.399698
	H63	H	0.894128	0.416840	0.421354
	H64	H	0.416372	0.601215	0.120880
	H65	H	0.592623	0.592515	0.888235
	H66	H	0.601489	0.412962	0.118289
	H67	H	0.406087	0.413453	0.885877
	H68	H	0.591214	0.119517	0.410094
	H69	H	0.602865	0.884348	0.598495
	H70	H	0.402090	0.122921	0.600577
	H71	H	0.412989	0.885009	0.410162
	H72	H	0.913180	0.617738	0.096017
	H73	H	0.107988	0.383046	0.095790
	H74	H	0.092913	0.616557	0.915729
	H75	H	0.898705	0.380662	0.915003
	H76	H	0.096427	0.906176	0.620504
	H77	H	0.087946	0.090848	0.389775
	H78	H	0.915086	0.104452	0.620516
	H79	H	0.914493	0.908220	0.388310
	H80	H	0.623475	0.107304	0.911521
	H81	H	0.388433	0.095909	0.098069
	H82	H	0.618861	0.915783	0.104964
	H83	H	0.388556	0.912298	0.912547
	H84	H	0.625203	0.897011	0.105908
	H85	H	0.388426	0.099933	0.095487
	H86	H	0.613932	0.085998	0.922797
	H87	H	0.391080	0.913948	0.913693
	H88	H	0.899529	0.094226	0.622438
	H89	H	0.095000	0.098252	0.385101
	H90	H	0.101318	0.906375	0.621648
	H91	H	0.907216	0.912497	0.387453
	H92	H	0.099695	0.619814	0.911671
	H93	H	0.097546	0.384176	0.103366
	H94	H	0.914275	0.615929	0.088296
	H95	H	0.918916	0.381196	0.896503
	H96	H	0.419713	0.117254	0.596549
	H97	H	0.592577	0.887323	0.598983
	H98	H	0.593843	0.119290	0.414679
	H99	H	0.413206	0.886988	0.412495
	H100	H	0.596184	0.402945	0.119872
	H101	H	0.595453	0.593963	0.887019
	H102	H	0.403337	0.591014	0.122494
	H103	H	0.416924	0.418773	0.890852
	H104	H	0.120008	0.601083	0.418124
	H105	H	0.889913	0.599416	0.588319
	H106	H	0.122815	0.401414	0.603846
	H107	H	0.887230	0.420644	0.396994
	H108	H	0.906886	0.618345	0.090327
	H109	H	0.097549	0.387766	0.090922
	H110	H	0.092568	0.618996	0.907159
	H111	H	0.923275	0.390258	0.922071
	H112	H	0.099596	0.909734	0.620240
	H113	H	0.099343	0.087913	0.387369
	H114	H	0.915729	0.086593	0.614368
	H115	H	0.913744	0.916773	0.390050
	H116	H	0.621081	0.085538	0.898271
	H117	H	0.390730	0.095983	0.093552
	H118	H	0.617590	0.904380	0.089373
	H119	H	0.389467	0.914852	0.911864
	C120	C	0.382387	0.011023	0.624552
	C121	C	0.625555	0.994538	0.625398
	C122	C	0.624782	0.011402	0.383195
	C123	C	0.381422	0.994131	0.381615
	C124	C	0.628841	0.378040	0.011698
	C125	C	0.625167	0.620897	0.995243
	C126	C	0.381967	0.624342	0.012137
	C127	C	0.385399	0.382141	0.995740
	C128	C	0.012105	0.624471	0.380120
	C129	C	0.996046	0.622190	0.624414
	C130	C	0.012144	0.378525	0.626381
	C131	C	0.995900	0.380805	0.381543
	C132	C	0.884370	0.509536	0.122140
	C133	C	0.127869	0.493315	0.125251
	C134	C	0.125702	0.509889	0.883134
	C135	C	0.882578	0.492196	0.880605
	C136	C	0.127541	0.878274	0.513029
	C137	C	0.123623	0.121213	0.495176
	C138	C	0.880092	0.125161	0.511657
	C139	C	0.883519	0.881885	0.496276
	C140	C	0.512076	0.124449	0.881539
	C141	C	0.496600	0.123700	0.125583
	C142	C	0.512944	0.878537	0.127492
	C143	C	0.496098	0.881684	0.883371
	C144	C	0.385683	0.888298	0.682620
	C145	C	0.621580	0.117528	0.680888
	C146	C	0.624001	0.887269	0.330209
	C147	C	0.382244	0.117633	0.325985
	C148	C	0.683154	0.379696	0.888557
	C149	C	0.682875	0.618347	0.117579
	C150	C	0.324689	0.625319	0.889824
	C151	C	0.330304	0.381750	0.118414
	C152	C	0.890112	0.682429	0.381518
	C153	C	0.118363	0.675983	0.623461
	C154	C	0.888989	0.326650	0.621702
	C155	C	0.117804	0.322722	0.385403
	C156	C	0.890335	0.382507	0.681648
	C157	C	0.118086	0.618871	0.681275
	C158	C	0.890212	0.624863	0.322969
	C159	C	0.118414	0.380852	0.327857
	C160	C	0.383269	0.681508	0.889498
	C161	C	0.624293	0.675383	0.118428
	C162	C	0.624228	0.323671	0.888462
	C163	C	0.390141	0.326385	0.119243
	C164	C	0.683115	0.888668	0.385323
	C165	C	0.680289	0.117133	0.624619
	C166	C	0.329065	0.887798	0.624885
	C167	C	0.323172	0.116774	0.382218
	C168	C	0.888279	0.386365	0.179692
	C169	C	0.123462	0.616429	0.180408
	C170	C	0.125542	0.386638	0.828720
	C171	C	0.882615	0.615742	0.823943
	C172	C	0.182570	0.879972	0.390649
	C173	C	0.180895	0.120240	0.618055
	C174	C	0.822305	0.125529	0.389378
	C175	C	0.827954	0.882202	0.618617
	C176	C	0.390600	0.183312	0.883119
	C177	C	0.619253	0.176027	0.123744
	C178	C	0.390561	0.824984	0.124353
	C179	C	0.617575	0.822536	0.884748
	C180	C	0.390708	0.883048	0.182035
	C181	C	0.618547	0.119259	0.182417
	C182	C	0.390468	0.126509	0.824594
	C183	C	0.617449	0.880516	0.826790
	C184	C	0.881378	0.181480	0.388421
	C185	C	0.121373	0.175844	0.618737
	C186	C	0.123433	0.823983	0.389687
	C187	C	0.886262	0.824694	0.618852
	C188	C	0.184276	0.387317	0.884773
	C189	C	0.181876	0.616099	0.124152
	C190	C	0.831032	0.385893	0.122476
	C191	C	0.823498	0.614866	0.879728
	C192	C	0.403547	0.096679	0.600728
	C193	C	0.604279	0.908819	0.602610
	C194	C	0.600740	0.097544	0.404819
	C195	C	0.405217	0.908143	0.405051
	C196	C	0.608243	0.399918	0.097683
	C197	C	0.601497	0.598954	0.909604
	C198	C	0.405527	0.599841	0.097432
	C199	C	0.406960	0.406014	0.910412
	C200	C	0.097014	0.599959	0.403652
	C201	C	0.911225	0.600769	0.600727
	C202	C	0.097758	0.399246	0.604987
	C203	C	0.910389	0.404873	0.402605
	C204	C	0.905291	0.595127	0.098387
	C205	C	0.107129	0.407242	0.103023
	C206	C	0.101960	0.596108	0.905014
	C207	C	0.906518	0.406510	0.904232
	C208	C	0.105594	0.900812	0.598646
	C209	C	0.100898	0.098905	0.409763
	C210	C	0.903436	0.101814	0.597172
	C211	C	0.905375	0.905660	0.410730
	C212	C	0.597443	0.099935	0.904356
	C213	C	0.411266	0.103228	0.102519
	C214	C	0.598121	0.899332	0.106150
	C215	C	0.411640	0.906401	0.906151
	Zn216	Zn	0.503374	0.003183	0.752927
	Zn217	Zn	0.504298	0.002239	0.254796
	Zn218	Zn	0.755604	0.500343	0.002378
	Zn219	Zn	0.254936	0.502202	0.003626
	Zn220	Zn	0.004382	0.752143	0.504305
	Zn221	Zn	0.002696	0.251286	0.502889
	Zn222	Zn	0.004787	0.501310	0.754145
	Zn223	Zn	0.004634	0.501739	0.251536
	Zn224	Zn	0.504140	0.751129	0.004410
	Zn225	Zn	0.505720	0.252188	0.003645
	Zn226	Zn	0.753226	0.002920	0.504086
	Zn227	Zn	0.253949	0.001291	0.504323
	N228	N	0.418163	0.966028	0.682558
	N229	N	0.588172	0.040299	0.681407
	N230	N	0.588349	0.964803	0.328834
	N231	N	0.417554	0.040199	0.325323
	N232	N	0.686150	0.412700	0.966293
	N233	N	0.683276	0.585157	0.039942
	N234	N	0.323664	0.590394	0.967154
	N235	N	0.327153	0.415951	0.040686
	N236	N	0.967030	0.682504	0.416215
	N237	N	0.041514	0.678286	0.588822
	N238	N	0.965777	0.324140	0.588084
	N239	N	0.040443	0.322474	0.417690
	N240	N	0.967968	0.413848	0.684575
	N241	N	0.041112	0.586112	0.682001
	N242	N	0.967099	0.589698	0.321785
	N243	N	0.041495	0.416292	0.325428
	N244	N	0.418052	0.681240	0.966697
	N245	N	0.589035	0.677035	0.041407
	N246	N	0.591515	0.322239	0.965982
	N247	N	0.423781	0.326791	0.042106
	N248	N	0.683699	0.966813	0.417629
	N249	N	0.682864	0.039571	0.590926
	N250	N	0.327130	0.964962	0.589290
	N251	N	0.322455	0.038718	0.415991
	N252	N	0.920822	0.464091	0.179716
	N253	N	0.090661	0.538926	0.181290
	N254	N	0.089687	0.463981	0.827526
	N255	N	0.918812	0.538529	0.824562
	N256	N	0.185415	0.912547	0.468361
	N257	N	0.182126	0.086613	0.540458
	N258	N	0.821441	0.091207	0.466904
	N259	N	0.826284	0.917094	0.541194
	N260	N	0.467546	0.182139	0.917734
	N261	N	0.542507	0.178755	0.088999
	N262	N	0.467565	0.821864	0.091443
	N263	N	0.541069	0.823272	0.919266
	N264	N	0.467780	0.915496	0.184409
	N265	N	0.541231	0.087391	0.183706
	N266	N	0.467108	0.090709	0.823518
	N267	N	0.540940	0.916748	0.825679
	N268	N	0.916485	0.181479	0.465570
	N269	N	0.086315	0.176691	0.541563
	N270	N	0.089836	0.822658	0.466975
	N271	N	0.920005	0.824626	0.541822
	N272	N	0.184450	0.465168	0.917721
	N273	N	0.184864	0.538387	0.090816
	N274	N	0.828427	0.463314	0.087450
	N275	N	0.823153	0.536985	0.914010
	O276	O	0.485799	0.597268	0.494409
	H277	H	0.496407	0.603725	0.487876
	H278	H	0.483799	0.598800	0.503268
	O279	O	0.646850	0.472229	0.513914
	H280	H	0.651673	0.465107	0.514164
	H281	H	0.642556	0.488979	0.504239
	O282	O	0.864461	1.027960	-0.085404
	H283	H	0.857106	1.027893	-0.098718
	H284	H	0.865976	1.012489	-0.075825
	O285	O	0.898620	-0.026001	1.072556
	H286	H	0.910167	-0.018184	1.086149
	H287	H	0.893297	-0.015888	1.077765
	O288	O	0.534384	0.465166	0.611024
	H289	H	0.531815	0.465538	0.621895
	H290	H	0.521353	0.472379	0.610918
	O291	O	0.426993	0.559436	0.500457
	H292	H	0.440555	0.560674	0.493877
	H293	H	0.443568	0.562718	0.504448
	O294	O	0.445644	0.547385	0.478462
	H295	H	0.434745	0.564819	0.482303
	H296	H	0.450180	0.552964	0.477096
	O297	O	0.404912	0.510118	0.416271
	H298	H	0.404232	0.517932	0.422803
	H299	H	0.406136	0.509033	0.409885
	O300	O	1.110555	-0.101772	0.994735
	H301	H	1.116713	-0.111427	1.003113
	H302	H	1.100323	-0.104130	1.005948
	O303	O	1.040732	1.016640	0.057681
	H304	H	1.052980	1.026687	0.065240
	H305	H	1.041321	1.013805	0.056156
	O306	O	0.083261	1.065751	1.101442
	H307	H	0.093598	1.068087	1.111221
	H308	H	0.087611	1.062624	1.082753
	O309	O	0.535539	0.578974	0.458062
	H310	H	0.543460	0.571269	0.461911
	H311	H	0.533569	0.580310	0.448961
	O312	O	0.052513	0.055636	0.066467
	H313	H	0.047571	0.056159	0.060380
	H314	H	0.048762	0.061696	0.063793
	O315	O	0.930455	0.010848	-0.055747
	H316	H	0.912216	0.008021	-0.054741
	H317	H	0.913805	0.027479	-0.073084
	O318	O	1.098934	0.996029	1.044986
	H319	H	1.094451	0.994963	1.028924
	H320	H	1.083258	0.999742	1.047892
	O321	O	-0.608744	-0.576474	0.546445
	H322	H	-0.609214	-0.573682	0.553083
	H323	H	-0.623320	-0.565847	0.548079
	O324	O	0.479355	0.590751	0.558845
	H325	H	0.479646	0.590254	0.554319
	H326	H	0.469407	0.596844	0.562682
	O327	O	-0.418739	-0.602480	0.498465
	H328	H	-0.407953	-0.602412	0.502461
	H329	H	-0.422210	-0.608771	0.489602
	O330	O	0.572970	0.523291	0.533690
	H331	H	0.583576	0.520711	0.535450
	H332	H	0.569181	0.520956	0.534944
	O333	O	-0.530516	0.566359	0.351827
	H334	H	-0.536804	0.576838	0.347527
	H335	H	-0.527891	0.555639	0.362437
	O336	O	0.069530	-0.055705	-0.145443
	H337	H	0.068170	-0.066491	-0.148182
	H338	H	0.072908	-0.063616	-0.153099
	O339	O	-0.125293	1.058135	1.018189
	H340	H	-0.112810	1.068495	1.021655
	H341	H	-0.137177	1.062848	1.016393
	O342	O	0.999646	0.967988	0.986412
	H343	H	0.998906	0.961666	0.986562
	H344	H	0.998140	0.970769	0.971882
	O345	O	1.000250	1.080762	0.026016
	H346	H	0.993802	1.075103	0.006413
	H347	H	0.989470	1.081728	0.020678
	O348	O	-0.039249	0.916271	0.027385
	H349	H	-0.047517	0.913287	0.039018
	H350	H	-0.037325	0.921745	0.031034
	O351	O	0.567617	0.518805	0.508434
	H352	H	0.558422	0.521871	0.492855
	H353	H	0.569418	0.514147	0.500630
	O354	O	0.997349	0.024419	1.118632
	H355	H	0.999564	0.022052	1.120424
	H356	H	1.004135	0.025508	1.119613
	O357	O	0.999570	-0.089547	1.049157
	H358	H	1.001859	-0.090384	1.046222
	H359	H	1.014559	-0.076146	1.047244
	O360	O	0.411501	0.552570	0.343611
	H361	H	0.395088	0.549323	0.334667
	H362	H	0.398910	0.571409	0.330906
	O363	O	0.999524	1.115243	-0.065139
	H364	H	0.998039	1.108216	-0.066670
	H365	H	1.008755	1.111667	-0.074512
	O366	O	0.888324	0.933740	0.890504
	H367	H	0.883597	0.944178	0.899817
	H368	H	0.899562	0.931037	0.887823
	O369	O	0.950305	0.004846	1.031720
	H370	H	0.952707	0.012259	1.028023
	H371	H	0.954214	0.008071	1.028269
	O372	O	0.074995	0.011553	-0.162238
	H373	H	0.072149	0.005335	-0.155190
	H374	H	0.076423	0.018645	-0.162467
	O375	O	1.170330	-0.007162	0.074499
	H376	H	1.158366	0.002375	0.079104
	H377	H	1.171500	-0.004186	0.077506
	O378	O	0.461228	0.525501	0.539334
	H379	H	0.454120	0.523615	0.535972
	H380	H	0.462843	0.528395	0.526147
	O381	O	0.469052	0.510885	0.466533
	H382	H	0.457782	0.507045	0.468940
	H383	H	0.481626	0.510132	0.464237
