data_Molecule from HDF5

_cell_length_a		16.236684
_cell_length_b		16.266518
_cell_length_c		16.346586
_cell_angle_alpha	89.954185
_cell_angle_beta	89.569502
_cell_angle_gamma	89.999318
_symmetry_space_group_name_H-M	'P 1'
_symmetry_Int_Tables_number		1

loop_
	_symmetry_equiv_pos_as_xyz
	x,y,z

loop_
	_atom_site_label
	_atom_site_type_symbol
	_atom_site_fract_x
	_atom_site_fract_y
	_atom_site_fract_z
	H0	H	0.395862	0.841765	0.709814
	H1	H	0.598609	0.167316	0.706569
	H2	H	0.600385	0.840484	0.274854
	H3	H	0.400653	0.166863	0.276534
	H4	H	0.717649	0.403821	0.830389
	H5	H	0.713827	0.603603	0.155490
	H6	H	0.285888	0.604717	0.828868
	H7	H	0.281920	0.404509	0.154685
	H8	H	0.834596	0.719407	0.394088
	H9	H	0.162231	0.718283	0.589713
	H10	H	0.834419	0.288481	0.592057
	H11	H	0.161989	0.289706	0.391228
	H12	H	0.835216	0.402209	0.710153
	H13	H	0.162038	0.603553	0.705020
	H14	H	0.834921	0.605520	0.275988
	H15	H	0.160867	0.404020	0.274451
	H16	H	0.400942	0.720450	0.829870
	H17	H	0.597983	0.720218	0.154986
	H18	H	0.601212	0.287941	0.829864
	H19	H	0.398660	0.288818	0.155400
	H20	H	0.716554	0.841038	0.390400
	H21	H	0.712083	0.168565	0.588194
	H22	H	0.284307	0.841078	0.591340
	H23	H	0.286299	0.167782	0.393504
	H24	H	0.896247	0.342497	0.209107
	H25	H	0.097909	0.667339	0.206914
	H26	H	0.098942	0.340076	0.775836
	H27	H	0.899389	0.667079	0.776124
	H28	H	0.217050	0.902938	0.329377
	H29	H	0.212031	0.101981	0.655169
	H30	H	0.785684	0.103088	0.328425
	H31	H	0.780506	0.903220	0.654165
	H32	H	0.335690	0.220355	0.893378
	H33	H	0.663178	0.217242	0.088843
	H34	H	0.335442	0.789388	0.091724
	H35	H	0.664040	0.789513	0.891802
	H36	H	0.336659	0.902864	0.208575
	H37	H	0.663009	0.103449	0.204679
	H38	H	0.335565	0.104282	0.777874
	H39	H	0.662485	0.903227	0.773318
	H40	H	0.899762	0.220807	0.329282
	H41	H	0.096946	0.218919	0.654418
	H42	H	0.099089	0.788921	0.329181
	H43	H	0.897082	0.787225	0.654947
	H44	H	0.214983	0.340562	0.892973
	H45	H	0.212029	0.668643	0.088766
	H46	H	0.784009	0.341323	0.092595
	H47	H	0.785662	0.667923	0.894066
	H48	H	0.403948	0.121557	0.586182
	H49	H	0.589750	0.888377	0.583340
	H50	H	0.599602	0.123211	0.396062
	H51	H	0.413782	0.890661	0.404181
	H52	H	0.587481	0.416392	0.104975
	H53	H	0.598603	0.593969	0.875553
	H54	H	0.397728	0.599913	0.111310
	H55	H	0.405881	0.419124	0.878034
	H56	H	0.115670	0.595378	0.392790
	H57	H	0.885143	0.590365	0.581224
	H58	H	0.114417	0.413064	0.585132
	H59	H	0.881325	0.411968	0.400193
	H60	H	0.115664	0.409056	0.583452
	H61	H	0.880264	0.593937	0.591617
	H62	H	0.115220	0.600795	0.402127
	H63	H	0.881277	0.411649	0.400203
	H64	H	0.406304	0.588880	0.105265
	H65	H	0.589699	0.593157	0.879266
	H66	H	0.588025	0.404148	0.109157
	H67	H	0.415703	0.409776	0.878707
	H68	H	0.587803	0.121068	0.391117
	H69	H	0.587052	0.889289	0.582115
	H70	H	0.407540	0.121169	0.587812
	H71	H	0.400318	0.885915	0.402065
	H72	H	0.905359	0.623812	0.091427
	H73	H	0.092849	0.385114	0.092255
	H74	H	0.093064	0.620650	0.899597
	H75	H	0.913393	0.388141	0.896238
	H76	H	0.100963	0.917477	0.609303
	H77	H	0.093158	0.103127	0.373787
	H78	H	0.899445	0.098437	0.610283
	H79	H	0.912784	0.915758	0.379851
	H80	H	0.617197	0.103170	0.900314
	H81	H	0.380542	0.093207	0.093334
	H82	H	0.619923	0.901585	0.084528
	H83	H	0.381332	0.910423	0.894201
	H84	H	0.612713	0.915092	0.073256
	H85	H	0.380652	0.104554	0.084152
	H86	H	0.613146	0.090675	0.901142
	H87	H	0.383495	0.906664	0.905910
	H88	H	0.905751	0.088876	0.604946
	H89	H	0.099453	0.095184	0.375147
	H90	H	0.080524	0.915429	0.602924
	H91	H	0.909879	0.904164	0.375102
	H92	H	0.094433	0.621242	0.895034
	H93	H	0.082808	0.390981	0.081804
	H94	H	0.913020	0.618456	0.083132
	H95	H	0.909659	0.390497	0.906719
	H96	H	0.406680	0.120304	0.583617
	H97	H	0.589546	0.889114	0.580312
	H98	H	0.590049	0.117863	0.403249
	H99	H	0.410111	0.885165	0.391867
	H100	H	0.598757	0.411836	0.110127
	H101	H	0.592564	0.602438	0.875910
	H102	H	0.411979	0.602306	0.107860
	H103	H	0.403310	0.406724	0.874174
	H104	H	0.111821	0.590655	0.401253
	H105	H	0.880886	0.601473	0.582263
	H106	H	0.113839	0.411916	0.580475
	H107	H	0.881305	0.411468	0.400633
	H108	H	0.902226	0.621206	0.080687
	H109	H	0.097606	0.387650	0.077439
	H110	H	0.090190	0.619919	0.896460
	H111	H	0.902608	0.385878	0.898503
	H112	H	0.091439	0.898353	0.611080
	H113	H	0.089973	0.094442	0.377771
	H114	H	0.911444	0.100447	0.606287
	H115	H	0.900967	0.913557	0.375571
	H116	H	0.617759	0.095747	0.890449
	H117	H	0.384951	0.091099	0.079422
	H118	H	0.616410	0.918874	0.091145
	H119	H	0.386551	0.918907	0.902376
	C120	C	0.376666	0.012806	0.614504
	C121	C	0.618608	0.996441	0.611238
	C122	C	0.621594	0.012563	0.368394
	C123	C	0.379246	0.995421	0.370877
	C124	C	0.621661	0.381909	0.000874
	C125	C	0.621528	0.625694	0.984179
	C126	C	0.377660	0.626381	0.000650
	C127	C	0.378090	0.382733	0.984316
	C128	C	0.006422	0.625484	0.370234
	C129	C	0.990027	0.624849	0.613036
	C130	C	0.006668	0.381819	0.613405
	C131	C	0.989407	0.382713	0.370340
	C132	C	0.877215	0.513289	0.114347
	C133	C	0.119534	0.496291	0.112481
	C134	C	0.121711	0.512495	0.868556
	C135	C	0.878614	0.495702	0.870938
	C136	C	0.121085	0.881606	0.500382
	C137	C	0.121304	0.125806	0.483409
	C138	C	0.877522	0.125221	0.499838
	C139	C	0.876677	0.881385	0.483760
	C140	C	0.507677	0.125961	0.869618
	C141	C	0.490535	0.124970	0.113360
	C142	C	0.508086	0.882506	0.112890
	C143	C	0.491638	0.882558	0.870219
	C144	C	0.377646	0.890421	0.670735
	C145	C	0.618217	0.118917	0.667885
	C146	C	0.620432	0.889447	0.312565
	C147	C	0.380695	0.118184	0.314936
	C148	C	0.678616	0.383880	0.878693
	C149	C	0.676371	0.624205	0.106718
	C150	C	0.323211	0.624544	0.877895
	C151	C	0.320560	0.384420	0.106164
	C152	C	0.883539	0.681754	0.372807
	C153	C	0.113206	0.680497	0.609908
	C154	C	0.883510	0.326264	0.612272
	C155	C	0.112923	0.327408	0.371222
	C156	C	0.883926	0.382856	0.670958
	C157	C	0.113237	0.623249	0.667247
	C158	C	0.883540	0.624704	0.314537
	C159	C	0.112341	0.384449	0.313274
	C160	C	0.380562	0.682233	0.878290
	C161	C	0.618653	0.681912	0.106551
	C162	C	0.620654	0.326144	0.878509
	C163	C	0.378917	0.326943	0.106643
	C164	C	0.677681	0.889556	0.370488
	C165	C	0.674648	0.119439	0.608954
	C166	C	0.321907	0.889801	0.611952
	C167	C	0.323815	0.118581	0.373227
	C168	C	0.877567	0.390643	0.170475
	C169	C	0.117520	0.618793	0.168277
	C170	C	0.119623	0.389198	0.813506
	C171	C	0.879510	0.618438	0.814526
	C172	C	0.178634	0.883207	0.378213
	C173	C	0.175123	0.122807	0.606251
	C174	C	0.823126	0.123538	0.377299
	C175	C	0.818811	0.882766	0.605593
	C176	C	0.384581	0.182055	0.872883
	C177	C	0.614174	0.179661	0.109717
	C178	C	0.384689	0.827116	0.111350
	C179	C	0.614745	0.826904	0.871080
	C180	C	0.385330	0.883063	0.170032
	C181	C	0.613990	0.122899	0.167369
	C182	C	0.384304	0.124119	0.815737
	C183	C	0.614072	0.883578	0.812390
	C184	C	0.879981	0.181786	0.377601
	C185	C	0.117822	0.181050	0.605833
	C186	C	0.119679	0.826448	0.377848
	C187	C	0.877016	0.825306	0.606176
	C188	C	0.177050	0.389301	0.871554
	C189	C	0.174496	0.619442	0.109662
	C190	C	0.821818	0.390261	0.112397
	C191	C	0.822852	0.618764	0.873004
	C192	C	0.399329	0.098856	0.592269
	C193	C	0.595383	0.910946	0.588482
	C194	C	0.599232	0.098432	0.390518
	C195	C	0.401605	0.909511	0.393020
	C196	C	0.598269	0.404209	0.086108
	C197	C	0.599870	0.603245	0.899159
	C198	C	0.399124	0.603833	0.086019
	C199	C	0.401621	0.405184	0.899009
	C200	C	0.092119	0.602333	0.392307
	C201	C	0.904131	0.602033	0.591256
	C202	C	0.092340	0.404580	0.589990
	C203	C	0.903585	0.405093	0.393530
	C204	C	0.900131	0.598996	0.091710
	C205	C	0.097456	0.410102	0.090399
	C206	C	0.099289	0.598315	0.890585
	C207	C	0.901898	0.410245	0.893728
	C208	C	0.097801	0.903880	0.585672
	C209	C	0.100450	0.103881	0.397825
	C210	C	0.899133	0.102441	0.585224
	C211	C	0.900735	0.904382	0.398808
	C212	C	0.593685	0.103200	0.891032
	C213	C	0.404272	0.102905	0.091801
	C214	C	0.594045	0.905168	0.089774
	C215	C	0.405877	0.905365	0.893858
	Zn216	Zn	0.498793	0.004027	0.741792
	Zn217	Zn	0.499805	0.003578	0.240920
	Zn218	Zn	0.750364	0.503988	-0.007438
	Zn219	Zn	0.248995	0.504940	-0.008317
	Zn220	Zn	-0.001481	0.753282	0.492396
	Zn221	Zn	-0.001427	0.254072	0.491488
	Zn222	Zn	-0.001101	0.504184	0.740977
	Zn223	Zn	-0.002053	0.503997	0.241773
	Zn224	Zn	0.499865	0.754254	-0.008055
	Zn225	Zn	0.499639	0.253261	-0.007396
	Zn226	Zn	0.748560	0.004523	0.491257
	Zn227	Zn	0.249991	0.003805	0.492058
	N228	N	0.411090	0.968171	0.672417
	N229	N	0.584250	0.041504	0.669466
	N230	N	0.586413	0.966939	0.311079
	N231	N	0.414252	0.040568	0.313277
	N232	N	0.679168	0.417974	0.955585
	N233	N	0.678436	0.589975	0.029875
	N234	N	0.321419	0.590267	0.955023
	N235	N	0.319773	0.418409	0.029028
	N236	N	0.960886	0.682304	0.406488
	N237	N	0.035328	0.681537	0.577050
	N238	N	0.960781	0.325414	0.577336
	N239	N	0.035477	0.326204	0.405831
	N240	N	0.961523	0.417022	0.671530
	N241	N	0.035716	0.589416	0.669159
	N242	N	0.960892	0.590205	0.312942
	N243	N	0.034589	0.417988	0.312606
	N244	N	0.413852	0.683380	0.955346
	N245	N	0.585336	0.683115	0.029391
	N246	N	0.586100	0.324744	0.955594
	N247	N	0.413992	0.325862	0.029827
	N248	N	0.678716	0.966948	0.404297
	N249	N	0.674728	0.042235	0.574361
	N250	N	0.321187	0.966901	0.577692
	N251	N	0.322893	0.041259	0.407450
	N252	N	0.911389	0.468136	0.171913
	N253	N	0.084096	0.541012	0.170090
	N254	N	0.085964	0.466944	0.811438
	N255	N	0.913239	0.540769	0.812820
	N256	N	0.179660	0.916814	0.455497
	N257	N	0.177686	0.089387	0.528969
	N258	N	0.821704	0.089029	0.454115
	N259	N	0.818453	0.916948	0.528525
	N260	N	0.462356	0.183254	0.905790
	N261	N	0.536505	0.180835	0.076721
	N262	N	0.462097	0.826782	0.076542
	N263	N	0.537696	0.826227	0.906363
	N264	N	0.462968	0.916903	0.171077
	N265	N	0.536063	0.089444	0.169470
	N266	N	0.461841	0.090063	0.813493
	N267	N	0.536429	0.917598	0.811983
	N268	N	0.913186	0.183070	0.454880
	N269	N	0.085319	0.183216	0.528451
	N270	N	0.084601	0.825246	0.454642
	N271	N	0.912102	0.824221	0.529325
	N272	N	0.178696	0.466921	0.904756
	N273	N	0.175589	0.542138	0.075590
	N274	N	0.821429	0.467464	0.078235
	N275	N	0.822393	0.541578	0.907318
	O276	O	-0.055686	-0.073124	0.007765
	H277	H	-0.065948	-0.080325	0.008018
	H278	H	-0.056010	-0.076498	0.002537
	O279	O	1.006571	0.017317	1.006165
	H280	H	1.018775	0.009864	1.011905
	H281	H	1.013059	0.018965	1.005312
	O282	O	0.517389	0.604168	0.561571
	H283	H	0.513875	0.609243	0.557413
	H284	H	0.523987	0.603713	0.579924
	O285	O	0.025256	1.051977	1.000986
	H286	H	0.027610	1.050841	1.003237
	H287	H	0.024877	1.064140	0.991983
	O288	O	0.367795	0.426125	0.660224
	H289	H	0.373271	0.408103	0.668035
	H290	H	0.362132	0.421530	0.662043
	O291	O	0.480819	0.522917	1.492230
	H292	H	0.493504	0.529508	1.491641
	H293	H	0.485810	0.524842	1.479599
	O294	O	0.955211	0.925474	0.997712
	H295	H	0.948871	0.920172	1.004742
	H296	H	0.953095	0.918056	0.984195
	O297	O	1.046288	0.027101	0.994845
	H298	H	1.058575	0.031176	1.005951
	H299	H	1.047346	0.022553	1.007003
	O300	O	0.570248	0.524626	0.477149
	H301	H	0.563891	0.537243	0.481475
	H302	H	0.574882	0.526277	0.475648
	O303	O	1.138238	-0.041661	-0.018262
	H304	H	1.138714	-0.038150	-0.024179
	H305	H	1.132768	-0.048095	-0.006004
	O306	O	-0.469494	1.517384	0.430109
	H307	H	-0.469414	1.529513	0.430699
	H308	H	-0.476901	1.522824	0.433802
	O309	O	0.043590	0.021011	0.094012
	H310	H	0.040973	0.036407	0.089332
	H311	H	0.042333	0.024674	0.099661
	O312	O	1.429531	0.569044	1.363139
	H313	H	1.433891	0.567061	1.361066
	H314	H	1.425364	0.573164	1.354838
	O315	O	0.409422	0.494645	0.453330
	H316	H	0.417136	0.491470	0.443311
	H317	H	0.410226	0.492108	0.460181
	O318	O	0.447966	0.342027	0.515366
	H319	H	0.461284	0.335358	0.513277
	H320	H	0.446211	0.339123	0.525459
	O321	O	1.065807	1.054945	0.939460
	H322	H	1.083508	1.049367	0.934242
	H323	H	1.058859	1.045284	0.939791
	O324	O	0.503817	0.582738	0.503871
	H325	H	0.508504	0.575558	0.505804
	H326	H	0.503939	0.578779	0.513979
	O327	O	0.493995	0.566067	0.522223
	H328	H	0.494581	0.572674	0.527555
	H329	H	0.489505	0.564561	0.524663
	O330	O	1.057309	-0.001941	0.963594
	H331	H	1.066049	-0.006250	0.953724
	H332	H	1.056463	0.001811	0.966726
	O333	O	0.943768	0.981762	0.095719
	H334	H	0.930717	0.984569	0.084820
	H335	H	0.933974	0.982334	0.114371
	O336	O	0.432226	0.463241	0.637462
	H337	H	0.423035	0.448670	0.631034
	H338	H	0.433051	0.459370	0.647851
	O339	O	0.625797	0.613763	0.460800
	H340	H	0.614984	0.619574	0.460258
	H341	H	0.624255	0.611356	0.467224
	O342	O	0.033341	0.937394	0.020503
	H343	H	0.033843	0.934712	0.008167
	H344	H	0.039762	0.940720	0.022170
	O345	O	-0.012094	0.014964	0.035146
	H346	H	-0.007870	0.011442	0.027567
	H347	H	-0.010463	0.016179	0.044783
	O348	O	0.469834	0.460610	0.434807
	H349	H	0.471521	0.469966	0.432599
	H350	H	0.462223	0.463032	0.430144
	O351	O	0.521033	0.576396	0.464832
	H352	H	0.513085	0.577733	0.468321
	H353	H	0.523899	0.573576	0.466281
	O354	O	0.437845	0.610962	0.488469
	H355	H	0.437126	0.599961	0.492578
	H356	H	0.442927	0.626299	0.491351
	O357	O	0.598832	0.428589	0.512051
	H358	H	0.608721	0.424485	0.499999
	H359	H	0.609162	0.426315	0.513271
	O360	O	-0.059462	0.022070	-0.054445
	H361	H	-0.064063	0.027081	-0.048625
	H362	H	-0.056701	0.033576	-0.057566
	O363	O	0.508911	0.481413	0.524957
	H364	H	0.502735	0.479090	0.515634
	H365	H	0.509019	0.477851	0.532421
	O366	O	0.035350	0.072572	0.991567
	H367	H	0.040135	0.081381	0.994780
	H368	H	0.029602	0.077472	0.992837
	O369	O	0.535296	0.430325	0.545649
	H370	H	0.536977	0.439164	0.550159
	H371	H	0.534522	0.436310	0.553032
