data_Molecule from HDF5

_cell_length_a		16.400079
_cell_length_b		16.316330
_cell_length_c		16.214689
_cell_angle_alpha	89.950320
_cell_angle_beta	89.937093
_cell_angle_gamma	90.215635
_symmetry_space_group_name_H-M	'P 1'
_symmetry_Int_Tables_number		1

loop_
	_symmetry_equiv_pos_as_xyz
	x,y,z

loop_
	_atom_site_label
	_atom_site_type_symbol
	_atom_site_fract_x
	_atom_site_fract_y
	_atom_site_fract_z
	H0	H	0.404461	0.833651	0.713161
	H1	H	0.599302	0.162097	0.713270
	H2	H	0.596214	0.834161	0.286175
	H3	H	0.404071	0.162201	0.285936
	H4	H	0.714780	0.399868	0.835677
	H5	H	0.714052	0.597681	0.163807
	H6	H	0.286793	0.596402	0.835290
	H7	H	0.284192	0.398798	0.163516
	H8	H	0.838010	0.713406	0.400280
	H9	H	0.162427	0.714775	0.598325
	H10	H	0.837606	0.280290	0.599481
	H11	H	0.163606	0.283375	0.399814
	H12	H	0.836376	0.399880	0.714017
	H13	H	0.163160	0.597164	0.713551
	H14	H	0.836695	0.594597	0.286840
	H15	H	0.162736	0.399811	0.282881
	H16	H	0.403848	0.710612	0.834256
	H17	H	0.596639	0.710584	0.163663
	H18	H	0.596275	0.286076	0.834089
	H19	H	0.399545	0.282633	0.163572
	H20	H	0.714557	0.834241	0.400110
	H21	H	0.718581	0.160070	0.599895
	H22	H	0.285342	0.834431	0.599657
	H23	H	0.284896	0.160328	0.398116
	H24	H	0.902170	0.334067	0.212669
	H25	H	0.096628	0.662834	0.212817
	H26	H	0.096237	0.334547	0.786069
	H27	H	0.903250	0.662853	0.786396
	H28	H	0.215120	0.899251	0.335068
	H29	H	0.216012	0.097597	0.663290
	H30	H	0.786049	0.097745	0.335576
	H31	H	0.786132	0.898199	0.662861
	H32	H	0.337750	0.213356	0.899598
	H33	H	0.662123	0.215678	0.099186
	H34	H	0.337797	0.782091	0.098885
	H35	H	0.662758	0.783223	0.899860
	H36	H	0.337290	0.900632	0.213886
	H37	H	0.663030	0.097187	0.214368
	H38	H	0.337384	0.094845	0.784943
	H39	H	0.663414	0.902076	0.786042
	H40	H	0.903694	0.211840	0.335415
	H41	H	0.099110	0.212200	0.663919
	H42	H	0.097504	0.785460	0.334366
	H43	H	0.903674	0.785097	0.664039
	H44	H	0.214764	0.335324	0.899620
	H45	H	0.216181	0.661500	0.099789
	H46	H	0.781798	0.336294	0.101306
	H47	H	0.784782	0.661463	0.900013
	H48	H	0.404822	0.116332	0.596411
	H49	H	0.582784	0.883870	0.597044
	H50	H	0.585272	0.112051	0.403702
	H51	H	0.401021	0.881235	0.408991
	H52	H	0.587436	0.404870	0.115774
	H53	H	0.595327	0.585294	0.883390
	H54	H	0.408732	0.590271	0.115852
	H55	H	0.408863	0.401463	0.882333
	H56	H	0.117627	0.593445	0.400226
	H57	H	0.885477	0.591210	0.591938
	H58	H	0.113882	0.409167	0.593715
	H59	H	0.885719	0.403004	0.409769
	H60	H	0.116786	0.402716	0.595901
	H61	H	0.884104	0.591632	0.595321
	H62	H	0.116102	0.596650	0.411439
	H63	H	0.885770	0.405854	0.404870
	H64	H	0.406374	0.593021	0.117360
	H65	H	0.588866	0.592726	0.882975
	H66	H	0.594757	0.403982	0.117456
	H67	H	0.401712	0.405844	0.881031
	H68	H	0.597436	0.111831	0.418838
	H69	H	0.597090	0.884686	0.581203
	H70	H	0.413769	0.111921	0.591305
	H71	H	0.409127	0.881814	0.401437
	H72	H	0.906312	0.613585	0.088547
	H73	H	0.091301	0.384496	0.086367
	H74	H	0.096520	0.615177	0.907957
	H75	H	0.904656	0.382146	0.906448
	H76	H	0.087694	0.900856	0.615966
	H77	H	0.093933	0.092895	0.381373
	H78	H	0.897565	0.087957	0.618956
	H79	H	0.913995	0.899328	0.381837
	H80	H	0.615305	0.092405	0.909198
	H81	H	0.384710	0.092342	0.092661
	H82	H	0.614584	0.905480	0.089519
	H83	H	0.390802	0.914060	0.916165
	H84	H	0.615889	0.906568	0.095384
	H85	H	0.385874	0.090556	0.091985
	H86	H	0.615225	0.091426	0.905687
	H87	H	0.382169	0.908002	0.892789
	H88	H	0.914092	0.079858	0.611508
	H89	H	0.095862	0.089833	0.382638
	H90	H	0.101031	0.902683	0.619223
	H91	H	0.899715	0.903489	0.379081
	H92	H	0.094873	0.616117	0.904406
	H93	H	0.097478	0.381214	0.092570
	H94	H	0.903149	0.616056	0.094883
	H95	H	0.908898	0.383589	0.907448
	H96	H	0.404356	0.112613	0.585657
	H97	H	0.603063	0.877221	0.600565
	H98	H	0.603260	0.118004	0.401162
	H99	H	0.410846	0.884321	0.411677
	H100	H	0.591772	0.410583	0.115184
	H101	H	0.597853	0.593975	0.880177
	H102	H	0.404884	0.589431	0.116559
	H103	H	0.408740	0.409683	0.885440
	H104	H	0.113244	0.585662	0.407529
	H105	H	0.883565	0.594191	0.592540
	H106	H	0.114530	0.403095	0.589085
	H107	H	0.884062	0.401255	0.404653
	H108	H	0.910096	0.613616	0.094470
	H109	H	0.088443	0.382731	0.095633
	H110	H	0.093065	0.613929	0.907115
	H111	H	0.905605	0.383702	0.911149
	H112	H	0.093879	0.913419	0.613611
	H113	H	0.092538	0.089597	0.384033
	H114	H	0.913993	0.098798	0.617090
	H115	H	0.909021	0.913050	0.385063
	H116	H	0.615727	0.094553	0.906268
	H117	H	0.384652	0.090311	0.093891
	H118	H	0.616325	0.900861	0.092476
	H119	H	0.382047	0.889848	0.911255
	C120	C	0.379300	0.005673	0.620515
	C121	C	0.623084	0.989702	0.621429
	C122	C	0.622525	0.005915	0.378614
	C123	C	0.378899	0.990132	0.377837
	C124	C	0.620484	0.377671	0.007692
	C125	C	0.621732	0.619245	0.990750
	C126	C	0.378853	0.619212	0.007691
	C127	C	0.377439	0.376605	0.991106
	C128	C	0.008097	0.619879	0.377927
	C129	C	0.991932	0.620393	0.621007
	C130	C	0.007653	0.375778	0.621793
	C131	C	0.992417	0.375279	0.377264
	C132	C	0.877592	0.506703	0.121700
	C133	C	0.121274	0.490658	0.120634
	C134	C	0.121842	0.506626	0.877872
	C135	C	0.878515	0.490783	0.879178
	C136	C	0.122112	0.877169	0.507524
	C137	C	0.122603	0.119649	0.491168
	C138	C	0.880228	0.118158	0.507603
	C139	C	0.879346	0.876444	0.490511
	C140	C	0.508408	0.120778	0.877522
	C141	C	0.492368	0.120270	0.121757
	C142	C	0.508416	0.875900	0.121394
	C143	C	0.492352	0.876062	0.877646
	C144	C	0.382722	0.882676	0.675753
	C145	C	0.620347	0.112826	0.676301
	C146	C	0.617818	0.882859	0.323873
	C147	C	0.382433	0.113022	0.322729
	C148	C	0.676423	0.379488	0.884494
	C149	C	0.676380	0.617480	0.114618
	C150	C	0.324295	0.616964	0.884136
	C151	C	0.322035	0.378413	0.114651
	C152	C	0.886330	0.675273	0.380135
	C153	C	0.114250	0.676039	0.618629
	C154	C	0.885911	0.319126	0.619845
	C155	C	0.114871	0.321395	0.379510
	C156	C	0.885101	0.378428	0.676794
	C157	C	0.114425	0.617763	0.675983
	C158	C	0.885508	0.616074	0.323604
	C159	C	0.114277	0.378977	0.321164
	C160	C	0.382433	0.673597	0.883685
	C161	C	0.618244	0.673681	0.114549
	C162	C	0.617598	0.323063	0.883651
	C163	C	0.379785	0.320971	0.114664
	C164	C	0.676402	0.882857	0.380760
	C165	C	0.679380	0.111943	0.619854
	C166	C	0.323702	0.883014	0.619272
	C167	C	0.323388	0.112264	0.378892
	C168	C	0.880830	0.383253	0.175890
	C169	C	0.117862	0.613704	0.175506
	C170	C	0.117678	0.383621	0.823323
	C171	C	0.882594	0.613857	0.824267
	C172	C	0.176608	0.879546	0.383712
	C173	C	0.177726	0.117738	0.614438
	C174	C	0.824727	0.117026	0.384282
	C175	C	0.823836	0.878151	0.614053
	C176	C	0.386081	0.175005	0.879632
	C177	C	0.613754	0.176978	0.119332
	C178	C	0.386150	0.820616	0.119061
	C179	C	0.614419	0.821360	0.880130
	C180	C	0.386061	0.879328	0.176330
	C181	C	0.614392	0.118099	0.176551
	C182	C	0.386144	0.116644	0.822196
	C183	C	0.614781	0.879984	0.823221
	C184	C	0.882763	0.174063	0.384342
	C185	C	0.119840	0.174788	0.614703
	C186	C	0.118402	0.822811	0.383514
	C187	C	0.882227	0.822018	0.614653
	C188	C	0.176683	0.384042	0.879823
	C189	C	0.177248	0.613202	0.119213
	C190	C	0.821159	0.384315	0.120438
	C191	C	0.823452	0.613164	0.880500
	C192	C	0.401178	0.091317	0.597683
	C193	C	0.600875	0.904105	0.599502
	C194	C	0.601440	0.091869	0.401212
	C195	C	0.400593	0.904643	0.400687
	C196	C	0.597918	0.400056	0.093713
	C197	C	0.600351	0.597097	0.904642
	C198	C	0.400271	0.597237	0.094290
	C199	C	0.399700	0.399006	0.905336
	C200	C	0.093687	0.598159	0.399936
	C201	C	0.906569	0.598783	0.599422
	C202	C	0.092928	0.398242	0.599294
	C203	C	0.907153	0.396820	0.399919
	C204	C	0.900051	0.592303	0.099289
	C205	C	0.099064	0.404933	0.098059
	C206	C	0.100999	0.592933	0.900111
	C207	C	0.900186	0.405197	0.901666
	C208	C	0.100584	0.899253	0.593858
	C209	C	0.100669	0.097244	0.404928
	C210	C	0.902199	0.095390	0.593478
	C211	C	0.901191	0.898625	0.404367
	C212	C	0.593373	0.099270	0.900226
	C213	C	0.407052	0.097466	0.099472
	C214	C	0.593729	0.897864	0.099139
	C215	C	0.406903	0.897761	0.900170
	Zn216	Zn	0.500719	-0.002085	0.749583
	Zn217	Zn	0.500796	-0.001985	0.250516
	Zn218	Zn	0.749412	0.498417	-0.000107
	Zn219	Zn	0.250509	0.498720	-0.000541
	Zn220	Zn	0.000592	0.749225	0.498998
	Zn221	Zn	0.000874	0.246752	0.499852
	Zn222	Zn	-0.000276	0.498591	0.749818
	Zn223	Zn	-0.000358	0.498085	0.249166
	Zn224	Zn	0.500344	0.746731	-0.000924
	Zn225	Zn	0.499475	0.249247	-0.000703
	Zn226	Zn	0.751579	-0.002497	0.499223
	Zn227	Zn	0.250109	-0.001862	0.499494
	N228	N	0.416562	0.959922	0.676743
	N229	N	0.585939	0.035782	0.677349
	N230	N	0.585152	0.960422	0.322406
	N231	N	0.416296	0.036163	0.322144
	N232	N	0.678443	0.412417	0.962613
	N233	N	0.678660	0.584221	0.036602
	N234	N	0.322012	0.583906	0.962181
	N235	N	0.320541	0.412264	0.037073
	N236	N	0.963623	0.677364	0.413329
	N237	N	0.037255	0.677944	0.585295
	N238	N	0.962976	0.317387	0.586525
	N239	N	0.037996	0.318957	0.413634
	N240	N	0.961793	0.412996	0.678086
	N241	N	0.037494	0.583797	0.677727
	N242	N	0.962233	0.582204	0.322288
	N243	N	0.037195	0.412088	0.319898
	N244	N	0.415677	0.675168	0.961570
	N245	N	0.584985	0.675180	0.036796
	N246	N	0.583411	0.321872	0.961271
	N247	N	0.413505	0.319552	0.036928
	N248	N	0.679325	0.960422	0.413980
	N249	N	0.681287	0.034572	0.586605
	N250	N	0.321300	0.960612	0.585717
	N251	N	0.321033	0.034843	0.412480
	N252	N	0.915170	0.460289	0.176837
	N253	N	0.083806	0.536528	0.176393
	N254	N	0.084391	0.460813	0.822199
	N255	N	0.916178	0.536659	0.823273
	N256	N	0.179006	0.912633	0.461660
	N257	N	0.179491	0.084144	0.536598
	N258	N	0.823127	0.082958	0.461891
	N259	N	0.822082	0.911648	0.536066
	N260	N	0.462950	0.177638	0.913151
	N261	N	0.536634	0.178388	0.085983
	N262	N	0.463239	0.818235	0.085578
	N263	N	0.537138	0.818976	0.913435
	N264	N	0.463046	0.913054	0.177765
	N265	N	0.537826	0.083524	0.177963
	N266	N	0.463331	0.083532	0.820808
	N267	N	0.537963	0.913142	0.821635
	N268	N	0.916577	0.174851	0.461978
	N269	N	0.086435	0.176008	0.536972
	N270	N	0.085136	0.821373	0.461489
	N271	N	0.916154	0.820897	0.537139
	N272	N	0.179374	0.461770	0.913078
	N273	N	0.179324	0.535689	0.085666
	N274	N	0.819135	0.461956	0.087380
	N275	N	0.820770	0.535674	0.913881
	O276	O	1.233105	0.714109	0.254636
	H277	H	1.229727	0.711242	0.256831
	H278	H	1.226838	0.714258	0.252406
	O279	O	-0.012245	0.066160	-0.017424
	H280	H	-0.019354	0.071057	-0.017727
	H281	H	-0.006099	0.064416	-0.008869
	O282	O	0.002961	0.033497	0.945107
	H283	H	0.013851	0.034856	0.950357
	H284	H	0.010988	0.027469	0.945811
	O285	O	0.420318	0.435673	0.514757
	H286	H	0.430687	0.435293	0.522911
	H287	H	0.416958	0.416454	0.522571
	O288	O	0.458568	0.466445	0.453672
	H289	H	0.452678	0.460068	0.452598
	H290	H	0.457874	0.464645	0.460117
	O291	O	0.417311	0.431301	0.502293
	H292	H	0.408088	0.420998	0.495507
	H293	H	0.416260	0.421768	0.508238
	O294	O	-0.005735	0.036192	-0.002898
	H295	H	-0.028558	0.042954	-0.003578
	H296	H	-0.009561	0.029900	-0.009850
	O297	O	0.493729	0.464616	0.484161
	H298	H	0.492891	0.458138	0.481894
	H299	H	0.492604	0.460818	0.465999
	O300	O	0.002857	1.054463	0.986807
	H301	H	0.002470	1.048652	0.980173
	H302	H	-0.002316	1.057517	0.979142
	O303	O	0.486476	0.476776	0.521725
	H304	H	0.478775	0.482009	0.523756
	H305	H	0.486971	0.477067	0.521836
	O306	O	-0.032416	0.061401	0.992970
	H307	H	-0.031511	0.063471	0.994744
	H308	H	-0.041758	0.061585	0.988493
	O309	O	1.052597	1.107800	0.972621
	H310	H	1.056849	1.103277	0.972974
	H311	H	1.062342	1.112827	0.984333
	O312	O	0.522226	0.446364	0.520617
	H313	H	0.536390	0.454497	0.508530
	H314	H	0.526006	0.447328	0.528366
	O315	O	0.535866	0.501967	0.493367
	H316	H	0.529339	0.507812	0.488596
	H317	H	0.531280	0.509872	0.505237
	O318	O	0.052403	1.070411	-0.033264
	H319	H	0.052960	1.076605	-0.020562
	H320	H	0.048057	1.059012	-0.027040
	O321	O	0.992832	1.062061	-0.069066
	H322	H	0.990687	1.060920	-0.077573
	H323	H	0.994971	1.070431	-0.074798
