data_Molecule from HDF5

_cell_length_a		16.273531
_cell_length_b		16.281220
_cell_length_c		16.346348
_cell_angle_alpha	89.975907
_cell_angle_beta	90.129767
_cell_angle_gamma	89.992068
_symmetry_space_group_name_H-M	'P 1'
_symmetry_Int_Tables_number		1

loop_
	_symmetry_equiv_pos_as_xyz
	x,y,z

loop_
	_atom_site_label
	_atom_site_type_symbol
	_atom_site_fract_x
	_atom_site_fract_y
	_atom_site_fract_z
	H0	H	0.393163	0.837183	0.717783
	H1	H	0.594725	0.162608	0.718624
	H2	H	0.591390	0.836650	0.288827
	H3	H	0.393781	0.164496	0.286535
	H4	H	0.709025	0.403153	0.841054
	H5	H	0.706761	0.599258	0.167769
	H6	H	0.277609	0.599424	0.841027
	H7	H	0.280274	0.401617	0.167263
	H8	H	0.829212	0.714760	0.406419
	H9	H	0.157386	0.715720	0.603017
	H10	H	0.829619	0.286258	0.603142
	H11	H	0.157510	0.287897	0.406975
	H12	H	0.829603	0.402259	0.719419
	H13	H	0.157081	0.600561	0.719430
	H14	H	0.830520	0.602440	0.287712
	H15	H	0.156465	0.400478	0.288259
	H16	H	0.392547	0.716137	0.841039
	H17	H	0.591866	0.716791	0.166230
	H18	H	0.594351	0.285596	0.840379
	H19	H	0.396017	0.284806	0.165965
	H20	H	0.708139	0.836682	0.403644
	H21	H	0.707691	0.164156	0.599820
	H22	H	0.279559	0.836521	0.599724
	H23	H	0.277272	0.164568	0.402160
	H24	H	0.893400	0.338633	0.221250
	H25	H	0.093508	0.665064	0.219614
	H26	H	0.092954	0.338221	0.788869
	H27	H	0.893798	0.664689	0.789776
	H28	H	0.205258	0.902981	0.338714
	H29	H	0.211247	0.100952	0.664859
	H30	H	0.777831	0.101079	0.339657
	H31	H	0.779409	0.903879	0.665680
	H32	H	0.330105	0.216579	0.902055
	H33	H	0.657922	0.214363	0.099996
	H34	H	0.329732	0.786517	0.100304
	H35	H	0.656028	0.784622	0.903858
	H36	H	0.329941	0.902216	0.216517
	H37	H	0.657543	0.100180	0.217845
	H38	H	0.330808	0.100637	0.785534
	H39	H	0.656717	0.899636	0.786743
	H40	H	0.893100	0.219063	0.341371
	H41	H	0.092726	0.215548	0.666779
	H42	H	0.092081	0.783561	0.341226
	H43	H	0.894671	0.787163	0.666787
	H44	H	0.206033	0.336573	0.907785
	H45	H	0.209122	0.664712	0.102730
	H46	H	0.778933	0.337278	0.104093
	H47	H	0.778949	0.664943	0.907006
	H48	H	0.403247	0.116380	0.597035
	H49	H	0.583796	0.885704	0.591093
	H50	H	0.594736	0.119515	0.408891
	H51	H	0.392596	0.883867	0.412012
	H52	H	0.588298	0.404620	0.120684
	H53	H	0.583312	0.590732	0.889752
	H54	H	0.399689	0.591961	0.119803
	H55	H	0.395856	0.412216	0.887949
	H56	H	0.109332	0.594183	0.415368
	H57	H	0.881206	0.581699	0.596961
	H58	H	0.107902	0.412784	0.597454
	H59	H	0.878201	0.411421	0.412097
	H60	H	0.110333	0.407016	0.601620
	H61	H	0.872536	0.599475	0.609036
	H62	H	0.108273	0.589494	0.410947
	H63	H	0.876890	0.409472	0.409945
	H64	H	0.403410	0.593808	0.118619
	H65	H	0.585828	0.597207	0.886969
	H66	H	0.587360	0.411362	0.118097
	H67	H	0.405461	0.410011	0.890020
	H68	H	0.579951	0.117749	0.401606
	H69	H	0.591029	0.882721	0.594199
	H70	H	0.404837	0.114721	0.591555
	H71	H	0.400676	0.882482	0.400393
	H72	H	0.913497	0.611831	0.091606
	H73	H	0.088951	0.384845	0.096747
	H74	H	0.085945	0.618431	0.908807
	H75	H	0.907080	0.386422	0.910203
	H76	H	0.082118	0.911116	0.615909
	H77	H	0.092833	0.094779	0.385191
	H78	H	0.902545	0.095049	0.618526
	H79	H	0.911766	0.901738	0.388987
	H80	H	0.606773	0.090547	0.917990
	H81	H	0.377713	0.089817	0.096847
	H82	H	0.605161	0.914959	0.088303
	H83	H	0.379247	0.915638	0.910942
	H84	H	0.612147	0.911228	0.104921
	H85	H	0.376343	0.096119	0.096127
	H86	H	0.609790	0.085647	0.903784
	H87	H	0.374093	0.906664	0.900766
	H88	H	0.898360	0.094405	0.619593
	H89	H	0.081848	0.088409	0.389826
	H90	H	0.086485	0.901777	0.620448
	H91	H	0.891145	0.900460	0.382267
	H92	H	0.084478	0.617154	0.911925
	H93	H	0.085131	0.384945	0.101603
	H94	H	0.888046	0.618428	0.088397
	H95	H	0.898623	0.386401	0.917902
	H96	H	0.399497	0.115993	0.592738
	H97	H	0.583831	0.883051	0.599145
	H98	H	0.582183	0.112952	0.417596
	H99	H	0.406332	0.887950	0.412546
	H100	H	0.581525	0.406333	0.118596
	H101	H	0.590108	0.590813	0.887350
	H102	H	0.400075	0.596085	0.120621
	H103	H	0.399599	0.403156	0.886168
	H104	H	0.110971	0.595275	0.409664
	H105	H	0.877593	0.601545	0.586769
	H106	H	0.109229	0.406222	0.594795
	H107	H	0.877316	0.408370	0.412088
	H108	H	0.899865	0.622217	0.112199
	H109	H	0.083431	0.386966	0.095830
	H110	H	0.088181	0.617560	0.912223
	H111	H	0.897299	0.382354	0.907767
	H112	H	0.092385	0.911316	0.620386
	H113	H	0.081051	0.101669	0.386666
	H114	H	0.900339	0.090757	0.618008
	H115	H	0.898839	0.918902	0.390234
	H116	H	0.612096	0.101040	0.907363
	H117	H	0.379407	0.093391	0.090686
	H118	H	0.612179	0.898750	0.092413
	H119	H	0.377235	0.901558	0.914068
	C120	C	0.372839	0.008183	0.623011
	C121	C	0.614997	0.991981	0.623435
	C122	C	0.614724	0.008956	0.380518
	C123	C	0.370968	0.992985	0.379615
	C124	C	0.615124	0.379014	0.011814
	C125	C	0.614775	0.622401	0.995707
	C126	C	0.371501	0.622609	0.012376
	C127	C	0.371939	0.378887	0.995386
	C128	C	0.001644	0.622291	0.383113
	C129	C	0.984907	0.623055	0.626302
	C130	C	0.001240	0.379617	0.626674
	C131	C	0.985210	0.380156	0.382480
	C132	C	0.871640	0.509440	0.126423
	C133	C	0.115143	0.493335	0.126218
	C134	C	0.114801	0.509398	0.882902
	C135	C	0.872136	0.493204	0.883580
	C136	C	0.114848	0.879132	0.511093
	C137	C	0.114874	0.123249	0.495031
	C138	C	0.871480	0.123268	0.511342
	C139	C	0.871985	0.879269	0.494894
	C140	C	0.502006	0.122698	0.880198
	C141	C	0.485843	0.122025	0.123580
	C142	C	0.501817	0.879395	0.123817
	C143	C	0.484917	0.878745	0.880142
	C144	C	0.373535	0.885860	0.679377
	C145	C	0.613876	0.114283	0.679688
	C146	C	0.612442	0.885576	0.325947
	C147	C	0.373568	0.115745	0.324401
	C148	C	0.671422	0.381767	0.889705
	C149	C	0.669800	0.620267	0.118537
	C150	C	0.315711	0.619964	0.889630
	C151	C	0.317375	0.380701	0.118187
	C152	C	0.878428	0.677146	0.386049
	C153	C	0.108657	0.677591	0.623318
	C154	C	0.878489	0.324119	0.623751
	C155	C	0.108489	0.325104	0.385655
	C156	C	0.878440	0.381817	0.681677
	C157	C	0.108265	0.620561	0.681521
	C158	C	0.878900	0.621308	0.326936
	C159	C	0.108061	0.381619	0.327237
	C160	C	0.373014	0.677695	0.889572
	C161	C	0.612577	0.678425	0.117980
	C162	C	0.614137	0.323564	0.889266
	C163	C	0.374861	0.322798	0.117521
	C164	C	0.670162	0.885703	0.383353
	C165	C	0.670146	0.114956	0.620812
	C166	C	0.317210	0.885375	0.620268
	C167	C	0.315497	0.115757	0.382024
	C168	C	0.873750	0.386952	0.182328
	C169	C	0.113533	0.616317	0.181457
	C170	C	0.112730	0.386582	0.827596
	C171	C	0.873948	0.616026	0.827998
	C172	C	0.168412	0.881986	0.387880
	C173	C	0.171826	0.121016	0.617023
	C174	C	0.815923	0.121384	0.388537
	C175	C	0.816765	0.882497	0.617468
	C176	C	0.379112	0.178373	0.882223
	C177	C	0.609080	0.176698	0.120751
	C178	C	0.378323	0.824836	0.120576
	C179	C	0.607621	0.822797	0.883175
	C180	C	0.378628	0.881609	0.178961
	C181	C	0.608711	0.120043	0.179391
	C182	C	0.379248	0.120890	0.824063
	C183	C	0.607953	0.880100	0.825224
	C184	C	0.873123	0.179968	0.389360
	C185	C	0.113217	0.178035	0.617812
	C186	C	0.112118	0.822781	0.389212
	C187	C	0.874380	0.824769	0.617845
	C188	C	0.169131	0.385897	0.886463
	C189	C	0.170682	0.616254	0.123173
	C190	C	0.816563	0.386522	0.124261
	C191	C	0.816641	0.616148	0.885915
	C192	C	0.395834	0.093629	0.600304
	C193	C	0.592609	0.906146	0.601333
	C194	C	0.592120	0.094603	0.402743
	C195	C	0.393400	0.907088	0.401735
	C196	C	0.592296	0.400980	0.097049
	C197	C	0.592826	0.599662	0.910130
	C198	C	0.394308	0.600565	0.097530
	C199	C	0.393839	0.401810	0.910216
	C200	C	0.087370	0.599675	0.405460
	C201	C	0.899198	0.600708	0.604130
	C202	C	0.087001	0.402035	0.604333
	C203	C	0.899695	0.402968	0.404790
	C204	C	0.893826	0.595352	0.103953
	C205	C	0.092627	0.407522	0.104322
	C206	C	0.092798	0.595535	0.904686
	C207	C	0.894407	0.407478	0.905569
	C208	C	0.093413	0.901637	0.596829
	C209	C	0.091997	0.101343	0.409638
	C210	C	0.893843	0.100124	0.596407
	C211	C	0.893984	0.900640	0.409374
	C212	C	0.587508	0.099396	0.903030
	C213	C	0.399913	0.099609	0.101283
	C214	C	0.587715	0.901876	0.101837
	C215	C	0.398907	0.901417	0.902078
	Zn216	Zn	0.493778	0.000432	0.752375
	Zn217	Zn	0.493644	0.000637	0.251644
	Zn218	Zn	0.743615	0.501097	0.004608
	Zn219	Zn	0.243226	0.500770	0.004058
	Zn220	Zn	-0.006460	0.750646	0.504224
	Zn221	Zn	-0.006575	0.252211	0.503978
	Zn222	Zn	-0.006864	0.501410	0.754717
	Zn223	Zn	-0.006498	0.501765	0.254509
	Zn224	Zn	0.493292	0.750986	0.002983
	Zn225	Zn	0.493736	0.250365	0.002829
	Zn226	Zn	0.743071	0.000595	0.502023
	Zn227	Zn	0.242905	0.000927	0.502282
	N228	N	0.407685	0.963172	0.681012
	N229	N	0.580449	0.036636	0.681586
	N230	N	0.578449	0.962954	0.324247
	N231	N	0.407405	0.038301	0.322856
	N232	N	0.672096	0.415565	0.966864
	N233	N	0.671106	0.585967	0.041646
	N234	N	0.314783	0.586116	0.966804
	N235	N	0.315428	0.414906	0.041231
	N236	N	0.955879	0.678086	0.419929
	N237	N	0.031185	0.679071	0.589557
	N238	N	0.956034	0.322695	0.590366
	N239	N	0.031107	0.324067	0.419403
	N240	N	0.955723	0.415585	0.683351
	N241	N	0.030513	0.587332	0.683569
	N242	N	0.956505	0.587638	0.325108
	N243	N	0.030337	0.415000	0.325034
	N244	N	0.407178	0.679565	0.966607
	N245	N	0.579134	0.679759	0.040532
	N246	N	0.580035	0.321523	0.966190
	N247	N	0.408100	0.321423	0.040204
	N248	N	0.671755	0.963490	0.416563
	N249	N	0.670822	0.038021	0.586526
	N250	N	0.316595	0.962580	0.585862
	N251	N	0.313637	0.038350	0.415479
	N252	N	0.907191	0.464415	0.183669
	N253	N	0.079602	0.538873	0.183319
	N254	N	0.079791	0.464388	0.825264
	N255	N	0.907773	0.538490	0.826582
	N256	N	0.170170	0.916354	0.464899
	N257	N	0.172995	0.087752	0.539718
	N258	N	0.814590	0.087074	0.465423
	N259	N	0.815253	0.915823	0.540140
	N260	N	0.456547	0.179602	0.916312
	N261	N	0.531715	0.177881	0.086641
	N262	N	0.455835	0.823234	0.087312
	N263	N	0.530144	0.821782	0.916656
	N264	N	0.456328	0.915024	0.180736
	N265	N	0.531021	0.086768	0.181013
	N266	N	0.456569	0.086926	0.822729
	N267	N	0.530598	0.913938	0.823224
	N268	N	0.906760	0.181438	0.466619
	N269	N	0.078528	0.179472	0.541000
	N270	N	0.079725	0.820901	0.466764
	N271	N	0.908002	0.822608	0.540678
	N272	N	0.170554	0.463368	0.920036
	N273	N	0.171919	0.538860	0.089627
	N274	N	0.815096	0.463857	0.090223
	N275	N	0.815247	0.538900	0.919738
	O276	O	0.435203	0.373188	0.607624
	H277	H	0.435942	0.390445	0.608517
	H278	H	0.425567	0.368749	0.617726
	O279	O	0.521368	0.482865	0.480644
	H280	H	0.513595	0.481015	0.482297
	H281	H	0.523927	0.494092	0.482660
	O282	O	0.474416	0.415922	0.564768
	H283	H	0.479189	0.408826	0.567561
	H284	H	0.470885	0.430677	0.568797
	O285	O	-0.002436	1.095766	0.962136
	H286	H	-0.003995	1.088565	0.968063
	H287	H	-0.000923	1.104950	0.959154
	O288	O	0.966517	1.098668	-0.011140
	H289	H	0.958329	1.103885	-0.010270
	H290	H	0.963636	1.103806	-0.010940
	O291	O	-0.032401	0.076035	1.008919
	H292	H	-0.041900	0.078153	1.002730
	H293	H	-0.032005	0.069456	1.003310
	O294	O	0.488797	0.502661	0.515484
	H295	H	0.479756	0.487446	0.528646
	H296	H	0.488149	0.505956	0.512964
	O297	O	0.425024	0.421723	0.550724
	H298	H	0.415265	0.414191	0.555364
	H299	H	0.426509	0.415264	0.549066
	O300	O	0.538502	0.499841	0.524436
	H301	H	0.531854	0.502424	0.516828
	H302	H	0.534403	0.494416	0.530993
	O303	O	0.501293	0.509299	0.454634
	H304	H	0.507529	0.500652	0.450329
	H305	H	0.502559	0.519928	0.451505
	O306	O	0.991064	0.089509	0.999662
	H307	H	0.992085	0.086103	1.001666
	H308	H	0.989405	0.106493	0.992280
	O309	O	0.450929	0.505359	0.536020
	H310	H	0.463997	0.519093	0.543000
	H311	H	0.448568	0.514764	0.534975
	O312	O	0.475829	0.444058	0.470386
	H313	H	0.476551	0.440086	0.469053
	H314	H	0.475992	0.435247	0.481367
	O315	O	0.920223	0.096609	1.024533
	H316	H	0.917631	0.094154	1.024815
	H317	H	0.922465	0.094492	1.024633
	O318	O	-0.060087	0.024977	-0.022593
	H319	H	-0.052352	0.029138	-0.022429
	H320	H	-0.057996	0.030982	-0.026715
	O321	O	0.480685	0.504584	0.507568
	H322	H	0.482645	0.502656	0.506592
	H323	H	0.488792	0.513530	0.506877
	O324	O	1.015523	0.056452	-0.021870
	H325	H	1.017376	0.058423	-0.011424
	H326	H	1.012787	0.063408	-0.016852
	O327	O	1.528797	0.574893	-0.478265
	H328	H	1.538023	0.568641	-0.487493
	H329	H	1.532340	0.576621	-0.475416
	O330	O	0.490192	0.517559	0.562247
	H331	H	0.490524	0.514322	0.558489
	H332	H	0.486960	0.515464	0.558517
	O333	O	0.451808	0.435897	0.511837
	H334	H	0.451559	0.426720	0.509034
	H335	H	0.448286	0.436935	0.509047
