data_Molecule from HDF5

_cell_length_a		16.270920
_cell_length_b		16.330993
_cell_length_c		16.238064
_cell_angle_alpha	89.633934
_cell_angle_beta	90.045186
_cell_angle_gamma	90.518173
_symmetry_space_group_name_H-M	'P 1'
_symmetry_Int_Tables_number		1

loop_
	_symmetry_equiv_pos_as_xyz
	x,y,z

loop_
	_atom_site_label
	_atom_site_type_symbol
	_atom_site_fract_x
	_atom_site_fract_y
	_atom_site_fract_z
	H0	H	0.408142	0.838411	0.714068
	H1	H	0.612094	0.164757	0.711344
	H2	H	0.606515	0.838470	0.282687
	H3	H	0.413136	0.164315	0.281303
	H4	H	0.722900	0.404849	0.834362
	H5	H	0.723670	0.601607	0.162081
	H6	H	0.294716	0.601427	0.833909
	H7	H	0.295334	0.401760	0.162318
	H8	H	0.846105	0.715525	0.396536
	H9	H	0.172602	0.717066	0.597256
	H10	H	0.846947	0.279776	0.600340
	H11	H	0.174334	0.290921	0.401554
	H12	H	0.844679	0.399366	0.713029
	H13	H	0.172991	0.597722	0.710828
	H14	H	0.845497	0.596920	0.283545
	H15	H	0.173172	0.405971	0.285464
	H16	H	0.410817	0.716680	0.834015
	H17	H	0.610084	0.717300	0.161675
	H18	H	0.607774	0.288308	0.834299
	H19	H	0.406961	0.283631	0.160643
	H20	H	0.722440	0.836832	0.399527
	H21	H	0.728922	0.163404	0.595367
	H22	H	0.292337	0.838947	0.597988
	H23	H	0.295107	0.163676	0.394177
	H24	H	0.908670	0.337908	0.213430
	H25	H	0.107698	0.664772	0.210303
	H26	H	0.103853	0.337060	0.786262
	H27	H	0.910567	0.663987	0.780177
	H28	H	0.222377	0.905419	0.332956
	H29	H	0.226678	0.098356	0.660633
	H30	H	0.797687	0.099204	0.333489
	H31	H	0.794041	0.898354	0.660484
	H32	H	0.344604	0.215281	0.897117
	H33	H	0.671256	0.219031	0.096325
	H34	H	0.345751	0.784781	0.097215
	H35	H	0.673468	0.790156	0.898859
	H36	H	0.345781	0.901033	0.212656
	H37	H	0.672805	0.101472	0.210463
	H38	H	0.345376	0.100019	0.779874
	H39	H	0.673568	0.907071	0.784283
	H40	H	0.911844	0.215799	0.334582
	H41	H	0.112122	0.214869	0.662084
	H42	H	0.108561	0.788308	0.333271
	H43	H	0.909395	0.783067	0.660166
	H44	H	0.221923	0.337417	0.900866
	H45	H	0.225780	0.663955	0.095326
	H46	H	0.790614	0.338906	0.098879
	H47	H	0.795669	0.665751	0.897715
	H48	H	0.423992	0.115354	0.588879
	H49	H	0.607039	0.883462	0.591232
	H50	H	0.604961	0.115521	0.408436
	H51	H	0.423215	0.888316	0.409097
	H52	H	0.598628	0.405475	0.115300
	H53	H	0.602338	0.596481	0.881091
	H54	H	0.417449	0.592435	0.114485
	H55	H	0.408393	0.409374	0.878985
	H56	H	0.126620	0.593553	0.402848
	H57	H	0.889481	0.591771	0.599250
	H58	H	0.122456	0.412995	0.588113
	H59	H	0.891467	0.403166	0.403581
	H60	H	0.126474	0.410465	0.598498
	H61	H	0.892057	0.601251	0.582849
	H62	H	0.127054	0.598323	0.403431
	H63	H	0.893873	0.404150	0.411072
	H64	H	0.417280	0.595210	0.114824
	H65	H	0.601267	0.596643	0.882010
	H66	H	0.602372	0.410801	0.114707
	H67	H	0.418090	0.413656	0.882934
	H68	H	0.610205	0.118898	0.402166
	H69	H	0.599017	0.884827	0.597059
	H70	H	0.417618	0.115813	0.582741
	H71	H	0.409393	0.884463	0.410308
	H72	H	0.907436	0.618838	0.087290
	H73	H	0.099804	0.384887	0.092701
	H74	H	0.110187	0.617608	0.907162
	H75	H	0.908463	0.385430	0.912255
	H76	H	0.099326	0.907036	0.612667
	H77	H	0.093492	0.094095	0.384966
	H78	H	0.911593	0.088023	0.616083
	H79	H	0.910161	0.906488	0.377266
	H80	H	0.623965	0.093074	0.902991
	H81	H	0.395843	0.087279	0.080090
	H82	H	0.629244	0.899853	0.091020
	H83	H	0.395012	0.911669	0.907613
	H84	H	0.621476	0.912899	0.080624
	H85	H	0.391516	0.087286	0.099358
	H86	H	0.627213	0.100431	0.901321
	H87	H	0.392471	0.908901	0.901841
	H88	H	0.924544	0.084563	0.611129
	H89	H	0.105976	0.108163	0.377283
	H90	H	0.103164	0.905914	0.615325
	H91	H	0.918886	0.911943	0.382087
	H92	H	0.101811	0.619026	0.896683
	H93	H	0.104737	0.384346	0.090879
	H94	H	0.917702	0.619908	0.100536
	H95	H	0.912320	0.384190	0.900868
	H96	H	0.416188	0.118783	0.590830
	H97	H	0.599079	0.887785	0.586691
	H98	H	0.602085	0.116828	0.400391
	H99	H	0.415789	0.883676	0.397296
	H100	H	0.596359	0.411082	0.112785
	H101	H	0.601769	0.597594	0.880691
	H102	H	0.415221	0.594110	0.115433
	H103	H	0.417618	0.403088	0.879703
	H104	H	0.124304	0.595290	0.406672
	H105	H	0.896436	0.583020	0.584074
	H106	H	0.127142	0.401873	0.589719
	H107	H	0.893111	0.410124	0.405299
	H108	H	0.923883	0.613927	0.086050
	H109	H	0.103307	0.383471	0.095972
	H110	H	0.097417	0.614269	0.908343
	H111	H	0.919900	0.388808	0.909313
	H112	H	0.102353	0.910826	0.613644
	H113	H	0.112403	0.089397	0.379201
	H114	H	0.921992	0.097528	0.615706
	H115	H	0.919573	0.901032	0.379640
	H116	H	0.624358	0.098827	0.908860
	H117	H	0.389297	0.102729	0.088467
	H118	H	0.626214	0.916567	0.098279
	H119	H	0.392398	0.904887	0.907826
	C120	C	0.388439	0.009434	0.618149
	C121	C	0.632120	0.992941	0.619377
	C122	C	0.632459	0.009491	0.375406
	C123	C	0.388505	0.993037	0.375423
	C124	C	0.628488	0.381671	0.005977
	C125	C	0.631006	0.624726	0.989466
	C126	C	0.388296	0.622694	0.006244
	C127	C	0.385999	0.379147	0.989114
	C128	C	0.017898	0.623015	0.375495
	C129	C	1.000881	0.621327	0.618041
	C130	C	0.017307	0.377961	0.620844
	C131	C	1.001079	0.379271	0.377809
	C132	C	0.886676	0.509826	0.120097
	C133	C	0.131203	0.492248	0.120203
	C134	C	0.130579	0.509157	0.876454
	C135	C	0.886038	0.493715	0.876749
	C136	C	0.130360	0.880486	0.505609
	C137	C	0.133197	0.123986	0.488906
	C138	C	0.890198	0.120536	0.506336
	C139	C	0.887407	0.877518	0.488156
	C140	C	0.517231	0.125039	0.874497
	C141	C	0.500371	0.122382	0.118173
	C142	C	0.517600	0.879879	0.119394
	C143	C	0.501379	0.881149	0.876616
	C144	C	0.388719	0.887290	0.675628
	C145	C	0.631776	0.115803	0.673704
	C146	C	0.628109	0.886864	0.320535
	C147	C	0.391875	0.115576	0.319100
	C148	C	0.684685	0.384625	0.883101
	C149	C	0.686099	0.621652	0.113022
	C150	C	0.332875	0.620993	0.882856
	C151	C	0.332044	0.381092	0.112835
	C152	C	0.894727	0.677347	0.377164
	C153	C	0.123932	0.677920	0.616610
	C154	C	0.895212	0.319586	0.619898
	C155	C	0.124880	0.327223	0.380625
	C156	C	0.893903	0.378855	0.675893
	C157	C	0.123946	0.619205	0.673565
	C158	C	0.894381	0.618770	0.320944
	C159	C	0.124359	0.384748	0.323088
	C160	C	0.390469	0.678678	0.882906
	C161	C	0.629772	0.679516	0.112775
	C162	C	0.627254	0.326879	0.882880
	C163	C	0.387613	0.322304	0.111999
	C164	C	0.685437	0.886023	0.378590
	C165	C	0.689991	0.115039	0.616318
	C166	C	0.331154	0.887391	0.617773
	C167	C	0.333432	0.115209	0.375398
	C168	C	0.888225	0.386773	0.175639
	C169	C	0.128657	0.615925	0.173504
	C170	C	0.125777	0.385814	0.823351
	C171	C	0.889729	0.615715	0.819080
	C172	C	0.185158	0.884189	0.381938
	C173	C	0.188802	0.119840	0.612044
	C174	C	0.835447	0.119223	0.382703
	C175	C	0.831978	0.878917	0.611455
	C176	C	0.393776	0.178333	0.876314
	C177	C	0.622933	0.179777	0.116233
	C178	C	0.394729	0.823407	0.117333
	C179	C	0.624679	0.827526	0.878668
	C180	C	0.394524	0.881276	0.174650
	C181	C	0.623749	0.121265	0.172732
	C182	C	0.394381	0.121387	0.817848
	C183	C	0.624597	0.885531	0.821528
	C184	C	0.892107	0.177448	0.383342
	C185	C	0.131733	0.177625	0.612672
	C186	C	0.128580	0.825959	0.382074
	C187	C	0.889084	0.821320	0.611354
	C188	C	0.184328	0.386135	0.880383
	C189	C	0.187276	0.615478	0.116434
	C190	C	0.829653	0.387375	0.118647
	C191	C	0.832631	0.616537	0.877421
	C192	C	0.412361	0.094670	0.594537
	C193	C	0.608586	0.907424	0.598031
	C194	C	0.611888	0.094977	0.397180
	C195	C	0.409874	0.907593	0.398705
	C196	C	0.605877	0.403013	0.091981
	C197	C	0.608396	0.603393	0.903568
	C198	C	0.410230	0.600500	0.092494
	C199	C	0.408296	0.401872	0.902891
	C200	C	0.103771	0.602070	0.397747
	C201	C	0.915065	0.598659	0.595356
	C202	C	0.103164	0.401592	0.598578
	C203	C	0.914978	0.399750	0.400164
	C204	C	0.909495	0.595340	0.097680
	C205	C	0.109117	0.406633	0.099443
	C206	C	0.109352	0.594896	0.897761
	C207	C	0.907376	0.408260	0.900438
	C208	C	0.108036	0.901601	0.591627
	C209	C	0.110718	0.103242	0.402712
	C210	C	0.912734	0.096915	0.592147
	C211	C	0.909636	0.899985	0.402007
	C212	C	0.602949	0.103828	0.897665
	C213	C	0.414478	0.099043	0.095967
	C214	C	0.603489	0.902998	0.096518
	C215	C	0.415589	0.902281	0.899211
	Zn216	Zn	0.509416	0.002214	0.747469
	Zn217	Zn	0.509684	0.001635	0.246641
	Zn218	Zn	0.757515	0.502921	-0.001627
	Zn219	Zn	0.259414	0.500948	-0.001955
	Zn220	Zn	0.009321	0.750955	0.496786
	Zn221	Zn	0.010656	0.250131	0.499226
	Zn222	Zn	0.008184	0.499982	0.748075
	Zn223	Zn	0.008658	0.500903	0.248602
	Zn224	Zn	0.509944	0.751776	-0.002325
	Zn225	Zn	0.507691	0.251860	-0.002503
	Zn226	Zn	0.760847	-0.000279	0.496915
	Zn227	Zn	0.259502	0.001247	0.496457
	N228	N	0.423812	0.964363	0.675757
	N229	N	0.596276	0.038991	0.675624
	N230	N	0.595862	0.964421	0.318300
	N231	N	0.425662	0.038700	0.319233
	N232	N	0.685267	0.418153	0.960678
	N233	N	0.687045	0.588333	0.035426
	N234	N	0.331553	0.586741	0.960563
	N235	N	0.330997	0.415714	0.035458
	N236	N	0.972613	0.680161	0.410492
	N237	N	0.046223	0.679518	0.582922
	N238	N	0.972962	0.318816	0.586666
	N239	N	0.047251	0.323725	0.414032
	N240	N	0.970949	0.414360	0.676662
	N241	N	0.046673	0.584654	0.674418
	N242	N	0.971725	0.585746	0.319836
	N243	N	0.046129	0.416237	0.320979
	N244	N	0.424496	0.679787	0.960546
	N245	N	0.596040	0.681470	0.035076
	N246	N	0.593082	0.324772	0.960322
	N247	N	0.420649	0.321088	0.033881
	N248	N	0.688243	0.963163	0.412027
	N249	N	0.690381	0.037584	0.583339
	N250	N	0.330926	0.964253	0.582616
	N251	N	0.331295	0.038040	0.409887
	N252	N	0.922720	0.463918	0.176942
	N253	N	0.094475	0.538466	0.176026
	N254	N	0.093359	0.463177	0.820564
	N255	N	0.922001	0.537996	0.818356
	N256	N	0.186084	0.917608	0.459562
	N257	N	0.189967	0.087480	0.534082
	N258	N	0.834073	0.084475	0.460115
	N259	N	0.830764	0.913105	0.533745
	N260	N	0.471155	0.180792	0.910730
	N261	N	0.545333	0.180346	0.082758
	N262	N	0.472408	0.822215	0.083775
	N263	N	0.547057	0.824745	0.912292
	N264	N	0.472081	0.915531	0.175932
	N265	N	0.546504	0.086202	0.173833
	N266	N	0.472213	0.089056	0.816483
	N267	N	0.547046	0.918207	0.820264
	N268	N	0.925671	0.178138	0.461238
	N269	N	0.097771	0.180195	0.535112
	N270	N	0.095101	0.823381	0.459795
	N271	N	0.922832	0.820518	0.533766
	N272	N	0.187366	0.463921	0.912634
	N273	N	0.188984	0.537961	0.084065
	N274	N	0.828383	0.464994	0.084998
	N275	N	0.830144	0.539785	0.912557
	O276	O	-0.042005	-0.001422	-0.044798
	H277	H	-0.045206	-0.003134	-0.047828
	H278	H	-0.030509	0.003217	-0.040985
	O279	O	0.442259	0.537816	0.471427
	H280	H	0.420746	0.525185	0.472112
	H281	H	0.445082	0.547017	0.467757
	O282	O	0.566401	0.487985	0.509421
	H283	H	0.568152	0.475265	0.508167
	H284	H	0.561862	0.493441	0.520701
	O285	O	1.025378	-0.028117	1.036243
	H286	H	1.027355	-0.031818	1.042321
	H287	H	1.027259	-0.024998	1.032981
	O288	O	0.957850	-0.014832	0.031767
	H289	H	0.958958	-0.016532	0.031520
	H290	H	0.954211	-0.012827	0.033682
	O291	O	0.514631	0.502177	0.463485
	H292	H	0.513636	0.499024	0.453102
	H293	H	0.520826	0.511262	0.460792
	O294	O	0.982797	-0.003144	1.044785
	H295	H	0.980961	-0.002746	1.037099
	H296	H	0.972805	-0.002440	1.053692
	O297	O	-0.037938	0.045904	0.040602
	H298	H	-0.034346	0.043867	0.036625
	H299	H	-0.043780	0.044316	0.035961
	O300	O	0.564673	0.478463	0.458081
	H301	H	0.567860	0.470053	0.460360
	H302	H	0.562899	0.477364	0.466407
	O303	O	0.452055	0.589764	0.463544
	H304	H	0.465523	0.586675	0.459780
	H305	H	0.453453	0.591899	0.451525
	O306	O	1.036455	-0.017801	0.055206
	H307	H	1.037708	-0.015471	0.052225
	H308	H	1.040219	-0.024688	0.066459
	O309	O	-0.045100	0.006595	1.002712
	H310	H	-0.045280	0.002335	1.002445
	H311	H	-0.044556	0.005046	1.001773
	O312	O	0.994344	0.998766	1.025351
	H313	H	0.998392	0.989650	1.020618
	H314	H	0.995634	0.986661	1.040160
	O315	O	0.579851	0.563962	0.536908
	H316	H	0.571009	0.571453	0.533442
	H317	H	0.588996	0.570086	0.541763
	O318	O	0.564487	0.408513	0.519341
	H319	H	0.570454	0.403456	0.523654
	H320	H	0.566554	0.416972	0.524267
	O321	O	-0.037122	1.036164	1.007404
	H322	H	-0.032462	1.044002	1.007173
	H323	H	-0.047564	1.034492	1.003380
	O324	O	0.425664	0.470038	0.454258
	H325	H	0.435724	0.474431	0.448787
	H326	H	0.418514	0.455418	0.451073
	O327	O	0.603977	0.534651	0.471608
	H328	H	0.599751	0.532573	0.481982
	H329	H	0.605259	0.531094	0.478460
	O330	O	0.465991	0.558283	0.554179
	H331	H	0.474326	0.560712	0.564956
	H332	H	0.466354	0.557514	0.557557
	O333	O	0.495612	0.521268	0.505446
	H334	H	0.483512	0.518953	0.507729
	H335	H	0.499710	0.514155	0.500795
	O336	O	0.594587	0.544319	0.570539
	H337	H	0.596185	0.545378	0.575908
	H338	H	0.593557	0.538509	0.571668
	O339	O	1.000180	1.002367	-0.077875
	H340	H	1.002886	1.001654	-0.080712
	H341	H	0.996867	0.995444	-0.078487
	O342	O	0.552652	0.405569	0.512633
	H343	H	0.552367	0.407081	0.515971
	H344	H	0.556229	0.408645	0.520248
	O345	O	0.433456	0.453157	0.585064
	H346	H	0.431635	0.456427	0.586395
	H347	H	0.433144	0.452056	0.586398
	O348	O	0.068447	0.054787	0.010869
	H349	H	0.058023	0.062144	0.012700
	H350	H	0.064151	0.057796	0.016734
	O351	O	-0.120579	1.048018	0.914705
	H352	H	-0.116220	1.047646	0.914196
	H353	H	-0.137138	1.046256	0.916086
	O354	O	0.476306	0.549398	0.530157
	H355	H	0.479592	0.546130	0.538712
	H356	H	0.466694	0.545769	0.527205
	O357	O	-0.571084	1.401842	0.657451
	H358	H	-0.573058	1.395890	0.656020
	H359	H	-0.584420	1.398032	0.663554
