data_Molecule from HDF5

_cell_length_a		16.499291
_cell_length_b		16.294661
_cell_length_c		16.450056
_cell_angle_alpha	90.350141
_cell_angle_beta	89.915207
_cell_angle_gamma	89.962553
_symmetry_space_group_name_H-M	'P 1'
_symmetry_Int_Tables_number		1

loop_
	_symmetry_equiv_pos_as_xyz
	x,y,z

loop_
	_atom_site_label
	_atom_site_type_symbol
	_atom_site_fract_x
	_atom_site_fract_y
	_atom_site_fract_z
	H0	H	0.388867	0.847589	0.711045
	H1	H	0.598092	0.168301	0.716797
	H2	H	0.594265	0.848450	0.273634
	H3	H	0.385166	0.168958	0.272985
	H4	H	0.715062	0.402066	0.837391
	H5	H	0.712535	0.617589	0.153360
	H6	H	0.270212	0.611667	0.836318
	H7	H	0.269556	0.400427	0.152961
	H8	H	0.832010	0.724766	0.397640
	H9	H	0.150587	0.731234	0.600803
	H10	H	0.833689	0.289184	0.599869
	H11	H	0.150959	0.287208	0.390210
	H12	H	0.835022	0.405111	0.717296
	H13	H	0.151021	0.614865	0.717228
	H14	H	0.835324	0.617075	0.274404
	H15	H	0.149759	0.401078	0.271856
	H16	H	0.388271	0.725600	0.833340
	H17	H	0.592835	0.730707	0.153110
	H18	H	0.595103	0.289282	0.835919
	H19	H	0.389843	0.290228	0.153886
	H20	H	0.711105	0.848322	0.389098
	H21	H	0.712580	0.169191	0.599265
	H22	H	0.268152	0.851272	0.601607
	H23	H	0.268222	0.168044	0.387977
	H24	H	0.887181	0.349424	0.215764
	H25	H	0.097386	0.669473	0.215986
	H26	H	0.101611	0.350828	0.769625
	H27	H	0.890232	0.670557	0.778823
	H28	H	0.214613	0.900366	0.337230
	H29	H	0.215509	0.118713	0.652421
	H30	H	0.770810	0.114753	0.335966
	H31	H	0.769961	0.905431	0.652785
	H32	H	0.333291	0.229472	0.890499
	H33	H	0.650992	0.229148	0.098218
	H34	H	0.332447	0.789612	0.095786
	H35	H	0.650227	0.787361	0.888536
	H36	H	0.334079	0.901849	0.216914
	H37	H	0.649395	0.115311	0.217069
	H38	H	0.333627	0.114213	0.772805
	H39	H	0.650530	0.903246	0.772203
	H40	H	0.887053	0.230402	0.336697
	H41	H	0.096521	0.231596	0.654329
	H42	H	0.095456	0.787099	0.336860
	H43	H	0.890125	0.793963	0.656689
	H44	H	0.213429	0.347955	0.888245
	H45	H	0.212705	0.668515	0.099145
	H46	H	0.769847	0.350067	0.101195
	H47	H	0.771006	0.668220	0.890131
	H48	H	0.398915	0.125106	0.585509
	H49	H	0.588701	0.890529	0.586532
	H50	H	0.587629	0.126117	0.401629
	H51	H	0.405223	0.896600	0.405667
	H52	H	0.580640	0.416045	0.109417
	H53	H	0.587210	0.591116	0.881152
	H54	H	0.399969	0.597873	0.108065
	H55	H	0.412497	0.419066	0.884822
	H56	H	0.107088	0.600022	0.404248
	H57	H	0.877517	0.601682	0.589430
	H58	H	0.102678	0.418383	0.575602
	H59	H	0.881667	0.423836	0.408018
	H60	H	0.101968	0.430460	0.585200
	H61	H	0.879172	0.600432	0.586947
	H62	H	0.104504	0.598322	0.410476
	H63	H	0.879707	0.421406	0.402318
	H64	H	0.403434	0.597164	0.106087
	H65	H	0.577020	0.595540	0.883437
	H66	H	0.586593	0.422504	0.110080
	H67	H	0.397395	0.411534	0.877325
	H68	H	0.574760	0.122144	0.401612
	H69	H	0.573887	0.896404	0.586014
	H70	H	0.410103	0.122297	0.586862
	H71	H	0.404939	0.896586	0.406606
	H72	H	0.900219	0.623912	0.087159
	H73	H	0.078966	0.396111	0.083440
	H74	H	0.096474	0.625365	0.912396
	H75	H	0.905766	0.394884	0.904231
	H76	H	0.083407	0.924288	0.607866
	H77	H	0.080460	0.096151	0.382709
	H78	H	0.901879	0.090133	0.604822
	H79	H	0.912145	0.912517	0.383054
	H80	H	0.603170	0.101128	0.911102
	H81	H	0.384112	0.092285	0.076693
	H82	H	0.603726	0.918577	0.081578
	H83	H	0.380569	0.917215	0.907000
	H84	H	0.601967	0.923109	0.082031
	H85	H	0.377588	0.094093	0.093823
	H86	H	0.601476	0.089414	0.903264
	H87	H	0.378761	0.924131	0.898739
	H88	H	0.907920	0.101550	0.606548
	H89	H	0.080651	0.095305	0.383575
	H90	H	0.078659	0.922236	0.607041
	H91	H	0.892799	0.910447	0.376467
	H92	H	0.077652	0.625866	0.893930
	H93	H	0.082115	0.394377	0.082388
	H94	H	0.905749	0.623487	0.087661
	H95	H	0.907000	0.397339	0.909070
	H96	H	0.404804	0.120748	0.576529
	H97	H	0.583087	0.897572	0.573398
	H98	H	0.581490	0.121297	0.412999
	H99	H	0.404150	0.896607	0.405927
	H100	H	0.579371	0.424495	0.105611
	H101	H	0.584726	0.602224	0.878676
	H102	H	0.403293	0.600926	0.106709
	H103	H	0.396868	0.429160	0.883403
	H104	H	0.104729	0.593475	0.405816
	H105	H	0.878646	0.598971	0.589795
	H106	H	0.108225	0.417391	0.589330
	H107	H	0.879304	0.417483	0.407715
	H108	H	0.903210	0.622209	0.083219
	H109	H	0.081023	0.394335	0.085813
	H110	H	0.073178	0.614807	0.917481
	H111	H	0.902253	0.395877	0.908443
	H112	H	0.082409	0.920258	0.609043
	H113	H	0.079876	0.095821	0.383967
	H114	H	0.895539	0.100617	0.610719
	H115	H	0.899217	0.929092	0.384252
	H116	H	0.607421	0.100506	0.897883
	H117	H	0.376597	0.107735	0.081752
	H118	H	0.604622	0.920665	0.085246
	H119	H	0.375318	0.913848	0.897864
	C120	C	0.371913	0.017188	0.614863
	C121	C	0.613735	1.000463	0.614862
	C122	C	0.612813	0.017495	0.372838
	C123	C	0.370932	1.001487	0.373498
	C124	C	0.614423	0.387761	0.003673
	C125	C	0.613691	0.630329	0.986044
	C126	C	0.370452	0.629459	0.001987
	C127	C	0.370329	0.387030	0.986278
	C128	C	0.000668	0.629639	0.375648
	C129	C	0.983591	0.632247	0.619377
	C130	C	0.000531	0.389091	0.616269
	C131	C	0.984055	0.387297	0.373037
	C132	C	0.870804	0.517730	0.117401
	C133	C	0.113112	0.500550	0.116307
	C134	C	0.114896	0.516840	0.873982
	C135	C	0.872962	0.501530	0.875655
	C136	C	0.113642	0.888120	0.503767
	C137	C	0.113553	0.130449	0.487043
	C138	C	0.870018	0.130546	0.502972
	C139	C	0.870240	0.887324	0.486609
	C140	C	0.499931	0.130060	0.872226
	C141	C	0.483671	0.130545	0.116239
	C142	C	0.499213	0.888334	0.114523
	C143	C	0.483436	0.886540	0.870279
	C144	C	0.370074	0.896436	0.672881
	C145	C	0.616194	0.120588	0.676281
	C146	C	0.613534	0.896524	0.313312
	C147	C	0.367348	0.121040	0.313115
	C148	C	0.674751	0.384296	0.884621
	C149	C	0.672515	0.634715	0.105612
	C150	C	0.310324	0.630415	0.883354
	C151	C	0.309992	0.383809	0.105395
	C152	C	0.880494	0.687148	0.376892
	C153	C	0.103159	0.691437	0.619818
	C154	C	0.881352	0.329160	0.618462
	C155	C	0.103088	0.326861	0.371410
	C156	C	0.881901	0.386567	0.677046
	C157	C	0.103255	0.633566	0.677745
	C158	C	0.881972	0.632878	0.315828
	C159	C	0.102582	0.383627	0.312302
	C160	C	0.369041	0.687365	0.882019
	C161	C	0.613166	0.691350	0.105374
	C162	C	0.615040	0.328214	0.883927
	C163	C	0.369810	0.328622	0.106003
	C164	C	0.671521	0.896498	0.370735
	C165	C	0.672860	0.121115	0.617580
	C166	C	0.309932	0.898198	0.618153
	C167	C	0.309125	0.120426	0.370334
	C168	C	0.868826	0.397459	0.176369
	C169	C	0.115809	0.621042	0.176276
	C170	C	0.118538	0.397787	0.811211
	C171	C	0.871320	0.621856	0.817128
	C172	C	0.174417	0.883107	0.384850
	C173	C	0.174647	0.135577	0.605376
	C174	C	0.810574	0.132895	0.383862
	C175	C	0.810489	0.887028	0.605856
	C176	C	0.381120	0.190062	0.871322
	C177	C	0.603181	0.189917	0.117174
	C178	C	0.380020	0.828981	0.115348
	C179	C	0.602633	0.826953	0.869698
	C180	C	0.380913	0.884847	0.175537
	C181	C	0.602297	0.133557	0.176615
	C182	C	0.381142	0.132619	0.812558
	C183	C	0.602865	0.884567	0.811592
	C184	C	0.868371	0.190589	0.384090
	C185	C	0.115479	0.191907	0.606264
	C186	C	0.115073	0.826595	0.384613
	C187	C	0.870363	0.831364	0.607591
	C188	C	0.174483	0.396498	0.870129
	C189	C	0.172961	0.620677	0.117925
	C190	C	0.810457	0.397770	0.119201
	C191	C	0.811941	0.621012	0.872950
	C192	C	0.397343	0.100885	0.590188
	C193	C	0.589199	0.916835	0.589259
	C194	C	0.588320	0.101486	0.398212
	C195	C	0.397115	0.918223	0.398851
	C196	C	0.589550	0.413668	0.086708
	C197	C	0.589935	0.603930	0.902859
	C198	C	0.395049	0.605471	0.085319
	C199	C	0.394963	0.412547	0.903349
	C200	C	0.083701	0.604486	0.399796
	C201	C	0.900324	0.607615	0.595692
	C202	C	0.082804	0.414676	0.590776
	C203	C	0.901670	0.413296	0.398526
	C204	C	0.895797	0.601390	0.092896
	C205	C	0.087916	0.416789	0.091131
	C206	C	0.089757	0.600251	0.900352
	C207	C	0.897965	0.417701	0.900441
	C208	C	0.088680	0.914856	0.586415
	C209	C	0.087899	0.103694	0.404731
	C210	C	0.894739	0.104974	0.585817
	C211	C	0.894597	0.910743	0.402833
	C212	C	0.582652	0.104256	0.897006
	C213	C	0.401038	0.105244	0.091236
	C214	C	0.581739	0.913624	0.089978
	C215	C	0.399958	0.911284	0.894464
	Zn216	Zn	0.492205	0.008675	0.742806
	Zn217	Zn	0.491450	0.009449	0.244756
	Zn218	Zn	0.742934	0.509349	-0.004722
	Zn219	Zn	0.242007	0.507383	-0.004950
	Zn220	Zn	-0.007999	0.759148	0.496465
	Zn221	Zn	-0.008093	0.258926	0.495366
	Zn222	Zn	-0.006934	0.509448	0.746808
	Zn223	Zn	-0.007351	0.509654	0.245502
	Zn224	Zn	0.491368	0.759014	-0.007198
	Zn225	Zn	0.492186	0.259267	-0.005350
	Zn226	Zn	0.741399	0.008772	0.493486
	Zn227	Zn	0.242665	0.009503	0.494899
	N228	N	0.407636	0.971650	0.671001
	N229	N	0.579995	0.044471	0.674680
	N230	N	0.577765	0.972843	0.314486
	N231	N	0.405127	0.045940	0.315087
	N232	N	0.674600	0.420521	0.960321
	N233	N	0.673055	0.597630	0.030244
	N234	N	0.311119	0.595109	0.958885
	N235	N	0.310203	0.419446	0.029798
	N236	N	0.955199	0.685349	0.413470
	N237	N	0.027731	0.690789	0.584450
	N238	N	0.956103	0.330458	0.581623
	N239	N	0.028283	0.328980	0.408486
	N240	N	0.957037	0.422906	0.675963
	N241	N	0.027885	0.597734	0.677807
	N242	N	0.957804	0.597732	0.314981
	N243	N	0.027502	0.420118	0.312925
	N244	N	0.406013	0.686736	0.956815
	N245	N	0.577369	0.688678	0.029975
	N246	N	0.578246	0.330312	0.958822
	N247	N	0.406610	0.330493	0.031026
	N248	N	0.671281	0.972808	0.406811
	N249	N	0.671418	0.045671	0.580183
	N250	N	0.310865	0.974401	0.582718
	N251	N	0.311258	0.044939	0.407215
	N252	N	0.905597	0.473077	0.175470
	N253	N	0.079442	0.545156	0.175394
	N254	N	0.082134	0.473486	0.813656
	N255	N	0.908741	0.546527	0.818906
	N256	N	0.173674	0.920747	0.459942
	N257	N	0.173768	0.098336	0.530281
	N258	N	0.811454	0.096253	0.458941
	N259	N	0.810306	0.921054	0.529510
	N260	N	0.456050	0.188622	0.907652
	N261	N	0.528414	0.188155	0.080347
	N262	N	0.454416	0.831170	0.078011
	N263	N	0.527222	0.828176	0.905333
	N264	N	0.456046	0.921147	0.175059
	N265	N	0.527112	0.097509	0.176255
	N266	N	0.456148	0.095895	0.813135
	N267	N	0.527648	0.920646	0.811811
	N268	N	0.904755	0.189235	0.459145
	N269	N	0.078128	0.188871	0.531587
	N270	N	0.078190	0.829490	0.459564
	N271	N	0.906871	0.831507	0.532381
	N272	N	0.172336	0.471513	0.908698
	N273	N	0.171821	0.544467	0.081806
	N274	N	0.811270	0.473726	0.083443
	N275	N	0.812975	0.545050	0.908617
	O276	O	0.520063	0.718151	0.705989
	H277	H	0.556836	0.715873	0.706311
	H278	H	0.536803	0.741803	0.731285
	O279	O	0.517848	0.573033	0.371852
	H280	H	0.531732	0.573931	0.373319
	H281	H	0.526476	0.556706	0.372198
	O282	O	0.425157	0.634127	0.364251
	H283	H	0.437693	0.623865	0.361346
	H284	H	0.429657	0.629918	0.353295
	O285	O	1.641205	1.653451	0.372644
	H286	H	1.642457	1.649853	0.377227
	H287	H	1.638187	1.631484	0.364495
	O288	O	0.546162	0.533943	0.514223
	H289	H	0.542684	0.540545	0.520768
	H290	H	0.537562	0.537105	0.504730
	O291	O	0.498334	0.318401	0.451326
	H292	H	0.517572	0.307829	0.454526
	H293	H	0.483114	0.327221	0.465077
	O294	O	0.822823	0.943472	1.003907
	H295	H	0.827289	0.947934	1.010455
	H296	H	0.817594	0.938882	1.014883
	O297	O	0.343307	0.500476	0.640690
	H298	H	0.332059	0.515847	0.642018
	H299	H	0.326891	0.507612	0.635792
	O300	O	-0.287912	-0.302274	-0.228734
	H301	H	-0.284201	-0.322467	-0.215548
	H302	H	-0.281518	-0.302002	-0.225301
	O303	O	0.932618	0.110707	0.793400
	H304	H	0.916139	0.112532	0.785368
	H305	H	0.922630	0.101707	0.789648
	O306	O	0.139337	-0.034948	0.900845
	H307	H	0.140025	-0.042410	0.928265
	H308	H	0.137562	-0.011341	0.885629
	O309	O	0.886653	0.075806	-0.207152
	H310	H	0.873932	0.065453	-0.218294
	H311	H	0.887584	0.068514	-0.198045
	O312	O	0.614627	0.555716	0.618362
	H313	H	0.597348	0.553850	0.612517
	H314	H	0.627007	0.541196	0.621608
	O315	O	0.436425	0.427165	0.334184
	H316	H	0.429367	0.457223	0.343936
	H317	H	0.434667	0.419834	0.327690
	O318	O	0.588707	-0.705538	0.279701
	H319	H	0.587399	-0.725740	0.286341
	H320	H	0.564987	-0.695722	0.290837
	O321	O	0.704238	0.489153	0.286446
	H322	H	0.728696	0.472335	0.261468
	H323	H	0.698174	0.449789	0.292942
	O324	O	1.078635	-0.138974	1.032056
	H325	H	1.071034	-0.139408	1.044010
	H326	H	1.070960	-0.139169	1.035821
	O327	O	0.028492	1.036868	0.972260
	H328	H	0.021271	1.039745	0.982015
	H329	H	0.032779	1.006993	0.966297
	O330	O	0.095873	0.868111	0.824888
	H331	H	0.099527	0.872403	0.828418
	H332	H	0.087025	0.857812	0.822674
	O333	O	0.685865	0.319603	-0.631681
	H334	H	0.668904	0.299913	-0.633146
	H335	H	0.682312	0.316569	-0.604675
	O336	O	1.007874	1.168875	-0.024084
	H337	H	0.998284	1.175663	-0.037365
	H338	H	1.001154	1.164482	-0.026679
	O339	O	0.189294	0.922569	0.881093
	H340	H	0.189029	0.929296	0.877850
	H341	H	0.190212	0.923918	0.875652
	O342	O	0.520685	0.472289	0.667150
	H343	H	0.500753	0.480895	0.672031
	H344	H	0.505849	0.482726	0.673254
	O345	O	0.085130	-0.037027	1.125392
	H346	H	0.091728	-0.045768	1.123478
	H347	H	0.102608	-0.035840	1.133374
	O348	O	0.327204	0.596690	0.302057
	H349	H	0.337170	0.594555	0.321451
	H350	H	0.332959	0.605147	0.287974
	O351	O	1.070175	1.011886	0.202612
	H352	H	1.063625	1.031907	0.209598
	H353	H	1.074749	1.025872	0.195063
	O354	O	0.358428	0.671473	1.396201
	H355	H	0.383033	0.675898	1.391953
	H356	H	0.356792	0.665512	1.394338
	O357	O	-0.150757	-0.180758	0.181402
	H358	H	-0.143544	-0.180468	0.191764
	H359	H	-0.160743	-0.159402	0.195920
	O360	O	0.934611	-0.099012	0.984360
	H361	H	0.929239	-0.105826	0.987599
	H362	H	0.938410	-0.093069	0.970517
	O363	O	0.882263	-0.076857	-0.110424
	H364	H	0.874139	-0.092564	-0.107702
	H365	H	0.880063	-0.078409	-0.092078
	O366	O	0.060797	0.199708	1.050832
	H367	H	0.066111	0.199342	1.036032
	H368	H	0.053802	0.208478	1.044674
	O369	O	1.146690	-0.037124	0.882878
	H370	H	1.151630	-0.053201	0.875180
	H371	H	1.136140	-0.047072	0.897173
	O372	O	0.342723	0.374622	0.453246
	H373	H	0.320640	0.356038	0.462391
	H374	H	0.353597	0.382095	0.461809
	O375	O	0.159836	0.074208	1.047752
	H376	H	0.151249	0.067664	1.041632
	H377	H	0.167641	0.084658	1.034402
	O378	O	0.675764	0.499108	0.562485
	H379	H	0.664001	0.481277	0.566021
	H380	H	0.677795	0.513526	0.548479
	O381	O	-0.209835	0.981974	0.142092
	H382	H	-0.198212	1.011444	0.137450
	H383	H	-0.224563	0.979917	0.161918
	O384	O	0.561012	0.571846	0.630704
	H385	H	0.566017	0.567328	0.629498
	H386	H	0.559610	0.565010	0.614410
	O387	O	0.693751	0.246465	0.694660
	H388	H	0.697599	0.222286	0.695527
	H389	H	0.685592	0.242625	0.733234
	O390	O	1.090693	0.854389	-0.156503
	H391	H	1.086643	0.832262	-0.162386
	H392	H	1.099285	0.863800	-0.152942
	O393	O	0.784734	-0.186037	1.074725
	H394	H	0.767087	-0.194984	1.093013
	H395	H	0.781954	-0.185548	1.101968
	O396	O	0.599565	0.515631	0.490755
	H397	H	0.596684	0.523833	0.492123
	H398	H	0.597124	0.516677	0.495590
	O399	O	0.337039	0.614662	0.602006
	H400	H	0.337784	0.628863	0.597420
	H401	H	0.325692	0.621719	0.580549
	O402	O	0.937182	1.060218	0.136195
	H403	H	0.933106	1.076848	0.122694
	H404	H	0.942263	1.055523	0.131772
	O405	O	0.023816	0.179730	-0.170083
	H406	H	0.025176	0.185400	-0.187510
	H407	H	0.001190	0.174841	-0.171594
	O408	O	0.574743	0.381487	0.583802
	H409	H	0.572159	0.382355	0.597797
	H410	H	0.569858	0.380680	0.581607
	O411	O	1.000908	1.121502	1.210041
	H412	H	1.022965	1.124709	1.205686
	H413	H	1.001777	1.139664	1.233457
	O414	O	0.539712	0.597528	0.455813
	H415	H	0.538711	0.577157	0.448469
	H416	H	0.528894	0.595683	0.447719
	O417	O	-0.207412	1.135687	0.895339
	H418	H	-0.220929	1.148826	0.902496
	H419	H	-0.196361	1.119429	0.904477
	O420	O	0.362601	1.711004	1.498394
	H421	H	0.373126	1.699063	1.477186
	H422	H	0.358966	1.725314	1.504831
	O423	O	-0.139396	1.205590	0.023669
	H424	H	-0.138276	1.210080	0.033577
	H425	H	-0.108460	1.203306	0.000830
	O426	O	1.049727	-0.120550	0.125121
	H427	H	1.049585	-0.123694	0.118055
	H428	H	1.049368	-0.107746	0.126587
	O429	O	0.396275	0.311860	0.671240
	H430	H	0.392668	0.306690	0.684758
	H431	H	0.377422	0.326451	0.664942
	O432	O	0.444459	0.459607	0.489442
	H433	H	0.454173	0.478122	0.481684
	H434	H	0.457352	0.461236	0.488027
	O435	O	0.171975	0.186983	0.168106
	H436	H	0.170807	0.184953	0.132425
	H437	H	0.173505	0.177233	0.158714
	O438	O	-0.707582	1.368807	0.583554
	H439	H	-0.725174	1.362693	0.589904
	H440	H	-0.714306	1.381912	0.585646
	O441	O	0.441070	0.556659	0.504514
	H442	H	0.436410	0.551518	0.513752
	H443	H	0.424967	0.561528	0.510301
