data_Molecule from HDF5

_cell_length_a		16.317536
_cell_length_b		16.340127
_cell_length_c		16.332321
_cell_angle_alpha	89.928353
_cell_angle_beta	89.968941
_cell_angle_gamma	89.901083
_symmetry_space_group_name_H-M	'P 1'
_symmetry_Int_Tables_number		1

loop_
	_symmetry_equiv_pos_as_xyz
	x,y,z

loop_
	_atom_site_label
	_atom_site_type_symbol
	_atom_site_fract_x
	_atom_site_fract_y
	_atom_site_fract_z
	H0	H	0.406126	0.836167	0.719950
	H1	H	0.602070	0.162674	0.719802
	H2	H	0.603204	0.835876	0.289905
	H3	H	0.405635	0.163017	0.290513
	H4	H	0.719860	0.400863	0.840713
	H5	H	0.718681	0.597039	0.167920
	H6	H	0.289917	0.598338	0.841676
	H7	H	0.290630	0.402443	0.167974
	H8	H	0.841236	0.713811	0.407029
	H9	H	0.167609	0.713560	0.602634
	H10	H	0.840461	0.285292	0.603605
	H11	H	0.168892	0.285099	0.406438
	H12	H	0.841219	0.401638	0.720352
	H13	H	0.168210	0.596622	0.718647
	H14	H	0.841697	0.598843	0.289490
	H15	H	0.168513	0.400697	0.289842
	H16	H	0.405398	0.715598	0.842530
	H17	H	0.602838	0.713428	0.167829
	H18	H	0.602891	0.284404	0.840671
	H19	H	0.406246	0.285467	0.167964
	H20	H	0.718012	0.834443	0.407730
	H21	H	0.718996	0.162335	0.603199
	H22	H	0.289418	0.836729	0.604114
	H23	H	0.289888	0.162671	0.407157
	H24	H	0.906945	0.335867	0.219943
	H25	H	0.102792	0.663003	0.219066
	H26	H	0.103340	0.335997	0.790638
	H27	H	0.905779	0.662750	0.790272
	H28	H	0.219426	0.901151	0.341472
	H29	H	0.218199	0.095930	0.668254
	H30	H	0.789114	0.097860	0.341010
	H31	H	0.790396	0.901273	0.667273
	H32	H	0.340719	0.214050	0.906689
	H33	H	0.668714	0.213059	0.101756
	H34	H	0.341534	0.783905	0.104790
	H35	H	0.667382	0.783417	0.905642
	H36	H	0.341095	0.901905	0.219149
	H37	H	0.669137	0.096538	0.218047
	H38	H	0.341032	0.098082	0.790255
	H39	H	0.667434	0.899787	0.789732
	H40	H	0.906343	0.214316	0.340344
	H41	H	0.102546	0.212991	0.668088
	H42	H	0.103931	0.784096	0.341328
	H43	H	0.905752	0.784334	0.667557
	H44	H	0.218918	0.335512	0.907573
	H45	H	0.218619	0.662649	0.102270
	H46	H	0.790776	0.335046	0.102704
	H47	H	0.790161	0.662654	0.906880
	H48	H	0.411192	0.117667	0.607758
	H49	H	0.594882	0.883124	0.602446
	H50	H	0.598364	0.112575	0.418142
	H51	H	0.406825	0.882214	0.412569
	H52	H	0.595128	0.406597	0.118493
	H53	H	0.603707	0.591587	0.887467
	H54	H	0.415531	0.583540	0.116805
	H55	H	0.410912	0.405055	0.887956
	H56	H	0.118936	0.592112	0.417922
	H57	H	0.889883	0.587978	0.596690
	H58	H	0.121292	0.400020	0.594002
	H59	H	0.890098	0.404070	0.417489
	H60	H	0.117263	0.410896	0.595046
	H61	H	0.886862	0.593489	0.601912
	H62	H	0.119525	0.586424	0.408214
	H63	H	0.891784	0.413200	0.412549
	H64	H	0.417333	0.600367	0.121912
	H65	H	0.593489	0.587869	0.891059
	H66	H	0.597983	0.401963	0.120539
	H67	H	0.411104	0.407258	0.888736
	H68	H	0.601101	0.115605	0.409368
	H69	H	0.595849	0.885463	0.594489
	H70	H	0.418594	0.112027	0.593765
	H71	H	0.413707	0.882753	0.407162
	H72	H	0.912235	0.613313	0.094966
	H73	H	0.089366	0.385109	0.102312
	H74	H	0.094835	0.616002	0.906479
	H75	H	0.906457	0.383278	0.916938
	H76	H	0.099517	0.908875	0.620145
	H77	H	0.095347	0.095153	0.388745
	H78	H	0.913267	0.096167	0.620490
	H79	H	0.914281	0.912274	0.390963
	H80	H	0.621089	0.091441	0.908598
	H81	H	0.389226	0.095008	0.095952
	H82	H	0.616001	0.913010	0.090806
	H83	H	0.388697	0.905373	0.915939
	H84	H	0.621556	0.909659	0.108078
	H85	H	0.390498	0.090180	0.097954
	H86	H	0.620318	0.095150	0.914196
	H87	H	0.389375	0.909945	0.911883
	H88	H	0.908344	0.093272	0.619700
	H89	H	0.101119	0.093207	0.388121
	H90	H	0.093580	0.905775	0.619376
	H91	H	0.915184	0.901069	0.387890
	H92	H	0.095558	0.612964	0.915766
	H93	H	0.098564	0.386301	0.089656
	H94	H	0.908164	0.615647	0.098395
	H95	H	0.911926	0.381294	0.904961
	H96	H	0.402233	0.116770	0.593482
	H97	H	0.602131	0.882508	0.598752
	H98	H	0.591709	0.113274	0.411207
	H99	H	0.413797	0.885165	0.415332
	H100	H	0.600521	0.407340	0.120036
	H101	H	0.594750	0.598523	0.887371
	H102	H	0.402427	0.592244	0.122956
	H103	H	0.412778	0.405987	0.888532
	H104	H	0.123463	0.597087	0.408416
	H105	H	0.888911	0.595060	0.594453
	H106	H	0.121950	0.405874	0.603992
	H107	H	0.887942	0.404824	0.407958
	H108	H	0.913494	0.614748	0.100238
	H109	H	0.104951	0.380548	0.103326
	H110	H	0.103609	0.617145	0.910887
	H111	H	0.919033	0.386842	0.914478
	H112	H	0.098906	0.902298	0.622131
	H113	H	0.096873	0.089483	0.389860
	H114	H	0.913081	0.090698	0.618717
	H115	H	0.905776	0.906303	0.385978
	H116	H	0.618247	0.088979	0.914038
	H117	H	0.387705	0.093937	0.100977
	H118	H	0.623137	0.895861	0.095554
	H119	H	0.386890	0.904869	0.910239
	C120	C	0.382705	0.007579	0.626824
	C121	C	0.626342	0.991159	0.627181
	C122	C	0.625867	0.006515	0.383841
	C123	C	0.382939	0.991226	0.383453
	C124	C	0.626588	0.377146	0.012052
	C125	C	0.625951	0.620791	0.996502
	C126	C	0.382923	0.621028	0.012942
	C127	C	0.383248	0.378124	0.996243
	C128	C	0.012797	0.621055	0.383088
	C129	C	0.996289	0.620632	0.626184
	C130	C	0.012330	0.377122	0.626746
	C131	C	0.997321	0.378247	0.383646
	C132	C	0.882829	0.507097	0.126508
	C133	C	0.126101	0.491604	0.126372
	C134	C	0.126346	0.507362	0.883145
	C135	C	0.883568	0.491406	0.883545
	C136	C	0.126181	0.877479	0.512659
	C137	C	0.126274	0.120808	0.496620
	C138	C	0.882381	0.121788	0.512136
	C139	C	0.883690	0.877897	0.496151
	C140	C	0.511939	0.120768	0.883600
	C141	C	0.497441	0.121237	0.126771
	C142	C	0.512537	0.877513	0.126956
	C143	C	0.496212	0.877840	0.883847
	C144	C	0.385570	0.884908	0.682141
	C145	C	0.623430	0.113811	0.682289
	C146	C	0.624019	0.884275	0.327745
	C147	C	0.385267	0.114108	0.328415
	C148	C	0.681536	0.380214	0.889243
	C149	C	0.680527	0.617488	0.119490
	C150	C	0.327756	0.618671	0.890491
	C151	C	0.328280	0.381196	0.119183
	C152	C	0.889812	0.675775	0.386184
	C153	C	0.119130	0.675234	0.623149
	C154	C	0.889593	0.322435	0.624159
	C155	C	0.120006	0.322688	0.385872
	C156	C	0.889775	0.380353	0.682159
	C157	C	0.119384	0.617218	0.680748
	C158	C	0.890209	0.618836	0.327751
	C159	C	0.119939	0.380363	0.328145
	C160	C	0.385139	0.676732	0.890661
	C161	C	0.623366	0.675750	0.119218
	C162	C	0.623652	0.322351	0.889383
	C163	C	0.386168	0.323558	0.119338
	C164	C	0.681061	0.883590	0.386232
	C165	C	0.681158	0.113752	0.624109
	C166	C	0.327729	0.885010	0.624468
	C167	C	0.327506	0.114037	0.386217
	C168	C	0.886275	0.384101	0.181478
	C169	C	0.123208	0.614385	0.181195
	C170	C	0.123930	0.384662	0.828386
	C171	C	0.885681	0.614253	0.828553
	C172	C	0.181473	0.880443	0.389976
	C173	C	0.180901	0.117214	0.619482
	C174	C	0.827335	0.118570	0.389479
	C175	C	0.828561	0.880746	0.618828
	C176	C	0.389604	0.176259	0.886007
	C177	C	0.619924	0.175551	0.123250
	C178	C	0.389979	0.822528	0.124619
	C179	C	0.618948	0.822218	0.886091
	C180	C	0.389874	0.880554	0.181917
	C181	C	0.619929	0.117776	0.181402
	C182	C	0.389628	0.118482	0.828408
	C183	C	0.618874	0.879809	0.828124
	C184	C	0.885264	0.176541	0.389243
	C185	C	0.123481	0.175409	0.619368
	C186	C	0.124204	0.822274	0.390014
	C187	C	0.885264	0.822208	0.618647
	C188	C	0.181397	0.384521	0.886411
	C189	C	0.180838	0.614103	0.123221
	C190	C	0.828404	0.383931	0.123438
	C191	C	0.828296	0.614067	0.886408
	C192	C	0.404341	0.093328	0.604771
	C193	C	0.604196	0.905766	0.605037
	C194	C	0.603527	0.091681	0.406224
	C195	C	0.404991	0.905586	0.405300
	C196	C	0.604567	0.398906	0.097537
	C197	C	0.604058	0.598923	0.910849
	C198	C	0.405310	0.598665	0.098505
	C199	C	0.405172	0.399767	0.910484
	C200	C	0.098403	0.598555	0.405091
	C201	C	0.910657	0.598438	0.604127
	C202	C	0.098041	0.399144	0.604335
	C203	C	0.911994	0.400765	0.406099
	C204	C	0.904728	0.592408	0.104457
	C205	C	0.104090	0.406055	0.104817
	C206	C	0.104504	0.593139	0.904643
	C207	C	0.905846	0.405856	0.905554
	C208	C	0.103944	0.899309	0.598345
	C209	C	0.104284	0.098837	0.411012
	C210	C	0.904969	0.099781	0.597543
	C211	C	0.905570	0.900064	0.410506
	C212	C	0.597846	0.098476	0.905921
	C213	C	0.411144	0.099448	0.104693
	C214	C	0.598140	0.899546	0.104579
	C215	C	0.410582	0.900124	0.906096
	Zn216	Zn	0.504294	-0.000781	0.755358
	Zn217	Zn	0.504616	-0.000775	0.254841
	Zn218	Zn	0.754630	0.499171	0.004478
	Zn219	Zn	0.254988	0.499299	0.004500
	Zn220	Zn	0.004878	0.749290	0.504626
	Zn221	Zn	0.004621	0.249273	0.504196
	Zn222	Zn	0.004516	0.499407	0.755241
	Zn223	Zn	0.005007	0.499463	0.255215
	Zn224	Zn	0.504718	0.749220	0.005206
	Zn225	Zn	0.504444	0.249432	0.004650
	Zn226	Zn	0.754869	-0.001202	0.504777
	Zn227	Zn	0.254594	-0.000850	0.504719
	N228	N	0.419363	0.962078	0.683500
	N229	N	0.590009	0.036565	0.684278
	N230	N	0.590480	0.961469	0.326237
	N231	N	0.418833	0.036826	0.326408
	N232	N	0.683549	0.413483	0.966526
	N233	N	0.682494	0.584339	0.042078
	N234	N	0.326352	0.584823	0.967620
	N235	N	0.326450	0.414266	0.041776
	N236	N	0.967180	0.677568	0.419504
	N237	N	0.041744	0.677146	0.589755
	N238	N	0.966927	0.320349	0.590394
	N239	N	0.042755	0.321501	0.419646
	N240	N	0.967175	0.413484	0.683887
	N241	N	0.041861	0.584135	0.682882
	N242	N	0.967583	0.585316	0.326029
	N243	N	0.042575	0.414116	0.326382
	N244	N	0.418973	0.678133	0.967822
	N245	N	0.590110	0.677813	0.041843
	N246	N	0.590156	0.320546	0.966695
	N247	N	0.419678	0.321449	0.041860
	N248	N	0.682163	0.960589	0.420678
	N249	N	0.683327	0.036461	0.590861
	N250	N	0.326037	0.962087	0.590675
	N251	N	0.325902	0.036669	0.419604
	N252	N	0.919144	0.461607	0.183935
	N253	N	0.089708	0.537137	0.183197
	N254	N	0.090460	0.461971	0.826061
	N255	N	0.919546	0.537045	0.826854
	N256	N	0.182793	0.914040	0.467213
	N257	N	0.182473	0.084031	0.542206
	N258	N	0.825027	0.085667	0.467068
	N259	N	0.827513	0.914608	0.541759
	N260	N	0.466940	0.177554	0.919737
	N261	N	0.542380	0.178013	0.090327
	N262	N	0.467367	0.820578	0.091117
	N263	N	0.541813	0.821115	0.920123
	N264	N	0.466943	0.914281	0.183254
	N265	N	0.542341	0.084920	0.183447
	N266	N	0.466877	0.084691	0.826838
	N267	N	0.541595	0.913671	0.826685
	N268	N	0.918918	0.178440	0.466442
	N269	N	0.090272	0.177836	0.541918
	N270	N	0.090458	0.820349	0.467196
	N271	N	0.918892	0.820312	0.541289
	N272	N	0.182787	0.461837	0.919761
	N273	N	0.182619	0.536900	0.089906
	N274	N	0.826099	0.461341	0.090140
	N275	N	0.826913	0.536774	0.920000
	O276	O	-0.065354	0.083009	0.973403
	H277	H	-0.077034	0.079991	0.976874
	H278	H	-0.067512	0.076513	0.965016
	O279	O	0.534959	0.420465	0.459881
	H280	H	0.536614	0.414234	0.447680
	H281	H	0.537855	0.419028	0.461178
	O282	O	0.551154	0.410423	0.406610
	H283	H	0.551851	0.418743	0.412369
	H284	H	0.542251	0.410207	0.406808
	O285	O	0.542952	0.390251	0.418512
	H286	H	0.545486	0.382789	0.401829
	H287	H	0.553174	0.383681	0.415236
	O288	O	-0.045042	1.077658	-0.040738
	H289	H	-0.049167	1.093369	-0.037103
	H290	H	-0.053150	1.079469	-0.055512
	O291	O	-0.058683	1.052893	0.938692
	H292	H	-0.054193	1.045873	0.934505
	H293	H	-0.058130	1.053300	0.936274
	O294	O	0.527741	0.432197	0.454401
	H295	H	0.531139	0.427591	0.462587
	H296	H	0.521197	0.434320	0.456055
	O297	O	0.974486	0.056830	-0.046637
	H298	H	0.976357	0.065720	-0.044544
	H299	H	0.982176	0.055258	-0.034995
