data_Molecule from HDF5

_cell_length_a		16.654411
_cell_length_b		16.585922
_cell_length_c		16.743362
_cell_angle_alpha	90.142251
_cell_angle_beta	90.033722
_cell_angle_gamma	89.933384
_symmetry_space_group_name_H-M	'P 1'
_symmetry_Int_Tables_number		1

loop_
	_symmetry_equiv_pos_as_xyz
	x,y,z

loop_
	_atom_site_label
	_atom_site_type_symbol
	_atom_site_fract_x
	_atom_site_fract_y
	_atom_site_fract_z
	H0	H	0.397426	0.837959	0.738030
	H1	H	0.604142	0.151182	0.734746
	H2	H	0.609836	0.838516	0.294285
	H3	H	0.395641	0.147121	0.294934
	H4	H	0.725972	0.386499	0.864051
	H5	H	0.724632	0.599273	0.171295
	H6	H	0.285054	0.595373	0.860937
	H7	H	0.288485	0.395700	0.175618
	H8	H	0.844651	0.707359	0.419167
	H9	H	0.157441	0.714364	0.622516
	H10	H	0.848981	0.271463	0.621434
	H11	H	0.160535	0.275274	0.415171
	H12	H	0.850485	0.384267	0.740997
	H13	H	0.158128	0.598794	0.738207
	H14	H	0.846804	0.594301	0.299841
	H15	H	0.160590	0.390135	0.298860
	H16	H	0.403064	0.709167	0.859340
	H17	H	0.607894	0.715497	0.170761
	H18	H	0.605702	0.274093	0.862050
	H19	H	0.404663	0.278440	0.175237
	H20	H	0.722047	0.837298	0.413215
	H21	H	0.721242	0.150314	0.620450
	H22	H	0.283433	0.836391	0.620932
	H23	H	0.281862	0.147923	0.412640
	H24	H	0.898855	0.338034	0.236675
	H25	H	0.106015	0.650747	0.235842
	H26	H	0.107721	0.336552	0.797922
	H27	H	0.895321	0.646004	0.793419
	H28	H	0.221741	0.888893	0.361352
	H29	H	0.224731	0.098044	0.670083
	H30	H	0.778715	0.100994	0.363969
	H31	H	0.781997	0.890085	0.671977
	H32	H	0.345633	0.211151	0.916115
	H33	H	0.657692	0.214408	0.122717
	H34	H	0.348674	0.773495	0.119115
	H35	H	0.659647	0.773113	0.912184
	H36	H	0.350162	0.886464	0.237989
	H37	H	0.655789	0.102513	0.241736
	H38	H	0.345813	0.095955	0.798652
	H39	H	0.659610	0.890538	0.797472
	H40	H	0.897967	0.213933	0.362602
	H41	H	0.109744	0.216717	0.668239
	H42	H	0.104830	0.773700	0.361642
	H43	H	0.899260	0.773550	0.672469
	H44	H	0.220759	0.335207	0.916485
	H45	H	0.220109	0.651993	0.118428
	H46	H	0.783433	0.338266	0.120892
	H47	H	0.780497	0.646923	0.908985
	H48	H	0.414955	0.105937	0.610776
	H49	H	0.589558	0.881574	0.609417
	H50	H	0.587450	0.103813	0.428135
	H51	H	0.414220	0.881833	0.429598
	H52	H	0.588848	0.409001	0.125390
	H53	H	0.593683	0.585332	0.903953
	H54	H	0.413397	0.587493	0.129182
	H55	H	0.415390	0.404200	0.907869
	H56	H	0.117871	0.588015	0.425224
	H57	H	0.890279	0.582180	0.609312
	H58	H	0.116541	0.403432	0.610971
	H59	H	0.893240	0.404389	0.428649
	H60	H	0.113682	0.401486	0.601265
	H61	H	0.892138	0.582275	0.604972
	H62	H	0.114137	0.583538	0.430494
	H63	H	0.892082	0.405565	0.422468
	H64	H	0.409674	0.584968	0.129252
	H65	H	0.596068	0.576678	0.906910
	H66	H	0.591437	0.398832	0.129795
	H67	H	0.411505	0.395673	0.903981
	H68	H	0.591391	0.104274	0.431414
	H69	H	0.592874	0.882249	0.603634
	H70	H	0.415165	0.103493	0.604032
	H71	H	0.411740	0.879057	0.426473
	H72	H	0.916055	0.607594	0.112250
	H73	H	0.093749	0.379453	0.113786
	H74	H	0.090878	0.605502	0.923836
	H75	H	0.920931	0.384128	0.930795
	H76	H	0.093935	0.903753	0.628854
	H77	H	0.094693	0.083789	0.404389
	H78	H	0.911597	0.083330	0.628298
	H79	H	0.906904	0.907488	0.406675
	H80	H	0.614363	0.081392	0.923778
	H81	H	0.391692	0.080527	0.108789
	H82	H	0.614130	0.906544	0.106836
	H83	H	0.392151	0.906736	0.925358
	H84	H	0.615647	0.903854	0.104094
	H85	H	0.390625	0.084997	0.107103
	H86	H	0.615771	0.086289	0.924798
	H87	H	0.389651	0.900994	0.920504
	H88	H	0.913773	0.078453	0.625927
	H89	H	0.094575	0.080002	0.404900
	H90	H	0.092997	0.903221	0.628532
	H91	H	0.918546	0.904691	0.408828
	H92	H	0.092655	0.604428	0.930634
	H93	H	0.093420	0.381666	0.105527
	H94	H	0.918077	0.603745	0.104169
	H95	H	0.914802	0.382607	0.933094
	H96	H	0.408921	0.106317	0.606503
	H97	H	0.595633	0.879441	0.608873
	H98	H	0.591745	0.106533	0.426765
	H99	H	0.416192	0.880707	0.425358
	H100	H	0.598894	0.406939	0.129540
	H101	H	0.587710	0.579740	0.908194
	H102	H	0.413224	0.583206	0.127118
	H103	H	0.405820	0.403985	0.904578
	H104	H	0.115537	0.580507	0.423139
	H105	H	0.892244	0.578801	0.607904
	H106	H	0.112241	0.410865	0.605555
	H107	H	0.890797	0.399934	0.425199
	H108	H	0.909747	0.607262	0.106124
	H109	H	0.100914	0.379507	0.109415
	H110	H	0.097201	0.607283	0.926126
	H111	H	0.916586	0.380631	0.927193
	H112	H	0.094114	0.902933	0.628742
	H113	H	0.091590	0.082310	0.405574
	H114	H	0.916957	0.083615	0.625704
	H115	H	0.911308	0.896324	0.403688
	H116	H	0.613587	0.083442	0.928336
	H117	H	0.392256	0.082069	0.104355
	H118	H	0.613807	0.907348	0.102879
	H119	H	0.391357	0.899362	0.927682
	C120	C	0.381769	0.001647	0.638198
	C121	C	0.623644	0.985031	0.638209
	C122	C	0.623183	0.001888	0.396444
	C123	C	0.381660	0.983791	0.395582
	C124	C	0.624983	0.372061	0.025897
	C125	C	0.625041	0.614256	1.008187
	C126	C	0.381982	0.615276	0.025026
	C127	C	0.382116	0.372623	1.009693
	C128	C	0.011461	0.613897	0.396580
	C129	C	0.994172	0.614097	0.639354
	C130	C	0.011919	0.371989	0.638030
	C131	C	0.995380	0.371842	0.394800
	C132	C	0.882884	0.502412	0.138337
	C133	C	0.125561	0.484757	0.139301
	C134	C	0.124758	0.501610	0.896244
	C135	C	0.883555	0.484313	0.896721
	C136	C	0.124449	0.871314	0.525781
	C137	C	0.124928	0.114229	0.507189
	C138	C	0.881623	0.114499	0.524893
	C139	C	0.880728	0.871645	0.508924
	C140	C	0.511062	0.114985	0.895575
	C141	C	0.494149	0.114846	0.138739
	C142	C	0.512344	0.873190	0.136327
	C143	C	0.494860	0.871597	0.894221
	C144	C	0.379676	0.884317	0.697635
	C145	C	0.624000	0.103386	0.696344
	C146	C	0.626945	0.884901	0.335545
	C147	C	0.378375	0.100680	0.335695
	C148	C	0.685082	0.369042	0.910062
	C149	C	0.684682	0.617414	0.124643
	C150	C	0.324253	0.614629	0.907503
	C151	C	0.326763	0.375240	0.128319
	C152	C	0.892344	0.669422	0.398569
	C153	C	0.110667	0.674596	0.641088
	C154	C	0.895492	0.311434	0.640237
	C155	C	0.113416	0.313898	0.395476
	C156	C	0.896333	0.367603	0.699554
	C157	C	0.111017	0.617027	0.698639
	C158	C	0.893332	0.613140	0.339503
	C159	C	0.113275	0.370942	0.337423
	C160	C	0.383236	0.671054	0.906826
	C161	C	0.626551	0.674977	0.124507
	C162	C	0.625563	0.312824	0.909164
	C163	C	0.384394	0.317045	0.128301
	C164	C	0.682954	0.884506	0.394480
	C165	C	0.681715	0.103242	0.639111
	C166	C	0.322833	0.883696	0.639533
	C167	C	0.321639	0.101033	0.393896
	C168	C	0.880710	0.385021	0.197236
	C169	C	0.125299	0.603537	0.196609
	C170	C	0.126109	0.383454	0.837932
	C171	C	0.878566	0.600026	0.834502
	C172	C	0.182137	0.870093	0.408261
	C173	C	0.184719	0.116820	0.623575
	C174	C	0.820004	0.118180	0.409839
	C175	C	0.821727	0.870955	0.625674
	C176	C	0.392836	0.172506	0.896211
	C177	C	0.610951	0.174666	0.140914
	C178	C	0.395508	0.813081	0.137820
	C179	C	0.612767	0.813013	0.893354
	C180	C	0.396280	0.869246	0.196912
	C181	C	0.609912	0.119138	0.200296
	C182	C	0.392974	0.115116	0.838065
	C183	C	0.612707	0.871036	0.836054
	C184	C	0.879043	0.174553	0.409038
	C185	C	0.127847	0.175622	0.622757
	C186	C	0.124160	0.812822	0.408472
	C187	C	0.879979	0.813399	0.626023
	C188	C	0.182141	0.382827	0.896968
	C189	C	0.181872	0.604244	0.138204
	C190	C	0.823198	0.385181	0.139861
	C191	C	0.821384	0.600519	0.891982
	C192	C	0.406051	0.083825	0.614035
	C193	C	0.599697	0.902347	0.614096
	C194	C	0.597560	0.083446	0.421557
	C195	C	0.406924	0.901873	0.420138
	C196	C	0.600308	0.397668	0.107202
	C197	C	0.599770	0.588106	0.927363
	C198	C	0.405462	0.591972	0.107247
	C199	C	0.404419	0.394952	0.927159
	C200	C	0.094183	0.590697	0.419626
	C201	C	0.912700	0.588426	0.614505
	C202	C	0.093026	0.397604	0.612849
	C203	C	0.913436	0.396197	0.418562
	C204	C	0.907742	0.584793	0.114308
	C205	C	0.102672	0.402095	0.116467
	C206	C	0.100555	0.584216	0.920107
	C207	C	0.909893	0.403516	0.922955
	C208	C	0.100499	0.896224	0.607320
	C209	C	0.100354	0.089146	0.426036
	C210	C	0.907195	0.088854	0.605637
	C211	C	0.905352	0.895915	0.427610
	C212	C	0.593216	0.090884	0.918903
	C213	C	0.412634	0.089687	0.113627
	C214	C	0.593551	0.898705	0.111539
	C215	C	0.412600	0.895373	0.917966
	Zn216	Zn	0.502764	-0.006639	0.766782
	Zn217	Zn	0.503355	-0.006696	0.267017
	Zn218	Zn	0.754896	0.493725	0.017113
	Zn219	Zn	0.252955	0.493748	0.017212
	Zn220	Zn	0.002248	0.742826	0.517527
	Zn221	Zn	0.003146	0.243338	0.515810
	Zn222	Zn	0.003800	0.492548	0.767964
	Zn223	Zn	0.003930	0.493544	0.266837
	Zn224	Zn	0.504069	0.744105	0.015521
	Zn225	Zn	0.502954	0.243068	0.017561
	Zn226	Zn	0.752040	-0.006000	0.517145
	Zn227	Zn	0.253707	-0.007923	0.517003
	N228	N	0.415569	0.958844	0.697248
	N229	N	0.588856	0.028567	0.696243
	N230	N	0.590705	0.959099	0.336192
	N231	N	0.414952	0.026427	0.336283
	N232	N	0.684897	0.405069	0.983780
	N233	N	0.683876	0.580511	0.051257
	N234	N	0.322928	0.580837	0.982324
	N235	N	0.324735	0.408669	0.053437
	N236	N	0.966977	0.670457	0.433083
	N237	N	0.036878	0.673023	0.604931
	N238	N	0.968483	0.313964	0.602462
	N239	N	0.038871	0.313952	0.430215
	N240	N	0.969934	0.404431	0.698348
	N241	N	0.037273	0.580070	0.698005
	N242	N	0.968694	0.579632	0.337775
	N243	N	0.038753	0.406094	0.336523
	N244	N	0.418204	0.671826	0.981150
	N245	N	0.590140	0.673320	0.050919
	N246	N	0.588974	0.314360	0.982538
	N247	N	0.417659	0.314920	0.053276
	N248	N	0.680984	0.958343	0.431503
	N249	N	0.681833	0.028405	0.603830
	N250	N	0.323856	0.957724	0.603227
	N251	N	0.323575	0.027201	0.430524
	N252	N	0.917173	0.459251	0.196645
	N253	N	0.091158	0.528313	0.197761
	N254	N	0.091298	0.458487	0.837254
	N255	N	0.916544	0.526743	0.837251
	N256	N	0.182932	0.905547	0.482451
	N257	N	0.183327	0.079440	0.550590
	N258	N	0.821307	0.081587	0.483145
	N259	N	0.821884	0.906451	0.551677
	N260	N	0.467387	0.172645	0.931190
	N261	N	0.537809	0.172255	0.103407
	N262	N	0.468922	0.814903	0.101090
	N263	N	0.538295	0.812828	0.928294
	N264	N	0.470054	0.905932	0.196400
	N265	N	0.536042	0.082428	0.199171
	N266	N	0.467625	0.080084	0.837306
	N267	N	0.538221	0.906529	0.836218
	N268	N	0.916564	0.172520	0.481817
	N269	N	0.091307	0.174161	0.549389
	N270	N	0.089144	0.813069	0.482750
	N271	N	0.915893	0.813641	0.552446
	N272	N	0.181614	0.457602	0.932508
	N273	N	0.182668	0.529235	0.103480
	N274	N	0.824191	0.459535	0.104325
	N275	N	0.824230	0.527539	0.930248
	O276	O	-0.222560	1.222957	0.249637
	H277	H	-0.228809	1.239126	0.263994
	H278	H	-0.223281	1.234870	0.245924
	O279	O	-0.222432	0.214019	-0.018913
	H280	H	-0.234609	0.242523	-0.016583
	H281	H	-0.210964	0.216257	-0.019085
	O282	O	1.084820	1.151204	-0.017978
	H283	H	1.076181	1.156201	-0.011249
	H284	H	1.108641	1.165031	0.004422
	O285	O	0.724076	0.491155	0.704512
	H286	H	0.722506	0.497135	0.694197
	H287	H	0.737940	0.501111	0.724337
	O288	O	0.655730	0.719449	0.506233
	H289	H	0.665520	0.735631	0.506328
	H290	H	0.644102	0.719309	0.518455
	O291	O	0.794945	0.202262	0.803408
	H292	H	0.793244	0.190309	0.831759
	H293	H	0.761238	0.235679	0.773952
	O294	O	0.678980	-0.396760	0.595826
	H295	H	0.668114	-0.414670	0.582367
	H296	H	0.682234	-0.374930	0.584810
	O297	O	0.428675	0.692310	0.554528
	H298	H	0.440833	0.698263	0.559225
	H299	H	0.417346	0.688405	0.579958
	O300	O	0.224206	0.022708	1.232411
	H301	H	0.236497	0.006250	1.224200
	H302	H	0.225414	0.011136	1.242357
	O303	O	0.401528	0.519151	0.328007
	H304	H	0.400228	0.518638	0.306693
	H305	H	0.399593	0.519994	0.332723
	O306	O	1.066096	1.052164	0.152245
	H307	H	1.070097	1.044187	0.167859
	H308	H	1.057337	1.057127	0.150575
	O309	O	-0.122913	0.944760	0.207597
	H310	H	-0.144360	0.952524	0.229572
	H311	H	-0.116120	0.962572	0.180414
	O312	O	0.532118	0.390482	0.538989
	H313	H	0.540476	0.388779	0.558738
	H314	H	0.521778	0.392059	0.530712
	O315	O	1.038339	1.217745	1.238701
	H316	H	1.045239	1.204782	1.231490
	H317	H	1.035263	1.242128	1.265671
	O318	O	0.552557	0.520286	0.747181
	H319	H	0.555286	0.526964	0.757955
	H320	H	0.557263	0.517998	0.746394
	O321	O	0.312938	0.673101	0.704375
	H322	H	0.315946	0.671921	0.723548
	H323	H	0.313358	0.687460	0.721875
	O324	O	1.213918	0.787583	-0.189391
	H325	H	1.218592	0.811257	-0.165649
	H326	H	1.188276	0.809608	-0.187952
	O327	O	-0.549905	0.608637	0.553050
	H328	H	-0.559329	0.603347	0.564862
	H329	H	-0.554910	0.624390	0.571890
	O330	O	0.716248	0.280133	0.488640
	H331	H	0.721618	0.278534	0.484599
	H332	H	0.718925	0.267464	0.479344
	O333	O	0.814587	0.974147	-0.161436
	H334	H	0.802184	0.973843	-0.169082
	H335	H	0.805234	0.989160	-0.164951
	O336	O	0.793176	-0.094295	0.008203
	H337	H	0.788544	-0.073570	0.025833
	H338	H	0.789737	-0.099030	0.020176
	O339	O	1.209090	0.198533	1.224693
	H340	H	1.208406	0.148138	1.229655
	H341	H	1.194891	0.217593	1.245494
	O342	O	-0.008642	-0.037503	0.074513
	H343	H	-0.010342	-0.026941	0.071211
	H344	H	-0.003689	-0.039284	0.072512
	O345	O	-0.202047	1.060776	1.217388
	H346	H	-0.225857	1.073236	1.226298
	H347	H	-0.188132	1.054629	1.207085
	O348	O	-0.217570	0.006937	-0.144046
	H349	H	-0.238645	0.002535	-0.162016
	H350	H	-0.214916	0.019439	-0.134484
	O351	O	1.016756	1.014413	-0.211593
	H352	H	1.016995	1.025175	-0.208493
	H353	H	0.998155	1.021449	-0.205580
	O354	O	-0.208106	-0.196585	1.072889
	H355	H	-0.202761	-0.203523	1.081278
	H356	H	-0.226881	-0.202370	1.084674
	O357	O	0.461011	0.273552	0.740963
	H358	H	0.447249	0.268800	0.743283
	H359	H	0.452320	0.260577	0.757652
	O360	O	0.523034	0.414334	0.501884
	H361	H	0.509680	0.414061	0.516040
	H362	H	0.517146	0.401216	0.500427
	O363	O	0.058185	-0.204955	0.027075
	H364	H	0.046123	-0.204437	0.053454
	H365	H	0.051617	-0.201942	0.009315
	O366	O	0.523856	0.558834	0.534478
	H367	H	0.522160	0.561311	0.540479
	H368	H	0.514884	0.568690	0.536213
	O369	O	1.018092	0.016083	-0.013895
	H370	H	1.022298	0.006894	-0.009454
	H371	H	1.020130	0.007885	-0.009125
	O372	O	0.712816	1.355201	0.308136
	H373	H	0.719252	1.385173	0.302616
	H374	H	0.689235	1.368707	0.314511
	O375	O	0.820139	-0.194392	-0.175820
	H376	H	0.837071	-0.161973	-0.167496
	H377	H	0.838925	-0.190307	-0.149559
	O378	O	0.685917	0.660211	0.327745
	H379	H	0.677610	0.658209	0.331638
	H380	H	0.663362	0.644641	0.341789
	O381	O	0.229303	0.974880	1.046875
	H382	H	0.224900	0.971685	1.038531
	H383	H	0.232180	0.973062	1.038394
	O384	O	0.821591	0.055079	1.113818
	H385	H	0.819166	0.047435	1.118168
	H386	H	0.819221	0.078762	1.120397
	O387	O	0.939859	1.207540	0.099291
	H388	H	0.952319	1.204688	0.101282
	H389	H	0.946476	1.209442	0.092497
	O390	O	0.214761	-0.041493	-0.198177
	H391	H	0.191175	-0.018324	-0.195952
	H392	H	0.240827	-0.030169	-0.208787
	O393	O	0.291523	0.278633	0.561848
	H394	H	0.266352	0.260976	0.552100
	H395	H	0.299564	0.303116	0.548459
	O396	O	0.015203	0.960547	0.804916
	H397	H	0.010504	0.969068	0.802449
	H398	H	0.007616	0.972560	0.810072
	O399	O	0.181963	0.052486	0.956931
	H400	H	0.180353	0.063164	0.958204
	H401	H	0.192589	0.054474	0.957684
	O402	O	0.787054	0.779324	0.230770
	H403	H	0.797493	0.790774	0.215959
	H404	H	0.767232	0.776487	0.253912
	O405	O	0.965240	-0.231937	1.242758
	H406	H	0.962238	-0.245798	1.244512
	H407	H	0.954908	-0.243652	1.252062
	O408	O	0.229876	-0.231101	-0.021086
	H409	H	0.230796	-0.256011	-0.013375
	H410	H	0.228828	-0.243695	-0.029479
	O411	O	0.575542	0.353972	0.491249
	H412	H	0.571806	0.363143	0.478104
	H413	H	0.577980	0.353230	0.499982
	O414	O	0.659766	0.488693	0.398549
	H415	H	0.641940	0.496217	0.399124
	H416	H	0.651773	0.500077	0.411554
	O417	O	0.348801	0.329614	0.319436
	H418	H	0.356490	0.342325	0.339879
	H419	H	0.340034	0.319989	0.319875
	O420	O	0.450053	0.517962	0.499229
	H421	H	0.440598	0.529550	0.495601
	H422	H	0.460829	0.512138	0.503329
	O423	O	0.033280	-0.230292	0.798531
	H424	H	0.043969	-0.219818	0.793118
	H425	H	0.035700	-0.252325	0.783040
	O426	O	0.694586	0.306446	0.710363
	H427	H	0.680823	0.334067	0.700545
	H428	H	0.674010	0.320163	0.685342
	O429	O	0.342142	0.667738	0.523068
	H430	H	0.336204	0.673469	0.539493
	H431	H	0.350077	0.674861	0.523096
	O432	O	0.284665	0.548935	0.583551
	H433	H	0.284076	0.552105	0.603227
	H434	H	0.278147	0.557635	0.598495
	O435	O	0.595192	0.441222	0.490899
	H436	H	0.599111	0.428048	0.491816
	H437	H	0.586217	0.443402	0.503092
	O438	O	-0.461732	0.275245	0.309694
	H439	H	-0.457703	0.278609	0.332086
	H440	H	-0.462045	0.249032	0.289217
	O441	O	0.301228	0.698484	0.314274
	H442	H	0.318603	0.715960	0.296833
	H443	H	0.293095	0.705096	0.367262
	O444	O	0.513241	0.696251	0.725916
	H445	H	0.533729	0.712137	0.733942
	H446	H	0.516947	0.695948	0.732075
	O447	O	0.192235	1.177824	0.818847
	H448	H	0.176312	1.170159	0.838859
	H449	H	0.170249	1.161484	0.820776
	O450	O	0.067494	0.948962	0.969633
	H451	H	0.070902	0.941456	0.975601
	H452	H	0.067751	0.953972	0.963543
	O453	O	0.371869	0.438894	0.451950
	H454	H	0.370371	0.449798	0.474004
	H455	H	0.360504	0.457898	0.438288
	O456	O	-0.008461	-0.132094	1.150768
	H457	H	-0.013771	-0.144552	1.146942
	H458	H	-0.016119	-0.116916	1.132921
	O459	O	0.949623	0.765171	-0.041270
	H460	H	0.956726	0.775341	-0.052799
	H461	H	0.931130	0.762694	-0.042772
	O462	O	0.279394	0.461483	0.740071
	H463	H	0.273198	0.421593	0.748037
	H464	H	0.265693	0.450623	0.753645
	O465	O	1.193711	-0.184435	0.192317
	H466	H	1.195129	-0.182020	0.204223
	H467	H	1.176743	-0.176272	0.173790
	O468	O	0.585968	0.541600	0.409063
	H469	H	0.565674	0.546044	0.407794
	H470	H	0.583492	0.549613	0.423894
	O471	O	0.449261	0.506995	0.689471
	H472	H	0.456932	0.516697	0.690964
	H473	H	0.443679	0.492409	0.688888
	O474	O	0.505138	0.711054	0.361329
	H475	H	0.493665	0.712156	0.352298
	H476	H	0.511419	0.722429	0.363448
	O477	O	0.276597	0.529550	1.293148
	H478	H	0.270800	0.563286	1.288661
	H479	H	0.256402	0.549287	1.273780
	O480	O	0.294749	0.284434	0.727183
	H481	H	0.276250	0.254044	0.752513
	H482	H	0.299391	0.279098	0.682508
	O483	O	0.463959	0.264093	0.494843
	H484	H	0.449353	0.273419	0.498588
	H485	H	0.475933	0.265278	0.494942
	O486	O	0.717808	-0.298713	0.728690
	H487	H	0.725662	-0.293643	0.702125
	H488	H	0.739485	-0.274231	0.752144
	O489	O	1.233006	1.221437	0.062861
	H490	H	1.232501	1.221844	0.106683
	H491	H	1.260119	1.252190	0.072478
	O492	O	-0.013959	-0.006688	0.243956
	H493	H	-0.033311	-0.013620	0.252158
	H494	H	-0.027228	-0.007642	0.248895
	O495	O	-0.021846	1.211491	0.790120
	H496	H	-0.033874	1.226088	0.785778
	H497	H	-0.052734	1.223960	0.781564
	O498	O	0.985094	1.161140	0.940051
	H499	H	0.981793	1.153166	0.933037
	H500	H	0.981027	1.160217	0.942207
	O501	O	0.594559	0.530741	0.315518
	H502	H	0.573212	0.529934	0.323083
	H503	H	0.606060	0.521316	0.301472
