data_Molecule from HDF5

_cell_length_a		16.339052
_cell_length_b		16.327030
_cell_length_c		16.330923
_cell_angle_alpha	90.019059
_cell_angle_beta	89.964138
_cell_angle_gamma	90.039533
_symmetry_space_group_name_H-M	'P 1'
_symmetry_Int_Tables_number		1

loop_
	_symmetry_equiv_pos_as_xyz
	x,y,z

loop_
	_atom_site_label
	_atom_site_type_symbol
	_atom_site_fract_x
	_atom_site_fract_y
	_atom_site_fract_z
	H0	H	0.395673	0.843722	0.715662
	H1	H	0.591865	0.170465	0.716238
	H2	H	0.591980	0.843704	0.285938
	H3	H	0.396355	0.171223	0.287035
	H4	H	0.710592	0.407638	0.838384
	H5	H	0.708512	0.605003	0.164658
	H6	H	0.281581	0.603439	0.837170
	H7	H	0.279332	0.407507	0.164214
	H8	H	0.831799	0.721864	0.402976
	H9	H	0.158272	0.723126	0.598912
	H10	H	0.831534	0.293518	0.599293
	H11	H	0.157309	0.292800	0.402293
	H12	H	0.831968	0.409914	0.715278
	H13	H	0.157941	0.606982	0.715683
	H14	H	0.831744	0.605935	0.286252
	H15	H	0.158293	0.408995	0.285681
	H16	H	0.396793	0.721003	0.837687
	H17	H	0.592662	0.721691	0.163796
	H18	H	0.593658	0.291787	0.837370
	H19	H	0.396666	0.291966	0.164124
	H20	H	0.708847	0.843547	0.402170
	H21	H	0.709496	0.170852	0.600606
	H22	H	0.278179	0.844471	0.599894
	H23	H	0.282355	0.171091	0.405425
	H24	H	0.896377	0.344062	0.215850
	H25	H	0.091457	0.671669	0.213220
	H26	H	0.092539	0.344426	0.785527
	H27	H	0.896885	0.671084	0.786672
	H28	H	0.209832	0.908987	0.337954
	H29	H	0.207928	0.105086	0.663867
	H30	H	0.780026	0.105375	0.337783
	H31	H	0.780566	0.909403	0.664430
	H32	H	0.331329	0.220679	0.902790
	H33	H	0.658266	0.221934	0.098592
	H34	H	0.330840	0.793075	0.098539
	H35	H	0.657737	0.792010	0.901949
	H36	H	0.331736	0.909876	0.214944
	H37	H	0.658732	0.105172	0.215536
	H38	H	0.331251	0.103392	0.787838
	H39	H	0.657376	0.907471	0.784629
	H40	H	0.896171	0.222126	0.337615
	H41	H	0.091810	0.221700	0.664314
	H42	H	0.092642	0.793827	0.337230
	H43	H	0.895986	0.791908	0.663616
	H44	H	0.207360	0.343556	0.903462
	H45	H	0.210389	0.669925	0.099695
	H46	H	0.781377	0.343241	0.098320
	H47	H	0.779130	0.670299	0.902647
	H48	H	0.394696	0.122191	0.585910
	H49	H	0.590883	0.889499	0.597814
	H50	H	0.589495	0.121859	0.414197
	H51	H	0.395443	0.887395	0.397816
	H52	H	0.582485	0.400550	0.119198
	H53	H	0.586699	0.595683	0.886136
	H54	H	0.401822	0.605632	0.117532
	H55	H	0.411342	0.412680	0.888171
	H56	H	0.108774	0.597862	0.412704
	H57	H	0.880810	0.600782	0.588550
	H58	H	0.109841	0.408553	0.585349
	H59	H	0.880900	0.417769	0.410977
	H60	H	0.108094	0.423771	0.591853
	H61	H	0.879944	0.595335	0.595978
	H62	H	0.111644	0.597326	0.399947
	H63	H	0.877745	0.416940	0.402871
	H64	H	0.396862	0.597279	0.117869
	H65	H	0.584563	0.601820	0.885371
	H66	H	0.602201	0.416775	0.119479
	H67	H	0.395926	0.405898	0.880714
	H68	H	0.591395	0.125023	0.404140
	H69	H	0.581494	0.893421	0.594694
	H70	H	0.398240	0.126379	0.604067
	H71	H	0.412636	0.894295	0.406798
	H72	H	0.899071	0.622592	0.089455
	H73	H	0.079973	0.393139	0.097265
	H74	H	0.082966	0.621156	0.909796
	H75	H	0.903532	0.392870	0.910098
	H76	H	0.092116	0.915422	0.617917
	H77	H	0.078414	0.096520	0.389035
	H78	H	0.897485	0.110755	0.620924
	H79	H	0.896704	0.923521	0.386657
	H80	H	0.613886	0.103274	0.899093
	H81	H	0.378590	0.099682	0.096450
	H82	H	0.610441	0.919967	0.099982
	H83	H	0.375859	0.906916	0.904471
	H84	H	0.613805	0.905575	0.096931
	H85	H	0.378734	0.102130	0.093682
	H86	H	0.609881	0.105697	0.916544
	H87	H	0.380842	0.913097	0.914956
	H88	H	0.894482	0.092450	0.616730
	H89	H	0.088325	0.113673	0.380411
	H90	H	0.083680	0.919610	0.614358
	H91	H	0.911250	0.913250	0.387714
	H92	H	0.095282	0.624963	0.910927
	H93	H	0.087984	0.393616	0.085180
	H94	H	0.898409	0.625122	0.097263
	H95	H	0.900112	0.391712	0.908216
	H96	H	0.411975	0.119668	0.593365
	H97	H	0.589820	0.893304	0.587848
	H98	H	0.581785	0.121727	0.406606
	H99	H	0.395393	0.892504	0.417583
	H100	H	0.579333	0.424283	0.110525
	H101	H	0.591507	0.600589	0.883940
	H102	H	0.406013	0.597332	0.114571
	H103	H	0.396626	0.423257	0.886972
	H104	H	0.113063	0.608827	0.406198
	H105	H	0.877926	0.603966	0.596237
	H106	H	0.113555	0.411597	0.601238
	H107	H	0.877986	0.410151	0.408242
	H108	H	0.905226	0.622587	0.094284
	H109	H	0.093694	0.388422	0.098067
	H110	H	0.089449	0.626065	0.899841
	H111	H	0.903767	0.391781	0.905703
	H112	H	0.084133	0.910374	0.616842
	H113	H	0.099216	0.094997	0.382964
	H114	H	0.911394	0.100503	0.613789
	H115	H	0.895893	0.906578	0.380761
	H116	H	0.607451	0.089758	0.909021
	H117	H	0.380282	0.099127	0.093662
	H118	H	0.607780	0.914340	0.086247
	H119	H	0.379236	0.919480	0.903764
	C120	C	0.372721	0.015111	0.622856
	C121	C	0.616066	0.999425	0.622797
	C122	C	0.615774	0.015083	0.379500
	C123	C	0.372601	0.999339	0.379042
	C124	C	0.616460	0.384986	0.008895
	C125	C	0.615775	0.627968	0.993037
	C126	C	0.372811	0.628366	0.009166
	C127	C	0.372758	0.385447	0.993026
	C128	C	0.003099	0.629370	0.378560
	C129	C	0.987028	0.629285	0.621961
	C130	C	0.002962	0.386294	0.621857
	C131	C	0.986572	0.386213	0.378924
	C132	C	0.872886	0.515351	0.122252
	C133	C	0.115771	0.499193	0.121943
	C134	C	0.116453	0.515663	0.879009
	C135	C	0.873460	0.499532	0.879090
	C136	C	0.115255	0.886708	0.508660
	C137	C	0.116208	0.129907	0.492335
	C138	C	0.872601	0.129236	0.509156
	C139	C	0.872964	0.885517	0.492677
	C140	C	0.502591	0.128001	0.879957
	C141	C	0.487205	0.128620	0.122550
	C142	C	0.502720	0.885441	0.122195
	C143	C	0.486224	0.884859	0.878964
	C144	C	0.374794	0.892462	0.677959
	C145	C	0.612868	0.121960	0.678134
	C146	C	0.612555	0.892240	0.324358
	C147	C	0.376125	0.122215	0.324753
	C148	C	0.671926	0.387181	0.886550
	C149	C	0.670627	0.625457	0.115832
	C150	C	0.318445	0.624757	0.886149
	C151	C	0.317670	0.387560	0.115643
	C152	C	0.880440	0.684199	0.382163
	C153	C	0.109635	0.685001	0.619477
	C154	C	0.880153	0.331502	0.619535
	C155	C	0.108817	0.330813	0.381330
	C156	C	0.880391	0.389115	0.677275
	C157	C	0.109528	0.627767	0.677652
	C158	C	0.880324	0.626781	0.324147
	C159	C	0.109364	0.388746	0.323681
	C160	C	0.375656	0.683062	0.886205
	C161	C	0.613276	0.683463	0.115380
	C162	C	0.614045	0.329631	0.886271
	C163	C	0.375930	0.330233	0.115679
	C164	C	0.670705	0.892350	0.381851
	C165	C	0.671373	0.122133	0.620902
	C166	C	0.316614	0.892783	0.620260
	C167	C	0.319071	0.122357	0.383160
	C168	C	0.876018	0.392480	0.177420
	C169	C	0.112913	0.622512	0.176497
	C170	C	0.113080	0.392975	0.823804
	C171	C	0.875515	0.622097	0.824026
	C172	C	0.171573	0.888812	0.386367
	C173	C	0.170843	0.126659	0.615090
	C174	C	0.817964	0.126029	0.386391
	C175	C	0.817972	0.888232	0.615581
	C176	C	0.380026	0.182810	0.882528
	C177	C	0.609886	0.183466	0.119550
	C178	C	0.379597	0.830941	0.119069
	C179	C	0.609130	0.829889	0.881258
	C180	C	0.379956	0.888803	0.176966
	C181	C	0.609790	0.125850	0.177908
	C182	C	0.380082	0.124796	0.825096
	C183	C	0.608994	0.887087	0.823138
	C184	C	0.875969	0.183647	0.386193
	C185	C	0.112852	0.184290	0.615407
	C186	C	0.113198	0.831922	0.385822
	C187	C	0.875489	0.830124	0.615200
	C188	C	0.170237	0.392548	0.882275
	C189	C	0.171681	0.621817	0.119890
	C190	C	0.818831	0.391960	0.119137
	C191	C	0.817258	0.621734	0.881659
	C192	C	0.395162	0.100566	0.600864
	C193	C	0.594085	0.914185	0.600038
	C194	C	0.594099	0.100787	0.401878
	C195	C	0.394610	0.913407	0.400910
	C196	C	0.594484	0.407206	0.094281
	C197	C	0.594072	0.605780	0.907296
	C198	C	0.395029	0.606497	0.094671
	C199	C	0.394685	0.407486	0.907507
	C200	C	0.088998	0.607626	0.399844
	C201	C	0.901704	0.606683	0.599987
	C202	C	0.088413	0.408194	0.599418
	C203	C	0.900927	0.408581	0.400963
	C204	C	0.894392	0.601063	0.100215
	C205	C	0.093665	0.413757	0.099942
	C206	C	0.095323	0.601746	0.900611
	C207	C	0.896047	0.414078	0.901411
	C208	C	0.093058	0.908717	0.594278
	C209	C	0.094926	0.108116	0.406303
	C210	C	0.894416	0.107671	0.595054
	C211	C	0.894783	0.907910	0.407125
	C212	C	0.588447	0.106132	0.901864
	C213	C	0.401422	0.106860	0.100939
	C214	C	0.588654	0.906839	0.100495
	C215	C	0.400786	0.906857	0.901081
	Zn216	Zn	0.494370	0.006756	0.751574
	Zn217	Zn	0.494313	0.007164	0.251081
	Zn218	Zn	0.744621	0.506855	0.001087
	Zn219	Zn	0.244436	0.507076	0.001061
	Zn220	Zn	-0.004672	0.757518	0.500222
	Zn221	Zn	-0.005556	0.257734	0.500721
	Zn222	Zn	-0.004629	0.508154	0.750129
	Zn223	Zn	-0.005419	0.507804	0.250323
	Zn224	Zn	0.494769	0.756557	0.000351
	Zn225	Zn	0.494577	0.257055	0.000378
	Zn226	Zn	0.744711	0.007348	0.500990
	Zn227	Zn	0.244376	0.007413	0.500713
	N228	N	0.409208	0.969302	0.679405
	N229	N	0.579069	0.044906	0.679326
	N230	N	0.579097	0.969436	0.322910
	N231	N	0.408748	0.044619	0.322218
	N232	N	0.673291	0.421128	0.963541
	N233	N	0.672333	0.591531	0.038616
	N234	N	0.316828	0.591362	0.963548
	N235	N	0.315832	0.421230	0.038476
	N236	N	0.957805	0.685809	0.415247
	N237	N	0.032504	0.686109	0.585673
	N238	N	0.957323	0.329427	0.586008
	N239	N	0.031766	0.329246	0.414867
	N240	N	0.957629	0.422716	0.678662
	N241	N	0.032514	0.593638	0.679092
	N242	N	0.957550	0.593615	0.321618
	N243	N	0.031997	0.422547	0.321948
	N244	N	0.409007	0.685254	0.963436
	N245	N	0.579971	0.684990	0.038170
	N246	N	0.580159	0.328221	0.963330
	N247	N	0.409496	0.328712	0.038384
	N248	N	0.672886	0.969720	0.415567
	N249	N	0.673337	0.045021	0.586972
	N250	N	0.315177	0.970180	0.586783
	N251	N	0.316612	0.044828	0.416053
	N252	N	0.908552	0.470151	0.179580
	N253	N	0.078808	0.545416	0.177906
	N254	N	0.080225	0.470455	0.821849
	N255	N	0.909601	0.545203	0.822324
	N256	N	0.172796	0.922411	0.463733
	N257	N	0.172749	0.093291	0.537671
	N258	N	0.816014	0.092885	0.463758
	N259	N	0.816511	0.922293	0.538494
	N260	N	0.457310	0.184568	0.916010
	N261	N	0.532684	0.185639	0.086236
	N262	N	0.456977	0.828942	0.085578
	N263	N	0.532113	0.828326	0.915052
	N264	N	0.457218	0.921817	0.179040
	N265	N	0.532410	0.092379	0.179619
	N266	N	0.457278	0.091230	0.823770
	N267	N	0.531692	0.920734	0.821740
	N268	N	0.909076	0.185791	0.463639
	N269	N	0.079571	0.186216	0.538091
	N270	N	0.079170	0.830477	0.462680
	N271	N	0.908695	0.828196	0.537850
	N272	N	0.172304	0.469746	0.915905
	N273	N	0.173356	0.544464	0.086534
	N274	N	0.816668	0.469370	0.085757
	N275	N	0.815780	0.544333	0.915227
	O276	O	1.602014	-0.519500	0.536689
	H277	H	1.608728	-0.523796	0.561057
	H278	H	1.607824	-0.522093	0.539907
	O279	O	0.550683	0.449026	0.477414
	H280	H	0.554596	0.441475	0.464099
	H281	H	0.548435	0.454778	0.489345
	O282	O	0.594863	0.467184	0.513134
	H283	H	0.597842	0.464161	0.516644
	H284	H	0.599833	0.469460	0.507433
	O285	O	0.581654	0.452180	0.501986
	H286	H	0.570366	0.457191	0.492081
	H287	H	0.586221	0.444925	0.494418
