data_Molecule from HDF5

_cell_length_a		16.669666
_cell_length_b		16.536465
_cell_length_c		16.611422
_cell_angle_alpha	90.092319
_cell_angle_beta	89.928196
_cell_angle_gamma	90.113275
_symmetry_space_group_name_H-M	'P 1'
_symmetry_Int_Tables_number		1

loop_
	_symmetry_equiv_pos_as_xyz
	x,y,z

loop_
	_atom_site_label
	_atom_site_type_symbol
	_atom_site_fract_x
	_atom_site_fract_y
	_atom_site_fract_z
	H0	H	0.398531	0.850669	0.704593
	H1	H	0.611437	0.161166	0.701743
	H2	H	0.611856	0.848355	0.261645
	H3	H	0.402890	0.161685	0.259392
	H4	H	0.728499	0.400968	0.825809
	H5	H	0.730506	0.613698	0.136692
	H6	H	0.280879	0.614302	0.829886
	H7	H	0.283768	0.396352	0.136841
	H8	H	0.852979	0.727605	0.376114
	H9	H	0.163042	0.728423	0.586965
	H10	H	0.851827	0.286139	0.585105
	H11	H	0.162283	0.283390	0.374304
	H12	H	0.852496	0.402190	0.702559
	H13	H	0.163179	0.612096	0.703627
	H14	H	0.853397	0.612113	0.259118
	H15	H	0.160572	0.396936	0.256602
	H16	H	0.397906	0.729636	0.828383
	H17	H	0.613344	0.728357	0.136907
	H18	H	0.611240	0.285403	0.825313
	H19	H	0.404126	0.285015	0.138774
	H20	H	0.727248	0.848304	0.377253
	H21	H	0.727623	0.161727	0.586459
	H22	H	0.282133	0.851260	0.589433
	H23	H	0.285923	0.161237	0.374868
	H24	H	0.900426	0.349183	0.203827
	H25	H	0.112228	0.661340	0.203034
	H26	H	0.114163	0.348640	0.759686
	H27	H	0.905691	0.662596	0.763576
	H28	H	0.229200	0.900085	0.325147
	H29	H	0.231177	0.113124	0.636445
	H30	H	0.788665	0.108725	0.325300
	H31	H	0.786130	0.900346	0.637466
	H32	H	0.352254	0.227193	0.876230
	H33	H	0.665342	0.222027	0.081288
	H34	H	0.351561	0.784158	0.085735
	H35	H	0.661464	0.781685	0.874364
	H36	H	0.353404	0.897023	0.205808
	H37	H	0.664303	0.106881	0.198903
	H38	H	0.351568	0.110456	0.759777
	H39	H	0.661615	0.897531	0.757882
	H40	H	0.905654	0.225020	0.325186
	H41	H	0.113210	0.227074	0.638399
	H42	H	0.111959	0.784397	0.325385
	H43	H	0.904391	0.786399	0.638825
	H44	H	0.230252	0.348961	0.875368
	H45	H	0.230182	0.660353	0.089010
	H46	H	0.784130	0.349672	0.088530
	H47	H	0.788792	0.661935	0.878668
	H48	H	0.421167	0.117349	0.571964
	H49	H	0.594614	0.893593	0.567388
	H50	H	0.605277	0.120812	0.389922
	H51	H	0.417252	0.893278	0.390904
	H52	H	0.597263	0.417680	0.093184
	H53	H	0.599442	0.595317	0.869271
	H54	H	0.419083	0.589867	0.092126
	H55	H	0.419719	0.415056	0.871295
	H56	H	0.120288	0.594952	0.387796
	H57	H	0.895586	0.591925	0.578997
	H58	H	0.119415	0.414907	0.568981
	H59	H	0.896044	0.410856	0.397123
	H60	H	0.119004	0.419804	0.572033
	H61	H	0.894461	0.601463	0.572706
	H62	H	0.117916	0.596850	0.398311
	H63	H	0.900346	0.422670	0.397728
	H64	H	0.422589	0.591019	0.091210
	H65	H	0.597931	0.589946	0.871006
	H66	H	0.596538	0.414056	0.094552
	H67	H	0.417443	0.416409	0.869897
	H68	H	0.595431	0.119437	0.385955
	H69	H	0.601305	0.891961	0.568313
	H70	H	0.423363	0.114641	0.566217
	H71	H	0.422778	0.894755	0.392702
	H72	H	0.916937	0.615905	0.065492
	H73	H	0.100421	0.390377	0.071934
	H74	H	0.096448	0.613401	0.901975
	H75	H	0.912301	0.392014	0.897037
	H76	H	0.100581	0.918707	0.594225
	H77	H	0.096221	0.086799	0.372902
	H78	H	0.913608	0.093920	0.594952
	H79	H	0.917559	0.914532	0.369008
	H80	H	0.613704	0.086065	0.896280
	H81	H	0.394369	0.091601	0.076472
	H82	H	0.617108	0.918484	0.069619
	H83	H	0.396705	0.912512	0.898446
	H84	H	0.619201	0.916395	0.071419
	H85	H	0.393540	0.099976	0.071113
	H86	H	0.621253	0.093164	0.881324
	H87	H	0.399558	0.923916	0.894844
	H88	H	0.918705	0.091427	0.592395
	H89	H	0.090631	0.099493	0.371162
	H90	H	0.093612	0.923473	0.589525
	H91	H	0.916110	0.917305	0.369442
	H92	H	0.102366	0.619395	0.891751
	H93	H	0.088980	0.394153	0.072218
	H94	H	0.916266	0.619820	0.074073
	H95	H	0.917770	0.389944	0.885969
	H96	H	0.417353	0.116270	0.566739
	H97	H	0.596272	0.890387	0.573200
	H98	H	0.597327	0.116769	0.395823
	H99	H	0.417830	0.894742	0.396860
	H100	H	0.600037	0.415409	0.094953
	H101	H	0.594189	0.594358	0.871253
	H102	H	0.420462	0.593454	0.093312
	H103	H	0.419069	0.418272	0.871649
	H104	H	0.116184	0.586873	0.393784
	H105	H	0.898484	0.591653	0.568180
	H106	H	0.121640	0.415275	0.573971
	H107	H	0.894795	0.418138	0.387589
	H108	H	0.923646	0.615132	0.071866
	H109	H	0.095600	0.395512	0.062233
	H110	H	0.089665	0.615785	0.890672
	H111	H	0.923366	0.395306	0.895327
	H112	H	0.091735	0.914657	0.592345
	H113	H	0.104061	0.097033	0.366976
	H114	H	0.918801	0.097493	0.594079
	H115	H	0.919416	0.917089	0.370645
	H116	H	0.620309	0.103098	0.896260
	H117	H	0.397908	0.092406	0.067257
	H118	H	0.618384	0.915264	0.068489
	H119	H	0.394071	0.915595	0.886962
	C120	C	0.386695	0.013746	0.601611
	C121	C	0.628733	0.995916	0.602052
	C122	C	0.629796	0.014455	0.359698
	C123	C	0.386850	0.997232	0.360345
	C124	C	0.629464	0.383845	-0.009192
	C125	C	0.629270	0.626476	0.973217
	C126	C	0.386759	0.625256	-0.009575
	C127	C	0.386115	0.383019	0.973680
	C128	C	0.016066	0.625939	0.360480
	C129	C	0.999303	0.627424	0.604541
	C130	C	0.016825	0.384686	0.603408
	C131	C	0.998698	0.383575	0.360191
	C132	C	0.885750	0.513970	0.103338
	C133	C	0.128036	0.496443	0.102536
	C134	C	0.129266	0.513343	0.861212
	C135	C	0.887153	0.496426	0.861359
	C136	C	0.128333	0.885320	0.489329
	C137	C	0.129415	0.127429	0.473350
	C138	C	0.886402	0.126223	0.490116
	C139	C	0.886024	0.883908	0.472982
	C140	C	0.515583	0.126463	0.859405
	C141	C	0.498914	0.125967	0.102451
	C142	C	0.515803	0.883685	0.102707
	C143	C	0.498629	0.883087	0.859500
	C144	C	0.381635	0.897068	0.663620
	C145	C	0.629913	0.114144	0.661620
	C146	C	0.630508	0.895785	0.300923
	C147	C	0.384318	0.114655	0.299619
	C148	C	0.688603	0.382255	0.872773
	C149	C	0.689985	0.630822	0.089865
	C150	C	0.323057	0.630686	0.875353
	C151	C	0.325022	0.379208	0.090539
	C152	C	0.899665	0.687008	0.357913
	C153	C	0.116268	0.687929	0.605784
	C154	C	0.898904	0.325648	0.604338
	C155	C	0.115463	0.323260	0.356764
	C156	C	0.899299	0.382967	0.662885
	C157	C	0.116446	0.630148	0.663771
	C158	C	0.899675	0.629325	0.299896
	C159	C	0.114543	0.379924	0.298123
	C160	C	0.381211	0.688149	0.874736
	C161	C	0.631697	0.687958	0.090001
	C162	C	0.630385	0.324890	0.872526
	C163	C	0.384682	0.323475	0.091340
	C164	C	0.687977	0.895887	0.358523
	C165	C	0.687917	0.114465	0.604385
	C166	C	0.323714	0.897390	0.606462
	C167	C	0.326398	0.114583	0.357039
	C168	C	0.882524	0.396061	0.163530
	C169	C	0.130774	0.614079	0.163337
	C170	C	0.132303	0.395745	0.799887
	C171	C	0.886728	0.615116	0.803032
	C172	C	0.188796	0.882153	0.372131
	C173	C	0.190393	0.130845	0.590129
	C174	C	0.827999	0.127745	0.372137
	C175	C	0.826109	0.881709	0.590648
	C176	C	0.398701	0.186680	0.857744
	C177	C	0.617646	0.183539	0.101380
	C178	C	0.398566	0.823632	0.104869
	C179	C	0.614847	0.821760	0.856077
	C180	C	0.399500	0.879917	0.164422
	C181	C	0.617319	0.126271	0.159651
	C182	C	0.398396	0.128549	0.799956
	C183	C	0.614991	0.879484	0.798300
	C184	C	0.886431	0.185186	0.372252
	C185	C	0.131638	0.187439	0.591002
	C186	C	0.130618	0.824521	0.372164
	C187	C	0.885013	0.825100	0.591234
	C188	C	0.189858	0.395779	0.857474
	C189	C	0.189197	0.613640	0.106438
	C190	C	0.824654	0.396502	0.106447
	C191	C	0.828716	0.614980	0.860346
	C192	C	0.413059	0.094979	0.575525
	C193	C	0.604317	0.913566	0.576934
	C194	C	0.605951	0.097516	0.383578
	C195	C	0.412136	0.915489	0.386116
	C196	C	0.604852	0.408522	0.072950
	C197	C	0.604389	0.600516	0.891739
	C198	C	0.413270	0.598920	0.071230
	C199	C	0.411357	0.409313	0.892038
	C200	C	0.097138	0.600127	0.386054
	C201	C	0.917512	0.602281	0.580183
	C202	C	0.098755	0.409563	0.578851
	C203	C	0.917956	0.409857	0.386591
	C204	C	0.911570	0.595615	0.077985
	C205	C	0.102247	0.414592	0.076431
	C206	C	0.103739	0.594789	0.887272
	C207	C	0.910949	0.413877	0.885782
	C208	C	0.102582	0.911396	0.570883
	C209	C	0.104319	0.101874	0.391775
	C210	C	0.910272	0.101408	0.572469
	C211	C	0.910639	0.909156	0.391031
	C212	C	0.597125	0.101325	0.884157
	C213	C	0.416608	0.101608	0.078544
	C214	C	0.597046	0.909438	0.077052
	C215	C	0.417697	0.909714	0.885964
	Zn216	Zn	0.507327	0.004399	0.730639
	Zn217	Zn	0.507976	0.005245	0.232011
	Zn218	Zn	0.757977	0.505181	-0.018157
	Zn219	Zn	0.257430	0.504028	-0.017278
	Zn220	Zn	0.007633	0.755425	0.481609
	Zn221	Zn	0.008479	0.255401	0.481934
	Zn222	Zn	0.008515	0.505368	0.732995
	Zn223	Zn	0.007080	0.504729	0.231089
	Zn224	Zn	0.507336	0.754610	-0.018375
	Zn225	Zn	0.507501	0.255077	-0.018399
	Zn226	Zn	0.757153	0.005083	0.481515
	Zn227	Zn	0.257898	0.006168	0.481168
	N228	N	0.420181	0.970322	0.660677
	N229	N	0.594010	0.039438	0.660642
	N230	N	0.595009	0.970707	0.301351
	N231	N	0.421080	0.040548	0.301374
	N232	N	0.688204	0.418156	0.947310
	N233	N	0.688647	0.593281	0.016085
	N234	N	0.326508	0.592083	0.948272
	N235	N	0.325784	0.415521	0.016268
	N236	N	0.973063	0.684872	0.395190
	N237	N	0.042276	0.686579	0.569593
	N238	N	0.973077	0.326271	0.568246
	N239	N	0.042373	0.325329	0.394769
	N240	N	0.973708	0.418841	0.662407
	N241	N	0.042739	0.593375	0.663157
	N242	N	0.973095	0.592148	0.301231
	N243	N	0.040923	0.416761	0.300116
	N244	N	0.420483	0.684696	0.947238
	N245	N	0.594426	0.685431	0.016462
	N246	N	0.594248	0.325642	0.946841
	N247	N	0.421849	0.325611	0.017552
	N248	N	0.687857	0.970923	0.394016
	N249	N	0.687448	0.039788	0.568109
	N250	N	0.326462	0.970959	0.568658
	N251	N	0.327643	0.040423	0.394043
	N252	N	0.919613	0.470264	0.162095
	N253	N	0.093378	0.540046	0.161014
	N254	N	0.095436	0.469958	0.801895
	N255	N	0.922426	0.540347	0.803608
	N256	N	0.187711	0.919159	0.446268
	N257	N	0.189252	0.094191	0.515988
	N258	N	0.827625	0.091920	0.446666
	N259	N	0.826412	0.917443	0.516003
	N260	N	0.472768	0.185860	0.893770
	N261	N	0.542796	0.183703	0.066776
	N262	N	0.472084	0.825671	0.067534
	N263	N	0.541290	0.823682	0.893224
	N264	N	0.473635	0.916358	0.163462
	N265	N	0.542515	0.091530	0.160712
	N266	N	0.472256	0.091849	0.800703
	N267	N	0.541463	0.916671	0.799995
	N268	N	0.921885	0.184529	0.446794
	N269	N	0.094598	0.185517	0.517295
	N270	N	0.094019	0.826274	0.446275
	N271	N	0.921468	0.826065	0.516997
	N272	N	0.188197	0.469816	0.894963
	N273	N	0.187933	0.539179	0.069748
	N274	N	0.826365	0.470786	0.069716
	N275	N	0.828898	0.540200	0.896133
	O276	O	-0.137961	1.138713	0.007464
	H277	H	-0.122767	1.131257	0.019179
	H278	H	-0.144190	1.141392	-0.019916
	O279	O	0.730202	0.286058	0.447163
	H280	H	0.727652	0.284129	0.422803
	H281	H	0.742136	0.264381	0.436125
	O282	O	1.006028	0.102465	0.849587
	H283	H	1.000058	0.107297	0.851981
	H284	H	0.990605	0.107671	0.849197
	O285	O	0.356246	0.679868	0.598660
	H286	H	0.350038	0.689196	0.613854
	H287	H	0.349634	0.681004	0.600346
	O288	O	0.563779	0.709135	0.376233
	H289	H	0.588646	0.710127	0.374251
	H290	H	0.555160	0.711276	0.406928
	O291	O	-0.023968	-0.205994	0.193711
	H292	H	-0.034725	-0.207723	0.199099
	H293	H	-0.035590	-0.211518	0.199226
	O294	O	1.062758	0.146803	0.830130
	H295	H	1.042080	0.139972	0.838221
	H296	H	1.068825	0.145367	0.821080
	O297	O	-0.047016	0.879715	0.823016
	H298	H	-0.040929	0.897631	0.827478
	H299	H	-0.032178	0.869217	0.816292
	O300	O	0.032325	-0.022711	1.070771
	H301	H	0.019790	-0.016367	1.071809
	H302	H	0.036364	-0.017610	1.063523
	O303	O	0.506597	0.558954	0.383997
	H304	H	0.510695	0.559144	0.372597
	H305	H	0.512952	0.567575	0.387501
	O306	O	0.288717	0.285757	0.509384
	H307	H	0.293900	0.296659	0.511200
	H308	H	0.263600	0.269089	0.513089
	O309	O	0.482177	0.289611	0.500364
	H310	H	0.477002	0.306169	0.501283
	H311	H	0.472335	0.284063	0.525226
	O312	O	0.597953	0.647371	0.525135
	H313	H	0.618868	0.669021	0.523245
	H314	H	0.599389	0.629608	0.523502
	O315	O	1.216822	0.832764	0.980267
	H316	H	1.206652	0.828927	0.978656
	H317	H	1.218233	0.826536	0.982841
	O318	O	0.732715	0.491648	0.288721
	H319	H	0.718019	0.495662	0.279032
	H320	H	0.745078	0.492252	0.265375
	O321	O	0.181695	1.194080	0.824144
	H322	H	0.189346	1.205284	0.833564
	H323	H	0.180174	1.187101	0.836313
	O324	O	1.070445	1.030753	0.204282
	H325	H	1.065131	1.024529	0.199392
	H326	H	1.061156	1.029859	0.213063
	O327	O	-0.209808	0.041316	0.768963
	H328	H	-0.218688	0.051284	0.755370
	H329	H	-0.215907	0.056441	0.761177
	O330	O	0.580869	0.472217	0.465006
	H331	H	0.581783	0.484849	0.446695
	H332	H	0.573795	0.482732	0.458878
	O333	O	0.400301	0.298436	0.362653
	H334	H	0.403030	0.323019	0.356417
	H335	H	0.395319	0.300402	0.388378
	O336	O	0.809910	0.221859	-0.047447
	H337	H	0.801269	0.228924	-0.057853
	H338	H	0.799639	0.228733	-0.063867
	O339	O	0.704740	-0.621761	0.681786
	H340	H	0.696680	-0.610654	0.655102
	H341	H	0.690505	-0.609455	0.679421
	O342	O	0.148660	0.124716	0.191939
	H343	H	0.145302	0.129507	0.200205
	H344	H	0.168214	0.108861	0.189213
	O345	O	0.304439	0.701175	1.282355
	H346	H	0.301714	0.718322	1.265043
	H347	H	0.334065	0.693641	1.298607
	O348	O	0.184776	0.071602	-0.049424
	H349	H	0.168344	0.065048	-0.044965
	H350	H	0.175898	0.063816	-0.055717
	O351	O	0.320130	0.363775	0.627519
	H352	H	0.323583	0.363643	0.607481
	H353	H	0.322174	0.393176	0.621300
	O354	O	-0.282164	0.301054	1.278554
	H355	H	-0.271107	0.310039	1.275235
	H356	H	-0.323386	0.307221	1.272552
	O357	O	0.282516	0.297904	0.261600
	H358	H	0.285499	0.317665	0.287004
	H359	H	0.272591	0.291531	0.262368
	O360	O	0.306315	0.461471	0.411936
	H361	H	0.312534	0.451930	0.409474
	H362	H	0.306952	0.475223	0.411514
	O363	O	0.005148	0.167230	0.199084
	H364	H	0.027613	0.185733	0.209057
	H365	H	0.018971	0.151393	0.199705
	O366	O	0.473553	0.443066	0.314603
	H367	H	0.464750	0.433650	0.316069
	H368	H	0.466168	0.445943	0.320608
	O369	O	1.207965	0.207789	0.090457
	H370	H	1.221828	0.201582	0.099857
	H371	H	1.203042	0.206372	0.085103
	O372	O	0.958342	1.220933	0.030893
	H373	H	0.944823	1.221399	0.018235
	H374	H	0.957186	1.229165	0.047940
	O375	O	0.804553	-0.200515	0.187160
	H376	H	0.813373	-0.203318	0.184603
	H377	H	0.797437	-0.177044	0.161829
	O378	O	0.741055	0.737662	0.609354
	H379	H	0.741809	0.741535	0.608028
	H380	H	0.749926	0.713823	0.615760
	O381	O	-0.215640	1.057992	1.016879
	H382	H	-0.211694	1.056218	1.013567
	H383	H	-0.216571	1.062245	1.022723
	O384	O	1.218443	-0.031679	0.776777
	H385	H	1.225250	-0.015928	0.762203
	H386	H	1.218096	-0.018764	0.780584
	O387	O	0.970890	1.223742	-0.239468
	H388	H	0.973936	1.216968	-0.239408
	H389	H	0.961490	1.244427	-0.263918
	O390	O	0.290704	0.496355	0.677221
	H391	H	0.295044	0.501786	0.668892
	H392	H	0.272460	0.492298	0.686865
	O393	O	0.666426	0.607823	0.614385
	H394	H	0.657535	0.603144	0.605755
	H395	H	0.674572	0.618478	0.622802
	O396	O	-0.150044	0.939431	0.936185
	H397	H	-0.147478	0.949518	0.929640
	H398	H	-0.152393	0.939462	0.933689
	O399	O	0.025897	-0.031380	0.881448
	H400	H	0.029123	-0.024426	0.869587
	H401	H	0.018128	-0.004053	0.887514
	O402	O	0.457724	0.595107	0.687507
	H403	H	0.450137	0.603247	0.690168
	H404	H	0.459343	0.597547	0.691069
	O405	O	1.144283	-0.139884	1.157696
	H406	H	1.140919	-0.131606	1.135529
	H407	H	1.120166	-0.136252	1.156421
	O408	O	0.073845	-0.209731	-0.002304
	H409	H	0.063134	-0.203395	-0.002982
	H410	H	0.062521	-0.208850	0.001747
	O411	O	0.540445	0.434691	0.695189
	H412	H	0.536647	0.431780	0.705713
	H413	H	0.527715	0.440328	0.691008
	O414	O	0.528920	0.723083	0.702065
	H415	H	0.531490	0.742302	0.720748
	H416	H	0.543803	0.718923	0.700567
	O417	O	-0.200117	0.967476	1.173886
	H418	H	-0.197630	0.974776	1.161505
	H419	H	-0.215554	0.963500	1.188128
	O420	O	-0.146943	1.108776	1.071807
	H421	H	-0.137972	1.112341	1.087646
	H422	H	-0.148550	1.125292	1.062632
	O423	O	0.044928	-0.207747	0.765048
	H424	H	0.051558	-0.206108	0.757989
	H425	H	0.054090	-0.223190	0.749721
	O426	O	0.624733	0.344660	0.562340
	H427	H	0.634883	0.342855	0.536098
	H428	H	0.621847	0.348509	0.551713
	O429	O	0.690849	0.618691	0.663941
	H430	H	0.692632	0.592607	0.651493
	H431	H	0.696882	0.620285	0.679007
	O432	O	0.531423	0.728065	0.581664
	H433	H	0.525668	0.739846	0.595820
	H434	H	0.511558	0.719782	0.581634
	O435	O	-0.203309	0.793419	0.016883
	H436	H	-0.198476	0.792686	0.002004
	H437	H	-0.214275	0.780025	0.011748
	O438	O	0.092370	-0.005140	-0.119047
	H439	H	0.075951	-0.011396	-0.118006
	H440	H	0.101110	0.004320	-0.120486
	O441	O	-0.101549	-0.179044	-0.156712
	H442	H	-0.091804	-0.165260	-0.149558
	H443	H	-0.100243	-0.187237	-0.149027
	O444	O	0.669230	0.601398	0.339323
	H445	H	0.673852	0.602441	0.350481
	H446	H	0.672165	0.595479	0.331681
	O447	O	0.445963	1.287636	1.703415
	H448	H	0.430765	1.284209	1.705053
	H449	H	0.442063	1.278450	1.722650
	O450	O	0.128153	1.019941	1.009834
	H451	H	0.132655	1.027588	1.015259
	H452	H	0.125728	1.034238	1.009580
	O453	O	0.718250	0.548509	0.455081
	H454	H	0.718399	0.536871	0.451169
	H455	H	0.719294	0.536187	0.441171
	O456	O	0.119811	0.132225	1.017466
	H457	H	0.105566	0.136270	1.025195
	H458	H	0.135560	0.149606	1.021983
	O459	O	0.509526	0.528020	0.482286
	H460	H	0.509161	0.543736	0.500668
	H461	H	0.511115	0.542588	0.472903
	O462	O	0.769616	0.241364	0.747704
	H463	H	0.759029	0.255721	0.724826
	H464	H	0.769246	0.248899	0.729817
	O465	O	1.039796	-0.075336	0.127745
	H466	H	1.032390	-0.067107	0.131429
	H467	H	1.035330	-0.078389	0.123015
	O468	O	0.283416	0.538873	0.260955
	H469	H	0.257475	0.550426	0.236412
	H470	H	0.295937	0.561005	0.267092
	O471	O	0.641721	0.458568	0.566661
	H472	H	0.647688	0.458962	0.552137
	H473	H	0.627415	0.442806	0.564809
	O474	O	0.284365	0.725731	0.452648
	H475	H	0.263953	0.745968	0.439697
	H476	H	0.282239	0.724744	0.444335
	O477	O	0.212027	0.801777	1.780291
	H478	H	0.202097	0.806170	1.802394
	H479	H	0.211572	0.836893	1.789990
	O480	O	0.541267	0.524624	0.255279
	H481	H	0.538132	0.545307	0.253572
	H482	H	0.523039	0.527809	0.253266
	O483	O	0.292072	0.605193	0.586882
	H484	H	0.282134	0.619825	0.594999
	H485	H	0.298477	0.606730	0.581154
	O486	O	1.476107	-0.280777	1.261448
	H487	H	1.481659	-0.274465	1.288035
	H488	H	1.484280	-0.249633	1.240139
	O489	O	1.551190	0.285050	0.261011
	H490	H	1.540415	0.266037	0.237464
	H491	H	1.536264	0.281734	0.279134
