data_Molecule from HDF5

_cell_length_a		16.348724
_cell_length_b		16.245469
_cell_length_c		16.257754
_cell_angle_alpha	90.093029
_cell_angle_beta	89.884893
_cell_angle_gamma	90.192482
_symmetry_space_group_name_H-M	'P 1'
_symmetry_Int_Tables_number		1

loop_
	_symmetry_equiv_pos_as_xyz
	x,y,z

loop_
	_atom_site_label
	_atom_site_type_symbol
	_atom_site_fract_x
	_atom_site_fract_y
	_atom_site_fract_z
	H0	H	0.407501	0.838124	0.719741
	H1	H	0.607678	0.166001	0.718883
	H2	H	0.606219	0.837658	0.287852
	H3	H	0.409742	0.165339	0.290084
	H4	H	0.724937	0.401002	0.842545
	H5	H	0.723934	0.604985	0.167572
	H6	H	0.292622	0.601302	0.841919
	H7	H	0.291493	0.400722	0.168504
	H8	H	0.845264	0.714726	0.407025
	H9	H	0.170409	0.717441	0.606048
	H10	H	0.844923	0.284547	0.606505
	H11	H	0.170674	0.285783	0.406015
	H12	H	0.845134	0.400596	0.722863
	H13	H	0.171706	0.599113	0.719466
	H14	H	0.845988	0.599995	0.289801
	H15	H	0.169826	0.399220	0.287962
	H16	H	0.409424	0.715543	0.840786
	H17	H	0.605893	0.717654	0.167862
	H18	H	0.606962	0.287531	0.841213
	H19	H	0.408033	0.286267	0.168507
	H20	H	0.723519	0.837576	0.402445
	H21	H	0.724924	0.164333	0.604358
	H22	H	0.290977	0.838307	0.604548
	H23	H	0.292789	0.165157	0.404256
	H24	H	0.908116	0.337246	0.219741
	H25	H	0.107461	0.664194	0.221192
	H26	H	0.106492	0.337725	0.791099
	H27	H	0.911709	0.665857	0.792464
	H28	H	0.222390	0.902103	0.340639
	H29	H	0.223787	0.101028	0.668392
	H30	H	0.795193	0.099961	0.341235
	H31	H	0.790451	0.900075	0.667592
	H32	H	0.344386	0.216770	0.906414
	H33	H	0.670845	0.218293	0.104299
	H34	H	0.344663	0.787679	0.102427
	H35	H	0.670393	0.787079	0.903729
	H36	H	0.344690	0.903020	0.218404
	H37	H	0.670296	0.102316	0.220454
	H38	H	0.344668	0.102212	0.788082
	H39	H	0.670522	0.903795	0.788429
	H40	H	0.909995	0.216146	0.342010
	H41	H	0.106354	0.215108	0.669883
	H42	H	0.107434	0.785095	0.341631
	H43	H	0.909767	0.787858	0.669965
	H44	H	0.223078	0.338431	0.905517
	H45	H	0.224421	0.664676	0.107212
	H46	H	0.789182	0.339616	0.106808
	H47	H	0.794260	0.665728	0.905847
	H48	H	0.416109	0.117970	0.595952
	H49	H	0.593054	0.888858	0.591315
	H50	H	0.590762	0.111485	0.418552
	H51	H	0.415205	0.886757	0.416767
	H52	H	0.596329	0.404995	0.122185
	H53	H	0.598970	0.594154	0.888752
	H54	H	0.415610	0.594714	0.121373
	H55	H	0.413969	0.419605	0.891483
	H56	H	0.123877	0.589356	0.409630
	H57	H	0.891098	0.594757	0.604049
	H58	H	0.121307	0.415545	0.601659
	H59	H	0.890224	0.413254	0.402993
	H60	H	0.126710	0.403042	0.603473
	H61	H	0.891777	0.596775	0.597701
	H62	H	0.125639	0.598241	0.413111
	H63	H	0.890540	0.397588	0.417202
	H64	H	0.414715	0.594999	0.121938
	H65	H	0.603385	0.595310	0.887324
	H66	H	0.605697	0.411719	0.122789
	H67	H	0.423826	0.403722	0.890361
	H68	H	0.611958	0.118280	0.420138
	H69	H	0.606990	0.884066	0.592645
	H70	H	0.416779	0.117103	0.594917
	H71	H	0.408521	0.882994	0.410217
	H72	H	0.923326	0.619731	0.108721
	H73	H	0.104979	0.383699	0.094610
	H74	H	0.108570	0.621206	0.910594
	H75	H	0.917617	0.385969	0.912983
	H76	H	0.102519	0.905635	0.623599
	H77	H	0.096615	0.090124	0.391201
	H78	H	0.917028	0.092974	0.621620
	H79	H	0.913649	0.901006	0.386379
	H80	H	0.623009	0.094676	0.908616
	H81	H	0.394580	0.097041	0.088237
	H82	H	0.622885	0.912571	0.095947
	H83	H	0.387474	0.896560	0.909428
	H84	H	0.624389	0.910149	0.097751
	H85	H	0.393612	0.085368	0.102862
	H86	H	0.623425	0.097234	0.913396
	H87	H	0.396741	0.912439	0.923433
	H88	H	0.913085	0.095321	0.623303
	H89	H	0.100018	0.099480	0.387651
	H90	H	0.103720	0.911828	0.621176
	H91	H	0.911599	0.914011	0.388983
	H92	H	0.096920	0.618259	0.908541
	H93	H	0.101084	0.383258	0.101879
	H94	H	0.921063	0.612613	0.088659
	H95	H	0.915755	0.386750	0.918309
	H96	H	0.415411	0.117274	0.594186
	H97	H	0.597775	0.884509	0.604108
	H98	H	0.601057	0.121135	0.400791
	H99	H	0.418227	0.884166	0.406786
	H100	H	0.596198	0.416595	0.118869
	H101	H	0.603025	0.591479	0.888191
	H102	H	0.414782	0.594386	0.121742
	H103	H	0.405924	0.404347	0.884257
	H104	H	0.121660	0.591951	0.418293
	H105	H	0.892988	0.590729	0.598989
	H106	H	0.121679	0.406831	0.591046
	H107	H	0.898049	0.416562	0.422426
	H108	H	0.904614	0.621692	0.099055
	H109	H	0.097015	0.386595	0.095099
	H110	H	0.101918	0.616313	0.919613
	H111	H	0.912506	0.384098	0.914237
	H112	H	0.097627	0.909578	0.620231
	H113	H	0.106199	0.091570	0.387308
	H114	H	0.912956	0.090908	0.621209
	H115	H	0.922820	0.908131	0.391864
	H116	H	0.621079	0.092239	0.913480
	H117	H	0.387790	0.102645	0.104505
	H118	H	0.622735	0.909402	0.094745
	H119	H	0.391058	0.917810	0.901543
	C120	C	0.386309	0.009797	0.625080
	C121	C	0.629381	0.993453	0.625735
	C122	C	0.629874	0.009064	0.382935
	C123	C	0.386038	0.992947	0.382713
	C124	C	0.629392	0.381096	0.013480
	C125	C	0.629944	0.623634	0.995981
	C126	C	0.386513	0.623157	0.013534
	C127	C	0.385690	0.380069	0.996794
	C128	C	0.016439	0.622387	0.384385
	C129	C	0.999771	0.623063	0.628320
	C130	C	0.016072	0.378783	0.628399
	C131	C	0.999730	0.378950	0.384315
	C132	C	0.886365	0.510208	0.127703
	C133	C	0.129531	0.492620	0.126619
	C134	C	0.130154	0.510436	0.884249
	C135	C	0.886972	0.493782	0.885183
	C136	C	0.129695	0.879695	0.513342
	C137	C	0.129616	0.122770	0.497107
	C138	C	0.886666	0.122029	0.513724
	C139	C	0.886432	0.878956	0.496751
	C140	C	0.515269	0.123845	0.882592
	C141	C	0.499683	0.124162	0.127152
	C142	C	0.515642	0.880952	0.125136
	C143	C	0.499196	0.880076	0.881901
	C144	C	0.387502	0.886854	0.681350
	C145	C	0.627887	0.116589	0.681111
	C146	C	0.626973	0.886357	0.326077
	C147	C	0.389288	0.116449	0.328053
	C148	C	0.686081	0.382057	0.891089
	C149	C	0.685549	0.623835	0.118928
	C150	C	0.330958	0.621334	0.890538
	C151	C	0.330129	0.381588	0.119624
	C152	C	0.894273	0.677317	0.386517
	C153	C	0.122031	0.678858	0.625913
	C154	C	0.893493	0.323103	0.626285
	C155	C	0.122049	0.323314	0.386003
	C156	C	0.893651	0.380728	0.684337
	C157	C	0.122495	0.620062	0.682514
	C158	C	0.894459	0.620041	0.328320
	C159	C	0.121783	0.379781	0.327148
	C160	C	0.389050	0.677956	0.889918
	C161	C	0.627140	0.680297	0.118738
	C162	C	0.627484	0.325263	0.890540
	C163	C	0.388042	0.324433	0.119706
	C164	C	0.685158	0.886250	0.383194
	C165	C	0.686203	0.115845	0.624233
	C166	C	0.329609	0.887013	0.624053
	C167	C	0.330710	0.116190	0.384414
	C168	C	0.887315	0.386642	0.182693
	C169	C	0.127933	0.615719	0.183433
	C170	C	0.126909	0.386816	0.828874
	C171	C	0.890580	0.616752	0.829863
	C172	C	0.184637	0.881712	0.389822
	C173	C	0.185459	0.121121	0.619907
	C174	C	0.832634	0.120154	0.390249
	C175	C	0.829394	0.880415	0.619277
	C176	C	0.393045	0.179293	0.885428
	C177	C	0.622064	0.180126	0.124541
	C178	C	0.393621	0.825101	0.123225
	C179	C	0.621583	0.824823	0.883475
	C180	C	0.393616	0.882718	0.180831
	C181	C	0.621817	0.122541	0.182525
	C182	C	0.392995	0.121925	0.827014
	C183	C	0.621697	0.883073	0.826181
	C184	C	0.889572	0.178182	0.390759
	C185	C	0.127160	0.177796	0.620598
	C186	C	0.127697	0.823344	0.390527
	C187	C	0.888778	0.824806	0.620623
	C188	C	0.185018	0.387189	0.885706
	C189	C	0.185796	0.615940	0.126341
	C190	C	0.828546	0.387821	0.126302
	C191	C	0.832416	0.616921	0.886579
	C192	C	0.409357	0.095371	0.601951
	C193	C	0.606054	0.907926	0.602705
	C194	C	0.607694	0.094748	0.406345
	C195	C	0.407547	0.906893	0.404819
	C196	C	0.606145	0.404389	0.099190
	C197	C	0.608209	0.600445	0.910398
	C198	C	0.408391	0.601192	0.099271
	C199	C	0.407993	0.402565	0.910850
	C200	C	0.101752	0.599792	0.406955
	C201	C	0.913962	0.600672	0.606604
	C202	C	0.101235	0.401691	0.605409
	C203	C	0.915057	0.402259	0.407490
	C204	C	0.909515	0.595838	0.105332
	C205	C	0.107552	0.406932	0.103879
	C206	C	0.108828	0.596359	0.906462
	C207	C	0.908783	0.407864	0.908432
	C208	C	0.107880	0.902433	0.599392
	C209	C	0.107446	0.100325	0.411036
	C210	C	0.907936	0.099592	0.599775
	C211	C	0.909338	0.901238	0.411262
	C212	C	0.600314	0.101203	0.905120
	C213	C	0.414006	0.101563	0.104893
	C214	C	0.601312	0.904034	0.102622
	C215	C	0.413793	0.902369	0.904948
	Zn216	Zn	0.507289	0.002167	0.753572
	Zn217	Zn	0.507927	0.001558	0.254985
	Zn218	Zn	0.758053	0.502643	0.005721
	Zn219	Zn	0.258081	0.501856	0.005448
	Zn220	Zn	0.008107	0.751070	0.506026
	Zn221	Zn	0.008417	0.250385	0.506230
	Zn222	Zn	0.007945	0.501436	0.756716
	Zn223	Zn	0.008348	0.500473	0.255244
	Zn224	Zn	0.507900	0.751299	0.004163
	Zn225	Zn	0.507715	0.252627	0.005090
	Zn226	Zn	0.758564	0.000717	0.504276
	Zn227	Zn	0.257842	0.001889	0.504228
	N228	N	0.422062	0.964166	0.681956
	N229	N	0.593250	0.039438	0.682058
	N230	N	0.593497	0.963959	0.325624
	N231	N	0.422755	0.038896	0.326700
	N232	N	0.687269	0.416248	0.968612
	N233	N	0.687554	0.589249	0.041654
	N234	N	0.329356	0.587789	0.968190
	N235	N	0.328581	0.415232	0.042104
	N236	N	0.971122	0.678776	0.420542
	N237	N	0.044621	0.680802	0.592898
	N238	N	0.970590	0.321956	0.592154
	N239	N	0.045324	0.322698	0.420862
	N240	N	0.970813	0.414665	0.685787
	N241	N	0.045332	0.585953	0.683930
	N242	N	0.971733	0.586671	0.326731
	N243	N	0.044754	0.413701	0.325766
	N244	N	0.422938	0.679343	0.967288
	N245	N	0.593293	0.680305	0.041416
	N246	N	0.593004	0.324623	0.967782
	N247	N	0.421984	0.323345	0.042187
	N248	N	0.687114	0.963570	0.417845
	N249	N	0.687301	0.038155	0.590359
	N250	N	0.328951	0.964274	0.589614
	N251	N	0.328615	0.038357	0.417912
	N252	N	0.922497	0.463562	0.183601
	N253	N	0.093482	0.538288	0.183605
	N254	N	0.093610	0.464482	0.827583
	N255	N	0.923818	0.539134	0.829064
	N256	N	0.186006	0.916041	0.467327
	N257	N	0.187061	0.087774	0.542022
	N258	N	0.830698	0.086278	0.467725
	N259	N	0.827864	0.913440	0.541452
	N260	N	0.470091	0.180570	0.919365
	N261	N	0.544879	0.181303	0.090997
	N262	N	0.470678	0.823852	0.089236
	N263	N	0.544435	0.822918	0.917405
	N264	N	0.470737	0.916987	0.181846
	N265	N	0.544579	0.088723	0.184381
	N266	N	0.470015	0.088471	0.825011
	N267	N	0.544402	0.916610	0.825016
	N268	N	0.922500	0.179573	0.468593
	N269	N	0.093101	0.178834	0.543321
	N270	N	0.094325	0.822024	0.468341
	N271	N	0.923433	0.823563	0.543495
	N272	N	0.187135	0.464759	0.919388
	N273	N	0.187184	0.538478	0.092088
	N274	N	0.827586	0.465668	0.092908
	N275	N	0.830092	0.539303	0.920248
	O276	O	0.005781	-0.019747	-0.034617
	H277	H	0.002644	-0.020199	-0.038884
	H278	H	0.012167	-0.018470	-0.040574
	O279	O	0.587768	0.591388	0.595143
	H280	H	0.593416	0.577251	0.589938
	H281	H	0.572662	0.600217	0.608444
	O282	O	0.420388	0.433084	0.460088
	H283	H	0.434472	0.434011	0.459047
	H284	H	0.419013	0.432677	0.457321
	O285	O	0.998245	-0.042871	1.010056
	H286	H	1.003698	-0.045956	1.006927
	H287	H	0.989489	-0.051099	1.013302
	O288	O	0.990121	0.030605	0.050611
	H289	H	0.981788	0.028815	0.054731
	H290	H	0.990181	0.026384	0.053041
	O291	O	0.569110	0.456601	0.473754
	H292	H	0.567343	0.451608	0.476211
	H293	H	0.571239	0.454189	0.480201
	O294	O	1.440879	0.604906	0.507022
	H295	H	1.442617	0.610769	0.495292
	H296	H	1.451670	0.614201	0.510663
	O297	O	-0.016526	0.044164	0.025615
	H298	H	-0.018146	0.046819	0.030316
	H299	H	-0.006798	0.058766	0.024278
	O300	O	0.589998	0.409804	0.395623
	H301	H	0.593780	0.404084	0.404433
	H302	H	0.592448	0.387234	0.394516
	O303	O	0.504860	0.447903	0.442633
	H304	H	0.494434	0.436173	0.452873
	H305	H	0.510476	0.451207	0.439895
	O306	O	1.025268	0.035671	0.008587
	H307	H	1.023759	0.033946	0.009751
	H308	H	1.034651	0.048909	0.010441
	O309	O	-0.006091	0.053977	1.029977
	H310	H	-0.015788	0.050129	1.026025
	H311	H	-0.004227	0.049224	1.033963
	O312	O	0.981367	1.005116	1.050313
	H313	H	0.980376	1.002431	1.044407
	H314	H	0.975410	1.006106	1.054464
	O315	O	0.581339	0.510013	0.447184
	H316	H	0.574062	0.501007	0.451537
	H317	H	0.574625	0.507772	0.436882
	O318	O	0.363795	0.511423	0.407433
	H319	H	0.358666	0.513906	0.401203
	H320	H	0.374064	0.511411	0.409164
	O321	O	-0.025382	1.018353	0.968264
	H322	H	-0.025451	1.013829	0.971440
	H323	H	-0.018460	1.013804	0.968463
	O324	O	0.563732	0.452765	0.485707
	H325	H	0.549388	0.460782	0.486016
	H326	H	0.560521	0.459313	0.484723
	O327	O	0.422796	0.445933	0.566090
	H328	H	0.412613	0.458122	0.552649
	H329	H	0.415661	0.434600	0.563942
	O330	O	0.606083	0.561967	0.610497
	H331	H	0.608623	0.562736	0.609310
	H332	H	0.596678	0.570104	0.598412
	O333	O	0.541135	0.640536	0.533649
	H334	H	0.548092	0.645861	0.529998
	H335	H	0.542277	0.621805	0.537884
	O336	O	0.654575	0.470161	0.513846
	H337	H	0.672400	0.472878	0.505264
	H338	H	0.645663	0.473001	0.507899
	O339	O	0.932432	1.067338	0.013605
	H340	H	0.925790	1.074863	0.006529
	H341	H	0.939639	1.070111	0.005438
	O342	O	0.431265	0.395634	0.630449
	H343	H	0.415718	0.408080	0.632792
	H344	H	0.421864	0.394191	0.635179
	O345	O	0.576135	0.506698	0.564333
	H346	H	0.578139	0.503875	0.569630
	H347	H	0.577000	0.514768	0.570852
	O348	O	0.012810	-0.023302	0.056166
	H349	H	0.009845	-0.021574	0.056874
	H350	H	0.009393	-0.026910	0.062687
	O351	O	-0.565720	0.456461	0.466280
	H352	H	-0.560641	0.449632	0.459327
	H353	H	-0.568520	0.470293	0.469410
	O354	O	0.561436	0.533543	0.403412
	H355	H	0.564183	0.531412	0.405232
	H356	H	0.575206	0.533005	0.411164
	O357	O	-0.598484	1.492840	0.496023
	H358	H	-0.595412	1.487851	0.502998
	H359	H	-0.589309	1.490017	0.502012
