data_Molecule from HDF5

_cell_length_a		16.343669
_cell_length_b		16.368195
_cell_length_c		16.206804
_cell_angle_alpha	89.984036
_cell_angle_beta	89.521376
_cell_angle_gamma	90.092844
_symmetry_space_group_name_H-M	'P 1'
_symmetry_Int_Tables_number		1

loop_
	_symmetry_equiv_pos_as_xyz
	x,y,z

loop_
	_atom_site_label
	_atom_site_type_symbol
	_atom_site_fract_x
	_atom_site_fract_y
	_atom_site_fract_z
	H0	H	0.396781	0.845909	0.728547
	H1	H	0.596900	0.171103	0.729042
	H2	H	0.596502	0.846383	0.297341
	H3	H	0.398188	0.171361	0.298171
	H4	H	0.715624	0.408158	0.851421
	H5	H	0.712877	0.611056	0.176816
	H6	H	0.285283	0.609185	0.849153
	H7	H	0.279791	0.409774	0.176691
	H8	H	0.835726	0.727263	0.412380
	H9	H	0.159750	0.726384	0.610365
	H10	H	0.836856	0.290261	0.617560
	H11	H	0.159007	0.291562	0.407395
	H12	H	0.835468	0.409499	0.730708
	H13	H	0.160643	0.610719	0.726517
	H14	H	0.834514	0.609707	0.299946
	H15	H	0.160143	0.412980	0.295862
	H16	H	0.397996	0.725540	0.850498
	H17	H	0.596540	0.724574	0.177121
	H18	H	0.599978	0.292945	0.850557
	H19	H	0.394279	0.292970	0.177050
	H20	H	0.714761	0.847419	0.411310
	H21	H	0.716407	0.169781	0.616844
	H22	H	0.278701	0.847306	0.615068
	H23	H	0.278981	0.170219	0.410078
	H24	H	0.895431	0.348647	0.231594
	H25	H	0.095165	0.673326	0.226602
	H26	H	0.098440	0.347689	0.795611
	H27	H	0.900918	0.672736	0.799881
	H28	H	0.214422	0.909113	0.349644
	H29	H	0.211446	0.109363	0.676331
	H30	H	0.781735	0.109966	0.350252
	H31	H	0.780111	0.907486	0.676342
	H32	H	0.335679	0.226199	0.912831
	H33	H	0.658276	0.228465	0.115928
	H34	H	0.334480	0.792606	0.114862
	H35	H	0.659379	0.792125	0.910997
	H36	H	0.334458	0.909431	0.230631
	H37	H	0.660676	0.107410	0.226210
	H38	H	0.334401	0.106751	0.800833
	H39	H	0.659019	0.909045	0.795598
	H40	H	0.896806	0.226596	0.350311
	H41	H	0.099399	0.227073	0.675019
	H42	H	0.097327	0.795142	0.348556
	H43	H	0.896852	0.793849	0.676588
	H44	H	0.216093	0.348178	0.909760
	H45	H	0.213214	0.672028	0.111208
	H46	H	0.778292	0.348245	0.117150
	H47	H	0.780340	0.671259	0.912628
	H48	H	0.403557	0.124866	0.604136
	H49	H	0.586452	0.895426	0.600877
	H50	H	0.584432	0.125243	0.413016
	H51	H	0.404526	0.894674	0.424117
	H52	H	0.588302	0.411449	0.132007
	H53	H	0.589306	0.593130	0.900409
	H54	H	0.395565	0.606506	0.134203
	H55	H	0.401782	0.418647	0.896431
	H56	H	0.112688	0.599117	0.416491
	H57	H	0.883186	0.605533	0.598918
	H58	H	0.114512	0.417350	0.606262
	H59	H	0.884462	0.422570	0.424560
	H60	H	0.112336	0.414331	0.599056
	H61	H	0.883409	0.594292	0.608618
	H62	H	0.114632	0.607322	0.416680
	H63	H	0.880923	0.415882	0.419984
	H64	H	0.402159	0.591076	0.127778
	H65	H	0.582491	0.605161	0.897974
	H66	H	0.591920	0.422680	0.130582
	H67	H	0.411095	0.420357	0.899312
	H68	H	0.586913	0.120953	0.430127
	H69	H	0.591710	0.893247	0.602836
	H70	H	0.401946	0.124975	0.606647
	H71	H	0.403702	0.893171	0.421377
	H72	H	0.905348	0.625556	0.106997
	H73	H	0.085222	0.397776	0.100315
	H74	H	0.100011	0.627769	0.920078
	H75	H	0.911913	0.396199	0.921123
	H76	H	0.089214	0.921079	0.628462
	H77	H	0.093370	0.096039	0.396420
	H78	H	0.904161	0.109806	0.632865
	H79	H	0.902342	0.908878	0.392315
	H80	H	0.610498	0.103657	0.929727
	H81	H	0.378483	0.104725	0.117069
	H82	H	0.609778	0.921818	0.104529
	H83	H	0.380182	0.906804	0.926108
	H84	H	0.615503	0.912548	0.110716
	H85	H	0.383271	0.108969	0.095932
	H86	H	0.611079	0.093495	0.918111
	H87	H	0.385776	0.921559	0.928199
	H88	H	0.898042	0.092345	0.629168
	H89	H	0.083098	0.098059	0.398883
	H90	H	0.083625	0.915736	0.628230
	H91	H	0.900664	0.926126	0.397135
	H92	H	0.088614	0.625962	0.912604
	H93	H	0.093272	0.393559	0.102493
	H94	H	0.903943	0.624137	0.103757
	H95	H	0.904833	0.396481	0.929318
	H96	H	0.404624	0.123540	0.606749
	H97	H	0.586649	0.894341	0.606442
	H98	H	0.600100	0.127482	0.420117
	H99	H	0.406509	0.894744	0.421569
	H100	H	0.580964	0.419457	0.126985
	H101	H	0.596730	0.603553	0.894849
	H102	H	0.413787	0.605363	0.129683
	H103	H	0.408502	0.412007	0.895511
	H104	H	0.112348	0.603210	0.423978
	H105	H	0.878180	0.607180	0.613087
	H106	H	0.110849	0.421567	0.601241
	H107	H	0.883569	0.415141	0.427969
	H108	H	0.901940	0.625755	0.106188
	H109	H	0.086312	0.393801	0.109142
	H110	H	0.088282	0.622737	0.925790
	H111	H	0.902390	0.392063	0.919826
	H112	H	0.090552	0.914162	0.631117
	H113	H	0.089808	0.105435	0.394295
	H114	H	0.915751	0.097125	0.625054
	H115	H	0.916204	0.917772	0.399847
	H116	H	0.615522	0.107813	0.916447
	H117	H	0.385979	0.089612	0.103954
	H118	H	0.612536	0.911170	0.098899
	H119	H	0.379757	0.917309	0.914306
	C120	C	0.373655	0.017304	0.635834
	C121	C	0.618331	1.000969	0.634174
	C122	C	0.619716	0.017426	0.391070
	C123	C	0.375664	1.000940	0.391981
	C124	C	0.618256	0.388006	0.022516
	C125	C	0.618668	0.630473	1.005459
	C126	C	0.376123	0.630410	0.022165
	C127	C	0.376004	0.387421	1.004931
	C128	C	0.005998	0.632521	0.390894
	C129	C	0.989472	0.631373	0.634325
	C130	C	0.005861	0.387696	0.634164
	C131	C	0.989449	0.388428	0.391794
	C132	C	0.874076	0.518409	0.136243
	C133	C	0.117462	0.502070	0.133176
	C134	C	0.121535	0.518308	0.889556
	C135	C	0.876773	0.501840	0.892974
	C136	C	0.118223	0.887941	0.521224
	C137	C	0.118419	0.130042	0.504206
	C138	C	0.876248	0.130323	0.521576
	C139	C	0.875700	0.887260	0.504012
	C140	C	0.505486	0.130881	0.892229
	C141	C	0.489153	0.130660	0.135073
	C142	C	0.505568	0.886606	0.135346
	C143	C	0.488750	0.886270	0.892056
	C144	C	0.376152	0.895127	0.691166
	C145	C	0.616953	0.122590	0.690834
	C146	C	0.617397	0.895494	0.334718
	C147	C	0.377812	0.122895	0.336030
	C148	C	0.676488	0.388345	0.899879
	C149	C	0.674259	0.629727	0.128076
	C150	C	0.322313	0.628919	0.898459
	C151	C	0.318062	0.389035	0.127739
	C152	C	0.884165	0.689073	0.392554
	C153	C	0.111375	0.688085	0.631300
	C154	C	0.884927	0.329582	0.636019
	C155	C	0.110811	0.330997	0.389597
	C156	C	0.884281	0.388920	0.692284
	C157	C	0.111873	0.630205	0.688735
	C158	C	0.883498	0.630526	0.336496
	C159	C	0.111563	0.391084	0.333838
	C160	C	0.378362	0.686972	0.899281
	C161	C	0.616911	0.686844	0.128167
	C162	C	0.618930	0.331086	0.899771
	C163	C	0.375093	0.331088	0.127867
	C164	C	0.675967	0.895762	0.391711
	C165	C	0.676399	0.121965	0.634944
	C166	C	0.317371	0.895772	0.634500
	C167	C	0.318570	0.122270	0.391828
	C168	C	0.875186	0.396937	0.193319
	C169	C	0.115154	0.624646	0.188197
	C170	C	0.119109	0.396298	0.833492
	C171	C	0.879742	0.624129	0.837714
	C172	C	0.175374	0.889711	0.398221
	C173	C	0.174171	0.129282	0.627166
	C174	C	0.820238	0.129481	0.398822
	C175	C	0.818546	0.887995	0.627159
	C176	C	0.383919	0.187407	0.893401
	C177	C	0.610419	0.188654	0.134675
	C178	C	0.383056	0.831004	0.134662
	C179	C	0.610823	0.830549	0.891960
	C180	C	0.383231	0.888797	0.192384
	C181	C	0.611612	0.128460	0.189609
	C182	C	0.383184	0.127909	0.837721
	C183	C	0.610716	0.888553	0.834458
	C184	C	0.877282	0.187462	0.399006
	C185	C	0.118127	0.187678	0.626547
	C186	C	0.117644	0.832585	0.397687
	C187	C	0.876521	0.831345	0.627354
	C188	C	0.177490	0.396428	0.890416
	C189	C	0.173779	0.624030	0.131133
	C190	C	0.817323	0.396813	0.136033
	C191	C	0.819340	0.623030	0.893292
	C192	C	0.396870	0.102524	0.612794
	C193	C	0.595148	0.916373	0.610366
	C194	C	0.597180	0.102325	0.414383
	C195	C	0.398365	0.916246	0.415465
	C196	C	0.594265	0.411261	0.107777
	C197	C	0.596083	0.607406	0.919949
	C198	C	0.397638	0.607680	0.108090
	C199	C	0.400160	0.410386	0.919327
	C200	C	0.091241	0.609794	0.412674
	C201	C	0.903764	0.608947	0.613114
	C202	C	0.090577	0.411031	0.609413
	C203	C	0.904889	0.411244	0.416853
	C204	C	0.896900	0.603217	0.112460
	C205	C	0.094910	0.417116	0.110613
	C206	C	0.098926	0.603432	0.912677
	C207	C	0.899798	0.416886	0.916516
	C208	C	0.094646	0.910353	0.606946
	C209	C	0.095435	0.106565	0.418940
	C210	C	0.899176	0.106530	0.606937
	C211	C	0.899441	0.910698	0.418597
	C212	C	0.590554	0.108300	0.914791
	C213	C	0.404643	0.107636	0.112368
	C214	C	0.590793	0.908639	0.111605
	C215	C	0.403826	0.908678	0.915933
	Zn216	Zn	0.496821	0.008906	0.763641
	Zn217	Zn	0.497239	0.009097	0.263341
	Zn218	Zn	0.746534	0.509438	0.013712
	Zn219	Zn	0.248532	0.509325	0.012667
	Zn220	Zn	-0.002952	0.759749	0.512261
	Zn221	Zn	-0.002240	0.258363	0.512885
	Zn222	Zn	-0.001817	0.509923	0.763261
	Zn223	Zn	-0.003371	0.510492	0.263265
	Zn224	Zn	0.497300	0.757631	0.013703
	Zn225	Zn	0.497317	0.259674	0.013707
	Zn226	Zn	0.748190	0.008891	0.513237
	Zn227	Zn	0.246317	0.009444	0.512816
	N228	N	0.410513	0.971909	0.692221
	N229	N	0.581434	0.046413	0.690508
	N230	N	0.583233	0.972284	0.334098
	N231	N	0.412493	0.046305	0.335772
	N232	N	0.676470	0.422881	0.977167
	N233	N	0.675515	0.595364	0.050732
	N234	N	0.320727	0.594243	0.975775
	N235	N	0.318279	0.423317	0.050133
	N236	N	0.961379	0.690402	0.425626
	N237	N	0.034341	0.688817	0.598211
	N238	N	0.961631	0.328729	0.600596
	N239	N	0.033916	0.329196	0.424730
	N240	N	0.960768	0.424253	0.691372
	N241	N	0.035168	0.595494	0.690814
	N242	N	0.960089	0.595919	0.335404
	N243	N	0.035041	0.425669	0.334812
	N244	N	0.411187	0.687952	0.977127
	N245	N	0.582730	0.687190	0.050885
	N246	N	0.583384	0.330767	0.976959
	N247	N	0.410041	0.329758	0.050474
	N248	N	0.677673	0.972561	0.426029
	N249	N	0.677328	0.045196	0.600460
	N250	N	0.315675	0.972961	0.600976
	N251	N	0.317248	0.045501	0.425934
	N252	N	0.909495	0.473463	0.193711
	N253	N	0.080895	0.547809	0.189626
	N254	N	0.085375	0.473159	0.832663
	N255	N	0.914704	0.547671	0.837470
	N256	N	0.175953	0.923272	0.476029
	N257	N	0.174710	0.094300	0.550015
	N258	N	0.819278	0.094878	0.476151
	N259	N	0.818013	0.922180	0.549582
	N260	N	0.460969	0.189367	0.926511
	N261	N	0.533248	0.190468	0.101587
	N262	N	0.460137	0.829151	0.100106
	N263	N	0.533913	0.828865	0.926957
	N264	N	0.460334	0.922565	0.193030
	N265	N	0.535258	0.093168	0.190043
	N266	N	0.459942	0.093551	0.836620
	N267	N	0.533838	0.922491	0.834327
	N268	N	0.911454	0.187861	0.476309
	N269	N	0.084275	0.188524	0.549114
	N270	N	0.082639	0.831445	0.475080
	N271	N	0.911302	0.830664	0.549851
	N272	N	0.179181	0.473307	0.924621
	N273	N	0.175436	0.546864	0.097443
	N274	N	0.816311	0.473597	0.101409
	N275	N	0.817532	0.545839	0.926954
	O276	O	1.160100	0.038728	1.134646
	H277	H	1.165912	0.045696	1.133258
	H278	H	1.158659	0.041564	1.142404
	O279	O	0.011262	1.082485	0.013760
	H280	H	0.005896	1.078550	0.010046
	H281	H	0.010598	1.093334	0.014904
	O282	O	0.493769	0.509732	0.455237
	H283	H	0.501086	0.509135	0.454549
	H284	H	0.493066	0.515925	0.448302
	O285	O	0.460613	0.606885	0.380699
	H286	H	0.465957	0.599322	0.378647
	H287	H	0.457776	0.612564	0.381683
	O288	O	0.415576	0.437941	0.633384
	H289	H	0.409930	0.446531	0.630828
	H290	H	0.415259	0.434352	0.646744
	O291	O	-0.473638	0.415414	0.518661
	H292	H	-0.463707	0.402649	0.537843
	H293	H	-0.478852	0.413665	0.521941
	O294	O	1.566047	0.446924	-0.572408
	H295	H	1.582367	0.453566	-0.565089
	H296	H	1.571272	0.441774	-0.565872
	O297	O	0.966930	1.096970	-0.035670
	H298	H	0.959727	1.098126	-0.040003
	H299	H	0.952967	1.097749	-0.028753
	O300	O	0.565504	0.563338	0.464720
	H301	H	0.564562	0.565374	0.466176
	H302	H	0.562502	0.556134	0.461258
	O303	O	0.339103	0.439966	0.645193
	H304	H	0.336078	0.439691	0.648336
	H305	H	0.331822	0.446966	0.639484
	O306	O	0.451943	0.537043	0.496811
	H307	H	0.458190	0.538636	0.497629
	H308	H	0.456993	0.534696	0.501310
	O309	O	0.597541	0.394299	0.446141
	H310	H	0.590947	0.380767	0.449124
	H311	H	0.602835	0.385551	0.451995
	O312	O	0.958369	1.098958	1.075819
	H313	H	0.963565	1.098472	1.077375
	H314	H	0.975083	1.089373	1.071358
	O315	O	0.526135	0.538248	0.655283
	H316	H	0.524208	0.536760	0.647174
	H317	H	0.531476	0.548000	0.667235
	O318	O	0.383209	0.559319	0.425659
	H319	H	0.378989	0.561163	0.431190
	H320	H	0.381773	0.564805	0.419130
	O321	O	0.519777	0.548674	0.638364
	H322	H	0.523138	0.546932	0.648195
	H323	H	0.519003	0.565592	0.647779
	O324	O	-0.040089	0.949119	1.044620
	H325	H	-0.036636	0.939605	1.034591
	H326	H	-0.047046	0.948738	1.044174
	O327	O	-0.056408	1.055931	1.044434
	H328	H	-0.069665	1.052266	1.039455
	H329	H	-0.051042	1.066321	1.069325
	O330	O	-0.014907	-0.104251	-0.009555
	H331	H	-0.011839	-0.106092	0.000361
	H332	H	-0.012261	-0.102022	-0.023451
	O333	O	0.395018	0.544192	0.470995
	H334	H	0.382761	0.540271	0.464273
	H335	H	0.404258	0.547213	0.469278
	O336	O	-0.033870	0.001736	-0.043471
	H337	H	-0.033006	-0.004352	-0.037775
	H338	H	-0.033064	0.004487	-0.051786
	O339	O	0.033157	-0.009119	0.095080
	H340	H	0.025711	-0.016941	0.093563
	H341	H	0.045173	-0.002784	0.096142
	O342	O	0.467690	0.518728	0.425272
	H343	H	0.462122	0.519225	0.424798
	H344	H	0.466304	0.528204	0.425424
	O345	O	-0.039500	1.057551	0.990510
	H346	H	-0.040961	1.063974	0.993981
	H347	H	-0.040684	1.067134	0.987172
	O348	O	1.019319	-0.006582	-0.103492
	H349	H	1.024575	-0.011901	-0.095017
	H350	H	1.009989	0.001606	-0.102232
	O351	O	0.543651	0.509075	0.575225
	H352	H	0.536670	0.503549	0.585257
	H353	H	0.543239	0.509046	0.563769
	O354	O	0.086316	1.030427	-0.004307
	H355	H	0.082772	1.026173	-0.004054
	H356	H	0.086095	1.020817	-0.009377
	O357	O	1.051964	0.080515	-0.004158
	H358	H	1.058412	0.079277	-0.008662
	H359	H	1.042363	0.090196	0.004967
	O360	O	1.006591	-0.105472	0.979321
	H361	H	1.014363	-0.102445	0.980754
	H362	H	1.007715	-0.119546	0.965678
	O363	O	0.466251	0.494673	0.546124
	H364	H	0.468081	0.494385	0.552103
	H365	H	0.467428	0.497210	0.547331
	O366	O	0.479016	0.606990	0.564241
	H367	H	0.482277	0.593195	0.563903
	H368	H	0.459318	0.605500	0.562100
	O369	O	0.886566	0.053238	0.076285
	H370	H	0.885834	0.048749	0.083684
	H371	H	0.885939	0.043507	0.088696
	O372	O	0.619925	0.416865	0.457170
	H373	H	0.616475	0.422987	0.469980
	H374	H	0.622153	0.418401	0.461555
	O375	O	0.986383	-0.017826	0.935683
	H376	H	0.990857	-0.018244	0.943664
	H377	H	0.984902	-0.015408	0.930938
	O378	O	0.023419	1.072455	0.005163
	H379	H	0.024126	1.083083	0.016185
	H380	H	0.022077	1.073182	0.011796
	O381	O	0.517288	0.562594	0.511107
	H382	H	0.526544	0.551908	0.499852
	H383	H	0.510785	0.564444	0.511267
	O384	O	1.092823	1.023633	-0.060314
	H385	H	1.092002	1.029973	-0.069129
	H386	H	1.090008	1.027412	-0.060148
	O387	O	0.565989	-0.643950	0.552162
	H388	H	0.561695	-0.649617	0.562840
	H389	H	0.556900	-0.655570	0.560834
	O390	O	0.995213	1.096084	0.149699
	H391	H	0.990737	1.096808	0.153969
	H392	H	0.993504	1.090724	0.147253
	O393	O	0.577827	0.479555	0.465696
	H394	H	0.578413	0.489985	0.452075
	H395	H	0.574934	0.485775	0.449509
