data_Molecule from HDF5

_cell_length_a		16.325416
_cell_length_b		16.349770
_cell_length_c		16.478356
_cell_angle_alpha	89.870880
_cell_angle_beta	90.058225
_cell_angle_gamma	90.057499
_symmetry_space_group_name_H-M	'P 1'
_symmetry_Int_Tables_number		1

loop_
	_symmetry_equiv_pos_as_xyz
	x,y,z

loop_
	_atom_site_label
	_atom_site_type_symbol
	_atom_site_fract_x
	_atom_site_fract_y
	_atom_site_fract_z
	H0	H	0.392505	0.836389	0.726022
	H1	H	0.607352	0.154142	0.721839
	H2	H	0.604095	0.836288	0.281406
	H3	H	0.394025	0.154488	0.281144
	H4	H	0.726390	0.387920	0.844148
	H5	H	0.722305	0.597213	0.161512
	H6	H	0.279423	0.601185	0.844516
	H7	H	0.284571	0.390860	0.162471
	H8	H	0.841461	0.710311	0.398392
	H9	H	0.162080	0.713056	0.605072
	H10	H	0.842318	0.270947	0.607996
	H11	H	0.162503	0.272326	0.400785
	H12	H	0.845613	0.381547	0.728185
	H13	H	0.162285	0.599297	0.722753
	H14	H	0.843541	0.595914	0.281296
	H15	H	0.163794	0.387555	0.283937
	H16	H	0.397117	0.716804	0.843598
	H17	H	0.606250	0.714197	0.161038
	H18	H	0.610266	0.272531	0.844103
	H19	H	0.400731	0.274232	0.161296
	H20	H	0.717126	0.833271	0.399289
	H21	H	0.722678	0.152400	0.605175
	H22	H	0.284169	0.833109	0.604978
	H23	H	0.281350	0.154763	0.399831
	H24	H	0.899296	0.332890	0.220605
	H25	H	0.109411	0.652432	0.224932
	H26	H	0.108677	0.333403	0.782666
	H27	H	0.895141	0.650936	0.778071
	H28	H	0.221791	0.890356	0.343624
	H29	H	0.222032	0.097334	0.661652
	H30	H	0.780850	0.096704	0.342510
	H31	H	0.778315	0.885901	0.660300
	H32	H	0.342699	0.216355	0.898022
	H33	H	0.664241	0.211326	0.104105
	H34	H	0.341853	0.774299	0.105658
	H35	H	0.662193	0.776567	0.897386
	H36	H	0.341111	0.890848	0.221616
	H37	H	0.660497	0.101421	0.224683
	H38	H	0.341454	0.101797	0.782086
	H39	H	0.659671	0.888888	0.778927
	H40	H	0.894290	0.215243	0.344372
	H41	H	0.106045	0.213653	0.661153
	H42	H	0.104947	0.773708	0.342531
	H43	H	0.896004	0.770722	0.660333
	H44	H	0.222045	0.332820	0.902226
	H45	H	0.222454	0.654944	0.106917
	H46	H	0.784167	0.333844	0.104676
	H47	H	0.783255	0.653635	0.895964
	H48	H	0.403272	0.110807	0.588354
	H49	H	0.593382	0.876143	0.598120
	H50	H	0.584243	0.107258	0.413516
	H51	H	0.408599	0.878291	0.405340
	H52	H	0.594407	0.405665	0.114712
	H53	H	0.593348	0.588723	0.887287
	H54	H	0.408178	0.579158	0.115358
	H55	H	0.417675	0.399073	0.888352
	H56	H	0.114638	0.576477	0.414632
	H57	H	0.886249	0.584014	0.594045
	H58	H	0.110183	0.409459	0.583039
	H59	H	0.886319	0.405936	0.402685
	H60	H	0.116582	0.409222	0.598696
	H61	H	0.889855	0.580666	0.587247
	H62	H	0.119678	0.583537	0.405809
	H63	H	0.886175	0.394847	0.413431
	H64	H	0.420443	0.584305	0.111942
	H65	H	0.595983	0.582907	0.888582
	H66	H	0.592137	0.405108	0.114613
	H67	H	0.405735	0.407514	0.887001
	H68	H	0.593935	0.108435	0.418072
	H69	H	0.577862	0.882562	0.595715
	H70	H	0.413193	0.111260	0.601346
	H71	H	0.418419	0.882913	0.411691
	H72	H	0.906694	0.610626	0.092735
	H73	H	0.094112	0.379961	0.090616
	H74	H	0.091673	0.605799	0.916485
	H75	H	0.914516	0.379312	0.914221
	H76	H	0.095535	0.901317	0.617158
	H77	H	0.097258	0.079442	0.388592
	H78	H	0.913236	0.076524	0.613608
	H79	H	0.908928	0.909694	0.390494
	H80	H	0.617401	0.087757	0.911603
	H81	H	0.389160	0.077518	0.093717
	H82	H	0.615014	0.908133	0.091495
	H83	H	0.388320	0.902191	0.920057
	H84	H	0.616809	0.907403	0.095877
	H85	H	0.383175	0.089897	0.097166
	H86	H	0.613421	0.080931	0.915394
	H87	H	0.390760	0.913928	0.914916
	H88	H	0.915588	0.081494	0.614129
	H89	H	0.085200	0.077695	0.393261
	H90	H	0.090459	0.904514	0.613952
	H91	H	0.916187	0.897082	0.388855
	H92	H	0.093027	0.608223	0.910531
	H93	H	0.096610	0.378444	0.095720
	H94	H	0.918688	0.609328	0.100532
	H95	H	0.916777	0.380598	0.913944
	H96	H	0.418150	0.104394	0.587458
	H97	H	0.589152	0.883151	0.583398
	H98	H	0.591958	0.111009	0.408035
	H99	H	0.407129	0.880268	0.417385
	H100	H	0.593821	0.403135	0.114972
	H101	H	0.589461	0.583831	0.889853
	H102	H	0.411750	0.592103	0.117680
	H103	H	0.417915	0.412705	0.893525
	H104	H	0.117568	0.587883	0.417213
	H105	H	0.889438	0.576180	0.594143
	H106	H	0.117677	0.395564	0.588857
	H107	H	0.892000	0.408936	0.416521
	H108	H	0.918401	0.604623	0.086728
	H109	H	0.090877	0.379275	0.095071
	H110	H	0.087052	0.606329	0.911239
	H111	H	0.914747	0.380896	0.915996
	H112	H	0.089594	0.898277	0.616222
	H113	H	0.088795	0.088795	0.388264
	H114	H	0.909687	0.080854	0.614590
	H115	H	0.902104	0.897543	0.385894
	H116	H	0.617343	0.080327	0.907327
	H117	H	0.389866	0.088153	0.084352
	H118	H	0.616735	0.903938	0.093142
	H119	H	0.385272	0.905192	0.907544
	C120	C	0.379294	0.003310	0.624399
	C121	C	0.620817	0.985734	0.623486
	C122	C	0.621413	0.003244	0.381384
	C123	C	0.379234	0.986142	0.380426
	C124	C	0.625594	0.372692	0.010402
	C125	C	0.624870	0.616377	0.993563
	C126	C	0.380849	0.617294	0.010630
	C127	C	0.382511	0.374185	0.994534
	C128	C	0.011369	0.613616	0.381021
	C129	C	0.994097	0.613353	0.623429
	C130	C	0.010053	0.371502	0.623472
	C131	C	0.993748	0.370599	0.380045
	C132	C	0.882790	0.501965	0.123519
	C133	C	0.125502	0.485108	0.125092
	C134	C	0.123643	0.501361	0.881878
	C135	C	0.882129	0.485035	0.880950
	C136	C	0.123423	0.870494	0.510623
	C137	C	0.122611	0.114326	0.494520
	C138	C	0.880291	0.112702	0.509743
	C139	C	0.877723	0.869833	0.493339
	C140	C	0.510543	0.116437	0.880138
	C141	C	0.493494	0.116496	0.123391
	C142	C	0.510001	0.874602	0.123793
	C143	C	0.493155	0.874426	0.880972
	C144	C	0.375947	0.883564	0.684957
	C145	C	0.624911	0.105526	0.682788
	C146	C	0.622613	0.883469	0.321501
	C147	C	0.376197	0.106411	0.320815
	C148	C	0.685909	0.370257	0.891610
	C149	C	0.683447	0.616750	0.113374
	C150	C	0.320102	0.619409	0.891720
	C151	C	0.324157	0.372547	0.114627
	C152	C	0.890052	0.671268	0.379789
	C153	C	0.114054	0.673476	0.624285
	C154	C	0.890673	0.310064	0.626732
	C155	C	0.114619	0.311763	0.380861
	C156	C	0.892300	0.365638	0.686328
	C157	C	0.114285	0.616611	0.682966
	C158	C	0.890986	0.614693	0.321328
	C159	C	0.115193	0.369191	0.322719
	C160	C	0.378743	0.676893	0.891283
	C161	C	0.625557	0.674829	0.113270
	C162	C	0.627952	0.312613	0.891500
	C163	C	0.381836	0.314201	0.114006
	C164	C	0.678848	0.882057	0.380117
	C165	C	0.682437	0.104940	0.624594
	C166	C	0.321800	0.881926	0.624588
	C167	C	0.320304	0.106594	0.380272
	C168	C	0.881108	0.381168	0.181410
	C169	C	0.127582	0.605100	0.184699
	C170	C	0.126486	0.381120	0.822811
	C171	C	0.878074	0.603596	0.818633
	C172	C	0.182410	0.870499	0.391270
	C173	C	0.182452	0.116051	0.614023
	C174	C	0.820041	0.115229	0.390567
	C175	C	0.818128	0.867584	0.612531
	C176	C	0.390378	0.176684	0.879165
	C177	C	0.615261	0.173185	0.123505
	C178	C	0.389662	0.814424	0.124569
	C179	C	0.613763	0.815456	0.878949
	C180	C	0.389175	0.872480	0.182269
	C181	C	0.613391	0.118263	0.183501
	C182	C	0.389675	0.119398	0.821528
	C183	C	0.612472	0.871682	0.820007
	C184	C	0.877058	0.174226	0.391339
	C185	C	0.124894	0.174103	0.613782
	C186	C	0.123699	0.812943	0.390509
	C187	C	0.877038	0.810437	0.612716
	C188	C	0.183128	0.380999	0.882097
	C189	C	0.183835	0.606118	0.125730
	C190	C	0.823261	0.381812	0.124014
	C191	C	0.822732	0.605326	0.877852
	C192	C	0.404182	0.087106	0.599431
	C193	C	0.594472	0.902273	0.599306
	C194	C	0.597110	0.087087	0.405952
	C195	C	0.404300	0.902287	0.404608
	C196	C	0.600660	0.397539	0.093203
	C197	C	0.600250	0.592180	0.910174
	C198	C	0.406105	0.592400	0.093573
	C199	C	0.406732	0.399313	0.911467
	C200	C	0.095431	0.589495	0.405580
	C201	C	0.910299	0.587622	0.598929
	C202	C	0.093015	0.397557	0.597658
	C203	C	0.909994	0.395882	0.404005
	C204	C	0.907737	0.586398	0.099989
	C205	C	0.100956	0.401161	0.100866
	C206	C	0.097974	0.585138	0.906066
	C207	C	0.907891	0.401985	0.907189
	C208	C	0.099007	0.894434	0.593906
	C209	C	0.097609	0.089199	0.411675
	C210	C	0.905631	0.087048	0.592606
	C211	C	0.901928	0.894317	0.409973
	C212	C	0.594043	0.090622	0.904400
	C213	C	0.409281	0.092157	0.098851
	C214	C	0.594225	0.899260	0.100328
	C215	C	0.409765	0.899715	0.906847
	Zn216	Zn	0.499791	-0.004994	0.752175
	Zn217	Zn	0.500778	-0.003937	0.252314
	Zn218	Zn	0.754365	0.494774	0.001923
	Zn219	Zn	0.252538	0.494683	0.002832
	Zn220	Zn	0.001344	0.741599	0.501848
	Zn221	Zn	0.001059	0.242906	0.502644
	Zn222	Zn	0.002603	0.492494	0.752579
	Zn223	Zn	0.003388	0.492872	0.252642
	Zn224	Zn	0.503191	0.746049	0.002107
	Zn225	Zn	0.503390	0.244001	0.002117
	Zn226	Zn	0.749636	-0.007489	0.502062
	Zn227	Zn	0.251843	-0.006244	0.502936
	N228	N	0.410751	0.960027	0.684992
	N229	N	0.587251	0.030330	0.682112
	N230	N	0.587510	0.959834	0.322102
	N231	N	0.412095	0.030390	0.320639
	N232	N	0.684715	0.406822	0.966547
	N233	N	0.683044	0.581046	0.037890
	N234	N	0.321209	0.583147	0.967015
	N235	N	0.324381	0.409030	0.039441
	N236	N	0.965944	0.670785	0.415921
	N237	N	0.038297	0.671403	0.588074
	N238	N	0.964914	0.313896	0.587926
	N239	N	0.038155	0.312423	0.415637
	N240	N	0.967275	0.403336	0.684217
	N241	N	0.038435	0.579824	0.682665
	N242	N	0.967517	0.579659	0.321886
	N243	N	0.038915	0.404892	0.321865
	N244	N	0.415658	0.675787	0.966182
	N245	N	0.589976	0.674854	0.037716
	N246	N	0.591026	0.313997	0.966340
	N247	N	0.417589	0.315111	0.038455
	N248	N	0.678244	0.957574	0.416480
	N249	N	0.680169	0.029271	0.588726
	N250	N	0.323551	0.957551	0.587767
	N251	N	0.321892	0.030771	0.416268
	N252	N	0.917371	0.457035	0.181148
	N253	N	0.092183	0.528874	0.184544
	N254	N	0.090436	0.457091	0.822423
	N255	N	0.914051	0.527526	0.820241
	N256	N	0.182443	0.905527	0.466887
	N257	N	0.181043	0.079480	0.538981
	N258	N	0.822111	0.077455	0.465200
	N259	N	0.818465	0.903809	0.537124
	N260	N	0.466551	0.175252	0.914707
	N261	N	0.539640	0.171984	0.086765
	N262	N	0.465882	0.815538	0.089002
	N263	N	0.538468	0.817077	0.916224
	N264	N	0.464984	0.909052	0.181894
	N265	N	0.536531	0.083917	0.183786
	N266	N	0.465294	0.082602	0.822007
	N267	N	0.536580	0.907786	0.821323
	N268	N	0.913911	0.172622	0.466328
	N269	N	0.088105	0.172892	0.538721
	N270	N	0.087893	0.812746	0.465840
	N271	N	0.913343	0.811617	0.537579
	N272	N	0.181398	0.456915	0.917889
	N273	N	0.182594	0.530424	0.089412
	N274	N	0.824207	0.458064	0.088659
	N275	N	0.824864	0.530503	0.915702
	O276	O	0.699152	0.539856	0.677500
	H277	H	0.697534	0.550973	0.684945
	H278	H	0.708104	0.541467	0.684029
	O279	O	0.568428	0.405569	0.408643
	H280	H	0.544819	0.405216	0.415398
	H281	H	0.570563	0.397966	0.390116
	O282	O	0.610662	0.517457	0.331798
	H283	H	0.607333	0.494056	0.337732
	H284	H	0.601677	0.524171	0.326559
	O285	O	1.056566	-0.203825	0.132060
	H286	H	1.045462	-0.214839	0.147512
	H287	H	1.053863	-0.208734	0.133159
	O288	O	-0.112823	0.128658	0.975706
	H289	H	-0.104776	0.126188	0.977982
	H290	H	-0.109509	0.133802	0.972128
	O291	O	0.562466	0.508559	0.335627
	H292	H	0.561545	0.516148	0.357762
	H293	H	0.546472	0.499641	0.319357
	O294	O	0.491386	0.639405	0.657235
	H295	H	0.480100	0.629670	0.668020
	H296	H	0.491298	0.652728	0.647411
	O297	O	1.084669	0.891738	1.060657
	H298	H	1.071099	0.889636	1.057270
	H299	H	1.077435	0.893777	1.060567
	O300	O	0.134713	-0.197477	-0.088205
	H301	H	0.135398	-0.207907	-0.109641
	H302	H	0.156725	-0.205570	-0.083730
	O303	O	0.572559	0.599781	0.376962
	H304	H	0.581138	0.605843	0.368222
	H305	H	0.566363	0.593575	0.378567
	O306	O	1.134330	-0.083646	-0.150548
	H307	H	1.121577	-0.064061	-0.153730
	H308	H	1.116852	-0.081265	-0.150884
	O309	O	0.333858	0.478645	0.715375
	H310	H	0.314185	0.479942	0.716147
	H311	H	0.339668	0.453646	0.711279
	O312	O	0.504127	1.415970	-0.461766
	H313	H	0.503314	1.415104	-0.449447
	H314	H	0.508451	1.420283	-0.467956
	O315	O	0.659564	0.315667	0.534435
	H316	H	0.662874	0.321864	0.517117
	H317	H	0.675503	0.308821	0.530635
	O318	O	0.672151	0.483759	0.512736
	H319	H	0.687472	0.475921	0.496189
	H320	H	0.655692	0.478384	0.525296
	O321	O	0.911312	-0.154386	0.911184
	H322	H	0.905053	-0.163159	0.914623
	H323	H	0.893078	-0.148954	0.916053
	O324	O	-0.050462	-0.073276	0.932581
	H325	H	-0.042622	-0.086067	0.932466
	H326	H	-0.047450	-0.081325	0.921121
	O327	O	0.621969	0.611853	0.527260
	H328	H	0.615907	0.596249	0.527967
	H329	H	0.635106	0.635038	0.529392
	O330	O	0.394486	0.666536	0.317650
	H331	H	0.397759	0.674824	0.314930
	H332	H	0.372595	0.671907	0.341033
	O333	O	1.133326	1.030776	1.143712
	H334	H	1.143649	1.028856	1.146140
	H335	H	1.130852	1.006111	1.147031
	O336	O	0.650130	0.564468	0.596846
	H337	H	0.667286	0.555060	0.613559
	H338	H	0.634063	0.563691	0.579198
	O339	O	1.192883	0.117936	1.089906
	H340	H	1.207575	0.120184	1.063822
	H341	H	1.186783	0.091517	1.098110
	O342	O	-0.089314	1.043116	1.050623
	H343	H	-0.092214	1.047673	1.058279
	H344	H	-0.099773	1.035581	1.044539
	O345	O	-0.191968	1.037664	0.885589
	H346	H	-0.200393	1.036136	0.873298
	H347	H	-0.181068	1.047800	0.884405
	O348	O	0.443667	0.291353	0.685145
	H349	H	0.451667	0.288857	0.690753
	H350	H	0.433950	0.285546	0.706107
	O351	O	-0.067781	-0.065585	-0.073614
	H352	H	-0.074397	-0.074781	-0.062772
	H353	H	-0.065409	-0.066621	-0.069394
	O354	O	1.051333	1.048219	-0.175766
	H355	H	1.048817	1.053994	-0.160106
	H356	H	1.059415	1.042155	-0.179060
	O357	O	0.033009	1.195152	0.202265
	H358	H	0.054095	1.197138	0.199249
	H359	H	0.048965	1.208591	0.212238
	O360	O	0.312799	0.685108	0.442820
	H361	H	0.319899	0.680611	0.462057
	H362	H	0.306167	0.694473	0.466357
	O363	O	0.298365	0.527082	0.322323
	H364	H	0.277667	0.538043	0.306400
	H365	H	0.305177	0.546677	0.330320
	O366	O	-0.130875	0.991520	0.208071
	H367	H	-0.139048	1.010084	0.225345
	H368	H	-0.132755	1.012640	0.197346
	O369	O	0.460591	0.405916	0.323208
	H370	H	0.451153	0.403167	0.325412
	H371	H	0.456215	0.402111	0.324819
	O372	O	0.458676	0.335780	0.464254
	H373	H	0.461461	0.336555	0.475595
	H374	H	0.475580	0.343147	0.483235
	O375	O	0.355125	0.353729	0.542090
	H376	H	0.350364	0.375354	0.545421
	H377	H	0.356871	0.337145	0.546087
	O378	O	0.566890	0.411649	0.644589
	H379	H	0.584896	0.426448	0.637788
	H380	H	0.582568	0.411702	0.654069
	O381	O	0.357707	0.510070	0.480436
	H382	H	0.360370	0.507899	0.477151
	H383	H	0.352741	0.517287	0.478410
	O384	O	0.009773	0.967491	1.024079
	H385	H	-0.007498	0.956156	1.033948
	H386	H	0.012495	0.970559	1.038280
	O387	O	0.845961	1.095530	0.039008
	H388	H	0.846838	1.097648	0.034443
	H389	H	0.857248	1.104488	0.033061
	O390	O	0.316335	0.324232	0.612159
	H391	H	0.330140	0.319691	0.610949
	H392	H	0.310086	0.322003	0.594373
	O393	O	1.082985	0.147584	0.896872
	H394	H	1.080272	0.146870	0.905898
	H395	H	1.086029	0.137666	0.904931
	O396	O	-0.039199	1.080517	0.961349
	H397	H	-0.041123	1.062335	0.964334
	H398	H	-0.037028	1.079676	0.967905
	O399	O	0.410373	0.611821	0.650588
	H400	H	0.409928	0.582332	0.646790
	H401	H	0.408744	0.598092	0.650918
	O402	O	1.187107	0.005886	0.897983
	H403	H	1.186376	-0.011080	0.904178
	H404	H	1.187456	0.012135	0.874952
	O405	O	-0.023803	-0.003898	-0.139013
	H406	H	-0.025253	0.002094	-0.119723
	H407	H	-0.028250	-0.012886	-0.136459
	O408	O	0.858792	0.789217	1.149773
	H409	H	0.851562	0.811302	1.157557
	H410	H	0.839100	0.767217	1.177480
	O411	O	0.775365	0.785824	0.227497
	H412	H	0.780832	0.779011	0.240141
	H413	H	0.767296	0.803944	0.235050
	O414	O	0.027752	-0.045333	0.939929
	H415	H	0.029533	-0.047411	0.933542
	H416	H	0.035492	-0.048225	0.950298
	O417	O	0.422387	0.613987	0.526393
	H418	H	0.422977	0.603646	0.517824
	H419	H	0.431434	0.602057	0.526544
	O420	O	0.668829	1.685212	-0.461897
	H421	H	0.687378	1.693452	-0.465775
	H422	H	0.646833	1.680953	-0.447026
	O423	O	1.142146	-0.100453	0.016427
	H424	H	1.128833	-0.103017	0.012694
	H425	H	1.140402	-0.112391	0.028531
	O426	O	0.006833	0.086937	1.128503
	H427	H	0.017917	0.086720	1.130846
	H428	H	0.006612	0.086232	1.121301
	O429	O	0.682819	0.329784	0.377781
	H430	H	0.676516	0.341585	0.370127
	H431	H	0.669964	0.336563	0.368058
