data_Molecule from HDF5

_cell_length_a		16.277128
_cell_length_b		16.304288
_cell_length_c		16.315024
_cell_angle_alpha	90.176775
_cell_angle_beta	90.095363
_cell_angle_gamma	89.990681
_symmetry_space_group_name_H-M	'P 1'
_symmetry_Int_Tables_number		1

loop_
	_symmetry_equiv_pos_as_xyz
	x,y,z

loop_
	_atom_site_label
	_atom_site_type_symbol
	_atom_site_fract_x
	_atom_site_fract_y
	_atom_site_fract_z
	H0	H	0.406605	0.836164	0.706315
	H1	H	0.606032	0.161935	0.709548
	H2	H	0.605757	0.835971	0.277406
	H3	H	0.406613	0.161910	0.276234
	H4	H	0.720325	0.398484	0.828929
	H5	H	0.722135	0.597395	0.154843
	H6	H	0.290671	0.596102	0.828791
	H7	H	0.290804	0.399012	0.155584
	H8	H	0.842204	0.712934	0.392410
	H9	H	0.169886	0.713682	0.591026
	H10	H	0.841894	0.285291	0.587941
	H11	H	0.168818	0.282758	0.390866
	H12	H	0.842520	0.399881	0.706310
	H13	H	0.169663	0.597929	0.707734
	H14	H	0.842657	0.597561	0.275512
	H15	H	0.170383	0.400438	0.277656
	H16	H	0.406120	0.713452	0.828770
	H17	H	0.606552	0.714082	0.155175
	H18	H	0.604568	0.282546	0.829776
	H19	H	0.407550	0.284070	0.156024
	H20	H	0.722275	0.836810	0.391992
	H21	H	0.719755	0.163439	0.590620
	H22	H	0.290197	0.836767	0.591145
	H23	H	0.290175	0.162573	0.392537
	H24	H	0.908030	0.334997	0.205994
	H25	H	0.105589	0.661608	0.207472
	H26	H	0.105430	0.334923	0.775380
	H27	H	0.905332	0.661729	0.776777
	H28	H	0.220735	0.899775	0.328411
	H29	H	0.222158	0.100336	0.654538
	H30	H	0.791557	0.097123	0.328320
	H31	H	0.791515	0.901288	0.655343
	H32	H	0.342085	0.212090	0.894230
	H33	H	0.669473	0.213454	0.091765
	H34	H	0.343065	0.784164	0.090054
	H35	H	0.669387	0.783222	0.892654
	H36	H	0.342585	0.900374	0.205683
	H37	H	0.670068	0.096650	0.205900
	H38	H	0.342218	0.097263	0.777599
	H39	H	0.669799	0.899309	0.777194
	H40	H	0.905805	0.213505	0.328530
	H41	H	0.105815	0.216483	0.653990
	H42	H	0.103580	0.784210	0.328098
	H43	H	0.906161	0.783933	0.654698
	H44	H	0.220846	0.334322	0.892866
	H45	H	0.221024	0.662101	0.091739
	H46	H	0.792406	0.334675	0.089518
	H47	H	0.789315	0.660876	0.892453
	H48	H	0.412554	0.113769	0.577214
	H49	H	0.592675	0.882918	0.591597
	H50	H	0.598998	0.118040	0.391530
	H51	H	0.417686	0.884852	0.400548
	H52	H	0.600978	0.407535	0.107845
	H53	H	0.610579	0.589057	0.873125
	H54	H	0.414758	0.590810	0.106795
	H55	H	0.411614	0.402803	0.875498
	H56	H	0.123784	0.591703	0.394413
	H57	H	0.888885	0.600143	0.581082
	H58	H	0.122106	0.404347	0.580846
	H59	H	0.893570	0.420633	0.397881
	H60	H	0.120498	0.410630	0.582281
	H61	H	0.893195	0.585124	0.580056
	H62	H	0.122620	0.596542	0.401981
	H63	H	0.884184	0.399857	0.385380
	H64	H	0.413991	0.593918	0.109283
	H65	H	0.590904	0.580369	0.881620
	H66	H	0.597699	0.405287	0.108498
	H67	H	0.413536	0.407300	0.877468
	H68	H	0.592493	0.113407	0.401965
	H69	H	0.597596	0.886723	0.575863
	H70	H	0.408674	0.118042	0.589622
	H71	H	0.409464	0.883417	0.402405
	H72	H	0.908258	0.615825	0.081273
	H73	H	0.100937	0.380886	0.088249
	H74	H	0.103529	0.613665	0.905664
	H75	H	0.914762	0.381792	0.895218
	H76	H	0.095180	0.899259	0.609176
	H77	H	0.101609	0.089549	0.374834
	H78	H	0.911086	0.085763	0.606921
	H79	H	0.905225	0.905196	0.373545
	H80	H	0.622061	0.088095	0.896761
	H81	H	0.389740	0.089979	0.085394
	H82	H	0.622751	0.911911	0.089841
	H83	H	0.387517	0.893409	0.901184
	H84	H	0.626000	0.898676	0.087807
	H85	H	0.389350	0.092504	0.084663
	H86	H	0.623718	0.095661	0.898991
	H87	H	0.394936	0.913469	0.907106
	H88	H	0.921239	0.094779	0.606405
	H89	H	0.094733	0.088504	0.378249
	H90	H	0.106622	0.908755	0.608959
	H91	H	0.915316	0.912409	0.379042
	H92	H	0.099989	0.616145	0.893480
	H93	H	0.095370	0.383327	0.084525
	H94	H	0.915729	0.615620	0.090299
	H95	H	0.916266	0.383425	0.901177
	H96	H	0.422085	0.113666	0.587559
	H97	H	0.608236	0.879534	0.587489
	H98	H	0.605585	0.115919	0.403048
	H99	H	0.412470	0.881415	0.394515
	H100	H	0.601486	0.403862	0.110011
	H101	H	0.591712	0.602157	0.874316
	H102	H	0.411580	0.591159	0.108294
	H103	H	0.416139	0.403749	0.877058
	H104	H	0.120422	0.587905	0.401873
	H105	H	0.887620	0.590605	0.593145
	H106	H	0.123142	0.406460	0.586947
	H107	H	0.891183	0.398344	0.410165
	H108	H	0.918999	0.611839	0.080328
	H109	H	0.101354	0.382155	0.081809
	H110	H	0.091720	0.610539	0.901901
	H111	H	0.910383	0.381655	0.899881
	H112	H	0.093245	0.912927	0.604126
	H113	H	0.096765	0.095138	0.375167
	H114	H	0.908498	0.098878	0.610790
	H115	H	0.917142	0.899476	0.375201
	H116	H	0.621301	0.090444	0.904215
	H117	H	0.390798	0.090670	0.083461
	H118	H	0.620978	0.906185	0.077743
	H119	H	0.387790	0.909958	0.887529
	C120	C	0.384695	0.007606	0.613493
	C121	C	0.627852	0.991090	0.614064
	C122	C	0.627845	0.007424	0.370634
	C123	C	0.384358	0.990989	0.370396
	C124	C	0.627784	0.376564	0.000894
	C125	C	0.627334	0.619550	0.984101
	C126	C	0.384109	0.620450	0.000185
	C127	C	0.384786	0.376571	0.984465
	C128	C	0.014302	0.620525	0.370215
	C129	C	0.997875	0.620638	0.613897
	C130	C	0.013903	0.378068	0.612104
	C131	C	0.997691	0.377154	0.369177
	C132	C	0.885683	0.506280	0.112831
	C133	C	0.128250	0.490106	0.114113
	C134	C	0.127451	0.505882	0.870725
	C135	C	0.884085	0.489978	0.869972
	C136	C	0.127082	0.877918	0.499882
	C137	C	0.127244	0.121238	0.483219
	C138	C	0.884772	0.120982	0.499996
	C139	C	0.883561	0.877000	0.483401
	C140	C	0.514397	0.120024	0.870952
	C141	C	0.497694	0.119909	0.113661
	C142	C	0.515102	0.876998	0.113559
	C143	C	0.497902	0.876563	0.869881
	C144	C	0.386416	0.885101	0.668731
	C145	C	0.625992	0.113452	0.670807
	C146	C	0.625835	0.884895	0.315230
	C147	C	0.386188	0.113403	0.314474
	C148	C	0.682640	0.378297	0.877816
	C149	C	0.683441	0.617567	0.106545
	C150	C	0.328940	0.616956	0.877437
	C151	C	0.329300	0.379212	0.107012
	C152	C	0.891169	0.675620	0.371862
	C153	C	0.120915	0.676030	0.611569
	C154	C	0.890865	0.322929	0.609090
	C155	C	0.120388	0.321112	0.371050
	C156	C	0.891036	0.379964	0.667571
	C157	C	0.120791	0.618623	0.669796
	C158	C	0.891379	0.618028	0.313996
	C159	C	0.121010	0.379152	0.314154
	C160	C	0.386169	0.675387	0.877569
	C161	C	0.626056	0.675650	0.106469
	C162	C	0.625016	0.320763	0.878278
	C163	C	0.387190	0.321838	0.107176
	C164	C	0.683513	0.885230	0.372656
	C165	C	0.682584	0.114267	0.611702
	C166	C	0.328519	0.885276	0.611208
	C167	C	0.328645	0.113751	0.372624
	C168	C	0.887866	0.383750	0.168150
	C169	C	0.126017	0.613141	0.169295
	C170	C	0.125632	0.383404	0.814018
	C171	C	0.885529	0.612763	0.814746
	C172	C	0.182872	0.879377	0.377209
	C173	C	0.183644	0.120280	0.605861
	C174	C	0.829325	0.117764	0.377034
	C175	C	0.828773	0.880407	0.606422
	C176	C	0.391077	0.174922	0.873437
	C177	C	0.620608	0.175673	0.111805
	C178	C	0.391804	0.821983	0.110876
	C179	C	0.620637	0.821310	0.872502
	C180	C	0.391836	0.879482	0.168669
	C181	C	0.620909	0.117656	0.168746
	C182	C	0.391027	0.117391	0.815749
	C183	C	0.620908	0.879102	0.815084
	C184	C	0.886173	0.175656	0.377141
	C185	C	0.125785	0.177825	0.605666
	C186	C	0.124629	0.822168	0.376999
	C187	C	0.885733	0.821822	0.605974
	C188	C	0.182815	0.383035	0.872450
	C189	C	0.183410	0.613133	0.111811
	C190	C	0.830191	0.383576	0.110415
	C191	C	0.827731	0.612403	0.872307
	C192	C	0.407651	0.093039	0.591235
	C193	C	0.605744	0.905284	0.591637
	C194	C	0.605474	0.093706	0.392502
	C195	C	0.406727	0.905297	0.392680
	C196	C	0.606378	0.399025	0.086646
	C197	C	0.604604	0.596960	0.898530
	C198	C	0.406810	0.598501	0.085938
	C199	C	0.407034	0.398366	0.898799
	C200	C	0.100151	0.598462	0.392770
	C201	C	0.912141	0.598445	0.591501
	C202	C	0.099696	0.400606	0.590067
	C203	C	0.911932	0.399544	0.391262
	C204	C	0.907676	0.592242	0.090392
	C205	C	0.105927	0.404494	0.091521
	C206	C	0.104878	0.591210	0.893618
	C207	C	0.907000	0.404485	0.892344
	C208	C	0.104769	0.900402	0.585420
	C209	C	0.104431	0.098009	0.398155
	C210	C	0.907052	0.099529	0.585676
	C211	C	0.905915	0.899059	0.397950
	C212	C	0.600155	0.097957	0.893267
	C213	C	0.412168	0.097585	0.091100
	C214	C	0.600994	0.898994	0.091587
	C215	C	0.412192	0.898965	0.892004
	Zn216	Zn	0.506129	-0.000945	0.742462
	Zn217	Zn	0.506310	-0.001148	0.241809
	Zn218	Zn	0.756033	0.497668	-0.007893
	Zn219	Zn	0.255957	0.497895	-0.007329
	Zn220	Zn	0.005744	0.749046	0.491581
	Zn221	Zn	0.005646	0.249421	0.491052
	Zn222	Zn	0.005788	0.498466	0.741941
	Zn223	Zn	0.006869	0.498740	0.241729
	Zn224	Zn	0.506451	0.748883	-0.007932
	Zn225	Zn	0.505801	0.248196	-0.007382
	Zn226	Zn	0.756326	0.000123	0.492030
	Zn227	Zn	0.255343	-0.000600	0.491891
	N228	N	0.420527	0.962249	0.670275
	N229	N	0.592810	0.035909	0.672199
	N230	N	0.591753	0.962098	0.314108
	N231	N	0.420094	0.036058	0.313022
	N232	N	0.684620	0.412151	0.955047
	N233	N	0.684106	0.583136	0.029494
	N234	N	0.327491	0.583688	0.954890
	N235	N	0.327812	0.412578	0.029696
	N236	N	0.968443	0.677117	0.406195
	N237	N	0.043469	0.677400	0.577568
	N238	N	0.968247	0.321753	0.575428
	N239	N	0.042828	0.319784	0.404538
	N240	N	0.968719	0.413355	0.669636
	N241	N	0.043485	0.584826	0.671144
	N242	N	0.969030	0.584490	0.312936
	N243	N	0.043891	0.413434	0.313094
	N244	N	0.419588	0.677711	0.955069
	N245	N	0.591907	0.676932	0.029321
	N246	N	0.591757	0.319511	0.955692
	N247	N	0.420960	0.320090	0.029962
	N248	N	0.684696	0.962609	0.406430
	N249	N	0.683983	0.037130	0.577180
	N250	N	0.327051	0.962525	0.577789
	N251	N	0.327247	0.036432	0.406442
	N252	N	0.921465	0.461169	0.169768
	N253	N	0.092622	0.535817	0.170854
	N254	N	0.091966	0.460863	0.812831
	N255	N	0.919663	0.535492	0.813120
	N256	N	0.184523	0.913323	0.454513
	N257	N	0.184535	0.085710	0.528939
	N258	N	0.828036	0.084702	0.454568
	N259	N	0.827483	0.914117	0.529195
	N260	N	0.468612	0.176568	0.907089
	N261	N	0.542974	0.177079	0.078071
	N262	N	0.469331	0.820326	0.077461
	N263	N	0.543194	0.819677	0.905827
	N264	N	0.469380	0.912950	0.170427
	N265	N	0.543553	0.083811	0.169948
	N266	N	0.468691	0.084137	0.813969
	N267	N	0.543436	0.912814	0.813255
	N268	N	0.920164	0.177434	0.454360
	N269	N	0.091417	0.178407	0.528561
	N270	N	0.090885	0.820892	0.454293
	N271	N	0.919075	0.819682	0.528681
	N272	N	0.184127	0.460143	0.906858
	N273	N	0.184957	0.535507	0.078102
	N274	N	0.828913	0.460853	0.076625
	N275	N	0.826741	0.535011	0.905870
	O276	O	0.961509	0.989529	-0.010096
	H277	H	0.963139	0.984894	-0.011483
	H278	H	0.961564	0.987205	-0.005440
	O279	O	0.113222	-0.080994	0.901907
	H280	H	0.113381	-0.072543	0.895869
	H281	H	0.118169	-0.083123	0.894232
	O282	O	-0.048528	0.074723	0.028152
	H283	H	-0.043933	0.077895	0.039290
	H284	H	-0.048886	0.074494	0.031224
	O285	O	0.504901	0.582123	0.566976
	H286	H	0.508946	0.582786	0.566316
	H287	H	0.514456	0.590960	0.565934
	O288	O	0.047794	-0.002428	-0.018825
	H289	H	0.044006	0.002752	-0.022678
	H290	H	0.053614	-0.006614	-0.025682
	O291	O	0.052753	1.017202	0.033898
	H292	H	0.050017	1.029128	0.034623
	H293	H	0.052532	1.017973	0.034053
	O294	O	-0.016810	0.934800	0.012017
	H295	H	-0.019844	0.933544	0.017280
	H296	H	-0.018851	0.935893	0.018582
	O297	O	0.478823	0.550022	0.456655
	H298	H	0.484098	0.545119	0.461559
	H299	H	0.479949	0.557165	0.448839
	O300	O	0.457364	0.584568	0.481106
	H301	H	0.450394	0.589580	0.476500
	H302	H	0.452968	0.591609	0.476486
	O303	O	1.048956	0.009822	0.928637
	H304	H	1.043538	0.014462	0.922979
	H305	H	1.043599	0.016466	0.928148
	O306	O	0.051632	0.995855	1.003650
	H307	H	0.043816	1.006306	0.996962
	H308	H	0.054952	0.982836	1.002897
	O309	O	0.034250	0.974154	0.943798
	H310	H	0.040902	0.956234	0.942155
	H311	H	0.030525	0.972888	0.944933
	O312	O	0.017930	-0.018708	0.947016
	H313	H	0.018512	-0.018942	0.947549
	H314	H	0.027606	-0.012054	0.944391
	O315	O	0.436556	0.494658	0.516467
	H316	H	0.428210	0.492095	0.518039
	H317	H	0.432788	0.488643	0.516197
	O318	O	-0.036933	0.016283	0.918994
	H319	H	-0.034572	0.011440	0.930596
	H320	H	-0.033143	0.003584	0.916556
	O321	O	0.527741	0.538183	0.587652
	H322	H	0.525156	0.539001	0.596795
	H323	H	0.524820	0.541794	0.590537
	O324	O	1.044752	-0.015026	0.986377
	H325	H	1.050975	-0.025676	0.981674
	H326	H	1.038819	-0.012433	0.983125
	O327	O	1.012386	1.010148	1.047103
	H328	H	1.018497	1.010855	1.046240
	H329	H	1.017505	1.011274	1.044810
	O330	O	0.465611	0.510845	0.518560
	H331	H	0.471080	0.517305	0.510675
	H332	H	0.473197	0.509411	0.515135
	O333	O	0.003820	0.008596	0.907749
	H334	H	0.010316	0.009402	0.906893
	H335	H	0.009323	0.015850	0.903950
	O336	O	0.501228	0.535445	0.516236
	H337	H	0.505663	0.528322	0.509655
	H338	H	0.512553	0.538316	0.521837
	O339	O	0.455330	0.486420	0.527299
	H340	H	0.445520	0.487045	0.529544
	H341	H	0.454575	0.477140	0.531869
	O342	O	0.473769	0.613807	0.512746
	H343	H	0.486424	0.623889	0.520948
	H344	H	0.478395	0.609242	0.516535
	O345	O	0.517456	0.539304	0.508167
	H346	H	0.516923	0.536919	0.506100
	H347	H	0.503677	0.543401	0.509954
