data_Molecule from HDF5

_cell_length_a		16.404468
_cell_length_b		16.502898
_cell_length_c		16.484722
_cell_angle_alpha	90.169642
_cell_angle_beta	90.031861
_cell_angle_gamma	89.922789
_symmetry_space_group_name_H-M	'P 1'
_symmetry_Int_Tables_number		1

loop_
	_symmetry_equiv_pos_as_xyz
	x,y,z

loop_
	_atom_site_label
	_atom_site_type_symbol
	_atom_site_fract_x
	_atom_site_fract_y
	_atom_site_fract_z
	H0	H	0.411345	0.859469	0.729555
	H1	H	0.622252	0.174277	0.732652
	H2	H	0.629185	0.861955	0.284322
	H3	H	0.408579	0.172873	0.283578
	H4	H	0.737094	0.412754	0.851492
	H5	H	0.739042	0.622895	0.166688
	H6	H	0.297770	0.622371	0.850641
	H7	H	0.292838	0.410053	0.165545
	H8	H	0.859731	0.741028	0.401595
	H9	H	0.173006	0.747474	0.620145
	H10	H	0.858731	0.304287	0.607426
	H11	H	0.174467	0.293052	0.396687
	H12	H	0.859002	0.419434	0.724939
	H13	H	0.173970	0.631186	0.734609
	H14	H	0.861457	0.626613	0.284774
	H15	H	0.177204	0.412191	0.285616
	H16	H	0.409430	0.741896	0.852732
	H17	H	0.624569	0.740002	0.166302
	H18	H	0.624306	0.294273	0.853857
	H19	H	0.406963	0.291923	0.165379
	H20	H	0.741263	0.862049	0.403029
	H21	H	0.735864	0.176178	0.614390
	H22	H	0.293185	0.861202	0.614971
	H23	H	0.295498	0.175619	0.402421
	H24	H	0.912730	0.361919	0.230526
	H25	H	0.130369	0.674447	0.235934
	H26	H	0.124151	0.363701	0.784154
	H27	H	0.909913	0.676598	0.787153
	H28	H	0.242550	0.908874	0.352511
	H29	H	0.238055	0.126629	0.665129
	H30	H	0.793869	0.122655	0.350856
	H31	H	0.795010	0.914468	0.666336
	H32	H	0.361354	0.243641	0.900795
	H33	H	0.674538	0.240841	0.118822
	H34	H	0.362082	0.790420	0.120850
	H35	H	0.676052	0.796256	0.903737
	H36	H	0.362567	0.904814	0.237484
	H37	H	0.675168	0.123989	0.232842
	H38	H	0.360009	0.126483	0.785712
	H39	H	0.675380	0.910322	0.786866
	H40	H	0.910339	0.238613	0.348169
	H41	H	0.121402	0.242685	0.663310
	H42	H	0.126519	0.792990	0.352711
	H43	H	0.904042	0.792370	0.662532
	H44	H	0.239741	0.360776	0.901435
	H45	H	0.246162	0.673621	0.120886
	H46	H	0.798642	0.359256	0.112448
	H47	H	0.793956	0.674491	0.903174
	H48	H	0.431318	0.130195	0.601834
	H49	H	0.611699	0.903360	0.595385
	H50	H	0.606798	0.130374	0.424724
	H51	H	0.427913	0.904529	0.420321
	H52	H	0.608620	0.423195	0.126184
	H53	H	0.610203	0.603756	0.895320
	H54	H	0.430648	0.601650	0.118901
	H55	H	0.435600	0.431022	0.900584
	H56	H	0.130812	0.607698	0.422898
	H57	H	0.902467	0.619420	0.592700
	H58	H	0.131774	0.430906	0.593134
	H59	H	0.906895	0.433474	0.420226
	H60	H	0.131885	0.433666	0.595852
	H61	H	0.912710	0.599792	0.587589
	H62	H	0.128421	0.605335	0.426062
	H63	H	0.903620	0.431590	0.412764
	H64	H	0.435599	0.604694	0.119056
	H65	H	0.601917	0.605512	0.897995
	H66	H	0.611543	0.433589	0.123193
	H67	H	0.430578	0.423611	0.896078
	H68	H	0.606119	0.131443	0.417093
	H69	H	0.604590	0.904112	0.604162
	H70	H	0.428584	0.128774	0.594881
	H71	H	0.434813	0.907558	0.421494
	H72	H	0.927266	0.633232	0.101269
	H73	H	0.110261	0.406307	0.095819
	H74	H	0.109464	0.629115	0.930418
	H75	H	0.931214	0.406092	0.914876
	H76	H	0.099045	0.933315	0.617225
	H77	H	0.108048	0.104775	0.394396
	H78	H	0.926713	0.118166	0.622949
	H79	H	0.926926	0.929443	0.395091
	H80	H	0.627915	0.101062	0.923616
	H81	H	0.407378	0.101590	0.092704
	H82	H	0.631731	0.926989	0.099062
	H83	H	0.403941	0.927872	0.921291
	H84	H	0.628641	0.928286	0.093987
	H85	H	0.406132	0.101152	0.097799
	H86	H	0.631296	0.104202	0.915994
	H87	H	0.405463	0.929638	0.921848
	H88	H	0.922173	0.110424	0.622440
	H89	H	0.102882	0.106116	0.395285
	H90	H	0.104167	0.931842	0.619982
	H91	H	0.929339	0.936237	0.397815
	H92	H	0.111807	0.634975	0.915758
	H93	H	0.101767	0.407992	0.100321
	H94	H	0.935536	0.628104	0.095796
	H95	H	0.926635	0.405177	0.917760
	H96	H	0.423739	0.132321	0.599888
	H97	H	0.601242	0.907191	0.594032
	H98	H	0.600036	0.128002	0.421030
	H99	H	0.429676	0.907762	0.426740
	H100	H	0.601949	0.429545	0.120795
	H101	H	0.606348	0.611878	0.894470
	H102	H	0.431079	0.607190	0.121806
	H103	H	0.426099	0.432742	0.897554
	H104	H	0.129328	0.603228	0.421869
	H105	H	0.903084	0.602758	0.608303
	H106	H	0.133151	0.429645	0.596844
	H107	H	0.904540	0.426000	0.418749
	H108	H	0.925455	0.629697	0.091194
	H109	H	0.102831	0.410990	0.090784
	H110	H	0.097886	0.628860	0.919965
	H111	H	0.927244	0.403729	0.912190
	H112	H	0.103493	0.938013	0.617712
	H113	H	0.106393	0.109428	0.393262
	H114	H	0.931007	0.111051	0.619902
	H115	H	0.933915	0.930377	0.398163
	H116	H	0.630404	0.109600	0.923045
	H117	H	0.405545	0.105866	0.095734
	H118	H	0.629110	0.932489	0.098038
	H119	H	0.403960	0.930334	0.920086
	C120	C	0.394497	0.026557	0.631540
	C121	C	0.638155	1.009050	0.630771
	C122	C	0.638793	0.026472	0.387792
	C123	C	0.396466	1.009413	0.388173
	C124	C	0.639060	0.396383	0.018851
	C125	C	0.639696	0.639477	1.000013
	C126	C	0.397438	0.638830	0.016901
	C127	C	0.396299	0.395463	1.001154
	C128	C	0.025967	0.639241	0.388647
	C129	C	1.008754	0.643068	0.631157
	C130	C	0.026776	0.400680	0.626419
	C131	C	1.009445	0.397158	0.384568
	C132	C	0.897220	0.526503	0.128949
	C133	C	0.140614	0.510769	0.130672
	C134	C	0.139089	0.527294	0.887936
	C135	C	0.896060	0.509701	0.885397
	C136	C	0.137249	0.898629	0.516076
	C137	C	0.138211	0.140538	0.497954
	C138	C	0.894622	0.142745	0.516462
	C139	C	0.895943	0.898405	0.500188
	C140	C	0.525917	0.138870	0.887855
	C141	C	0.509634	0.137411	0.130048
	C142	C	0.526580	0.894838	0.131781
	C143	C	0.509255	0.896815	0.888612
	C144	C	0.392176	0.907586	0.690986
	C145	C	0.640083	0.127322	0.691933
	C146	C	0.644823	0.909108	0.325688
	C147	C	0.391443	0.126401	0.325089
	C148	C	0.698174	0.393848	0.899517
	C149	C	0.699562	0.641336	0.118967
	C150	C	0.336666	0.641471	0.898540
	C151	C	0.333320	0.391742	0.118417
	C152	C	0.907535	0.700801	0.384391
	C153	C	0.125964	0.706517	0.636860
	C154	C	0.906639	0.342800	0.627018
	C155	C	0.127699	0.334699	0.380214
	C156	C	0.906799	0.400565	0.685105
	C157	C	0.126405	0.648702	0.694101
	C158	C	0.908430	0.644067	0.325873
	C159	C	0.129116	0.394187	0.324720
	C160	C	0.391912	0.701446	0.899841
	C161	C	0.642265	0.699724	0.118839
	C162	C	0.642058	0.335007	0.900521
	C163	C	0.390544	0.333083	0.118439
	C164	C	0.701106	0.909105	0.384703
	C165	C	0.696664	0.128313	0.632994
	C166	C	0.333399	0.908407	0.633831
	C167	C	0.335146	0.127794	0.384352
	C168	C	0.895273	0.408469	0.189550
	C169	C	0.146634	0.627574	0.194496
	C170	C	0.142781	0.410059	0.824734
	C171	C	0.892889	0.628754	0.826953
	C172	C	0.201357	0.892074	0.399296
	C173	C	0.198373	0.144435	0.617022
	C174	C	0.834010	0.142414	0.397973
	C175	C	0.834612	0.895837	0.618516
	C176	C	0.408127	0.201792	0.883861
	C177	C	0.627341	0.200104	0.135608
	C178	C	0.409075	0.831804	0.137378
	C179	C	0.628590	0.836623	0.886097
	C180	C	0.409338	0.888923	0.195734
	C181	C	0.627671	0.141716	0.192495
	C182	C	0.407349	0.143281	0.826451
	C183	C	0.628235	0.893789	0.827985
	C184	C	0.891939	0.200406	0.396682
	C185	C	0.140390	0.202281	0.616184
	C186	C	0.143503	0.834337	0.399377
	C187	C	0.889342	0.835217	0.616702
	C188	C	0.199490	0.408694	0.883987
	C189	C	0.204738	0.627021	0.137121
	C190	C	0.837921	0.407314	0.131123
	C191	C	0.835081	0.627939	0.885020
	C192	C	0.420438	0.108855	0.606231
	C193	C	0.613210	0.926404	0.605272
	C194	C	0.611773	0.108635	0.413406
	C195	C	0.423108	0.927978	0.415113
	C196	C	0.614211	0.421560	0.101620
	C197	C	0.613862	0.614090	0.917389
	C198	C	0.424722	0.612112	0.098705
	C199	C	0.423168	0.421570	0.919469
	C200	C	0.108165	0.612733	0.415823
	C201	C	0.927270	0.615462	0.603872
	C202	C	0.110544	0.424430	0.602253
	C203	C	0.926604	0.423063	0.409946
	C204	C	0.922150	0.608804	0.103423
	C205	C	0.112936	0.429499	0.103417
	C206	C	0.113550	0.609488	0.914357
	C207	C	0.921076	0.426594	0.908383
	C208	C	0.109996	0.926505	0.597259
	C209	C	0.113247	0.114404	0.415960
	C210	C	0.919523	0.119805	0.599939
	C211	C	0.922568	0.924415	0.418324
	C212	C	0.608334	0.112364	0.913530
	C213	C	0.427756	0.110759	0.103056
	C214	C	0.608411	0.921695	0.104772
	C215	C	0.426245	0.922030	0.913936
	Zn216	Zn	0.516774	0.016766	0.759188
	Zn217	Zn	0.517653	0.016980	0.259008
	Zn218	Zn	0.767898	0.517076	0.008397
	Zn219	Zn	0.268665	0.518551	0.008608
	Zn220	Zn	0.017151	0.769348	0.507902
	Zn221	Zn	0.016943	0.270421	0.505612
	Zn222	Zn	0.018943	0.520447	0.757459
	Zn223	Zn	0.018648	0.519411	0.258370
	Zn224	Zn	0.517929	0.767694	0.008905
	Zn225	Zn	0.518444	0.267256	0.010658
	Zn226	Zn	0.766789	0.019344	0.509156
	Zn227	Zn	0.267081	0.018368	0.508440
	N228	N	0.429009	0.982299	0.689843
	N229	N	0.604508	0.052021	0.690833
	N230	N	0.606728	0.983318	0.327492
	N231	N	0.428772	0.051846	0.327206
	N232	N	0.696570	0.431135	0.974034
	N233	N	0.697975	0.604602	0.044017
	N234	N	0.339670	0.603640	0.972743
	N235	N	0.336803	0.429871	0.044489
	N236	N	0.981821	0.697788	0.422742
	N237	N	0.051482	0.703299	0.598565
	N238	N	0.982277	0.342581	0.591306
	N239	N	0.052323	0.336365	0.416441
	N240	N	0.982753	0.435705	0.684981
	N241	N	0.052543	0.610037	0.690865
	N242	N	0.983265	0.606768	0.328128
	N243	N	0.054413	0.432176	0.327150
	N244	N	0.428682	0.700077	0.974723
	N245	N	0.605844	0.698816	0.043826
	N246	N	0.606195	0.336279	0.975905
	N247	N	0.429003	0.335225	0.044463
	N248	N	0.697231	0.983155	0.422739
	N249	N	0.695689	0.053705	0.596006
	N250	N	0.334407	0.983487	0.597896
	N251	N	0.337967	0.053959	0.422662
	N252	N	0.931293	0.483581	0.188523
	N253	N	0.107277	0.554188	0.190524
	N254	N	0.106075	0.484868	0.827155
	N255	N	0.930477	0.554331	0.827299
	N256	N	0.197749	0.931216	0.472910
	N257	N	0.197354	0.106700	0.542599
	N258	N	0.835305	0.107618	0.473572
	N259	N	0.838639	0.934643	0.545034
	N260	N	0.482751	0.199031	0.921705
	N261	N	0.552825	0.197540	0.097585
	N262	N	0.482962	0.835333	0.098305
	N263	N	0.553563	0.838328	0.923099
	N264	N	0.483496	0.927418	0.192275
	N265	N	0.553440	0.103439	0.189179
	N266	N	0.481733	0.104958	0.828671
	N267	N	0.553016	0.930589	0.829413
	N268	N	0.928812	0.200671	0.471559
	N269	N	0.103968	0.200259	0.541136
	N270	N	0.104722	0.838136	0.473079
	N271	N	0.926939	0.836804	0.542336
	N272	N	0.197342	0.482693	0.922448
	N273	N	0.200999	0.553440	0.098061
	N274	N	0.839215	0.481708	0.093957
	N275	N	0.836820	0.552839	0.920600
	O276	O	0.704577	0.544523	0.330059
	H277	H	0.702014	0.545318	0.338482
	H278	H	0.727103	0.548010	0.323791
	O279	O	0.833573	-0.128171	1.172361
	H280	H	0.823705	-0.106916	1.164977
	H281	H	0.879926	-0.138429	1.182267
	O282	O	0.504554	0.309779	0.509147
	H283	H	0.506413	0.311032	0.508227
	H284	H	0.478748	0.311858	0.515271
	O285	O	0.611650	0.385601	0.637473
	H286	H	0.641246	0.369571	0.651605
	H287	H	0.604562	0.393740	0.613888
	O288	O	1.052135	1.001071	0.180910
	H289	H	1.054481	0.987737	0.186402
	H290	H	1.068566	0.999544	0.175519
	O291	O	0.515564	0.686289	0.639203
	H292	H	0.513743	0.682831	0.641879
	H293	H	0.507397	0.678452	0.636711
	O294	O	-0.195605	0.043444	0.795096
	H295	H	-0.214127	0.030208	0.804904
	H296	H	-0.205014	0.053140	0.787945
	O297	O	0.341880	0.692384	0.334694
	H298	H	0.330253	0.655827	0.335259
	H299	H	0.386715	0.695970	0.327189
	O300	O	0.816916	1.003457	1.203047
	H301	H	0.815174	1.009355	1.192453
	H302	H	0.792452	0.995945	1.204914
	O303	O	0.520856	0.458213	0.528611
	H304	H	0.521778	0.460380	0.540147
	H305	H	0.501469	0.438332	0.529995
	O306	O	0.311688	0.535294	0.301997
	H307	H	0.323503	0.525166	0.300666
	H308	H	0.303171	0.529136	0.272820
	O309	O	0.541406	0.492693	0.680134
	H310	H	0.550947	0.477995	0.676591
	H311	H	0.516912	0.478791	0.680869
	O312	O	-0.177766	0.908350	0.893983
	H313	H	-0.168577	0.899904	0.919326
	H314	H	-0.176147	0.901830	0.891760
	O315	O	0.575319	0.462315	0.524921
	H316	H	0.566424	0.465370	0.520921
	H317	H	0.580779	0.439276	0.524376
	O318	O	1.310582	-0.474700	-0.318288
	H319	H	1.297293	-0.471251	-0.307559
	H320	H	1.299958	-0.464709	-0.323175
	O321	O	0.002754	0.172647	-0.143672
	H322	H	0.019291	0.144136	-0.140477
	H323	H	0.017557	0.179343	-0.142122
	O324	O	0.487794	0.645846	0.541339
	H325	H	0.457367	0.643632	0.540298
	H326	H	0.484906	0.633993	0.547736
	O327	O	0.698056	0.349496	0.325827
	H328	H	0.682216	0.343265	0.337436
	H329	H	0.696151	0.381486	0.321671
	O330	O	0.076947	0.796676	0.072452
	H331	H	0.063196	0.788507	0.052423
	H332	H	0.116123	0.798575	0.051829
	O333	O	0.648165	0.715280	0.520302
	H334	H	0.673135	0.739775	0.523699
	H335	H	0.630199	0.706253	0.550418
	O336	O	-0.768390	0.076578	0.949206
	H337	H	-0.760156	0.052999	0.920304
	H338	H	-0.798871	0.074155	0.939968
	O339	O	-0.129745	1.111632	1.052830
	H340	H	-0.146210	1.116986	1.048468
	H341	H	-0.140395	1.117362	1.055975
	O342	O	0.193268	0.847505	0.836492
	H343	H	0.150526	0.832574	0.832738
	H344	H	0.190333	0.838575	0.878197
	O345	O	1.228894	1.228581	0.026171
	H346	H	1.251314	1.233634	0.017271
	H347	H	1.236587	1.216777	0.010337
	O348	O	0.499594	0.728728	0.302363
	H349	H	0.508404	0.747945	0.293019
	H350	H	0.507725	0.736218	0.313484
	O351	O	0.490361	0.320546	0.712379
	H352	H	0.492895	0.302770	0.719913
	H353	H	0.514179	0.317471	0.707402
	O354	O	-0.042627	0.959923	-0.218073
	H355	H	-0.052539	0.979407	-0.218594
	H356	H	-0.056980	0.965560	-0.213450
	O357	O	-0.516302	-0.538285	1.296331
	H358	H	-0.506028	-0.555283	1.297176
	H359	H	-0.517122	-0.518993	1.297479
	O360	O	0.651571	0.691534	0.402861
	H361	H	0.630109	0.685547	0.425531
	H362	H	0.672413	0.696013	0.419754
	O363	O	0.079412	0.052640	0.908877
	H364	H	0.066583	0.025183	0.924979
	H365	H	0.071937	0.069058	0.917802
	O366	O	-0.129801	0.039391	0.010450
	H367	H	-0.130029	0.051754	0.000132
	H368	H	-0.116917	0.030894	0.006607
	O369	O	0.808645	0.253335	0.763046
	H370	H	0.838567	0.246542	0.769811
	H371	H	0.819552	0.243782	0.764408
	O372	O	0.808342	0.213272	0.967577
	H373	H	0.831960	0.205344	0.955754
	H374	H	0.787652	0.237392	0.962818
	O375	O	0.316908	0.646905	0.580033
	H376	H	0.317330	0.625476	0.575139
	H377	H	0.311505	0.673943	0.564861
	O378	O	0.331546	0.329183	0.690277
	H379	H	0.327336	0.363539	0.685757
	H380	H	0.353420	0.310469	0.709508
	O381	O	0.558794	0.456107	0.514944
	H382	H	0.556859	0.473720	0.507167
	H383	H	0.557997	0.448961	0.506824
	O384	O	0.234201	0.799713	-0.008594
	H385	H	0.279250	0.767964	-0.012723
	H386	H	0.240488	0.843608	0.009435
	O387	O	-0.056080	0.132301	1.169284
	H388	H	-0.086794	0.113421	1.179791
	H389	H	-0.026961	0.109415	1.173148
	O390	O	0.237904	-0.001948	-0.210418
	H391	H	0.276902	-0.009603	-0.248686
	H392	H	0.222680	-0.053823	-0.194952
	O393	O	1.038362	1.226758	1.215715
	H394	H	1.044035	1.241694	1.226195
	H395	H	1.027684	1.203549	1.227963
	O396	O	0.729234	-0.689998	0.473677
	H397	H	0.718222	-0.691778	0.456817
	H398	H	0.745065	-0.709936	0.470184
	O399	O	0.297265	-0.698412	0.531990
	H400	H	0.262225	-0.731960	0.534407
	H401	H	0.305886	-0.680792	0.563792
	O402	O	0.879125	1.088112	0.879376
	H403	H	0.875138	1.076754	0.859068
	H404	H	0.908872	1.097236	0.889984
	O405	O	1.242186	1.035382	0.226207
	H406	H	1.220420	1.077372	0.216195
	H407	H	1.280118	1.043287	0.265511
	O408	O	1.035964	-0.194072	-0.204579
	H409	H	1.030805	-0.220769	-0.236306
	H410	H	1.010925	-0.166170	-0.214910
	O411	O	1.065889	1.247505	-0.015725
	H412	H	1.052751	1.255538	0.000695
	H413	H	1.086278	1.251390	-0.001694
	O414	O	-0.041110	-0.190702	-0.031197
	H415	H	-0.047044	-0.195624	-0.037643
	H416	H	-0.042624	-0.187144	-0.047896
	O417	O	0.655130	0.601290	0.713922
	H418	H	0.657895	0.604273	0.731195
	H419	H	0.675709	0.593487	0.700168
	O420	O	-0.009454	-0.175623	0.219398
	H421	H	-0.006942	-0.194320	0.222195
	H422	H	0.004888	-0.179303	0.207590
	O423	O	0.193751	0.186327	0.183662
	H424	H	0.206182	0.201563	0.132277
	H425	H	0.151633	0.181746	0.188327
	O426	O	0.724248	0.578865	0.441758
	H427	H	0.716976	0.591688	0.437816
	H428	H	0.723482	0.583795	0.448506
	O429	O	0.306825	0.499589	0.549322
	H430	H	0.299956	0.486837	0.535122
	H431	H	0.300581	0.478209	0.557976
	O432	O	0.520731	0.307301	0.322658
	H433	H	0.533511	0.292796	0.309620
	H434	H	0.504585	0.301578	0.336375
	O435	O	0.535781	0.540981	0.369683
	H436	H	0.541253	0.555306	0.380829
	H437	H	0.548512	0.539259	0.360471
	O438	O	0.237861	-0.050957	0.073165
	H439	H	0.241929	-0.030206	0.085861
	H440	H	0.232081	-0.023353	0.081599
	O441	O	0.803919	-0.197501	0.051242
	H442	H	0.776822	-0.222987	0.049302
	H443	H	0.818607	-0.194728	0.075261
	O444	O	0.008101	0.960578	1.121294
	H445	H	0.013496	0.946689	1.139291
	H446	H	0.011575	0.947103	1.123820
	O447	O	0.125369	1.129073	-0.199055
	H448	H	0.111885	1.116924	-0.169313
	H449	H	0.147829	1.108304	-0.196797
	O450	O	0.681536	0.640108	0.681532
	H451	H	0.664594	0.627470	0.681000
	H452	H	0.669299	0.624763	0.681802
	O453	O	0.343367	0.693793	0.547084
	H454	H	0.341252	0.705708	0.536983
	H455	H	0.347597	0.702000	0.522860
