data_Molecule from HDF5

_cell_length_a		16.357276
_cell_length_b		16.217390
_cell_length_c		16.494927
_cell_angle_alpha	90.026937
_cell_angle_beta	90.086116
_cell_angle_gamma	90.010615
_symmetry_space_group_name_H-M	'P 1'
_symmetry_Int_Tables_number		1

loop_
	_symmetry_equiv_pos_as_xyz
	x,y,z

loop_
	_atom_site_label
	_atom_site_type_symbol
	_atom_site_fract_x
	_atom_site_fract_y
	_atom_site_fract_z
	H0	H	0.370417	0.826823	0.754956
	H1	H	0.583861	0.147021	0.756356
	H2	H	0.582004	0.825140	0.316416
	H3	H	0.373883	0.148209	0.315505
	H4	H	0.695246	0.381438	0.878242
	H5	H	0.692587	0.592938	0.195552
	H6	H	0.251446	0.591142	0.877476
	H7	H	0.254008	0.383584	0.196415
	H8	H	0.813428	0.704778	0.438466
	H9	H	0.136520	0.705424	0.641051
	H10	H	0.814059	0.269834	0.636182
	H11	H	0.137285	0.271177	0.433931
	H12	H	0.814828	0.380654	0.757007
	H13	H	0.133689	0.593258	0.760920
	H14	H	0.814784	0.593877	0.317623
	H15	H	0.133992	0.382508	0.313989
	H16	H	0.367861	0.707157	0.876232
	H17	H	0.572211	0.704372	0.196624
	H18	H	0.575892	0.269527	0.876412
	H19	H	0.372076	0.267778	0.196416
	H20	H	0.694087	0.823825	0.434904
	H21	H	0.695246	0.148910	0.637469
	H22	H	0.259280	0.825626	0.637128
	H23	H	0.258545	0.148670	0.430585
	H24	H	0.871276	0.326310	0.255362
	H25	H	0.075833	0.650536	0.254644
	H26	H	0.077908	0.326087	0.818087
	H27	H	0.868903	0.648867	0.818087
	H28	H	0.195132	0.883222	0.375707
	H29	H	0.198024	0.090567	0.694386
	H30	H	0.759505	0.088647	0.375996
	H31	H	0.754924	0.881523	0.694935
	H32	H	0.313155	0.203950	0.932922
	H33	H	0.636282	0.204643	0.133856
	H34	H	0.311559	0.773957	0.133103
	H35	H	0.635770	0.767383	0.934779
	H36	H	0.316611	0.880477	0.257355
	H37	H	0.637817	0.089249	0.251759
	H38	H	0.317287	0.091763	0.812657
	H39	H	0.636217	0.881152	0.816473
	H40	H	0.878061	0.203662	0.375673
	H41	H	0.079966	0.205704	0.696084
	H42	H	0.076726	0.768033	0.376466
	H43	H	0.874845	0.769838	0.697416
	H44	H	0.190067	0.324740	0.936964
	H45	H	0.190057	0.649783	0.138930
	H46	H	0.757829	0.325200	0.136980
	H47	H	0.756138	0.649986	0.935461
	H48	H	0.390315	0.104817	0.633784
	H49	H	0.565612	0.867950	0.637595
	H50	H	0.565224	0.103246	0.441822
	H51	H	0.383927	0.870121	0.445194
	H52	H	0.566164	0.400271	0.149162
	H53	H	0.571282	0.574846	0.920942
	H54	H	0.385118	0.580521	0.149114
	H55	H	0.380685	0.395404	0.922460
	H56	H	0.088196	0.573366	0.446866
	H57	H	0.860665	0.578683	0.627892
	H58	H	0.089853	0.395366	0.627445
	H59	H	0.858603	0.392189	0.442840
	H60	H	0.087420	0.402776	0.626296
	H61	H	0.862564	0.576314	0.626918
	H62	H	0.089935	0.577174	0.443368
	H63	H	0.862650	0.396639	0.451480
	H64	H	0.378673	0.582850	0.151696
	H65	H	0.560199	0.570902	0.925770
	H66	H	0.561154	0.395434	0.149080
	H67	H	0.380002	0.399137	0.924419
	H68	H	0.568366	0.101132	0.446162
	H69	H	0.556062	0.877180	0.619250
	H70	H	0.397068	0.098538	0.619603
	H71	H	0.389992	0.871350	0.441712
	H72	H	0.884178	0.604242	0.131217
	H73	H	0.062369	0.369774	0.135363
	H74	H	0.058030	0.601598	0.946774
	H75	H	0.882441	0.374281	0.954823
	H76	H	0.076548	0.902225	0.649854
	H77	H	0.063512	0.076427	0.424259
	H78	H	0.886937	0.078974	0.649558
	H79	H	0.878576	0.895675	0.420318
	H80	H	0.589129	0.076343	0.946370
	H81	H	0.360373	0.073133	0.131356
	H82	H	0.589295	0.891853	0.120300
	H83	H	0.366428	0.907024	0.950012
	H84	H	0.587503	0.903615	0.125929
	H85	H	0.359760	0.081385	0.128141
	H86	H	0.589373	0.076443	0.944195
	H87	H	0.358932	0.901908	0.931495
	H88	H	0.884462	0.077373	0.650802
	H89	H	0.068754	0.085376	0.419051
	H90	H	0.062972	0.901065	0.646321
	H91	H	0.887727	0.902529	0.426520
	H92	H	0.061127	0.600520	0.951237
	H93	H	0.055922	0.375637	0.125338
	H94	H	0.884185	0.603576	0.126751
	H95	H	0.878547	0.368579	0.942079
	H96	H	0.381429	0.103573	0.619941
	H97	H	0.577002	0.869856	0.618733
	H98	H	0.570730	0.103827	0.441949
	H99	H	0.389690	0.873047	0.448502
	H100	H	0.567669	0.393667	0.151665
	H101	H	0.561365	0.583398	0.921323
	H102	H	0.379855	0.576337	0.148752
	H103	H	0.383274	0.397741	0.924327
	H104	H	0.088995	0.578743	0.448078
	H105	H	0.860113	0.575777	0.629222
	H106	H	0.090390	0.400243	0.633752
	H107	H	0.861403	0.402306	0.442828
	H108	H	0.880138	0.605849	0.129021
	H109	H	0.069143	0.371961	0.123675
	H110	H	0.063655	0.603503	0.947765
	H111	H	0.892012	0.374443	0.944458
	H112	H	0.069791	0.889669	0.652513
	H113	H	0.074494	0.075534	0.420872
	H114	H	0.886682	0.075983	0.649030
	H115	H	0.890294	0.890154	0.422959
	H116	H	0.590058	0.078563	0.945622
	H117	H	0.362572	0.074579	0.123492
	H118	H	0.593240	0.894100	0.132277
	H119	H	0.358672	0.888167	0.946545
	C120	C	0.356870	-0.004041	0.655593
	C121	C	0.598505	0.978218	0.656424
	C122	C	0.599074	-0.004715	0.413357
	C123	C	0.356253	0.978147	0.413521
	C124	C	0.595693	0.365459	0.044697
	C125	C	0.594086	0.607967	1.028018
	C126	C	0.350087	0.610127	0.044525
	C127	C	0.350894	0.365532	1.028744
	C128	C	-0.016980	0.608598	0.416277
	C129	C	0.966605	0.609187	0.660037
	C130	C	-0.016642	0.366307	0.659305
	C131	C	0.967052	0.366456	0.414741
	C132	C	0.852148	0.497234	0.159130
	C133	C	0.093973	0.479320	0.158847
	C134	C	0.093250	0.495419	0.917314
	C135	C	0.852810	0.479067	0.916085
	C136	C	0.099489	0.865480	0.544187
	C137	C	0.099937	0.109949	0.527032
	C138	C	0.855895	0.107983	0.544202
	C139	C	0.855071	0.865596	0.528627
	C140	C	0.483908	0.108730	0.913641
	C141	C	0.467427	0.107745	0.156861
	C142	C	0.483587	0.865919	0.156519
	C143	C	0.466847	0.866025	0.912706
	C144	C	0.353418	0.874855	0.714879
	C145	C	0.601374	0.099033	0.716319
	C146	C	0.600092	0.873363	0.355776
	C147	C	0.355252	0.099751	0.354946
	C148	C	0.655038	0.363842	0.925674
	C149	C	0.652722	0.610597	0.147855
	C150	C	0.291044	0.609749	0.924852
	C151	C	0.293318	0.364414	0.148703
	C152	C	0.861845	0.666593	0.417874
	C153	C	0.087644	0.667369	0.660844
	C154	C	0.862554	0.307796	0.657118
	C155	C	0.088405	0.309253	0.414602
	C156	C	0.862864	0.362953	0.717325
	C157	C	0.086384	0.611653	0.720579
	C158	C	0.862443	0.611304	0.357720
	C159	C	0.086804	0.364908	0.354853
	C160	C	0.349234	0.667647	0.924269
	C161	C	0.592810	0.666360	0.148225
	C162	C	0.595420	0.307872	0.924531
	C163	C	0.351917	0.306819	0.148661
	C164	C	0.655980	0.872814	0.414860
	C165	C	0.656735	0.099913	0.657064
	C166	C	0.297690	0.874397	0.656301
	C167	C	0.297892	0.100099	0.412267
	C168	C	0.851842	0.374904	0.216494
	C169	C	0.094407	0.601872	0.215698
	C170	C	0.095920	0.374278	0.857752
	C171	C	0.850941	0.600661	0.857557
	C172	C	0.156358	0.864502	0.423879
	C173	C	0.158526	0.109803	0.646888
	C174	C	0.798498	0.107985	0.423824
	C175	C	0.795357	0.863939	0.647918
	C176	C	0.362110	0.165859	0.913323
	C177	C	0.588661	0.165592	0.154596
	C178	C	0.361172	0.810522	0.154431
	C179	C	0.587575	0.806243	0.914093
	C180	C	0.363694	0.863795	0.216236
	C181	C	0.589176	0.108451	0.213218
	C182	C	0.364228	0.110078	0.853413
	C183	C	0.587997	0.863237	0.855564
	C184	C	0.857281	0.165307	0.423597
	C185	C	0.100004	0.167302	0.647655
	C186	C	0.097407	0.807067	0.424336
	C187	C	0.855194	0.808385	0.649299
	C188	C	0.151640	0.373524	0.916977
	C189	C	0.151802	0.601322	0.158484
	C190	C	0.795819	0.374143	0.157290
	C191	C	0.795081	0.601390	0.916190
	C192	C	0.382210	0.080342	0.631466
	C193	C	0.573489	0.893633	0.632323
	C194	C	0.575163	0.080663	0.436574
	C195	C	0.380577	0.893522	0.438084
	C196	C	0.571659	0.389515	0.128425
	C197	C	0.570850	0.583445	0.944236
	C198	C	0.374319	0.586752	0.128155
	C199	C	0.374535	0.390266	0.945490
	C200	C	0.067321	0.583590	0.439566
	C201	C	0.882826	0.584151	0.635288
	C202	C	0.067405	0.391969	0.636104
	C203	C	0.882764	0.390200	0.438863
	C204	C	0.875857	0.582333	0.135904
	C205	C	0.069530	0.394302	0.135168
	C206	C	0.068141	0.580143	0.941594
	C207	C	0.877331	0.394281	0.940096
	C208	C	0.076355	0.890329	0.627852
	C209	C	0.075818	0.086246	0.443266
	C210	C	0.879209	0.084325	0.627950
	C211	C	0.878862	0.889138	0.444965
	C212	C	0.567720	0.084304	0.938289
	C213	C	0.382871	0.083406	0.134224
	C214	C	0.568156	0.889661	0.132965
	C215	C	0.382981	0.891695	0.935830
	Zn216	Zn	0.477136	-0.012933	0.783708
	Zn217	Zn	0.477143	-0.013710	0.286050
	Zn218	Zn	0.724546	0.487783	0.036636
	Zn219	Zn	0.221699	0.487527	0.037739
	Zn220	Zn	-0.024197	0.737036	0.537858
	Zn221	Zn	-0.022984	0.237982	0.536828
	Zn222	Zn	-0.026370	0.487754	0.788333
	Zn223	Zn	-0.025892	0.488626	0.286585
	Zn224	Zn	0.473484	0.737990	0.034960
	Zn225	Zn	0.473798	0.237158	0.035670
	Zn226	Zn	0.725937	-0.013309	0.535814
	Zn227	Zn	0.228993	-0.012564	0.535065
	N228	N	0.389594	0.951474	0.714661
	N229	N	0.565919	0.022143	0.716131
	N230	N	0.565515	0.950563	0.354706
	N231	N	0.390670	0.022957	0.355573
	N232	N	0.655390	0.398928	1.001586
	N233	N	0.653721	0.575119	0.072216
	N234	N	0.291539	0.574671	1.000773
	N235	N	0.292498	0.400087	0.073295
	N236	N	0.937875	0.664947	0.453711
	N237	N	0.012126	0.666128	0.624112
	N238	N	0.938720	0.309367	0.621891
	N239	N	0.013016	0.310354	0.451496
	N240	N	0.938949	0.398845	0.718594
	N241	N	0.010226	0.575996	0.720055
	N242	N	0.938675	0.575802	0.356835
	N243	N	0.010219	0.399855	0.354900
	N244	N	0.385253	0.667985	0.999390
	N245	N	0.556922	0.664872	0.072611
	N246	N	0.559154	0.308970	0.999613
	N247	N	0.386886	0.307239	0.072952
	N248	N	0.655659	0.949843	0.449880
	N249	N	0.655059	0.023854	0.620647
	N250	N	0.299792	0.950639	0.620029
	N251	N	0.298285	0.023500	0.448113
	N252	N	0.885979	0.452287	0.217801
	N253	N	0.059374	0.524769	0.216044
	N254	N	0.060463	0.451173	0.857912
	N255	N	0.885963	0.523512	0.857173
	N256	N	0.157847	0.899973	0.499577
	N257	N	0.158697	0.075012	0.570852
	N258	N	0.797523	0.073141	0.499781
	N259	N	0.795365	0.899130	0.572022
	N260	N	0.437521	0.165177	0.950121
	N261	N	0.512080	0.165145	0.120411
	N262	N	0.436667	0.811824	0.117846
	N263	N	0.511184	0.807742	0.948941
	N264	N	0.440790	0.897592	0.217572
	N265	N	0.512677	0.073081	0.214727
	N266	N	0.440783	0.075399	0.853309
	N267	N	0.512016	0.899424	0.854504
	N268	N	0.892282	0.165553	0.499369
	N269	N	0.064464	0.167640	0.572097
	N270	N	0.062707	0.807573	0.500195
	N271	N	0.891549	0.809463	0.574356
	N272	N	0.149977	0.449823	0.953319
	N273	N	0.151636	0.524066	0.123925
	N274	N	0.795349	0.451331	0.122674
	N275	N	0.795824	0.524691	0.951583
	O276	O	0.418869	0.386540	0.615595
	H277	H	0.419701	0.380134	0.626569
	H278	H	0.400616	0.389385	0.613673
	O279	O	0.603036	0.333694	0.374255
	H280	H	0.602691	0.325104	0.375219
	H281	H	0.605148	0.312767	0.361701
	O282	O	0.885182	0.109139	1.152144
	H283	H	0.885327	0.106967	1.155509
	H284	H	0.888602	0.100096	1.137016
	O285	O	0.947786	-0.121666	0.117229
	H286	H	0.941449	-0.118548	0.114054
	H287	H	0.949363	-0.123541	0.116182
	O288	O	0.922026	0.900639	1.129066
	H289	H	0.906587	0.889942	1.127740
	H290	H	0.924753	0.896834	1.118572
	O291	O	0.667809	1.602127	0.674657
	H292	H	0.667478	1.601967	0.641579
	H293	H	0.658182	1.599065	0.679889
	O294	O	0.275647	0.523230	0.542825
	H295	H	0.278485	0.531225	0.554470
	H296	H	0.274410	0.527462	0.542291
	O297	O	0.381942	0.470801	0.418413
	H298	H	0.369384	0.464517	0.409277
	H299	H	0.387105	0.457744	0.418826
	O300	O	0.912873	0.059917	-0.151559
	H301	H	0.890673	0.068921	-0.146634
	H302	H	0.919981	0.074224	-0.152304
	O303	O	0.613994	0.390753	0.414776
	H304	H	0.624163	0.396568	0.416836
	H305	H	0.629830	0.384354	0.428414
	O306	O	0.276665	1.317307	0.639396
	H307	H	0.250850	1.304035	0.632587
	H308	H	0.280791	1.335858	0.658632
	O309	O	0.279523	0.411765	0.451550
	H310	H	0.274742	0.399440	0.442118
	H311	H	0.277898	0.413645	0.471313
	O312	O	0.527421	0.589246	0.666942
	H313	H	0.545057	0.577893	0.656236
	H314	H	0.526241	0.594109	0.682645
	O315	O	0.664852	0.523909	0.435303
	H316	H	0.655842	0.508735	0.427800
	H317	H	0.679923	0.512718	0.426541
	O318	O	-0.064175	1.135661	0.988984
	H319	H	-0.060723	1.124345	0.990751
	H320	H	-0.070932	1.143983	0.987561
	O321	O	0.511030	0.574988	0.505279
	H322	H	0.514556	0.588540	0.485129
	H323	H	0.495511	0.560288	0.490057
	O324	O	-0.051008	0.071270	-1.053579
	H325	H	-0.058904	0.088399	-1.053931
	H326	H	-0.043450	0.073263	-1.052697
	O327	O	0.030752	1.145490	0.140216
	H328	H	0.041220	1.122776	0.144350
	H329	H	0.007284	1.136932	0.142089
	O330	O	0.122167	-0.006062	1.152111
	H331	H	0.125736	-0.014062	1.137464
	H332	H	0.126337	-0.008316	1.167069
	O333	O	0.010734	0.053907	1.079864
	H334	H	0.014307	0.061591	1.083318
	H335	H	0.024082	0.067594	1.068606
	O336	O	0.374865	1.628765	-0.458767
	H337	H	0.382348	1.646573	-0.454754
	H338	H	0.377706	1.625896	-0.478873
	O339	O	0.918765	-0.097242	0.055068
	H340	H	0.928040	-0.093698	0.065977
	H341	H	0.920552	-0.116217	0.051336
	O342	O	-0.083328	-0.118952	-0.033635
	H343	H	-0.091131	-0.110160	-0.038225
	H344	H	-0.080268	-0.128288	-0.041019
	O345	O	0.985113	0.089751	1.132038
	H346	H	0.978147	0.091773	1.136209
	H347	H	0.975151	0.081453	1.128212
	O348	O	1.095848	0.893335	-0.068879
	H349	H	1.094198	0.901101	-0.069595
	H350	H	1.109283	0.876844	-0.073756
	O351	O	0.432222	0.563391	0.613038
	H352	H	0.428401	0.564318	0.623688
	H353	H	0.425454	0.564249	0.610047
	O354	O	0.576434	0.379649	1.443482
	H355	H	0.572083	0.375690	1.447608
	H356	H	0.571844	0.367850	1.453082
	O357	O	0.533950	0.507923	0.352620
	H358	H	0.513365	0.503051	0.343955
	H359	H	0.529239	0.503797	0.364533
	O360	O	1.458447	-0.690438	-0.320453
	H361	H	1.459241	-0.694570	-0.311180
	H362	H	1.441751	-0.684768	-0.323488
	O363	O	0.065627	0.868499	1.021008
	H364	H	0.059574	0.853033	1.004048
	H365	H	0.081663	0.861492	1.011972
	O366	O	0.541054	0.572317	0.547891
	H367	H	0.554064	0.571167	0.542675
	H368	H	0.547505	0.564627	0.553844
	O369	O	0.130940	0.025532	-1.025521
	H370	H	0.139364	0.025606	-1.020258
	H371	H	0.135187	0.022385	-1.007219
	O372	O	0.451954	0.438691	0.648675
	H373	H	0.455577	0.461246	0.663361
	H374	H	0.463233	0.431636	0.631807
	O375	O	0.503567	0.691120	0.649934
	H376	H	0.505363	0.680357	0.650629
	H377	H	0.517593	0.704402	0.661493
	O378	O	1.365886	1.577912	-0.620793
	H379	H	1.362661	1.569411	-0.624310
	H380	H	1.366344	1.587002	-0.617917
	O381	O	0.972731	-0.069063	-0.110525
	H382	H	0.977330	-0.058253	-0.120175
	H383	H	0.969897	-0.067045	-0.120149
	O384	O	1.071505	1.173548	0.124967
	H385	H	1.067787	1.167361	0.154544
	H386	H	1.082813	1.190773	0.125938
	O387	O	1.035742	-0.050015	-0.086871
	H388	H	1.049319	-0.049335	-0.082491
	H389	H	1.025692	-0.038705	-0.085987
	O390	O	0.314462	1.555381	-0.501560
	H391	H	0.302844	1.560679	-0.505138
	H392	H	0.319014	1.564691	-0.497790
	O393	O	0.795456	1.005571	1.007952
	H394	H	0.808974	0.997220	0.991079
	H395	H	0.789194	1.006455	1.005415
	O396	O	-0.018848	-0.020105	0.050356
	H397	H	-0.018890	-0.014930	0.044040
	H398	H	-0.014528	-0.012261	0.062502
	O399	O	0.442176	0.591786	0.589023
	H400	H	0.437644	0.578934	0.585349
	H401	H	0.444124	0.584170	0.589863
	O402	O	0.574295	0.500723	0.476831
	H403	H	0.584936	0.483802	0.482395
	H404	H	0.551614	0.495487	0.465105
	O405	O	1.005803	0.872253	0.082226
	H406	H	1.010179	0.876037	0.081968
	H407	H	0.983588	0.860730	0.077671
	O408	O	1.460530	1.364411	-0.319968
	H409	H	1.474256	1.376698	-0.315492
	H410	H	1.467915	1.356299	-0.316693
	O411	O	0.847479	-0.004846	1.000862
	H412	H	0.833364	-0.015080	1.005379
	H413	H	0.857256	-0.008448	1.000527
	O414	O	0.633152	0.439901	0.716218
	H415	H	0.624427	0.463311	0.701421
	H416	H	0.655428	0.460876	0.734315
	O417	O	0.495479	0.313922	0.378185
	H418	H	0.496000	0.305157	0.388587
	H419	H	0.478036	0.330874	0.371918
