data_Molecule from HDF5

_cell_length_a		16.388882
_cell_length_b		16.312515
_cell_length_c		16.297096
_cell_angle_alpha	90.007671
_cell_angle_beta	89.914571
_cell_angle_gamma	89.981852
_symmetry_space_group_name_H-M	'P 1'
_symmetry_Int_Tables_number		1

loop_
	_symmetry_equiv_pos_as_xyz
	x,y,z

loop_
	_atom_site_label
	_atom_site_type_symbol
	_atom_site_fract_x
	_atom_site_fract_y
	_atom_site_fract_z
	H0	H	0.402965	0.835978	0.713406
	H1	H	0.598489	0.162876	0.714416
	H2	H	0.596699	0.836068	0.286853
	H3	H	0.402443	0.163867	0.285672
	H4	H	0.716692	0.400157	0.837092
	H5	H	0.715223	0.599858	0.162918
	H6	H	0.286504	0.598677	0.836728
	H7	H	0.284792	0.401540	0.162958
	H8	H	0.837224	0.714197	0.402629
	H9	H	0.163135	0.713796	0.597398
	H10	H	0.836548	0.285933	0.597821
	H11	H	0.162279	0.284613	0.401831
	H12	H	0.837260	0.402004	0.715378
	H13	H	0.163278	0.596221	0.713115
	H14	H	0.837451	0.597544	0.285792
	H15	H	0.162461	0.401363	0.284707
	H16	H	0.403455	0.713664	0.836284
	H17	H	0.598749	0.715338	0.163056
	H18	H	0.597901	0.286542	0.835990
	H19	H	0.401952	0.286343	0.163459
	H20	H	0.715097	0.836846	0.400337
	H21	H	0.714960	0.162924	0.598494
	H22	H	0.285165	0.836704	0.598782
	H23	H	0.283989	0.162761	0.399866
	H24	H	0.902567	0.336457	0.213893
	H25	H	0.097713	0.663560	0.214900
	H26	H	0.096332	0.336011	0.787120
	H27	H	0.902796	0.663636	0.786406
	H28	H	0.215585	0.900800	0.337265
	H29	H	0.213949	0.098163	0.663678
	H30	H	0.786492	0.098390	0.336510
	H31	H	0.783862	0.901480	0.663322
	H32	H	0.337343	0.214712	0.902418
	H33	H	0.662683	0.215242	0.097607
	H34	H	0.337835	0.784837	0.098507
	H35	H	0.662498	0.784949	0.900551
	H36	H	0.337603	0.901195	0.215247
	H37	H	0.662995	0.097922	0.213528
	H38	H	0.336857	0.097950	0.785941
	H39	H	0.662347	0.901700	0.784231
	H40	H	0.903382	0.213628	0.336724
	H41	H	0.097347	0.213698	0.664029
	H42	H	0.097554	0.786664	0.336353
	H43	H	0.902302	0.786935	0.664358
	H44	H	0.214415	0.336238	0.902344
	H45	H	0.214631	0.663467	0.099156
	H46	H	0.784154	0.337320	0.099960
	H47	H	0.784597	0.662958	0.900891
	H48	H	0.407901	0.116093	0.595503
	H49	H	0.592885	0.883155	0.597383
	H50	H	0.596217	0.115577	0.411280
	H51	H	0.406455	0.885231	0.409956
	H52	H	0.588665	0.407343	0.114551
	H53	H	0.599139	0.590686	0.882648
	H54	H	0.403860	0.587870	0.116084
	H55	H	0.398673	0.418150	0.884640
	H56	H	0.118223	0.597424	0.403727
	H57	H	0.885322	0.592115	0.592386
	H58	H	0.116812	0.404466	0.596709
	H59	H	0.882863	0.400356	0.409386
	H60	H	0.114068	0.405360	0.589752
	H61	H	0.884132	0.593390	0.595891
	H62	H	0.114523	0.595335	0.411061
	H63	H	0.886753	0.411135	0.410727
	H64	H	0.412173	0.592606	0.114963
	H65	H	0.588982	0.588222	0.886342
	H66	H	0.594258	0.404454	0.117176
	H67	H	0.419357	0.406999	0.887521
	H68	H	0.596563	0.118477	0.401857
	H69	H	0.589687	0.885571	0.589529
	H70	H	0.406624	0.115428	0.589986
	H71	H	0.405180	0.883802	0.405913
	H72	H	0.903979	0.619454	0.100564
	H73	H	0.089874	0.385832	0.090102
	H74	H	0.091346	0.616316	0.903585
	H75	H	0.906203	0.383133	0.905184
	H76	H	0.089305	0.902633	0.616500
	H77	H	0.102176	0.089544	0.382412
	H78	H	0.906383	0.093692	0.617370
	H79	H	0.912109	0.912974	0.387415
	H80	H	0.617375	0.101927	0.908112
	H81	H	0.385774	0.093454	0.089882
	H82	H	0.615154	0.905834	0.090521
	H83	H	0.381305	0.903961	0.899200
	H84	H	0.615469	0.909399	0.094066
	H85	H	0.385026	0.090544	0.095864
	H86	H	0.612189	0.087982	0.912621
	H87	H	0.384965	0.900588	0.913820
	H88	H	0.904866	0.092343	0.616431
	H89	H	0.086766	0.086379	0.387959
	H90	H	0.098695	0.906329	0.618321
	H91	H	0.909298	0.897771	0.382459
	H92	H	0.093736	0.615231	0.909972
	H93	H	0.098226	0.383625	0.090548
	H94	H	0.915797	0.612797	0.092084
	H95	H	0.911717	0.385472	0.909006
	H96	H	0.402546	0.116964	0.594180
	H97	H	0.597505	0.882766	0.590231
	H98	H	0.588312	0.115101	0.406149
	H99	H	0.409618	0.884808	0.406338
	H100	H	0.594711	0.410931	0.115068
	H101	H	0.591041	0.598555	0.882486
	H102	H	0.404480	0.597043	0.118155
	H103	H	0.400664	0.395559	0.878125
	H104	H	0.115150	0.589392	0.405031
	H105	H	0.883979	0.595783	0.592703
	H106	H	0.114355	0.410968	0.594784
	H107	H	0.882938	0.407572	0.400060
	H108	H	0.901410	0.615831	0.085170
	H109	H	0.093133	0.383054	0.097306
	H110	H	0.097899	0.618000	0.905419
	H111	H	0.905403	0.385476	0.912014
	H112	H	0.091635	0.912686	0.614177
	H113	H	0.090853	0.101516	0.382436
	H114	H	0.906459	0.092355	0.616064
	H115	H	0.897628	0.908641	0.382192
	H116	H	0.617478	0.089685	0.898008
	H117	H	0.383128	0.097052	0.095308
	H118	H	0.616956	0.904767	0.095222
	H119	H	0.387414	0.914803	0.908153
	C120	C	0.377929	0.008204	0.621467
	C121	C	0.621206	0.991861	0.620677
	C122	C	0.621762	0.008402	0.377921
	C123	C	0.378378	0.992213	0.378425
	C124	C	0.621323	0.378918	0.007782
	C125	C	0.621494	0.621250	0.991658
	C126	C	0.378884	0.621421	0.008314
	C127	C	0.378002	0.378337	0.991441
	C128	C	0.008233	0.621952	0.378450
	C129	C	0.992121	0.621568	0.621661
	C130	C	0.007772	0.378261	0.622184
	C131	C	0.991696	0.378057	0.378464
	C132	C	0.878526	0.508111	0.121230
	C133	C	0.121868	0.492130	0.121482
	C134	C	0.122009	0.508361	0.878418
	C135	C	0.878937	0.492001	0.879117
	C136	C	0.121705	0.878400	0.508354
	C137	C	0.121321	0.120939	0.492209
	C138	C	0.878139	0.121189	0.508330
	C139	C	0.878093	0.878469	0.492113
	C140	C	0.508056	0.121596	0.878237
	C141	C	0.492038	0.121831	0.121716
	C142	C	0.508336	0.878465	0.121525
	C143	C	0.491881	0.878218	0.878189
	C144	C	0.381693	0.884957	0.675923
	C145	C	0.618734	0.114402	0.676131
	C146	C	0.618084	0.885090	0.323916
	C147	C	0.381332	0.114832	0.323252
	C148	C	0.677660	0.380397	0.885370
	C149	C	0.676907	0.619554	0.114342
	C150	C	0.324457	0.618869	0.885256
	C151	C	0.323175	0.381209	0.114484
	C152	C	0.885810	0.676498	0.381648
	C153	C	0.114452	0.676288	0.618666
	C154	C	0.885293	0.323557	0.619076
	C155	C	0.113951	0.322926	0.381068
	C156	C	0.885513	0.380945	0.677390
	C157	C	0.114528	0.617948	0.676268
	C158	C	0.885708	0.618253	0.324047
	C159	C	0.113889	0.380727	0.322909
	C160	C	0.382496	0.675981	0.885142
	C161	C	0.618798	0.676592	0.114671
	C162	C	0.618854	0.323880	0.884887
	C163	C	0.381285	0.324010	0.114524
	C164	C	0.676639	0.885488	0.380432
	C165	C	0.676215	0.114657	0.618134
	C166	C	0.323342	0.885186	0.618819
	C167	C	0.322657	0.114511	0.380319
	C168	C	0.881705	0.385197	0.175993
	C169	C	0.118330	0.615073	0.176516
	C170	C	0.118140	0.384773	0.824483
	C171	C	0.881857	0.614880	0.823720
	C172	C	0.176964	0.880720	0.385674
	C173	C	0.176122	0.118515	0.615109
	C174	C	0.824078	0.118758	0.385328
	C175	C	0.822553	0.881316	0.614782
	C176	C	0.385741	0.176572	0.881674
	C177	C	0.614129	0.177288	0.118714
	C178	C	0.386058	0.822994	0.119045
	C179	C	0.614014	0.822832	0.879968
	C180	C	0.386085	0.880841	0.176833
	C181	C	0.614484	0.118950	0.176175
	C182	C	0.385713	0.118933	0.823493
	C183	C	0.613903	0.880837	0.822315
	C184	C	0.881959	0.176120	0.385589
	C185	C	0.118267	0.175954	0.615301
	C186	C	0.118651	0.823845	0.385295
	C187	C	0.880928	0.824087	0.615239
	C188	C	0.176517	0.385104	0.881709
	C189	C	0.176743	0.614733	0.119311
	C190	C	0.822776	0.385777	0.119502
	C191	C	0.823350	0.614546	0.880580
	C192	C	0.399376	0.094015	0.599613
	C193	C	0.599582	0.906046	0.598619
	C194	C	0.600090	0.094270	0.400125
	C195	C	0.400519	0.906518	0.400860
	C196	C	0.599116	0.401052	0.093413
	C197	C	0.599413	0.599025	0.905915
	C198	C	0.400496	0.599212	0.094128
	C199	C	0.399893	0.400340	0.905561
	C200	C	0.093851	0.600393	0.400047
	C201	C	0.906601	0.600058	0.599924
	C202	C	0.093123	0.400376	0.600102
	C203	C	0.906194	0.399971	0.400371
	C204	C	0.900669	0.593890	0.099092
	C205	C	0.099926	0.406212	0.099329
	C206	C	0.100635	0.594359	0.899902
	C207	C	0.901147	0.406662	0.901867
	C208	C	0.099555	0.900694	0.594235
	C209	C	0.099640	0.098941	0.406437
	C210	C	0.899666	0.099297	0.594450
	C211	C	0.899889	0.900208	0.406153
	C212	C	0.593543	0.099714	0.899911
	C213	C	0.406656	0.100071	0.100126
	C214	C	0.593727	0.900236	0.099653
	C215	C	0.406444	0.900065	0.900520
	Zn216	Zn	0.499690	0.000051	0.749376
	Zn217	Zn	0.500268	0.000113	0.250174
	Zn218	Zn	0.749934	0.500157	-0.000019
	Zn219	Zn	0.250583	0.500142	-0.000099
	Zn220	Zn	-0.000203	0.750716	0.500120
	Zn221	Zn	-0.000115	0.249551	0.500544
	Zn222	Zn	-0.000121	0.499964	0.750514
	Zn223	Zn	0.000017	0.500156	0.249589
	Zn224	Zn	0.500317	0.749865	0.000355
	Zn225	Zn	0.499851	0.250357	-0.000034
	Zn226	Zn	0.749832	0.000029	0.499488
	Zn227	Zn	0.249710	-0.000131	0.499939
	N228	N	0.414953	0.962320	0.677669
	N229	N	0.585383	0.037116	0.677773
	N230	N	0.584762	0.962486	0.322254
	N231	N	0.415471	0.037832	0.322252
	N232	N	0.679239	0.413961	0.962693
	N233	N	0.678544	0.585747	0.036887
	N234	N	0.321922	0.585675	0.962835
	N235	N	0.321072	0.414172	0.036904
	N236	N	0.962896	0.678668	0.414798
	N237	N	0.037455	0.678420	0.585422
	N238	N	0.962368	0.321753	0.585638
	N239	N	0.037041	0.321291	0.414912
	N240	N	0.962520	0.414280	0.679362
	N241	N	0.037547	0.584401	0.678089
	N242	N	0.962928	0.585104	0.321946
	N243	N	0.036965	0.414390	0.321285
	N244	N	0.415724	0.677534	0.962506
	N245	N	0.585253	0.677942	0.037524
	N246	N	0.584466	0.322798	0.961919
	N247	N	0.414906	0.322405	0.037196
	N248	N	0.679151	0.963169	0.413320
	N249	N	0.678009	0.037354	0.584453
	N250	N	0.320842	0.962758	0.585746
	N251	N	0.320855	0.037203	0.413991
	N252	N	0.915560	0.462329	0.177218
	N253	N	0.085013	0.537664	0.178028
	N254	N	0.084814	0.462163	0.822481
	N255	N	0.915873	0.537788	0.822905
	N256	N	0.178890	0.913818	0.463099
	N257	N	0.178145	0.085167	0.537559
	N258	N	0.821593	0.085388	0.462748
	N259	N	0.820691	0.914355	0.537140
	N260	N	0.462716	0.178186	0.914990
	N261	N	0.537208	0.179007	0.085550
	N262	N	0.463070	0.821318	0.085508
	N263	N	0.537208	0.821243	0.914240
	N264	N	0.462941	0.914653	0.178468
	N265	N	0.537483	0.085305	0.178304
	N266	N	0.462699	0.085332	0.821351
	N267	N	0.537040	0.914678	0.821195
	N268	N	0.914964	0.177592	0.463172
	N269	N	0.084851	0.177537	0.537995
	N270	N	0.084960	0.822302	0.462721
	N271	N	0.914824	0.822368	0.538039
	N272	N	0.178917	0.462902	0.914533
	N273	N	0.178963	0.537367	0.085971
	N274	N	0.820757	0.463217	0.086108
	N275	N	0.821335	0.537447	0.914361
