data_Molecule from HDF5

_cell_length_a		16.542426
_cell_length_b		16.501299
_cell_length_c		16.508642
_cell_angle_alpha	89.948605
_cell_angle_beta	89.832270
_cell_angle_gamma	90.028754
_symmetry_space_group_name_H-M	'P 1'
_symmetry_Int_Tables_number		1

loop_
	_symmetry_equiv_pos_as_xyz
	x,y,z

loop_
	_atom_site_label
	_atom_site_type_symbol
	_atom_site_fract_x
	_atom_site_fract_y
	_atom_site_fract_z
	H0	H	0.377347	0.842652	0.707309
	H1	H	0.587207	0.157655	0.706289
	H2	H	0.590675	0.844413	0.262034
	H3	H	0.377490	0.157695	0.264819
	H4	H	0.705090	0.396568	0.828702
	H5	H	0.708765	0.610070	0.142530
	H6	H	0.260314	0.610253	0.830216
	H7	H	0.261373	0.395668	0.142589
	H8	H	0.826913	0.724703	0.376394
	H9	H	0.140105	0.723760	0.589121
	H10	H	0.827212	0.279495	0.591974
	H11	H	0.140439	0.281074	0.381957
	H12	H	0.828242	0.394576	0.709264
	H13	H	0.140791	0.608185	0.706444
	H14	H	0.825318	0.607312	0.262529
	H15	H	0.140192	0.397751	0.265431
	H16	H	0.378563	0.723885	0.829022
	H17	H	0.590509	0.724108	0.143229
	H18	H	0.590203	0.278903	0.829560
	H19	H	0.377505	0.278914	0.142997
	H20	H	0.707781	0.844661	0.376135
	H21	H	0.704159	0.157422	0.590093
	H22	H	0.260500	0.843042	0.592094
	H23	H	0.261280	0.157651	0.381845
	H24	H	0.877927	0.342412	0.206260
	H25	H	0.089548	0.657763	0.209433
	H26	H	0.090642	0.343706	0.764841
	H27	H	0.877281	0.656689	0.761425
	H28	H	0.208914	0.891296	0.329821
	H29	H	0.203506	0.106497	0.642555
	H30	H	0.760021	0.108296	0.328015
	H31	H	0.760729	0.894894	0.641429
	H32	H	0.326265	0.224702	0.881226
	H33	H	0.640321	0.222975	0.090083
	H34	H	0.327798	0.776370	0.095142
	H35	H	0.639624	0.779264	0.878897
	H36	H	0.327579	0.892454	0.211088
	H37	H	0.639982	0.108046	0.208169
	H38	H	0.325622	0.108915	0.764011
	H39	H	0.639093	0.897593	0.764303
	H40	H	0.875673	0.224675	0.328668
	H41	H	0.085572	0.220388	0.642421
	H42	H	0.091138	0.778011	0.327899
	H43	H	0.874710	0.775383	0.639852
	H44	H	0.205888	0.344205	0.881614
	H45	H	0.206561	0.658017	0.094627
	H46	H	0.760128	0.343927	0.092518
	H47	H	0.760712	0.656656	0.878091
	H48	H	0.395655	0.111515	0.572655
	H49	H	0.574225	0.888145	0.572805
	H50	H	0.563237	0.107450	0.401905
	H51	H	0.392145	0.884228	0.391247
	H52	H	0.577249	0.419476	0.097805
	H53	H	0.578418	0.588419	0.873033
	H54	H	0.397348	0.588545	0.097739
	H55	H	0.395835	0.412887	0.873858
	H56	H	0.094874	0.594664	0.399692
	H57	H	0.872256	0.584164	0.576310
	H58	H	0.098452	0.404030	0.573175
	H59	H	0.869521	0.410461	0.398006
	H60	H	0.094598	0.413971	0.570037
	H61	H	0.870591	0.591108	0.574647
	H62	H	0.090838	0.583217	0.400382
	H63	H	0.870852	0.413493	0.396015
	H64	H	0.395467	0.590208	0.098534
	H65	H	0.569129	0.586047	0.877935
	H66	H	0.564759	0.412094	0.096061
	H67	H	0.395065	0.414140	0.873996
	H68	H	0.578763	0.113237	0.403884
	H69	H	0.572483	0.886544	0.577826
	H70	H	0.389235	0.112998	0.572798
	H71	H	0.404438	0.891900	0.399415
	H72	H	0.902154	0.610352	0.074778
	H73	H	0.071149	0.390570	0.071785
	H74	H	0.075398	0.615625	0.892352
	H75	H	0.894576	0.388732	0.900086
	H76	H	0.070515	0.908916	0.598023
	H77	H	0.067928	0.086515	0.374140
	H78	H	0.890297	0.084691	0.596553
	H79	H	0.897904	0.918899	0.375827
	H80	H	0.594036	0.088131	0.894455
	H81	H	0.369617	0.098512	0.070814
	H82	H	0.593736	0.912359	0.070307
	H83	H	0.369660	0.914642	0.893056
	H84	H	0.593823	0.917361	0.074254
	H85	H	0.375630	0.082693	0.069814
	H86	H	0.594903	0.091507	0.894928
	H87	H	0.369266	0.907479	0.899898
	H88	H	0.897305	0.089848	0.595550
	H89	H	0.072570	0.093718	0.371509
	H90	H	0.071907	0.915474	0.595405
	H91	H	0.898716	0.907847	0.372725
	H92	H	0.067115	0.612218	0.896150
	H93	H	0.076536	0.388296	0.074082
	H94	H	0.893782	0.610750	0.067640
	H95	H	0.895539	0.388513	0.895017
	H96	H	0.392886	0.114208	0.578639
	H97	H	0.569061	0.889197	0.574200
	H98	H	0.570978	0.115351	0.389787
	H99	H	0.389894	0.889044	0.406878
	H100	H	0.576066	0.405621	0.102693
	H101	H	0.570733	0.595304	0.873863
	H102	H	0.394641	0.587459	0.097378
	H103	H	0.396877	0.414366	0.874343
	H104	H	0.095509	0.587754	0.390082
	H105	H	0.874289	0.586667	0.569494
	H106	H	0.098300	0.412644	0.580412
	H107	H	0.869625	0.410636	0.394353
	H108	H	0.892424	0.615195	0.078073
	H109	H	0.071226	0.388910	0.077554
	H110	H	0.075427	0.613060	0.901910
	H111	H	0.899043	0.390182	0.898577
	H112	H	0.065437	0.912331	0.594921
	H113	H	0.075948	0.085776	0.372119
	H114	H	0.890375	0.093206	0.599433
	H115	H	0.888964	0.913387	0.371318
	H116	H	0.593848	0.089995	0.897827
	H117	H	0.368655	0.088122	0.084177
	H118	H	0.595647	0.911389	0.075912
	H119	H	0.373121	0.916067	0.902003
	C120	C	0.360039	0.008773	0.607768
	C121	C	0.603928	0.991757	0.606997
	C122	C	0.604528	0.008990	0.364166
	C123	C	0.362062	0.991773	0.365634
	C124	C	0.605275	0.379870	-0.005317
	C125	C	0.606215	0.623431	0.978183
	C126	C	0.362671	0.622994	-0.005484
	C127	C	0.363007	0.380686	0.977587
	C128	C	-0.009189	0.622173	0.362765
	C129	C	0.975869	0.621462	0.605780
	C130	C	-0.006971	0.378685	0.607342
	C131	C	0.973906	0.379416	0.364012
	C132	C	0.862360	0.508434	0.106554
	C133	C	0.105082	0.493047	0.107363
	C134	C	0.105644	0.509675	0.864658
	C135	C	0.863383	0.492438	0.864232
	C136	C	0.103374	0.879280	0.492890
	C137	C	0.103576	0.120906	0.476632
	C138	C	0.860387	0.122520	0.493726
	C139	C	0.861595	0.879242	0.476229
	C140	C	0.490822	0.123018	0.864042
	C141	C	0.475275	0.122154	0.106974
	C142	C	0.491560	0.879765	0.107575
	C143	C	0.474232	0.880323	0.865173
	C144	C	0.358432	0.890196	0.667714
	C145	C	0.605855	0.110369	0.666443
	C146	C	0.608357	0.891404	0.302399
	C147	C	0.359185	0.110439	0.304980
	C148	C	0.665335	0.377962	0.876054
	C149	C	0.667814	0.627241	0.095458
	C150	C	0.300963	0.627557	0.877165
	C151	C	0.302082	0.377796	0.095813
	C152	C	0.873622	0.684111	0.358829
	C153	C	0.093183	0.683359	0.607665
	C154	C	0.874598	0.319325	0.610160
	C155	C	0.092921	0.320544	0.362661
	C156	C	0.875328	0.376658	0.668595
	C157	C	0.093622	0.625868	0.666101
	C158	C	0.872820	0.625314	0.302209
	C159	C	0.092803	0.378320	0.304619
	C160	C	0.359887	0.684203	0.876597
	C161	C	0.609342	0.684592	0.095731
	C162	C	0.608433	0.319269	0.876624
	C163	C	0.359869	0.319796	0.095970
	C164	C	0.666484	0.891442	0.359637
	C165	C	0.664122	0.110145	0.608887
	C166	C	0.300379	0.890285	0.610368
	C167	C	0.301416	0.110385	0.363162
	C168	C	0.859801	0.389989	0.166609
	C169	C	0.107688	0.610685	0.168899
	C170	C	0.108696	0.391241	0.804588
	C171	C	0.859883	0.609944	0.802519
	C172	C	0.166833	0.875132	0.376077
	C173	C	0.163239	0.123929	0.595076
	C174	C	0.800482	0.125729	0.375227
	C175	C	0.800674	0.876018	0.594199
	C176	C	0.373233	0.184397	0.862288
	C177	C	0.593322	0.182879	0.109056
	C178	C	0.374411	0.817484	0.112232
	C179	C	0.592393	0.820096	0.861784
	C180	C	0.374462	0.875207	0.170180
	C181	C	0.592985	0.125437	0.167618
	C182	C	0.372900	0.126784	0.803974
	C183	C	0.592162	0.878356	0.804201
	C184	C	0.857932	0.183851	0.375604
	C185	C	0.104649	0.180760	0.595063
	C186	C	0.108465	0.817941	0.375259
	C187	C	0.857312	0.816827	0.593205
	C188	C	0.166182	0.391534	0.862642
	C189	C	0.166178	0.610787	0.111823
	C190	C	0.800945	0.390713	0.110124
	C191	C	0.801698	0.609713	0.860338
	C192	C	0.385327	0.091282	0.582189
	C193	C	0.579011	0.909205	0.582245
	C194	C	0.578479	0.090654	0.390889
	C195	C	0.387970	0.909899	0.391626
	C196	C	0.580087	0.405074	0.077232
	C197	C	0.580362	0.597457	0.896261
	C198	C	0.388530	0.596512	0.076399
	C199	C	0.388834	0.406367	0.895603
	C200	C	0.072390	0.595978	0.388984
	C201	C	0.893851	0.595073	0.580418
	C202	C	0.075706	0.403245	0.581844
	C203	C	0.891695	0.404214	0.388995
	C204	C	0.888516	0.590639	0.080805
	C205	C	0.080042	0.410714	0.081642
	C206	C	0.080015	0.592289	0.889523
	C207	C	0.889174	0.410567	0.890452
	C208	C	0.076954	0.904959	0.574769
	C209	C	0.079210	0.095739	0.394234
	C210	C	0.885455	0.096804	0.575855
	C211	C	0.887649	0.905769	0.394479
	C212	C	0.572873	0.097398	0.888712
	C213	C	0.392914	0.096849	0.081919
	C214	C	0.573118	0.906114	0.081036
	C215	C	0.392068	0.905392	0.891009
	Zn216	Zn	0.481515	0.001285	0.735616
	Zn217	Zn	0.482963	0.001132	0.236171
	Zn218	Zn	0.734084	0.500641	-0.013967
	Zn219	Zn	0.233830	0.501826	-0.013654
	Zn220	Zn	-0.017242	0.750134	0.483922
	Zn221	Zn	-0.017363	0.250290	0.485092
	Zn222	Zn	-0.014524	0.500797	0.735238
	Zn223	Zn	-0.017626	0.500811	0.235086
	Zn224	Zn	0.483832	0.751168	-0.013543
	Zn225	Zn	0.483844	0.251864	-0.013866
	Zn226	Zn	0.732758	0.000581	0.484854
	Zn227	Zn	0.232430	-0.000334	0.485937
	N228	N	0.394731	0.965167	0.666329
	N229	N	0.569007	0.035791	0.665329
	N230	N	0.570522	0.965371	0.305162
	N231	N	0.395727	0.035668	0.306108
	N232	N	0.663356	0.415029	0.950568
	N233	N	0.666409	0.590150	0.020969
	N234	N	0.302267	0.590286	0.951654
	N235	N	0.303757	0.414848	0.021228
	N236	N	0.948110	0.682610	0.395430
	N237	N	0.018611	0.680977	0.571026
	N238	N	0.948930	0.320293	0.572749
	N239	N	0.017973	0.320913	0.398751
	N240	N	0.950080	0.412703	0.666904
	N241	N	0.019614	0.588252	0.665137
	N242	N	0.946767	0.587754	0.304309
	N243	N	0.017820	0.413961	0.305078
	N244	N	0.397077	0.681804	0.950748
	N245	N	0.571963	0.682586	0.021570
	N246	N	0.571828	0.320375	0.951438
	N247	N	0.396977	0.321401	0.021539
	N248	N	0.664103	0.965577	0.397447
	N249	N	0.663214	0.035290	0.572545
	N250	N	0.300996	0.965211	0.574281
	N251	N	0.302799	0.035556	0.399867
	N252	N	0.897158	0.464317	0.164611
	N253	N	0.070371	0.536426	0.166420
	N254	N	0.072051	0.465937	0.805538
	N255	N	0.897515	0.535832	0.804764
	N256	N	0.164040	0.912414	0.450426
	N257	N	0.163026	0.087472	0.520341
	N258	N	0.801839	0.088299	0.449463
	N259	N	0.802902	0.913878	0.520132
	N260	N	0.447663	0.182347	0.898798
	N261	N	0.519007	0.181159	0.072238
	N262	N	0.448243	0.820183	0.073882
	N263	N	0.517996	0.821112	0.898917
	N264	N	0.448334	0.913104	0.167354
	N265	N	0.518507	0.088521	0.166392
	N266	N	0.447042	0.089421	0.804718
	N267	N	0.517625	0.914849	0.806002
	N268	N	0.894508	0.182128	0.450382
	N269	N	0.068406	0.179212	0.520331
	N270	N	0.069175	0.820861	0.448584
	N271	N	0.894411	0.818855	0.518820
	N272	N	0.164387	0.466266	0.899193
	N273	N	0.164625	0.536552	0.074119
	N274	N	0.802325	0.465643	0.073875
	N275	N	0.803576	0.535485	0.897996
	O276	O	0.698831	0.496791	0.641292
	H277	H	0.701577	0.510890	0.646379
	H278	H	0.708200	0.499572	0.648448
	O279	O	0.505269	0.284212	0.271645
	H280	H	0.535162	0.274914	0.262043
	H281	H	0.528873	0.280261	0.256497
	O282	O	0.863173	1.154976	0.048766
	H283	H	0.852630	1.139601	0.061517
	H284	H	0.856020	1.156292	0.036744
	O285	O	0.508661	0.521619	0.417045
	H286	H	0.514062	0.523054	0.429512
	H287	H	0.513535	0.535434	0.403733
	O288	O	0.152775	-0.170654	-0.186233
	H289	H	0.155287	-0.180171	-0.150590
	H290	H	0.126316	-0.171132	-0.186541
	O291	O	1.181114	1.189632	0.138508
	H292	H	1.161068	1.203640	0.139858
	H293	H	1.197580	1.208529	0.126884
	O294	O	-0.009695	0.791058	0.158412
	H295	H	0.003593	0.793000	0.166616
	H296	H	0.009410	0.793784	0.174074
	O297	O	0.532129	0.308502	0.676409
	H298	H	0.524196	0.299133	0.675938
	H299	H	0.519929	0.305160	0.664090
	O300	O	0.427555	0.703850	0.394321
	H301	H	0.422326	0.716369	0.384475
	H302	H	0.441594	0.713536	0.420519
	O303	O	0.315174	0.317068	0.405204
	H304	H	0.334010	0.327110	0.390476
	H305	H	0.327309	0.328818	0.406075
	O306	O	-0.026076	1.099365	1.112974
	H307	H	-0.021596	1.108122	1.117180
	H308	H	-0.018551	1.095743	1.115764
	O309	O	0.287786	0.369434	0.584438
	H310	H	0.279973	0.366955	0.580900
	H311	H	0.287800	0.368686	0.566492
	O312	O	0.516149	0.713951	0.701793
	H313	H	0.504127	0.706432	0.716974
	H314	H	0.520467	0.722016	0.699165
	O315	O	-0.188399	-0.003299	0.777812
	H316	H	-0.207355	-0.006153	0.775595
	H317	H	-0.202471	-0.015317	0.789498
	O318	O	-0.067964	1.028937	-0.080268
	H319	H	-0.056920	1.019244	-0.077462
	H320	H	-0.073552	1.026114	-0.092379
	O321	O	0.284505	0.538968	0.279707
	H322	H	0.273361	0.537305	0.266212
	H323	H	0.277752	0.559218	0.299211
	O324	O	0.398770	0.531406	0.388102
	H325	H	0.391717	0.534921	0.389362
	H326	H	0.393290	0.541749	0.382736
	O327	O	1.074144	0.196322	1.002080
	H328	H	1.082125	0.200059	1.003406
	H329	H	1.052421	0.183036	0.983084
	O330	O	1.097188	-0.014823	0.073178
	H331	H	1.109099	-0.004398	0.065521
	H332	H	1.093377	-0.009119	0.090758
	O333	O	0.838719	0.975283	0.943412
	H334	H	0.855469	0.957191	0.959074
	H335	H	0.841735	0.989949	0.962129
	O336	O	0.959751	0.212950	0.776030
	H337	H	0.937272	0.210805	0.793744
	H338	H	0.954144	0.239495	0.751989
	O339	O	0.750354	0.769855	0.755096
	H340	H	0.766422	0.782574	0.742605
	H341	H	0.753019	0.768075	0.777382
	O342	O	0.696852	0.716685	0.511062
	H343	H	0.699667	0.721920	0.529575
	H344	H	0.716782	0.729453	0.514685
	O345	O	-0.142984	-0.036650	-0.143474
	H346	H	-0.151110	-0.030445	-0.148400
	H347	H	-0.119801	-0.021463	-0.133272
	O348	O	0.767153	-0.214729	1.008302
	H349	H	0.751013	-0.232219	1.020343
	H350	H	0.774203	-0.222502	1.005895
	O351	O	1.397000	0.532701	0.476984
	H352	H	1.402684	0.525820	0.462755
	H353	H	1.402509	0.524224	0.467499
	O354	O	0.559843	0.390597	0.543774
	H355	H	0.563737	0.403495	0.538235
	H356	H	0.577177	0.379856	0.545855
	O357	O	1.052845	1.133624	0.909146
	H358	H	1.040513	1.125819	0.903201
	H359	H	1.057597	1.133040	0.916468
	O360	O	0.631306	0.607725	0.448393
	H361	H	0.641448	0.621738	0.446798
	H362	H	0.627026	0.593289	0.441432
	O363	O	0.320885	0.512335	0.631932
	H364	H	0.310488	0.488079	0.633640
	H365	H	0.311996	0.498071	0.637672
	O366	O	1.295621	-0.320842	1.325729
	H367	H	1.307219	-0.316597	1.319991
	H368	H	1.292193	-0.316463	1.371101
	O369	O	0.522502	0.705562	0.351442
	H370	H	0.535664	0.721329	0.349984
	H371	H	0.495863	0.696918	0.374224
	O372	O	0.468672	0.506044	0.694546
	H373	H	0.458401	0.484513	0.700359
	H374	H	0.459473	0.495294	0.700906
	O375	O	0.070850	0.853597	1.154638
	H376	H	0.071566	0.850811	1.164385
	H377	H	0.084544	0.866290	1.152151
	O378	O	0.315154	0.655898	0.483068
	H379	H	0.310218	0.651949	0.503854
	H380	H	0.324622	0.655042	0.496705
	O381	O	1.026371	-0.215909	-0.229913
	H382	H	1.023310	-0.207932	-0.227965
	H383	H	1.021484	-0.234502	-0.257084
	O384	O	0.196749	-0.214147	0.964970
	H385	H	0.201164	-0.195511	0.978654
	H386	H	0.218371	-0.237941	0.969944
	O387	O	-0.319648	1.216505	0.692347
	H388	H	-0.314305	1.226883	0.676669
	H389	H	-0.325199	1.194002	0.704100
	O390	O	-0.060423	-0.222661	0.943940
	H391	H	-0.059745	-0.219029	0.952754
	H392	H	-0.055572	-0.226780	0.932680
	O393	O	1.011514	1.047747	-0.221715
	H394	H	1.026817	1.048794	-0.224837
	H395	H	1.008333	1.078011	-0.218181
	O396	O	0.505088	0.410315	0.418762
	H397	H	0.513985	0.417666	0.408563
	H398	H	0.515328	0.431520	0.405961
	O399	O	1.202351	0.979167	0.767984
	H400	H	1.191038	0.954137	0.764951
	H401	H	1.224677	0.962745	0.740190
	O402	O	-0.231549	-0.000931	1.187346
	H403	H	-0.241919	-0.029960	1.202598
	H404	H	-0.228263	-0.008991	1.198576
	O405	O	-0.170683	0.170730	0.060587
	H406	H	-0.185948	0.189068	0.066916
	H407	H	-0.181693	0.158808	0.069160
	O408	O	0.700686	1.280345	1.269569
	H409	H	0.714876	1.264901	1.297190
	H410	H	0.715216	1.312289	1.259665
	O411	O	0.477687	0.635786	0.580650
	H412	H	0.486732	0.632979	0.576525
	H413	H	0.493381	0.634966	0.595672
	O414	O	0.370268	0.481068	0.609950
	H415	H	0.355623	0.477094	0.624047
	H416	H	0.371510	0.460450	0.607127
	O417	O	0.787204	0.205944	0.838967
	H418	H	0.780324	0.170356	0.825512
	H419	H	0.781131	0.222165	0.849199
	O420	O	0.702213	0.389607	0.507806
	H421	H	0.701676	0.411155	0.490994
	H422	H	0.704993	0.400365	0.515032
	O423	O	0.119763	1.080350	-0.027342
	H424	H	0.122540	1.056137	-0.036571
	H425	H	0.132694	1.078567	-0.040819
	O426	O	1.156078	1.143785	0.882603
	H427	H	1.154863	1.133203	0.886136
	H428	H	1.140736	1.143142	0.869735
	O429	O	0.434357	0.359505	0.375030
	H430	H	0.444258	0.354585	0.354627
	H431	H	0.444549	0.354538	0.383914
	O432	O	0.954841	-0.173284	0.998865
	H433	H	0.941806	-0.180230	0.998414
	H434	H	0.969958	-0.174935	1.008324
	O435	O	0.056729	0.213511	0.199974
	H436	H	0.062388	0.231135	0.205607
	H437	H	0.037892	0.223589	0.214117
	O438	O	1.313963	-0.494048	0.586473
	H439	H	1.298787	-0.505751	0.599237
	H440	H	1.321843	-0.500102	0.595033
	O441	O	0.640249	0.288453	0.492644
	H442	H	0.636758	0.309593	0.513376
	H443	H	0.669874	0.277864	0.495372
	O444	O	0.136946	0.944223	1.102552
	H445	H	0.153061	0.969457	1.097728
	H446	H	0.132724	0.963576	1.112910
	O447	O	0.801764	0.824241	0.164084
	H448	H	0.821426	0.811493	0.145834
	H449	H	0.825896	0.835252	0.166024
	O450	O	0.378085	0.293300	0.647915
	H451	H	0.361021	0.277219	0.646332
	H452	H	0.376956	0.282044	0.641686
	O453	O	0.693875	0.471400	0.272526
	H454	H	0.696533	0.486755	0.248769
	H455	H	0.677525	0.487295	0.257556
	O456	O	1.205399	0.026150	0.209457
	H457	H	1.224576	0.047394	0.229446
	H458	H	1.212661	0.061094	0.213846
	O459	O	0.505151	0.507823	0.274050
	H460	H	0.485237	0.484136	0.275730
	H461	H	0.492416	0.539453	0.282332
	O462	O	0.682952	0.637501	0.680809
	H463	H	0.658589	0.631337	0.686033
	H464	H	0.688254	0.651827	0.699738
	O465	O	0.906820	-0.014248	0.066303
	H466	H	0.905808	-0.007684	0.081178
	H467	H	0.914545	-0.023366	0.052988
