data_Molecule from HDF5

_cell_length_a		16.315670
_cell_length_b		16.330647
_cell_length_c		16.328191
_cell_angle_alpha	89.988788
_cell_angle_beta	89.906688
_cell_angle_gamma	90.010951
_symmetry_space_group_name_H-M	'P 1'
_symmetry_Int_Tables_number		1

loop_
	_symmetry_equiv_pos_as_xyz
	x,y,z

loop_
	_atom_site_label
	_atom_site_type_symbol
	_atom_site_fract_x
	_atom_site_fract_y
	_atom_site_fract_z
	H0	H	0.408367	0.837085	0.716602
	H1	H	0.603279	0.163498	0.715987
	H2	H	0.604868	0.837655	0.286209
	H3	H	0.407823	0.163933	0.288818
	H4	H	0.721772	0.401465	0.839576
	H5	H	0.720597	0.598202	0.166154
	H6	H	0.292461	0.598449	0.838889
	H7	H	0.293417	0.402966	0.166480
	H8	H	0.843399	0.713963	0.404375
	H9	H	0.169722	0.714647	0.601514
	H10	H	0.843475	0.285133	0.600624
	H11	H	0.171207	0.286795	0.405091
	H12	H	0.843333	0.401495	0.717152
	H13	H	0.170287	0.597297	0.716101
	H14	H	0.843419	0.598801	0.287097
	H15	H	0.170238	0.401733	0.287430
	H16	H	0.409767	0.713975	0.838923
	H17	H	0.605209	0.715955	0.165770
	H18	H	0.606435	0.284505	0.839514
	H19	H	0.408533	0.285785	0.165625
	H20	H	0.720733	0.836376	0.403250
	H21	H	0.720388	0.163668	0.599513
	H22	H	0.292540	0.836507	0.599796
	H23	H	0.291745	0.163198	0.404872
	H24	H	0.909713	0.335595	0.215865
	H25	H	0.105393	0.663401	0.217687
	H26	H	0.104871	0.336143	0.789366
	H27	H	0.908004	0.662871	0.787280
	H28	H	0.221463	0.900947	0.338858
	H29	H	0.219819	0.096211	0.665886
	H30	H	0.793650	0.096818	0.337864
	H31	H	0.791609	0.900973	0.665669
	H32	H	0.342924	0.214400	0.905391
	H33	H	0.669563	0.215984	0.100737
	H34	H	0.342253	0.786247	0.100823
	H35	H	0.669653	0.787024	0.903886
	H36	H	0.342864	0.902471	0.217608
	H37	H	0.669226	0.099300	0.216675
	H38	H	0.342817	0.099918	0.787543
	H39	H	0.669365	0.903731	0.788706
	H40	H	0.910080	0.213710	0.338038
	H41	H	0.104169	0.213167	0.666573
	H42	H	0.105801	0.783471	0.340121
	H43	H	0.908536	0.785799	0.666221
	H44	H	0.221243	0.336702	0.905423
	H45	H	0.220512	0.664106	0.099880
	H46	H	0.790733	0.337012	0.102289
	H47	H	0.791921	0.663172	0.903586
	H48	H	0.412606	0.117599	0.601039
	H49	H	0.593963	0.887810	0.588061
	H50	H	0.597286	0.114416	0.413161
	H51	H	0.413358	0.885456	0.414523
	H52	H	0.606240	0.413936	0.117708
	H53	H	0.599708	0.592770	0.887062
	H54	H	0.405992	0.593561	0.120861
	H55	H	0.408709	0.408804	0.885239
	H56	H	0.119589	0.588991	0.413832
	H57	H	0.886703	0.604888	0.597985
	H58	H	0.119965	0.417572	0.597867
	H59	H	0.892051	0.401815	0.416646
	H60	H	0.128230	0.399349	0.605968
	H61	H	0.894661	0.588554	0.584087
	H62	H	0.122910	0.590058	0.405180
	H63	H	0.892666	0.414092	0.408602
	H64	H	0.416628	0.586887	0.115866
	H65	H	0.599539	0.595421	0.886515
	H66	H	0.589334	0.410527	0.114584
	H67	H	0.416813	0.409650	0.888426
	H68	H	0.604917	0.116899	0.410324
	H69	H	0.608730	0.882564	0.593865
	H70	H	0.419288	0.113680	0.592265
	H71	H	0.408939	0.882329	0.406592
	H72	H	0.903720	0.618919	0.097032
	H73	H	0.096343	0.386556	0.091961
	H74	H	0.097748	0.613598	0.913224
	H75	H	0.924279	0.386171	0.906505
	H76	H	0.087459	0.896639	0.618036
	H77	H	0.106209	0.101104	0.382418
	H78	H	0.912739	0.095130	0.618139
	H79	H	0.923546	0.911937	0.391177
	H80	H	0.618828	0.091632	0.917326
	H81	H	0.389889	0.092509	0.097494
	H82	H	0.622855	0.897866	0.091110
	H83	H	0.390769	0.910781	0.910092
	H84	H	0.617559	0.915014	0.088225
	H85	H	0.389433	0.095643	0.096833
	H86	H	0.621973	0.086967	0.901816
	H87	H	0.387867	0.905670	0.904837
	H88	H	0.911605	0.093241	0.617859
	H89	H	0.104455	0.083863	0.387657
	H90	H	0.113380	0.902140	0.623570
	H91	H	0.914835	0.893961	0.383399
	H92	H	0.104605	0.617184	0.908691
	H93	H	0.106597	0.382784	0.093722
	H94	H	0.921492	0.616007	0.103159
	H95	H	0.911269	0.386780	0.921234
	H96	H	0.407448	0.116795	0.590712
	H97	H	0.595672	0.882578	0.604157
	H98	H	0.598089	0.116220	0.404912
	H99	H	0.418309	0.885303	0.406535
	H100	H	0.599767	0.398297	0.120878
	H101	H	0.602006	0.594168	0.886450
	H102	H	0.417697	0.600212	0.118306
	H103	H	0.413913	0.401730	0.885353
	H104	H	0.123340	0.597116	0.411057
	H105	H	0.890309	0.583655	0.606108
	H106	H	0.121636	0.400641	0.585485
	H107	H	0.888204	0.401653	0.402802
	H108	H	0.916311	0.610853	0.085508
	H109	H	0.099211	0.384067	0.102329
	H110	H	0.096804	0.615992	0.905241
	H111	H	0.905780	0.380013	0.903093
	H112	H	0.097783	0.921721	0.612725
	H113	H	0.090503	0.095983	0.388610
	H114	H	0.913298	0.093251	0.618012
	H115	H	0.903002	0.912339	0.385288
	H116	H	0.625510	0.102211	0.907204
	H117	H	0.390953	0.093612	0.094418
	H118	H	0.623879	0.910008	0.104359
	H119	H	0.389820	0.902936	0.912192
	C120	C	0.384323	0.008721	0.623642
	C121	C	0.627732	0.991985	0.623564
	C122	C	0.628470	0.008087	0.380394
	C123	C	0.384757	0.992271	0.380857
	C124	C	0.627879	0.378751	0.010243
	C125	C	0.628615	0.622622	0.994299
	C126	C	0.385370	0.621661	0.010455
	C127	C	0.384892	0.378629	0.994269
	C128	C	0.014638	0.621102	0.381071
	C129	C	0.998517	0.620604	0.624274
	C130	C	0.015250	0.377624	0.624566
	C131	C	0.998938	0.378149	0.380834
	C132	C	0.885183	0.507633	0.124188
	C133	C	0.128516	0.492118	0.124274
	C134	C	0.128405	0.507960	0.881172
	C135	C	0.884916	0.491939	0.881208
	C136	C	0.128285	0.878030	0.510584
	C137	C	0.128326	0.121426	0.494148
	C138	C	0.884956	0.121557	0.509637
	C139	C	0.885034	0.877975	0.494669
	C140	C	0.514108	0.122200	0.880639
	C141	C	0.497772	0.122556	0.124192
	C142	C	0.513900	0.879134	0.123619
	C143	C	0.497728	0.878552	0.880572
	C144	C	0.387372	0.885565	0.678680
	C145	C	0.624444	0.114862	0.678140
	C146	C	0.625328	0.885906	0.324716
	C147	C	0.387447	0.115052	0.326527
	C148	C	0.683636	0.380936	0.887991
	C149	C	0.682919	0.619295	0.117500
	C150	C	0.330678	0.618881	0.887496
	C151	C	0.330676	0.382088	0.117374
	C152	C	0.892005	0.676240	0.383572
	C153	C	0.121099	0.676430	0.621998
	C154	C	0.892041	0.323257	0.621185
	C155	C	0.122246	0.324247	0.384374
	C156	C	0.892081	0.380771	0.679304
	C157	C	0.121518	0.618060	0.678841
	C158	C	0.892053	0.618988	0.325457
	C159	C	0.121848	0.381197	0.325933
	C160	C	0.388833	0.676201	0.887320
	C161	C	0.625793	0.677810	0.117260
	C162	C	0.626014	0.323245	0.887887
	C163	C	0.387771	0.323860	0.117045
	C164	C	0.683021	0.885401	0.382708
	C165	C	0.682900	0.114785	0.620762
	C166	C	0.329835	0.885499	0.620886
	C167	C	0.329741	0.114646	0.384177
	C168	C	0.888022	0.384982	0.179350
	C169	C	0.125529	0.614910	0.179330
	C170	C	0.125716	0.385022	0.826816
	C171	C	0.887676	0.614207	0.825702
	C172	C	0.183326	0.880443	0.387612
	C173	C	0.182456	0.117838	0.617264
	C174	C	0.830827	0.118080	0.386826
	C175	C	0.829692	0.880549	0.617089
	C176	C	0.391546	0.176849	0.884212
	C177	C	0.621018	0.177388	0.121068
	C178	C	0.390958	0.824015	0.121226
	C179	C	0.620611	0.824305	0.883305
	C180	C	0.391197	0.881799	0.179147
	C181	C	0.620791	0.119744	0.178776
	C182	C	0.391565	0.120136	0.825538
	C183	C	0.620479	0.882184	0.825809
	C184	C	0.888828	0.176128	0.386818
	C185	C	0.124900	0.175678	0.617518
	C186	C	0.126037	0.822086	0.388330
	C187	C	0.887678	0.823005	0.617278
	C188	C	0.183486	0.385207	0.884432
	C189	C	0.182987	0.615241	0.121143
	C190	C	0.829565	0.385391	0.122105
	C191	C	0.829948	0.614375	0.883548
	C192	C	0.406568	0.094094	0.601370
	C193	C	0.605899	0.906469	0.601859
	C194	C	0.606528	0.093783	0.402854
	C195	C	0.407008	0.906380	0.402887
	C196	C	0.605239	0.401039	0.095704
	C197	C	0.606758	0.600800	0.908931
	C198	C	0.407318	0.599946	0.096022
	C199	C	0.406670	0.400366	0.908465
	C200	C	0.099946	0.598603	0.403457
	C201	C	0.912784	0.598798	0.602442
	C202	C	0.101063	0.399542	0.602926
	C203	C	0.913221	0.399631	0.402703
	C204	C	0.907443	0.593233	0.101816
	C205	C	0.106973	0.406708	0.102518
	C206	C	0.106252	0.593458	0.902799
	C207	C	0.907163	0.406300	0.903667
	C208	C	0.106168	0.900350	0.596032
	C209	C	0.106778	0.100097	0.408315
	C210	C	0.906197	0.100104	0.595828
	C211	C	0.907201	0.899734	0.408731
	C212	C	0.599999	0.100035	0.902307
	C213	C	0.412271	0.100574	0.102536
	C214	C	0.599386	0.901148	0.101211
	C215	C	0.411609	0.900194	0.902540
	Zn216	Zn	0.505612	0.000219	0.752334
	Zn217	Zn	0.506180	0.000793	0.252279
	Zn218	Zn	0.756423	0.500296	0.002896
	Zn219	Zn	0.256851	0.500517	0.002625
	Zn220	Zn	0.006358	0.749246	0.503021
	Zn221	Zn	0.007254	0.250065	0.502360
	Zn222	Zn	0.006665	0.499499	0.752689
	Zn223	Zn	0.006895	0.499929	0.252670
	Zn224	Zn	0.506067	0.750363	0.002585
	Zn225	Zn	0.506412	0.250166	0.002405
	Zn226	Zn	0.756778	-0.000685	0.502228
	Zn227	Zn	0.256490	-0.000262	0.502421
	N228	N	0.420709	0.962996	0.680417
	N229	N	0.591175	0.037521	0.680237
	N230	N	0.592189	0.963344	0.323126
	N231	N	0.420906	0.037736	0.324310
	N232	N	0.684789	0.414765	0.965046
	N233	N	0.684816	0.585842	0.040270
	N234	N	0.328432	0.585839	0.964947
	N235	N	0.328936	0.415718	0.039984
	N236	N	0.969085	0.677564	0.417622
	N237	N	0.043721	0.678029	0.588524
	N238	N	0.969505	0.321089	0.588155
	N239	N	0.044842	0.322087	0.417742
	N240	N	0.969715	0.413882	0.681494
	N241	N	0.044363	0.584101	0.680298
	N242	N	0.969514	0.585711	0.323461
	N243	N	0.044306	0.414135	0.323767
	N244	N	0.422029	0.678078	0.964807
	N245	N	0.592642	0.680131	0.039857
	N246	N	0.591921	0.321918	0.964952
	N247	N	0.420937	0.321868	0.039573
	N248	N	0.685122	0.962492	0.416451
	N249	N	0.684602	0.037591	0.587055
	N250	N	0.327940	0.962805	0.587520
	N251	N	0.328107	0.037236	0.417215
	N252	N	0.921971	0.462109	0.180705
	N253	N	0.092442	0.537478	0.181380
	N254	N	0.091826	0.462194	0.824916
	N255	N	0.921478	0.537080	0.824456
	N256	N	0.184845	0.914499	0.464773
	N257	N	0.184564	0.084748	0.539885
	N258	N	0.828415	0.085051	0.464268
	N259	N	0.828137	0.913978	0.539728
	N260	N	0.468761	0.178133	0.917743
	N261	N	0.543598	0.179279	0.087962
	N262	N	0.468335	0.822186	0.087494
	N263	N	0.543164	0.821875	0.916658
	N264	N	0.468608	0.915118	0.180908
	N265	N	0.543367	0.086631	0.181166
	N266	N	0.468955	0.086820	0.823280
	N267	N	0.542993	0.915332	0.824258
	N268	N	0.921923	0.178215	0.464337
	N269	N	0.091863	0.177926	0.540021
	N270	N	0.092537	0.820496	0.465625
	N271	N	0.921527	0.821560	0.540011
	N272	N	0.185158	0.462589	0.917636
	N273	N	0.185123	0.537968	0.087739
	N274	N	0.827768	0.462720	0.088633
	N275	N	0.828287	0.537305	0.917366
	O276	O	-0.130041	-0.072318	1.032830
	H277	H	-0.133047	-0.075413	1.045636
	H278	H	-0.132962	-0.074937	1.042991
	O279	O	0.512820	0.484689	0.446512
	H280	H	0.520737	0.486102	0.434321
	H281	H	0.509719	0.483159	0.442069
	O282	O	0.503588	0.497315	0.419952
	H283	H	0.487166	0.501935	0.416736
	H284	H	0.513740	0.496789	0.421981
	O285	O	0.499142	0.519005	0.439970
	H286	H	0.502010	0.521051	0.435485
	H287	H	0.500916	0.517954	0.449976
	O288	O	-0.097561	0.950771	0.032587
	H289	H	-0.104635	0.952087	0.025448
	H290	H	-0.104063	0.944752	0.034139
	O291	O	-0.052620	0.959052	1.036567
	H292	H	-0.053238	0.953087	1.034955
	H293	H	-0.059294	0.957744	1.028149
	O294	O	0.526536	0.516927	0.435932
	H295	H	0.523702	0.520893	0.441551
	H296	H	0.524219	0.505988	0.430787
	O297	O	0.910882	-0.050359	0.078124
	H298	H	0.917777	-0.051338	0.074759
	H299	H	0.917581	-0.041376	0.082282
