data_Molecule from HDF5

_cell_length_a		16.360670
_cell_length_b		16.165974
_cell_length_c		16.307833
_cell_angle_alpha	90.004350
_cell_angle_beta	89.785769
_cell_angle_gamma	89.883913
_symmetry_space_group_name_H-M	'P 1'
_symmetry_Int_Tables_number		1

loop_
	_symmetry_equiv_pos_as_xyz
	x,y,z

loop_
	_atom_site_label
	_atom_site_type_symbol
	_atom_site_fract_x
	_atom_site_fract_y
	_atom_site_fract_z
	H0	H	0.410145	0.836334	0.720120
	H1	H	0.606998	0.165967	0.717507
	H2	H	0.609552	0.836334	0.290165
	H3	H	0.412636	0.165619	0.292740
	H4	H	0.725476	0.399226	0.842524
	H5	H	0.725253	0.602528	0.166855
	H6	H	0.291735	0.602302	0.841370
	H7	H	0.291377	0.401688	0.167413
	H8	H	0.846248	0.716049	0.405635
	H9	H	0.173083	0.712673	0.602527
	H10	H	0.845819	0.285116	0.602199
	H11	H	0.172385	0.285296	0.405104
	H12	H	0.847002	0.397266	0.722202
	H13	H	0.170947	0.599456	0.721301
	H14	H	0.846484	0.600282	0.289225
	H15	H	0.170831	0.398679	0.286042
	H16	H	0.409957	0.716810	0.841245
	H17	H	0.604790	0.713790	0.169188
	H18	H	0.605870	0.287362	0.841543
	H19	H	0.411315	0.289055	0.169719
	H20	H	0.725559	0.836151	0.405017
	H21	H	0.724213	0.164993	0.603753
	H22	H	0.295173	0.836096	0.604776
	H23	H	0.294597	0.164392	0.404749
	H24	H	0.909648	0.336034	0.217696
	H25	H	0.106330	0.664524	0.217611
	H26	H	0.108326	0.335293	0.791100
	H27	H	0.909733	0.663809	0.789072
	H28	H	0.227597	0.898763	0.342453
	H29	H	0.224642	0.100224	0.667681
	H30	H	0.794342	0.100572	0.342058
	H31	H	0.792771	0.899577	0.667430
	H32	H	0.344030	0.213260	0.910231
	H33	H	0.671518	0.215963	0.102780
	H34	H	0.344759	0.788575	0.103133
	H35	H	0.671733	0.784474	0.905655
	H36	H	0.347206	0.901515	0.222463
	H37	H	0.671968	0.100338	0.219910
	H38	H	0.346069	0.100830	0.789882
	H39	H	0.672258	0.900895	0.788420
	H40	H	0.913578	0.213174	0.340137
	H41	H	0.105769	0.213922	0.667974
	H42	H	0.108283	0.785906	0.341098
	H43	H	0.912292	0.787538	0.669284
	H44	H	0.224305	0.336452	0.904914
	H45	H	0.221497	0.664740	0.103114
	H46	H	0.793304	0.337060	0.102885
	H47	H	0.792953	0.664025	0.902738
	H48	H	0.422538	0.118176	0.606375
	H49	H	0.600210	0.888823	0.583204
	H50	H	0.599159	0.116930	0.408430
	H51	H	0.418220	0.882429	0.408912
	H52	H	0.590760	0.413845	0.116208
	H53	H	0.603877	0.588604	0.889308
	H54	H	0.419210	0.599583	0.120762
	H55	H	0.413203	0.407538	0.888112
	H56	H	0.127700	0.597380	0.405847
	H57	H	0.895064	0.592625	0.594727
	H58	H	0.122760	0.415532	0.598374
	H59	H	0.893631	0.402345	0.418883
	H60	H	0.126939	0.402590	0.604557
	H61	H	0.894053	0.589739	0.599161
	H62	H	0.122536	0.592257	0.417252
	H63	H	0.895714	0.416175	0.409364
	H64	H	0.406140	0.594802	0.122856
	H65	H	0.597499	0.592368	0.890692
	H66	H	0.602481	0.396053	0.125640
	H67	H	0.415631	0.410192	0.889653
	H68	H	0.602053	0.115513	0.418247
	H69	H	0.614802	0.879256	0.601436
	H70	H	0.420531	0.113956	0.588066
	H71	H	0.422381	0.884757	0.415986
	H72	H	0.924307	0.616905	0.102098
	H73	H	0.107363	0.382807	0.091307
	H74	H	0.109602	0.620058	0.913204
	H75	H	0.911478	0.384472	0.922288
	H76	H	0.119958	0.913448	0.623582
	H77	H	0.106020	0.094417	0.386490
	H78	H	0.914602	0.093306	0.621143
	H79	H	0.923000	0.903133	0.389429
	H80	H	0.622032	0.086861	0.912466
	H81	H	0.394478	0.093005	0.093959
	H82	H	0.622854	0.908270	0.090673
	H83	H	0.389337	0.911307	0.895579
	H84	H	0.624975	0.913544	0.103085
	H85	H	0.392954	0.090022	0.106086
	H86	H	0.626936	0.095187	0.903891
	H87	H	0.391732	0.894109	0.919400
	H88	H	0.916195	0.090526	0.620055
	H89	H	0.105160	0.087688	0.389283
	H90	H	0.090862	0.917282	0.614048
	H91	H	0.909997	0.904619	0.385764
	H92	H	0.097456	0.619466	0.902163
	H93	H	0.101158	0.380888	0.102810
	H94	H	0.916214	0.615086	0.086459
	H95	H	0.910882	0.378453	0.905431
	H96	H	0.405672	0.120822	0.597896
	H97	H	0.591420	0.884130	0.605453
	H98	H	0.608186	0.120019	0.411713
	H99	H	0.413981	0.883148	0.415946
	H100	H	0.613155	0.417062	0.122048
	H101	H	0.602701	0.596029	0.887153
	H102	H	0.414889	0.586022	0.117763
	H103	H	0.416862	0.406287	0.887922
	H104	H	0.123582	0.584309	0.406816
	H105	H	0.892705	0.595348	0.599027
	H106	H	0.123914	0.403200	0.589847
	H107	H	0.888873	0.401464	0.402629
	H108	H	0.907413	0.621476	0.100742
	H109	H	0.094647	0.385378	0.091954
	H110	H	0.095249	0.613776	0.916899
	H111	H	0.926092	0.385905	0.912272
	H112	H	0.099947	0.890054	0.625508
	H113	H	0.099589	0.092924	0.389651
	H114	H	0.917519	0.093425	0.620952
	H115	H	0.917566	0.914859	0.390864
	H116	H	0.624213	0.099255	0.916082
	H117	H	0.390148	0.101065	0.101534
	H118	H	0.627799	0.899955	0.100419
	H119	H	0.400658	0.922418	0.920761
	C120	C	0.387907	0.008857	0.626416
	C121	C	0.630925	0.992655	0.625622
	C122	C	0.631974	0.008955	0.383521
	C123	C	0.389173	0.992082	0.384503
	C124	C	0.630456	0.379384	0.013421
	C125	C	0.629464	0.621641	0.996827
	C126	C	0.385451	0.623100	0.012644
	C127	C	0.386527	0.379611	0.996600
	C128	C	0.017087	0.621355	0.382001
	C129	C	1.001335	0.620900	0.626101
	C130	C	0.017299	0.377931	0.626392
	C131	C	1.000332	0.377731	0.381372
	C132	C	0.887290	0.509349	0.125335
	C133	C	0.129011	0.491806	0.124770
	C134	C	0.130151	0.509044	0.882439
	C135	C	0.887150	0.491292	0.883431
	C136	C	0.132212	0.877747	0.513360
	C137	C	0.131673	0.121428	0.496216
	C138	C	0.888038	0.121524	0.512786
	C139	C	0.888411	0.878784	0.496839
	C140	C	0.516734	0.122794	0.883069
	C141	C	0.500327	0.123040	0.128058
	C142	C	0.517162	0.879184	0.126905
	C143	C	0.501040	0.879339	0.882457
	C144	C	0.390024	0.885546	0.682465
	C145	C	0.628040	0.116569	0.680421
	C146	C	0.629862	0.885472	0.328001
	C147	C	0.391583	0.116266	0.329766
	C148	C	0.686658	0.380143	0.891108
	C149	C	0.686128	0.621494	0.118744
	C150	C	0.329839	0.622141	0.890130
	C151	C	0.330400	0.381875	0.119105
	C152	C	0.895058	0.677810	0.385304
	C153	C	0.123839	0.675807	0.623545
	C154	C	0.894653	0.322620	0.623186
	C155	C	0.123445	0.322935	0.384266
	C156	C	0.895242	0.377952	0.683158
	C157	C	0.122993	0.619017	0.682375
	C158	C	0.895012	0.620122	0.327257
	C159	C	0.122644	0.379366	0.325210
	C160	C	0.389068	0.678646	0.889912
	C161	C	0.626097	0.676671	0.119995
	C162	C	0.627357	0.324133	0.890603
	C163	C	0.389968	0.325959	0.120341
	C164	C	0.687492	0.885354	0.385116
	C165	C	0.686004	0.116107	0.623686
	C166	C	0.332952	0.885163	0.624863
	C167	C	0.332809	0.115377	0.385356
	C168	C	0.888879	0.385602	0.180528
	C169	C	0.126593	0.615369	0.180174
	C170	C	0.128439	0.384845	0.828360
	C171	C	0.889199	0.614753	0.826908
	C172	C	0.188266	0.879376	0.390774
	C173	C	0.186400	0.119907	0.619021
	C174	C	0.833130	0.119906	0.390141
	C175	C	0.832109	0.880020	0.619153
	C176	C	0.393369	0.176867	0.887795
	C177	C	0.623011	0.177975	0.124001
	C178	C	0.394054	0.825426	0.124006
	C179	C	0.623281	0.823026	0.884846
	C180	C	0.395247	0.881538	0.183483
	C181	C	0.623300	0.120414	0.182037
	C182	C	0.394323	0.120820	0.828249
	C183	C	0.623396	0.880518	0.826242
	C184	C	0.892161	0.176151	0.389517
	C185	C	0.127236	0.176259	0.619195
	C186	C	0.129318	0.823009	0.390221
	C187	C	0.891102	0.824046	0.619830
	C188	C	0.186002	0.385390	0.884896
	C189	C	0.183763	0.615554	0.122956
	C190	C	0.831359	0.385888	0.123400
	C191	C	0.830757	0.614764	0.883173
	C192	C	0.409742	0.095330	0.603850
	C193	C	0.608604	0.906261	0.603184
	C194	C	0.609658	0.095130	0.406236
	C195	C	0.411614	0.905829	0.406996
	C196	C	0.608597	0.402245	0.099193
	C197	C	0.607640	0.598925	0.911381
	C198	C	0.407009	0.600164	0.098267
	C199	C	0.408876	0.401549	0.910685
	C200	C	0.102628	0.598031	0.403727
	C201	C	0.915939	0.598928	0.604191
	C202	C	0.102399	0.400577	0.604288
	C203	C	0.914918	0.400074	0.403695
	C204	C	0.909614	0.595532	0.102896
	C205	C	0.107412	0.405325	0.102039
	C206	C	0.107428	0.595366	0.904243
	C207	C	0.909605	0.405243	0.906731
	C208	C	0.110159	0.900222	0.598978
	C209	C	0.110053	0.098472	0.410635
	C210	C	0.909592	0.099085	0.598605
	C211	C	0.910331	0.900990	0.411032
	C212	C	0.602288	0.100399	0.904490
	C213	C	0.414641	0.101126	0.106850
	C214	C	0.602955	0.900996	0.104574
	C215	C	0.415903	0.902471	0.905271
	Zn216	Zn	0.509439	0.001693	0.753606
	Zn217	Zn	0.509908	0.000862	0.256316
	Zn218	Zn	0.759012	0.501240	0.004534
	Zn219	Zn	0.257108	0.500729	0.003726
	Zn220	Zn	0.009862	0.750046	0.504853
	Zn221	Zn	0.009530	0.249885	0.503918
	Zn222	Zn	0.008595	0.499206	0.755445
	Zn223	Zn	0.008741	0.499959	0.252757
	Zn224	Zn	0.508242	0.750528	0.005155
	Zn225	Zn	0.508083	0.251025	0.005588
	Zn226	Zn	0.759558	0.000301	0.504883
	Zn227	Zn	0.260505	0.000006	0.504877
	N228	N	0.423672	0.963412	0.683341
	N229	N	0.594347	0.038668	0.681717
	N230	N	0.596006	0.963441	0.326769
	N231	N	0.426110	0.038498	0.329110
	N232	N	0.688689	0.413678	0.968522
	N233	N	0.688317	0.587866	0.041180
	N234	N	0.327773	0.588031	0.967401
	N235	N	0.328070	0.414493	0.041067
	N236	N	0.972225	0.678695	0.418593
	N237	N	0.047325	0.676803	0.588954
	N238	N	0.971575	0.322342	0.588595
	N239	N	0.046448	0.321719	0.418507
	N240	N	0.972296	0.411839	0.685209
	N241	N	0.045776	0.585609	0.684135
	N242	N	0.971979	0.585821	0.325101
	N243	N	0.045135	0.412494	0.323151
	N244	N	0.422692	0.679541	0.967115
	N245	N	0.591565	0.676843	0.043206
	N246	N	0.593021	0.323525	0.967734
	N247	N	0.424008	0.324542	0.043222
	N248	N	0.688942	0.963196	0.418868
	N249	N	0.687832	0.037972	0.590401
	N250	N	0.331545	0.962970	0.590584
	N251	N	0.331271	0.037236	0.418644
	N252	N	0.923088	0.463224	0.181635
	N253	N	0.093367	0.537343	0.181319
	N254	N	0.094359	0.462687	0.826756
	N255	N	0.923516	0.536975	0.826897
	N256	N	0.190290	0.912677	0.468319
	N257	N	0.189259	0.086699	0.541391
	N258	N	0.830165	0.087000	0.467946
	N259	N	0.829975	0.913041	0.541476
	N260	N	0.470549	0.178105	0.921252
	N261	N	0.545758	0.179754	0.091145
	N262	N	0.471044	0.823959	0.089561
	N263	N	0.546336	0.822089	0.918892
	N264	N	0.472952	0.913987	0.185586
	N265	N	0.545966	0.087004	0.184675
	N266	N	0.471926	0.088103	0.825211
	N267	N	0.546294	0.914833	0.824649
	N268	N	0.925492	0.177291	0.466826
	N269	N	0.093931	0.177380	0.541798
	N270	N	0.095233	0.821787	0.467463
	N271	N	0.925471	0.823219	0.542804
	N272	N	0.187372	0.463733	0.917694
	N273	N	0.185435	0.537646	0.089194
	N274	N	0.830177	0.463902	0.089763
	N275	N	0.829528	0.537118	0.917596
	O276	O	0.035333	-0.011944	0.051230
	H277	H	0.026703	-0.005315	0.051000
	H278	H	0.035718	-0.019007	0.047958
	O279	O	0.541364	0.510521	0.429448
	H280	H	0.545633	0.520755	0.427702
	H281	H	0.531880	0.511182	0.430909
	O282	O	0.450106	0.460262	0.522210
	H283	H	0.451688	0.463432	0.522818
	H284	H	0.445672	0.452273	0.526257
	O285	O	0.905796	0.054874	1.018632
	H286	H	0.904601	0.050609	1.014072
	H287	H	0.900149	0.054560	1.016498
	O288	O	0.965816	-0.080851	0.100024
	H289	H	0.963638	-0.070225	0.110303
	H290	H	0.964907	-0.090669	0.106907
	O291	O	0.538594	0.503918	0.659358
	H292	H	0.546176	0.507392	0.672204
	H293	H	0.540302	0.503353	0.645585
	O294	O	1.065238	0.119167	0.870760
	H295	H	1.059890	0.131462	0.872094
	H296	H	1.061987	0.127423	0.874133
	O297	O	-0.022149	0.037159	-0.022420
	H298	H	-0.018618	0.038913	-0.032106
	H299	H	-0.022406	0.043694	-0.018639
	O300	O	0.517092	0.535302	0.494061
	H301	H	0.528773	0.540313	0.480589
	H302	H	0.518153	0.519922	0.498202
	O303	O	0.544995	0.414260	0.501592
	H304	H	0.561001	0.428660	0.505041
	H305	H	0.537797	0.419158	0.500280
	O306	O	1.040239	0.038081	-0.059565
	H307	H	1.039997	0.034252	-0.053926
	H308	H	1.041708	0.037449	-0.061833
	O309	O	-0.022427	-0.056066	1.022907
	H310	H	-0.032008	-0.054340	1.035224
	H311	H	-0.018765	-0.062116	1.036775
	O312	O	1.019631	0.989431	0.977337
	H313	H	1.012239	0.982100	0.975957
	H314	H	1.013730	0.988957	0.966577
	O315	O	0.514810	0.575038	0.571282
	H316	H	0.511360	0.568019	0.582268
	H317	H	0.511134	0.575526	0.570161
	O318	O	0.514912	0.601269	0.497148
	H319	H	0.509004	0.599142	0.507495
	H320	H	0.517695	0.600203	0.500038
	O321	O	-0.059832	1.032735	1.021101
	H322	H	-0.065139	1.036159	1.024586
	H323	H	-0.049548	1.032558	1.006171
	O324	O	0.480682	0.490303	0.491337
	H325	H	0.482879	0.483024	0.487086
	H326	H	0.471698	0.491985	0.488715
	O327	O	0.947325	1.061585	-0.008356
	H328	H	0.948126	1.058667	-0.004586
	H329	H	0.953641	1.060046	-0.010704
	O330	O	0.514540	0.543602	0.530202
	H331	H	0.511562	0.546855	0.528083
	H332	H	0.513663	0.539616	0.531510
	O333	O	0.617266	0.573531	0.498778
	H334	H	0.613993	0.574405	0.501538
	H335	H	0.599546	0.576576	0.501473
	O336	O	0.472688	0.519487	0.559591
	H337	H	0.478627	0.526639	0.570118
	H338	H	0.478263	0.518206	0.562179
	O339	O	0.941839	0.963085	-0.011667
	H340	H	0.941763	0.963096	0.001206
	H341	H	0.957824	0.957000	-0.012946
	O342	O	0.440065	0.537406	0.442301
	H343	H	0.429104	0.536102	0.445186
	H344	H	0.436390	0.527453	0.442681
	O345	O	0.477267	0.405707	0.608222
	H346	H	0.482931	0.403592	0.607019
	H347	H	0.482785	0.407534	0.617213
	O348	O	-0.028900	-0.006208	0.049727
	H349	H	-0.025043	-0.000331	0.040633
	H350	H	-0.036626	0.003931	0.051568
	O351	O	-0.433691	0.456774	0.434663
	H352	H	-0.439315	0.449744	0.429047
	H353	H	-0.430201	0.459068	0.439704
	O354	O	0.498426	0.460988	0.551437
	H355	H	0.491939	0.470628	0.551721
	H356	H	0.485125	0.455126	0.555579
	O357	O	-0.488183	1.527192	0.447415
	H358	H	-0.488122	1.532969	0.433028
	H359	H	-0.484958	1.533922	0.447056
