data_Molecule from HDF5

_cell_length_a		16.307488
_cell_length_b		16.292601
_cell_length_c		16.284487
_cell_angle_alpha	89.827326
_cell_angle_beta	90.405167
_cell_angle_gamma	89.786997
_symmetry_space_group_name_H-M	'P 1'
_symmetry_Int_Tables_number		1

loop_
	_symmetry_equiv_pos_as_xyz
	x,y,z

loop_
	_atom_site_label
	_atom_site_type_symbol
	_atom_site_fract_x
	_atom_site_fract_y
	_atom_site_fract_z
	H0	H	0.397108	0.848713	0.726735
	H1	H	0.597498	0.173593	0.729381
	H2	H	0.595867	0.848348	0.298516
	H3	H	0.394434	0.174110	0.293092
	H4	H	0.711180	0.407019	0.846328
	H5	H	0.714242	0.609663	0.171447
	H6	H	0.278740	0.611029	0.846889
	H7	H	0.278824	0.409203	0.173146
	H8	H	0.834013	0.731912	0.406646
	H9	H	0.160139	0.726726	0.609383
	H10	H	0.833790	0.297637	0.608323
	H11	H	0.158618	0.295295	0.407856
	H12	H	0.834540	0.411453	0.724240
	H13	H	0.158836	0.613318	0.726742
	H14	H	0.833489	0.615654	0.290957
	H15	H	0.158827	0.413733	0.294003
	H16	H	0.391139	0.729816	0.848808
	H17	H	0.596877	0.724785	0.173592
	H18	H	0.595283	0.291331	0.848359
	H19	H	0.398643	0.295843	0.174776
	H20	H	0.712627	0.849590	0.412886
	H21	H	0.711979	0.175337	0.612789
	H22	H	0.280229	0.850004	0.612318
	H23	H	0.280196	0.175525	0.409379
	H24	H	0.895908	0.350556	0.226638
	H25	H	0.095008	0.676080	0.222509
	H26	H	0.095567	0.349636	0.793574
	H27	H	0.894245	0.675318	0.791707
	H28	H	0.212502	0.914029	0.347084
	H29	H	0.213456	0.112529	0.673338
	H30	H	0.776646	0.113671	0.348279
	H31	H	0.783173	0.911312	0.673813
	H32	H	0.333118	0.227311	0.910040
	H33	H	0.658919	0.224919	0.113173
	H34	H	0.332850	0.794761	0.112048
	H35	H	0.657239	0.791900	0.912134
	H36	H	0.333142	0.911117	0.227445
	H37	H	0.658724	0.108589	0.227733
	H38	H	0.333957	0.112847	0.791993
	H39	H	0.658095	0.908363	0.796517
	H40	H	0.893805	0.229411	0.346856
	H41	H	0.096240	0.228117	0.673755
	H42	H	0.095875	0.798163	0.346122
	H43	H	0.900106	0.797093	0.672888
	H44	H	0.210725	0.348722	0.909345
	H45	H	0.212160	0.674091	0.108702
	H46	H	0.783600	0.347353	0.108295
	H47	H	0.775329	0.672810	0.904623
	H48	H	0.415266	0.126617	0.606453
	H49	H	0.591683	0.896758	0.603281
	H50	H	0.586021	0.127552	0.417204
	H51	H	0.402169	0.896949	0.422554
	H52	H	0.584007	0.414788	0.124608
	H53	H	0.585104	0.604748	0.894327
	H54	H	0.400908	0.598750	0.125297
	H55	H	0.405939	0.413855	0.893979
	H56	H	0.109894	0.606032	0.425854
	H57	H	0.883495	0.597309	0.598907
	H58	H	0.112374	0.419210	0.599374
	H59	H	0.878970	0.419782	0.412583
	H60	H	0.111507	0.423218	0.601061
	H61	H	0.878347	0.608965	0.604117
	H62	H	0.109800	0.596525	0.410906
	H63	H	0.880929	0.419404	0.420707
	H64	H	0.407136	0.600641	0.124256
	H65	H	0.585839	0.597660	0.894852
	H66	H	0.595529	0.414015	0.128672
	H67	H	0.397632	0.417753	0.893426
	H68	H	0.584664	0.126316	0.421216
	H69	H	0.590900	0.895187	0.605266
	H70	H	0.404050	0.124754	0.592970
	H71	H	0.402196	0.894492	0.417066
	H72	H	0.905712	0.626458	0.098387
	H73	H	0.091721	0.394821	0.100652
	H74	H	0.092321	0.629503	0.918401
	H75	H	0.911772	0.400914	0.922115
	H76	H	0.094081	0.917893	0.627334
	H77	H	0.086735	0.104696	0.394736
	H78	H	0.907386	0.104148	0.624990
	H79	H	0.899340	0.921731	0.393115
	H80	H	0.608247	0.096025	0.924324
	H81	H	0.377869	0.104794	0.108386
	H82	H	0.613040	0.916275	0.111866
	H83	H	0.381905	0.923108	0.920377
	H84	H	0.612318	0.910713	0.103696
	H85	H	0.380509	0.106618	0.097086
	H86	H	0.612319	0.100849	0.915722
	H87	H	0.379046	0.920285	0.916763
	H88	H	0.905527	0.108210	0.626550
	H89	H	0.088527	0.105757	0.393969
	H90	H	0.089332	0.923987	0.624889
	H91	H	0.904284	0.927827	0.396682
	H92	H	0.085014	0.628661	0.911724
	H93	H	0.086296	0.395111	0.106129
	H94	H	0.902418	0.627362	0.096126
	H95	H	0.894262	0.394352	0.918984
	H96	H	0.398594	0.131339	0.607748
	H97	H	0.589076	0.896691	0.603438
	H98	H	0.588577	0.127658	0.421087
	H99	H	0.407199	0.897799	0.419601
	H100	H	0.591133	0.424707	0.123444
	H101	H	0.579731	0.600884	0.896374
	H102	H	0.402643	0.605310	0.127812
	H103	H	0.404661	0.422316	0.896826
	H104	H	0.116108	0.613186	0.410521
	H105	H	0.883220	0.608671	0.591373
	H106	H	0.112666	0.419963	0.603405
	H107	H	0.882323	0.426718	0.416941
	H108	H	0.901769	0.628762	0.099074
	H109	H	0.084185	0.398368	0.098661
	H110	H	0.084210	0.626093	0.921431
	H111	H	0.906999	0.393627	0.904947
	H112	H	0.086528	0.916499	0.625780
	H113	H	0.089100	0.103900	0.394729
	H114	H	0.903188	0.104174	0.625854
	H115	H	0.907619	0.919256	0.394560
	H116	H	0.611472	0.105909	0.924783
	H117	H	0.382424	0.096288	0.102005
	H118	H	0.609808	0.919872	0.103131
	H119	H	0.380256	0.918168	0.921649
	C120	C	0.376006	0.020406	0.632136
	C121	C	0.619480	1.003443	0.633929
	C122	C	0.616459	0.019902	0.390856
	C123	C	0.374126	1.003812	0.389099
	C124	C	0.618592	0.387543	0.018199
	C125	C	0.615730	0.630884	1.001866
	C126	C	0.373010	0.632100	0.018667
	C127	C	0.374166	0.388658	1.002668
	C128	C	0.004686	0.635858	0.385799
	C129	C	0.988893	0.634242	0.629519
	C130	C	0.004753	0.391513	0.629929
	C131	C	0.987761	0.391843	0.387183
	C132	C	0.874705	0.519968	0.128674
	C133	C	0.116981	0.503802	0.130792
	C134	C	0.116635	0.520595	0.887955
	C135	C	0.873168	0.503240	0.885179
	C136	C	0.119026	0.891105	0.518340
	C137	C	0.117780	0.134127	0.502016
	C138	C	0.874456	0.134889	0.518529
	C139	C	0.875471	0.892163	0.502159
	C140	C	0.504022	0.131843	0.890246
	C141	C	0.487490	0.131893	0.133267
	C142	C	0.504159	0.887527	0.134573
	C143	C	0.487304	0.889476	0.890446
	C144	C	0.377091	0.897628	0.688585
	C145	C	0.617347	0.125312	0.690785
	C146	C	0.615550	0.897134	0.336107
	C147	C	0.375038	0.125983	0.332076
	C148	C	0.673097	0.388037	0.895385
	C149	C	0.674646	0.629436	0.123382
	C150	C	0.316592	0.631414	0.895947
	C151	C	0.317700	0.389689	0.124779
	C152	C	0.882597	0.693346	0.386560
	C153	C	0.110975	0.689567	0.629262
	C154	C	0.882747	0.335385	0.628216
	C155	C	0.110005	0.334472	0.388394
	C156	C	0.882897	0.392373	0.685853
	C157	C	0.110290	0.632763	0.687568
	C158	C	0.882167	0.635155	0.329438
	C159	C	0.110219	0.393432	0.331766
	C160	C	0.372536	0.690596	0.897081
	C161	C	0.616202	0.686634	0.124412
	C162	C	0.615711	0.330167	0.896488
	C163	C	0.377337	0.333271	0.125737
	C164	C	0.674061	0.897986	0.392629
	C165	C	0.674670	0.126003	0.632920
	C166	C	0.319308	0.898271	0.631192
	C167	C	0.318027	0.126542	0.389825
	C168	C	0.876225	0.398588	0.187547
	C169	C	0.115355	0.626819	0.185209
	C170	C	0.115609	0.398175	0.831676
	C171	C	0.873712	0.625949	0.829129
	C172	C	0.174529	0.893490	0.395842
	C173	C	0.174653	0.132711	0.624773
	C174	C	0.815804	0.133949	0.396669
	C175	C	0.820627	0.891918	0.624690
	C176	C	0.381781	0.188781	0.890302
	C177	C	0.609985	0.187348	0.132994
	C178	C	0.381705	0.832144	0.132567
	C179	C	0.609060	0.831430	0.892183
	C180	C	0.381757	0.890133	0.189781
	C181	C	0.610173	0.129291	0.189790
	C182	C	0.382256	0.132215	0.831317
	C183	C	0.609324	0.889126	0.834597
	C184	C	0.874165	0.191239	0.395876
	C185	C	0.116708	0.190446	0.624655
	C186	C	0.116686	0.835880	0.395193
	C187	C	0.878943	0.835016	0.624239
	C188	C	0.172756	0.397662	0.889346
	C189	C	0.173718	0.625953	0.128812
	C190	C	0.820605	0.396812	0.128196
	C191	C	0.814553	0.624616	0.885504
	C192	C	0.399181	0.105525	0.608984
	C193	C	0.596995	0.918227	0.610749
	C194	C	0.592997	0.105094	0.413222
	C195	C	0.397103	0.918420	0.412827
	C196	C	0.596786	0.410988	0.103461
	C197	C	0.590678	0.607962	0.917022
	C198	C	0.396621	0.608397	0.103658
	C199	C	0.396272	0.411275	0.917035
	C200	C	0.089911	0.612236	0.409066
	C201	C	0.903602	0.611667	0.605064
	C202	C	0.090095	0.414397	0.607844
	C203	C	0.902752	0.415124	0.409920
	C204	C	0.896906	0.605355	0.104833
	C205	C	0.094068	0.418403	0.108556
	C206	C	0.093933	0.605668	0.910576
	C207	C	0.897230	0.418332	0.908561
	C208	C	0.096471	0.913085	0.603779
	C209	C	0.094972	0.111416	0.416661
	C210	C	0.898323	0.112158	0.603781
	C211	C	0.897329	0.916079	0.416836
	C212	C	0.588685	0.107774	0.914570
	C213	C	0.402475	0.109216	0.109540
	C214	C	0.589570	0.909278	0.112664
	C215	C	0.402323	0.913692	0.912914
	Zn216	Zn	0.496426	0.010795	0.761336
	Zn217	Zn	0.495785	0.010999	0.261482
	Zn218	Zn	0.745605	0.510081	0.007891
	Zn219	Zn	0.244835	0.510885	0.009587
	Zn220	Zn	-0.003171	0.763209	0.508448
	Zn221	Zn	-0.003535	0.263041	0.509280
	Zn222	Zn	-0.003770	0.512576	0.758118
	Zn223	Zn	-0.004225	0.513600	0.258319
	Zn224	Zn	0.494574	0.760490	0.011438
	Zn225	Zn	0.496127	0.259845	0.011549
	Zn226	Zn	0.746304	0.012879	0.511541
	Zn227	Zn	0.247115	0.013367	0.510739
	N228	N	0.411763	0.974416	0.689102
	N229	N	0.583862	0.047992	0.691562
	N230	N	0.580496	0.973987	0.334835
	N231	N	0.408997	0.048513	0.331280
	N232	N	0.674939	0.422997	0.972081
	N233	N	0.674536	0.595611	0.046062
	N234	N	0.316692	0.595764	0.972458
	N235	N	0.315357	0.423301	0.047158
	N236	N	0.959790	0.693985	0.420977
	N237	N	0.034368	0.690314	0.593590
	N238	N	0.959666	0.334681	0.594160
	N239	N	0.032983	0.333392	0.422104
	N240	N	0.959881	0.426573	0.687105
	N241	N	0.033046	0.598894	0.687693
	N242	N	0.959129	0.600225	0.328868
	N243	N	0.033251	0.428444	0.330778
	N244	N	0.407086	0.690966	0.974481
	N245	N	0.580102	0.687608	0.047828
	N246	N	0.582397	0.329791	0.973875
	N247	N	0.411288	0.332484	0.048754
	N248	N	0.674690	0.975290	0.426128
	N249	N	0.676214	0.049089	0.598483
	N250	N	0.318537	0.975467	0.596807
	N251	N	0.317467	0.049586	0.424581
	N252	N	0.909340	0.476200	0.187869
	N253	N	0.081112	0.549782	0.186685
	N254	N	0.081610	0.475540	0.830455
	N255	N	0.909454	0.549426	0.828771
	N256	N	0.176259	0.926879	0.473426
	N257	N	0.175617	0.098656	0.547601
	N258	N	0.815761	0.099808	0.474006
	N259	N	0.818739	0.926980	0.547774
	N260	N	0.458335	0.188872	0.925879
	N261	N	0.532834	0.189096	0.098586
	N262	N	0.458747	0.830365	0.098933
	N263	N	0.532214	0.831617	0.926157
	N264	N	0.458935	0.923693	0.191411
	N265	N	0.532980	0.095499	0.190133
	N266	N	0.459288	0.097256	0.831284
	N267	N	0.532527	0.924556	0.833318
	N268	N	0.909911	0.191940	0.472558
	N269	N	0.081999	0.191320	0.547375
	N270	N	0.082920	0.834059	0.472381
	N271	N	0.912360	0.834969	0.546851
	N272	N	0.173643	0.474680	0.923619
	N273	N	0.174800	0.548399	0.095593
	N274	N	0.819553	0.473350	0.092185
	N275	N	0.814104	0.547162	0.919456
	O276	O	1.072178	0.124883	1.058845
	H277	H	1.065544	0.134838	1.057689
	H278	H	1.078744	0.130412	1.065473
	O279	O	-0.071637	0.906388	0.108509
	H280	H	-0.069677	0.913332	0.114831
	H281	H	-0.075698	0.910370	0.118550
	O282	O	0.488941	0.514701	0.374393
	H283	H	0.492088	0.508613	0.364911
	H284	H	0.487177	0.521095	0.368267
	O285	O	0.391452	0.616586	0.442140
	H286	H	0.396907	0.616913	0.436410
	H287	H	0.393306	0.614530	0.440221
	O288	O	0.567176	0.436346	0.562151
	H289	H	0.586963	0.434216	0.575661
	H290	H	0.584423	0.446413	0.551160
	O291	O	0.052029	0.042055	1.019850
	H292	H	0.059941	0.040071	1.022076
	H293	H	0.046860	0.049859	1.016373
	O294	O	1.558311	0.549990	-0.359640
	H295	H	1.556206	0.567042	-0.360953
	H296	H	1.560127	0.542053	-0.360367
	O297	O	0.984888	1.143090	-0.090818
	H298	H	0.985461	1.137907	-0.083153
	H299	H	0.988811	1.139621	-0.091068
	O300	O	0.522367	0.649114	0.523299
	H301	H	0.503471	0.647624	0.515204
	H302	H	0.521526	0.661816	0.514164
	O303	O	0.646304	0.441670	0.429407
	H304	H	0.656957	0.433912	0.434936
	H305	H	0.647044	0.442323	0.424212
	O306	O	0.379559	0.483619	0.489452
	H307	H	0.375432	0.487872	0.494765
	H308	H	0.384410	0.464604	0.492937
	O309	O	0.519009	0.401191	0.428662
	H310	H	0.520480	0.391368	0.425697
	H311	H	0.514069	0.403992	0.432295
	O312	O	0.942437	1.155970	1.082214
	H313	H	0.947246	1.160720	1.066130
	H314	H	0.941818	1.180406	1.095106
	O315	O	0.450659	0.494421	0.442069
	H316	H	0.451465	0.482618	0.454202
	H317	H	0.452082	0.477048	0.439278
	O318	O	0.550887	0.502135	0.559099
	H319	H	0.546065	0.494319	0.546499
	H320	H	0.549676	0.497703	0.565033
	O321	O	0.571823	0.559608	0.588037
	H322	H	0.559459	0.554981	0.582060
	H323	H	0.561933	0.564607	0.577933
	O324	O	-0.146153	1.043084	0.950798
	H325	H	-0.161251	1.041484	0.948072
	H326	H	-0.148089	1.032789	0.938611
	O327	O	-0.049623	1.086233	0.982203
	H328	H	-0.044295	1.093440	0.992933
	H329	H	-0.050484	1.085894	0.966153
	O330	O	0.048676	0.108865	0.062119
	H331	H	0.059895	0.099617	0.044072
	H332	H	0.038912	0.106381	0.067098
	O333	O	0.569710	0.592701	0.586097
	H334	H	0.581472	0.599868	0.582127
	H335	H	0.565943	0.618899	0.589632
	O336	O	-0.131080	0.050790	0.080640
	H337	H	-0.131123	0.049694	0.079200
	H338	H	-0.117346	0.049098	0.078462
	O339	O	-0.057565	-0.051575	0.031613
	H340	H	-0.048969	-0.061623	0.025192
	H341	H	-0.057732	-0.048318	0.023863
	O342	O	0.351174	0.529881	0.581804
	H343	H	0.346862	0.539081	0.581449
	H344	H	0.344811	0.534776	0.576761
	O345	O	0.053550	1.040233	0.864705
	H346	H	0.052115	1.035945	0.846476
	H347	H	0.051084	1.024172	0.862583
	O348	O	1.050412	-0.005094	0.107048
	H349	H	1.059953	-0.006343	0.101175
	H350	H	1.059056	-0.005059	0.105967
	O351	O	0.509580	0.537656	0.454648
	H352	H	0.510106	0.534719	0.459732
	H353	H	0.503489	0.542791	0.461933
	O354	O	0.014502	0.941689	-0.062457
	H355	H	0.005444	0.946473	-0.052451
	H356	H	0.025042	0.940610	-0.063642
	O357	O	1.002992	-0.093214	0.005194
	H358	H	1.000246	-0.078215	0.005481
	H359	H	0.981397	-0.097268	0.015108
	O360	O	1.060193	-0.117296	1.040071
	H361	H	1.066200	-0.109633	1.041519
	H362	H	1.061570	-0.116519	1.044355
	O363	O	0.543136	0.409580	0.596585
	H364	H	0.559820	0.410569	0.595998
	H365	H	0.556357	0.418609	0.614374
	O366	O	0.390521	0.550720	0.539063
	H367	H	0.395013	0.549210	0.527184
	H368	H	0.396897	0.541165	0.535511
	O369	O	0.993392	0.114817	-0.080806
	H370	H	0.987769	0.111756	-0.072401
	H371	H	0.983501	0.111172	-0.076936
	O372	O	0.586575	0.521553	0.465971
	H373	H	0.579455	0.522183	0.469606
	H374	H	0.579538	0.528570	0.462104
	O375	O	0.946325	-0.112661	1.021068
	H376	H	0.947700	-0.118650	1.035915
	H377	H	0.937236	-0.121394	1.023518
	O378	O	0.035593	0.970978	0.122657
	H379	H	0.039663	0.982007	0.117761
	H380	H	0.038661	0.969374	0.130113
	O381	O	0.414291	0.513293	0.413859
	H382	H	0.399467	0.524275	0.406089
	H383	H	0.395667	0.511624	0.410858
	O384	O	0.956723	0.953927	-0.095585
	H385	H	0.955236	0.954174	-0.086484
	H386	H	0.957037	0.944540	-0.096732
	O387	O	0.371825	-0.508078	0.546865
	H388	H	0.360091	-0.512823	0.545128
	H389	H	0.364345	-0.517610	0.557066
	O390	O	1.072207	1.043231	0.044989
	H391	H	1.076877	1.040762	0.048807
	H392	H	1.059817	1.048887	0.030381
	O393	O	0.553372	0.473676	0.605269
	H394	H	0.559555	0.478602	0.616424
	H395	H	0.559696	0.484570	0.601554
