data_Molecule from HDF5

_cell_length_a		16.324031
_cell_length_b		16.305575
_cell_length_c		16.239853
_cell_angle_alpha	89.570013
_cell_angle_beta	89.379309
_cell_angle_gamma	90.182818
_symmetry_space_group_name_H-M	'P 1'
_symmetry_Int_Tables_number		1

loop_
	_symmetry_equiv_pos_as_xyz
	x,y,z

loop_
	_atom_site_label
	_atom_site_type_symbol
	_atom_site_fract_x
	_atom_site_fract_y
	_atom_site_fract_z
	H0	H	0.406613	0.840700	0.723006
	H1	H	0.606459	0.167634	0.716789
	H2	H	0.608620	0.839333	0.290745
	H3	H	0.413149	0.167121	0.290705
	H4	H	0.726632	0.403405	0.842614
	H5	H	0.721356	0.601860	0.168846
	H6	H	0.295499	0.604614	0.841456
	H7	H	0.291156	0.401949	0.168907
	H8	H	0.844091	0.720417	0.406010
	H9	H	0.170223	0.719738	0.602334
	H10	H	0.845524	0.285812	0.608469
	H11	H	0.171266	0.290622	0.404194
	H12	H	0.845638	0.401785	0.724107
	H13	H	0.171872	0.601028	0.715851
	H14	H	0.843473	0.603142	0.292161
	H15	H	0.170619	0.406910	0.288639
	H16	H	0.411938	0.719846	0.841758
	H17	H	0.606819	0.717206	0.168399
	H18	H	0.609274	0.290632	0.841139
	H19	H	0.406259	0.285382	0.168607
	H20	H	0.726086	0.841193	0.404171
	H21	H	0.723954	0.167069	0.601948
	H22	H	0.289022	0.841878	0.609018
	H23	H	0.295737	0.167458	0.405394
	H24	H	0.907200	0.339958	0.223485
	H25	H	0.104024	0.667981	0.215822
	H26	H	0.107804	0.339183	0.790972
	H27	H	0.911780	0.665817	0.790990
	H28	H	0.223402	0.908323	0.341542
	H29	H	0.222630	0.103268	0.669375
	H30	H	0.795790	0.105497	0.340787
	H31	H	0.789722	0.903501	0.667954
	H32	H	0.344835	0.218382	0.907428
	H33	H	0.671117	0.219735	0.101788
	H34	H	0.345874	0.785294	0.109119
	H35	H	0.671658	0.789982	0.905374
	H36	H	0.346180	0.903756	0.223208
	H37	H	0.673363	0.100958	0.215652
	H38	H	0.344726	0.102303	0.791668
	H39	H	0.671325	0.905920	0.788836
	H40	H	0.912112	0.220622	0.341502
	H41	H	0.106111	0.217761	0.669725
	H42	H	0.107191	0.791522	0.341431
	H43	H	0.904598	0.787250	0.668850
	H44	H	0.224330	0.339591	0.906603
	H45	H	0.223637	0.666108	0.103313
	H46	H	0.790390	0.340511	0.107957
	H47	H	0.795471	0.666068	0.906039
	H48	H	0.404836	0.121175	0.592160
	H49	H	0.594749	0.889477	0.597389
	H50	H	0.604140	0.121560	0.405551
	H51	H	0.421963	0.889900	0.416818
	H52	H	0.603917	0.404255	0.125275
	H53	H	0.601489	0.595156	0.889520
	H54	H	0.417958	0.595193	0.121218
	H55	H	0.414066	0.411102	0.887615
	H56	H	0.119266	0.593381	0.416902
	H57	H	0.890864	0.590747	0.605531
	H58	H	0.123097	0.405992	0.591005
	H59	H	0.892913	0.412021	0.418392
	H60	H	0.121176	0.418041	0.596275
	H61	H	0.889204	0.602690	0.599912
	H62	H	0.124476	0.595025	0.403005
	H63	H	0.891633	0.412604	0.413361
	H64	H	0.412508	0.595455	0.123279
	H65	H	0.602051	0.600529	0.887614
	H66	H	0.601270	0.419859	0.119348
	H67	H	0.418261	0.414776	0.890447
	H68	H	0.598264	0.117449	0.411420
	H69	H	0.601000	0.889068	0.592378
	H70	H	0.416458	0.122615	0.608288
	H71	H	0.410166	0.887385	0.419751
	H72	H	0.905039	0.623083	0.100692
	H73	H	0.100531	0.386033	0.101492
	H74	H	0.102423	0.617739	0.914613
	H75	H	0.921686	0.387396	0.910867
	H76	H	0.098003	0.913841	0.621861
	H77	H	0.101106	0.098862	0.389457
	H78	H	0.910303	0.088898	0.620641
	H79	H	0.917904	0.911027	0.388419
	H80	H	0.624159	0.101789	0.914510
	H81	H	0.393401	0.098170	0.096722
	H82	H	0.623989	0.913394	0.097615
	H83	H	0.394782	0.916253	0.915540
	H84	H	0.626248	0.907574	0.100977
	H85	H	0.394971	0.090692	0.096608
	H86	H	0.622112	0.091886	0.910436
	H87	H	0.390045	0.907654	0.911050
	H88	H	0.921865	0.093916	0.618553
	H89	H	0.104174	0.100466	0.388310
	H90	H	0.096670	0.909770	0.621714
	H91	H	0.916244	0.912454	0.388887
	H92	H	0.107099	0.620777	0.908781
	H93	H	0.096100	0.388274	0.098023
	H94	H	0.919064	0.619357	0.105801
	H95	H	0.916636	0.388815	0.922520
	H96	H	0.424583	0.115105	0.590951
	H97	H	0.601321	0.886615	0.600516
	H98	H	0.606654	0.119469	0.414256
	H99	H	0.414304	0.885487	0.408633
	H100	H	0.589015	0.407761	0.118833
	H101	H	0.606365	0.596732	0.887670
	H102	H	0.413980	0.590787	0.120994
	H103	H	0.419881	0.408404	0.888664
	H104	H	0.125456	0.606470	0.412487
	H105	H	0.894530	0.592331	0.593072
	H106	H	0.126962	0.407788	0.603754
	H107	H	0.891601	0.408678	0.416096
	H108	H	0.914903	0.617032	0.090729
	H109	H	0.101836	0.387383	0.095692
	H110	H	0.099856	0.618552	0.907848
	H111	H	0.909939	0.383674	0.912552
	H112	H	0.100722	0.910365	0.623033
	H113	H	0.104114	0.096876	0.389338
	H114	H	0.913193	0.100792	0.623778
	H115	H	0.918465	0.913150	0.388538
	H116	H	0.626775	0.099328	0.904697
	H117	H	0.392164	0.093632	0.102678
	H118	H	0.624832	0.907145	0.094033
	H119	H	0.393471	0.908005	0.920591
	C120	C	0.385423	0.012099	0.627647
	C121	C	0.628706	0.995957	0.625095
	C122	C	0.631687	0.011734	0.381979
	C123	C	0.387737	0.995661	0.384960
	C124	C	0.628867	0.382210	0.013385
	C125	C	0.630673	0.625304	0.996534
	C126	C	0.387314	0.624480	0.013599
	C127	C	0.387053	0.381721	0.996835
	C128	C	0.014956	0.626560	0.383223
	C129	C	0.999445	0.624447	0.626790
	C130	C	0.016417	0.380970	0.627632
	C131	C	0.999603	0.383075	0.385030
	C132	C	0.884124	0.512047	0.128776
	C133	C	0.128143	0.495334	0.125784
	C134	C	0.131572	0.511098	0.882364
	C135	C	0.887696	0.494209	0.885375
	C136	C	0.128842	0.883133	0.513968
	C137	C	0.130677	0.126604	0.497420
	C138	C	0.887328	0.125071	0.513057
	C139	C	0.886468	0.882455	0.496779
	C140	C	0.516737	0.126350	0.881962
	C141	C	0.501040	0.123828	0.125728
	C142	C	0.517484	0.879775	0.128343
	C143	C	0.500038	0.882441	0.885124
	C144	C	0.386385	0.889671	0.684692
	C145	C	0.626123	0.118913	0.679001
	C146	C	0.629188	0.888589	0.327697
	C147	C	0.391728	0.118468	0.328536
	C148	C	0.687169	0.383925	0.890850
	C149	C	0.684173	0.622179	0.119895
	C150	C	0.333176	0.624015	0.890385
	C151	C	0.329703	0.381887	0.119917
	C152	C	0.892640	0.681993	0.386111
	C153	C	0.121890	0.680921	0.622962
	C154	C	0.894106	0.324217	0.627949
	C155	C	0.122453	0.328352	0.384880
	C156	C	0.894189	0.381994	0.685482
	C157	C	0.122529	0.622213	0.679768
	C158	C	0.892491	0.623772	0.329037
	C159	C	0.122179	0.386389	0.327660
	C160	C	0.390804	0.681505	0.890577
	C161	C	0.627357	0.679821	0.119670
	C162	C	0.628718	0.327646	0.890211
	C163	C	0.386619	0.323926	0.119826
	C164	C	0.687563	0.889510	0.384230
	C165	C	0.684988	0.118560	0.622175
	C166	C	0.327728	0.890361	0.628274
	C167	C	0.333640	0.118562	0.385942
	C168	C	0.886666	0.389083	0.185273
	C169	C	0.124893	0.618721	0.178938
	C170	C	0.128540	0.388089	0.828161
	C171	C	0.891337	0.617305	0.829511
	C172	C	0.185777	0.886535	0.390741
	C173	C	0.184957	0.123631	0.620511
	C174	C	0.833285	0.124698	0.390002
	C175	C	0.828510	0.883319	0.619433
	C176	C	0.393662	0.180908	0.886105
	C177	C	0.623117	0.180528	0.122156
	C178	C	0.394840	0.823920	0.128019
	C179	C	0.623119	0.827956	0.885521
	C180	C	0.394759	0.882617	0.184769
	C181	C	0.624153	0.121686	0.178937
	C182	C	0.393549	0.123104	0.828697
	C183	C	0.622630	0.885364	0.827474
	C184	C	0.891109	0.182069	0.390095
	C185	C	0.127347	0.180767	0.620623
	C186	C	0.127880	0.828832	0.390521
	C187	C	0.885596	0.825683	0.619856
	C188	C	0.186404	0.388404	0.885856
	C189	C	0.184288	0.617968	0.122797
	C190	C	0.828818	0.389152	0.127918
	C191	C	0.833554	0.617298	0.886872
	C192	C	0.408463	0.097571	0.603890
	C193	C	0.605840	0.910346	0.603085
	C194	C	0.609469	0.097302	0.403730
	C195	C	0.409369	0.909893	0.408283
	C196	C	0.604911	0.404214	0.098952
	C197	C	0.609521	0.603649	0.910687
	C198	C	0.408626	0.600729	0.099326
	C199	C	0.410626	0.404759	0.911345
	C200	C	0.100692	0.604808	0.404582
	C201	C	0.913857	0.601931	0.605737
	C202	C	0.101581	0.403855	0.603863
	C203	C	0.914206	0.404653	0.409018
	C204	C	0.906504	0.597797	0.105763
	C205	C	0.106020	0.409478	0.104523
	C206	C	0.109553	0.596932	0.903928
	C207	C	0.909640	0.408642	0.908560
	C208	C	0.105342	0.904794	0.599867
	C209	C	0.109172	0.105236	0.411282
	C210	C	0.908856	0.101428	0.598906
	C211	C	0.910458	0.905413	0.411000
	C212	C	0.602137	0.104414	0.903579
	C213	C	0.415458	0.100913	0.104874
	C214	C	0.602942	0.902507	0.104586
	C215	C	0.414919	0.904274	0.908845
	Zn216	Zn	0.507886	0.003694	0.755001
	Zn217	Zn	0.509645	0.002870	0.255553
	Zn218	Zn	0.757640	0.502904	0.005726
	Zn219	Zn	0.258836	0.502899	0.004985
	Zn220	Zn	0.007219	0.754312	0.505558
	Zn221	Zn	0.008371	0.253645	0.505706
	Zn222	Zn	0.008575	0.502597	0.755744
	Zn223	Zn	0.007173	0.504243	0.255598
	Zn224	Zn	0.508996	0.752662	0.005317
	Zn225	Zn	0.508124	0.253833	0.004571
	Zn226	Zn	0.759044	0.003998	0.503954
	Zn227	Zn	0.257950	0.004619	0.506071
	N228	N	0.421178	0.966616	0.684813
	N229	N	0.591726	0.041706	0.680640
	N230	N	0.595111	0.965608	0.326406
	N231	N	0.424804	0.040883	0.327848
	N232	N	0.687434	0.417224	0.968566
	N233	N	0.686384	0.588834	0.042375
	N234	N	0.330715	0.589430	0.967895
	N235	N	0.329646	0.417001	0.042635
	N236	N	0.969974	0.683939	0.419123
	N237	N	0.044262	0.682582	0.590746
	N238	N	0.971104	0.323546	0.592658
	N239	N	0.045402	0.326269	0.420060
	N240	N	0.971138	0.416541	0.685447
	N241	N	0.045554	0.587782	0.682229
	N242	N	0.969634	0.589949	0.327283
	N243	N	0.044803	0.419694	0.327635
	N244	N	0.423765	0.681885	0.968306
	N245	N	0.594662	0.681692	0.042076
	N246	N	0.593106	0.326525	0.967288
	N247	N	0.421812	0.323722	0.042368
	N248	N	0.689401	0.967047	0.417074
	N249	N	0.686664	0.040984	0.589228
	N250	N	0.327071	0.967528	0.593537
	N251	N	0.331016	0.041272	0.420236
	N252	N	0.920326	0.466508	0.186010
	N253	N	0.090932	0.541464	0.180985
	N254	N	0.095577	0.465675	0.825633
	N255	N	0.924391	0.539864	0.828478
	N256	N	0.186473	0.919344	0.468590
	N257	N	0.187087	0.090601	0.542854
	N258	N	0.831042	0.089980	0.467441
	N259	N	0.829076	0.918004	0.542035
	N260	N	0.471345	0.183170	0.918362
	N261	N	0.545598	0.181922	0.089868
	N262	N	0.472247	0.821980	0.093728
	N263	N	0.546184	0.826025	0.920726
	N264	N	0.471988	0.916724	0.185118
	N265	N	0.547289	0.086897	0.181089
	N266	N	0.470964	0.090365	0.825603
	N267	N	0.545187	0.918621	0.827035
	N268	N	0.924088	0.182313	0.467640
	N269	N	0.094420	0.182795	0.542912
	N270	N	0.093174	0.826562	0.468039
	N271	N	0.920898	0.824916	0.542549
	N272	N	0.188497	0.465948	0.918497
	N273	N	0.186403	0.540246	0.090381
	N274	N	0.826987	0.466521	0.093606
	N275	N	0.831251	0.539714	0.920984
	O276	O	0.044304	0.007120	0.028254
	H277	H	0.042107	-0.007931	0.017085
	H278	H	0.051411	0.015296	0.035871
	O279	O	0.416174	0.429520	0.552368
	H280	H	0.421546	0.420498	0.554700
	H281	H	0.411615	0.429188	0.549505
	O282	O	0.469220	0.590790	0.503147
	H283	H	0.469579	0.595185	0.487018
	H284	H	0.463465	0.598140	0.522600
	O285	O	1.026756	-0.013590	1.080512
	H286	H	1.037119	-0.006543	1.083164
	H287	H	1.027282	-0.001847	1.077965
	O288	O	1.023259	-0.041646	0.001172
	H289	H	1.022391	-0.028756	0.000037
	H290	H	1.018022	-0.041159	-0.006130
	O291	O	0.475189	0.515713	0.470736
	H292	H	0.492283	0.515452	0.470230
	H293	H	0.478958	0.513783	0.474898
	O294	O	1.518844	0.619059	0.408109
	H295	H	1.513800	0.617915	0.410936
	H296	H	1.514995	0.622391	0.402601
	O297	O	-0.004059	0.010889	-0.033795
	H298	H	-0.007504	0.004181	-0.030732
	H299	H	0.003941	0.016932	-0.026724
	O300	O	0.641908	0.474960	0.362901
	H301	H	0.637054	0.468560	0.366199
	H302	H	0.641617	0.470683	0.347989
	O303	O	0.497118	0.357862	0.516426
	H304	H	0.493726	0.344364	0.531563
	H305	H	0.489686	0.359959	0.518735
	O306	O	1.032460	-0.041722	-0.001531
	H307	H	1.038649	-0.046665	-0.002738
	H308	H	1.030953	-0.052319	0.000210
	O309	O	0.059776	-0.014444	1.005812
	H310	H	0.066047	-0.021160	0.994345
	H311	H	0.056241	-0.011668	1.002247
	O312	O	0.995806	1.007169	1.001446
	H313	H	0.995182	0.997587	0.995064
	H314	H	0.991086	1.007675	0.996400
	O315	O	0.493237	0.561541	0.550919
	H316	H	0.493814	0.566907	0.558963
	H317	H	0.491092	0.555068	0.546435
	O318	O	0.446369	0.590823	0.495760
	H319	H	0.455907	0.591964	0.500869
	H320	H	0.434812	0.583569	0.492796
	O321	O	0.009860	0.961948	1.000630
	H322	H	0.005035	0.954834	0.994195
	H323	H	0.012925	0.958297	1.005716
	O324	O	0.530361	0.454745	0.494376
	H325	H	0.516448	0.462566	0.492939
	H326	H	0.525170	0.442118	0.485151
	O327	O	0.461643	0.483458	0.502447
	H328	H	0.453413	0.495120	0.507717
	H329	H	0.459357	0.484910	0.503673
	O330	O	0.473328	0.488314	0.507672
	H331	H	0.471376	0.487894	0.503116
	H332	H	0.464781	0.475539	0.518601
	O333	O	0.519201	0.557863	0.511354
	H334	H	0.519258	0.557197	0.507810
	H335	H	0.522446	0.558881	0.498516
	O336	O	0.576935	0.448365	0.540953
	H337	H	0.569217	0.445681	0.540205
	H338	H	0.575717	0.452086	0.542753
	O339	O	0.975300	0.980234	0.033614
	H340	H	0.975289	0.979308	0.029839
	H341	H	0.979738	0.974733	0.039617
	O342	O	0.527569	0.456317	0.580934
	H343	H	0.528302	0.454874	0.579460
	H344	H	0.540768	0.471129	0.585113
	O345	O	0.552075	0.484891	0.420122
	H346	H	0.552608	0.493538	0.418896
	H347	H	0.557748	0.482920	0.412039
	O348	O	-0.007291	-0.052606	-0.030360
	H349	H	-0.013808	-0.056096	-0.030578
	H350	H	-0.014634	-0.044975	-0.018680
	O351	O	-0.590751	0.574262	0.491516
	H352	H	-0.586506	0.572903	0.490657
	H353	H	-0.587136	0.571879	0.494100
	O354	O	0.446687	0.383106	0.550517
	H355	H	0.431309	0.386832	0.548578
	H356	H	0.453386	0.385963	0.558064
	O357	O	-0.507959	1.502131	0.603765
	H358	H	-0.506311	1.503162	0.596864
	H359	H	-0.495702	1.502637	0.596745
