data_Molecule from HDF5

_cell_length_a		16.305965
_cell_length_b		16.278727
_cell_length_c		16.330418
_cell_angle_alpha	89.704615
_cell_angle_beta	90.156598
_cell_angle_gamma	89.747595
_symmetry_space_group_name_H-M	'P 1'
_symmetry_Int_Tables_number		1

loop_
	_symmetry_equiv_pos_as_xyz
	x,y,z

loop_
	_atom_site_label
	_atom_site_type_symbol
	_atom_site_fract_x
	_atom_site_fract_y
	_atom_site_fract_z
	H0	H	0.406099	0.842053	0.709325
	H1	H	0.601316	0.169963	0.707048
	H2	H	0.602677	0.841388	0.281712
	H3	H	0.401757	0.167913	0.276606
	H4	H	0.719249	0.406857	0.831269
	H5	H	0.718825	0.603134	0.157540
	H6	H	0.288393	0.605658	0.830653
	H7	H	0.290170	0.405961	0.157008
	H8	H	0.841085	0.723585	0.393692
	H9	H	0.167766	0.719918	0.592422
	H10	H	0.840561	0.291550	0.593313
	H11	H	0.166429	0.290387	0.395367
	H12	H	0.841048	0.405840	0.710410
	H13	H	0.166301	0.604582	0.709992
	H14	H	0.840523	0.607760	0.276869
	H15	H	0.167011	0.406401	0.279248
	H16	H	0.403458	0.722821	0.831290
	H17	H	0.602113	0.719330	0.157606
	H18	H	0.603106	0.291518	0.830736
	H19	H	0.404997	0.288430	0.156158
	H20	H	0.719188	0.841979	0.397020
	H21	H	0.717382	0.169568	0.592168
	H22	H	0.290246	0.841643	0.592714
	H23	H	0.286891	0.168114	0.392790
	H24	H	0.904881	0.342803	0.210747
	H25	H	0.102673	0.669443	0.207987
	H26	H	0.105867	0.342802	0.779101
	H27	H	0.902805	0.668566	0.777188
	H28	H	0.219993	0.904369	0.331884
	H29	H	0.220072	0.105040	0.655819
	H30	H	0.785626	0.107918	0.331915
	H31	H	0.790216	0.906289	0.657509
	H32	H	0.341176	0.221671	0.894245
	H33	H	0.668081	0.217855	0.092643
	H34	H	0.339567	0.791261	0.093192
	H35	H	0.667376	0.792092	0.898409
	H36	H	0.339981	0.905632	0.210677
	H37	H	0.667170	0.102783	0.210173
	H38	H	0.341870	0.107285	0.777202
	H39	H	0.667577	0.906357	0.780833
	H40	H	0.902474	0.224014	0.331553
	H41	H	0.102360	0.219727	0.656778
	H42	H	0.101659	0.792188	0.330538
	H43	H	0.905223	0.789928	0.656622
	H44	H	0.220215	0.342779	0.896078
	H45	H	0.219459	0.668773	0.093937
	H46	H	0.790704	0.341758	0.092841
	H47	H	0.786758	0.668595	0.893531
	H48	H	0.417682	0.117777	0.579592
	H49	H	0.601237	0.886964	0.592223
	H50	H	0.598826	0.123404	0.399072
	H51	H	0.406853	0.886114	0.397681
	H52	H	0.591906	0.419031	0.105782
	H53	H	0.592900	0.597338	0.880284
	H54	H	0.411880	0.601879	0.110232
	H55	H	0.405442	0.408039	0.874438
	H56	H	0.119261	0.600304	0.405817
	H57	H	0.885071	0.602568	0.590697
	H58	H	0.118636	0.415555	0.588787
	H59	H	0.888770	0.412801	0.406306
	H60	H	0.121235	0.409888	0.588984
	H61	H	0.889475	0.602151	0.579705
	H62	H	0.118848	0.593801	0.398722
	H63	H	0.889850	0.422031	0.401767
	H64	H	0.406408	0.597216	0.111053
	H65	H	0.594964	0.602094	0.877559
	H66	H	0.593995	0.401948	0.111520
	H67	H	0.408938	0.421425	0.879985
	H68	H	0.590621	0.120704	0.398505
	H69	H	0.593391	0.889773	0.590029
	H70	H	0.401326	0.123730	0.582267
	H71	H	0.418071	0.890909	0.400719
	H72	H	0.901615	0.623264	0.080556
	H73	H	0.092762	0.391729	0.086881
	H74	H	0.094054	0.619609	0.905534
	H75	H	0.908484	0.386421	0.895970
	H76	H	0.102006	0.915962	0.610357
	H77	H	0.098744	0.097695	0.377735
	H78	H	0.916641	0.101170	0.608187
	H79	H	0.909947	0.910633	0.376741
	H80	H	0.618124	0.096433	0.906525
	H81	H	0.388863	0.096907	0.084224
	H82	H	0.616515	0.914234	0.083253
	H83	H	0.387707	0.918817	0.898401
	H84	H	0.619434	0.916236	0.093010
	H85	H	0.388888	0.096499	0.086529
	H86	H	0.620175	0.093505	0.896674
	H87	H	0.385604	0.911102	0.898272
	H88	H	0.905901	0.102356	0.611750
	H89	H	0.092129	0.095183	0.379592
	H90	H	0.091812	0.916100	0.607418
	H91	H	0.906039	0.918272	0.378134
	H92	H	0.099292	0.623144	0.900397
	H93	H	0.099225	0.389893	0.084192
	H94	H	0.909952	0.624826	0.094038
	H95	H	0.919944	0.392555	0.901235
	H96	H	0.412853	0.123606	0.595146
	H97	H	0.598870	0.890750	0.584424
	H98	H	0.594827	0.119946	0.406868
	H99	H	0.409455	0.890418	0.408806
	H100	H	0.607194	0.413068	0.112444
	H101	H	0.598084	0.597252	0.878430
	H102	H	0.412871	0.595145	0.107775
	H103	H	0.419270	0.410920	0.880107
	H104	H	0.121054	0.602727	0.397317
	H105	H	0.889665	0.593136	0.586144
	H106	H	0.118959	0.412610	0.583427
	H107	H	0.886074	0.414009	0.396502
	H108	H	0.916930	0.619028	0.081774
	H109	H	0.097565	0.388427	0.091317
	H110	H	0.091961	0.621767	0.897751
	H111	H	0.908667	0.391178	0.910079
	H112	H	0.096111	0.907175	0.610669
	H113	H	0.092264	0.102148	0.377550
	H114	H	0.910003	0.092222	0.608594
	H115	H	0.914686	0.917229	0.380207
	H116	H	0.622557	0.103093	0.899809
	H117	H	0.388379	0.098386	0.085938
	H118	H	0.620549	0.907267	0.088483
	H119	H	0.389036	0.914799	0.904920
	C120	C	0.381844	0.013903	0.615541
	C121	C	0.625857	0.997557	0.616503
	C122	C	0.624735	0.013545	0.373349
	C123	C	0.381776	0.996942	0.372435
	C124	C	0.626194	0.383145	0.002494
	C125	C	0.624456	0.627032	0.986375
	C126	C	0.380835	0.628123	0.002315
	C127	C	0.382364	0.383805	0.985317
	C128	C	0.011886	0.628484	0.371496
	C129	C	0.995609	0.627833	0.614989
	C130	C	0.011951	0.383911	0.616214
	C131	C	0.995850	0.386137	0.372888
	C132	C	0.882200	0.514127	0.115012
	C133	C	0.125068	0.497935	0.115612
	C134	C	0.124743	0.513986	0.872867
	C135	C	0.882155	0.497422	0.872649
	C136	C	0.125310	0.884252	0.501978
	C137	C	0.123950	0.126692	0.485678
	C138	C	0.881082	0.128476	0.502505
	C139	C	0.882090	0.885368	0.485883
	C140	C	0.512843	0.127666	0.871922
	C141	C	0.496145	0.126175	0.115463
	C142	C	0.511164	0.883488	0.117050
	C143	C	0.495797	0.885517	0.873141
	C144	C	0.385189	0.890886	0.671184
	C145	C	0.622158	0.120799	0.670080
	C146	C	0.622993	0.890476	0.319018
	C147	C	0.382192	0.119270	0.315184
	C148	C	0.681023	0.386418	0.879691
	C149	C	0.680604	0.623791	0.108864
	C150	C	0.325723	0.626388	0.879634
	C151	C	0.327678	0.385620	0.108255
	C152	C	0.889228	0.684682	0.373383
	C153	C	0.118614	0.682642	0.612689
	C154	C	0.889300	0.329069	0.613878
	C155	C	0.118081	0.329224	0.375229
	C156	C	0.889349	0.386369	0.671669
	C157	C	0.118098	0.625183	0.671098
	C158	C	0.889308	0.627333	0.315256
	C159	C	0.118142	0.386593	0.317176
	C160	C	0.383004	0.684450	0.879852
	C161	C	0.622660	0.681591	0.109017
	C162	C	0.623769	0.328542	0.879757
	C163	C	0.384681	0.327072	0.107747
	C164	C	0.680861	0.890725	0.376443
	C165	C	0.680049	0.120614	0.613196
	C166	C	0.327587	0.890668	0.613290
	C167	C	0.325064	0.119389	0.373084
	C168	C	0.884743	0.391537	0.172014
	C169	C	0.123204	0.620395	0.170751
	C170	C	0.124702	0.391450	0.817268
	C171	C	0.882954	0.620018	0.815755
	C172	C	0.181181	0.885379	0.380005
	C173	C	0.180661	0.124660	0.607799
	C174	C	0.824491	0.127548	0.380147
	C175	C	0.827648	0.886251	0.608559
	C176	C	0.390116	0.184004	0.873819
	C177	C	0.619136	0.180451	0.113306
	C178	C	0.388587	0.828476	0.114181
	C179	C	0.618507	0.829752	0.876936
	C180	C	0.388667	0.885656	0.172311
	C181	C	0.618595	0.123476	0.171995
	C182	C	0.390236	0.126864	0.815877
	C183	C	0.618525	0.886748	0.818470
	C184	C	0.882406	0.185277	0.380182
	C185	C	0.122227	0.181749	0.608024
	C186	C	0.122899	0.828942	0.379603
	C187	C	0.884749	0.828198	0.607892
	C188	C	0.181869	0.391502	0.875475
	C189	C	0.180907	0.620261	0.113499
	C190	C	0.827975	0.390843	0.113490
	C191	C	0.825191	0.619926	0.873555
	C192	C	0.403997	0.099529	0.592467
	C193	C	0.604306	0.911470	0.595226
	C194	C	0.601629	0.099350	0.395158
	C195	C	0.404832	0.911212	0.395616
	C196	C	0.604198	0.404949	0.087835
	C197	C	0.601960	0.605311	0.900937
	C198	C	0.403567	0.604880	0.087619
	C199	C	0.404479	0.406744	0.900179
	C200	C	0.097506	0.605784	0.393994
	C201	C	0.910149	0.605690	0.592204
	C202	C	0.097529	0.406067	0.593749
	C203	C	0.910326	0.409520	0.394975
	C204	C	0.903398	0.600194	0.092105
	C205	C	0.102950	0.412201	0.093902
	C206	C	0.101685	0.599529	0.894747
	C207	C	0.905545	0.412052	0.895720
	C208	C	0.103033	0.906377	0.587460
	C209	C	0.101191	0.104541	0.400294
	C210	C	0.903882	0.105299	0.587542
	C211	C	0.903665	0.908663	0.400333
	C212	C	0.598246	0.104485	0.894451
	C213	C	0.410670	0.103715	0.092397
	C214	C	0.596805	0.905936	0.094771
	C215	C	0.409683	0.908245	0.894376
	Zn216	Zn	0.503797	0.006088	0.743798
	Zn217	Zn	0.503514	0.005043	0.244807
	Zn218	Zn	0.753747	0.505452	-0.005806
	Zn219	Zn	0.253571	0.505644	-0.005796
	Zn220	Zn	0.003898	0.756780	0.493733
	Zn221	Zn	0.003560	0.256686	0.493972
	Zn222	Zn	0.003661	0.505522	0.743880
	Zn223	Zn	0.003814	0.506669	0.243215
	Zn224	Zn	0.503106	0.756345	-0.005777
	Zn225	Zn	0.504741	0.255279	-0.006234
	Zn226	Zn	0.753294	0.005959	0.494616
	Zn227	Zn	0.253163	0.005647	0.493696
	N228	N	0.418219	0.968399	0.672693
	N229	N	0.589281	0.043057	0.672390
	N230	N	0.588712	0.967839	0.317098
	N231	N	0.416667	0.042024	0.314754
	N232	N	0.683017	0.419291	0.956973
	N233	N	0.681767	0.590552	0.031463
	N234	N	0.324519	0.591976	0.956661
	N235	N	0.325909	0.420144	0.031213
	N236	N	0.966502	0.685893	0.407428
	N237	N	0.041469	0.684208	0.578411
	N238	N	0.966456	0.327648	0.580109
	N239	N	0.040846	0.328673	0.408968
	N240	N	0.966941	0.419557	0.673480
	N241	N	0.040669	0.592039	0.672731
	N242	N	0.966613	0.593325	0.313969
	N243	N	0.041176	0.421530	0.315930
	N244	N	0.416664	0.685626	0.957309
	N245	N	0.588249	0.683322	0.032157
	N246	N	0.590130	0.326688	0.956944
	N247	N	0.417884	0.325821	0.030567
	N248	N	0.681932	0.968308	0.409582
	N249	N	0.682282	0.043067	0.580493
	N250	N	0.325381	0.968189	0.579358
	N251	N	0.324744	0.042216	0.407976
	N252	N	0.917773	0.469165	0.172767
	N253	N	0.089264	0.543334	0.172202
	N254	N	0.089700	0.468536	0.815703
	N255	N	0.917702	0.542956	0.815075
	N256	N	0.182905	0.918963	0.457156
	N257	N	0.181919	0.091197	0.530611
	N258	N	0.823616	0.092854	0.457109
	N259	N	0.826082	0.921203	0.531625
	N260	N	0.467326	0.184555	0.907940
	N261	N	0.541868	0.182415	0.079114
	N262	N	0.465730	0.827358	0.080254
	N263	N	0.541109	0.828929	0.910123
	N264	N	0.466039	0.919123	0.174129
	N265	N	0.540976	0.090631	0.173434
	N266	N	0.467366	0.092590	0.814453
	N267	N	0.541021	0.920727	0.816197
	N268	N	0.916950	0.186087	0.457053
	N269	N	0.087687	0.183042	0.531173
	N270	N	0.088769	0.828230	0.456465
	N271	N	0.917940	0.827673	0.530559
	N272	N	0.181892	0.468593	0.909509
	N273	N	0.182175	0.542964	0.079856
	N274	N	0.826151	0.468180	0.078966
	N275	N	0.824712	0.542807	0.908127
	O276	O	1.015100	0.903523	-0.004645
	H277	H	1.013015	0.906597	-0.009278
	H278	H	1.015871	0.899699	0.001546
	O279	O	-0.073684	-0.012492	0.941771
	H280	H	-0.074709	-0.008013	0.942352
	H281	H	-0.079799	-0.007802	0.942481
	O282	O	0.072117	-0.084652	-0.038826
	H283	H	0.068359	-0.077953	-0.043356
	H284	H	0.062869	-0.089007	-0.030252
	O285	O	0.509956	0.516727	0.444957
	H286	H	0.516072	0.516034	0.443363
	H287	H	0.511353	0.517995	0.442164
	O288	O	-0.018201	-0.091036	0.092603
	H289	H	-0.023810	-0.087719	0.099856
	H290	H	-0.018250	-0.088972	0.101287
	O291	O	-0.004669	1.058178	-0.026006
	H292	H	-0.004207	1.066450	-0.022461
	H293	H	0.000828	1.051544	-0.021803
	O294	O	-0.028838	0.986235	0.012245
	H295	H	-0.026625	0.981275	0.020505
	H296	H	-0.026790	0.984924	0.015504
	O297	O	0.901905	0.099619	0.025563
	H298	H	0.911871	0.103719	0.016590
	H299	H	0.894048	0.103982	0.027698
	O300	O	0.558576	0.496173	0.488323
	H301	H	0.561715	0.495388	0.498283
	H302	H	0.556715	0.499825	0.501260
	O303	O	0.913805	0.056680	1.044389
	H304	H	0.913715	0.046645	1.041064
	H305	H	0.926476	0.068693	1.064199
	O306	O	0.085381	1.066264	1.003459
	H307	H	0.083107	1.060522	0.997985
	H308	H	0.084771	1.065861	0.988176
	O309	O	0.043038	1.042378	0.947803
	H310	H	0.046089	1.043795	0.945480
	H311	H	0.046452	1.031426	0.938830
	O312	O	-0.025529	-0.014677	0.870646
	H313	H	-0.022145	-0.016482	0.862758
	H314	H	-0.027795	-0.015581	0.869059
	O315	O	0.524041	0.452296	0.424649
	H316	H	0.529056	0.441521	0.421062
	H317	H	0.526391	0.453386	0.429589
	O318	O	0.010903	0.067355	0.994481
	H319	H	0.008425	0.056503	0.993547
	H320	H	0.007826	0.071851	0.995674
	O321	O	0.495615	0.456131	0.452924
	H322	H	0.503854	0.448303	0.437697
	H323	H	0.493236	0.453439	0.448182
	O324	O	1.021866	-0.069544	0.917602
	H325	H	1.024345	-0.070987	0.913896
	H326	H	1.019829	-0.082678	0.927387
	O327	O	1.083069	1.022906	1.054087
	H328	H	1.081706	1.016611	1.049395
	H329	H	1.084540	1.017755	1.038951
	O330	O	0.515739	0.481348	0.502161
	H331	H	0.510977	0.482744	0.494956
	H332	H	0.510930	0.483376	0.498773
	O333	O	0.061281	0.082613	1.016371
	H334	H	0.066179	0.098438	1.017609
	H335	H	0.069857	0.079366	1.011553
	O336	O	1.073248	-0.002431	1.005407
	H337	H	1.078878	-0.006976	1.004013
	H338	H	1.067841	0.001673	1.005813
	O339	O	0.291981	0.181463	0.853087
	H340	H	0.297429	0.178194	0.851381
	H341	H	0.281093	0.187463	0.859499
	O342	O	-0.078656	1.098455	-0.003069
	H343	H	-0.071958	1.094199	0.010078
	H344	H	-0.079402	1.103721	-0.005073
	O345	O	0.527976	0.480487	0.473331
	H346	H	0.519586	0.483527	0.465012
	H347	H	0.522294	0.487150	0.475102
