data_Molecule from HDF5

_cell_length_a		16.286576
_cell_length_b		16.084092
_cell_length_c		16.432971
_cell_angle_alpha	89.756374
_cell_angle_beta	89.803841
_cell_angle_gamma	90.229090
_symmetry_space_group_name_H-M	'P 1'
_symmetry_Int_Tables_number		1

loop_
	_symmetry_equiv_pos_as_xyz
	x,y,z

loop_
	_atom_site_label
	_atom_site_type_symbol
	_atom_site_fract_x
	_atom_site_fract_y
	_atom_site_fract_z
	H0	H	0.399327	0.838906	0.717279
	H1	H	0.604091	0.166443	0.717698
	H2	H	0.602668	0.839493	0.284401
	H3	H	0.402027	0.167954	0.286932
	H4	H	0.717016	0.403172	0.840878
	H5	H	0.715150	0.604189	0.163698
	H6	H	0.280897	0.606006	0.840583
	H7	H	0.280474	0.402810	0.164531
	H8	H	0.835601	0.715943	0.407419
	H9	H	0.163576	0.716829	0.598948
	H10	H	0.837181	0.286515	0.601097
	H11	H	0.166112	0.294890	0.406894
	H12	H	0.836580	0.399247	0.720070
	H13	H	0.161223	0.605351	0.719954
	H14	H	0.836862	0.607322	0.285709
	H15	H	0.161033	0.402090	0.283269
	H16	H	0.401627	0.718604	0.837888
	H17	H	0.594100	0.716607	0.165205
	H18	H	0.595079	0.292007	0.838425
	H19	H	0.398641	0.287569	0.164814
	H20	H	0.713540	0.837395	0.402817
	H21	H	0.715696	0.167915	0.598404
	H22	H	0.287294	0.837995	0.599987
	H23	H	0.289558	0.169194	0.402676
	H24	H	0.896045	0.340978	0.220999
	H25	H	0.098482	0.669204	0.215943
	H26	H	0.098523	0.338997	0.788324
	H27	H	0.896212	0.667022	0.785233
	H28	H	0.218674	0.903402	0.339523
	H29	H	0.218354	0.102962	0.663066
	H30	H	0.785996	0.105038	0.338910
	H31	H	0.781467	0.898674	0.661157
	H32	H	0.333902	0.215855	0.904424
	H33	H	0.662318	0.219622	0.098083
	H34	H	0.334183	0.790614	0.099371
	H35	H	0.662651	0.792732	0.905864
	H36	H	0.337363	0.899631	0.221977
	H37	H	0.662313	0.106798	0.216714
	H38	H	0.337912	0.106605	0.781682
	H39	H	0.661181	0.900613	0.784377
	H40	H	0.905913	0.219279	0.339264
	H41	H	0.099647	0.217084	0.664687
	H42	H	0.099409	0.788578	0.338891
	H43	H	0.902459	0.788640	0.664141
	H44	H	0.210407	0.338616	0.904902
	H45	H	0.212157	0.669543	0.100363
	H46	H	0.782390	0.339391	0.104114
	H47	H	0.787089	0.669521	0.904666
	H48	H	0.419542	0.116613	0.587852
	H49	H	0.584743	0.888003	0.591074
	H50	H	0.586819	0.119478	0.405531
	H51	H	0.407031	0.886872	0.414713
	H52	H	0.590262	0.411832	0.117375
	H53	H	0.599172	0.594553	0.886220
	H54	H	0.402754	0.592630	0.115849
	H55	H	0.402908	0.413879	0.888117
	H56	H	0.117988	0.594093	0.400562
	H57	H	0.884544	0.581644	0.603740
	H58	H	0.112151	0.415281	0.588295
	H59	H	0.882042	0.412889	0.403244
	H60	H	0.116445	0.420163	0.606418
	H61	H	0.877931	0.606347	0.601726
	H62	H	0.116366	0.601753	0.411862
	H63	H	0.882616	0.404702	0.415340
	H64	H	0.407865	0.595673	0.115609
	H65	H	0.589440	0.596243	0.888901
	H66	H	0.590334	0.414211	0.115572
	H67	H	0.405000	0.409936	0.887831
	H68	H	0.595007	0.119084	0.414528
	H69	H	0.597428	0.884391	0.589892
	H70	H	0.401232	0.123908	0.588428
	H71	H	0.408746	0.883719	0.406957
	H72	H	0.905606	0.622025	0.090770
	H73	H	0.091009	0.384813	0.099259
	H74	H	0.088452	0.623467	0.901977
	H75	H	0.893118	0.383446	0.917437
	H76	H	0.101994	0.911465	0.618438
	H77	H	0.097483	0.099667	0.385465
	H78	H	0.907607	0.097990	0.617536
	H79	H	0.903148	0.912577	0.384030
	H80	H	0.612449	0.094650	0.915862
	H81	H	0.380122	0.099113	0.098249
	H82	H	0.616054	0.913968	0.098440
	H83	H	0.385169	0.914987	0.915075
	H84	H	0.617444	0.907037	0.094650
	H85	H	0.385702	0.092293	0.090512
	H86	H	0.615056	0.091059	0.902841
	H87	H	0.381552	0.916639	0.901038
	H88	H	0.901258	0.090975	0.617235
	H89	H	0.097855	0.096022	0.385840
	H90	H	0.091240	0.916938	0.612959
	H91	H	0.910994	0.914376	0.387921
	H92	H	0.084687	0.619198	0.913500
	H93	H	0.084045	0.388409	0.095683
	H94	H	0.904767	0.624453	0.098784
	H95	H	0.910255	0.381923	0.897459
	H96	H	0.412577	0.123914	0.604002
	H97	H	0.590939	0.883735	0.601352
	H98	H	0.598691	0.123794	0.403222
	H99	H	0.414997	0.887636	0.411698
	H100	H	0.588226	0.412658	0.115942
	H101	H	0.594598	0.603998	0.883538
	H102	H	0.402304	0.598500	0.117465
	H103	H	0.401445	0.410117	0.885615
	H104	H	0.112083	0.588775	0.412216
	H105	H	0.887295	0.593407	0.581970
	H106	H	0.120453	0.401990	0.599651
	H107	H	0.887297	0.418498	0.415317
	H108	H	0.912066	0.619397	0.095704
	H109	H	0.090648	0.387108	0.091081
	H110	H	0.096955	0.623341	0.912385
	H111	H	0.918025	0.392025	0.920204
	H112	H	0.091600	0.904290	0.617397
	H113	H	0.095132	0.098127	0.386487
	H114	H	0.910036	0.090557	0.614128
	H115	H	0.908650	0.905903	0.384767
	H116	H	0.617515	0.103012	0.906914
	H117	H	0.383037	0.088071	0.100943
	H118	H	0.613994	0.912677	0.091445
	H119	H	0.379383	0.904089	0.907149
	C120	C	0.380512	0.012157	0.622465
	C121	C	0.621748	0.993915	0.622671
	C122	C	0.622432	0.011957	0.379267
	C123	C	0.380966	0.994815	0.381385
	C124	C	0.619674	0.383165	0.009782
	C125	C	0.621804	0.626632	0.993773
	C126	C	0.376153	0.625871	0.009308
	C127	C	0.374144	0.381140	0.993995
	C128	C	0.007946	0.624784	0.380466
	C129	C	0.990800	0.624183	0.624339
	C130	C	0.008592	0.381087	0.626489
	C131	C	0.991900	0.383061	0.381781
	C132	C	0.877345	0.513021	0.124686
	C133	C	0.118569	0.495618	0.123651
	C134	C	0.118696	0.512728	0.881152
	C135	C	0.877939	0.494720	0.882025
	C136	C	0.123603	0.881468	0.509637
	C137	C	0.124794	0.125907	0.493420
	C138	C	0.878994	0.124430	0.509484
	C139	C	0.878336	0.880733	0.492236
	C140	C	0.507128	0.125277	0.879384
	C141	C	0.490807	0.124225	0.123738
	C142	C	0.507680	0.881744	0.124206
	C143	C	0.490289	0.882905	0.880012
	C144	C	0.380466	0.888096	0.678505
	C145	C	0.622429	0.117555	0.678685
	C146	C	0.621606	0.888282	0.323082
	C147	C	0.382475	0.118916	0.325137
	C148	C	0.677343	0.383748	0.888707
	C149	C	0.676820	0.624447	0.115316
	C150	C	0.320114	0.624956	0.888260
	C151	C	0.318752	0.382732	0.116019
	C152	C	0.884886	0.679912	0.384820
	C153	C	0.114035	0.679865	0.620849
	C154	C	0.886066	0.323965	0.622990
	C155	C	0.115859	0.330299	0.385159
	C156	C	0.885669	0.380432	0.681879
	C157	C	0.112860	0.624346	0.680875
	C158	C	0.885464	0.625383	0.324677
	C159	C	0.113273	0.383688	0.323540
	C160	C	0.380078	0.681481	0.887102
	C161	C	0.616495	0.680089	0.116217
	C162	C	0.616626	0.328400	0.887546
	C163	C	0.377548	0.325401	0.116141
	C164	C	0.676820	0.887174	0.381920
	C165	C	0.678131	0.118196	0.619635
	C166	C	0.324678	0.887703	0.620205
	C167	C	0.326098	0.119368	0.382314
	C168	C	0.876511	0.389732	0.182200
	C169	C	0.117946	0.619840	0.178464
	C170	C	0.117585	0.388325	0.826260
	C171	C	0.877624	0.618239	0.824527
	C172	C	0.180060	0.883004	0.387921
	C173	C	0.180340	0.123511	0.614787
	C174	C	0.823958	0.124593	0.387764
	C175	C	0.820927	0.880121	0.613550
	C176	C	0.383655	0.179297	0.882733
	C177	C	0.613665	0.181186	0.119287
	C178	C	0.383778	0.826989	0.121394
	C179	C	0.613566	0.829076	0.884199
	C180	C	0.385644	0.881502	0.182086
	C181	C	0.613524	0.125222	0.178618
	C182	C	0.385706	0.124883	0.821724
	C183	C	0.612873	0.883094	0.824031
	C184	C	0.883678	0.181626	0.387732
	C185	C	0.120964	0.179666	0.615983
	C186	C	0.120566	0.826091	0.387526
	C187	C	0.881422	0.825549	0.615071
	C188	C	0.173394	0.388163	0.884360
	C189	C	0.174283	0.620189	0.120749
	C190	C	0.820439	0.389077	0.123796
	C191	C	0.823757	0.619675	0.884045
	C192	C	0.404072	0.098963	0.599873
	C193	C	0.597939	0.907495	0.600448
	C194	C	0.600143	0.098394	0.401390
	C195	C	0.403638	0.908395	0.404489
	C196	C	0.596600	0.406263	0.094297
	C197	C	0.600639	0.604824	0.908449
	C198	C	0.398090	0.602523	0.094553
	C199	C	0.396556	0.404466	0.909075
	C200	C	0.093419	0.601560	0.401905
	C201	C	0.905314	0.600576	0.602184
	C202	C	0.094306	0.405425	0.604574
	C203	C	0.906214	0.405539	0.404601
	C204	C	0.900689	0.599385	0.101664
	C205	C	0.095460	0.409182	0.101759
	C206	C	0.096633	0.599586	0.902859
	C207	C	0.900493	0.408307	0.904955
	C208	C	0.101451	0.904114	0.594378
	C209	C	0.103167	0.104416	0.408070
	C210	C	0.900291	0.100289	0.594170
	C211	C	0.900806	0.904098	0.407591
	C212	C	0.592749	0.102827	0.901839
	C213	C	0.405139	0.100207	0.102734
	C214	C	0.593524	0.904323	0.101451
	C215	C	0.404217	0.905354	0.901519
	Zn216	Zn	0.500393	0.003145	0.750773
	Zn217	Zn	0.500652	0.003218	0.252732
	Zn218	Zn	0.750751	0.503859	0.002083
	Zn219	Zn	0.245828	0.504083	0.002281
	Zn220	Zn	-0.000007	0.752625	0.501807
	Zn221	Zn	0.002003	0.254215	0.502922
	Zn222	Zn	-0.002051	0.503031	0.754241
	Zn223	Zn	-0.001433	0.504161	0.252049
	Zn224	Zn	0.498542	0.755203	0.001119
	Zn225	Zn	0.497592	0.253169	0.001680
	Zn226	Zn	0.748992	0.002212	0.500422
	Zn227	Zn	0.253659	0.004147	0.501300
	N228	N	0.414430	0.966470	0.680066
	N229	N	0.588408	0.039164	0.681132
	N230	N	0.588595	0.966741	0.321179
	N231	N	0.415929	0.040448	0.324406
	N232	N	0.679458	0.417051	0.965540
	N233	N	0.680221	0.591852	0.038149
	N234	N	0.317729	0.591242	0.965284
	N235	N	0.316543	0.416520	0.038918
	N236	N	0.961903	0.679665	0.418722
	N237	N	0.037167	0.679966	0.586578
	N238	N	0.963624	0.324128	0.589518
	N239	N	0.039390	0.330111	0.421016
	N240	N	0.963015	0.414974	0.684335
	N241	N	0.035107	0.590555	0.683438
	N242	N	0.963145	0.592143	0.321571
	N243	N	0.035054	0.415743	0.321312
	N244	N	0.414369	0.681905	0.963616
	N245	N	0.582927	0.681548	0.039497
	N246	N	0.581560	0.327712	0.963845
	N247	N	0.411300	0.324299	0.039312
	N248	N	0.677504	0.965193	0.416109
	N249	N	0.677795	0.040209	0.585647
	N250	N	0.324649	0.966100	0.586230
	N251	N	0.325295	0.041379	0.416735
	N252	N	0.911094	0.467786	0.182964
	N253	N	0.083968	0.541557	0.180378
	N254	N	0.084422	0.466867	0.824117
	N255	N	0.910968	0.539693	0.823301
	N256	N	0.182212	0.916712	0.464646
	N257	N	0.182697	0.090880	0.537685
	N258	N	0.820903	0.089780	0.464414
	N259	N	0.818723	0.913652	0.536434
	N260	N	0.460180	0.179583	0.917847
	N261	N	0.536389	0.180819	0.085807
	N262	N	0.460573	0.826975	0.086127
	N263	N	0.536510	0.828866	0.918432
	N264	N	0.463734	0.914805	0.184029
	N265	N	0.536187	0.090610	0.181281
	N266	N	0.463781	0.092059	0.819413
	N267	N	0.535004	0.915642	0.821152
	N268	N	0.917106	0.181721	0.464433
	N269	N	0.087167	0.181500	0.539435
	N270	N	0.086110	0.824953	0.464112
	N271	N	0.916517	0.825976	0.538799
	N272	N	0.174398	0.466568	0.917706
	N273	N	0.174959	0.541795	0.087340
	N274	N	0.820647	0.466933	0.088935
	N275	N	0.823935	0.541915	0.919216
	O276	O	0.509549	0.509822	0.434650
	H277	H	0.505464	0.503793	0.431949
	H278	H	0.515698	0.503748	0.430012
	O279	O	0.547987	0.581004	0.395241
	H280	H	0.548565	0.599654	0.387179
	H281	H	0.558167	0.578782	0.394457
	O282	O	0.973506	1.066647	0.102456
	H283	H	0.972408	1.066162	0.103253
	H284	H	0.978700	1.075215	0.094993
	O285	O	1.023419	0.063127	1.074077
	H286	H	1.031466	0.053848	1.078801
	H287	H	1.023222	0.072778	1.067194
	O288	O	0.536809	0.444784	0.504349
	H289	H	0.549716	0.452779	0.508405
	H290	H	0.535323	0.436513	0.507038
	O291	O	0.493285	0.589202	0.369716
	H292	H	0.487635	0.566192	0.368164
	H293	H	0.496874	0.606812	0.362272
	O294	O	0.568082	0.389286	0.469997
	H295	H	0.573878	0.383104	0.468152
	H296	H	0.575190	0.395849	0.495865
	O297	O	0.237982	0.165649	0.758827
	H298	H	0.236237	0.169979	0.762684
	H299	H	0.238069	0.158308	0.759106
	O300	O	1.052180	0.088060	0.936155
	H301	H	1.039592	0.090782	0.948559
	H302	H	1.049577	0.082885	0.930239
	O303	O	0.966680	0.915590	-0.056957
	H304	H	0.964725	0.902611	-0.047837
	H305	H	0.973344	0.906251	-0.051996
	O306	O	0.007550	1.035866	1.005790
	H307	H	-0.004518	1.035542	0.998992
	H308	H	0.013112	1.044216	0.993034
	O309	O	0.398763	0.433722	0.464357
	H310	H	0.414815	0.437271	0.459759
	H311	H	0.394343	0.439202	0.456813
	O312	O	-0.114426	0.048583	0.006755
	H313	H	-0.115171	0.058190	0.010204
	H314	H	-0.132631	0.046325	0.003059
	O315	O	1.087316	-0.109495	-0.023515
	H316	H	1.079939	-0.099164	-0.020856
	H317	H	1.071804	-0.107862	-0.024872
	O318	O	0.856021	0.984057	0.954893
	H319	H	0.860573	0.983692	0.942019
	H320	H	0.848044	0.979395	0.956616
	O321	O	-0.496626	-0.523708	0.585231
	H322	H	-0.516183	-0.515016	0.594718
	H323	H	-0.488467	-0.515307	0.583335
	O324	O	0.530429	0.427677	0.539013
	H325	H	0.534738	0.425595	0.534239
	H326	H	0.532049	0.432573	0.530447
	O327	O	-0.486919	-0.447317	0.494560
	H328	H	-0.485450	-0.445361	0.497525
	H329	H	-0.497982	-0.442099	0.487321
	O330	O	0.440192	0.644151	0.478232
	H331	H	0.444921	0.638787	0.465530
	H332	H	0.427966	0.657521	0.467651
	O333	O	0.021624	1.082023	0.980826
	H334	H	0.021574	1.078428	0.963712
	H335	H	0.016721	1.088035	0.972946
	O336	O	0.030115	-0.011736	-0.117926
	H337	H	0.024292	-0.027272	-0.107915
	H338	H	0.042325	-0.017175	-0.121397
	O339	O	0.526654	0.534790	0.527549
	H340	H	0.528869	0.544957	0.537822
	H341	H	0.523385	0.525761	0.521809
	O342	O	0.853183	1.095699	1.013562
	H343	H	0.859519	1.084575	1.016585
	H344	H	0.850045	1.097808	1.000155
	O345	O	0.920365	1.001883	-0.082894
	H346	H	0.931298	1.002753	-0.085372
	H347	H	0.918072	1.007606	-0.094530
	O348	O	0.389643	0.456567	0.451916
	H349	H	0.391676	0.459737	0.451360
	H350	H	0.390488	0.459586	0.438322
	O351	O	0.514358	0.454862	0.478974
	H352	H	0.514234	0.447155	0.496050
	H353	H	0.508285	0.454805	0.472270
	O354	O	0.594328	0.589527	0.589052
	H355	H	0.599153	0.591998	0.580057
	H356	H	0.593273	0.590132	0.593647
	O357	O	1.054878	-0.087293	0.991603
	H358	H	1.053660	-0.078693	0.989756
	H359	H	1.043614	-0.090224	0.992241
	O360	O	0.517652	0.489872	0.466621
	H361	H	0.519426	0.485125	0.475167
	H362	H	0.511300	0.496409	0.449762
	O363	O	1.061858	1.029764	0.079338
	H364	H	1.069060	1.040823	0.079390
	H365	H	1.072219	1.015566	0.081564
	O366	O	1.049169	0.996648	1.135257
	H367	H	1.058188	0.993823	1.146562
	H368	H	1.062519	0.998096	1.140798
	O369	O	1.016898	-0.068975	0.927191
	H370	H	1.013633	-0.078046	0.932383
	H371	H	1.024642	-0.072296	0.918369
	O372	O	0.004811	-0.002170	0.109826
	H373	H	0.000252	0.004063	0.115352
	H374	H	0.006661	-0.006170	0.122982
	O375	O	1.006631	0.115559	-0.014239
	H376	H	1.003175	0.112383	-0.026876
	H377	H	1.009116	0.123415	-0.023491
	O378	O	0.429673	0.562373	0.467818
	H379	H	0.424290	0.562243	0.469946
	H380	H	0.425336	0.547350	0.468648
	O381	O	0.538672	0.533324	0.616234
	H382	H	0.535825	0.522236	0.617891
	H383	H	0.536312	0.520770	0.611107
