data_Molecule from HDF5

_cell_length_a		16.476362
_cell_length_b		16.280908
_cell_length_c		16.133262
_cell_angle_alpha	90.167215
_cell_angle_beta	89.730096
_cell_angle_gamma	89.547381
_symmetry_space_group_name_H-M	'P 1'
_symmetry_Int_Tables_number		1

loop_
	_symmetry_equiv_pos_as_xyz
	x,y,z

loop_
	_atom_site_label
	_atom_site_type_symbol
	_atom_site_fract_x
	_atom_site_fract_y
	_atom_site_fract_z
	H0	H	0.394637	0.835836	0.717123
	H1	H	0.581891	0.166205	0.715276
	H2	H	0.587940	0.836499	0.290820
	H3	H	0.393500	0.165663	0.293242
	H4	H	0.705707	0.399055	0.839382
	H5	H	0.703928	0.601471	0.167622
	H6	H	0.273116	0.602108	0.839237
	H7	H	0.273589	0.403149	0.168306
	H8	H	0.828034	0.717409	0.405757
	H9	H	0.151226	0.715932	0.604567
	H10	H	0.827784	0.286186	0.603175
	H11	H	0.150439	0.280641	0.401021
	H12	H	0.826391	0.404245	0.717759
	H13	H	0.151733	0.594465	0.716956
	H14	H	0.826245	0.596882	0.292539
	H15	H	0.151635	0.399839	0.285997
	H16	H	0.391686	0.715183	0.838886
	H17	H	0.583187	0.711723	0.170592
	H18	H	0.588154	0.287282	0.839086
	H19	H	0.391900	0.290537	0.170340
	H20	H	0.708998	0.839256	0.401003
	H21	H	0.704880	0.163733	0.606662
	H22	H	0.273693	0.837696	0.606465
	H23	H	0.271803	0.163042	0.404376
	H24	H	0.893516	0.336140	0.216516
	H25	H	0.082189	0.664359	0.216176
	H26	H	0.086794	0.335075	0.790194
	H27	H	0.893168	0.665349	0.792795
	H28	H	0.207247	0.896648	0.340443
	H29	H	0.203742	0.101646	0.668016
	H30	H	0.773955	0.101788	0.340167
	H31	H	0.773978	0.901346	0.668132
	H32	H	0.328636	0.219400	0.905239
	H33	H	0.651580	0.217417	0.104409
	H34	H	0.327840	0.786625	0.105441
	H35	H	0.651129	0.782425	0.902999
	H36	H	0.327934	0.904467	0.220400
	H37	H	0.653295	0.097385	0.218596
	H38	H	0.327646	0.100232	0.790801
	H39	H	0.652707	0.901043	0.788622
	H40	H	0.891413	0.214016	0.338721
	H41	H	0.083943	0.212190	0.669367
	H42	H	0.088578	0.786049	0.339066
	H43	H	0.892684	0.788905	0.668777
	H44	H	0.209642	0.338082	0.899511
	H45	H	0.203545	0.662926	0.107442
	H46	H	0.774094	0.337137	0.103507
	H47	H	0.771931	0.662763	0.903281
	H48	H	0.394300	0.115904	0.595631
	H49	H	0.582573	0.885230	0.592607
	H50	H	0.581227	0.117198	0.413030
	H51	H	0.398742	0.887846	0.419125
	H52	H	0.591541	0.413435	0.123185
	H53	H	0.584946	0.593491	0.885332
	H54	H	0.398335	0.603458	0.122686
	H55	H	0.407687	0.406485	0.888609
	H56	H	0.108717	0.601351	0.404360
	H57	H	0.877506	0.587911	0.594399
	H58	H	0.104573	0.401713	0.594397
	H59	H	0.879621	0.420771	0.412925
	H60	H	0.103390	0.408565	0.593662
	H61	H	0.871338	0.598332	0.607089
	H62	H	0.102018	0.594531	0.420529
	H63	H	0.870239	0.403290	0.399809
	H64	H	0.383702	0.591869	0.124250
	H65	H	0.582275	0.587968	0.888026
	H66	H	0.575847	0.416145	0.117309
	H67	H	0.390891	0.404096	0.883350
	H68	H	0.580981	0.116808	0.414390
	H69	H	0.589002	0.883866	0.594844
	H70	H	0.390668	0.117336	0.596870
	H71	H	0.391310	0.881858	0.411587
	H72	H	0.894416	0.614372	0.089722
	H73	H	0.087780	0.380531	0.100328
	H74	H	0.076718	0.613538	0.913041
	H75	H	0.890289	0.383911	0.919352
	H76	H	0.086803	0.914230	0.621399
	H77	H	0.088275	0.089341	0.385576
	H78	H	0.893099	0.092049	0.621680
	H79	H	0.905768	0.914193	0.390434
	H80	H	0.604230	0.096199	0.915422
	H81	H	0.377457	0.098434	0.091555
	H82	H	0.598714	0.916557	0.088116
	H83	H	0.377695	0.914472	0.914700
	H84	H	0.607728	0.908568	0.110057
	H85	H	0.377197	0.090034	0.099850
	H86	H	0.603317	0.089840	0.909832
	H87	H	0.373704	0.908654	0.906277
	H88	H	0.897118	0.092622	0.620644
	H89	H	0.079090	0.085799	0.388869
	H90	H	0.075385	0.909136	0.619038
	H91	H	0.897777	0.899103	0.382960
	H92	H	0.085710	0.615571	0.916059
	H93	H	0.073825	0.386248	0.093956
	H94	H	0.886313	0.619693	0.098600
	H95	H	0.891480	0.380300	0.902345
	H96	H	0.393903	0.117478	0.599062
	H97	H	0.583339	0.883872	0.599049
	H98	H	0.582964	0.117075	0.413710
	H99	H	0.402772	0.884323	0.408538
	H100	H	0.580067	0.400478	0.123245
	H101	H	0.578729	0.593427	0.887209
	H102	H	0.400323	0.586185	0.117337
	H103	H	0.396039	0.419993	0.889677
	H104	H	0.102850	0.583593	0.405516
	H105	H	0.874097	0.605017	0.591466
	H106	H	0.104826	0.405963	0.599096
	H107	H	0.876342	0.399598	0.422294
	H108	H	0.898508	0.617237	0.101127
	H109	H	0.087491	0.385513	0.084314
	H110	H	0.083237	0.617769	0.906700
	H111	H	0.904452	0.386018	0.910901
	H112	H	0.084408	0.902345	0.624264
	H113	H	0.080269	0.095789	0.385322
	H114	H	0.894764	0.095849	0.622221
	H115	H	0.888535	0.914986	0.385376
	H116	H	0.606977	0.097145	0.907351
	H117	H	0.373340	0.100748	0.102879
	H118	H	0.607295	0.892602	0.090754
	H119	H	0.375763	0.903358	0.916607
	C120	C	0.366669	0.008696	0.626432
	C121	C	0.611202	0.992619	0.624890
	C122	C	0.611238	0.009212	0.383697
	C123	C	0.368126	0.992109	0.383312
	C124	C	0.611352	0.380170	0.012354
	C125	C	0.609873	0.620730	0.995638
	C126	C	0.366648	0.622710	0.012307
	C127	C	0.368974	0.381172	0.996040
	C128	C	-0.002440	0.622150	0.382211
	C129	C	0.981191	0.623498	0.626067
	C130	C	-0.002770	0.378389	0.624774
	C131	C	0.981847	0.377841	0.381333
	C132	C	0.865945	0.508800	0.125330
	C133	C	0.110182	0.491958	0.123957
	C134	C	0.111331	0.507870	0.881894
	C135	C	0.867325	0.491716	0.882555
	C136	C	0.111406	0.878632	0.512762
	C137	C	0.109878	0.119874	0.495547
	C138	C	0.867084	0.122566	0.512618
	C139	C	0.868908	0.880746	0.495215
	C140	C	0.497992	0.123440	0.882524
	C141	C	0.482723	0.124272	0.126971
	C142	C	0.497869	0.878628	0.126166
	C143	C	0.482184	0.878542	0.882239
	C144	C	0.372398	0.885136	0.680630
	C145	C	0.605078	0.116668	0.679224
	C146	C	0.608940	0.885803	0.327943
	C147	C	0.371598	0.116130	0.329569
	C148	C	0.667364	0.380415	0.888687
	C149	C	0.664980	0.620269	0.119048
	C150	C	0.311508	0.621349	0.888375
	C151	C	0.312472	0.382897	0.119566
	C152	C	0.876106	0.678349	0.385370
	C153	C	0.102962	0.677784	0.624250
	C154	C	0.875495	0.324295	0.623145
	C155	C	0.102725	0.320389	0.381687
	C156	C	0.874858	0.383285	0.679796
	C157	C	0.103214	0.617958	0.680650
	C158	C	0.875155	0.618789	0.328812
	C159	C	0.103198	0.379351	0.324271
	C160	C	0.370404	0.677380	0.888104
	C161	C	0.605290	0.675296	0.120494
	C162	C	0.608921	0.324742	0.888396
	C163	C	0.371316	0.327081	0.120355
	C164	C	0.669028	0.887133	0.382927
	C165	C	0.666233	0.115341	0.625082
	C166	C	0.312494	0.885941	0.625423
	C167	C	0.311208	0.114808	0.384840
	C168	C	0.871259	0.385165	0.179469
	C169	C	0.104555	0.615317	0.178999
	C170	C	0.108464	0.384712	0.826633
	C171	C	0.870985	0.615640	0.828864
	C172	C	0.168167	0.878179	0.389273
	C173	C	0.164739	0.119661	0.619193
	C174	C	0.812552	0.120938	0.388794
	C175	C	0.813162	0.882408	0.619134
	C176	C	0.376595	0.180307	0.885177
	C177	C	0.603724	0.179203	0.125068
	C178	C	0.376188	0.824487	0.125209
	C179	C	0.602971	0.820999	0.882963
	C180	C	0.376113	0.883491	0.182190
	C181	C	0.604505	0.119624	0.181765
	C182	C	0.376191	0.121087	0.828164
	C183	C	0.603933	0.880384	0.826375
	C184	C	0.870827	0.176875	0.388244
	C185	C	0.105491	0.175177	0.619762
	C186	C	0.109102	0.823187	0.388606
	C187	C	0.872189	0.826555	0.619495
	C188	C	0.169290	0.386033	0.881194
	C189	C	0.165030	0.614372	0.124963
	C190	C	0.811584	0.385900	0.123906
	C191	C	0.811201	0.614588	0.884064
	C192	C	0.387083	0.094511	0.603831
	C193	C	0.590877	0.906623	0.602180
	C194	C	0.588409	0.094975	0.406956
	C195	C	0.390845	0.906702	0.406200
	C196	C	0.589027	0.403273	0.098991
	C197	C	0.588256	0.598255	0.909239
	C198	C	0.387876	0.600329	0.098862
	C199	C	0.391569	0.403552	0.909555
	C200	C	0.082637	0.599693	0.403819
	C201	C	0.896268	0.603188	0.604166
	C202	C	0.082077	0.399231	0.602425
	C203	C	0.897271	0.401090	0.404741
	C204	C	0.886822	0.594856	0.103076
	C205	C	0.089224	0.406233	0.099913
	C206	C	0.088699	0.593520	0.905181
	C207	C	0.889059	0.405588	0.904424
	C208	C	0.088853	0.901874	0.599134
	C209	C	0.088730	0.097179	0.408952
	C210	C	0.888739	0.100182	0.599314
	C211	C	0.890835	0.902942	0.408449
	C212	C	0.583007	0.101062	0.904445
	C213	C	0.397769	0.102650	0.104778
	C214	C	0.582729	0.899632	0.102992
	C215	C	0.397559	0.901994	0.905493
	Zn216	Zn	0.489775	0.000829	0.753295
	Zn217	Zn	0.490208	0.000941	0.255353
	Zn218	Zn	0.738640	0.500589	0.003759
	Zn219	Zn	0.239411	0.501159	0.003835
	Zn220	Zn	-0.009868	0.752532	0.503796
	Zn221	Zn	-0.010835	0.248352	0.503729
	Zn222	Zn	-0.011143	0.499987	0.754400
	Zn223	Zn	-0.010970	0.500418	0.252084
	Zn224	Zn	0.488871	0.749160	0.004209
	Zn225	Zn	0.490559	0.253267	0.004773
	Zn226	Zn	0.740566	0.001579	0.503919
	Zn227	Zn	0.238637	-0.000653	0.504463
	N228	N	0.405178	0.962465	0.681318
	N229	N	0.571619	0.039472	0.679149
	N230	N	0.573781	0.962741	0.328214
	N231	N	0.406452	0.039044	0.328672
	N232	N	0.668752	0.414308	0.966978
	N233	N	0.667801	0.587269	0.040641
	N234	N	0.309003	0.588252	0.966797
	N235	N	0.310716	0.415644	0.041088
	N236	N	0.953155	0.680616	0.417644
	N237	N	0.026064	0.681442	0.591261
	N238	N	0.952357	0.321009	0.589673
	N239	N	0.026387	0.319380	0.416373
	N240	N	0.951482	0.416237	0.680864
	N241	N	0.026661	0.585162	0.682026
	N242	N	0.951636	0.584319	0.326824
	N243	N	0.026839	0.414453	0.323938
	N244	N	0.403675	0.678455	0.966004
	N245	N	0.571383	0.675714	0.042712
	N246	N	0.574704	0.324488	0.966226
	N247	N	0.405971	0.326047	0.042557
	N248	N	0.670419	0.964756	0.416912
	N249	N	0.670235	0.037322	0.592030
	N250	N	0.308489	0.963751	0.592611
	N251	N	0.308778	0.036704	0.417351
	N252	N	0.904080	0.462664	0.180671
	N253	N	0.071179	0.538159	0.178456
	N254	N	0.072867	0.461429	0.827209
	N255	N	0.905543	0.538549	0.827996
	N256	N	0.169745	0.912004	0.467555
	N257	N	0.167129	0.085595	0.540981
	N258	N	0.810033	0.088135	0.467261
	N259	N	0.811207	0.915417	0.540745
	N260	N	0.453434	0.181707	0.918463
	N261	N	0.527102	0.182007	0.091733
	N262	N	0.452848	0.821583	0.090973
	N263	N	0.526380	0.819985	0.917022
	N264	N	0.452802	0.916255	0.183030
	N265	N	0.528026	0.086163	0.182925
	N266	N	0.452518	0.086506	0.826359
	N267	N	0.527565	0.915521	0.825632
	N268	N	0.904029	0.178037	0.466361
	N269	N	0.072094	0.175383	0.541820
	N270	N	0.074506	0.823521	0.466343
	N271	N	0.906152	0.825569	0.541501
	N272	N	0.171333	0.463767	0.914853
	N273	N	0.168244	0.536752	0.091065
	N274	N	0.808391	0.463755	0.091032
	N275	N	0.808658	0.536452	0.916541
	O276	O	0.498047	0.534931	0.466975
	H277	H	0.492793	0.550586	0.460189
	H278	H	0.492945	0.536228	0.478729
	O279	O	0.477936	0.449871	0.452329
	H280	H	0.487585	0.452942	0.445166
	H281	H	0.473079	0.447115	0.453215
	O282	O	0.543268	0.578219	0.532428
	H283	H	0.547290	0.574243	0.528272
	H284	H	0.547408	0.583168	0.539133
	O285	O	0.088370	1.061514	1.042473
	H286	H	0.085502	1.056824	1.046444
	H287	H	0.095632	1.061215	1.039321
	O288	O	1.109627	0.921637	-0.069349
	H289	H	1.114790	0.918771	-0.076496
	H290	H	1.111221	0.906855	-0.077497
	O291	O	0.070983	-0.044618	0.933160
	H292	H	0.073894	-0.037383	0.938770
	H293	H	0.066866	-0.027327	0.940088
	O294	O	0.460902	0.490417	0.576525
	H295	H	0.468895	0.493017	0.577476
	H296	H	0.459601	0.483233	0.568274
	O297	O	0.529522	0.475783	0.509208
	H298	H	0.538544	0.475625	0.512203
	H299	H	0.527786	0.466622	0.506332
	O300	O	0.555057	0.530141	0.473217
	H301	H	0.554625	0.530164	0.483938
	H302	H	0.554753	0.528526	0.474247
	O303	O	0.447131	0.492738	0.553581
	H304	H	0.442434	0.494873	0.549938
	H305	H	0.450399	0.486089	0.549224
	O306	O	1.105971	-0.109783	0.909276
	H307	H	1.110907	-0.112971	0.906146
	H308	H	1.102225	-0.109419	0.911871
	O309	O	0.492412	0.503747	0.470680
	H310	H	0.498824	0.502760	0.472201
	H311	H	0.488736	0.506489	0.476305
	O312	O	0.525175	0.486272	0.541157
	H313	H	0.530005	0.483409	0.534596
	H314	H	0.530460	0.489275	0.529751
	O315	O	1.044307	-0.072961	0.997143
	H316	H	1.052850	-0.077651	1.002016
	H317	H	1.054714	-0.069882	0.998625
	O318	O	0.060770	-0.053912	-0.060207
	H319	H	0.063342	-0.071676	-0.067627
	H320	H	0.046676	-0.054391	-0.076641
	O321	O	0.472415	0.572441	0.448947
	H322	H	0.484589	0.574784	0.447600
	H323	H	0.468233	0.578804	0.447143
	O324	O	1.095114	-0.039640	-0.042889
	H325	H	1.098102	-0.049821	-0.048159
	H326	H	1.105705	-0.047819	-0.065393
	O327	O	1.055933	1.021131	-0.016941
	H328	H	1.053590	1.021696	-0.009440
	H329	H	1.062584	1.031798	-0.012584
	O330	O	0.569955	0.482868	0.441024
	H331	H	0.566454	0.480073	0.442022
	H332	H	0.562975	0.475202	0.435585
	O333	O	0.462873	0.489728	0.487841
	H334	H	0.452769	0.486933	0.497503
	H335	H	0.459346	0.482811	0.482639
