data_Molecule from HDF5

_cell_length_a		16.255545
_cell_length_b		16.375843
_cell_length_c		16.352809
_cell_angle_alpha	89.977596
_cell_angle_beta	89.969295
_cell_angle_gamma	90.067861
_symmetry_space_group_name_H-M	'P 1'
_symmetry_Int_Tables_number		1

loop_
	_symmetry_equiv_pos_as_xyz
	x,y,z

loop_
	_atom_site_label
	_atom_site_type_symbol
	_atom_site_fract_x
	_atom_site_fract_y
	_atom_site_fract_z
	H0	H	0.400605	0.836647	0.715047
	H1	H	0.598741	0.162441	0.716016
	H2	H	0.598587	0.837385	0.284979
	H3	H	0.401218	0.162924	0.284982
	H4	H	0.714009	0.402904	0.836099
	H5	H	0.713036	0.596278	0.164010
	H6	H	0.287146	0.596727	0.836106
	H7	H	0.285723	0.403052	0.163777
	H8	H	0.835856	0.713139	0.402703
	H9	H	0.164684	0.713790	0.597264
	H10	H	0.836366	0.286026	0.598548
	H11	H	0.164213	0.286478	0.402399
	H12	H	0.836429	0.401924	0.714133
	H13	H	0.164124	0.597577	0.713475
	H14	H	0.835924	0.597651	0.285829
	H15	H	0.164333	0.403020	0.286505
	H16	H	0.403025	0.714135	0.836388
	H17	H	0.598686	0.715552	0.163113
	H18	H	0.599571	0.283415	0.837564
	H19	H	0.400162	0.284310	0.163170
	H20	H	0.713777	0.836703	0.402573
	H21	H	0.713693	0.163953	0.597165
	H22	H	0.285414	0.836414	0.597105
	H23	H	0.286933	0.163784	0.403985
	H24	H	0.900661	0.337755	0.215012
	H25	H	0.099743	0.662611	0.215731
	H26	H	0.098753	0.337223	0.784918
	H27	H	0.901539	0.662453	0.784525
	H28	H	0.213189	0.904380	0.335614
	H29	H	0.212454	0.095434	0.663894
	H30	H	0.787991	0.096262	0.336413
	H31	H	0.786360	0.903714	0.663548
	H32	H	0.335862	0.213610	0.901888
	H33	H	0.664074	0.213225	0.097106
	H34	H	0.336108	0.785366	0.099085
	H35	H	0.664400	0.787260	0.902691
	H36	H	0.336085	0.902934	0.213432
	H37	H	0.663619	0.098563	0.214043
	H38	H	0.335589	0.097541	0.785773
	H39	H	0.663689	0.902529	0.785250
	H40	H	0.901569	0.215234	0.337666
	H41	H	0.098280	0.214097	0.663599
	H42	H	0.098239	0.785365	0.336059
	H43	H	0.900707	0.784629	0.663000
	H44	H	0.213432	0.336228	0.903335
	H45	H	0.212989	0.663594	0.095495
	H46	H	0.785632	0.336758	0.097042
	H47	H	0.786150	0.663573	0.902518
	H48	H	0.416141	0.113375	0.596494
	H49	H	0.590044	0.886210	0.590864
	H50	H	0.601736	0.115781	0.414570
	H51	H	0.406388	0.882973	0.399448
	H52	H	0.595339	0.405999	0.116244
	H53	H	0.595790	0.589075	0.885371
	H54	H	0.409954	0.593403	0.115425
	H55	H	0.406153	0.415658	0.887029
	H56	H	0.115530	0.585715	0.403272
	H57	H	0.880772	0.592343	0.603486
	H58	H	0.116700	0.413493	0.599650
	H59	H	0.883550	0.407783	0.406409
	H60	H	0.120289	0.398819	0.594423
	H61	H	0.882542	0.602392	0.588508
	H62	H	0.119395	0.599331	0.401789
	H63	H	0.883522	0.405614	0.407837
	H64	H	0.405892	0.596202	0.116275
	H65	H	0.587868	0.596085	0.885552
	H66	H	0.591798	0.410548	0.113778
	H67	H	0.415967	0.401300	0.886010
	H68	H	0.594774	0.118981	0.395265
	H69	H	0.598119	0.884876	0.591406
	H70	H	0.403123	0.113906	0.584834
	H71	H	0.412732	0.886785	0.408966
	H72	H	0.905330	0.617124	0.097447
	H73	H	0.083982	0.389699	0.084335
	H74	H	0.100607	0.617706	0.904890
	H75	H	0.905458	0.385354	0.911692
	H76	H	0.099467	0.908202	0.616644
	H77	H	0.090697	0.101470	0.383038
	H78	H	0.919232	0.096446	0.614230
	H79	H	0.892935	0.909375	0.380763
	H80	H	0.615357	0.096838	0.913561
	H81	H	0.380284	0.096965	0.099547
	H82	H	0.619414	0.909102	0.105516
	H83	H	0.382878	0.901012	0.910200
	H84	H	0.617852	0.895402	0.086723
	H85	H	0.384390	0.096558	0.086167
	H86	H	0.613810	0.085104	0.907341
	H87	H	0.386018	0.911736	0.910111
	H88	H	0.898592	0.102859	0.620961
	H89	H	0.099374	0.092673	0.382560
	H90	H	0.087595	0.909917	0.612166
	H91	H	0.916225	0.915285	0.389719
	H92	H	0.089662	0.615852	0.900131
	H93	H	0.106151	0.381982	0.090420
	H94	H	0.910090	0.614280	0.093278
	H95	H	0.902407	0.382739	0.902946
	H96	H	0.400218	0.119013	0.600883
	H97	H	0.592821	0.883004	0.598010
	H98	H	0.581871	0.111297	0.409805
	H99	H	0.401429	0.884051	0.410717
	H100	H	0.589329	0.404584	0.114844
	H101	H	0.597053	0.598809	0.881910
	H102	H	0.405127	0.591264	0.115104
	H103	H	0.399677	0.401077	0.880841
	H104	H	0.114337	0.594671	0.414399
	H105	H	0.888327	0.585249	0.588432
	H106	H	0.113179	0.409827	0.584485
	H107	H	0.884255	0.407452	0.408734
	H108	H	0.904154	0.616030	0.090628
	H109	H	0.088548	0.382426	0.106901
	H110	H	0.091663	0.613464	0.911460
	H111	H	0.911620	0.385097	0.904584
	H112	H	0.090739	0.898574	0.616749
	H113	H	0.088102	0.089816	0.386915
	H114	H	0.902346	0.082331	0.613720
	H115	H	0.911645	0.891999	0.381759
	H116	H	0.618512	0.096013	0.900801
	H117	H	0.385470	0.085040	0.094106
	H118	H	0.611510	0.917755	0.085493
	H119	H	0.381420	0.907263	0.901103
	C120	C	0.378225	0.007397	0.621751
	C121	C	0.621885	0.992115	0.621679
	C122	C	0.621754	0.008099	0.378049
	C123	C	0.378429	0.992418	0.378342
	C124	C	0.621378	0.378103	0.007678
	C125	C	0.621849	0.622275	0.992229
	C126	C	0.378653	0.621671	0.007712
	C127	C	0.378553	0.378184	0.992540
	C128	C	0.008070	0.621197	0.378653
	C129	C	0.991882	0.621642	0.621529
	C130	C	0.008316	0.378736	0.621435
	C131	C	0.992116	0.378845	0.379120
	C132	C	0.877968	0.508243	0.121797
	C133	C	0.121658	0.492210	0.121861
	C134	C	0.121867	0.508018	0.877856
	C135	C	0.878312	0.492048	0.878029
	C136	C	0.121417	0.877674	0.507404
	C137	C	0.121002	0.121948	0.492175
	C138	C	0.878901	0.121623	0.508623
	C139	C	0.878279	0.877814	0.491945
	C140	C	0.507921	0.120862	0.878808
	C141	C	0.491682	0.120996	0.121554
	C142	C	0.508067	0.878964	0.121307
	C143	C	0.491794	0.878518	0.878537
	C144	C	0.380713	0.885049	0.676567
	C145	C	0.619255	0.114427	0.677154
	C146	C	0.619659	0.885849	0.322768
	C147	C	0.380719	0.114473	0.323171
	C148	C	0.676380	0.381490	0.885031
	C149	C	0.675782	0.618264	0.115242
	C150	C	0.324356	0.617940	0.884768
	C151	C	0.323580	0.381902	0.115112
	C152	C	0.884702	0.675692	0.381628
	C153	C	0.115505	0.676362	0.618429
	C154	C	0.885222	0.323948	0.618979
	C155	C	0.115224	0.323985	0.381529
	C156	C	0.885130	0.381651	0.676201
	C157	C	0.115401	0.618809	0.676102
	C158	C	0.884749	0.618383	0.323674
	C159	C	0.115117	0.381786	0.323953
	C160	C	0.381258	0.676716	0.885260
	C161	C	0.619139	0.677213	0.114847
	C162	C	0.619585	0.322260	0.885645
	C163	C	0.380613	0.323018	0.114799
	C164	C	0.676461	0.885458	0.381408
	C165	C	0.676306	0.115099	0.618246
	C166	C	0.323272	0.884988	0.618104
	C167	C	0.324013	0.114914	0.382302
	C168	C	0.880529	0.385804	0.176519
	C169	C	0.119772	0.614486	0.177121
	C170	C	0.119326	0.385436	0.822993
	C171	C	0.881397	0.614424	0.823194
	C172	C	0.176260	0.881954	0.384528
	C173	C	0.175334	0.117499	0.615115
	C174	C	0.824655	0.117955	0.385402
	C175	C	0.823712	0.882091	0.614798
	C176	C	0.384609	0.176061	0.881150
	C177	C	0.614820	0.176277	0.118627
	C178	C	0.384946	0.823866	0.119246
	C179	C	0.615372	0.824388	0.881547
	C180	C	0.384981	0.881773	0.176467
	C181	C	0.614969	0.118809	0.176298
	C182	C	0.384619	0.118566	0.823453
	C183	C	0.615097	0.881752	0.823544
	C184	C	0.881110	0.176917	0.385966
	C185	C	0.118715	0.176405	0.615016
	C186	C	0.119018	0.823252	0.384804
	C187	C	0.880237	0.822712	0.614436
	C188	C	0.176099	0.385000	0.881952
	C189	C	0.176154	0.614894	0.117734
	C190	C	0.822983	0.385677	0.118272
	C191	C	0.824058	0.614825	0.881677
	C192	C	0.400239	0.093391	0.600403
	C193	C	0.599965	0.906728	0.600009
	C194	C	0.599368	0.093410	0.400000
	C195	C	0.400386	0.906570	0.399936
	C196	C	0.598760	0.400400	0.093171
	C197	C	0.599835	0.600990	0.906515
	C198	C	0.400687	0.600084	0.093400
	C199	C	0.400808	0.399581	0.906609
	C200	C	0.094175	0.599638	0.400269
	C201	C	0.906107	0.599724	0.599863
	C202	C	0.094534	0.400763	0.599292
	C203	C	0.905977	0.400534	0.401204
	C204	C	0.900023	0.593969	0.100169
	C205	C	0.099431	0.406801	0.100254
	C206	C	0.100307	0.593495	0.899158
	C207	C	0.900126	0.406497	0.899816
	C208	C	0.099273	0.899334	0.593098
	C209	C	0.099190	0.100958	0.406321
	C210	C	0.900493	0.100294	0.594264
	C211	C	0.900671	0.899179	0.406193
	C212	C	0.593687	0.099021	0.900650
	C213	C	0.405595	0.099178	0.099710
	C214	C	0.594150	0.901001	0.098995
	C215	C	0.405636	0.900319	0.900728
	Zn216	Zn	0.499598	-0.000137	0.750533
	Zn217	Zn	0.500253	-0.000054	0.249499
	Zn218	Zn	0.750036	0.500336	-0.000286
	Zn219	Zn	0.250091	0.499966	-0.000212
	Zn220	Zn	-0.000068	0.749067	0.499710
	Zn221	Zn	0.000083	0.250572	0.500608
	Zn222	Zn	0.000126	0.499842	0.749359
	Zn223	Zn	-0.000143	0.500280	0.250381
	Zn224	Zn	0.500155	0.750795	-0.000047
	Zn225	Zn	0.499983	0.248878	0.000305
	Zn226	Zn	0.750214	0.000392	0.499728
	Zn227	Zn	0.249485	-0.000099	0.499889
	N228	N	0.414061	0.962346	0.678808
	N229	N	0.586134	0.037103	0.679425
	N230	N	0.586037	0.962991	0.320804
	N231	N	0.413815	0.037187	0.320629
	N232	N	0.677586	0.415499	0.961986
	N233	N	0.677468	0.584826	0.038104
	N234	N	0.322489	0.584571	0.962055
	N235	N	0.322330	0.415453	0.038011
	N236	N	0.962320	0.677493	0.414993
	N237	N	0.037852	0.678131	0.585133
	N238	N	0.962930	0.322095	0.585783
	N239	N	0.037600	0.322228	0.415302
	N240	N	0.962809	0.415126	0.677723
	N241	N	0.037625	0.585320	0.678110
	N242	N	0.962422	0.585084	0.321924
	N243	N	0.037503	0.415237	0.322463
	N244	N	0.414706	0.678878	0.962586
	N245	N	0.586370	0.679961	0.037227
	N246	N	0.586162	0.320028	0.962987
	N247	N	0.414136	0.320657	0.037410
	N248	N	0.677781	0.962379	0.415121
	N249	N	0.677938	0.038098	0.584435
	N250	N	0.321684	0.962210	0.584727
	N251	N	0.322609	0.037822	0.415902
	N252	N	0.913891	0.463057	0.179096
	N253	N	0.086650	0.537131	0.179779
	N254	N	0.086314	0.462729	0.820384
	N255	N	0.914367	0.537013	0.820788
	N256	N	0.177712	0.915225	0.461858
	N257	N	0.176813	0.084096	0.537861
	N258	N	0.823326	0.084175	0.462474
	N259	N	0.822407	0.915495	0.537581
	N260	N	0.462041	0.177566	0.915001
	N261	N	0.537107	0.177685	0.085357
	N262	N	0.462359	0.822069	0.085483
	N263	N	0.537700	0.822557	0.915169
	N264	N	0.462779	0.915300	0.177807
	N265	N	0.537524	0.084912	0.178056
	N266	N	0.462150	0.084794	0.822091
	N267	N	0.537310	0.914740	0.821803
	N268	N	0.914282	0.179303	0.463398
	N269	N	0.085797	0.179202	0.537521
	N270	N	0.085660	0.820590	0.462135
	N271	N	0.913518	0.819911	0.537009
	N272	N	0.177965	0.462147	0.915258
	N273	N	0.177338	0.538003	0.084001
	N274	N	0.821624	0.462767	0.084803
	N275	N	0.821969	0.537647	0.914887
