data_Molecule from HDF5

_cell_length_a		16.561556
_cell_length_b		16.581753
_cell_length_c		16.390153
_cell_angle_alpha	89.850300
_cell_angle_beta	89.932889
_cell_angle_gamma	89.921976
_symmetry_space_group_name_H-M	'P 1'
_symmetry_Int_Tables_number		1

loop_
	_symmetry_equiv_pos_as_xyz
	x,y,z

loop_
	_atom_site_label
	_atom_site_type_symbol
	_atom_site_fract_x
	_atom_site_fract_y
	_atom_site_fract_z
	H0	H	0.390605	0.845479	0.715473
	H1	H	0.594403	0.161872	0.710933
	H2	H	0.599942	0.846797	0.272783
	H3	H	0.389162	0.160999	0.271118
	H4	H	0.713132	0.399263	0.834544
	H5	H	0.714932	0.608460	0.150168
	H6	H	0.272395	0.609345	0.834910
	H7	H	0.273294	0.401270	0.153834
	H8	H	0.835762	0.726285	0.389873
	H9	H	0.151249	0.722407	0.597261
	H10	H	0.837155	0.281522	0.598574
	H11	H	0.150726	0.281955	0.386540
	H12	H	0.835655	0.400615	0.712153
	H13	H	0.152314	0.603077	0.710370
	H14	H	0.833493	0.607413	0.275364
	H15	H	0.150674	0.400951	0.272368
	H16	H	0.389038	0.724390	0.834347
	H17	H	0.601325	0.726119	0.149525
	H18	H	0.596451	0.283693	0.835365
	H19	H	0.386746	0.282681	0.153752
	H20	H	0.714970	0.846262	0.390230
	H21	H	0.713303	0.160625	0.596569
	H22	H	0.272261	0.846540	0.600513
	H23	H	0.270471	0.159249	0.384884
	H24	H	0.887955	0.346673	0.215089
	H25	H	0.093461	0.662709	0.211127
	H26	H	0.094763	0.344379	0.776312
	H27	H	0.888895	0.660900	0.770584
	H28	H	0.213290	0.901759	0.334522
	H29	H	0.214208	0.107096	0.651811
	H30	H	0.774093	0.106948	0.334894
	H31	H	0.775240	0.899547	0.654502
	H32	H	0.334827	0.222052	0.891810
	H33	H	0.649003	0.227853	0.102206
	H34	H	0.339283	0.781686	0.099723
	H35	H	0.648723	0.777006	0.881863
	H36	H	0.338039	0.900062	0.214893
	H37	H	0.652079	0.106670	0.212623
	H38	H	0.335408	0.104445	0.775808
	H39	H	0.651699	0.899183	0.771882
	H40	H	0.889236	0.223613	0.334569
	H41	H	0.097354	0.222033	0.652351
	H42	H	0.096530	0.785591	0.334307
	H43	H	0.889561	0.782738	0.653144
	H44	H	0.213512	0.346121	0.890611
	H45	H	0.213552	0.660393	0.096830
	H46	H	0.772177	0.346010	0.098076
	H47	H	0.768476	0.658838	0.882960
	H48	H	0.400467	0.114980	0.579315
	H49	H	0.580729	0.891052	0.586782
	H50	H	0.585132	0.115303	0.405346
	H51	H	0.404937	0.893149	0.409039
	H52	H	0.580126	0.415329	0.106042
	H53	H	0.575423	0.594091	0.880405
	H54	H	0.407374	0.594768	0.106341
	H55	H	0.407096	0.404881	0.880065
	H56	H	0.104090	0.594673	0.405550
	H57	H	0.879788	0.596906	0.581486
	H58	H	0.106551	0.413405	0.583983
	H59	H	0.881808	0.414939	0.403458
	H60	H	0.107092	0.410591	0.582978
	H61	H	0.883050	0.591764	0.578048
	H62	H	0.105687	0.593104	0.399498
	H63	H	0.880840	0.410770	0.406902
	H64	H	0.400868	0.595423	0.108387
	H65	H	0.585681	0.592503	0.877738
	H66	H	0.583039	0.413620	0.107607
	H67	H	0.394101	0.415007	0.878195
	H68	H	0.585708	0.116247	0.403956
	H69	H	0.584967	0.891673	0.578623
	H70	H	0.401701	0.117243	0.587171
	H71	H	0.404256	0.891106	0.405087
	H72	H	0.904522	0.613647	0.078327
	H73	H	0.082313	0.391696	0.083517
	H74	H	0.085248	0.613542	0.910293
	H75	H	0.906520	0.392607	0.903982
	H76	H	0.082083	0.908406	0.609003
	H77	H	0.085742	0.092060	0.379465
	H78	H	0.895126	0.089027	0.608757
	H79	H	0.909107	0.912055	0.381840
	H80	H	0.607268	0.096381	0.903287
	H81	H	0.380078	0.097014	0.085751
	H82	H	0.606721	0.915987	0.081442
	H83	H	0.382171	0.916259	0.903369
	H84	H	0.607543	0.913327	0.081475
	H85	H	0.382593	0.094931	0.079174
	H86	H	0.606375	0.095357	0.904875
	H87	H	0.382348	0.910855	0.906649
	H88	H	0.911229	0.086255	0.602977
	H89	H	0.080714	0.089746	0.381263
	H90	H	0.088637	0.915157	0.608642
	H91	H	0.900871	0.912859	0.379784
	H92	H	0.089290	0.619753	0.898752
	H93	H	0.083242	0.391145	0.082626
	H94	H	0.899473	0.616012	0.081285
	H95	H	0.900612	0.392368	0.907062
	H96	H	0.407644	0.113967	0.583103
	H97	H	0.589436	0.887923	0.586130
	H98	H	0.583364	0.116043	0.404359
	H99	H	0.408014	0.893527	0.405426
	H100	H	0.583078	0.416917	0.106682
	H101	H	0.579882	0.584657	0.882440
	H102	H	0.403377	0.589674	0.105740
	H103	H	0.408238	0.420849	0.884787
	H104	H	0.106430	0.598944	0.401403
	H105	H	0.880895	0.591325	0.585051
	H106	H	0.105969	0.412687	0.581394
	H107	H	0.883534	0.415134	0.408928
	H108	H	0.905132	0.615499	0.084426
	H109	H	0.083511	0.391258	0.084045
	H110	H	0.076669	0.614521	0.899760
	H111	H	0.901153	0.389661	0.900726
	H112	H	0.080044	0.916731	0.605456
	H113	H	0.080580	0.095263	0.379748
	H114	H	0.907308	0.101977	0.609282
	H115	H	0.904890	0.919181	0.382984
	H116	H	0.606240	0.094755	0.903483
	H117	H	0.381854	0.089777	0.084491
	H118	H	0.606911	0.914524	0.078909
	H119	H	0.384559	0.916477	0.908952
	C120	C	0.372049	0.011714	0.615791
	C121	C	0.615746	0.994464	0.615514
	C122	C	0.616665	0.012015	0.372258
	C123	C	0.373223	0.995825	0.372610
	C124	C	0.613834	0.382787	0.001976
	C125	C	0.614220	0.624045	0.984040
	C126	C	0.371877	0.625340	0.001943
	C127	C	0.371613	0.382583	0.986467
	C128	C	0.000808	0.626623	0.371569
	C129	C	0.985187	0.624269	0.613843
	C130	C	0.002685	0.380884	0.614833
	C131	C	0.985532	0.382376	0.372781
	C132	C	0.870954	0.511821	0.114361
	C133	C	0.114094	0.495519	0.114981
	C134	C	0.114603	0.511461	0.872101
	C135	C	0.870926	0.495043	0.870722
	C136	C	0.114753	0.882654	0.502341
	C137	C	0.114726	0.124172	0.484911
	C138	C	0.872772	0.124203	0.501962
	C139	C	0.873172	0.882864	0.486539
	C140	C	0.501912	0.125479	0.872869
	C141	C	0.485352	0.125668	0.115301
	C142	C	0.503492	0.882628	0.114003
	C143	C	0.486166	0.882106	0.872432
	C144	C	0.371331	0.892999	0.675518
	C145	C	0.614400	0.114133	0.672599
	C146	C	0.618429	0.893975	0.312538
	C147	C	0.370959	0.113637	0.311474
	C148	C	0.673090	0.380803	0.882439
	C149	C	0.675190	0.626959	0.102592
	C150	C	0.312014	0.627608	0.882620
	C151	C	0.312398	0.381762	0.106145
	C152	C	0.882451	0.685987	0.371087
	C153	C	0.104028	0.682808	0.615623
	C154	C	0.884145	0.321593	0.616835
	C155	C	0.103366	0.322339	0.368910
	C156	C	0.883430	0.380548	0.673591
	C157	C	0.104595	0.623534	0.671848
	C158	C	0.881363	0.626898	0.314209
	C159	C	0.103415	0.381777	0.312222
	C160	C	0.370072	0.684885	0.882321
	C161	C	0.618289	0.685253	0.102375
	C162	C	0.615158	0.323373	0.882686
	C163	C	0.369207	0.323075	0.105906
	C164	C	0.675334	0.893484	0.371359
	C165	C	0.673737	0.113454	0.616027
	C166	C	0.312438	0.893536	0.618343
	C167	C	0.311688	0.112938	0.368211
	C168	C	0.869280	0.393729	0.175128
	C169	C	0.113410	0.614903	0.172443
	C170	C	0.114385	0.392226	0.814852
	C171	C	0.869772	0.613257	0.810187
	C172	C	0.173702	0.882175	0.382215
	C173	C	0.174486	0.125796	0.604031
	C174	C	0.813494	0.125990	0.382574
	C175	C	0.814165	0.881107	0.606290
	C176	C	0.382527	0.182895	0.872608
	C177	C	0.602667	0.186485	0.118726
	C178	C	0.385826	0.822351	0.117380
	C179	C	0.602671	0.819197	0.866083
	C180	C	0.385496	0.880996	0.174757
	C181	C	0.604193	0.126352	0.174015
	C182	C	0.382575	0.124371	0.815152
	C183	C	0.604153	0.879930	0.811134
	C184	C	0.871020	0.183838	0.382359
	C185	C	0.116367	0.183100	0.604373
	C186	C	0.115741	0.824599	0.382259
	C187	C	0.871474	0.823152	0.605819
	C188	C	0.173502	0.393073	0.871734
	C189	C	0.173062	0.613953	0.115845
	C190	C	0.811716	0.393463	0.116775
	C191	C	0.809932	0.612398	0.866374
	C192	C	0.396307	0.093965	0.590503
	C193	C	0.592022	0.911796	0.590994
	C194	C	0.591940	0.094459	0.397377
	C195	C	0.398775	0.914007	0.399020
	C196	C	0.589148	0.407915	0.085338
	C197	C	0.587727	0.598013	0.901762
	C198	C	0.396860	0.600393	0.085100
	C199	C	0.396071	0.406750	0.902895
	C200	C	0.083757	0.602486	0.395235
	C201	C	0.902781	0.600289	0.588856
	C202	C	0.085084	0.405244	0.589917
	C203	C	0.903319	0.406829	0.399047
	C204	C	0.895768	0.593506	0.088787
	C205	C	0.090012	0.412895	0.090597
	C206	C	0.090677	0.594468	0.895885
	C207	C	0.895668	0.412856	0.896635
	C208	C	0.090667	0.906503	0.585985
	C209	C	0.089480	0.099440	0.401674
	C210	C	0.897515	0.099412	0.585425
	C211	C	0.897887	0.907777	0.403189
	C212	C	0.585037	0.102200	0.896862
	C213	C	0.402971	0.100958	0.090267
	C214	C	0.585653	0.907479	0.088063
	C215	C	0.404382	0.907332	0.898808
	Zn216	Zn	0.493942	0.003156	0.743931
	Zn217	Zn	0.494838	0.003658	0.244032
	Zn218	Zn	0.742464	0.503193	-0.007678
	Zn219	Zn	0.243622	0.503690	-0.006082
	Zn220	Zn	-0.006464	0.754377	0.494219
	Zn221	Zn	-0.006020	0.252458	0.493187
	Zn222	Zn	-0.006302	0.503134	0.742656
	Zn223	Zn	-0.008203	0.504297	0.243695
	Zn224	Zn	0.494135	0.752872	-0.007280
	Zn225	Zn	0.493129	0.254622	-0.005153
	Zn226	Zn	0.744531	0.002987	0.494649
	Zn227	Zn	0.243652	0.003263	0.493596
	N228	N	0.407371	0.967565	0.674260
	N229	N	0.579381	0.039098	0.672768
	N230	N	0.582673	0.968829	0.312943
	N231	N	0.408789	0.039830	0.314356
	N232	N	0.672220	0.416859	0.957659
	N233	N	0.672807	0.589675	0.027815
	N234	N	0.312748	0.591315	0.958140
	N235	N	0.313661	0.417876	0.030576
	N236	N	0.958069	0.686391	0.405455
	N237	N	0.028775	0.683561	0.580368
	N238	N	0.959289	0.321359	0.581331
	N239	N	0.028963	0.322814	0.406062
	N240	N	0.958194	0.416427	0.672866
	N241	N	0.029757	0.587849	0.671072
	N242	N	0.956007	0.590690	0.314346
	N243	N	0.028977	0.418471	0.314497
	N244	N	0.406353	0.683866	0.957615
	N245	N	0.581261	0.683664	0.027484
	N246	N	0.579169	0.324343	0.958350
	N247	N	0.405205	0.323259	0.030250
	N248	N	0.674415	0.967937	0.407615
	N249	N	0.674840	0.037998	0.581793
	N250	N	0.312414	0.968434	0.582098
	N251	N	0.313045	0.038614	0.405693
	N252	N	0.905212	0.468244	0.173805
	N253	N	0.077614	0.540139	0.172164
	N254	N	0.078543	0.466962	0.814929
	N255	N	0.906883	0.539110	0.812732
	N256	N	0.173624	0.917213	0.458040
	N257	N	0.173667	0.089975	0.528502
	N258	N	0.814414	0.089503	0.457942
	N259	N	0.815156	0.917707	0.531030
	N260	N	0.457950	0.184186	0.907427
	N261	N	0.527430	0.186485	0.083339
	N262	N	0.460358	0.822984	0.080461
	N263	N	0.528481	0.820637	0.903531
	N264	N	0.459772	0.917484	0.172960
	N265	N	0.530129	0.089338	0.172237
	N266	N	0.457918	0.089632	0.814966
	N267	N	0.530639	0.918582	0.815030
	N268	N	0.906976	0.182997	0.457839
	N269	N	0.080137	0.182188	0.529137
	N270	N	0.080071	0.824647	0.457972
	N271	N	0.907453	0.824192	0.530318
	N272	N	0.173819	0.468406	0.906478
	N273	N	0.173628	0.538744	0.081042
	N274	N	0.812185	0.467980	0.079881
	N275	N	0.810524	0.537944	0.903263
	O276	O	0.289938	0.324729	0.573620
	H277	H	0.286988	0.306523	0.579312
	H278	H	0.291411	0.322982	0.591211
	O279	O	0.570010	0.460852	0.421274
	H280	H	0.589751	0.457300	0.420347
	H281	H	0.556300	0.452568	0.410607
	O282	O	0.926742	1.024778	0.014144
	H283	H	0.907477	1.046839	0.008837
	H284	H	0.945771	1.031563	0.009149
	O285	O	0.441276	0.441127	0.323075
	H286	H	0.450499	0.455322	0.325158
	H287	H	0.436427	0.440812	0.322230
	O288	O	-0.130276	0.062019	0.115291
	H289	H	-0.145322	0.075555	0.114532
	H290	H	-0.136398	0.055357	0.098128
	O291	O	1.104001	1.210195	0.149473
	H292	H	1.104299	1.206131	0.133037
	H293	H	1.120885	1.232323	0.166873
	O294	O	0.039228	0.966272	0.028456
	H295	H	0.032215	0.969024	0.018123
	H296	H	0.039590	0.965127	0.027941
	O297	O	0.381972	0.308145	0.696180
	H298	H	0.386524	0.292873	0.710474
	H299	H	0.392970	0.303690	0.695546
	O300	O	0.589438	0.617210	0.461334
	H301	H	0.580761	0.621471	0.456243
	H302	H	0.576397	0.626263	0.459373
	O303	O	0.484992	0.317569	0.366108
	H304	H	0.490172	0.318111	0.352664
	H305	H	0.488807	0.300359	0.348157
	O306	O	-0.112540	1.174636	1.081064
	H307	H	-0.103811	1.158921	1.075364
	H308	H	-0.107384	1.174151	1.079895
	O309	O	0.460756	0.719608	0.281725
	H310	H	0.453078	0.743510	0.253137
	H311	H	0.444813	0.718779	0.290796
	O312	O	0.327763	0.547432	0.493289
	H313	H	0.334072	0.552298	0.503250
	H314	H	0.329614	0.536368	0.510512
	O315	O	0.005798	-0.208982	0.987759
	H316	H	-0.011548	-0.211734	1.003253
	H317	H	0.015947	-0.211028	0.983827
	O318	O	-0.115829	0.847519	0.000930
	H319	H	-0.127375	0.848975	0.011195
	H320	H	-0.131134	0.857560	-0.002173
	O321	O	0.685056	0.482014	0.280465
	H322	H	0.689781	0.495659	0.272606
	H323	H	0.681513	0.477387	0.277066
	O324	O	0.278265	0.666083	0.476430
	H325	H	0.258149	0.683708	0.468901
	H326	H	0.284380	0.669407	0.442658
	O327	O	0.959491	0.087405	0.947457
	H328	H	0.957882	0.087878	0.933364
	H329	H	0.962036	0.095062	0.946560
	O330	O	0.917073	-0.088821	-0.103421
	H331	H	0.904906	-0.087316	-0.100314
	H332	H	0.914398	-0.095394	-0.110122
	O333	O	0.784027	0.967510	1.205891
	H334	H	0.754879	0.977675	1.228783
	H335	H	0.786940	0.993750	1.178997
	O336	O	1.126272	0.197319	0.884578
	H337	H	1.105123	0.190020	0.886073
	H338	H	1.119309	0.194605	0.903703
	O339	O	0.419277	0.699198	0.649838
	H340	H	0.412118	0.701740	0.631585
	H341	H	0.415152	0.681136	0.649824
	O342	O	0.616162	0.681520	0.359449
	H343	H	0.600792	0.679865	0.375833
	H344	H	0.608048	0.664705	0.350526
	O345	O	0.037375	0.061604	0.179654
	H346	H	0.035750	0.063084	0.178628
	H347	H	0.027455	0.074354	0.178376
	O348	O	0.805812	-0.001411	0.809898
	H349	H	0.788904	-0.001330	0.795660
	H350	H	0.804469	0.001623	0.810473
	O351	O	1.336684	0.672688	0.287873
	H352	H	1.305929	0.692926	0.258160
	H353	H	1.338302	0.647576	0.286828
	O354	O	0.545443	0.457295	0.561239
	H355	H	0.541202	0.444918	0.555618
	H356	H	0.543137	0.458582	0.565054
	O357	O	0.772605	0.782900	1.013220
	H358	H	0.746309	0.769546	1.008516
	H359	H	0.771622	0.781781	1.044251
	O360	O	0.488445	0.518173	0.445333
	H361	H	0.487037	0.528005	0.438993
	H362	H	0.487716	0.518610	0.453253
	O363	O	0.426690	0.582658	0.655373
	H364	H	0.421765	0.578452	0.661277
	H365	H	0.421709	0.575281	0.658060
	O366	O	1.018453	-0.202433	1.192703
	H367	H	1.012116	-0.214827	1.203188
	H368	H	1.004855	-0.186793	1.191042
	O369	O	0.441400	0.580144	0.648836
	H370	H	0.418347	0.591659	0.629836
	H371	H	0.432938	0.571264	0.644430
	O372	O	0.293386	0.478376	0.697642
	H373	H	0.275699	0.468537	0.704286
	H374	H	0.283296	0.444501	0.695572
	O375	O	-0.197398	0.809699	1.177163
	H376	H	-0.204196	0.860448	1.186568
	H377	H	-0.185407	0.799509	1.168368
	O378	O	0.575781	0.536545	0.303398
	H379	H	0.560250	0.525646	0.306439
	H380	H	0.579615	0.542902	0.304595
	O381	O	1.042316	0.061769	-0.152943
	H382	H	1.040022	0.053430	-0.152583
	H383	H	1.042806	0.043330	-0.148112
	O384	O	-0.106364	-0.130606	0.926129
	H385	H	-0.101690	-0.127666	0.933827
	H386	H	-0.121118	-0.141887	0.948270
	O387	O	0.092606	0.799860	0.789410
	H388	H	0.099147	0.781535	0.785493
	H389	H	0.068014	0.787179	0.780023
	O390	O	0.187171	-0.113128	0.795265
	H391	H	0.199332	-0.128743	0.792515
	H392	H	0.173589	-0.126318	0.807249
	O393	O	1.037110	0.971572	0.102346
	H394	H	1.025552	0.991124	0.094082
	H395	H	1.041959	0.964211	0.101430
	O396	O	0.659487	0.301595	0.407026
	H397	H	0.658979	0.294851	0.409657
	H398	H	0.651084	0.302137	0.410946
	O399	O	0.708411	0.600047	0.631839
	H400	H	0.713089	0.616392	0.628762
	H401	H	0.719097	0.622761	0.631609
	O402	O	0.183753	0.050098	1.060730
	H403	H	0.176521	0.032994	1.047182
	H404	H	0.179056	0.045777	1.063643
	O405	O	0.185030	0.130512	0.041808
	H406	H	0.186538	0.125541	0.036794
	H407	H	0.183681	0.135103	0.031719
	O408	O	1.173229	0.980285	0.995972
	H409	H	1.167972	0.979141	0.979104
	H410	H	1.171295	0.973557	0.988738
	O411	O	0.533915	0.372831	0.551724
	H412	H	0.528640	0.366752	0.553357
	H413	H	0.522673	0.372888	0.535146
	O414	O	0.342528	0.290003	0.479256
	H415	H	0.346994	0.286870	0.476453
	H416	H	0.341785	0.277099	0.481333
	O417	O	0.959789	0.210902	0.782726
	H418	H	0.956841	0.217723	0.762778
	H419	H	0.969610	0.199062	0.771711
	O420	O	0.364941	0.342976	0.440504
	H421	H	0.363939	0.344117	0.442862
	H422	H	0.372393	0.337165	0.439000
	O423	O	0.208174	0.824074	-0.033263
	H424	H	0.211903	0.819355	-0.028198
	H425	H	0.208412	0.815297	-0.046071
	O426	O	0.787345	1.172273	0.790243
	H427	H	0.807073	1.148663	0.792094
	H428	H	0.754896	1.197286	0.755153
	O429	O	0.280922	0.540441	0.284961
	H430	H	0.269864	0.530304	0.297404
	H431	H	0.261880	0.536629	0.288809
	O432	O	0.709190	0.286723	0.711382
	H433	H	0.696051	0.283981	0.681082
	H434	H	0.703103	0.312537	0.703462
	O435	O	0.094350	-0.031439	-0.211056
	H436	H	0.094515	-0.034355	-0.212506
	H437	H	0.090441	-0.045663	-0.216129
	O438	O	1.207580	-0.208289	0.203772
	H439	H	1.189207	-0.184058	0.180485
	H440	H	1.191103	-0.209540	0.186671
	O441	O	0.572906	0.357177	0.658775
	H442	H	0.574781	0.371798	0.662093
	H443	H	0.582039	0.369340	0.677537
	O444	O	0.107194	1.186314	1.188132
	H445	H	0.116373	1.179484	1.194276
	H446	H	0.115885	1.173628	1.178244
	O447	O	0.681909	0.694862	0.678385
	H448	H	0.682781	0.693586	0.647163
	H449	H	0.658537	0.694682	0.667100
	O450	O	0.549212	0.509328	0.471630
	H451	H	0.561767	0.503556	0.460146
	H452	H	0.538146	0.529357	0.477433
	O453	O	0.621263	0.706216	0.551812
	H454	H	0.628370	0.715895	0.534751
	H455	H	0.621369	0.698965	0.550389
	O456	O	0.971380	0.207354	0.032031
	H457	H	0.965493	0.209241	0.043236
	H458	H	0.964146	0.212666	0.024340
	O459	O	0.612532	0.301382	0.326219
	H460	H	0.626704	0.303799	0.310068
	H461	H	0.605607	0.322937	0.311599
	O462	O	0.593881	0.522781	0.688665
	H463	H	0.584528	0.518047	0.697617
	H464	H	0.607745	0.527506	0.693328
	O465	O	0.772501	0.220946	-0.032647
	H466	H	0.773557	0.228245	-0.066237
	H467	H	0.756683	0.241614	-0.052563
