data_Molecule from HDF5

_cell_length_a		16.547170
_cell_length_b		16.685208
_cell_length_c		16.718426
_cell_angle_alpha	89.991312
_cell_angle_beta	89.965745
_cell_angle_gamma	90.087002
_symmetry_space_group_name_H-M	'P 1'
_symmetry_Int_Tables_number		1

loop_
	_symmetry_equiv_pos_as_xyz
	x,y,z

loop_
	_atom_site_label
	_atom_site_type_symbol
	_atom_site_fract_x
	_atom_site_fract_y
	_atom_site_fract_z
	H0	H	0.395474	0.843379	0.730495
	H1	H	0.610708	0.150395	0.730236
	H2	H	0.612818	0.844828	0.280678
	H3	H	0.394539	0.149034	0.283752
	H4	H	0.726237	0.389982	0.855442
	H5	H	0.727088	0.607490	0.160846
	H6	H	0.280389	0.602176	0.853108
	H7	H	0.279502	0.390439	0.161829
	H8	H	0.845286	0.713932	0.406925
	H9	H	0.157251	0.719039	0.615026
	H10	H	0.847189	0.276540	0.612031
	H11	H	0.158056	0.275242	0.401879
	H12	H	0.847579	0.390744	0.729500
	H13	H	0.157421	0.602986	0.729932
	H14	H	0.846283	0.600834	0.288786
	H15	H	0.157902	0.392138	0.286975
	H16	H	0.392934	0.721634	0.854857
	H17	H	0.613740	0.725486	0.158756
	H18	H	0.610111	0.273803	0.855188
	H19	H	0.392856	0.271991	0.159978
	H20	H	0.725146	0.842556	0.400759
	H21	H	0.724804	0.150973	0.612519
	H22	H	0.278145	0.843732	0.615598
	H23	H	0.281189	0.150923	0.402328
	H24	H	0.896261	0.343365	0.229943
	H25	H	0.114687	0.649257	0.234891
	H26	H	0.108812	0.342515	0.786226
	H27	H	0.892292	0.649387	0.782480
	H28	H	0.225346	0.890325	0.353773
	H29	H	0.225752	0.103022	0.661674
	H30	H	0.779557	0.104768	0.355102
	H31	H	0.778617	0.889186	0.660373
	H32	H	0.347734	0.218900	0.900718
	H33	H	0.656470	0.219188	0.113881
	H34	H	0.347152	0.774686	0.115129
	H35	H	0.656602	0.774977	0.901357
	H36	H	0.349015	0.887478	0.232467
	H37	H	0.655771	0.104914	0.230465
	H38	H	0.347467	0.102639	0.785042
	H39	H	0.657652	0.891555	0.786502
	H40	H	0.895877	0.220369	0.354791
	H41	H	0.111001	0.220076	0.660816
	H42	H	0.111063	0.773441	0.353865
	H43	H	0.892136	0.770909	0.659405
	H44	H	0.223513	0.342643	0.904606
	H45	H	0.228027	0.649899	0.117571
	H46	H	0.779139	0.344025	0.114538
	H47	H	0.778101	0.650591	0.900096
	H48	H	0.417500	0.105591	0.593265
	H49	H	0.582198	0.886567	0.601656
	H50	H	0.596456	0.107365	0.421410
	H51	H	0.417305	0.885410	0.415355
	H52	H	0.586495	0.409089	0.117232
	H53	H	0.591135	0.585443	0.897392
	H54	H	0.413756	0.579153	0.115467
	H55	H	0.408203	0.409450	0.895142
	H56	H	0.115162	0.589926	0.423844
	H57	H	0.891849	0.581647	0.593624
	H58	H	0.117724	0.408204	0.604401
	H59	H	0.890863	0.410002	0.419114
	H60	H	0.115743	0.402781	0.592088
	H61	H	0.890358	0.582760	0.598804
	H62	H	0.111993	0.579688	0.421746
	H63	H	0.889567	0.407596	0.417297
	H64	H	0.422393	0.587598	0.116093
	H65	H	0.587885	0.582600	0.899384
	H66	H	0.590406	0.406252	0.119574
	H67	H	0.417835	0.412297	0.900420
	H68	H	0.590280	0.109007	0.412216
	H69	H	0.589183	0.888463	0.588224
	H70	H	0.411475	0.109573	0.595544
	H71	H	0.419485	0.887732	0.422693
	H72	H	0.917910	0.609276	0.102270
	H73	H	0.089250	0.385803	0.098163
	H74	H	0.091929	0.607963	0.922361
	H75	H	0.922934	0.392017	0.924954
	H76	H	0.086965	0.909930	0.615027
	H77	H	0.093407	0.088869	0.394579
	H78	H	0.917189	0.086491	0.617827
	H79	H	0.914617	0.907368	0.396591
	H80	H	0.615507	0.091686	0.920522
	H81	H	0.388906	0.085974	0.096226
	H82	H	0.613173	0.914653	0.098504
	H83	H	0.386903	0.905176	0.916711
	H84	H	0.615669	0.905487	0.093104
	H85	H	0.392148	0.084221	0.091289
	H86	H	0.611821	0.081352	0.922360
	H87	H	0.391547	0.909160	0.924870
	H88	H	0.913247	0.085501	0.618900
	H89	H	0.093385	0.083636	0.398100
	H90	H	0.088583	0.905355	0.618704
	H91	H	0.915197	0.908803	0.397785
	H92	H	0.090956	0.608752	0.915612
	H93	H	0.087201	0.388034	0.096768
	H94	H	0.918511	0.606205	0.093198
	H95	H	0.907568	0.386337	0.925835
	H96	H	0.417616	0.108949	0.600259
	H97	H	0.597091	0.882024	0.599298
	H98	H	0.585176	0.105172	0.421235
	H99	H	0.411938	0.885122	0.421267
	H100	H	0.591344	0.411553	0.118059
	H101	H	0.586944	0.586958	0.898401
	H102	H	0.411345	0.589791	0.120096
	H103	H	0.416635	0.401846	0.896249
	H104	H	0.117553	0.585651	0.414243
	H105	H	0.888860	0.586025	0.594811
	H106	H	0.111905	0.415296	0.594745
	H107	H	0.890575	0.406984	0.420332
	H108	H	0.910409	0.610288	0.096581
	H109	H	0.089896	0.387436	0.095494
	H110	H	0.086252	0.606051	0.919349
	H111	H	0.916146	0.383909	0.911842
	H112	H	0.092079	0.909654	0.618522
	H113	H	0.088153	0.087192	0.397267
	H114	H	0.915964	0.082861	0.616855
	H115	H	0.917225	0.907591	0.396774
	H116	H	0.615983	0.084393	0.912387
	H117	H	0.391158	0.080446	0.096125
	H118	H	0.609829	0.913791	0.088323
	H119	H	0.390742	0.914517	0.916247
	C120	C	0.381633	0.006056	0.629438
	C121	C	0.623713	0.987799	0.629048
	C122	C	0.623979	0.005621	0.385158
	C123	C	0.382305	0.987785	0.386746
	C124	C	0.623551	0.375813	0.016870
	C125	C	0.623444	0.619664	0.999071
	C126	C	0.381033	0.618672	0.016103
	C127	C	0.380605	0.374921	0.998871
	C128	C	0.011482	0.617344	0.387519
	C129	C	0.993297	0.617141	0.629076
	C130	C	0.011934	0.375972	0.629223
	C131	C	0.993812	0.376041	0.386921
	C132	C	0.881364	0.506515	0.129857
	C133	C	0.123668	0.488492	0.130169
	C134	C	0.123153	0.505347	0.886951
	C135	C	0.881376	0.488857	0.887280
	C136	C	0.123296	0.875302	0.515998
	C137	C	0.124630	0.118523	0.498670
	C138	C	0.881912	0.118264	0.516486
	C139	C	0.881385	0.874935	0.498638
	C140	C	0.511789	0.118265	0.885741
	C141	C	0.493208	0.117278	0.127819
	C142	C	0.511094	0.876553	0.127984
	C143	C	0.493098	0.876797	0.886861
	C144	C	0.377369	0.889871	0.690494
	C145	C	0.628069	0.103792	0.689813
	C146	C	0.629371	0.890341	0.322470
	C147	C	0.377741	0.103263	0.324979
	C148	C	0.685501	0.372318	0.901608
	C149	C	0.686767	0.624975	0.114048
	C150	C	0.320143	0.620960	0.899931
	C151	C	0.319650	0.372069	0.114885
	C152	C	0.892759	0.675305	0.387101
	C153	C	0.110292	0.678739	0.632832
	C154	C	0.894292	0.315961	0.631007
	C155	C	0.111074	0.315593	0.383878
	C156	C	0.894434	0.372571	0.689346
	C157	C	0.110377	0.621120	0.690111
	C158	C	0.893375	0.619235	0.328426
	C159	C	0.111113	0.373570	0.326788
	C160	C	0.376229	0.680303	0.900689
	C161	C	0.630322	0.683839	0.113170
	C162	C	0.627959	0.314401	0.901398
	C163	C	0.375946	0.313185	0.114257
	C164	C	0.685204	0.889435	0.381931
	C165	C	0.684843	0.104094	0.631173
	C166	C	0.319205	0.890247	0.633241
	C167	C	0.321305	0.103949	0.383990
	C168	C	0.877821	0.389957	0.190040
	C169	C	0.130462	0.603341	0.193458
	C170	C	0.126687	0.388869	0.826823
	C171	C	0.875799	0.603655	0.824050
	C172	C	0.185243	0.872143	0.400352
	C173	C	0.185303	0.121107	0.615072
	C174	C	0.820250	0.122007	0.401234
	C175	C	0.819404	0.871581	0.614096
	C176	C	0.394370	0.178606	0.882753
	C177	C	0.609663	0.178704	0.131330
	C178	C	0.394330	0.814710	0.132646
	C179	C	0.610313	0.815974	0.883922
	C180	C	0.395037	0.870915	0.190966
	C181	C	0.609485	0.121890	0.189370
	C182	C	0.394330	0.121061	0.825266
	C183	C	0.610645	0.873763	0.826748
	C184	C	0.877767	0.179950	0.401160
	C185	C	0.128516	0.179585	0.614609
	C186	C	0.128219	0.813851	0.400288
	C187	C	0.876093	0.812918	0.613729
	C188	C	0.183550	0.388863	0.885524
	C189	C	0.186822	0.603648	0.134527
	C190	C	0.819919	0.390363	0.132496
	C191	C	0.818837	0.604195	0.882489
	C192	C	0.408108	0.086962	0.603699
	C193	C	0.596993	0.906716	0.603703
	C194	C	0.597955	0.086059	0.410909
	C195	C	0.408795	0.907131	0.412563
	C196	C	0.596868	0.401625	0.097413
	C197	C	0.596161	0.592692	0.919235
	C198	C	0.408037	0.592798	0.096428
	C199	C	0.406921	0.400516	0.918104
	C200	C	0.093416	0.592279	0.412630
	C201	C	0.911739	0.591016	0.603100
	C202	C	0.093761	0.401557	0.604120
	C203	C	0.911693	0.401035	0.411795
	C204	C	0.908015	0.587441	0.104527
	C205	C	0.096498	0.408092	0.104385
	C206	C	0.097175	0.586317	0.912175
	C207	C	0.908062	0.408244	0.913555
	C208	C	0.096738	0.901028	0.596535
	C209	C	0.098952	0.093474	0.417746
	C210	C	0.908191	0.092306	0.596894
	C211	C	0.908089	0.900664	0.417944
	C212	C	0.593266	0.092899	0.911217
	C213	C	0.411900	0.090822	0.101894
	C214	C	0.591744	0.903689	0.101068
	C215	C	0.411023	0.902434	0.911958
	Zn216	Zn	0.502550	-0.003103	0.758216
	Zn217	Zn	0.502651	-0.003354	0.256724
	Zn218	Zn	0.751971	0.497901	0.008297
	Zn219	Zn	0.252113	0.497189	0.008403
	Zn220	Zn	0.002861	0.745765	0.507859
	Zn221	Zn	0.003509	0.247600	0.508129
	Zn222	Zn	0.002084	0.496539	0.757698
	Zn223	Zn	0.002762	0.497311	0.258883
	Zn224	Zn	0.501706	0.748233	0.007778
	Zn225	Zn	0.501916	0.246385	0.007461
	Zn226	Zn	0.752335	-0.003635	0.506897
	Zn227	Zn	0.252920	-0.003480	0.507684
	N228	N	0.415547	0.962908	0.688228
	N229	N	0.590909	0.030180	0.688809
	N230	N	0.592096	0.963691	0.324100
	N231	N	0.414852	0.029720	0.326288
	N232	N	0.683114	0.409644	0.974688
	N233	N	0.682837	0.585620	0.041997
	N234	N	0.322707	0.583508	0.972977
	N235	N	0.322279	0.409702	0.042033
	N236	N	0.967404	0.674610	0.422851
	N237	N	0.036301	0.676688	0.595668
	N238	N	0.968557	0.317678	0.594421
	N239	N	0.036874	0.316816	0.420527
	N240	N	0.968768	0.409058	0.688498
	N241	N	0.036501	0.583570	0.688111
	N242	N	0.968340	0.583923	0.328427
	N243	N	0.037171	0.410508	0.328658
	N244	N	0.413499	0.679040	0.974022
	N245	N	0.591538	0.680721	0.040665
	N246	N	0.589976	0.316297	0.974201
	N247	N	0.413081	0.314541	0.040814
	N248	N	0.682460	0.962195	0.419874
	N249	N	0.682417	0.030694	0.594098
	N250	N	0.321554	0.963510	0.595924
	N251	N	0.323823	0.030964	0.421537
	N252	N	0.915330	0.463490	0.188794
	N253	N	0.091691	0.530669	0.190983
	N254	N	0.090009	0.462468	0.827410
	N255	N	0.914260	0.530746	0.826910
	N256	N	0.182344	0.909929	0.473357
	N257	N	0.183359	0.084035	0.541921
	N258	N	0.822508	0.084268	0.474019
	N259	N	0.822534	0.909624	0.541321
	N260	N	0.468466	0.177332	0.919735
	N261	N	0.536207	0.176116	0.093767
	N262	N	0.467492	0.818054	0.094043
	N263	N	0.535956	0.817553	0.920500
	N264	N	0.468728	0.908776	0.188347
	N265	N	0.535825	0.084220	0.187329
	N266	N	0.468468	0.084577	0.826751
	N267	N	0.536544	0.910673	0.828367
	N268	N	0.915256	0.178128	0.474143
	N269	N	0.091525	0.178357	0.541178
	N270	N	0.090445	0.815480	0.473292
	N271	N	0.914234	0.815064	0.540917
	N272	N	0.181755	0.462469	0.922080
	N273	N	0.182841	0.531317	0.095807
	N274	N	0.821696	0.464064	0.095936
	N275	N	0.822295	0.531851	0.921306
	O276	O	-0.706735	1.504561	0.294002
	H277	H	-0.733244	1.510816	0.294802
	H278	H	-0.710291	1.515610	0.312881
	O279	O	-0.114143	0.124183	0.077257
	H280	H	-0.110547	0.121804	0.065346
	H281	H	-0.107274	0.117085	0.078232
	O282	O	1.080995	0.810778	-0.158898
	H283	H	1.068726	0.801753	-0.165396
	H284	H	1.085364	0.816474	-0.163250
	O285	O	0.716888	0.533771	0.357174
	H286	H	0.697760	0.516938	0.353165
	H287	H	0.722997	0.528794	0.339400
	O288	O	0.794156	0.205419	0.798938
	H289	H	0.763919	0.227180	0.772173
	H290	H	0.781215	0.187679	0.813349
	O291	O	0.784199	0.058269	1.075345
	H292	H	0.790458	0.035723	1.056513
	H293	H	0.775877	0.047577	1.103081
	O294	O	0.449266	-0.539974	0.381971
	H295	H	0.438717	-0.540647	0.380203
	H296	H	0.461045	-0.559770	0.382634
	O297	O	0.449363	0.731230	0.568015
	H298	H	0.433966	0.731877	0.590262
	H299	H	0.438753	0.729266	0.583273
	O300	O	0.045823	-0.066496	1.247839
	H301	H	0.051729	-0.082273	1.239846
	H302	H	0.059474	-0.081216	1.248776
	O303	O	0.702171	0.507542	0.714798
	H304	H	0.701928	0.503649	0.693944
	H305	H	0.692982	0.507176	0.726712
	O306	O	1.240038	1.238478	0.249855
	H307	H	1.264199	1.224890	0.273320
	H308	H	1.202883	1.262014	0.253556
	O309	O	-0.054565	1.226582	0.077986
	H310	H	-0.033668	1.225794	0.073230
	H311	H	-0.067378	1.232700	0.071665
	O312	O	0.518134	0.452827	0.667056
	H313	H	0.500104	0.451878	0.666158
	H314	H	0.504372	0.437318	0.672407
	O315	O	1.040065	1.215413	1.225848
	H316	H	1.019280	1.210941	1.242384
	H317	H	1.023857	1.212036	1.236537
	O318	O	0.300643	0.695026	0.307992
	H319	H	0.323486	0.697103	0.325126
	H320	H	0.299218	0.691687	0.291263
	O321	O	0.316913	0.683773	0.691829
	H322	H	0.300516	0.693735	0.695928
	H323	H	0.307615	0.691653	0.691931
	O324	O	1.223780	1.206592	0.026278
	H325	H	1.226793	1.221475	0.052040
	H326	H	1.237389	1.215348	0.050005
	O327	O	-0.702420	0.284312	0.716326
	H328	H	-0.723565	0.297797	0.738346
	H329	H	-0.722790	0.297049	0.736153
	O330	O	0.763603	0.237450	0.244988
	H331	H	0.771129	0.218789	0.265530
	H332	H	0.787151	0.215004	0.216211
	O333	O	1.055790	1.014954	-0.183781
	H334	H	1.038799	1.014393	-0.173353
	H335	H	1.034350	1.022796	-0.188500
	O336	O	1.211427	-0.211492	-0.208122
	H337	H	1.185557	-0.187185	-0.210543
	H338	H	1.206947	-0.193521	-0.177914
	O339	O	1.533775	0.520189	1.275085
	H340	H	1.505835	0.501215	1.267226
	H341	H	1.522310	0.513564	1.271736
	O342	O	-0.164728	-0.176141	0.191164
	H343	H	-0.134870	-0.191938	0.194457
	H344	H	-0.185305	-0.200245	0.200597
	O345	O	-0.555304	1.565487	1.740125
	H346	H	-0.547816	1.571070	1.740140
	H347	H	-0.563763	1.573506	1.736036
	O348	O	0.107122	-0.218632	0.126709
	H349	H	0.105395	-0.208810	0.108203
	H350	H	0.103248	-0.209838	0.107918
	O351	O	1.219325	0.771551	-0.017944
	H352	H	1.221930	0.785084	-0.026901
	H353	H	1.237316	0.748039	-0.021986
	O354	O	0.144017	0.011922	1.129646
	H355	H	0.154674	0.012395	1.142219
	H356	H	0.142228	0.005103	1.125691
	O357	O	0.279922	0.423637	0.460338
	H358	H	0.292681	0.407506	0.451118
	H359	H	0.275398	0.396704	0.485243
	O360	O	0.284588	0.552124	0.588500
	H361	H	0.291263	0.558262	0.579215
	H362	H	0.290508	0.557726	0.573434
	O363	O	0.067813	0.225981	-0.039185
	H364	H	0.082513	0.227015	-0.035742
	H365	H	0.067887	0.229141	-0.053587
	O366	O	0.647222	0.468374	0.314082
	H367	H	0.639460	0.476766	0.299865
	H368	H	0.646575	0.467203	0.296451
	O369	O	0.980731	0.217942	-0.218861
	H370	H	0.952628	0.234181	-0.230942
	H371	H	0.954703	0.228027	-0.220776
	O372	O	0.519864	1.592223	0.475676
	H373	H	0.524636	1.592931	0.475242
	H374	H	0.510074	1.596422	0.479722
	O375	O	0.588665	-0.545045	-0.373066
	H376	H	0.605784	-0.540728	-0.374262
	H377	H	0.583530	-0.534871	-0.382935
	O378	O	0.494010	0.537178	0.509882
	H379	H	0.502883	0.541509	0.515387
	H380	H	0.497439	0.524453	0.510679
	O381	O	-0.184081	0.808049	0.816840
	H382	H	-0.175385	0.818226	0.843321
	H383	H	-0.190067	0.804332	0.822423
	O384	O	1.132930	0.042502	1.056466
	H385	H	1.134836	0.061458	1.036980
	H386	H	1.131845	0.056895	1.069216
	O387	O	0.962678	1.070115	0.238896
	H388	H	0.976428	1.044837	0.247876
	H389	H	0.940835	1.050651	0.232862
	O390	O	-0.025721	0.031973	-0.048558
	H391	H	-0.026692	0.042821	-0.044264
	H392	H	-0.033741	0.038357	-0.043002
	O393	O	0.708949	0.692748	0.536157
	H394	H	0.722014	0.704608	0.535147
	H395	H	0.700766	0.681593	0.548644
	O396	O	-0.209297	1.021291	0.779896
	H397	H	-0.232542	1.029102	0.765274
	H398	H	-0.205650	1.023347	0.784204
	O399	O	0.354035	0.301030	1.356114
	H400	H	0.376974	0.305633	1.360271
	H401	H	0.352792	0.289832	1.366073
	O402	O	0.779573	0.983329	0.233984
	H403	H	0.771632	0.958784	0.242482
	H404	H	0.768686	0.954743	0.244401
	O405	O	0.973945	-0.230915	1.232943
	H406	H	0.986663	-0.233181	1.222055
	H407	H	0.980358	-0.261648	1.245928
	O408	O	-0.221381	-0.031012	-0.054542
	H409	H	-0.219210	-0.055687	-0.052204
	H410	H	-0.225129	-0.012458	-0.062684
	O411	O	0.287525	0.718338	0.484041
	H412	H	0.278011	0.716389	0.468705
	H413	H	0.280336	0.724497	0.476570
	O414	O	1.154870	-0.108191	1.073951
	H415	H	1.166662	-0.105054	1.068420
	H416	H	1.150409	-0.090830	1.077945
	O417	O	0.692238	0.304499	0.700666
	H418	H	0.669443	0.330577	0.695909
	H419	H	0.681762	0.319644	0.671377
	O420	O	0.281920	0.274501	0.539069
	H421	H	0.271071	0.256475	0.558382
	H422	H	0.275727	0.262762	0.570937
	O423	O	0.064328	-0.137671	0.984346
	H424	H	0.070974	-0.132124	0.977132
	H425	H	0.063661	-0.136470	0.989878
	O426	O	1.216357	-0.032008	0.787891
	H427	H	1.207779	-0.015863	0.784292
	H428	H	1.216167	-0.021621	0.764229
	O429	O	0.570115	0.536721	0.457029
	H430	H	0.563481	0.543719	0.459539
	H431	H	0.569763	0.524208	0.441380
	O432	O	0.477751	0.717672	0.287625
	H433	H	0.485319	0.741269	0.285820
	H434	H	0.478922	0.726860	0.293473
	O435	O	0.522531	0.276188	0.282490
	H436	H	0.541435	0.262305	0.287046
	H437	H	0.543978	0.253940	0.276774
	O438	O	-0.436134	0.730444	0.443568
	H439	H	-0.436346	0.724266	0.456255
	H440	H	-0.444602	0.733211	0.469697
	O441	O	0.205552	0.924414	0.210211
	H442	H	0.215152	0.936424	0.210233
	H443	H	0.209654	0.933496	0.214264
	O444	O	0.534050	0.719487	0.730133
	H445	H	0.555188	0.737601	0.752852
	H446	H	0.537095	0.711486	0.739055
	O447	O	-0.208789	1.217141	0.981847
	H448	H	-0.224261	1.241703	0.977717
	H449	H	-0.216262	1.195459	0.977749
	O450	O	-0.087821	0.768346	0.970423
	H451	H	-0.087954	0.772317	0.966623
	H452	H	-0.091018	0.761445	0.969133
	O453	O	0.667570	0.319303	0.471817
	H454	H	0.666393	0.318330	0.463292
	H455	H	0.679057	0.308656	0.474884
	O456	O	0.215585	0.098753	1.046801
	H457	H	0.229089	0.110423	1.060481
	H458	H	0.192245	0.106517	1.051211
	O459	O	0.707793	0.709120	-0.279054
	H460	H	0.712205	0.677309	-0.301268
	H461	H	0.709703	0.724797	-0.262097
	O462	O	0.701554	0.461296	0.538115
	H463	H	0.697914	0.467612	0.515749
	H464	H	0.701600	0.460520	0.529234
	O465	O	0.796256	-0.214976	0.064105
	H466	H	0.778850	-0.234000	0.077267
	H467	H	0.809916	-0.207232	0.077341
	O468	O	0.650053	0.634590	0.300465
	H469	H	0.624138	0.620392	0.313441
	H470	H	0.624513	0.630366	0.302107
	O471	O	0.479654	0.276585	0.726658
	H472	H	0.443495	0.273360	0.730729
	H473	H	0.465995	0.260564	0.742315
	O474	O	0.496184	0.502991	0.505969
	H475	H	0.493779	0.494061	0.494718
	H476	H	0.491113	0.492021	0.517888
	O477	O	0.286642	0.450978	1.727072
	H478	H	0.279168	0.473018	1.726651
	H479	H	0.276282	0.473644	1.726168
	O480	O	0.191536	0.188889	0.816146
	H481	H	0.163552	0.172655	0.823296
	H482	H	0.179418	0.168445	0.840278
	O483	O	0.614930	0.274319	0.545805
	H484	H	0.625080	0.268160	0.540541
	H485	H	0.599928	0.284536	0.539910
	O486	O	0.604426	-0.722641	0.366804
	H487	H	0.609050	-0.698096	0.364377
	H488	H	0.608022	-0.737493	0.360800
	O489	O	0.971574	1.058715	-0.186780
	H490	H	0.960075	1.068243	-0.176604
	H491	H	0.948930	1.067034	-0.191287
	O492	O	-0.156233	-0.050982	0.054815
	H493	H	-0.142465	-0.065283	0.071903
	H494	H	-0.146587	-0.048866	0.066789
	O495	O	0.059077	0.964712	1.038669
	H496	H	0.068980	0.981373	1.026138
	H497	H	0.069702	0.968195	1.041560
	O498	O	0.971332	0.875209	0.774674
	H499	H	0.964984	0.875815	0.772678
	H500	H	0.958343	0.861377	0.768217
	O501	O	0.476390	0.339042	0.538921
	H502	H	0.468006	0.340895	0.550044
	H503	H	0.490307	0.340588	0.531620
