data_Molecule from HDF5

_cell_length_a		16.256888
_cell_length_b		16.369688
_cell_length_c		16.240266
_cell_angle_alpha	90.074608
_cell_angle_beta	90.243392
_cell_angle_gamma	89.574706
_symmetry_space_group_name_H-M	'P 1'
_symmetry_Int_Tables_number		1

loop_
	_symmetry_equiv_pos_as_xyz
	x,y,z

loop_
	_atom_site_label
	_atom_site_type_symbol
	_atom_site_fract_x
	_atom_site_fract_y
	_atom_site_fract_z
	H0	H	0.400052	0.838077	0.703577
	H1	H	0.594769	0.163757	0.707315
	H2	H	0.596763	0.839122	0.275517
	H3	H	0.394176	0.164482	0.272760
	H4	H	0.712359	0.402597	0.826536
	H5	H	0.712944	0.600127	0.154853
	H6	H	0.281905	0.600872	0.827100
	H7	H	0.285910	0.404500	0.155353
	H8	H	0.834717	0.720898	0.388192
	H9	H	0.159909	0.718793	0.593399
	H10	H	0.833450	0.288698	0.591755
	H11	H	0.159790	0.283401	0.390689
	H12	H	0.834475	0.404152	0.707093
	H13	H	0.160307	0.601464	0.707345
	H14	H	0.833995	0.602908	0.274209
	H15	H	0.162182	0.402155	0.278200
	H16	H	0.398323	0.714774	0.825861
	H17	H	0.597665	0.717050	0.153997
	H18	H	0.599898	0.284280	0.827758
	H19	H	0.398866	0.286651	0.154173
	H20	H	0.714890	0.840333	0.390693
	H21	H	0.710786	0.164935	0.592258
	H22	H	0.282752	0.838832	0.589273
	H23	H	0.278166	0.164286	0.389839
	H24	H	0.900747	0.339033	0.205571
	H25	H	0.098337	0.663942	0.208473
	H26	H	0.098990	0.340267	0.774170
	H27	H	0.897595	0.665211	0.776209
	H28	H	0.211769	0.902430	0.327133
	H29	H	0.213095	0.101599	0.654368
	H30	H	0.779810	0.102216	0.327348
	H31	H	0.785172	0.906131	0.655251
	H32	H	0.334510	0.219468	0.888251
	H33	H	0.661221	0.217263	0.092732
	H34	H	0.333692	0.788188	0.087857
	H35	H	0.660303	0.784732	0.890197
	H36	H	0.332908	0.905844	0.202183
	H37	H	0.660289	0.100325	0.207331
	H38	H	0.333729	0.099611	0.775598
	H39	H	0.661620	0.903059	0.778185
	H40	H	0.894658	0.219060	0.327701
	H41	H	0.096410	0.217178	0.654647
	H42	H	0.100053	0.783828	0.328088
	H43	H	0.899081	0.788825	0.654330
	H44	H	0.215294	0.339675	0.891318
	H45	H	0.212064	0.665362	0.090328
	H46	H	0.784373	0.338851	0.089884
	H47	H	0.779073	0.664094	0.889880
	H48	H	0.408373	0.114013	0.579618
	H49	H	0.586398	0.887349	0.583578
	H50	H	0.591553	0.115968	0.408013
	H51	H	0.400112	0.888108	0.405707
	H52	H	0.595462	0.417109	0.105580
	H53	H	0.592497	0.596110	0.872707
	H54	H	0.410601	0.588156	0.103736
	H55	H	0.397143	0.411356	0.872134
	H56	H	0.113104	0.593261	0.403937
	H57	H	0.882840	0.595575	0.575418
	H58	H	0.111981	0.414230	0.584455
	H59	H	0.884310	0.417658	0.398373
	H60	H	0.115811	0.405775	0.586154
	H61	H	0.881178	0.591822	0.586466
	H62	H	0.112406	0.591339	0.399035
	H63	H	0.878509	0.409499	0.392451
	H64	H	0.411206	0.605738	0.108390
	H65	H	0.589624	0.589260	0.875326
	H66	H	0.581975	0.407666	0.104467
	H67	H	0.412026	0.419194	0.878490
	H68	H	0.592357	0.121382	0.392060
	H69	H	0.595701	0.886306	0.578392
	H70	H	0.398622	0.118205	0.580184
	H71	H	0.400256	0.883833	0.388314
	H72	H	0.899749	0.618129	0.080591
	H73	H	0.093948	0.386022	0.084638
	H74	H	0.096631	0.617904	0.906285
	H75	H	0.910029	0.387286	0.897746
	H76	H	0.082930	0.910809	0.604638
	H77	H	0.086445	0.098564	0.373709
	H78	H	0.898848	0.096498	0.608787
	H79	H	0.908131	0.913142	0.376062
	H80	H	0.615385	0.103848	0.905725
	H81	H	0.383948	0.088354	0.080256
	H82	H	0.617136	0.906381	0.091290
	H83	H	0.380973	0.917467	0.890189
	H84	H	0.613867	0.902159	0.076304
	H85	H	0.379025	0.099970	0.085541
	H86	H	0.609168	0.083839	0.903655
	H87	H	0.376289	0.898509	0.892018
	H88	H	0.906999	0.094501	0.605476
	H89	H	0.090749	0.091211	0.375227
	H90	H	0.091605	0.903042	0.609316
	H91	H	0.907155	0.908462	0.373781
	H92	H	0.092689	0.621315	0.890237
	H93	H	0.091219	0.387073	0.084964
	H94	H	0.906313	0.618307	0.088242
	H95	H	0.903622	0.387408	0.900355
	H96	H	0.404864	0.118229	0.588564
	H97	H	0.594531	0.883974	0.588575
	H98	H	0.577948	0.113818	0.397875
	H99	H	0.414505	0.889709	0.396326
	H100	H	0.595521	0.401264	0.110620
	H101	H	0.584755	0.595678	0.874505
	H102	H	0.395960	0.596690	0.111385
	H103	H	0.412312	0.401858	0.873878
	H104	H	0.113889	0.595730	0.399746
	H105	H	0.878660	0.602728	0.584187
	H106	H	0.111693	0.407643	0.577181
	H107	H	0.881923	0.407257	0.403110
	H108	H	0.908821	0.615174	0.079501
	H109	H	0.092591	0.387018	0.081963
	H110	H	0.081561	0.614890	0.899816
	H111	H	0.904538	0.385084	0.893907
	H112	H	0.094980	0.915578	0.607395
	H113	H	0.081939	0.091461	0.377066
	H114	H	0.904963	0.102273	0.609085
	H115	H	0.903004	0.911815	0.374462
	H116	H	0.617476	0.094252	0.887280
	H117	H	0.383301	0.099636	0.073208
	H118	H	0.610147	0.916412	0.080781
	H119	H	0.384439	0.908224	0.907444
	C120	C	0.375426	0.009558	0.611942
	C121	C	0.619546	0.993631	0.612926
	C122	C	0.618103	0.010130	0.369508
	C123	C	0.374530	0.994477	0.367789
	C124	C	0.620188	0.379639	-0.001134
	C125	C	0.618960	0.622837	0.982288
	C126	C	0.376132	0.624547	-0.000791
	C127	C	0.378004	0.381513	0.982697
	C128	C	0.005472	0.623946	0.369840
	C129	C	0.988699	0.624423	0.612026
	C130	C	0.005418	0.381359	0.612086
	C131	C	0.989333	0.380935	0.369314
	C132	C	0.876542	0.509749	0.111975
	C133	C	0.121020	0.494035	0.113214
	C134	C	0.119900	0.510366	0.869473
	C135	C	0.875858	0.493976	0.868591
	C136	C	0.118672	0.880316	0.499337
	C137	C	0.116871	0.123308	0.483039
	C138	C	0.873662	0.126186	0.499827
	C139	C	0.877021	0.882547	0.482649
	C140	C	0.505900	0.123361	0.868904
	C141	C	0.489692	0.123922	0.110805
	C142	C	0.505631	0.880419	0.111189
	C143	C	0.488803	0.879298	0.868500
	C144	C	0.378875	0.886928	0.666646
	C145	C	0.615698	0.115562	0.668910
	C146	C	0.617365	0.888105	0.313296
	C147	C	0.374588	0.116081	0.311192
	C148	C	0.675237	0.381928	0.875771
	C149	C	0.675171	0.620771	0.105604
	C150	C	0.320266	0.621281	0.875977
	C151	C	0.323322	0.383929	0.106233
	C152	C	0.883195	0.681357	0.369526
	C153	C	0.111286	0.680228	0.612255
	C154	C	0.882514	0.326492	0.611509
	C155	C	0.111444	0.322567	0.370713
	C156	C	0.882891	0.383974	0.668777
	C157	C	0.111538	0.621956	0.668961
	C158	C	0.882969	0.623049	0.312536
	C159	C	0.112657	0.381505	0.314752
	C160	C	0.377630	0.678362	0.875615
	C161	C	0.617748	0.678913	0.105116
	C162	C	0.619208	0.323226	0.876345
	C163	C	0.379448	0.325430	0.105494
	C164	C	0.675794	0.888467	0.370997
	C165	C	0.673524	0.115890	0.611864
	C166	C	0.320530	0.887343	0.609629
	C167	C	0.316958	0.115943	0.369538
	C168	C	0.879696	0.387591	0.167686
	C169	C	0.118311	0.615768	0.169684
	C170	C	0.118705	0.388671	0.813094
	C171	C	0.877045	0.616263	0.813428
	C172	C	0.174024	0.882060	0.375918
	C173	C	0.174061	0.121537	0.605714
	C174	C	0.818251	0.122684	0.376195
	C175	C	0.822391	0.885421	0.606162
	C176	C	0.383314	0.180506	0.869266
	C177	C	0.612407	0.178812	0.111286
	C178	C	0.382560	0.825824	0.108510
	C179	C	0.611702	0.823153	0.870490
	C180	C	0.382057	0.884299	0.165397
	C181	C	0.611990	0.120800	0.168316
	C182	C	0.382677	0.120833	0.813268
	C183	C	0.612434	0.882023	0.814776
	C184	C	0.875100	0.180912	0.376571
	C185	C	0.116177	0.179168	0.605842
	C186	C	0.118439	0.823058	0.376684
	C187	C	0.878770	0.826903	0.605597
	C188	C	0.176893	0.388369	0.870912
	C189	C	0.175396	0.616124	0.111296
	C190	C	0.822133	0.387373	0.109873
	C191	C	0.818288	0.615848	0.870059
	C192	C	0.397505	0.094613	0.589445
	C193	C	0.598432	0.908083	0.590185
	C194	C	0.594195	0.095091	0.392719
	C195	C	0.398008	0.909105	0.390268
	C196	C	0.597751	0.402225	0.084634
	C197	C	0.595920	0.600127	0.896441
	C198	C	0.399052	0.603267	0.085494
	C199	C	0.400420	0.404087	0.897089
	C200	C	0.090860	0.600360	0.393780
	C201	C	0.903147	0.602871	0.588925
	C202	C	0.090866	0.402916	0.589189
	C203	C	0.903799	0.404606	0.391438
	C204	C	0.898539	0.595024	0.089363
	C205	C	0.098946	0.408761	0.090630
	C206	C	0.097098	0.595844	0.892204
	C207	C	0.899045	0.408718	0.890907
	C208	C	0.096354	0.902988	0.584960
	C209	C	0.093307	0.100467	0.397514
	C210	C	0.896755	0.104154	0.585498
	C211	C	0.899332	0.904787	0.396960
	C212	C	0.591795	0.100479	0.891945
	C213	C	0.403993	0.102307	0.086795
	C214	C	0.591399	0.901951	0.089292
	C215	C	0.402849	0.901660	0.890102
	Zn216	Zn	0.497326	0.000869	0.740699
	Zn217	Zn	0.496556	0.002382	0.239637
	Zn218	Zn	0.747806	0.501542	-0.009627
	Zn219	Zn	0.249458	0.502404	-0.008581
	Zn220	Zn	-0.002567	0.752935	0.490630
	Zn221	Zn	-0.003783	0.253039	0.490991
	Zn222	Zn	-0.002627	0.502626	0.740358
	Zn223	Zn	-0.001741	0.501920	0.241414
	Zn224	Zn	0.497460	0.751736	-0.010110
	Zn225	Zn	0.498343	0.252461	-0.009877
	Zn226	Zn	0.747616	0.002886	0.491230
	Zn227	Zn	0.246178	0.001481	0.490625
	N228	N	0.412604	0.963863	0.667986
	N229	N	0.582829	0.038411	0.669664
	N230	N	0.581941	0.964757	0.312514
	N231	N	0.409614	0.039404	0.310227
	N232	N	0.675968	0.416486	0.952937
	N233	N	0.675945	0.586440	0.028169
	N234	N	0.319330	0.588308	0.953897
	N235	N	0.322309	0.418221	0.028804
	N236	N	0.960429	0.681944	0.404428
	N237	N	0.033966	0.681910	0.577560
	N238	N	0.959530	0.324520	0.576995
	N239	N	0.033606	0.321939	0.403608
	N240	N	0.960212	0.417461	0.669122
	N241	N	0.034397	0.588030	0.669053
	N242	N	0.960208	0.587945	0.312749
	N243	N	0.035751	0.417061	0.313701
	N244	N	0.411683	0.680426	0.953340
	N245	N	0.583472	0.680149	0.027643
	N246	N	0.585643	0.321705	0.953914
	N247	N	0.412823	0.323905	0.027822
	N248	N	0.676270	0.965447	0.405243
	N249	N	0.676000	0.038883	0.577743
	N250	N	0.318294	0.964509	0.576376
	N251	N	0.317026	0.039292	0.404041
	N252	N	0.912917	0.464701	0.169061
	N253	N	0.084925	0.538706	0.170891
	N254	N	0.084092	0.465503	0.812130
	N255	N	0.912256	0.539582	0.812688
	N256	N	0.174475	0.916969	0.452980
	N257	N	0.174727	0.087460	0.528293
	N258	N	0.816940	0.089623	0.453897
	N259	N	0.821210	0.919433	0.528733
	N260	N	0.460968	0.182044	0.903202
	N261	N	0.535265	0.180927	0.076470
	N262	N	0.460316	0.823355	0.075494
	N263	N	0.533870	0.821358	0.903178
	N264	N	0.459505	0.917631	0.167098
	N265	N	0.534607	0.087216	0.167953
	N266	N	0.459960	0.086120	0.812843
	N267	N	0.534941	0.916151	0.813170
	N268	N	0.908818	0.183181	0.454421
	N269	N	0.081346	0.180151	0.528535
	N270	N	0.084713	0.821897	0.454340
	N271	N	0.911796	0.824924	0.527835
	N272	N	0.177736	0.465218	0.905396
	N273	N	0.177163	0.539287	0.076911
	N274	N	0.820166	0.464291	0.075936
	N275	N	0.817251	0.538677	0.903380
	O276	O	0.028300	-0.036924	0.067310
	H277	H	0.030802	-0.045799	0.071603
	H278	H	0.021456	-0.041709	0.069469
	O279	O	1.050541	-0.121708	0.945129
	H280	H	1.052471	-0.127128	0.943185
	H281	H	1.046599	-0.123045	0.950246
	O282	O	0.397294	0.573421	0.562326
	H283	H	0.386851	0.572761	0.567764
	H284	H	0.393202	0.575195	0.556331
	O285	O	0.007679	1.048421	0.939159
	H286	H	0.016691	1.047140	0.943807
	H287	H	0.015245	1.044053	0.945015
	O288	O	0.580583	0.406014	0.417305
	H289	H	0.590585	0.409952	0.417997
	H290	H	0.582048	0.406629	0.407483
	O291	O	0.643302	0.381766	1.420633
	H292	H	0.649175	0.381518	1.410277
	H293	H	0.635789	0.386354	1.412511
	O294	O	0.967968	1.044820	0.948884
	H295	H	0.970741	1.049624	0.940718
	H296	H	0.973810	1.042476	0.940037
	O297	O	0.956391	0.033481	1.054388
	H298	H	0.961877	0.032797	1.051159
	H299	H	0.955549	0.027762	1.058746
	O300	O	0.645995	0.439227	0.410058
	H301	H	0.642431	0.441173	0.404165
	H302	H	0.631686	0.442066	0.411511
	O303	O	0.943488	-0.048838	-0.015211
	H304	H	0.929746	-0.045181	-0.010493
	H305	H	0.946933	-0.039382	-0.024299
	O306	O	-0.487756	1.543298	0.443631
	H307	H	-0.495995	1.531698	0.443330
	H308	H	-0.496002	1.550527	0.447229
	O309	O	0.547808	0.545086	0.511954
	H310	H	0.540215	0.545007	0.509357
	H311	H	0.553456	0.546358	0.511069
	O312	O	1.401564	0.631927	1.506372
	H313	H	1.397858	0.626174	1.503597
	H314	H	1.408401	0.621661	1.520135
	O315	O	0.444635	0.502624	0.470828
	H316	H	0.434511	0.505403	0.471683
	H317	H	0.453838	0.495376	0.468484
	O318	O	0.395226	0.418838	0.453472
	H319	H	0.395172	0.418718	0.444002
	H320	H	0.401902	0.423111	0.455995
	O321	O	1.040015	1.004131	0.994072
	H322	H	1.042174	1.006892	0.996853
	H323	H	1.041200	0.995347	0.994352
	O324	O	0.492564	0.495670	0.623904
	H325	H	0.508023	0.495316	0.633976
	H326	H	0.495230	0.494657	0.626751
	O327	O	0.509532	0.342874	0.455555
	H328	H	0.520030	0.343244	0.453734
	H329	H	0.523718	0.340894	0.434741
	O330	O	0.962022	0.072652	1.039422
	H331	H	0.964618	0.077385	1.044854
	H332	H	0.967094	0.079934	1.027747
	O333	O	1.056109	0.961989	0.082509
	H334	H	1.057495	0.956938	0.083852
	H335	H	1.062993	0.960747	0.087401
	O336	O	0.339986	0.616104	0.425779
	H337	H	0.347444	0.615209	0.428688
	H338	H	0.334461	0.622197	0.424555
	O339	O	0.431195	0.421207	0.576958
	H340	H	0.423993	0.413642	0.579314
	H341	H	0.446217	0.418217	0.566178
	O342	O	0.068270	0.968462	0.055152
	H343	H	0.064783	0.963563	0.054464
	H344	H	0.053461	0.972058	0.059190
	O345	O	-0.090769	0.030875	-0.002668
	H346	H	-0.089599	0.032053	-0.000411
	H347	H	-0.085802	0.030799	-0.001454
	O348	O	0.627765	0.583680	0.508120
	H349	H	0.640127	0.581630	0.516071
	H350	H	0.619023	0.573848	0.509808
	O351	O	0.481086	0.444716	0.499329
	H352	H	0.470348	0.436046	0.503839
	H353	H	0.475950	0.443128	0.497114
	O354	O	0.368103	0.585602	0.342656
	H355	H	0.366451	0.596149	0.346928
	H356	H	0.374846	0.581526	0.338631
	O357	O	0.529797	0.596543	0.458613
	H358	H	0.532670	0.589055	0.462851
	H359	H	0.530999	0.613409	0.460638
	O360	O	-0.016130	0.007303	0.048854
	H361	H	-0.021236	0.001303	0.057177
	H362	H	-0.022237	0.013646	0.051648
	O363	O	0.530782	0.484592	0.487290
	H364	H	0.534479	0.484844	0.492690
	H365	H	0.516940	0.480343	0.491210
	O366	O	-0.028554	0.060090	0.980199
	H367	H	-0.030985	0.053947	0.966844
	H368	H	-0.024928	0.061620	0.977593
	O369	O	0.527632	0.463534	0.577193
	H370	H	0.526141	0.472479	0.584058
	H371	H	0.534745	0.458559	0.578092
