data_Molecule from HDF5

_cell_length_a		16.510558
_cell_length_b		16.544033
_cell_length_c		16.478050
_cell_angle_alpha	89.855955
_cell_angle_beta	89.995369
_cell_angle_gamma	89.938582
_symmetry_space_group_name_H-M	'P 1'
_symmetry_Int_Tables_number		1

loop_
	_symmetry_equiv_pos_as_xyz
	x,y,z

loop_
	_atom_site_label
	_atom_site_type_symbol
	_atom_site_fract_x
	_atom_site_fract_y
	_atom_site_fract_z
	H0	H	0.376519	0.850802	0.707688
	H1	H	0.585502	0.164962	0.704676
	H2	H	0.584030	0.848289	0.268438
	H3	H	0.378038	0.164720	0.262110
	H4	H	0.701678	0.403948	0.826478
	H5	H	0.703114	0.610502	0.142645
	H6	H	0.260382	0.614182	0.827099
	H7	H	0.260957	0.400712	0.141650
	H8	H	0.827837	0.731267	0.376772
	H9	H	0.140455	0.729807	0.591737
	H10	H	0.827957	0.285912	0.589909
	H11	H	0.141387	0.284150	0.376486
	H12	H	0.827771	0.400976	0.706443
	H13	H	0.140098	0.612894	0.707834
	H14	H	0.827272	0.613794	0.262177
	H15	H	0.140899	0.401281	0.260732
	H16	H	0.374524	0.732337	0.828129
	H17	H	0.586869	0.726765	0.143034
	H18	H	0.584618	0.288576	0.826713
	H19	H	0.374785	0.283264	0.141849
	H20	H	0.704826	0.850509	0.380989
	H21	H	0.703109	0.164952	0.588864
	H22	H	0.261802	0.850954	0.589403
	H23	H	0.261530	0.165497	0.378637
	H24	H	0.877608	0.350444	0.207905
	H25	H	0.086226	0.664233	0.203037
	H26	H	0.089402	0.349329	0.761878
	H27	H	0.878428	0.663813	0.762393
	H28	H	0.206028	0.901231	0.328717
	H29	H	0.205919	0.115330	0.642755
	H30	H	0.763532	0.112396	0.326676
	H31	H	0.764266	0.904405	0.643534
	H32	H	0.327353	0.232711	0.875938
	H33	H	0.640000	0.229091	0.091749
	H34	H	0.326349	0.784902	0.090564
	H35	H	0.639663	0.784895	0.877879
	H36	H	0.326704	0.900066	0.208566
	H37	H	0.641353	0.111424	0.206255
	H38	H	0.326592	0.117067	0.759936
	H39	H	0.640681	0.902555	0.762945
	H40	H	0.878743	0.228887	0.326643
	H41	H	0.090594	0.230675	0.641730
	H42	H	0.090801	0.784865	0.329317
	H43	H	0.877873	0.786109	0.642974
	H44	H	0.209039	0.350383	0.873960
	H45	H	0.205440	0.663290	0.088016
	H46	H	0.762388	0.349571	0.089736
	H47	H	0.761168	0.663756	0.877901
	H48	H	0.394989	0.122940	0.582044
	H49	H	0.572231	0.895662	0.571873
	H50	H	0.570043	0.119579	0.392940
	H51	H	0.391424	0.896907	0.402363
	H52	H	0.571797	0.410020	0.100743
	H53	H	0.580458	0.594666	0.870003
	H54	H	0.393875	0.588067	0.094457
	H55	H	0.393852	0.410309	0.868687
	H56	H	0.094484	0.592728	0.397862
	H57	H	0.870158	0.595796	0.578115
	H58	H	0.098045	0.419077	0.575431
	H59	H	0.871414	0.419720	0.391865
	H60	H	0.096177	0.416333	0.568994
	H61	H	0.871383	0.601357	0.570054
	H62	H	0.097254	0.595656	0.392017
	H63	H	0.871727	0.413633	0.397513
	H64	H	0.402278	0.595287	0.093279
	H65	H	0.566762	0.590403	0.874715
	H66	H	0.579343	0.419146	0.099721
	H67	H	0.390088	0.427602	0.873734
	H68	H	0.574828	0.119744	0.397759
	H69	H	0.573413	0.894872	0.574642
	H70	H	0.402893	0.115137	0.569120
	H71	H	0.391551	0.893738	0.393058
	H72	H	0.898274	0.617682	0.072576
	H73	H	0.070965	0.393493	0.075780
	H74	H	0.070106	0.614724	0.902807
	H75	H	0.891788	0.395723	0.900485
	H76	H	0.078853	0.920585	0.599728
	H77	H	0.069061	0.095867	0.374030
	H78	H	0.891324	0.095664	0.598086
	H79	H	0.898077	0.919977	0.374336
	H80	H	0.597454	0.102694	0.894687
	H81	H	0.370201	0.096922	0.074085
	H82	H	0.595400	0.919533	0.075088
	H83	H	0.370295	0.918015	0.895000
	H84	H	0.597677	0.915339	0.076244
	H85	H	0.372716	0.095728	0.070086
	H86	H	0.591117	0.095069	0.903319
	H87	H	0.371242	0.919215	0.900041
	H88	H	0.896403	0.097137	0.596928
	H89	H	0.072268	0.096630	0.373127
	H90	H	0.067189	0.925117	0.593732
	H91	H	0.894775	0.914105	0.370753
	H92	H	0.078714	0.620218	0.895384
	H93	H	0.068921	0.396574	0.069594
	H94	H	0.888903	0.619468	0.068867
	H95	H	0.889435	0.391592	0.891830
	H96	H	0.387038	0.120185	0.567224
	H97	H	0.570740	0.895552	0.574455
	H98	H	0.576156	0.121956	0.391848
	H99	H	0.399055	0.897780	0.396633
	H100	H	0.568365	0.420112	0.096416
	H101	H	0.569027	0.604885	0.870652
	H102	H	0.392352	0.599061	0.097949
	H103	H	0.407050	0.420411	0.877108
	H104	H	0.096754	0.599976	0.398020
	H105	H	0.874086	0.591473	0.569919
	H106	H	0.095087	0.423410	0.570802
	H107	H	0.874640	0.421309	0.399502
	H108	H	0.890929	0.621600	0.078999
	H109	H	0.075382	0.394226	0.069855
	H110	H	0.067314	0.617455	0.890782
	H111	H	0.898308	0.395197	0.893560
	H112	H	0.068316	0.911794	0.598602
	H113	H	0.071943	0.094091	0.374643
	H114	H	0.893246	0.100766	0.599355
	H115	H	0.891293	0.921047	0.371780
	H116	H	0.594298	0.090493	0.891036
	H117	H	0.372329	0.092675	0.074322
	H118	H	0.594855	0.916101	0.072332
	H119	H	0.372413	0.922302	0.896413
	C120	C	0.361944	0.016020	0.606225
	C121	C	0.603653	0.999535	0.605400
	C122	C	0.605131	0.015905	0.363287
	C123	C	0.361691	0.999907	0.363761
	C124	C	0.604216	0.385496	-0.005989
	C125	C	0.604231	0.628554	0.976241
	C126	C	0.362416	0.628108	-0.007889
	C127	C	0.362495	0.385594	0.976322
	C128	C	-0.007394	0.629070	0.363123
	C129	C	0.975373	0.628661	0.606217
	C130	C	-0.007222	0.386733	0.605041
	C131	C	0.976080	0.385554	0.362607
	C132	C	0.860843	0.515807	0.106268
	C133	C	0.104257	0.498503	0.104136
	C134	C	0.105533	0.514198	0.862549
	C135	C	0.861453	0.498174	0.862742
	C136	C	0.104659	0.886488	0.493861
	C137	C	0.104768	0.129170	0.476993
	C138	C	0.862133	0.129631	0.493338
	C139	C	0.862692	0.886690	0.476914
	C140	C	0.490705	0.129081	0.863476
	C141	C	0.475399	0.127403	0.105660
	C142	C	0.491665	0.885214	0.106704
	C143	C	0.474949	0.886693	0.863818
	C144	C	0.358871	0.897802	0.666952
	C145	C	0.604764	0.117893	0.664930
	C146	C	0.604685	0.896325	0.306297
	C147	C	0.359659	0.117721	0.302536
	C148	C	0.662296	0.385137	0.874251
	C149	C	0.663455	0.629582	0.095166
	C150	C	0.300587	0.632128	0.874332
	C151	C	0.300979	0.382323	0.094430
	C152	C	0.874962	0.690479	0.359407
	C153	C	0.093466	0.689073	0.609361
	C154	C	0.875045	0.325862	0.608294
	C155	C	0.093956	0.324363	0.358692
	C156	C	0.874720	0.383457	0.665919
	C157	C	0.093231	0.631162	0.667316
	C158	C	0.874530	0.632001	0.302334
	C159	C	0.094050	0.382943	0.301291
	C160	C	0.357187	0.691111	0.874891
	C161	C	0.605950	0.687814	0.095155
	C162	C	0.604456	0.327614	0.874335
	C163	C	0.358079	0.324172	0.094667
	C164	C	0.664571	0.897420	0.362389
	C165	C	0.662863	0.117876	0.607066
	C166	C	0.301636	0.897928	0.608405
	C167	C	0.301728	0.118047	0.360615
	C168	C	0.859118	0.397589	0.167208
	C169	C	0.105697	0.616878	0.163534
	C170	C	0.108271	0.396635	0.801526
	C171	C	0.859686	0.616483	0.802514
	C172	C	0.165495	0.883681	0.375880
	C173	C	0.165757	0.133107	0.595066
	C174	C	0.802881	0.131075	0.374152
	C175	C	0.803637	0.885354	0.596056
	C176	C	0.373793	0.191614	0.859055
	C177	C	0.593309	0.188402	0.109170
	C178	C	0.373439	0.824947	0.108948
	C179	C	0.592648	0.825598	0.860224
	C180	C	0.373585	0.882187	0.167503
	C181	C	0.593742	0.129870	0.166265
	C182	C	0.373579	0.133880	0.801167
	C183	C	0.593113	0.884253	0.803055
	C184	C	0.860584	0.188922	0.374201
	C185	C	0.108030	0.190450	0.594865
	C186	C	0.108119	0.825566	0.376002
	C187	C	0.860476	0.826788	0.595658
	C188	C	0.167412	0.397036	0.858067
	C189	C	0.164808	0.616554	0.106553
	C190	C	0.801769	0.397001	0.108533
	C191	C	0.801406	0.616594	0.860188
	C192	C	0.387591	0.097992	0.580302
	C193	C	0.579226	0.916897	0.580788
	C194	C	0.580749	0.098924	0.387314
	C195	C	0.386689	0.917563	0.389897
	C196	C	0.580084	0.409436	0.077254
	C197	C	0.579088	0.603795	0.893350
	C198	C	0.388624	0.601624	0.073722
	C199	C	0.389112	0.411740	0.894565
	C200	C	0.074796	0.603347	0.388629
	C201	C	0.893274	0.603481	0.580136
	C202	C	0.075132	0.412353	0.579218
	C203	C	0.893916	0.410930	0.388641
	C204	C	0.885583	0.598088	0.080820
	C205	C	0.079059	0.416286	0.078929
	C206	C	0.079523	0.596255	0.888654
	C207	C	0.886118	0.415692	0.887949
	C208	C	0.078745	0.911883	0.576083
	C209	C	0.078691	0.102889	0.395082
	C210	C	0.886634	0.104964	0.576402
	C211	C	0.887650	0.911432	0.393930
	C212	C	0.572882	0.103265	0.889083
	C213	C	0.393221	0.102232	0.080183
	C214	C	0.574272	0.909828	0.081780
	C215	C	0.392789	0.912449	0.889799
	Zn216	Zn	0.482781	0.007895	0.735108
	Zn217	Zn	0.483397	0.006817	0.234728
	Zn218	Zn	0.732578	0.506880	-0.015552
	Zn219	Zn	0.234081	0.506437	-0.016448
	Zn220	Zn	-0.016629	0.757555	0.485052
	Zn221	Zn	-0.015478	0.257447	0.484576
	Zn222	Zn	-0.015897	0.506200	0.734357
	Zn223	Zn	-0.016444	0.507270	0.234319
	Zn224	Zn	0.483043	0.756978	-0.015534
	Zn225	Zn	0.482873	0.257175	-0.014493
	Zn226	Zn	0.734020	0.008021	0.485322
	Zn227	Zn	0.232954	0.008626	0.485269
	N228	N	0.395225	0.972435	0.666101
	N229	N	0.568653	0.043260	0.663842
	N230	N	0.568601	0.971140	0.306809
	N231	N	0.395945	0.042950	0.304199
	N232	N	0.662496	0.420287	0.949770
	N233	N	0.662459	0.593510	0.020125
	N234	N	0.303780	0.593537	0.948159
	N235	N	0.303503	0.419771	0.019970
	N236	N	0.949419	0.688854	0.396678
	N237	N	0.019007	0.687509	0.572185
	N238	N	0.949452	0.327713	0.571168
	N239	N	0.019612	0.326045	0.396126
	N240	N	0.949040	0.420481	0.663956
	N241	N	0.018840	0.594280	0.665490
	N242	N	0.948604	0.594150	0.304749
	N243	N	0.019511	0.420085	0.303461
	N244	N	0.394924	0.688776	0.949009
	N245	N	0.570004	0.687369	0.019896
	N246	N	0.569492	0.327433	0.949842
	N247	N	0.395384	0.325921	0.020051
	N248	N	0.665194	0.972987	0.396854
	N249	N	0.662258	0.043229	0.570743
	N250	N	0.303396	0.972399	0.571367
	N251	N	0.302656	0.043575	0.397630
	N252	N	0.894976	0.472451	0.166024
	N253	N	0.068947	0.542434	0.162167
	N254	N	0.070506	0.470564	0.804369
	N255	N	0.896292	0.541897	0.803914
	N256	N	0.163485	0.920985	0.450241
	N257	N	0.163683	0.095539	0.520908
	N258	N	0.803734	0.094867	0.449279
	N259	N	0.804669	0.921658	0.521030
	N260	N	0.447569	0.188465	0.897514
	N261	N	0.518796	0.186936	0.071845
	N262	N	0.447905	0.826598	0.071712
	N263	N	0.518261	0.826922	0.897255
	N264	N	0.447896	0.918946	0.166083
	N265	N	0.519494	0.092645	0.164135
	N266	N	0.447406	0.095576	0.803866
	N267	N	0.518562	0.921322	0.805026
	N268	N	0.896495	0.188303	0.449385
	N269	N	0.070770	0.188136	0.520311
	N270	N	0.071097	0.826905	0.450492
	N271	N	0.896438	0.827333	0.520374
	N272	N	0.165954	0.471365	0.895197
	N273	N	0.164105	0.541806	0.070414
	N274	N	0.802438	0.471627	0.071645
	N275	N	0.802129	0.541872	0.896763
	O276	O	0.410684	0.324347	0.612959
	H277	H	0.407982	0.327331	0.601177
	H278	H	0.434841	0.309273	0.617833
	O279	O	0.556205	0.392100	0.302564
	H280	H	0.567324	0.381023	0.315506
	H281	H	0.539888	0.389956	0.296301
	O282	O	0.761660	1.228014	-0.044873
	H283	H	0.724107	1.261339	-0.047231
	H284	H	0.771626	1.217316	-0.095385
	O285	O	0.466734	0.390365	0.301922
	H286	H	0.473922	0.402906	0.297170
	H287	H	0.439276	0.393762	0.306307
	O288	O	-0.095037	0.131811	0.136111
	H289	H	-0.096300	0.131570	0.132568
	H290	H	-0.102718	0.136512	0.128859
	O291	O	1.198613	1.221866	0.008491
	H292	H	1.205272	1.227639	-0.007893
	H293	H	1.222570	1.221810	-0.008630
	O294	O	0.005218	0.945352	0.110002
	H295	H	-0.009917	0.945715	0.101800
	H296	H	0.012654	0.948023	0.111550
	O297	O	0.706560	0.290148	0.699461
	H298	H	0.709663	0.297952	0.686722
	H299	H	0.687874	0.288280	0.689133
	O300	O	0.565111	0.674867	0.369574
	H301	H	0.536061	0.672934	0.361936
	H302	H	0.579599	0.671928	0.353685
	O303	O	0.425958	0.354894	0.317650
	H304	H	0.413887	0.363483	0.315305
	H305	H	0.408412	0.360016	0.318898
	O306	O	0.040597	1.059370	0.804963
	H307	H	0.021964	1.039203	0.814490
	H308	H	0.067903	1.038310	0.805407
	O309	O	0.278539	0.396975	0.484697
	H310	H	0.274929	0.397686	0.480639
	H311	H	0.274647	0.400183	0.472500
	O312	O	0.506547	0.721485	0.637107
	H313	H	0.490175	0.731598	0.654574
	H314	H	0.485556	0.720891	0.616545
	O315	O	0.160100	-0.058306	0.870663
	H316	H	0.186443	-0.059975	0.848061
	H317	H	0.150012	-0.074914	0.878582
	O318	O	-0.015142	0.818029	0.100182
	H319	H	-0.028138	0.817457	0.112589
	H320	H	-0.031745	0.840381	0.103878
	O321	O	0.499875	0.371982	0.480325
	H322	H	0.500324	0.364808	0.470680
	H323	H	0.503383	0.393985	0.484097
	O324	O	0.324325	0.630477	0.617014
	H325	H	0.336773	0.625235	0.612169
	H326	H	0.313781	0.624440	0.619828
	O327	O	1.013063	0.079663	1.077486
	H328	H	1.036050	0.079190	1.078293
	H329	H	1.011192	0.087806	1.069555
	O330	O	0.979205	-0.018331	0.146744
	H331	H	0.990089	-0.006304	0.154972
	H332	H	0.985820	-0.006902	0.139125
	O333	O	0.801841	0.906301	1.163353
	H334	H	0.817900	0.899799	1.177628
	H335	H	0.794840	0.922816	1.168034
	O336	O	1.032909	0.215248	0.846716
	H337	H	1.030008	0.213679	0.822745
	H338	H	1.039408	0.204719	0.853262
	O339	O	0.625232	0.700426	0.664478
	H340	H	0.599890	0.710117	0.651700
	H341	H	0.609297	0.683499	0.670778
	O342	O	0.654927	0.692097	0.464316
	H343	H	0.653194	0.687844	0.478408
	H344	H	0.666644	0.700753	0.459530
	O345	O	-0.062830	-0.011197	-0.037156
	H346	H	-0.066826	-0.007920	-0.035533
	H347	H	-0.065460	-0.013631	-0.031841
	O348	O	0.769447	-0.188575	1.006264
	H349	H	0.748044	-0.214628	1.009886
	H350	H	0.780778	-0.178172	1.021718
	O351	O	1.557938	0.620362	0.446284
	H352	H	1.551520	0.609957	0.445474
	H353	H	1.547881	0.615219	0.436397
	O354	O	0.682384	0.305603	0.368949
	H355	H	0.682396	0.306458	0.374969
	H356	H	0.674146	0.302522	0.373950
	O357	O	0.986785	0.813952	0.795562
	H358	H	0.978951	0.800124	0.792720
	H359	H	0.981232	0.809328	0.793543
	O360	O	0.619208	0.486667	0.315817
	H361	H	0.643740	0.482369	0.288355
	H362	H	0.611283	0.471255	0.334258
	O363	O	0.403333	0.630523	0.488776
	H364	H	0.414135	0.630189	0.481589
	H365	H	0.392309	0.632881	0.480727
	O366	O	1.279768	-0.293118	1.286471
	H367	H	1.272901	-0.305113	1.305381
	H368	H	1.268686	-0.266210	1.265325
	O369	O	0.700817	0.570129	0.423398
	H370	H	0.705155	0.571435	0.393666
	H371	H	0.708204	0.576461	0.436324
	O372	O	0.309136	0.480128	0.695716
	H373	H	0.302799	0.466508	0.707584
	H374	H	0.301198	0.478923	0.702756
	O375	O	-0.113155	0.800836	1.186382
	H376	H	-0.108262	0.811496	1.176759
	H377	H	-0.120564	0.788110	1.201285
	O378	O	0.306044	0.553772	0.509376
	H379	H	0.302309	0.560567	0.497044
	H380	H	0.310009	0.553837	0.516168
	O381	O	1.172075	-0.173486	-0.209301
	H382	H	1.136749	-0.175420	-0.223221
	H383	H	1.169238	-0.176541	-0.162883
	O384	O	0.108716	0.021797	0.958427
	H385	H	0.106346	0.025822	0.939649
	H386	H	0.119667	0.030009	0.960355
	O387	O	-0.116861	1.081792	0.783762
	H388	H	-0.135871	1.083134	0.783128
	H389	H	-0.127889	1.079832	0.787794
	O390	O	0.165676	-0.184441	0.949705
	H391	H	0.168869	-0.170395	0.966180
	H392	H	0.164296	-0.197042	0.956841
	O393	O	0.968387	0.809117	-0.044586
	H394	H	0.957022	0.820278	-0.047387
	H395	H	0.965806	0.811826	-0.022083
	O396	O	0.391669	0.312576	0.397312
	H397	H	0.394763	0.320814	0.398036
	H398	H	0.371938	0.315368	0.399281
	O399	O	0.888526	0.888295	0.746162
	H400	H	0.875501	0.882150	0.725273
	H401	H	0.872066	0.884701	0.754518
	O402	O	-0.226788	0.006311	1.086202
	H403	H	-0.236693	0.028469	1.077124
	H404	H	-0.224527	0.012189	1.110824
	O405	O	0.009342	0.218589	0.196147
	H406	H	-0.010693	0.224206	0.192190
	H407	H	-0.006043	0.240707	0.197834
	O408	O	0.933390	1.220752	1.026912
	H409	H	0.940769	1.210816	1.014135
	H410	H	0.910910	1.222883	1.009437
	O411	O	0.688092	0.454813	0.540841
	H412	H	0.695889	0.471526	0.541327
	H413	H	0.686073	0.471545	0.559489
	O414	O	0.423598	0.542544	0.654159
	H415	H	0.415228	0.560691	0.661381
	H416	H	0.418378	0.546792	0.657792
	O417	O	0.824492	0.208785	0.784719
	H418	H	0.858131	0.202785	0.775847
	H419	H	0.809995	0.227628	0.763659
	O420	O	0.696694	0.385081	0.376833
	H421	H	0.716563	0.371731	0.377800
	H422	H	0.698371	0.373786	0.367266
	O423	O	-0.038653	1.013451	-0.007642
	H424	H	-0.026270	1.013584	-0.013197
	H425	H	-0.047091	1.019421	-0.001469
	O426	O	1.189531	1.039677	0.865761
	H427	H	1.189819	1.021837	0.842536
	H428	H	1.188360	1.024409	0.870056
	O429	O	0.266869	0.540472	0.267868
	H430	H	0.241912	0.546373	0.243303
	H431	H	0.278077	0.554417	0.273680
	O432	O	0.791720	-0.110539	0.885340
	H433	H	0.776009	-0.116878	0.889150
	H434	H	0.804643	-0.121216	0.889926
	O435	O	0.170781	0.189167	0.168871
	H436	H	0.126631	0.200559	0.169543
	H437	H	0.171271	0.201711	0.125231
	O438	O	1.290363	-0.658364	0.575326
	H439	H	1.294445	-0.667578	0.564402
	H440	H	1.301975	-0.663365	0.586400
	O441	O	0.476464	0.314045	0.661017
	H442	H	0.488557	0.327314	0.667683
	H443	H	0.481103	0.309035	0.631438
	O444	O	0.192551	0.903075	1.101973
	H445	H	0.189963	0.917429	1.105365
	H446	H	0.180889	0.910236	1.105583
	O447	O	0.533660	0.692129	0.486077
	H448	H	0.532534	0.695825	0.480214
	H449	H	0.549388	0.695941	0.488794
	O450	O	0.537492	0.412020	0.666894
	H451	H	0.539363	0.428738	0.674019
	H452	H	0.534366	0.421609	0.659838
	O453	O	0.510042	0.651611	0.281719
	H454	H	0.504698	0.657897	0.273751
	H455	H	0.515632	0.649889	0.274918
	O456	O	1.204415	0.033052	0.206020
	H457	H	1.214704	0.065186	0.212465
	H458	H	1.219863	0.056335	0.221310
	O459	O	0.363795	0.699269	0.457096
	H460	H	0.353262	0.703847	0.452279
	H461	H	0.377031	0.692902	0.457181
	O462	O	0.695704	0.545564	0.697308
	H463	H	0.712091	0.558813	0.717596
	H464	H	0.690145	0.547441	0.695873
	O465	O	0.800367	0.053939	-0.045177
	H466	H	0.801512	0.051894	-0.046294
	H467	H	0.795133	0.055386	-0.057171
