data_Molecule from HDF5

_cell_length_a		16.284736
_cell_length_b		16.223621
_cell_length_c		16.309187
_cell_angle_alpha	90.283907
_cell_angle_beta	90.112345
_cell_angle_gamma	90.388377
_symmetry_space_group_name_H-M	'P 1'
_symmetry_Int_Tables_number		1

loop_
	_symmetry_equiv_pos_as_xyz
	x,y,z

loop_
	_atom_site_label
	_atom_site_type_symbol
	_atom_site_fract_x
	_atom_site_fract_y
	_atom_site_fract_z
	H0	H	0.399989	0.837566	0.703308
	H1	H	0.601411	0.165755	0.709684
	H2	H	0.596986	0.839074	0.275099
	H3	H	0.400920	0.167085	0.276751
	H4	H	0.712935	0.403066	0.829318
	H5	H	0.714353	0.604369	0.155478
	H6	H	0.280814	0.599541	0.829735
	H7	H	0.280566	0.399992	0.155030
	H8	H	0.835309	0.717270	0.394677
	H9	H	0.162161	0.719009	0.592705
	H10	H	0.835156	0.287097	0.590549
	H11	H	0.163587	0.292285	0.396318
	H12	H	0.834028	0.404876	0.704848
	H13	H	0.160696	0.605588	0.710751
	H14	H	0.835118	0.602594	0.277804
	H15	H	0.160880	0.402326	0.275718
	H16	H	0.398669	0.714446	0.828214
	H17	H	0.596582	0.718309	0.155797
	H18	H	0.596092	0.287707	0.828280
	H19	H	0.400218	0.288205	0.155192
	H20	H	0.712110	0.838328	0.392238
	H21	H	0.714412	0.167635	0.590742
	H22	H	0.282695	0.839393	0.589888
	H23	H	0.287770	0.168309	0.394146
	H24	H	0.897082	0.338399	0.207447
	H25	H	0.099069	0.666596	0.208234
	H26	H	0.094575	0.339195	0.776532
	H27	H	0.899445	0.667127	0.780042
	H28	H	0.212247	0.906072	0.327827
	H29	H	0.216925	0.104493	0.655385
	H30	H	0.785922	0.100737	0.328181
	H31	H	0.782130	0.903160	0.655340
	H32	H	0.333703	0.213734	0.892803
	H33	H	0.661017	0.219950	0.092515
	H34	H	0.334376	0.786518	0.089873
	H35	H	0.661913	0.787843	0.893203
	H36	H	0.335019	0.901350	0.206829
	H37	H	0.662052	0.103386	0.207084
	H38	H	0.335194	0.098595	0.775908
	H39	H	0.661455	0.900776	0.774870
	H40	H	0.903071	0.215911	0.328434
	H41	H	0.099008	0.218822	0.656936
	H42	H	0.097484	0.787338	0.329363
	H43	H	0.902007	0.790530	0.657665
	H44	H	0.208351	0.337565	0.893706
	H45	H	0.214917	0.665232	0.093029
	H46	H	0.781373	0.338495	0.090890
	H47	H	0.785480	0.667015	0.896795
	H48	H	0.405640	0.118967	0.579844
	H49	H	0.585277	0.885972	0.590901
	H50	H	0.574950	0.110479	0.410526
	H51	H	0.405472	0.884465	0.391327
	H52	H	0.589163	0.414561	0.106297
	H53	H	0.587585	0.604584	0.874215
	H54	H	0.417524	0.592080	0.104151
	H55	H	0.400040	0.409985	0.876258
	H56	H	0.116084	0.596535	0.399823
	H57	H	0.882520	0.587488	0.593245
	H58	H	0.115718	0.406872	0.584103
	H59	H	0.882749	0.407953	0.401251
	H60	H	0.112321	0.417007	0.583940
	H61	H	0.877220	0.606029	0.590822
	H62	H	0.114285	0.596193	0.403526
	H63	H	0.882344	0.410294	0.399085
	H64	H	0.403340	0.604600	0.111840
	H65	H	0.602987	0.593318	0.873973
	H66	H	0.587064	0.407282	0.107732
	H67	H	0.406305	0.408296	0.876003
	H68	H	0.612721	0.123226	0.409358
	H69	H	0.588182	0.889840	0.575728
	H70	H	0.405966	0.121948	0.590343
	H71	H	0.410885	0.889204	0.401488
	H72	H	0.904789	0.618715	0.081966
	H73	H	0.078017	0.386947	0.091681
	H74	H	0.101803	0.619076	0.912351
	H75	H	0.904364	0.386742	0.900967
	H76	H	0.101816	0.907027	0.612507
	H77	H	0.100522	0.101209	0.373189
	H78	H	0.903174	0.090537	0.607888
	H79	H	0.899176	0.914097	0.376216
	H80	H	0.617914	0.099818	0.893037
	H81	H	0.378549	0.096405	0.092876
	H82	H	0.615771	0.908261	0.085573
	H83	H	0.381511	0.899295	0.904196
	H84	H	0.611858	0.911088	0.079953
	H85	H	0.381769	0.101052	0.078623
	H86	H	0.613045	0.099176	0.908237
	H87	H	0.386178	0.916996	0.900057
	H88	H	0.912651	0.096339	0.607135
	H89	H	0.094559	0.090271	0.378144
	H90	H	0.093900	0.922967	0.605587
	H91	H	0.912652	0.913500	0.380054
	H92	H	0.093275	0.624806	0.888418
	H93	H	0.087275	0.388579	0.073715
	H94	H	0.903737	0.620633	0.090056
	H95	H	0.899970	0.383992	0.897698
	H96	H	0.415026	0.117109	0.584850
	H97	H	0.600494	0.883250	0.584399
	H98	H	0.590309	0.125123	0.377408
	H99	H	0.399197	0.885343	0.401941
	H100	H	0.594051	0.410846	0.109620
	H101	H	0.586489	0.586480	0.879560
	H102	H	0.398619	0.584986	0.107813
	H103	H	0.401223	0.403792	0.874536
	H104	H	0.114005	0.592838	0.400462
	H105	H	0.885225	0.595925	0.575588
	H106	H	0.116742	0.413076	0.593023
	H107	H	0.881709	0.407182	0.398818
	H108	H	0.910614	0.617986	0.087476
	H109	H	0.098119	0.381330	0.090135
	H110	H	0.077102	0.613691	0.904907
	H111	H	0.905843	0.385228	0.895142
	H112	H	0.083496	0.906597	0.607558
	H113	H	0.087910	0.101913	0.377419
	H114	H	0.902792	0.101265	0.610895
	H115	H	0.906739	0.901394	0.375297
	H116	H	0.611764	0.086475	0.899274
	H117	H	0.385010	0.085676	0.082874
	H118	H	0.613697	0.914695	0.085388
	H119	H	0.378538	0.906234	0.886818
	C120	C	0.378580	0.011178	0.612945
	C121	C	0.620994	0.994602	0.613367
	C122	C	0.620409	0.011231	0.369801
	C123	C	0.377944	0.995095	0.369936
	C124	C	0.618649	0.381494	0.000008
	C125	C	0.620760	0.624709	0.983864
	C126	C	0.376775	0.622446	0.000405
	C127	C	0.374435	0.378986	0.983385
	C128	C	0.006894	0.623852	0.372088
	C129	C	0.989510	0.625863	0.615969
	C130	C	0.006678	0.382623	0.614407
	C131	C	0.990360	0.380752	0.370987
	C132	C	0.876250	0.510859	0.114813
	C133	C	0.119115	0.493506	0.114763
	C134	C	0.118284	0.510831	0.871922
	C135	C	0.875704	0.494012	0.870902
	C136	C	0.121152	0.882731	0.500413
	C137	C	0.122729	0.126773	0.484220
	C138	C	0.878448	0.124066	0.500333
	C139	C	0.877180	0.880917	0.484857
	C140	C	0.506331	0.122925	0.870793
	C141	C	0.489901	0.124243	0.113673
	C142	C	0.506072	0.881261	0.112742
	C143	C	0.489942	0.879063	0.868758
	C144	C	0.379954	0.886972	0.666230
	C145	C	0.620616	0.117289	0.670738
	C146	C	0.617708	0.887930	0.313428
	C147	C	0.381224	0.118663	0.315072
	C148	C	0.674518	0.383231	0.877780
	C149	C	0.675792	0.623748	0.106810
	C150	C	0.320238	0.619561	0.877914
	C151	C	0.318979	0.380600	0.106263
	C152	C	0.884141	0.679376	0.374181
	C153	C	0.113137	0.681176	0.613488
	C154	C	0.883809	0.325510	0.611377
	C155	C	0.113941	0.328015	0.374744
	C156	C	0.883045	0.384057	0.668082
	C157	C	0.112268	0.624910	0.672215
	C158	C	0.884080	0.622141	0.316056
	C159	C	0.112684	0.383162	0.314978
	C160	C	0.378558	0.677037	0.877295
	C161	C	0.617725	0.680781	0.106756
	C162	C	0.616033	0.326020	0.877084
	C163	C	0.378070	0.324486	0.106243
	C164	C	0.674746	0.887591	0.371755
	C165	C	0.676513	0.118311	0.611399
	C166	C	0.321405	0.887935	0.610139
	C167	C	0.324644	0.119000	0.373206
	C168	C	0.877317	0.387315	0.169302
	C169	C	0.118858	0.617055	0.170784
	C170	C	0.114895	0.387839	0.815170
	C171	C	0.878925	0.618023	0.817470
	C172	C	0.175014	0.885126	0.377066
	C173	C	0.178211	0.124585	0.607022
	C174	C	0.823670	0.121296	0.377222
	C175	C	0.821259	0.883579	0.607269
	C176	C	0.382801	0.176491	0.872819
	C177	C	0.612431	0.181239	0.112354
	C178	C	0.383336	0.824527	0.110451
	C179	C	0.612973	0.824772	0.871972
	C180	C	0.383480	0.882132	0.168271
	C181	C	0.612872	0.123447	0.169541
	C182	C	0.383488	0.119165	0.814666
	C183	C	0.612834	0.881443	0.813552
	C184	C	0.882373	0.178095	0.377154
	C185	C	0.119678	0.181385	0.607533
	C186	C	0.117988	0.826089	0.377814
	C187	C	0.880420	0.827245	0.608267
	C188	C	0.171636	0.387088	0.873201
	C189	C	0.176725	0.616342	0.113600
	C190	C	0.819795	0.387486	0.111507
	C191	C	0.822518	0.617915	0.875639
	C192	C	0.402000	0.097040	0.591292
	C193	C	0.598043	0.908749	0.590365
	C194	C	0.598963	0.097146	0.392423
	C195	C	0.399058	0.908747	0.391702
	C196	C	0.596434	0.404066	0.085786
	C197	C	0.598716	0.601537	0.898261
	C198	C	0.399697	0.600297	0.085934
	C199	C	0.396037	0.400986	0.897704
	C200	C	0.092527	0.601744	0.394683
	C201	C	0.903972	0.603209	0.593229
	C202	C	0.092620	0.405732	0.593260
	C203	C	0.904357	0.402230	0.393214
	C204	C	0.899588	0.596837	0.092980
	C205	C	0.094865	0.407744	0.091768
	C206	C	0.097013	0.597045	0.894962
	C207	C	0.897197	0.407632	0.891717
	C208	C	0.099407	0.905514	0.586097
	C209	C	0.100833	0.104280	0.398355
	C210	C	0.899824	0.102169	0.586491
	C211	C	0.899767	0.902950	0.399387
	C212	C	0.592010	0.101527	0.893552
	C213	C	0.403913	0.100985	0.091245
	C214	C	0.591826	0.904418	0.090213
	C215	C	0.404172	0.900980	0.890508
	Zn216	Zn	0.499075	0.001690	0.741659
	Zn217	Zn	0.498609	0.002738	0.241380
	Zn218	Zn	0.748452	0.502929	-0.007333
	Zn219	Zn	0.246694	0.501201	-0.007232
	Zn220	Zn	-0.000927	0.752712	0.493608
	Zn221	Zn	-0.000716	0.253631	0.493036
	Zn222	Zn	-0.002717	0.503582	0.743566
	Zn223	Zn	-0.002156	0.502455	0.243199
	Zn224	Zn	0.498070	0.751888	-0.008408
	Zn225	Zn	0.497411	0.252192	-0.008545
	Zn226	Zn	0.748864	0.003012	0.491794
	Zn227	Zn	0.250678	0.004460	0.492067
	N228	N	0.414791	0.964478	0.668234
	N229	N	0.586652	0.039369	0.671982
	N230	N	0.584752	0.965819	0.311948
	N231	N	0.413358	0.040472	0.312843
	N232	N	0.676118	0.417111	0.955247
	N233	N	0.677788	0.589540	0.029458
	N234	N	0.319104	0.586242	0.955381
	N235	N	0.316486	0.413837	0.028776
	N236	N	0.961490	0.680618	0.408515
	N237	N	0.035973	0.681886	0.579225
	N238	N	0.961665	0.324539	0.578852
	N239	N	0.036773	0.326440	0.408839
	N240	N	0.960232	0.419052	0.670046
	N241	N	0.034434	0.591195	0.673973
	N242	N	0.961459	0.588439	0.314714
	N243	N	0.034693	0.415161	0.312396
	N244	N	0.413035	0.678731	0.954406
	N245	N	0.584200	0.681564	0.029285
	N246	N	0.582537	0.324580	0.954446
	N247	N	0.411730	0.323363	0.029013
	N248	N	0.676560	0.965138	0.406143
	N249	N	0.677043	0.040878	0.576702
	N250	N	0.320610	0.966190	0.577669
	N251	N	0.322300	0.041357	0.406597
	N252	N	0.911353	0.465034	0.171629
	N253	N	0.083774	0.539597	0.171715
	N254	N	0.082443	0.465954	0.814309
	N255	N	0.911320	0.540057	0.814422
	N256	N	0.176973	0.919597	0.454257
	N257	N	0.180294	0.091298	0.529289
	N258	N	0.821080	0.088478	0.455009
	N259	N	0.818942	0.916084	0.529473
	N260	N	0.460185	0.178719	0.907148
	N261	N	0.534893	0.182076	0.078418
	N262	N	0.460560	0.824101	0.076412
	N263	N	0.535518	0.823074	0.905492
	N264	N	0.460874	0.916589	0.169727
	N265	N	0.535664	0.088797	0.170367
	N266	N	0.461241	0.086737	0.813238
	N267	N	0.535157	0.914286	0.811173
	N268	N	0.915605	0.179688	0.454730
	N269	N	0.085975	0.182909	0.530135
	N270	N	0.085335	0.824275	0.455661
	N271	N	0.914626	0.825583	0.531147
	N272	N	0.173738	0.464457	0.908015
	N273	N	0.177075	0.538587	0.079544
	N274	N	0.819096	0.465379	0.078456
	N275	N	0.820450	0.539950	0.908237
	O276	O	0.009898	0.098628	-0.020032
	H277	H	0.007367	0.101351	-0.017827
	H278	H	0.014434	0.105874	-0.010470
	O279	O	1.002499	-0.023439	1.056906
	H280	H	1.014807	-0.027363	1.052540
	H281	H	0.999098	-0.020439	1.054325
	O282	O	0.354404	0.572762	0.507369
	H283	H	0.348295	0.573606	0.510563
	H284	H	0.347125	0.574791	0.509171
	O285	O	-0.065588	1.018379	1.027665
	H286	H	-0.057184	1.018931	1.020787
	H287	H	-0.065778	1.020101	1.023685
	O288	O	0.466572	0.607411	0.455423
	H289	H	0.458662	0.603217	0.451572
	H290	H	0.467130	0.605092	0.464729
	O291	O	0.477894	0.425883	1.452433
	H292	H	0.475309	0.417530	1.459686
	H293	H	0.485644	0.419404	1.445867
	O294	O	0.951003	0.996910	1.014291
	H295	H	0.951302	0.991620	1.015802
	H296	H	0.941394	0.998458	1.011706
	O297	O	1.014022	0.031114	1.008210
	H298	H	1.019109	0.025947	1.012263
	H299	H	1.017358	0.030496	1.008935
	O300	O	0.504438	0.502998	0.446899
	H301	H	0.513504	0.512336	0.452012
	H302	H	0.497839	0.514534	0.443279
	O303	O	0.990096	-0.014435	-0.026485
	H304	H	0.991252	-0.010723	-0.011628
	H305	H	0.984157	-0.019094	-0.024269
	O306	O	-0.584303	1.529498	0.481665
	H307	H	-0.572781	1.537442	0.472028
	H308	H	-0.588210	1.525338	0.494181
	O309	O	-0.077318	0.001746	-0.063251
	H310	H	-0.081306	0.002215	-0.054581
	H311	H	-0.076074	0.008259	-0.066652
	O312	O	1.516857	0.537757	1.547810
	H313	H	1.535790	0.541708	1.538087
	H314	H	1.512607	0.551649	1.551757
	O315	O	0.850022	0.853421	0.844430
	H316	H	0.859133	0.844008	0.842131
	H317	H	0.850206	0.847016	0.829704
	O318	O	0.539824	0.535417	0.628215
	H319	H	0.530438	0.528570	0.627864
	H320	H	0.552023	0.540985	0.630712
	O321	O	1.053496	1.056029	0.974427
	H322	H	1.059728	1.050610	0.975461
	H323	H	1.059649	1.049675	0.983524
	O324	O	0.624405	0.596544	0.463436
	H325	H	0.619940	0.591483	0.464665
	H326	H	0.619042	0.584952	0.458400
	O327	O	0.536140	0.493111	0.580744
	H328	H	0.536809	0.490061	0.588596
	H329	H	0.520744	0.485677	0.573478
	O330	O	1.005203	0.065718	1.010834
	H331	H	1.005495	0.070409	1.005696
	H332	H	1.006101	0.067436	1.011094
	O333	O	0.928346	0.895152	0.038695
	H334	H	0.924058	0.897379	0.034793
	H335	H	0.922862	0.885205	0.038020
	O336	O	0.434725	0.488041	0.485737
	H337	H	0.434326	0.490207	0.483987
	H338	H	0.426280	0.499390	0.485276
	O339	O	0.550898	0.393576	0.527322
	H340	H	0.554378	0.401025	0.522108
	H341	H	0.550060	0.387586	0.524774
	O342	O	0.050815	0.983971	0.025943
	H343	H	0.047086	0.986482	0.028378
	H344	H	0.039501	0.986547	0.021146
	O345	O	0.059471	-0.026829	-0.049111
	H346	H	0.049444	-0.021862	-0.047774
	H347	H	0.052043	-0.030609	-0.049595
	O348	O	0.500354	0.441364	0.487198
	H349	H	0.513071	0.449390	0.492175
	H350	H	0.509262	0.449022	0.497767
	O351	O	0.599113	0.391112	0.469669
	H352	H	0.590819	0.386879	0.472306
	H353	H	0.601508	0.381368	0.469971
	O354	O	0.575376	0.570133	0.402197
	H355	H	0.572943	0.569976	0.408639
	H356	H	0.576572	0.560024	0.394987
	O357	O	0.483486	0.526404	0.449190
	H358	H	0.476790	0.533083	0.453955
	H359	H	0.480314	0.520660	0.447313
	O360	O	-0.082407	-0.033965	0.066067
	H361	H	-0.077575	-0.032932	0.069733
	H362	H	-0.084076	-0.030017	0.064985
	O363	O	0.438113	0.454012	0.485410
	H364	H	0.438732	0.459765	0.486856
	H365	H	0.438534	0.467262	0.474251
	O366	O	-0.007907	-0.001114	0.884638
	H367	H	-0.005674	0.006468	0.886893
	H368	H	-0.000494	0.002814	0.889790
	O369	O	0.509991	0.460615	0.366338
	H370	H	0.506039	0.460340	0.374927
	H371	H	0.511601	0.444271	0.367869
