data_Molecule from HDF5

_cell_length_a		16.512984
_cell_length_b		16.498334
_cell_length_c		16.667997
_cell_angle_alpha	89.964739
_cell_angle_beta	89.999802
_cell_angle_gamma	90.001065
_symmetry_space_group_name_H-M	'P 1'
_symmetry_Int_Tables_number		1

loop_
	_symmetry_equiv_pos_as_xyz
	x,y,z

loop_
	_atom_site_label
	_atom_site_type_symbol
	_atom_site_fract_x
	_atom_site_fract_y
	_atom_site_fract_z
	H0	H	0.392781	0.848882	0.723177
	H1	H	0.610112	0.159888	0.724479
	H2	H	0.608043	0.847345	0.275585
	H3	H	0.394874	0.159275	0.278222
	H4	H	0.721524	0.397309	0.843384
	H5	H	0.722356	0.612131	0.153846
	H6	H	0.277948	0.608063	0.842901
	H7	H	0.277681	0.399839	0.154333
	H8	H	0.841034	0.728731	0.392339
	H9	H	0.154269	0.723584	0.603061
	H10	H	0.841496	0.280810	0.606203
	H11	H	0.157438	0.290161	0.401821
	H12	H	0.840584	0.395692	0.723206
	H13	H	0.152214	0.610887	0.722680
	H14	H	0.843187	0.617156	0.272387
	H15	H	0.155236	0.403635	0.282665
	H16	H	0.393888	0.725416	0.843117
	H17	H	0.605625	0.727674	0.154441
	H18	H	0.604447	0.281651	0.843690
	H19	H	0.395483	0.284801	0.156123
	H20	H	0.721665	0.846391	0.393975
	H21	H	0.722586	0.160404	0.606121
	H22	H	0.278964	0.847789	0.605137
	H23	H	0.279016	0.159821	0.395018
	H24	H	0.888400	0.350782	0.224679
	H25	H	0.105207	0.660841	0.221214
	H26	H	0.104280	0.348132	0.777467
	H27	H	0.885007	0.658882	0.771561
	H28	H	0.221598	0.895962	0.346355
	H29	H	0.222619	0.109864	0.655423
	H30	H	0.775440	0.111741	0.345539
	H31	H	0.771954	0.894364	0.654597
	H32	H	0.341229	0.224011	0.896605
	H33	H	0.655881	0.225677	0.105020
	H34	H	0.341709	0.784760	0.100945
	H35	H	0.655565	0.778884	0.889733
	H36	H	0.343456	0.897961	0.219993
	H37	H	0.655309	0.110791	0.222501
	H38	H	0.343350	0.111370	0.777142
	H39	H	0.655894	0.896638	0.775573
	H40	H	0.891885	0.228431	0.346151
	H41	H	0.105808	0.226933	0.655883
	H42	H	0.104754	0.780778	0.346282
	H43	H	0.888211	0.778652	0.654982
	H44	H	0.219641	0.347262	0.893634
	H45	H	0.217635	0.661650	0.101255
	H46	H	0.775911	0.348607	0.105755
	H47	H	0.771129	0.659560	0.888671
	H48	H	0.410454	0.115816	0.585315
	H49	H	0.586602	0.894688	0.581721
	H50	H	0.588942	0.115241	0.411440
	H51	H	0.414485	0.889562	0.403840
	H52	H	0.585420	0.409277	0.112031
	H53	H	0.578988	0.591457	0.892099
	H54	H	0.411284	0.597738	0.111283
	H55	H	0.410389	0.420672	0.889854
	H56	H	0.106958	0.593544	0.415391
	H57	H	0.883164	0.593188	0.589786
	H58	H	0.111265	0.415821	0.594618
	H59	H	0.885472	0.420854	0.411152
	H60	H	0.109883	0.413103	0.588454
	H61	H	0.886600	0.591639	0.581378
	H62	H	0.107829	0.588051	0.408926
	H63	H	0.882912	0.415083	0.408056
	H64	H	0.404598	0.595289	0.112662
	H65	H	0.587950	0.595525	0.886880
	H66	H	0.593790	0.417218	0.112032
	H67	H	0.414579	0.408538	0.886952
	H68	H	0.585991	0.115728	0.408036
	H69	H	0.588020	0.890735	0.591621
	H70	H	0.410646	0.118112	0.590585
	H71	H	0.413273	0.893138	0.415785
	H72	H	0.909878	0.619026	0.090816
	H73	H	0.084846	0.392023	0.089850
	H74	H	0.089271	0.619117	0.902455
	H75	H	0.909894	0.394101	0.912537
	H76	H	0.088061	0.915687	0.610621
	H77	H	0.088085	0.090783	0.390821
	H78	H	0.904113	0.089092	0.612547
	H79	H	0.913295	0.913766	0.390480
	H80	H	0.612325	0.091079	0.906778
	H81	H	0.384758	0.093676	0.095196
	H82	H	0.610359	0.915705	0.085123
	H83	H	0.387999	0.911370	0.913956
	H84	H	0.610920	0.919358	0.086884
	H85	H	0.385938	0.098014	0.087507
	H86	H	0.612135	0.095858	0.913664
	H87	H	0.390887	0.921222	0.911158
	H88	H	0.915833	0.086656	0.607644
	H89	H	0.086634	0.100337	0.388628
	H90	H	0.087652	0.916407	0.611399
	H91	H	0.907759	0.917486	0.389154
	H92	H	0.078531	0.613865	0.912128
	H93	H	0.089810	0.390734	0.089827
	H94	H	0.917866	0.613576	0.086268
	H95	H	0.911134	0.393949	0.910025
	H96	H	0.415451	0.115825	0.588189
	H97	H	0.578582	0.895297	0.588845
	H98	H	0.584733	0.113427	0.411657
	H99	H	0.403846	0.887499	0.410074
	H100	H	0.584169	0.419529	0.106649
	H101	H	0.588146	0.585065	0.890050
	H102	H	0.410014	0.591069	0.109204
	H103	H	0.402173	0.412219	0.883880
	H104	H	0.111261	0.595378	0.408372
	H105	H	0.886689	0.585240	0.588197
	H106	H	0.107695	0.420161	0.589568
	H107	H	0.885236	0.415053	0.414641
	H108	H	0.908625	0.615835	0.080713
	H109	H	0.086884	0.390150	0.094182
	H110	H	0.092333	0.616625	0.916824
	H111	H	0.912545	0.394647	0.912367
	H112	H	0.086788	0.916068	0.612173
	H113	H	0.094511	0.096098	0.385998
	H114	H	0.913191	0.098294	0.611915
	H115	H	0.912763	0.920258	0.392585
	H116	H	0.608551	0.088019	0.914066
	H117	H	0.388356	0.089064	0.087925
	H118	H	0.612480	0.916048	0.088147
	H119	H	0.385746	0.914937	0.904211
	C120	C	0.378839	0.012992	0.620855
	C121	C	0.619577	0.996081	0.620663
	C122	C	0.620403	0.011573	0.377759
	C123	C	0.378399	0.994190	0.378595
	C124	C	0.620770	0.382327	0.007543
	C125	C	0.619331	0.625264	0.991281
	C126	C	0.376951	0.626154	0.007533
	C127	C	0.377720	0.382730	0.990654
	C128	C	0.005866	0.626827	0.377386
	C129	C	0.988419	0.624184	0.620294
	C130	C	0.006162	0.382444	0.622830
	C131	C	0.989124	0.385452	0.380281
	C132	C	0.877354	0.513636	0.120175
	C133	C	0.119528	0.495225	0.121601
	C134	C	0.118591	0.512483	0.878374
	C135	C	0.876134	0.496705	0.877537
	C136	C	0.119916	0.882615	0.509186
	C137	C	0.121781	0.127029	0.491798
	C138	C	0.877508	0.125281	0.508706
	C139	C	0.876522	0.882461	0.492492
	C140	C	0.507606	0.124935	0.878796
	C141	C	0.490344	0.125510	0.122022
	C142	C	0.507749	0.883911	0.118931
	C143	C	0.491284	0.882225	0.876502
	C144	C	0.375159	0.895882	0.682205
	C145	C	0.626120	0.113096	0.683035
	C146	C	0.624869	0.893997	0.316626
	C147	C	0.376349	0.112294	0.318654
	C148	C	0.681636	0.379268	0.890444
	C149	C	0.681310	0.629405	0.107498
	C150	C	0.317662	0.627045	0.889926
	C151	C	0.317762	0.381142	0.107943
	C152	C	0.888424	0.688712	0.374214
	C153	C	0.106703	0.684338	0.622364
	C154	C	0.888467	0.320985	0.624829
	C155	C	0.109130	0.328608	0.381530
	C156	C	0.888108	0.378231	0.682975
	C157	C	0.105673	0.628338	0.681630
	C158	C	0.889317	0.633038	0.314443
	C159	C	0.108074	0.385054	0.322274
	C160	C	0.375242	0.685584	0.890157
	C161	C	0.623474	0.687342	0.107587
	C162	C	0.623276	0.321583	0.890553
	C163	C	0.376333	0.323902	0.108588
	C164	C	0.681758	0.893760	0.375243
	C165	C	0.681864	0.113609	0.623759
	C166	C	0.318596	0.895074	0.623390
	C167	C	0.318737	0.112565	0.376556
	C168	C	0.871693	0.397250	0.183285
	C169	C	0.122548	0.613784	0.180632
	C170	C	0.121683	0.394835	0.817909
	C171	C	0.869282	0.612554	0.813738
	C172	C	0.180884	0.878656	0.392816
	C173	C	0.182335	0.128838	0.608604
	C174	C	0.815952	0.129451	0.392217
	C175	C	0.813154	0.877314	0.608292
	C176	C	0.389088	0.184802	0.876966
	C177	C	0.608554	0.185777	0.123714
	C178	C	0.389275	0.823970	0.120370
	C179	C	0.608672	0.820201	0.872850
	C180	C	0.390133	0.880277	0.179365
	C181	C	0.608092	0.128626	0.182288
	C182	C	0.389947	0.128751	0.817634
	C183	C	0.608830	0.878567	0.815578
	C184	C	0.873998	0.187448	0.392576
	C185	C	0.123975	0.186860	0.608951
	C186	C	0.122487	0.821362	0.392733
	C187	C	0.871172	0.819589	0.608327
	C188	C	0.179286	0.394606	0.875714
	C189	C	0.178627	0.614106	0.121024
	C190	C	0.815987	0.396041	0.123828
	C191	C	0.812405	0.612917	0.872101
	C192	C	0.404783	0.095189	0.595437
	C193	C	0.592257	0.914804	0.594813
	C194	C	0.594193	0.093560	0.403372
	C195	C	0.403449	0.911585	0.402991
	C196	C	0.595220	0.408056	0.089044
	C197	C	0.592746	0.598383	0.910584
	C198	C	0.401532	0.601693	0.089720
	C199	C	0.402173	0.406936	0.908277
	C200	C	0.087429	0.599988	0.403440
	C201	C	0.906837	0.597610	0.594159
	C202	C	0.088250	0.408682	0.598086
	C203	C	0.906120	0.409788	0.404408
	C204	C	0.904422	0.595030	0.093496
	C205	C	0.094358	0.412498	0.098068
	C206	C	0.093615	0.595095	0.903315
	C207	C	0.903474	0.415336	0.904230
	C208	C	0.094602	0.908529	0.590293
	C209	C	0.096751	0.102579	0.409831
	C210	C	0.903368	0.098833	0.589564
	C211	C	0.903403	0.909569	0.411889
	C212	C	0.589644	0.099045	0.904266
	C213	C	0.407844	0.100586	0.097171
	C214	C	0.589904	0.909561	0.093774
	C215	C	0.409426	0.908357	0.902442
	Zn216	Zn	0.500223	0.005007	0.749490
	Zn217	Zn	0.499744	0.002652	0.249603
	Zn218	Zn	0.748933	0.504926	-0.000738
	Zn219	Zn	0.248058	0.503844	-0.000859
	Zn220	Zn	-0.002521	0.753627	0.500250
	Zn221	Zn	-0.001565	0.255259	0.500668
	Zn222	Zn	-0.003126	0.504211	0.749797
	Zn223	Zn	-0.002812	0.505367	0.249607
	Zn224	Zn	0.499360	0.755240	-0.001063
	Zn225	Zn	0.498778	0.253461	-0.000368
	Zn226	Zn	0.747750	0.003845	0.499948
	Zn227	Zn	0.249855	0.003539	0.499802
	N228	N	0.411854	0.970450	0.680930
	N229	N	0.588216	0.038967	0.681445
	N230	N	0.587760	0.968576	0.317827
	N231	N	0.412768	0.037722	0.319693
	N232	N	0.680497	0.416218	0.964460
	N233	N	0.679005	0.591662	0.034067
	N234	N	0.318410	0.590799	0.964112
	N235	N	0.318340	0.416849	0.033532
	N236	N	0.961903	0.684993	0.412574
	N237	N	0.032621	0.681918	0.584990
	N238	N	0.962999	0.323287	0.588406
	N239	N	0.033848	0.328356	0.416710
	N240	N	0.962369	0.415846	0.681797
	N241	N	0.030873	0.592016	0.680714
	N242	N	0.963465	0.595356	0.316179
	N243	N	0.032259	0.419246	0.321132
	N244	N	0.411473	0.685058	0.964292
	N245	N	0.585869	0.685101	0.034099
	N246	N	0.586463	0.323211	0.964365
	N247	N	0.412819	0.324692	0.034489
	N248	N	0.679089	0.967832	0.412528
	N249	N	0.678002	0.039954	0.585678
	N250	N	0.320818	0.969150	0.585970
	N251	N	0.319722	0.037945	0.412842
	N252	N	0.909162	0.471568	0.181240
	N253	N	0.086493	0.538778	0.181262
	N254	N	0.084781	0.469292	0.819342
	N255	N	0.908226	0.539167	0.817048
	N256	N	0.179364	0.916258	0.466233
	N257	N	0.180918	0.092176	0.534592
	N258	N	0.818193	0.091196	0.465359
	N259	N	0.816194	0.915659	0.535064
	N260	N	0.463297	0.182653	0.914084
	N261	N	0.534070	0.184190	0.086951
	N262	N	0.463480	0.826185	0.083377
	N263	N	0.534360	0.822273	0.909917
	N264	N	0.464746	0.916895	0.178541
	N265	N	0.533649	0.091893	0.181329
	N266	N	0.464813	0.092242	0.818616
	N267	N	0.534635	0.916109	0.817469
	N268	N	0.911479	0.185179	0.466068
	N269	N	0.086958	0.185823	0.535243
	N270	N	0.085011	0.823749	0.466040
	N271	N	0.909782	0.822677	0.535403
	N272	N	0.177642	0.468933	0.912847
	N273	N	0.177072	0.539266	0.085113
	N274	N	0.819224	0.469558	0.085431
	N275	N	0.816686	0.539759	0.911221
	O276	O	1.097293	0.989468	-0.118508
	H277	H	1.096984	0.976970	-0.139218
	H278	H	1.088496	0.991816	-0.120943
	O279	O	0.170639	-0.169604	1.031328
	H280	H	0.187643	-0.185034	1.033577
	H281	H	0.177471	-0.169223	1.008614
	O282	O	0.712376	0.716625	0.525739
	H283	H	0.704813	0.711625	0.502985
	H284	H	0.732239	0.738261	0.518330
	O285	O	0.175226	0.181216	0.840592
	H286	H	0.191834	0.175413	0.841846
	H287	H	0.164149	0.170127	0.860570
	O288	O	1.056245	-0.050829	1.056284
	H289	H	1.055645	-0.044952	1.068508
	H290	H	1.060203	-0.034444	1.065935
	O291	O	0.362221	0.399355	0.698962
	H292	H	0.361023	0.421898	0.690851
	H293	H	0.367375	0.406684	0.703604
	O294	O	-0.123013	0.027307	0.225442
	H295	H	-0.122684	0.020258	0.225657
	H296	H	-0.129594	0.025049	0.228402
	O297	O	0.747358	0.257621	0.251851
	H298	H	0.753456	0.244570	0.229750
	H299	H	0.723090	0.258715	0.242171
	O300	O	0.206438	0.009664	0.001073
	H301	H	0.193186	0.001424	0.000828
	H302	H	0.226928	0.005954	-0.004437
	O303	O	-0.028419	0.219136	-0.217492
	H304	H	-0.014670	0.215025	-0.240600
	H305	H	-0.011512	0.213904	-0.233570
	O306	O	0.795641	-0.085236	0.193422
	H307	H	0.817052	-0.073146	0.194933
	H308	H	0.782974	-0.082957	0.209455
	O309	O	0.333879	0.698810	0.305548
	H310	H	0.379097	0.703475	0.297307
	H311	H	0.321017	0.715823	0.316910
	O312	O	0.333508	0.428399	0.516271
	H313	H	0.339520	0.437294	0.532330
	H314	H	0.319918	0.415413	0.530683
	O315	O	0.567973	0.342558	0.595748
	H316	H	0.563699	0.331218	0.581125
	H317	H	0.570167	0.340075	0.582454
	O318	O	1.194485	0.807787	0.148419
	H319	H	1.208756	0.813786	0.152762
	H320	H	1.195751	0.811829	0.127784
	O321	O	0.297288	0.644091	0.660600
	H322	H	0.279158	0.638285	0.649801
	H323	H	0.308196	0.652413	0.658634
	O324	O	0.978578	-0.084017	0.968233
	H325	H	0.988455	-0.079618	0.972706
	H326	H	0.957514	-0.084632	0.966929
	O327	O	0.861002	0.791140	1.097867
	H328	H	0.853727	0.763203	1.094394
	H329	H	0.878008	0.793609	1.133798
	O330	O	0.287933	0.485694	0.708373
	H331	H	0.305334	0.484905	0.706138
	H332	H	0.278512	0.474977	0.730629
	O333	O	0.288364	0.713160	0.471188
	H334	H	0.297483	0.702732	0.462744
	H335	H	0.270081	0.735603	0.475533
	O336	O	0.417782	0.565067	0.652097
	H337	H	0.414964	0.564363	0.651709
	H338	H	0.426638	0.557463	0.644163
	O339	O	0.683606	0.688798	0.685297
	H340	H	0.692960	0.658944	0.667188
	H341	H	0.692913	0.674793	0.657368
	O342	O	0.094958	1.069338	0.089272
	H343	H	0.097626	1.062001	0.101204
	H344	H	0.076984	1.068609	0.090336
	O345	O	0.203342	0.179930	0.208953
	H346	H	0.211257	0.196214	0.208287
	H347	H	0.174827	0.188130	0.202252
	O348	O	0.585573	0.601147	0.309844
	H349	H	0.613301	0.580305	0.310024
	H350	H	0.558744	0.576838	0.314858
	O351	O	0.210832	0.219762	1.031385
	H352	H	0.214412	0.236237	1.042817
	H353	H	0.209153	0.222413	1.033238
	O354	O	0.944350	-0.057498	0.772143
	H355	H	0.931931	-0.067544	0.769070
	H356	H	0.942117	-0.075244	0.785465
	O357	O	0.454748	0.521046	0.416990
	H358	H	0.453604	0.528147	0.414837
	H359	H	0.447088	0.521388	0.400917
	O360	O	0.327881	0.572779	0.282701
	H361	H	0.311997	0.582212	0.273481
	H362	H	0.338261	0.596520	0.281343
	O363	O	0.569518	0.328985	0.380150
	H364	H	0.547781	0.331751	0.365045
	H365	H	0.559380	0.338918	0.393718
	O366	O	0.809174	0.191073	0.812350
	H367	H	0.842685	0.182739	0.801069
	H368	H	0.820967	0.156611	0.802216
	O369	O	-0.083917	-0.093248	0.963806
	H370	H	-0.086369	-0.103823	0.961147
	H371	H	-0.088810	-0.078641	0.964768
	O372	O	-0.099131	0.924053	0.919016
	H373	H	-0.094996	0.925585	0.937199
	H374	H	-0.119626	0.921355	0.935053
	O375	O	0.980679	-0.170326	0.020901
	H376	H	0.967515	-0.177985	0.015846
	H377	H	0.984576	-0.156768	0.006455
	O378	O	0.501299	0.349851	0.290583
	H379	H	0.493015	0.351225	0.289260
	H380	H	0.490899	0.345512	0.292184
	O381	O	-0.103798	1.174144	0.146612
	H382	H	-0.096973	1.157951	0.142442
	H383	H	-0.086411	1.174169	0.132750
	O384	O	0.706014	0.523603	0.696839
	H385	H	0.705579	0.507671	0.715972
	H386	H	0.692162	0.508266	0.707436
	O387	O	0.212589	0.978387	0.782568
	H388	H	0.223879	0.971865	0.801582
	H389	H	0.239468	0.970729	0.771623
	O390	O	0.193439	0.851691	0.803275
	H391	H	0.194453	0.853434	0.802533
	H392	H	0.193074	0.836014	0.796884
	O393	O	1.058807	0.218893	0.219522
	H394	H	1.042022	0.223488	0.215489
	H395	H	1.040457	0.237080	0.230470
	O396	O	0.435336	0.456505	0.587650
	H397	H	0.431970	0.459604	0.598505
	H398	H	0.441212	0.477648	0.596054
	O399	O	0.524857	0.721204	0.720684
	H400	H	0.533957	0.755227	0.755146
	H401	H	0.571101	0.713076	0.705757
	O402	O	0.793708	0.029005	0.793898
	H403	H	0.780792	0.021055	0.789033
	H404	H	0.791335	0.008010	0.805792
	O405	O	0.679697	0.551315	0.482827
	H406	H	0.680414	0.562041	0.486726
	H407	H	0.672668	0.534759	0.500238
	O408	O	0.962334	1.077737	1.057995
	H409	H	0.942762	1.096927	1.038075
	H410	H	0.965761	1.069547	1.043789
	O411	O	0.796710	0.802952	0.103019
	H412	H	0.821124	0.793336	0.121295
	H413	H	0.787072	0.826447	0.124672
	O414	O	-0.058257	0.018291	0.105259
	H415	H	-0.058266	0.027174	0.096364
	H416	H	-0.037201	0.024499	0.113881
	O417	O	0.713167	0.487147	0.284732
	H418	H	0.732225	0.476958	0.283138
	H419	H	0.730120	0.478055	0.294996
	O420	O	1.101718	0.215472	0.895823
	H421	H	1.082797	0.199372	0.894617
	H422	H	1.099741	0.205912	0.894361
	O423	O	0.814522	1.055608	0.015831
	H424	H	0.814669	1.059641	0.027734
	H425	H	0.805718	1.060234	0.024492
	O426	O	0.708931	0.291744	0.479788
	H427	H	0.723352	0.286274	0.456665
	H428	H	0.708545	0.288141	0.470790
	O429	O	0.491620	0.484520	0.603293
	H430	H	0.490588	0.494857	0.605748
	H431	H	0.480775	0.490457	0.596551
	O432	O	1.024944	-0.216849	0.777277
	H433	H	1.013109	-0.244449	0.770873
	H434	H	1.009365	-0.228245	0.789258
	O435	O	0.610537	0.449717	0.401387
	H436	H	0.598959	0.447640	0.400483
	H437	H	0.604331	0.452676	0.412293
	O438	O	0.306057	0.379100	0.439408
	H439	H	0.311681	0.388460	0.460499
	H440	H	0.292200	0.384454	0.441857
	O441	O	0.660481	0.459001	0.517355
	H442	H	0.655221	0.441017	0.515083
	H443	H	0.672877	0.453158	0.523596
	O444	O	0.493756	0.496551	0.286709
	H445	H	0.476731	0.491639	0.284857
	H446	H	0.490915	0.477334	0.296096
	O447	O	0.335501	0.331794	0.336362
	H448	H	0.336424	0.359057	0.339483
	H449	H	0.334076	0.329305	0.350481
	O450	O	1.217366	0.028280	0.223406
	H451	H	1.241854	0.048154	0.240309
	H452	H	1.219469	0.059944	0.216999
	O453	O	0.455228	0.674674	0.602402
	H454	H	0.470691	0.665794	0.603452
	H455	H	0.457037	0.685302	0.615897
	O456	O	-0.225041	1.224482	0.970523
	H457	H	-0.233281	1.232511	0.937519
	H458	H	-0.242178	1.243432	0.948039
	O459	O	0.528088	0.665406	0.487679
	H460	H	0.528518	0.653133	0.485748
	H461	H	0.520976	0.664904	0.479276
	O462	O	0.974766	0.865812	0.216917
	H463	H	0.994206	0.855563	0.226649
	H464	H	0.983862	0.851211	0.221247
	O465	O	0.376886	0.337829	0.594655
	H466	H	0.376465	0.337547	0.600893
	H467	H	0.343631	0.321489	0.598463
	O468	O	0.155154	0.948388	0.119145
	H469	H	0.153300	0.970312	0.130763
	H470	H	0.147141	0.951281	0.098874
	O471	O	0.493427	0.718486	0.355270
	H472	H	0.488154	0.706464	0.339792
	H473	H	0.495646	0.717823	0.362122
	O474	O	1.056382	1.068090	-0.230329
	H475	H	1.085485	1.045585	-0.232271
	H476	H	1.043148	1.034740	-0.225948
	O477	O	0.467191	0.290979	0.716414
	H478	H	0.458925	0.276498	0.723823
	H479	H	0.482030	0.277846	0.708775
