data_Molecule from HDF5

_cell_length_a		16.223537
_cell_length_b		16.401756
_cell_length_c		16.241412
_cell_angle_alpha	89.816012
_cell_angle_beta	89.970701
_cell_angle_gamma	90.182441
_symmetry_space_group_name_H-M	'P 1'
_symmetry_Int_Tables_number		1

loop_
	_symmetry_equiv_pos_as_xyz
	x,y,z

loop_
	_atom_site_label
	_atom_site_type_symbol
	_atom_site_fract_x
	_atom_site_fract_y
	_atom_site_fract_z
	H0	H	0.405412	0.840397	0.709879
	H1	H	0.606602	0.164478	0.707119
	H2	H	0.604802	0.839396	0.275900
	H3	H	0.406731	0.163908	0.274650
	H4	H	0.719488	0.406780	0.828169
	H5	H	0.719816	0.599706	0.157019
	H6	H	0.290854	0.601418	0.829818
	H7	H	0.293758	0.404038	0.157644
	H8	H	0.841981	0.715133	0.393372
	H9	H	0.168531	0.718160	0.594001
	H10	H	0.843089	0.283005	0.594852
	H11	H	0.169567	0.285349	0.393301
	H12	H	0.841757	0.402014	0.707574
	H13	H	0.170474	0.599216	0.706544
	H14	H	0.841526	0.598610	0.279933
	H15	H	0.170671	0.403537	0.279854
	H16	H	0.406074	0.717982	0.829463
	H17	H	0.606272	0.717641	0.155451
	H18	H	0.606620	0.288422	0.828836
	H19	H	0.404296	0.283294	0.154647
	H20	H	0.720021	0.838019	0.394061
	H21	H	0.722257	0.163113	0.589927
	H22	H	0.290315	0.839491	0.591415
	H23	H	0.289047	0.163602	0.390393
	H24	H	0.906824	0.338479	0.209328
	H25	H	0.105336	0.664242	0.208727
	H26	H	0.106250	0.338477	0.778177
	H27	H	0.907009	0.662866	0.777160
	H28	H	0.220050	0.902726	0.328061
	H29	H	0.220376	0.098338	0.655853
	H30	H	0.793369	0.097602	0.327968
	H31	H	0.790271	0.900907	0.656437
	H32	H	0.343276	0.219273	0.889882
	H33	H	0.669632	0.218191	0.091713
	H34	H	0.343454	0.784329	0.093527
	H35	H	0.669887	0.788518	0.891995
	H36	H	0.341899	0.902536	0.206084
	H37	H	0.670407	0.100547	0.205667
	H38	H	0.341949	0.100988	0.777841
	H39	H	0.670247	0.906123	0.779113
	H40	H	0.905216	0.217641	0.330189
	H41	H	0.107503	0.215496	0.656138
	H42	H	0.105241	0.785544	0.329495
	H43	H	0.903699	0.783727	0.655982
	H44	H	0.222506	0.339158	0.894169
	H45	H	0.223031	0.663828	0.093113
	H46	H	0.789530	0.339194	0.094184
	H47	H	0.792582	0.664269	0.895507
	H48	H	0.413723	0.117112	0.584152
	H49	H	0.597173	0.888096	0.580122
	H50	H	0.604204	0.116606	0.403807
	H51	H	0.407193	0.885396	0.401280
	H52	H	0.599247	0.411233	0.108383
	H53	H	0.602318	0.603160	0.872641
	H54	H	0.411964	0.587090	0.107340
	H55	H	0.420182	0.414647	0.879395
	H56	H	0.123230	0.595049	0.399218
	H57	H	0.892458	0.588492	0.579025
	H58	H	0.123810	0.403454	0.583183
	H59	H	0.887356	0.402230	0.400266
	H60	H	0.120358	0.411109	0.582664
	H61	H	0.888037	0.589074	0.593140
	H62	H	0.122673	0.596266	0.402948
	H63	H	0.891477	0.408694	0.407974
	H64	H	0.422876	0.596313	0.108014
	H65	H	0.604863	0.589941	0.875232
	H66	H	0.593105	0.410061	0.107183
	H67	H	0.416106	0.403479	0.874057
	H68	H	0.601004	0.118140	0.393194
	H69	H	0.602523	0.884163	0.588701
	H70	H	0.411509	0.117176	0.584867
	H71	H	0.414899	0.885687	0.392914
	H72	H	0.912902	0.614294	0.078862
	H73	H	0.105605	0.384732	0.087809
	H74	H	0.090508	0.614754	0.895168
	H75	H	0.914389	0.387946	0.906334
	H76	H	0.096450	0.909010	0.607968
	H77	H	0.100959	0.081924	0.378665
	H78	H	0.911629	0.092480	0.610457
	H79	H	0.914369	0.909804	0.377354
	H80	H	0.619462	0.092456	0.907675
	H81	H	0.389968	0.101735	0.073936
	H82	H	0.626042	0.900740	0.087294
	H83	H	0.386381	0.901558	0.899281
	H84	H	0.620525	0.910242	0.075090
	H85	H	0.394877	0.082818	0.078656
	H86	H	0.624226	0.092426	0.890864
	H87	H	0.391904	0.910858	0.908650
	H88	H	0.916306	0.088991	0.607747
	H89	H	0.084888	0.097677	0.378539
	H90	H	0.097663	0.906730	0.609557
	H91	H	0.915197	0.905450	0.376284
	H92	H	0.097494	0.612884	0.909638
	H93	H	0.095715	0.385624	0.092981
	H94	H	0.905344	0.620128	0.092291
	H95	H	0.906427	0.383975	0.901665
	H96	H	0.413150	0.117826	0.585617
	H97	H	0.591961	0.886582	0.590192
	H98	H	0.593481	0.114359	0.400383
	H99	H	0.417606	0.889207	0.403803
	H100	H	0.597480	0.405394	0.109802
	H101	H	0.592339	0.595845	0.878847
	H102	H	0.410124	0.599702	0.112741
	H103	H	0.408023	0.413358	0.875897
	H104	H	0.121703	0.591971	0.402273
	H105	H	0.887314	0.600322	0.584171
	H106	H	0.123643	0.408560	0.590637
	H107	H	0.890154	0.411929	0.397424
	H108	H	0.921399	0.616329	0.092034
	H109	H	0.096528	0.388641	0.082087
	H110	H	0.105716	0.619121	0.897504
	H111	H	0.915465	0.384821	0.896037
	H112	H	0.098651	0.908404	0.609101
	H113	H	0.105074	0.102324	0.371180
	H114	H	0.916694	0.095417	0.609540
	H115	H	0.910922	0.907028	0.374766
	H116	H	0.625615	0.106459	0.899789
	H117	H	0.385775	0.095029	0.093072
	H118	H	0.622799	0.916794	0.089950
	H119	H	0.389909	0.915046	0.895413
	C120	C	0.383813	0.010468	0.614129
	C121	C	0.627342	0.993347	0.614621
	C122	C	0.628003	0.009261	0.370136
	C123	C	0.383592	0.993626	0.369404
	C124	C	0.627006	0.381019	0.000679
	C125	C	0.628230	0.624190	0.983814
	C126	C	0.385513	0.623189	0.001241
	C127	C	0.384703	0.380308	0.984005
	C128	C	0.013873	0.622450	0.372424
	C129	C	0.997390	0.622065	0.614589
	C130	C	0.014441	0.378721	0.615209
	C131	C	0.997861	0.379383	0.372378
	C132	C	0.884440	0.509390	0.116184
	C133	C	0.128117	0.493508	0.116042
	C134	C	0.127708	0.508812	0.871847
	C135	C	0.884035	0.492803	0.872050
	C136	C	0.127052	0.879255	0.500813
	C137	C	0.126923	0.122461	0.484068
	C138	C	0.885267	0.121398	0.501212
	C139	C	0.883932	0.878549	0.484549
	C140	C	0.514887	0.125235	0.870008
	C141	C	0.498118	0.122832	0.111749
	C142	C	0.514906	0.879882	0.113762
	C143	C	0.497833	0.881341	0.871869
	C144	C	0.385550	0.888665	0.670879
	C145	C	0.626188	0.115675	0.669251
	C146	C	0.625275	0.887546	0.314361
	C147	C	0.385559	0.115382	0.312860
	C148	C	0.682652	0.384597	0.877419
	C149	C	0.682542	0.620715	0.107689
	C150	C	0.329119	0.621685	0.878439
	C151	C	0.330011	0.382616	0.107954
	C152	C	0.890885	0.677408	0.373763
	C153	C	0.120204	0.678952	0.613213
	C154	C	0.891645	0.321921	0.614219
	C155	C	0.121017	0.323915	0.373427
	C156	C	0.891000	0.381132	0.670195
	C157	C	0.121023	0.620103	0.669572
	C158	C	0.890582	0.619322	0.317476
	C159	C	0.121318	0.382578	0.317107
	C160	C	0.386344	0.679472	0.878305
	C161	C	0.626481	0.679570	0.106807
	C162	C	0.626239	0.326155	0.877537
	C163	C	0.384863	0.322563	0.106294
	C164	C	0.682601	0.887054	0.372840
	C165	C	0.683942	0.115107	0.611369
	C166	C	0.328406	0.888028	0.612123
	C167	C	0.327568	0.115364	0.370679
	C168	C	0.886429	0.387169	0.171506
	C169	C	0.126048	0.615615	0.171208
	C170	C	0.125949	0.386811	0.816449
	C171	C	0.886709	0.614718	0.815894
	C172	C	0.182517	0.881935	0.377449
	C173	C	0.182825	0.119385	0.607158
	C174	C	0.829930	0.118997	0.377521
	C175	C	0.828343	0.881026	0.607736
	C176	C	0.391850	0.180619	0.870779
	C177	C	0.620861	0.179448	0.111255
	C178	C	0.392167	0.822875	0.113123
	C179	C	0.620933	0.826588	0.872689
	C180	C	0.391299	0.881945	0.168890
	C181	C	0.621393	0.120621	0.167673
	C182	C	0.391135	0.121646	0.815145
	C183	C	0.621164	0.885273	0.816581
	C184	C	0.885425	0.178623	0.378601
	C185	C	0.126834	0.177679	0.607164
	C186	C	0.125041	0.823935	0.377952
	C187	C	0.884864	0.822708	0.607386
	C188	C	0.183949	0.387209	0.874067
	C189	C	0.184422	0.615483	0.113726
	C190	C	0.827965	0.387481	0.114070
	C191	C	0.830063	0.615564	0.874841
	C192	C	0.406136	0.095366	0.591441
	C193	C	0.604126	0.908274	0.592841
	C194	C	0.605984	0.094434	0.392570
	C195	C	0.406472	0.908847	0.392632
	C196	C	0.603618	0.402588	0.086322
	C197	C	0.606326	0.602685	0.897780
	C198	C	0.408261	0.600800	0.087110
	C199	C	0.407877	0.403715	0.898581
	C200	C	0.100199	0.600848	0.394817
	C201	C	0.911629	0.599459	0.591976
	C202	C	0.100431	0.401165	0.592427
	C203	C	0.911811	0.401247	0.395319
	C204	C	0.906654	0.594886	0.094140
	C205	C	0.105838	0.408415	0.094024
	C206	C	0.104853	0.593566	0.894263
	C207	C	0.905765	0.407489	0.894694
	C208	C	0.104343	0.901601	0.586553
	C209	C	0.103886	0.100379	0.398438
	C210	C	0.908090	0.098809	0.586994
	C211	C	0.906741	0.900899	0.398488
	C212	C	0.600693	0.103546	0.892546
	C213	C	0.412393	0.099832	0.088647
	C214	C	0.600865	0.902719	0.090864
	C215	C	0.411759	0.902718	0.894621
	Zn216	Zn	0.505852	0.002942	0.743669
	Zn217	Zn	0.506134	0.001636	0.241004
	Zn218	Zn	0.755684	0.501598	-0.006279
	Zn219	Zn	0.256834	0.501847	-0.006531
	Zn220	Zn	0.005403	0.750808	0.492741
	Zn221	Zn	0.006428	0.250269	0.493421
	Zn222	Zn	0.006230	0.500416	0.742931
	Zn223	Zn	0.006068	0.501606	0.244908
	Zn224	Zn	0.506494	0.752266	-0.007780
	Zn225	Zn	0.506055	0.252290	-0.008285
	Zn226	Zn	0.756471	0.000417	0.492814
	Zn227	Zn	0.255176	0.001770	0.491754
	N228	N	0.419003	0.965764	0.672648
	N229	N	0.591612	0.038969	0.671230
	N230	N	0.592003	0.964556	0.312707
	N231	N	0.419541	0.038725	0.311836
	N232	N	0.683043	0.418031	0.954870
	N233	N	0.683964	0.586940	0.030248
	N234	N	0.328418	0.587472	0.955855
	N235	N	0.329680	0.417940	0.030881
	N236	N	0.968737	0.679464	0.407245
	N237	N	0.042338	0.680590	0.579910
	N238	N	0.969542	0.320350	0.580625
	N239	N	0.043230	0.321746	0.407102
	N240	N	0.968298	0.415628	0.670879
	N241	N	0.043781	0.585375	0.670529
	N242	N	0.968116	0.585826	0.316676
	N243	N	0.043794	0.416434	0.316595
	N244	N	0.420750	0.680522	0.955715
	N245	N	0.593463	0.681730	0.028909
	N246	N	0.592223	0.323765	0.955248
	N247	N	0.418054	0.321029	0.028359
	N248	N	0.684271	0.963644	0.407048
	N249	N	0.684586	0.038325	0.577957
	N250	N	0.327121	0.964750	0.577580
	N251	N	0.326448	0.038643	0.405250
	N252	N	0.920759	0.463868	0.172670
	N253	N	0.091984	0.538765	0.172734
	N254	N	0.091866	0.463540	0.814821
	N255	N	0.919681	0.537482	0.814164
	N256	N	0.183792	0.915743	0.454945
	N257	N	0.183155	0.085867	0.529705
	N258	N	0.829672	0.084157	0.454842
	N259	N	0.827521	0.914869	0.530260
	N260	N	0.469709	0.182855	0.904274
	N261	N	0.543164	0.180951	0.077372
	N262	N	0.470002	0.821457	0.079646
	N263	N	0.543274	0.824263	0.906437
	N264	N	0.468743	0.916498	0.169557
	N265	N	0.543964	0.086112	0.168218
	N266	N	0.468577	0.087858	0.814606
	N267	N	0.543508	0.918803	0.815937
	N268	N	0.919021	0.180310	0.456396
	N269	N	0.092532	0.179465	0.529666
	N270	N	0.091500	0.822014	0.455609
	N271	N	0.918694	0.821017	0.529669
	N272	N	0.184872	0.463844	0.908153
	N273	N	0.185864	0.538677	0.079936
	N274	N	0.826528	0.464604	0.080304
	N275	N	0.828430	0.538790	0.909129
	O276	O	1.012016	1.034970	-0.006745
	H277	H	1.011093	1.043658	-0.003802
	H278	H	1.015235	1.039121	-0.004961
	O279	O	0.061807	0.035695	1.118846
	H280	H	0.052997	0.042002	1.120794
	H281	H	0.065163	0.037514	1.122104
	O282	O	0.069733	-0.003324	0.034439
	H283	H	0.077089	0.016045	0.029275
	H284	H	0.075175	-0.004395	0.033563
	O285	O	0.456789	0.490059	0.483442
	H286	H	0.452324	0.488650	0.487614
	H287	H	0.454435	0.490345	0.474615
	O288	O	-0.024029	-0.033495	-0.031931
	H289	H	-0.022419	-0.038147	-0.030195
	H290	H	-0.031120	-0.031001	-0.050591
	O291	O	-0.074821	1.035422	0.061882
	H292	H	-0.065824	1.036666	0.062181
	H293	H	-0.075461	1.038471	0.061556
	O294	O	0.052968	1.038214	0.024036
	H295	H	0.055931	1.028809	0.016001
	H296	H	0.056635	1.044282	0.022554
	O297	O	0.495434	0.544140	0.454956
	H298	H	0.494283	0.545981	0.463831
	H299	H	0.499817	0.552871	0.453496
	O300	O	0.491587	0.538516	0.438501
	H301	H	0.490222	0.539001	0.441154
	H302	H	0.492057	0.548088	0.437548
	O303	O	0.998212	0.046700	0.899412
	H304	H	0.997463	0.035377	0.891688
	H305	H	1.001218	0.047500	0.895947
	O306	O	-0.074106	0.908064	1.032505
	H307	H	-0.069615	0.909470	1.042853
	H308	H	-0.080364	0.900719	1.033109
	O309	O	0.075246	1.000039	0.976234
	H310	H	0.071396	1.000251	0.983455
	H311	H	0.066849	1.000736	0.975220
	O312	O	0.106558	-0.042005	0.964538
	H313	H	0.105902	-0.042270	0.970852
	H314	H	0.110392	-0.036794	0.967477
	O315	O	0.528066	0.474649	0.460580
	H316	H	0.525086	0.475783	0.456483
	H317	H	0.523027	0.475067	0.458438
	O318	O	-0.015982	-0.060185	0.971306
	H319	H	-0.026083	-0.063691	0.960641
	H320	H	-0.012988	-0.058336	0.980666
	O321	O	0.424554	0.486814	0.496360
	H322	H	0.419729	0.484338	0.487917
	H323	H	0.425493	0.480125	0.495064
	O324	O	1.014563	-0.062801	0.958777
	H325	H	1.025384	-0.069814	0.948296
	H326	H	1.011224	-0.061074	0.956393
	O327	O	0.999135	1.044262	0.977797
	H328	H	1.008693	1.043638	0.981385
	H329	H	1.006469	1.038882	0.973578
	O330	O	0.417186	0.507315	0.473444
	H331	H	0.426311	0.504731	0.474243
	H332	H	0.419534	0.500033	0.471852
	O333	O	0.018985	0.030531	0.989435
	H334	H	0.014907	0.026776	0.991228
	H335	H	0.014189	0.022771	0.990118
	O336	O	0.995358	-0.079045	0.990071
	H337	H	0.996757	-0.084991	0.993168
	H338	H	0.996061	-0.075586	0.991738
	O339	O	0.461672	0.497493	0.459103
	H340	H	0.455741	0.503473	0.456938
	H341	H	0.467288	0.495889	0.458150
	O342	O	0.147940	0.997166	0.012960
	H343	H	0.146577	1.004498	0.005788
	H344	H	0.139857	0.991919	0.026251
	O345	O	0.471382	0.514948	0.445901
	H346	H	0.470061	0.511928	0.444896
	H347	H	0.469027	0.516845	0.442396
