data_Molecule from HDF5

_cell_length_a		16.640093
_cell_length_b		16.605728
_cell_length_c		16.714060
_cell_angle_alpha	89.953323
_cell_angle_beta	90.055121
_cell_angle_gamma	89.972274
_symmetry_space_group_name_H-M	'P 1'
_symmetry_Int_Tables_number		1

loop_
	_symmetry_equiv_pos_as_xyz
	x,y,z

loop_
	_atom_site_label
	_atom_site_type_symbol
	_atom_site_fract_x
	_atom_site_fract_y
	_atom_site_fract_z
	H0	H	0.391979	0.842168	0.739578
	H1	H	0.604011	0.151262	0.736711
	H2	H	0.607166	0.841190	0.293465
	H3	H	0.394080	0.150378	0.294579
	H4	H	0.723179	0.388040	0.864085
	H5	H	0.722591	0.603415	0.169493
	H6	H	0.279798	0.598186	0.860138
	H7	H	0.275407	0.388209	0.169160
	H8	H	0.846573	0.719713	0.408845
	H9	H	0.153224	0.718800	0.623511
	H10	H	0.842935	0.277381	0.618305
	H11	H	0.154657	0.273944	0.411127
	H12	H	0.844004	0.391037	0.737265
	H13	H	0.152009	0.603835	0.741384
	H14	H	0.848151	0.606484	0.291222
	H15	H	0.154381	0.388341	0.294188
	H16	H	0.394309	0.715666	0.860961
	H17	H	0.605779	0.718387	0.170383
	H18	H	0.606474	0.272885	0.863319
	H19	H	0.396217	0.275656	0.171661
	H20	H	0.722094	0.840934	0.409754
	H21	H	0.718317	0.152219	0.619419
	H22	H	0.274961	0.842633	0.624573
	H23	H	0.278936	0.151019	0.411158
	H24	H	0.892866	0.341110	0.239735
	H25	H	0.108414	0.649301	0.240728
	H26	H	0.102466	0.339804	0.796823
	H27	H	0.890144	0.649764	0.793386
	H28	H	0.221505	0.889545	0.362756
	H29	H	0.221475	0.101829	0.670809
	H30	H	0.778877	0.100353	0.361033
	H31	H	0.778523	0.891940	0.670474
	H32	H	0.343480	0.216119	0.912374
	H33	H	0.654022	0.215848	0.119748
	H34	H	0.343146	0.776348	0.119436
	H35	H	0.655133	0.776972	0.914941
	H36	H	0.343730	0.892047	0.236122
	H37	H	0.653784	0.100793	0.237654
	H38	H	0.344721	0.102293	0.793515
	H39	H	0.654716	0.893232	0.797625
	H40	H	0.895538	0.216501	0.361220
	H41	H	0.104751	0.217027	0.671695
	H42	H	0.104320	0.774371	0.362576
	H43	H	0.894401	0.774334	0.669839
	H44	H	0.218678	0.339413	0.912203
	H45	H	0.222497	0.650191	0.123008
	H46	H	0.778560	0.340713	0.122365
	H47	H	0.778831	0.651863	0.913428
	H48	H	0.412532	0.107769	0.608023
	H49	H	0.584566	0.884635	0.607711
	H50	H	0.582352	0.103259	0.432217
	H51	H	0.414675	0.885695	0.428452
	H52	H	0.581698	0.411735	0.123466
	H53	H	0.591984	0.587419	0.903806
	H54	H	0.409683	0.578751	0.125512
	H55	H	0.408626	0.398056	0.902621
	H56	H	0.109741	0.579594	0.427090
	H57	H	0.888753	0.586477	0.601698
	H58	H	0.111011	0.405852	0.606122
	H59	H	0.887976	0.409482	0.423861
	H60	H	0.110195	0.408072	0.606365
	H61	H	0.888572	0.581463	0.605258
	H62	H	0.112471	0.586704	0.428179
	H63	H	0.887695	0.404509	0.428403
	H64	H	0.414832	0.586890	0.126189
	H65	H	0.589313	0.579201	0.907726
	H66	H	0.585908	0.399942	0.129318
	H67	H	0.402072	0.409263	0.903926
	H68	H	0.596059	0.109081	0.429458
	H69	H	0.588176	0.885416	0.602590
	H70	H	0.412864	0.105705	0.602101
	H71	H	0.408036	0.883552	0.430518
	H72	H	0.918618	0.603640	0.104816
	H73	H	0.082296	0.386138	0.105961
	H74	H	0.084729	0.607299	0.925028
	H75	H	0.903272	0.381255	0.927052
	H76	H	0.085494	0.903197	0.629242
	H77	H	0.094589	0.080761	0.404839
	H78	H	0.914104	0.084614	0.625645
	H79	H	0.913764	0.913951	0.407890
	H80	H	0.609820	0.081781	0.924288
	H81	H	0.385928	0.087546	0.105785
	H82	H	0.611566	0.901501	0.102322
	H83	H	0.389831	0.914244	0.925761
	H84	H	0.608613	0.911683	0.102960
	H85	H	0.389102	0.084117	0.102997
	H86	H	0.612149	0.087843	0.925106
	H87	H	0.383640	0.902576	0.920765
	H88	H	0.907878	0.093328	0.630798
	H89	H	0.082147	0.082881	0.408698
	H90	H	0.092597	0.910591	0.627007
	H91	H	0.914293	0.901893	0.404346
	H92	H	0.087505	0.606225	0.931682
	H93	H	0.087657	0.386294	0.100651
	H94	H	0.908735	0.605770	0.098562
	H95	H	0.915984	0.384389	0.921170
	H96	H	0.407461	0.107745	0.604237
	H97	H	0.590664	0.882483	0.607683
	H98	H	0.585547	0.108898	0.419015
	H99	H	0.409777	0.882677	0.423541
	H100	H	0.594703	0.410735	0.127409
	H101	H	0.582654	0.586263	0.906532
	H102	H	0.405292	0.586810	0.128802
	H103	H	0.414724	0.408282	0.907342
	H104	H	0.109689	0.582912	0.433733
	H105	H	0.886297	0.586518	0.607684
	H106	H	0.110666	0.407674	0.608035
	H107	H	0.890502	0.410459	0.430631
	H108	H	0.909803	0.610223	0.109775
	H109	H	0.089432	0.383252	0.107460
	H110	H	0.091870	0.608762	0.926373
	H111	H	0.913261	0.386831	0.934624
	H112	H	0.083132	0.911626	0.623921
	H113	H	0.088739	0.092805	0.403091
	H114	H	0.902979	0.082402	0.629053
	H115	H	0.903657	0.909078	0.403299
	H116	H	0.609816	0.084588	0.929807
	H117	H	0.386344	0.082195	0.107584
	H118	H	0.612770	0.907099	0.111373
	H119	H	0.387971	0.903411	0.934538
	C120	C	0.377891	0.004755	0.637808
	C121	C	0.620115	0.987300	0.637271
	C122	C	0.620957	0.004421	0.394397
	C123	C	0.378863	0.986937	0.395558
	C124	C	0.620495	0.374400	0.025489
	C125	C	0.620602	0.617178	1.007835
	C126	C	0.377822	0.616339	0.024553
	C127	C	0.376673	0.373046	1.007206
	C128	C	0.009001	0.617286	0.395636
	C129	C	0.990104	0.617505	0.638175
	C130	C	0.007336	0.375375	0.637821
	C131	C	0.991035	0.375134	0.395421
	C132	C	0.878916	0.504283	0.137883
	C133	C	0.120466	0.487304	0.137622
	C134	C	0.119485	0.504141	0.895511
	C135	C	0.877828	0.486956	0.895802
	C136	C	0.120174	0.875119	0.525104
	C137	C	0.120460	0.117731	0.508053
	C138	C	0.877710	0.117906	0.525164
	C139	C	0.878368	0.875686	0.507390
	C140	C	0.507817	0.117482	0.894521
	C141	C	0.490108	0.116760	0.137639
	C142	C	0.507904	0.874715	0.137191
	C143	C	0.490306	0.874886	0.895556
	C144	C	0.373942	0.888684	0.699168
	C145	C	0.622074	0.104739	0.696479
	C146	C	0.624582	0.887677	0.334062
	C147	C	0.376207	0.103835	0.335099
	C148	C	0.682493	0.370510	0.910248
	C149	C	0.681768	0.620791	0.123569
	C150	C	0.318869	0.617521	0.907233
	C151	C	0.316548	0.370489	0.123469
	C152	C	0.893176	0.679246	0.391408
	C153	C	0.106563	0.678561	0.641771
	C154	C	0.890101	0.316530	0.638082
	C155	C	0.107880	0.314115	0.392984
	C156	C	0.890253	0.373415	0.696646
	C157	C	0.105946	0.621514	0.700205
	C158	C	0.893865	0.622732	0.332962
	C159	C	0.107759	0.371154	0.334882
	C160	C	0.375933	0.675843	0.907728
	C161	C	0.623741	0.678099	0.123754
	C162	C	0.624410	0.313237	0.909770
	C163	C	0.375969	0.314349	0.124536
	C164	C	0.681860	0.887539	0.391791
	C165	C	0.679014	0.104947	0.638222
	C166	C	0.316089	0.888820	0.641812
	C167	C	0.318970	0.104249	0.392988
	C168	C	0.875440	0.387803	0.198972
	C169	C	0.125538	0.603292	0.199407
	C170	C	0.121101	0.386689	0.836435
	C171	C	0.873649	0.603663	0.834825
	C172	C	0.181041	0.871842	0.409066
	C173	C	0.181239	0.120321	0.624268
	C174	C	0.818946	0.119113	0.407886
	C175	C	0.818410	0.873241	0.623984
	C176	C	0.390391	0.176750	0.893160
	C177	C	0.607400	0.176410	0.139200
	C178	C	0.390195	0.815878	0.138504
	C179	C	0.608137	0.816452	0.895363
	C180	C	0.390592	0.873294	0.196475
	C181	C	0.607041	0.119126	0.197392
	C182	C	0.390963	0.120190	0.834299
	C183	C	0.608053	0.873874	0.837095
	C184	C	0.876695	0.176964	0.407972
	C185	C	0.123066	0.177550	0.624609
	C186	C	0.122826	0.814583	0.409029
	C187	C	0.875904	0.815059	0.623853
	C188	C	0.178911	0.386517	0.893702
	C189	C	0.182149	0.603627	0.140944
	C190	C	0.818396	0.387712	0.140787
	C191	C	0.817981	0.604551	0.894060
	C192	C	0.403635	0.085998	0.612110
	C193	C	0.595090	0.905417	0.612831
	C194	C	0.595304	0.085849	0.419667
	C195	C	0.403553	0.905197	0.420444
	C196	C	0.594510	0.399976	0.105908
	C197	C	0.595136	0.591468	0.926959
	C198	C	0.402649	0.591261	0.105603
	C199	C	0.401387	0.397879	0.925757
	C200	C	0.089760	0.590542	0.422080
	C201	C	0.909018	0.591956	0.612333
	C202	C	0.089300	0.400250	0.613806
	C203	C	0.909805	0.400961	0.420409
	C204	C	0.904968	0.585539	0.111862
	C205	C	0.094004	0.406448	0.111987
	C206	C	0.094806	0.585912	0.920415
	C207	C	0.903423	0.405431	0.920618
	C208	C	0.094517	0.901049	0.605808
	C209	C	0.095561	0.092580	0.426946
	C210	C	0.901505	0.093630	0.607091
	C211	C	0.903537	0.900830	0.426282
	C212	C	0.589493	0.092008	0.919419
	C213	C	0.408457	0.091861	0.112525
	C214	C	0.589779	0.899480	0.112466
	C215	C	0.408531	0.899819	0.919916
	Zn216	Zn	0.499118	-0.003738	0.766118
	Zn217	Zn	0.499507	-0.004874	0.266187
	Zn218	Zn	0.749501	0.495785	0.016932
	Zn219	Zn	0.248590	0.495384	0.016161
	Zn220	Zn	-0.000674	0.745839	0.516566
	Zn221	Zn	-0.000584	0.246727	0.516700
	Zn222	Zn	-0.001372	0.495945	0.766932
	Zn223	Zn	0.000057	0.496134	0.266784
	Zn224	Zn	0.498611	0.745689	0.016276
	Zn225	Zn	0.498958	0.245521	0.016114
	Zn226	Zn	0.748468	-0.004135	0.515957
	Zn227	Zn	0.249641	-0.004039	0.516476
	N228	N	0.411813	0.961840	0.696682
	N229	N	0.586210	0.030327	0.696278
	N230	N	0.587376	0.961483	0.335503
	N231	N	0.412616	0.029784	0.336327
	N232	N	0.680001	0.408339	0.983100
	N233	N	0.680150	0.583604	0.050403
	N234	N	0.319533	0.581290	0.981037
	N235	N	0.316639	0.406193	0.049400
	N236	N	0.965778	0.675716	0.430079
	N237	N	0.033484	0.676289	0.603806
	N238	N	0.964192	0.317506	0.602276
	N239	N	0.034304	0.316227	0.429929
	N240	N	0.964332	0.409366	0.696462
	N241	N	0.032417	0.584348	0.698278
	N242	N	0.967074	0.584772	0.335406
	N243	N	0.033967	0.408348	0.336046
	N244	N	0.411669	0.675601	0.981744
	N245	N	0.586101	0.675824	0.050708
	N246	N	0.586286	0.315481	0.982388
	N247	N	0.412523	0.315773	0.051042
	N248	N	0.679838	0.961274	0.428684
	N249	N	0.678155	0.030799	0.602303
	N250	N	0.318317	0.962150	0.604231
	N251	N	0.320138	0.030373	0.429873
	N252	N	0.912323	0.461660	0.197509
	N253	N	0.087968	0.529888	0.197740
	N254	N	0.084895	0.460969	0.837392
	N255	N	0.910181	0.529486	0.835466
	N256	N	0.179784	0.908657	0.482520
	N257	N	0.180079	0.083828	0.550551
	N258	N	0.819048	0.083332	0.481943
	N259	N	0.819547	0.909822	0.550530
	N260	N	0.464112	0.175171	0.929872
	N261	N	0.533437	0.175204	0.102682
	N262	N	0.464334	0.816520	0.102472
	N263	N	0.533756	0.816727	0.930550
	N264	N	0.465051	0.908987	0.196067
	N265	N	0.532967	0.083129	0.196724
	N266	N	0.465091	0.083906	0.835084
	N267	N	0.533439	0.909350	0.836660
	N268	N	0.912215	0.176706	0.482110
	N269	N	0.086167	0.176427	0.551155
	N270	N	0.085659	0.816463	0.482171
	N271	N	0.912365	0.816237	0.550244
	N272	N	0.178285	0.460644	0.929750
	N273	N	0.179278	0.530353	0.103190
	N274	N	0.820310	0.461324	0.103462
	N275	N	0.820325	0.530978	0.931197
	O276	O	0.027076	1.146462	0.004180
	H277	H	0.021429	1.147144	0.006300
	H278	H	0.037343	1.149197	0.001818
	O279	O	0.176792	0.036225	-0.038819
	H280	H	0.184612	0.041760	-0.023380
	H281	H	0.169196	0.032296	-0.019816
	O282	O	1.183365	0.809544	0.203389
	H283	H	1.171111	0.819383	0.198033
	H284	H	1.208009	0.780639	0.229099
	O285	O	0.400201	0.335276	0.451802
	H286	H	0.392115	0.342923	0.465693
	H287	H	0.412405	0.328660	0.483906
	O288	O	0.754057	0.750101	0.259716
	H289	H	0.777651	0.750203	0.261412
	H290	H	0.761228	0.766802	0.220610
	O291	O	0.788713	0.206451	0.803067
	H292	H	0.788097	0.194839	0.830517
	H293	H	0.754317	0.239933	0.774509
	O294	O	0.718829	-0.283001	0.555924
	H295	H	0.712487	-0.296631	0.536822
	H296	H	0.741723	-0.256409	0.545857
	O297	O	0.493755	0.310199	0.514898
	H298	H	0.503852	0.305141	0.530569
	H299	H	0.499358	0.310902	0.523256
	O300	O	0.047992	-0.057690	1.036087
	H301	H	0.061935	-0.068501	1.031106
	H302	H	0.045835	-0.045351	1.051769
	O303	O	0.417611	0.614098	0.669620
	H304	H	0.427787	0.628601	0.688087
	H305	H	0.421362	0.605158	0.661473
	O306	O	0.969169	0.786645	0.221533
	H307	H	0.972775	0.777762	0.225294
	H308	H	0.987325	0.785779	0.216767
	O309	O	0.284787	0.714021	0.306557
	H310	H	0.314731	0.705378	0.317761
	H311	H	0.295033	0.699051	0.334567
	O312	O	0.686390	0.308773	0.709053
	H313	H	0.677187	0.337034	0.692624
	H314	H	0.658924	0.322803	0.698174
	O315	O	0.807887	1.181681	1.203295
	H316	H	0.830653	1.166615	1.186984
	H317	H	0.819195	1.155819	1.186301
	O318	O	0.529907	0.720606	0.741201
	H319	H	0.558705	0.734601	0.754466
	H320	H	0.554615	0.729107	0.748405
	O321	O	0.307503	0.687507	0.704892
	H322	H	0.317263	0.664921	0.681783
	H323	H	0.332756	0.676559	0.685820
	O324	O	1.209114	0.907000	-0.190580
	H325	H	1.190471	0.928509	-0.185072
	H326	H	1.222749	0.910709	-0.212880
	O327	O	-0.281108	0.526096	0.745347
	H328	H	-0.280397	0.554505	0.733761
	H329	H	-0.250304	0.527115	0.765381
	O330	O	0.464796	0.720918	0.293393
	H331	H	0.475636	0.701110	0.294304
	H332	H	0.470578	0.742052	0.266154
	O333	O	0.966137	1.024838	-0.045610
	H334	H	0.976524	1.015601	-0.036305
	H335	H	0.946657	1.015522	-0.043047
	O336	O	0.865012	-0.199650	-0.000157
	H337	H	0.875468	-0.203197	-0.008078
	H338	H	0.874113	-0.187935	-0.009559
	O339	O	1.200725	0.199169	1.222519
	H340	H	1.206412	0.178092	1.196691
	H341	H	1.235162	0.230645	1.250622
	O342	O	-0.206127	0.193478	-0.001462
	H343	H	-0.208170	0.196795	-0.004561
	H344	H	-0.216932	0.180492	0.006761
	O345	O	0.142312	0.931982	1.099950
	H346	H	0.147539	0.922045	1.114960
	H347	H	0.141505	0.909271	1.092479
	O348	O	-0.030984	0.212825	-0.201769
	H349	H	-0.034464	0.217416	-0.207958
	H350	H	-0.065181	0.226916	-0.214082
	O351	O	1.049776	1.181191	-0.092899
	H352	H	1.033175	1.193780	-0.106695
	H353	H	1.043901	1.182239	-0.089038
	O354	O	-0.207059	-0.201984	1.121701
	H355	H	-0.201891	-0.217767	1.097609
	H356	H	-0.196238	-0.179981	1.114166
	O357	O	0.470672	0.309404	0.635920
	H358	H	0.458325	0.316608	0.645964
	H359	H	0.469911	0.304896	0.658221
	O360	O	0.528165	0.377841	0.745407
	H361	H	0.533482	0.400349	0.734981
	H362	H	0.518082	0.383230	0.763380
	O363	O	0.001592	-0.149271	-0.022479
	H364	H	0.011319	-0.147583	-0.018010
	H365	H	0.003327	-0.136339	-0.032671
	O366	O	0.570170	0.459206	0.414401
	H367	H	0.572330	0.459880	0.424943
	H368	H	0.570972	0.444776	0.410268
	O369	O	0.780397	-0.055701	-0.053197
	H370	H	0.778833	-0.045270	-0.059179
	H371	H	0.786172	-0.043009	-0.058903
	O372	O	0.709064	1.287578	0.308694
	H373	H	0.733383	1.253909	0.274351
	H374	H	0.657208	1.284675	0.301536
	O375	O	1.030356	0.214052	0.240255
	H376	H	1.051264	0.237953	0.262909
	H377	H	1.063481	0.218612	0.235587
	O378	O	0.469342	0.620932	0.533735
	H379	H	0.488921	0.616513	0.538749
	H380	H	0.483823	0.614275	0.538218
	O381	O	0.215309	1.214569	1.056836
	H382	H	0.209039	1.211339	1.065656
	H383	H	0.239096	1.232430	1.046479
	O384	O	0.956245	0.036718	1.128960
	H385	H	0.977680	0.053120	1.135061
	H386	H	0.965925	0.031122	1.141258
	O387	O	1.207396	1.186549	-0.143923
	H388	H	1.199171	1.201136	-0.145742
	H389	H	1.194987	1.171080	-0.121979
	O390	O	0.148327	0.054337	-0.132215
	H391	H	0.145917	0.041872	-0.112314
	H392	H	0.143505	0.051150	-0.126382
	O393	O	0.276217	0.280996	0.547698
	H394	H	0.284029	0.276695	0.577040
	H395	H	0.262635	0.256564	0.550695
	O396	O	0.030465	0.972315	1.252925
	H397	H	0.049624	0.979497	1.256786
	H398	H	0.039489	0.964755	1.243647
	O399	O	0.059891	0.001857	0.844431
	H400	H	0.057336	0.008473	0.857298
	H401	H	0.055713	-0.005975	0.845109
	O402	O	0.463064	0.542482	0.400631
	H403	H	0.472059	0.550624	0.408755
	H404	H	0.468122	0.544595	0.398385
	O405	O	0.998265	0.026932	1.098129
	H406	H	0.997427	0.046371	1.092706
	H407	H	0.993575	0.023752	1.109437
	O408	O	0.142509	-0.216163	-0.190226
	H409	H	0.155958	-0.184782	-0.194440
	H410	H	0.171813	-0.233383	-0.210134
	O411	O	0.723934	0.273449	0.480278
	H412	H	0.750141	0.248527	0.469071
	H413	H	0.725871	0.274813	0.439626
	O414	O	0.656896	0.690087	0.378428
	H415	H	0.658219	0.644378	0.373567
	H416	H	0.674717	0.714835	0.339918
	O417	O	0.555174	0.310291	0.546876
	H418	H	0.566562	0.305784	0.565577
	H419	H	0.573752	0.311950	0.552365
	O420	O	0.538867	0.653085	0.544382
	H421	H	0.554958	0.656214	0.532422
	H422	H	0.548009	0.652621	0.537725
	O423	O	-0.221152	-0.026317	1.228122
	H424	H	-0.213561	-0.033136	1.244037
	H425	H	-0.221545	-0.035322	1.244341
	O426	O	0.520379	0.444574	0.654514
	H427	H	0.532298	0.441973	0.640930
	H428	H	0.534190	0.455868	0.656735
	O429	O	0.273050	0.541533	0.562498
	H430	H	0.263598	0.549851	0.548246
	H431	H	0.279013	0.529660	0.567622
	O432	O	0.277796	0.715619	0.489914
	H433	H	0.281902	0.732851	0.494658
	H434	H	0.285660	0.732552	0.503310
	O435	O	0.284893	0.509155	0.296136
	H436	H	0.279736	0.522655	0.295612
	H437	H	0.265943	0.522126	0.295975
	O438	O	-0.460898	0.277572	0.298177
	H439	H	-0.473477	0.253372	0.290460
	H440	H	-0.486200	0.285946	0.306570
	O441	O	0.515012	0.578192	0.291371
	H442	H	0.520207	0.563284	0.295490
	H443	H	0.521660	0.561647	0.297819
	O444	O	0.536486	0.672534	0.553139
	H445	H	0.559135	0.671786	0.547011
	H446	H	0.552299	0.673792	0.543726
	O447	O	0.068019	0.972380	0.821320
	H448	H	0.075071	0.983133	0.830985
	H449	H	0.068083	0.967596	0.809544
	O450	O	0.215813	1.032085	1.238155
	H451	H	0.212301	1.034190	1.232856
	H452	H	0.237199	1.036994	1.255761
	O453	O	0.537199	0.488192	0.646273
	H454	H	0.543796	0.489775	0.642160
	H455	H	0.542986	0.496064	0.650243
	O456	O	0.050134	-0.231114	1.065712
	H457	H	0.044844	-0.225760	1.056074
	H458	H	0.082120	-0.237097	1.056067
	O459	O	0.771679	1.037842	0.071636
	H460	H	0.769533	1.017722	0.092974
	H461	H	0.775416	1.024864	0.072331
	O462	O	0.277500	0.456996	0.736623
	H463	H	0.261334	0.451548	0.748538
	H464	H	0.286055	0.467405	0.743377
	O465	O	0.809563	-0.193127	-0.176316
	H466	H	0.833454	-0.176912	-0.162045
	H467	H	0.827135	-0.175159	-0.156654
	O468	O	0.709400	0.470660	0.594199
	H469	H	0.698451	0.484418	0.595813
	H470	H	0.722187	0.466613	0.583931
	O471	O	0.726083	0.519420	0.453776
	H472	H	0.729464	0.531973	0.427068
	H473	H	0.732967	0.496039	0.443992
	O474	O	0.301227	0.502239	0.461895
	H475	H	0.299098	0.499118	0.467053
	H476	H	0.314271	0.484548	0.476371
	O477	O	0.305128	0.300374	1.321814
	H478	H	0.323340	0.323727	1.337531
	H479	H	0.322738	0.314852	1.344953
	O480	O	0.354191	0.368627	0.656176
	H481	H	0.361185	0.386343	0.644494
	H482	H	0.349291	0.360903	0.665303
	O483	O	0.424943	0.435195	0.302444
	H484	H	0.428586	0.441724	0.315728
	H485	H	0.408699	0.453198	0.293029
	O486	O	0.706990	-0.292951	0.730862
	H487	H	0.733699	-0.267888	0.735066
	H488	H	0.721326	-0.291535	0.716894
	O489	O	1.221086	0.780474	-0.010065
	H490	H	1.244602	0.760808	-0.014091
	H491	H	1.226342	0.783981	-0.044783
	O492	O	-0.049743	0.218621	0.084053
	H493	H	-0.050343	0.216910	0.073303
	H494	H	-0.044064	0.225049	0.107914
	O495	O	0.011205	0.820560	0.798053
	H496	H	0.029988	0.810860	0.790149
	H497	H	0.035480	0.808992	0.797916
	O498	O	0.778374	1.033733	0.795649
	H499	H	0.763793	1.045077	0.773043
	H500	H	0.781991	1.040322	0.787913
	O501	O	0.726944	0.476675	0.295988
	H502	H	0.744372	0.457643	0.271406
	H503	H	0.717125	0.442647	0.291753
