data_Molecule from HDF5

_cell_length_a		16.524230
_cell_length_b		16.518509
_cell_length_c		16.495459
_cell_angle_alpha	89.865873
_cell_angle_beta	89.960759
_cell_angle_gamma	90.122436
_symmetry_space_group_name_H-M	'P 1'
_symmetry_Int_Tables_number		1

loop_
	_symmetry_equiv_pos_as_xyz
	x,y,z

loop_
	_atom_site_label
	_atom_site_type_symbol
	_atom_site_fract_x
	_atom_site_fract_y
	_atom_site_fract_z
	H0	H	0.377976	0.829217	0.701791
	H1	H	0.588001	0.143604	0.699571
	H2	H	0.591668	0.830720	0.253078
	H3	H	0.378682	0.143177	0.258011
	H4	H	0.702913	0.383967	0.821942
	H5	H	0.704593	0.592467	0.137524
	H6	H	0.260095	0.592779	0.822739
	H7	H	0.259189	0.380327	0.136147
	H8	H	0.827166	0.712337	0.368500
	H9	H	0.136698	0.709692	0.587593
	H10	H	0.825530	0.264990	0.583905
	H11	H	0.140088	0.265465	0.374598
	H12	H	0.826239	0.379630	0.701182
	H13	H	0.137912	0.591535	0.701637
	H14	H	0.826992	0.595071	0.254126
	H15	H	0.138826	0.379220	0.255874
	H16	H	0.378306	0.707628	0.822067
	H17	H	0.587362	0.707288	0.138272
	H18	H	0.585299	0.268715	0.821181
	H19	H	0.375967	0.264510	0.136706
	H20	H	0.708733	0.830790	0.368530
	H21	H	0.703663	0.143524	0.582625
	H22	H	0.258780	0.829774	0.588223
	H23	H	0.262271	0.143083	0.374541
	H24	H	0.880643	0.328828	0.199515
	H25	H	0.091475	0.642972	0.204933
	H26	H	0.087259	0.327380	0.760448
	H27	H	0.875778	0.641175	0.755328
	H28	H	0.203804	0.881018	0.322292
	H29	H	0.202679	0.089261	0.638227
	H30	H	0.764352	0.089090	0.320919
	H31	H	0.761381	0.881947	0.636898
	H32	H	0.323858	0.205902	0.875833
	H33	H	0.640273	0.206520	0.082023
	H34	H	0.325616	0.763758	0.085908
	H35	H	0.641498	0.768016	0.876859
	H36	H	0.324793	0.880321	0.200560
	H37	H	0.640723	0.087903	0.197071
	H38	H	0.323437	0.089933	0.759436
	H39	H	0.641521	0.886803	0.761904
	H40	H	0.882173	0.204813	0.320211
	H41	H	0.086826	0.205632	0.638300
	H42	H	0.087753	0.764703	0.322600
	H43	H	0.875388	0.764084	0.636597
	H44	H	0.202831	0.328917	0.876136
	H45	H	0.205730	0.644333	0.087338
	H46	H	0.762909	0.329366	0.083597
	H47	H	0.761768	0.643199	0.873369
	H48	H	0.389505	0.100154	0.569459
	H49	H	0.570728	0.875015	0.565232
	H50	H	0.570755	0.097118	0.389447
	H51	H	0.394740	0.873167	0.389507
	H52	H	0.573393	0.396688	0.092965
	H53	H	0.570738	0.581730	0.866278
	H54	H	0.395940	0.573807	0.090404
	H55	H	0.390232	0.399030	0.866637
	H56	H	0.091351	0.574568	0.394933
	H57	H	0.869500	0.568976	0.572169
	H58	H	0.095832	0.397984	0.571732
	H59	H	0.873365	0.401888	0.393342
	H60	H	0.098197	0.393411	0.572687
	H61	H	0.867622	0.579392	0.569354
	H62	H	0.091614	0.571277	0.395290
	H63	H	0.869005	0.396966	0.385807
	H64	H	0.394235	0.575475	0.092479
	H65	H	0.576440	0.574378	0.866786
	H66	H	0.571919	0.397353	0.092377
	H67	H	0.393851	0.399511	0.867868
	H68	H	0.570787	0.096340	0.391785
	H69	H	0.575194	0.871853	0.569788
	H70	H	0.395061	0.098621	0.570932
	H71	H	0.393998	0.874940	0.393073
	H72	H	0.894713	0.598766	0.066897
	H73	H	0.065171	0.376001	0.074581
	H74	H	0.069429	0.599816	0.884487
	H75	H	0.893647	0.371658	0.886778
	H76	H	0.064914	0.905087	0.587491
	H77	H	0.077638	0.077097	0.364505
	H78	H	0.888988	0.076275	0.593906
	H79	H	0.898882	0.886132	0.364239
	H80	H	0.592419	0.075501	0.895907
	H81	H	0.371813	0.072001	0.066559
	H82	H	0.592090	0.896702	0.059113
	H83	H	0.370495	0.893076	0.895576
	H84	H	0.592260	0.905960	0.069702
	H85	H	0.368407	0.075918	0.071828
	H86	H	0.594744	0.072844	0.883715
	H87	H	0.372194	0.902490	0.890850
	H88	H	0.892624	0.074837	0.592094
	H89	H	0.071465	0.071073	0.368959
	H90	H	0.066312	0.889231	0.593013
	H91	H	0.883347	0.903454	0.364537
	H92	H	0.066436	0.595673	0.893031
	H93	H	0.067376	0.379648	0.060588
	H94	H	0.893505	0.600048	0.067990
	H95	H	0.895292	0.375089	0.894366
	H96	H	0.393275	0.097671	0.565879
	H97	H	0.569317	0.874559	0.571639
	H98	H	0.572773	0.097898	0.390647
	H99	H	0.391104	0.873137	0.390928
	H100	H	0.571869	0.395750	0.092668
	H101	H	0.568363	0.573782	0.870574
	H102	H	0.393364	0.572434	0.091698
	H103	H	0.392797	0.396177	0.866321
	H104	H	0.092930	0.572863	0.392941
	H105	H	0.871817	0.572215	0.562392
	H106	H	0.096368	0.394284	0.567624
	H107	H	0.870908	0.392223	0.394485
	H108	H	0.894861	0.599131	0.068635
	H109	H	0.078567	0.372968	0.068607
	H110	H	0.075502	0.599240	0.892358
	H111	H	0.887368	0.372629	0.892616
	H112	H	0.079497	0.899502	0.594134
	H113	H	0.068929	0.080118	0.367748
	H114	H	0.892435	0.078853	0.593685
	H115	H	0.904321	0.906684	0.373962
	H116	H	0.597426	0.084490	0.887987
	H117	H	0.369292	0.078144	0.064830
	H118	H	0.597505	0.893234	0.072209
	H119	H	0.367742	0.894580	0.885438
	C120	C	0.360556	-0.005244	0.601622
	C121	C	0.604028	0.977590	0.600228
	C122	C	0.604450	-0.005916	0.356891
	C123	C	0.361477	0.977700	0.358582
	C124	C	0.603453	0.365579	-0.011828
	C125	C	0.604482	0.608886	0.971999
	C126	C	0.361709	0.607218	-0.012020
	C127	C	0.359814	0.365373	0.970812
	C128	C	-0.010520	0.607121	0.359542
	C129	C	0.972940	0.606780	0.601197
	C130	C	-0.007755	0.363346	0.601987
	C131	C	0.974667	0.365176	0.358787
	C132	C	0.862238	0.495341	0.100341
	C133	C	0.104142	0.479272	0.101661
	C134	C	0.102589	0.494034	0.858863
	C135	C	0.860604	0.477099	0.858474
	C136	C	0.103239	0.864912	0.488229
	C137	C	0.104250	0.107344	0.471614
	C138	C	0.861372	0.107774	0.487812
	C139	C	0.861526	0.865147	0.470848
	C140	C	0.490418	0.108729	0.857338
	C141	C	0.473880	0.107709	0.100071
	C142	C	0.490805	0.865056	0.100541
	C143	C	0.474554	0.865525	0.858769
	C144	C	0.358656	0.876509	0.662303
	C145	C	0.606290	0.096229	0.659632
	C146	C	0.608919	0.877357	0.294398
	C147	C	0.360087	0.096134	0.298533
	C148	C	0.662839	0.365100	0.869121
	C149	C	0.664537	0.610833	0.090403
	C150	C	0.301015	0.610345	0.869781
	C151	C	0.299600	0.362323	0.089206
	C152	C	0.873430	0.670502	0.352532
	C153	C	0.089877	0.669001	0.605153
	C154	C	0.873014	0.304436	0.602744
	C155	C	0.092830	0.305325	0.356061
	C156	C	0.873602	0.361114	0.661209
	C157	C	0.090363	0.609882	0.661963
	C158	C	0.873618	0.612208	0.295460
	C159	C	0.092255	0.362373	0.297316
	C160	C	0.359543	0.667686	0.869440
	C161	C	0.606369	0.668194	0.090488
	C162	C	0.604499	0.307698	0.868739
	C163	C	0.357693	0.304704	0.089233
	C164	C	0.667125	0.877280	0.352088
	C165	C	0.663902	0.096235	0.601585
	C166	C	0.299625	0.876870	0.605491
	C167	C	0.301996	0.095954	0.356299
	C168	C	0.861401	0.376387	0.159673
	C169	C	0.108702	0.596396	0.163713
	C170	C	0.105158	0.375220	0.799890
	C171	C	0.858080	0.594510	0.796265
	C172	C	0.163972	0.862319	0.369900
	C173	C	0.163371	0.108496	0.590576
	C174	C	0.803811	0.108393	0.368186
	C175	C	0.800708	0.862775	0.589370
	C176	C	0.371330	0.166833	0.856549
	C177	C	0.592619	0.167164	0.101225
	C178	C	0.372620	0.803866	0.104143
	C179	C	0.593694	0.807372	0.857963
	C180	C	0.372389	0.862036	0.161129
	C181	C	0.593160	0.108196	0.158281
	C182	C	0.371320	0.109210	0.798476
	C183	C	0.593980	0.866045	0.800556
	C184	C	0.862329	0.165663	0.368025
	C185	C	0.105426	0.166020	0.590874
	C186	C	0.105924	0.804512	0.369938
	C187	C	0.857494	0.804265	0.589263
	C188	C	0.163085	0.376028	0.857204
	C189	C	0.165669	0.596914	0.105150
	C190	C	0.803148	0.376499	0.102075
	C191	C	0.801336	0.595537	0.855046
	C192	C	0.385534	0.077316	0.576082
	C193	C	0.579058	0.895074	0.575808
	C194	C	0.578591	0.075873	0.383254
	C195	C	0.386350	0.895130	0.383727
	C196	C	0.579200	0.389554	0.071172
	C197	C	0.579238	0.583865	0.889343
	C198	C	0.387459	0.581373	0.070089
	C199	C	0.384965	0.390910	0.888477
	C200	C	0.070718	0.580734	0.386797
	C201	C	0.890871	0.581001	0.575229
	C202	C	0.075155	0.388068	0.577714
	C203	C	0.892531	0.389938	0.384141
	C204	C	0.887121	0.577987	0.075095
	C205	C	0.077994	0.397432	0.075443
	C206	C	0.077532	0.576820	0.882941
	C207	C	0.884988	0.394634	0.884086
	C208	C	0.077572	0.890491	0.570150
	C209	C	0.079720	0.083022	0.388596
	C210	C	0.884780	0.083787	0.571409
	C211	C	0.888042	0.891105	0.389001
	C212	C	0.573246	0.084565	0.881981
	C213	C	0.391457	0.082582	0.075052
	C214	C	0.572534	0.891056	0.074504
	C215	C	0.391897	0.889653	0.883388
	Zn216	Zn	0.482636	-0.013176	0.729320
	Zn217	Zn	0.482179	-0.014202	0.228700
	Zn218	Zn	0.732285	0.486990	-0.020108
	Zn219	Zn	0.231551	0.487219	-0.020255
	Zn220	Zn	-0.018772	0.736281	0.479698
	Zn221	Zn	-0.016619	0.235622	0.479843
	Zn222	Zn	-0.017769	0.484616	0.729877
	Zn223	Zn	-0.017047	0.487071	0.229933
	Zn224	Zn	0.482512	0.736781	-0.019849
	Zn225	Zn	0.481707	0.237256	-0.021089
	Zn226	Zn	0.732914	-0.013856	0.478424
	Zn227	Zn	0.232571	-0.014070	0.479775
	N228	N	0.395756	0.950892	0.660098
	N229	N	0.569589	0.021604	0.658894
	N230	N	0.570387	0.950760	0.297590
	N231	N	0.396287	0.021491	0.299782
	N232	N	0.662325	0.400473	0.944524
	N233	N	0.663426	0.574565	0.015556
	N234	N	0.301893	0.573687	0.944657
	N235	N	0.300771	0.399388	0.014614
	N236	N	0.946505	0.667301	0.391787
	N237	N	0.015488	0.667259	0.567933
	N238	N	0.947998	0.305474	0.566669
	N239	N	0.018791	0.306961	0.393793
	N240	N	0.948655	0.396967	0.660717
	N241	N	0.016574	0.572064	0.659617
	N242	N	0.946764	0.573175	0.299841
	N243	N	0.017847	0.399024	0.298809
	N244	N	0.396451	0.665857	0.943875
	N245	N	0.569569	0.667030	0.015844
	N246	N	0.568476	0.307739	0.943705
	N247	N	0.394678	0.306760	0.014690
	N248	N	0.664463	0.950942	0.390500
	N249	N	0.662776	0.021476	0.565168
	N250	N	0.300740	0.951480	0.568556
	N251	N	0.302799	0.021211	0.393031
	N252	N	0.897137	0.451596	0.158965
	N253	N	0.071223	0.522122	0.161783
	N254	N	0.068254	0.449727	0.800811
	N255	N	0.894382	0.519748	0.798167
	N256	N	0.162709	0.898955	0.444483
	N257	N	0.162936	0.072963	0.515333
	N258	N	0.802882	0.073376	0.443920
	N259	N	0.802872	0.899883	0.514720
	N260	N	0.446491	0.166987	0.892029
	N261	N	0.517290	0.167229	0.066066
	N262	N	0.447046	0.805567	0.067305
	N263	N	0.518327	0.806879	0.893267
	N264	N	0.446871	0.899359	0.159151
	N265	N	0.518018	0.072422	0.158184
	N266	N	0.446655	0.073959	0.798622
	N267	N	0.518665	0.901081	0.800535
	N268	N	0.896999	0.165488	0.443786
	N269	N	0.069674	0.165662	0.515701
	N270	N	0.068829	0.805942	0.444502
	N271	N	0.894226	0.805563	0.514557
	N272	N	0.161539	0.450954	0.893273
	N273	N	0.162766	0.523060	0.067221
	N274	N	0.803359	0.451588	0.066270
	N275	N	0.803066	0.521737	0.893128
	O276	O	0.615085	0.672386	0.669134
	H277	H	0.595057	0.652820	0.656806
	H278	H	0.592443	0.689121	0.691049
	O279	O	0.381097	0.455218	0.637109
	H280	H	0.382119	0.462576	0.635040
	H281	H	0.374389	0.458213	0.647232
	O282	O	0.780157	1.027634	0.036273
	H283	H	0.790289	1.021832	0.021450
	H284	H	0.777339	1.048290	0.016223
	O285	O	0.523753	0.371946	0.644965
	H286	H	0.516305	0.368305	0.635242
	H287	H	0.508707	0.341688	0.649765
	O288	O	-0.015623	0.078233	-0.020775
	H289	H	-0.019686	0.069083	-0.042507
	H290	H	-0.018983	0.078178	-0.013621
	O291	O	1.512389	1.463849	0.400931
	H292	H	1.533985	1.461698	0.400455
	H293	H	1.507283	1.457428	0.401833
	O294	O	-0.120275	0.831448	-0.119344
	H295	H	-0.099123	0.826983	-0.100664
	H296	H	-0.138827	0.810665	-0.118936
	O297	O	0.601144	0.272651	0.335362
	H298	H	0.565795	0.274141	0.329294
	H299	H	0.620446	0.246523	0.300712
	O300	O	0.175150	0.803197	0.900955
	H301	H	0.169298	0.801632	0.877867
	H302	H	0.191321	0.797134	0.885230
	O303	O	0.499834	0.593070	0.278557
	H304	H	0.509233	0.604481	0.301658
	H305	H	0.526345	0.597675	0.261785
	O306	O	0.067426	0.820358	1.039116
	H307	H	0.079027	0.809443	1.059156
	H308	H	0.072303	0.820802	1.047824
	O309	O	0.406804	0.452768	0.261509
	H310	H	0.419385	0.476985	0.276496
	H311	H	0.408714	0.469275	0.252698
	O312	O	0.700363	0.268630	0.446564
	H313	H	0.705358	0.265284	0.437142
	H314	H	0.712589	0.254823	0.432988
	O315	O	-0.155120	0.186821	1.112242
	H316	H	-0.154558	0.167093	1.097767
	H317	H	-0.151529	0.188913	1.092788
	O318	O	-0.204925	0.937221	0.169525
	H319	H	-0.209654	0.940932	0.155582
	H320	H	-0.212013	0.949177	0.165758
	O321	O	0.339172	0.555846	0.538149
	H322	H	0.345424	0.555604	0.538005
	H323	H	0.329568	0.555922	0.538768
	O324	O	0.485062	0.700265	0.315069
	H325	H	0.510176	0.701299	0.337203
	H326	H	0.495335	0.714343	0.301962
	O327	O	1.167064	0.005809	0.988795
	H328	H	1.173245	0.019983	1.000514
	H329	H	1.175937	0.009922	0.980551
	O330	O	0.805832	0.201631	-0.027966
	H331	H	0.780300	0.228257	-0.038025
	H332	H	0.816115	0.194011	-0.064878
	O333	O	0.757600	0.767232	1.194659
	H334	H	0.754307	0.781625	1.201063
	H335	H	0.767903	0.769310	1.194095
	O336	O	0.994239	-0.038213	0.882241
	H337	H	0.998681	-0.063752	0.892046
	H338	H	0.998409	-0.033256	0.892692
	O339	O	0.979094	0.980849	1.048158
	H340	H	0.986586	0.969159	1.058637
	H341	H	0.975520	0.988913	1.033389
	O342	O	0.273063	0.443989	0.437196
	H343	H	0.274674	0.436354	0.441198
	H344	H	0.276017	0.436293	0.452778
	O345	O	0.068749	0.085895	-0.200806
	H346	H	0.061549	0.076934	-0.196206
	H347	H	0.065671	0.086021	-0.196583
	O348	O	0.968072	-0.213088	1.179026
	H349	H	0.961482	-0.216791	1.191792
	H350	H	0.964669	-0.201212	1.184288
	O351	O	1.182479	0.819453	0.778553
	H352	H	1.205762	0.831016	0.755268
	H353	H	1.160081	0.837579	0.773752
	O354	O	0.285925	0.613181	0.632645
	H355	H	0.296837	0.600949	0.607682
	H356	H	0.292172	0.624294	0.623702
	O357	O	1.051569	1.167974	0.950931
	H358	H	1.051002	1.178784	0.949779
	H359	H	1.073076	1.156805	0.952475
	O360	O	0.292259	0.675719	0.292788
	H361	H	0.345546	0.683535	0.282848
	H362	H	0.282218	0.629899	0.290250
	O363	O	0.795821	0.177658	0.791197
	H364	H	0.807399	0.191242	0.774257
	H365	H	0.795861	0.131031	0.786930
	O366	O	1.261286	-0.295919	1.454774
	H367	H	1.254111	-0.293275	1.424950
	H368	H	1.243330	-0.280571	1.435856
	O369	O	0.411111	0.613699	0.499750
	H370	H	0.397320	0.622926	0.486789
	H371	H	0.419281	0.617342	0.499066
	O372	O	0.400730	0.314730	0.426667
	H373	H	0.417451	0.303866	0.425039
	H374	H	0.403882	0.328888	0.431080
	O375	O	0.010421	0.773162	0.793401
	H376	H	0.020685	0.754677	0.773808
	H377	H	0.008269	0.769492	0.813441
	O378	O	0.276947	0.351444	0.626020
	H379	H	0.274755	0.374305	0.649129
	H380	H	0.260117	0.351709	0.605691
	O381	O	0.792545	-0.135499	-0.187559
	H382	H	0.796163	-0.153304	-0.182204
	H383	H	0.793460	-0.145505	-0.183616
	O384	O	0.154816	-0.054131	1.106014
	H385	H	0.165784	-0.034579	1.105470
	H386	H	0.165440	-0.074684	1.090005
	O387	O	-0.552649	1.275207	0.700754
	H388	H	-0.560433	1.246345	0.727266
	H389	H	-0.565621	1.274162	0.686802
	O390	O	0.189568	-0.079831	0.811903
	H391	H	0.195968	-0.067963	0.800541
	H392	H	0.188853	-0.067724	0.808622
	O393	O	1.068661	1.167371	-0.082328
	H394	H	1.077836	1.160549	-0.077320
	H395	H	1.072946	1.163497	-0.084088
	O396	O	0.597891	0.279233	0.598326
	H397	H	0.607468	0.290423	0.582988
	H398	H	0.600786	0.282075	0.587322
	O399	O	1.095267	1.097206	1.184320
	H400	H	1.099895	1.111606	1.163448
	H401	H	1.105778	1.106410	1.195437
	O402	O	0.052060	-0.063033	1.167143
	H403	H	0.058240	-0.066401	1.151471
	H404	H	0.072768	-0.048675	1.173260
	O405	O	-0.070794	0.192705	-0.199375
	H406	H	-0.068059	0.214140	-0.229939
	H407	H	-0.065629	0.186830	-0.196908
	O408	O	0.694978	1.389237	1.269822
	H409	H	0.703115	1.372033	1.283792
	H410	H	0.710568	1.376272	1.254151
	O411	O	0.442538	0.528475	0.706849
	H412	H	0.439495	0.532823	0.710917
	H413	H	0.468187	0.501281	0.701932
	O414	O	0.462974	0.692778	0.654953
	H415	H	0.450040	0.710835	0.653100
	H416	H	0.449210	0.676325	0.646012
	O417	O	0.705233	0.708565	0.496722
	H418	H	0.713146	0.707541	0.525756
	H419	H	0.723000	0.723682	0.522298
	O420	O	0.519549	0.269668	0.261888
	H421	H	0.505757	0.278894	0.245334
	H422	H	0.523364	0.263995	0.249339
	O423	O	0.309206	1.310359	0.305966
	H424	H	0.321354	1.321389	0.324536
	H425	H	0.320867	1.335739	0.310971
	O426	O	0.778312	0.793048	0.997038
	H427	H	0.781112	0.778110	0.994623
	H428	H	0.774298	0.791679	1.012669
	O429	O	0.706902	0.512157	0.449824
	H430	H	0.716427	0.529661	0.450668
	H431	H	0.692515	0.511236	0.435235
	O432	O	0.814478	0.023680	0.792738
	H433	H	0.817464	0.013276	0.779129
	H434	H	0.814725	0.006340	0.798732
	O435	O	0.190738	0.194104	0.002755
	H436	H	0.203466	0.223108	0.005511
	H437	H	0.186024	0.193809	0.048179
	O438	O	1.657178	-0.424786	0.330666
	H439	H	1.671088	-0.445954	0.317009
	H440	H	1.671730	-0.412549	0.355997
	O441	O	0.683953	0.496037	0.680322
	H442	H	0.706928	0.491797	0.679646
	H443	H	0.667260	0.494473	0.670380
	O444	O	0.317381	1.271635	0.534711
	H445	H	0.309822	1.270725	0.536246
	H446	H	0.318158	1.262828	0.530924
	O447	O	0.976924	0.924958	0.089047
	H448	H	0.991048	0.924026	0.080999
	H449	H	0.978944	0.917513	0.106366
	O450	O	0.525787	0.651093	0.463248
	H451	H	0.520997	0.654801	0.475579
	H452	H	0.538021	0.648240	0.470740
	O453	O	0.693511	0.380744	0.575151
	H454	H	0.706729	0.391276	0.568317
	H455	H	0.702356	0.385943	0.570828
	O456	O	1.181683	0.182363	0.174807
	H457	H	1.204576	0.201055	0.204986
	H458	H	1.140588	0.179661	0.179940
	O459	O	0.274835	0.516234	0.281903
	H460	H	0.282426	0.502053	0.302441
	H461	H	0.255346	0.513885	0.260710
	O462	O	0.573612	0.544356	0.538008
	H463	H	0.561362	0.553582	0.551485
	H464	H	0.577348	0.526944	0.548537
	O465	O	0.941430	-0.031830	-0.165450
	H466	H	0.933990	-0.056802	-0.173103
	H467	H	0.947968	-0.039498	-0.147710
