data_Molecule from HDF5

_cell_length_a		16.311780
_cell_length_b		16.362038
_cell_length_c		16.320257
_cell_angle_alpha	89.971574
_cell_angle_beta	89.945162
_cell_angle_gamma	90.007021
_symmetry_space_group_name_H-M	'P 1'
_symmetry_Int_Tables_number		1

loop_
	_symmetry_equiv_pos_as_xyz
	x,y,z

loop_
	_atom_site_label
	_atom_site_type_symbol
	_atom_site_fract_x
	_atom_site_fract_y
	_atom_site_fract_z
	H0	H	0.401160	0.837163	0.715128
	H1	H	0.598884	0.162425	0.714499
	H2	H	0.599336	0.837601	0.284639
	H3	H	0.402803	0.163133	0.285613
	H4	H	0.713875	0.402465	0.836826
	H5	H	0.714103	0.598196	0.163543
	H6	H	0.286954	0.596507	0.835678
	H7	H	0.284975	0.402488	0.163890
	H8	H	0.836696	0.714233	0.402610
	H9	H	0.162993	0.714950	0.598731
	H10	H	0.837205	0.285400	0.598138
	H11	H	0.163335	0.284968	0.400497
	H12	H	0.836841	0.401585	0.714062
	H13	H	0.163260	0.597873	0.714371
	H14	H	0.836783	0.598089	0.285882
	H15	H	0.163872	0.403386	0.286457
	H16	H	0.400602	0.715796	0.836979
	H17	H	0.598128	0.714889	0.163538
	H18	H	0.597929	0.285562	0.836762
	H19	H	0.400041	0.284096	0.163318
	H20	H	0.714662	0.836835	0.401416
	H21	H	0.715106	0.161735	0.598403
	H22	H	0.284940	0.837159	0.598694
	H23	H	0.285096	0.162889	0.401117
	H24	H	0.903034	0.336866	0.214532
	H25	H	0.098493	0.663419	0.214566
	H26	H	0.098938	0.336800	0.785244
	H27	H	0.900774	0.662871	0.784154
	H28	H	0.214319	0.902439	0.336884
	H29	H	0.214968	0.099507	0.662904
	H30	H	0.785673	0.097284	0.336767
	H31	H	0.786151	0.902147	0.663571
	H32	H	0.336355	0.213875	0.901969
	H33	H	0.663431	0.214174	0.097664
	H34	H	0.336443	0.785740	0.098117
	H35	H	0.663306	0.785372	0.901426
	H36	H	0.336956	0.901358	0.215207
	H37	H	0.663891	0.097235	0.213557
	H38	H	0.336400	0.098155	0.785342
	H39	H	0.663246	0.901697	0.785106
	H40	H	0.900913	0.214982	0.337029
	H41	H	0.098192	0.214720	0.662948
	H42	H	0.098903	0.785041	0.337310
	H43	H	0.902566	0.785909	0.663526
	H44	H	0.214653	0.337428	0.902445
	H45	H	0.214112	0.663748	0.097172
	H46	H	0.785034	0.337031	0.099054
	H47	H	0.785176	0.663137	0.901842
	H48	H	0.407308	0.117501	0.599247
	H49	H	0.590355	0.882265	0.601414
	H50	H	0.598818	0.116231	0.410730
	H51	H	0.402126	0.882539	0.405001
	H52	H	0.591852	0.401854	0.117223
	H53	H	0.588916	0.590447	0.886252
	H54	H	0.406652	0.585742	0.113740
	H55	H	0.412058	0.412917	0.888066
	H56	H	0.111961	0.589963	0.418952
	H57	H	0.881711	0.590941	0.601899
	H58	H	0.116108	0.404766	0.589264
	H59	H	0.884829	0.416583	0.398050
	H60	H	0.115290	0.410792	0.592827
	H61	H	0.882087	0.601655	0.590177
	H62	H	0.116544	0.584188	0.398493
	H63	H	0.878780	0.394940	0.402569
	H64	H	0.413606	0.598252	0.114837
	H65	H	0.591267	0.598192	0.883435
	H66	H	0.597463	0.409277	0.116678
	H67	H	0.410526	0.398245	0.883241
	H68	H	0.594453	0.118109	0.400152
	H69	H	0.587612	0.886336	0.586954
	H70	H	0.412271	0.112829	0.589157
	H71	H	0.411110	0.884630	0.403896
	H72	H	0.904036	0.615642	0.090818
	H73	H	0.094054	0.383831	0.096024
	H74	H	0.095132	0.616137	0.906364
	H75	H	0.908790	0.382348	0.896762
	H76	H	0.095185	0.899628	0.619026
	H77	H	0.099879	0.096155	0.381494
	H78	H	0.908629	0.094508	0.615877
	H79	H	0.914333	0.911447	0.387072
	H80	H	0.614267	0.090032	0.907632
	H81	H	0.384740	0.090267	0.095525
	H82	H	0.615920	0.906156	0.090686
	H83	H	0.384667	0.910863	0.905827
	H84	H	0.616009	0.908469	0.093709
	H85	H	0.382172	0.096681	0.094133
	H86	H	0.617249	0.093893	0.902998
	H87	H	0.382532	0.903895	0.905776
	H88	H	0.906271	0.093575	0.615805
	H89	H	0.092285	0.085050	0.386175
	H90	H	0.098063	0.912673	0.616344
	H91	H	0.908729	0.896964	0.381459
	H92	H	0.093357	0.616488	0.904474
	H93	H	0.090603	0.385544	0.093106
	H94	H	0.906591	0.616590	0.096171
	H95	H	0.915222	0.389581	0.913029
	H96	H	0.400419	0.115423	0.589266
	H97	H	0.600944	0.881559	0.591132
	H98	H	0.587672	0.113176	0.408606
	H99	H	0.407311	0.885663	0.412010
	H100	H	0.588238	0.409988	0.114369
	H101	H	0.596724	0.591734	0.883653
	H102	H	0.399367	0.597648	0.119106
	H103	H	0.398287	0.407774	0.881879
	H104	H	0.119742	0.604659	0.404938
	H105	H	0.887363	0.586390	0.587733
	H106	H	0.117714	0.404920	0.595867
	H107	H	0.888370	0.408124	0.419465
	H108	H	0.910306	0.613683	0.091569
	H109	H	0.094936	0.384417	0.091481
	H110	H	0.092613	0.615314	0.906752
	H111	H	0.897235	0.383042	0.912201
	H112	H	0.085622	0.907893	0.613588
	H113	H	0.086226	0.096994	0.384159
	H114	H	0.907766	0.091644	0.615484
	H115	H	0.898655	0.909860	0.382496
	H116	H	0.616102	0.095975	0.908777
	H117	H	0.385058	0.092852	0.088862
	H118	H	0.616581	0.905168	0.094214
	H119	H	0.386009	0.907040	0.911701
	C120	C	0.377907	0.007847	0.621638
	C121	C	0.621763	0.991325	0.621541
	C122	C	0.621639	0.008031	0.378263
	C123	C	0.378831	0.991997	0.378530
	C124	C	0.620950	0.378551	0.008124
	C125	C	0.621136	0.621869	0.992180
	C126	C	0.378308	0.621931	0.007917
	C127	C	0.378331	0.378242	0.992199
	C128	C	0.008225	0.621463	0.378818
	C129	C	0.991567	0.621454	0.621722
	C130	C	0.008498	0.378506	0.621233
	C131	C	0.991809	0.378335	0.378358
	C132	C	0.878756	0.507714	0.121463
	C133	C	0.121994	0.492434	0.121762
	C134	C	0.121419	0.508243	0.878222
	C135	C	0.878467	0.492403	0.878537
	C136	C	0.121471	0.878484	0.508266
	C137	C	0.121324	0.121467	0.491733
	C138	C	0.878213	0.121821	0.508427
	C139	C	0.878422	0.878078	0.491622
	C140	C	0.507991	0.121678	0.878327
	C141	C	0.492056	0.121181	0.121147
	C142	C	0.508229	0.878394	0.121496
	C143	C	0.491917	0.878445	0.878469
	C144	C	0.380538	0.885730	0.676914
	C145	C	0.618891	0.113805	0.676290
	C146	C	0.619316	0.885783	0.323083
	C147	C	0.381732	0.114462	0.323462
	C148	C	0.676066	0.381596	0.885263
	C149	C	0.676172	0.618831	0.114819
	C150	C	0.324185	0.618048	0.884711
	C151	C	0.323109	0.381340	0.115294
	C152	C	0.885536	0.676482	0.381395
	C153	C	0.114443	0.676763	0.619348
	C154	C	0.885771	0.323126	0.619014
	C155	C	0.114790	0.323128	0.380478
	C156	C	0.885707	0.381028	0.676427
	C157	C	0.114510	0.618921	0.676791
	C158	C	0.885432	0.618767	0.323595
	C159	C	0.114917	0.381729	0.323680
	C160	C	0.381031	0.676674	0.885109
	C161	C	0.618387	0.676638	0.114909
	C162	C	0.618865	0.323281	0.885537
	C163	C	0.380044	0.322666	0.115042
	C164	C	0.676599	0.885491	0.380990
	C165	C	0.677146	0.113438	0.618996
	C166	C	0.322895	0.885528	0.619009
	C167	C	0.323493	0.114379	0.380928
	C168	C	0.882014	0.385480	0.176585
	C169	C	0.119096	0.614889	0.176673
	C170	C	0.118884	0.385586	0.823586
	C171	C	0.880644	0.614621	0.822893
	C172	C	0.176672	0.881430	0.385593
	C173	C	0.176878	0.119570	0.614301
	C174	C	0.823422	0.118523	0.385461
	C175	C	0.823895	0.881356	0.614818
	C176	C	0.385094	0.176463	0.881106
	C177	C	0.614879	0.176285	0.118506
	C178	C	0.385178	0.823786	0.118924
	C179	C	0.614676	0.823295	0.880828
	C180	C	0.385305	0.881526	0.176701
	C181	C	0.615067	0.118241	0.175913
	C182	C	0.385161	0.118880	0.823352
	C183	C	0.614634	0.881153	0.822999
	C184	C	0.880516	0.176916	0.385678
	C185	C	0.119217	0.177205	0.614095
	C186	C	0.119064	0.823474	0.385769
	C187	C	0.881163	0.823082	0.614648
	C188	C	0.176740	0.385804	0.881325
	C189	C	0.176431	0.615082	0.118489
	C190	C	0.823192	0.385565	0.119353
	C191	C	0.822918	0.614702	0.880841
	C192	C	0.400051	0.093352	0.599173
	C193	C	0.599531	0.905507	0.599650
	C194	C	0.599973	0.093729	0.400179
	C195	C	0.400401	0.906327	0.400615
	C196	C	0.599024	0.400568	0.093966
	C197	C	0.598941	0.599814	0.906296
	C198	C	0.400181	0.600232	0.093632
	C199	C	0.400481	0.399870	0.906633
	C200	C	0.093874	0.599468	0.400835
	C201	C	0.905810	0.599589	0.599899
	C202	C	0.094277	0.400392	0.599075
	C203	C	0.906072	0.400123	0.400343
	C204	C	0.900681	0.593360	0.099251
	C205	C	0.099858	0.406756	0.099955
	C206	C	0.099962	0.593889	0.899678
	C207	C	0.900615	0.407143	0.900787
	C208	C	0.099369	0.900226	0.594281
	C209	C	0.099239	0.099200	0.405951
	C210	C	0.900805	0.099598	0.593770
	C211	C	0.900648	0.899742	0.405711
	C212	C	0.593747	0.099930	0.900030
	C213	C	0.406176	0.099574	0.099314
	C214	C	0.594114	0.900139	0.099363
	C215	C	0.406373	0.900803	0.901128
	Zn216	Zn	0.500148	-0.000114	0.749984
	Zn217	Zn	0.500344	-0.000040	0.249574
	Zn218	Zn	0.749504	0.500087	0.000110
	Zn219	Zn	0.250189	0.500458	0.000349
	Zn220	Zn	0.000144	0.749816	0.500348
	Zn221	Zn	0.000321	0.250108	0.500036
	Zn222	Zn	-0.000119	0.499927	0.749375
	Zn223	Zn	0.000420	0.500051	0.250120
	Zn224	Zn	0.499719	0.750192	-0.000064
	Zn225	Zn	0.499751	0.249983	0.000249
	Zn226	Zn	0.750168	-0.000444	0.499784
	Zn227	Zn	0.249679	0.000306	0.500229
	N228	N	0.414035	0.962824	0.678577
	N229	N	0.585285	0.036737	0.677920
	N230	N	0.585862	0.962845	0.321327
	N231	N	0.415221	0.037389	0.321753
	N232	N	0.677271	0.415323	0.962564
	N233	N	0.677785	0.585484	0.037437
	N234	N	0.322447	0.584603	0.962093
	N235	N	0.321763	0.415179	0.038134
	N236	N	0.962765	0.678176	0.415029
	N237	N	0.037064	0.678436	0.585912
	N238	N	0.962906	0.321975	0.584964
	N239	N	0.037249	0.321007	0.413874
	N240	N	0.963114	0.414380	0.678092
	N241	N	0.037458	0.584882	0.677977
	N242	N	0.962755	0.585038	0.322001
	N243	N	0.037638	0.415125	0.322109
	N244	N	0.413714	0.679357	0.962728
	N245	N	0.584617	0.678301	0.037628
	N246	N	0.585098	0.321600	0.962810
	N247	N	0.413684	0.320776	0.037693
	N248	N	0.678021	0.962476	0.414902
	N249	N	0.678774	0.036236	0.585641
	N250	N	0.321282	0.962649	0.585307
	N251	N	0.321690	0.037268	0.414682
	N252	N	0.915635	0.462514	0.177953
	N253	N	0.086024	0.537516	0.178791
	N254	N	0.085125	0.462648	0.821623
	N255	N	0.914672	0.537661	0.821560
	N256	N	0.178201	0.915065	0.462819
	N257	N	0.178358	0.085649	0.537118
	N258	N	0.821949	0.084884	0.462545
	N259	N	0.821930	0.914425	0.537312
	N260	N	0.462419	0.178288	0.914544
	N261	N	0.537455	0.178068	0.085191
	N262	N	0.462523	0.821984	0.085148
	N263	N	0.537379	0.821616	0.914683
	N264	N	0.462814	0.914541	0.178449
	N265	N	0.537749	0.084525	0.177495
	N266	N	0.462537	0.085318	0.821466
	N267	N	0.537364	0.914701	0.821669
	N268	N	0.913982	0.179127	0.463144
	N269	N	0.085424	0.178289	0.536991
	N270	N	0.085782	0.821479	0.463141
	N271	N	0.914543	0.821143	0.537226
	N272	N	0.178337	0.462849	0.914962
	N273	N	0.178108	0.537975	0.084941
	N274	N	0.821269	0.462639	0.085690
	N275	N	0.821655	0.537888	0.914976
