data_Molecule from HDF5

_cell_length_a		16.408425
_cell_length_b		16.365388
_cell_length_c		16.426551
_cell_angle_alpha	89.949303
_cell_angle_beta	90.001665
_cell_angle_gamma	90.056481
_symmetry_space_group_name_H-M	'P 1'
_symmetry_Int_Tables_number		1

loop_
	_symmetry_equiv_pos_as_xyz
	x,y,z

loop_
	_atom_site_label
	_atom_site_type_symbol
	_atom_site_fract_x
	_atom_site_fract_y
	_atom_site_fract_z
	H0	H	0.393995	0.841277	0.721243
	H1	H	0.604103	0.160039	0.718115
	H2	H	0.602464	0.839506	0.279279
	H3	H	0.396557	0.159637	0.280525
	H4	H	0.722701	0.394732	0.841177
	H5	H	0.719228	0.603653	0.158221
	H6	H	0.278200	0.606909	0.840698
	H7	H	0.280592	0.395926	0.157705
	H8	H	0.840902	0.719886	0.394209
	H9	H	0.157137	0.723026	0.608612
	H10	H	0.840081	0.277572	0.606380
	H11	H	0.158376	0.276819	0.394956
	H12	H	0.842205	0.390368	0.725531
	H13	H	0.157749	0.606319	0.722166
	H14	H	0.841372	0.602940	0.279445
	H15	H	0.159864	0.393146	0.279054
	H16	H	0.394396	0.721968	0.839846
	H17	H	0.603585	0.720830	0.157339
	H18	H	0.606195	0.279156	0.840041
	H19	H	0.399307	0.281767	0.158384
	H20	H	0.718567	0.839285	0.395486
	H21	H	0.718988	0.159446	0.601557
	H22	H	0.276380	0.841952	0.607974
	H23	H	0.279471	0.158389	0.395309
	H24	H	0.898216	0.338921	0.217516
	H25	H	0.105778	0.660007	0.219578
	H26	H	0.102369	0.339499	0.781371
	H27	H	0.894046	0.659127	0.777531
	H28	H	0.220684	0.894289	0.340795
	H29	H	0.220828	0.103934	0.659212
	H30	H	0.781820	0.101680	0.339367
	H31	H	0.779908	0.895445	0.659003
	H32	H	0.340657	0.218358	0.896269
	H33	H	0.662229	0.216169	0.099660
	H34	H	0.339618	0.780773	0.100929
	H35	H	0.659543	0.779943	0.893562
	H36	H	0.340182	0.894639	0.219409
	H37	H	0.660254	0.101833	0.217127
	H38	H	0.340394	0.102790	0.780781
	H39	H	0.659615	0.896712	0.778849
	H40	H	0.894938	0.219498	0.340581
	H41	H	0.100891	0.217819	0.660288
	H42	H	0.103956	0.779095	0.340729
	H43	H	0.897552	0.780994	0.660388
	H44	H	0.219384	0.339819	0.896455
	H45	H	0.220093	0.660739	0.102483
	H46	H	0.781736	0.339280	0.102222
	H47	H	0.779869	0.659999	0.894524
	H48	H	0.414842	0.112694	0.590160
	H49	H	0.594775	0.885508	0.582859
	H50	H	0.594392	0.115741	0.407809
	H51	H	0.414996	0.886488	0.410646
	H52	H	0.588962	0.417765	0.109288
	H53	H	0.590284	0.591014	0.884602
	H54	H	0.406849	0.583728	0.111065
	H55	H	0.409253	0.412262	0.885158
	H56	H	0.113335	0.591892	0.414951
	H57	H	0.888349	0.587451	0.584130
	H58	H	0.109894	0.411853	0.584039
	H59	H	0.886345	0.404293	0.412632
	H60	H	0.112149	0.413927	0.593003
	H61	H	0.887839	0.583925	0.590210
	H62	H	0.112356	0.583735	0.410768
	H63	H	0.889515	0.415476	0.410248
	H64	H	0.419072	0.589116	0.109227
	H65	H	0.592022	0.587512	0.885137
	H66	H	0.584234	0.401574	0.113390
	H67	H	0.412448	0.411309	0.885583
	H68	H	0.589823	0.114893	0.404191
	H69	H	0.592185	0.882010	0.596757
	H70	H	0.411408	0.111955	0.584124
	H71	H	0.409096	0.885870	0.412525
	H72	H	0.906379	0.617116	0.093670
	H73	H	0.091814	0.384970	0.091777
	H74	H	0.084441	0.614009	0.905397
	H75	H	0.911946	0.386876	0.911207
	H76	H	0.087041	0.903782	0.614496
	H77	H	0.087855	0.088570	0.387341
	H78	H	0.902784	0.087512	0.615021
	H79	H	0.908324	0.912242	0.386604
	H80	H	0.616008	0.090430	0.904471
	H81	H	0.384715	0.092484	0.091858
	H82	H	0.607906	0.919109	0.081735
	H83	H	0.389107	0.914693	0.912935
	H84	H	0.615870	0.912967	0.099803
	H85	H	0.386510	0.092150	0.087900
	H86	H	0.615619	0.092708	0.909425
	H87	H	0.385471	0.911473	0.904966
	H88	H	0.911834	0.084308	0.611591
	H89	H	0.090617	0.089217	0.385940
	H90	H	0.095073	0.913744	0.613708
	H91	H	0.912297	0.907784	0.386502
	H92	H	0.088786	0.611616	0.916693
	H93	H	0.088832	0.386487	0.088992
	H94	H	0.917153	0.612742	0.092145
	H95	H	0.912404	0.388059	0.912735
	H96	H	0.408345	0.114680	0.589428
	H97	H	0.581006	0.887975	0.589116
	H98	H	0.589478	0.112857	0.409423
	H99	H	0.410784	0.883923	0.407392
	H100	H	0.599417	0.407203	0.116319
	H101	H	0.588203	0.588072	0.886251
	H102	H	0.408580	0.596053	0.114505
	H103	H	0.409969	0.409145	0.884394
	H104	H	0.115796	0.591007	0.406302
	H105	H	0.885604	0.590470	0.589323
	H106	H	0.113389	0.405460	0.589354
	H107	H	0.883653	0.409261	0.401877
	H108	H	0.909593	0.612155	0.082919
	H109	H	0.093424	0.386715	0.087919
	H110	H	0.096141	0.617076	0.908393
	H111	H	0.911130	0.386237	0.912082
	H112	H	0.083322	0.915389	0.609520
	H113	H	0.089597	0.085590	0.387591
	H114	H	0.911018	0.094343	0.614955
	H115	H	0.906790	0.906498	0.385467
	H116	H	0.613971	0.088100	0.908861
	H117	H	0.386325	0.088916	0.091169
	H118	H	0.615355	0.900124	0.084142
	H119	H	0.385650	0.905844	0.911850
	C120	C	0.378656	0.008444	0.620603
	C121	C	0.620553	0.991270	0.619963
	C122	C	0.621911	0.008295	0.376531
	C123	C	0.379304	0.990726	0.378118
	C124	C	0.622529	0.377856	0.007571
	C125	C	0.621895	0.621401	0.990235
	C126	C	0.378890	0.621946	0.007157
	C127	C	0.379312	0.378729	0.990069
	C128	C	0.008585	0.620793	0.378471
	C129	C	0.991348	0.620496	0.621255
	C130	C	0.007051	0.377895	0.621717
	C131	C	0.991575	0.377193	0.377329
	C132	C	0.879697	0.508085	0.120721
	C133	C	0.123300	0.491545	0.121508
	C134	C	0.121012	0.508339	0.878766
	C135	C	0.878909	0.492021	0.878465
	C136	C	0.121206	0.878206	0.508045
	C137	C	0.120684	0.120342	0.491824
	C138	C	0.877080	0.120750	0.508555
	C139	C	0.878145	0.877569	0.491528
	C140	C	0.509304	0.121546	0.877012
	C141	C	0.492015	0.121604	0.120602
	C142	C	0.507724	0.878514	0.120026
	C143	C	0.491605	0.878549	0.876986
	C144	C	0.375718	0.889093	0.681480
	C145	C	0.622849	0.111687	0.678859
	C146	C	0.621993	0.887602	0.318439
	C147	C	0.377538	0.111151	0.319339
	C148	C	0.682502	0.376519	0.888310
	C149	C	0.680142	0.622849	0.110467
	C150	C	0.318226	0.624869	0.887973
	C151	C	0.320471	0.377401	0.110053
	C152	C	0.888986	0.680240	0.376094
	C153	C	0.109782	0.682381	0.625654
	C154	C	0.887944	0.317329	0.624391
	C155	C	0.111036	0.316730	0.376150
	C156	C	0.889029	0.373722	0.683785
	C157	C	0.110209	0.624058	0.682139
	C158	C	0.889249	0.621927	0.318809
	C159	C	0.111541	0.374715	0.318313
	C160	C	0.376615	0.681738	0.887452
	C161	C	0.622570	0.680913	0.109861
	C162	C	0.624481	0.318850	0.887809
	C163	C	0.379213	0.320125	0.110262
	C164	C	0.679579	0.887376	0.376326
	C165	C	0.679853	0.111517	0.620563
	C166	C	0.317473	0.889171	0.624719
	C167	C	0.319401	0.110636	0.376658
	C168	C	0.879412	0.387065	0.178417
	C169	C	0.124268	0.612212	0.180161
	C170	C	0.121810	0.387653	0.820156
	C171	C	0.876090	0.611370	0.817623
	C172	C	0.181397	0.875570	0.388694
	C173	C	0.180547	0.122730	0.611479
	C174	C	0.819962	0.120879	0.387697
	C175	C	0.819416	0.876583	0.611562
	C176	C	0.388744	0.179640	0.876956
	C177	C	0.613425	0.178083	0.119732
	C178	C	0.387696	0.819594	0.120453
	C179	C	0.611549	0.819327	0.874940
	C180	C	0.387885	0.876240	0.179562
	C181	C	0.612526	0.121417	0.178364
	C182	C	0.388673	0.121795	0.819467
	C183	C	0.611543	0.877214	0.817615
	C184	C	0.876310	0.179736	0.388426
	C185	C	0.121020	0.179249	0.612259
	C186	C	0.122890	0.818492	0.388511
	C187	C	0.877896	0.819591	0.612106
	C188	C	0.179802	0.387828	0.877546
	C189	C	0.181517	0.612401	0.122148
	C190	C	0.821273	0.387325	0.121009
	C191	C	0.818931	0.611840	0.875723
	C192	C	0.404191	0.091553	0.595135
	C193	C	0.596096	0.907046	0.596339
	C194	C	0.598212	0.092587	0.400347
	C195	C	0.404513	0.907232	0.402984
	C196	C	0.598012	0.401999	0.091407
	C197	C	0.597394	0.596140	0.907058
	C198	C	0.404138	0.596631	0.089961
	C199	C	0.403521	0.403592	0.906766
	C200	C	0.092158	0.596067	0.403499
	C201	C	0.908810	0.594471	0.595287
	C202	C	0.090150	0.403239	0.595902
	C203	C	0.908153	0.402353	0.401498
	C204	C	0.904089	0.592034	0.096723
	C205	C	0.098517	0.407941	0.096794
	C206	C	0.096875	0.592074	0.903130
	C207	C	0.904493	0.408902	0.904522
	C208	C	0.095943	0.903749	0.590902
	C209	C	0.096326	0.095287	0.408704
	C210	C	0.901324	0.095847	0.592020
	C211	C	0.902130	0.901862	0.408024
	C212	C	0.593493	0.097467	0.900720
	C213	C	0.407937	0.097993	0.097163
	C214	C	0.591202	0.903545	0.095633
	C215	C	0.408257	0.903632	0.902373
	Zn216	Zn	0.500176	0.000216	0.748816
	Zn217	Zn	0.499692	-0.000122	0.248898
	Zn218	Zn	0.750704	0.500185	-0.000260
	Zn219	Zn	0.250516	0.500660	-0.001043
	Zn220	Zn	-0.000196	0.749191	0.500524
	Zn221	Zn	-0.001225	0.248934	0.499713
	Zn222	Zn	-0.000007	0.499741	0.750260
	Zn223	Zn	0.001104	0.499864	0.249176
	Zn224	Zn	0.500252	0.750158	-0.001785
	Zn225	Zn	0.500925	0.249280	-0.001476
	Zn226	Zn	0.749390	-0.001365	0.499426
	Zn227	Zn	0.250584	-0.000650	0.499714
	N228	N	0.413154	0.964276	0.679171
	N229	N	0.586729	0.035735	0.678666
	N230	N	0.586928	0.963900	0.318467
	N231	N	0.413917	0.035509	0.320045
	N232	N	0.681164	0.412690	0.963882
	N233	N	0.679882	0.586542	0.035051
	N234	N	0.319580	0.588195	0.963236
	N235	N	0.320169	0.412893	0.034290
	N236	N	0.964645	0.680010	0.412248
	N237	N	0.035010	0.680224	0.588103
	N238	N	0.962500	0.319848	0.586586
	N239	N	0.035231	0.317783	0.411696
	N240	N	0.964230	0.410833	0.682123
	N241	N	0.035563	0.586076	0.679630
	N242	N	0.964696	0.585944	0.320155
	N243	N	0.036237	0.411401	0.318616
	N244	N	0.413726	0.680044	0.962460
	N245	N	0.587222	0.680110	0.034056
	N246	N	0.587872	0.319708	0.962931
	N247	N	0.415132	0.320814	0.034625
	N248	N	0.679776	0.963449	0.411632
	N249	N	0.678469	0.035649	0.584705
	N250	N	0.319257	0.964347	0.587481
	N251	N	0.320300	0.034783	0.412571
	N252	N	0.915084	0.463180	0.178297
	N253	N	0.089212	0.535765	0.180540
	N254	N	0.086264	0.463686	0.820531
	N255	N	0.912494	0.535662	0.819068
	N256	N	0.180570	0.911872	0.464163
	N257	N	0.180492	0.086714	0.535838
	N258	N	0.819942	0.085262	0.463665
	N259	N	0.819162	0.911579	0.535485
	N260	N	0.465018	0.179758	0.911765
	N261	N	0.537365	0.178570	0.084708
	N262	N	0.463349	0.820892	0.084327
	N263	N	0.535981	0.819945	0.910999
	N264	N	0.463482	0.912339	0.179469
	N265	N	0.536056	0.086977	0.179070
	N266	N	0.464676	0.086631	0.819358
	N267	N	0.535943	0.913562	0.819031
	N268	N	0.910996	0.179807	0.464493
	N269	N	0.084679	0.178026	0.536844
	N270	N	0.086680	0.819537	0.463907
	N271	N	0.913658	0.819988	0.536439
	N272	N	0.179802	0.463959	0.912906
	N273	N	0.181235	0.536440	0.086792
	N274	N	0.821144	0.463717	0.086068
	N275	N	0.820619	0.536594	0.912922
	O276	O	0.632629	0.329833	0.398402
	H277	H	0.639023	0.339101	0.379191
	H278	H	0.631354	0.300253	0.401815
	O279	O	0.300535	0.400588	0.611122
	H280	H	0.326386	0.394108	0.619576
	H281	H	0.289027	0.394041	0.617582
	O282	O	0.302185	0.704709	0.432690
	H283	H	0.298097	0.717186	0.430725
	H284	H	0.298768	0.687928	0.401590
	O285	O	0.850891	-0.059622	0.126432
	H286	H	0.844383	-0.071046	0.118825
	H287	H	0.848448	-0.060672	0.120254
	O288	O	0.004149	-0.019662	0.864785
	H289	H	0.012178	-0.034723	0.883349
	H290	H	-0.002184	-0.025851	0.863272
	O291	O	0.507887	0.636232	0.309304
	H292	H	0.502633	0.635682	0.301886
	H293	H	0.505508	0.637709	0.318532
	O294	O	0.638450	0.541279	0.476551
	H295	H	0.644824	0.539814	0.477325
	H296	H	0.650801	0.555066	0.476876
	O297	O	1.032868	1.139000	1.048189
	H298	H	1.044208	1.135159	1.051049
	H299	H	1.038038	1.150494	1.054148
	O300	O	-0.106340	-0.016041	0.108066
	H301	H	-0.101430	-0.008826	0.110978
	H302	H	-0.132504	-0.013533	0.115860
	O303	O	0.660586	0.314642	0.499923
	H304	H	0.671374	0.303995	0.483831
	H305	H	0.663157	0.317365	0.480237
	O306	O	1.149697	0.104140	-0.082440
	H307	H	1.141719	0.095331	-0.074010
	H308	H	1.149836	0.098287	-0.091047
	O309	O	0.662940	0.515861	0.699873
	H310	H	0.651433	0.506599	0.676733
	H311	H	0.693304	0.513275	0.716013
	O312	O	0.314586	1.629117	-0.461076
	H313	H	0.293043	1.630964	-0.468787
	H314	H	0.326063	1.631792	-0.484480
	O315	O	0.367227	0.517598	0.678309
	H316	H	0.366087	0.518789	0.682230
	H317	H	0.360473	0.498787	0.678303
	O318	O	0.676946	0.676276	0.676853
	H319	H	0.685883	0.634250	0.682943
	H320	H	0.624776	0.688589	0.689114
	O321	O	1.008812	0.093964	0.838826
	H322	H	1.019579	0.088078	0.835128
	H323	H	1.002248	0.081808	0.838107
	O324	O	-0.007820	0.099894	0.935345
	H325	H	-0.014131	0.113848	0.927597
	H326	H	0.001426	0.100866	0.942640
	O327	O	0.447603	0.395055	0.475996
	H328	H	0.445618	0.393867	0.499457
	H329	H	0.438666	0.384575	0.478017
	O330	O	0.456801	0.420871	0.593018
	H331	H	0.458613	0.415146	0.597458
	H332	H	0.475416	0.417579	0.582578
	O333	O	1.035578	0.897335	0.935745
	H334	H	1.027909	0.888744	0.944384
	H335	H	1.043716	0.901206	0.934942
	O336	O	0.520963	0.695054	0.552738
	H337	H	0.522910	0.700905	0.544607
	H338	H	0.514507	0.692655	0.562449
	O339	O	1.298616	-0.524044	1.384260
	H340	H	1.307073	-0.524561	1.403523
	H341	H	1.299988	-0.528275	1.395785
	O342	O	-0.141576	1.100776	1.019152
	H343	H	-0.116703	1.100606	1.015601
	H344	H	-0.145574	1.103341	1.026832
	O345	O	0.072696	1.043749	0.980604
	H346	H	0.073658	1.036255	0.970579
	H347	H	0.072443	1.051492	0.987343
	O348	O	0.449787	0.457732	0.700296
	H349	H	0.468076	0.471182	0.695289
	H350	H	0.443978	0.448585	0.703367
	O351	O	0.073756	-0.064633	0.119793
	H352	H	0.066182	-0.082173	0.131503
	H353	H	0.065768	-0.041186	0.125640
	O354	O	1.165385	1.182911	0.165349
	H355	H	1.173485	1.176335	0.167594
	H356	H	1.174957	1.180740	0.142746
	O357	O	-0.188903	0.883208	0.165006
	H358	H	-0.193735	0.873105	0.148077
	H359	H	-0.181901	0.880660	0.171888
	O360	O	0.487485	0.701426	0.645776
	H361	H	0.492837	0.708535	0.655907
	H362	H	0.457002	0.688133	0.632128
	O363	O	0.400028	0.350251	0.306660
	H364	H	0.397314	0.351479	0.322656
	H365	H	0.405757	0.341574	0.302051
	O366	O	0.068900	0.912802	0.199664
	H367	H	0.054280	0.919144	0.202683
	H368	H	0.065775	0.917301	0.209459
	O369	O	0.444781	0.614353	0.375354
	H370	H	0.438179	0.619512	0.373517
	H371	H	0.447973	0.611788	0.386964
	O372	O	0.621216	0.370059	0.647557
	H373	H	0.623372	0.387030	0.638867
	H374	H	0.619872	0.375328	0.639932
	O375	O	0.675316	0.354285	0.325992
	H376	H	0.666028	0.346006	0.318449
	H377	H	0.664116	0.366434	0.314086
	O378	O	0.609732	0.596783	0.346246
	H379	H	0.596297	0.597896	0.346186
	H380	H	0.612318	0.600967	0.362405
	O381	O	0.573272	0.468399	0.332527
	H382	H	0.583581	0.472995	0.348956
	H383	H	0.572009	0.484466	0.331755
	O384	O	0.121174	0.890896	0.969810
	H385	H	0.117716	0.890640	0.986310
	H386	H	0.113597	0.883997	0.971265
	O387	O	1.308177	0.417926	-0.425794
	H388	H	1.305646	0.408412	-0.425058
	H389	H	1.299274	0.423745	-0.404616
	O390	O	0.652989	0.528246	0.533879
	H391	H	0.651057	0.513848	0.535029
	H392	H	0.657072	0.532366	0.530859
	O393	O	0.888232	-0.093054	1.029746
	H394	H	0.889893	-0.088335	1.045995
	H395	H	0.889476	-0.101540	1.036215
	O396	O	0.085133	1.046575	0.917257
	H397	H	0.090177	1.049381	0.904615
	H398	H	0.084727	1.058129	0.934657
	O399	O	0.304785	0.582271	0.301288
	H400	H	0.321487	0.572732	0.299361
	H401	H	0.292386	0.567818	0.285545
	O402	O	0.885025	-0.208881	1.078511
	H403	H	0.877700	-0.216173	1.077911
	H404	H	0.879076	-0.205842	1.080206
	O405	O	0.178742	0.018663	0.140145
	H406	H	0.201906	0.021962	0.158809
	H407	H	0.152474	0.010978	0.145810
	O408	O	1.065856	1.088469	1.047958
	H409	H	1.084207	1.089663	1.048808
	H410	H	1.066383	1.084291	1.042521
	O411	O	0.477236	0.303274	0.474858
	H412	H	0.472337	0.306245	0.490359
	H413	H	0.487729	0.302864	0.497166
	O414	O	-0.012876	-0.083165	0.841259
	H415	H	-0.006354	-0.094434	0.836675
	H416	H	-0.011040	-0.084981	0.853756
	O417	O	0.403256	0.299548	0.699768
	H418	H	0.443830	0.302997	0.703361
	H419	H	0.407154	0.305401	0.720205
	O420	O	0.697732	1.714079	-0.483795
	H421	H	0.718462	1.731047	-0.469812
	H422	H	0.696039	1.720319	-0.444084
	O423	O	0.831923	-0.060940	-0.118475
	H424	H	0.828575	-0.059574	-0.100863
	H425	H	0.825105	-0.070179	-0.133130
	O426	O	-0.111432	0.136007	1.019402
	H427	H	-0.109121	0.134897	1.012580
	H428	H	-0.109876	0.152199	1.028011
	O429	O	0.497453	0.415579	0.377296
	H430	H	0.497211	0.426202	0.375671
	H431	H	0.475073	0.409889	0.367801
