data_Molecule from HDF5

_cell_length_a		16.334012
_cell_length_b		16.368891
_cell_length_c		16.287526
_cell_angle_alpha	89.891601
_cell_angle_beta	90.138772
_cell_angle_gamma	89.847887
_symmetry_space_group_name_H-M	'P 1'
_symmetry_Int_Tables_number		1

loop_
	_symmetry_equiv_pos_as_xyz
	x,y,z

loop_
	_atom_site_label
	_atom_site_type_symbol
	_atom_site_fract_x
	_atom_site_fract_y
	_atom_site_fract_z
	H0	H	0.406930	0.838948	0.719824
	H1	H	0.601688	0.164884	0.720150
	H2	H	0.603400	0.839224	0.291682
	H3	H	0.404914	0.165120	0.289474
	H4	H	0.717371	0.403622	0.841772
	H5	H	0.719573	0.599840	0.169335
	H6	H	0.288405	0.601947	0.842356
	H7	H	0.289739	0.402871	0.169395
	H8	H	0.842211	0.718864	0.405510
	H9	H	0.167580	0.715879	0.604240
	H10	H	0.841551	0.287320	0.604839
	H11	H	0.166970	0.286193	0.407031
	H12	H	0.840380	0.405046	0.718855
	H13	H	0.167564	0.598143	0.719536
	H14	H	0.840711	0.601842	0.290856
	H15	H	0.167017	0.402759	0.290926
	H16	H	0.404311	0.718250	0.842783
	H17	H	0.603343	0.714902	0.169720
	H18	H	0.602474	0.286699	0.842022
	H19	H	0.405397	0.286140	0.169161
	H20	H	0.720684	0.839345	0.407318
	H21	H	0.718394	0.165265	0.603952
	H22	H	0.289894	0.839563	0.604138
	H23	H	0.287224	0.164454	0.404759
	H24	H	0.904896	0.339858	0.221994
	H25	H	0.101561	0.664994	0.220663
	H26	H	0.102097	0.338713	0.792066
	H27	H	0.905018	0.665147	0.790319
	H28	H	0.219720	0.903003	0.342914
	H29	H	0.217567	0.099137	0.669583
	H30	H	0.789246	0.100675	0.342370
	H31	H	0.791996	0.904557	0.669430
	H32	H	0.341368	0.216397	0.906557
	H33	H	0.667421	0.216032	0.104323
	H34	H	0.341799	0.785562	0.106656
	H35	H	0.667179	0.785320	0.907294
	H36	H	0.341249	0.903475	0.220477
	H37	H	0.668310	0.098098	0.219599
	H38	H	0.341013	0.100106	0.791073
	H39	H	0.667767	0.903121	0.792007
	H40	H	0.904049	0.218443	0.342783
	H41	H	0.102731	0.215981	0.669144
	H42	H	0.103384	0.787278	0.342285
	H43	H	0.906195	0.786711	0.668443
	H44	H	0.219807	0.339248	0.907777
	H45	H	0.220541	0.664168	0.106964
	H46	H	0.790252	0.338472	0.103846
	H47	H	0.787900	0.664269	0.906676
	H48	H	0.408008	0.118250	0.597597
	H49	H	0.594971	0.888146	0.597836
	H50	H	0.603835	0.121676	0.406620
	H51	H	0.405132	0.887531	0.421304
	H52	H	0.595879	0.401848	0.123048
	H53	H	0.591806	0.595877	0.891310
	H54	H	0.413467	0.586694	0.119097
	H55	H	0.409999	0.406397	0.888986
	H56	H	0.119931	0.593803	0.415350
	H57	H	0.889856	0.591709	0.595332
	H58	H	0.119813	0.412394	0.603301
	H59	H	0.887370	0.412527	0.407048
	H60	H	0.122356	0.403016	0.600252
	H61	H	0.887761	0.595271	0.601270
	H62	H	0.120387	0.592604	0.409795
	H63	H	0.887004	0.403487	0.415890
	H64	H	0.418541	0.597126	0.120017
	H65	H	0.599229	0.596595	0.888239
	H66	H	0.603687	0.411190	0.123010
	H67	H	0.408611	0.409972	0.890096
	H68	H	0.587311	0.115068	0.409406
	H69	H	0.603612	0.885676	0.596616
	H70	H	0.410966	0.118843	0.600916
	H71	H	0.408558	0.883192	0.404165
	H72	H	0.910746	0.616462	0.093946
	H73	H	0.093740	0.386366	0.105220
	H74	H	0.091672	0.617475	0.908551
	H75	H	0.904394	0.385725	0.915332
	H76	H	0.099264	0.906494	0.622925
	H77	H	0.099847	0.097267	0.387635
	H78	H	0.921165	0.093432	0.618414
	H79	H	0.908437	0.911298	0.388240
	H80	H	0.623827	0.090927	0.895599
	H81	H	0.390775	0.090400	0.095685
	H82	H	0.618638	0.916513	0.102431
	H83	H	0.388032	0.902228	0.918323
	H84	H	0.623845	0.900817	0.104810
	H85	H	0.387199	0.094855	0.102495
	H86	H	0.623780	0.111300	0.918523
	H87	H	0.392948	0.917472	0.916780
	H88	H	0.908854	0.105685	0.625931
	H89	H	0.095494	0.091195	0.391054
	H90	H	0.098192	0.910945	0.621414
	H91	H	0.914818	0.912719	0.391609
	H92	H	0.096014	0.615347	0.918513
	H93	H	0.093487	0.389883	0.092644
	H94	H	0.906973	0.619116	0.098887
	H95	H	0.912280	0.384650	0.904400
	H96	H	0.412270	0.116878	0.596933
	H97	H	0.599465	0.884405	0.604890
	H98	H	0.599446	0.115230	0.423080
	H99	H	0.421515	0.890409	0.414679
	H100	H	0.592303	0.412569	0.118195
	H101	H	0.596356	0.589394	0.890923
	H102	H	0.407062	0.595815	0.123438
	H103	H	0.412806	0.408891	0.890227
	H104	H	0.121214	0.598423	0.412000
	H105	H	0.888094	0.598585	0.594811
	H106	H	0.118704	0.409676	0.594207
	H107	H	0.891761	0.414446	0.418779
	H108	H	0.913432	0.616718	0.100656
	H109	H	0.104764	0.384474	0.097839
	H110	H	0.102253	0.619439	0.910536
	H111	H	0.916968	0.388710	0.916258
	H112	H	0.095105	0.908014	0.621768
	H113	H	0.092015	0.098122	0.389076
	H114	H	0.903714	0.088057	0.622634
	H115	H	0.913241	0.906009	0.388540
	H116	H	0.613718	0.082269	0.923168
	H117	H	0.388993	0.098601	0.094588
	H118	H	0.617852	0.905944	0.089917
	H119	H	0.385885	0.909893	0.904213
	C120	C	0.382538	0.010287	0.626850
	C121	C	0.626805	0.993897	0.627997
	C122	C	0.626007	0.010140	0.384344
	C123	C	0.382615	0.994333	0.383716
	C124	C	0.625372	0.380117	0.013446
	C125	C	0.625317	0.622618	0.997986
	C126	C	0.382950	0.622950	0.013619
	C127	C	0.382415	0.379928	0.997674
	C128	C	0.012559	0.624032	0.383818
	C129	C	0.996179	0.623499	0.626462
	C130	C	0.012402	0.380133	0.627725
	C131	C	0.996090	0.380581	0.384539
	C132	C	0.882348	0.509754	0.126543
	C133	C	0.125991	0.494042	0.127458
	C134	C	0.125531	0.509990	0.884411
	C135	C	0.882090	0.493715	0.883415
	C136	C	0.126104	0.880238	0.514083
	C137	C	0.124790	0.123296	0.497357
	C138	C	0.882421	0.124252	0.514175
	C139	C	0.883603	0.880855	0.497217
	C140	C	0.512636	0.123423	0.883673
	C141	C	0.496643	0.123212	0.126787
	C142	C	0.512335	0.879448	0.128033
	C143	C	0.496370	0.880337	0.884424
	C144	C	0.385912	0.887699	0.682006
	C145	C	0.623197	0.116273	0.682698
	C146	C	0.624205	0.887948	0.329260
	C147	C	0.384191	0.116336	0.327221
	C148	C	0.679879	0.382666	0.890606
	C149	C	0.681056	0.619911	0.120616
	C150	C	0.326785	0.621727	0.891084
	C151	C	0.327636	0.382551	0.120769
	C152	C	0.890378	0.680139	0.385509
	C153	C	0.119036	0.677923	0.624359
	C154	C	0.890116	0.325455	0.624957
	C155	C	0.118272	0.324631	0.386762
	C156	C	0.889506	0.383821	0.681700
	C157	C	0.118863	0.619826	0.681886
	C158	C	0.889826	0.622020	0.328477
	C159	C	0.118367	0.382566	0.329131
	C160	C	0.384250	0.679515	0.891239
	C161	C	0.623198	0.677210	0.120863
	C162	C	0.622593	0.324704	0.890897
	C163	C	0.384985	0.324466	0.120617
	C164	C	0.682381	0.888055	0.386758
	C165	C	0.681447	0.116338	0.625349
	C166	C	0.327615	0.888079	0.624470
	C167	C	0.325791	0.116118	0.384800
	C168	C	0.884966	0.387706	0.182923
	C169	C	0.122774	0.616431	0.182934
	C170	C	0.122974	0.387373	0.829574
	C171	C	0.884003	0.616263	0.827799
	C172	C	0.181506	0.882632	0.391386
	C173	C	0.180337	0.120405	0.620322
	C174	C	0.826891	0.121929	0.391133
	C175	C	0.828938	0.883134	0.620342
	C176	C	0.389959	0.178680	0.885950
	C177	C	0.618997	0.178134	0.124987
	C178	C	0.390229	0.824043	0.126293
	C179	C	0.618815	0.824204	0.887106
	C180	C	0.390050	0.882566	0.183045
	C181	C	0.619395	0.119568	0.181994
	C182	C	0.389715	0.120546	0.828910
	C183	C	0.619107	0.882576	0.829631
	C184	C	0.884032	0.180171	0.391332
	C185	C	0.123185	0.178197	0.620364
	C186	C	0.124014	0.824908	0.391206
	C187	C	0.885636	0.824687	0.619695
	C188	C	0.181343	0.387711	0.887174
	C189	C	0.181833	0.616033	0.126246
	C190	C	0.827906	0.387190	0.124306
	C191	C	0.826143	0.615871	0.885756
	C192	C	0.404177	0.095926	0.604799
	C193	C	0.605627	0.908314	0.606230
	C194	C	0.603291	0.095251	0.406563
	C195	C	0.405285	0.909180	0.406481
	C196	C	0.603500	0.402058	0.099262
	C197	C	0.602558	0.600406	0.912169
	C198	C	0.406194	0.600034	0.098904
	C199	C	0.404111	0.401933	0.911919
	C200	C	0.098209	0.601612	0.405944
	C201	C	0.910706	0.601644	0.603714
	C202	C	0.098277	0.401869	0.605785
	C203	C	0.910733	0.403458	0.407319
	C204	C	0.903855	0.595295	0.104323
	C205	C	0.103875	0.408990	0.105002
	C206	C	0.103086	0.595286	0.906261
	C207	C	0.904728	0.408443	0.905620
	C208	C	0.103840	0.901981	0.599777
	C209	C	0.102380	0.101708	0.411578
	C210	C	0.904715	0.102261	0.599905
	C211	C	0.905719	0.903376	0.411618
	C212	C	0.598143	0.101363	0.905957
	C213	C	0.411076	0.101247	0.104069
	C214	C	0.598049	0.901299	0.105686
	C215	C	0.411170	0.903026	0.906679
	Zn216	Zn	0.504585	0.001913	0.755769
	Zn217	Zn	0.504535	0.001775	0.255279
	Zn218	Zn	0.753623	0.501478	0.005393
	Zn219	Zn	0.254615	0.502272	0.005828
	Zn220	Zn	0.004737	0.752334	0.505232
	Zn221	Zn	0.004218	0.251781	0.506197
	Zn222	Zn	0.003801	0.502088	0.755019
	Zn223	Zn	0.003916	0.502402	0.255755
	Zn224	Zn	0.503998	0.751403	0.006330
	Zn225	Zn	0.504022	0.251583	0.005430
	Zn226	Zn	0.755258	0.002068	0.505848
	Zn227	Zn	0.253470	0.002321	0.505297
	N228	N	0.419433	0.964703	0.683585
	N229	N	0.589925	0.039192	0.684289
	N230	N	0.589846	0.964745	0.327698
	N231	N	0.418578	0.039560	0.326298
	N232	N	0.681739	0.416441	0.967730
	N233	N	0.682275	0.586458	0.043148
	N234	N	0.325896	0.587273	0.968210
	N235	N	0.325978	0.416353	0.043314
	N236	N	0.967611	0.681411	0.419195
	N237	N	0.041620	0.680268	0.590631
	N238	N	0.967595	0.323070	0.592168
	N239	N	0.041105	0.323238	0.420380
	N240	N	0.966705	0.417234	0.683252
	N241	N	0.041608	0.586761	0.683201
	N242	N	0.966953	0.587753	0.327363
	N243	N	0.041264	0.416685	0.327647
	N244	N	0.418588	0.680284	0.968382
	N245	N	0.589280	0.678929	0.043428
	N246	N	0.589335	0.323236	0.968514
	N247	N	0.418424	0.322807	0.043195
	N248	N	0.683676	0.964994	0.420280
	N249	N	0.683856	0.039332	0.591981
	N250	N	0.325571	0.965302	0.590931
	N251	N	0.324534	0.039213	0.418996
	N252	N	0.918083	0.464872	0.184443
	N253	N	0.088936	0.539645	0.183860
	N254	N	0.088821	0.464386	0.827811
	N255	N	0.918084	0.539265	0.826293
	N256	N	0.182590	0.916476	0.468532
	N257	N	0.181394	0.087019	0.542835
	N258	N	0.825911	0.087880	0.468324
	N259	N	0.827589	0.917464	0.543296
	N260	N	0.467311	0.180465	0.919355
	N261	N	0.541752	0.180309	0.091441
	N262	N	0.467387	0.822119	0.092730
	N263	N	0.541545	0.822675	0.920562
	N264	N	0.467000	0.916351	0.184012
	N265	N	0.542109	0.086285	0.183293
	N266	N	0.467021	0.086898	0.827334
	N267	N	0.542045	0.916759	0.827976
	N268	N	0.917791	0.181770	0.468877
	N269	N	0.089154	0.179984	0.543078
	N270	N	0.090221	0.823407	0.468529
	N271	N	0.919044	0.823320	0.542267
	N272	N	0.183147	0.464929	0.920244
	N273	N	0.184031	0.539017	0.092489
	N274	N	0.826088	0.464192	0.090119
	N275	N	0.824536	0.538743	0.919297
	O276	O	0.554409	0.501196	0.505615
	H277	H	0.555896	0.498663	0.509006
	H278	H	0.558118	0.511414	0.510852
	O279	O	0.067180	0.069946	0.007150
	H280	H	0.059542	0.066589	0.011844
	H281	H	0.067737	0.073434	0.008218
	O282	O	0.543370	0.516385	0.432116
	H283	H	0.540990	0.525233	0.426419
	H284	H	0.534137	0.513049	0.440954
	O285	O	0.544081	0.502638	0.444917
	H286	H	0.541629	0.502394	0.444458
	H287	H	0.548056	0.503402	0.437676
	O288	O	1.075167	0.060887	0.033722
	H289	H	1.083635	0.072641	0.025197
	H290	H	1.070258	0.069889	0.027520
	O291	O	-0.486323	0.483933	-0.538010
	H292	H	-0.479442	0.476907	-0.535442
	H293	H	-0.483391	0.482026	-0.543555
	O294	O	0.485303	0.549313	0.419929
	H295	H	0.484251	0.539966	0.417417
	H296	H	0.484884	0.544961	0.424489
	O297	O	0.027648	1.053616	0.012235
	H298	H	0.025933	1.049656	0.007768
	H299	H	0.028858	1.062213	0.005851
	O300	O	0.808939	0.229720	0.774474
	H301	H	0.813173	0.225671	0.774265
	H302	H	0.804369	0.232361	0.774650
	O303	O	0.523856	0.511847	0.511192
	H304	H	0.527201	0.511008	0.510898
	H305	H	0.521376	0.513269	0.505211
	O306	O	0.030868	1.082336	1.015784
	H307	H	0.033871	1.075894	1.023181
	H308	H	0.036878	1.083516	1.028736
	O309	O	0.543383	0.524044	0.481802
	H310	H	0.542254	0.526837	0.477649
	H311	H	0.546954	0.527826	0.476208
