data_Molecule from HDF5

_cell_length_a		16.210642
_cell_length_b		16.387781
_cell_length_c		16.319058
_cell_angle_alpha	89.853435
_cell_angle_beta	89.896473
_cell_angle_gamma	89.968614
_symmetry_space_group_name_H-M	'P 1'
_symmetry_Int_Tables_number		1

loop_
	_symmetry_equiv_pos_as_xyz
	x,y,z

loop_
	_atom_site_label
	_atom_site_type_symbol
	_atom_site_fract_x
	_atom_site_fract_y
	_atom_site_fract_z
	H0	H	0.395752	0.835333	0.717259
	H1	H	0.596446	0.159938	0.716531
	H2	H	0.596828	0.835312	0.285257
	H3	H	0.396551	0.159490	0.284183
	H4	H	0.710100	0.401276	0.836749
	H5	H	0.708328	0.593957	0.164573
	H6	H	0.283778	0.596088	0.836703
	H7	H	0.280981	0.400266	0.164072
	H8	H	0.831621	0.712654	0.402055
	H9	H	0.159294	0.712457	0.599474
	H10	H	0.831028	0.283662	0.600912
	H11	H	0.159202	0.283922	0.400819
	H12	H	0.831287	0.399378	0.716555
	H13	H	0.159675	0.596525	0.714573
	H14	H	0.831064	0.597710	0.286968
	H15	H	0.159808	0.402469	0.287410
	H16	H	0.396373	0.714690	0.838017
	H17	H	0.596317	0.713495	0.162814
	H18	H	0.596792	0.282134	0.837581
	H19	H	0.394694	0.280845	0.163157
	H20	H	0.709909	0.834330	0.404745
	H21	H	0.712025	0.160078	0.599630
	H22	H	0.281393	0.834663	0.599441
	H23	H	0.280829	0.160006	0.402017
	H24	H	0.895045	0.337270	0.217751
	H25	H	0.093702	0.662405	0.215039
	H26	H	0.094881	0.335669	0.785205
	H27	H	0.896632	0.660907	0.785248
	H28	H	0.211516	0.898574	0.337791
	H29	H	0.207726	0.093871	0.665766
	H30	H	0.782930	0.095021	0.337616
	H31	H	0.782033	0.899551	0.664986
	H32	H	0.332110	0.213740	0.899858
	H33	H	0.660273	0.211563	0.098807
	H34	H	0.332018	0.782407	0.101714
	H35	H	0.658903	0.783519	0.902120
	H36	H	0.332530	0.898298	0.216327
	H37	H	0.660911	0.094951	0.213387
	H38	H	0.331853	0.096876	0.785349
	H39	H	0.660179	0.899991	0.787812
	H40	H	0.893186	0.216025	0.339120
	H41	H	0.095867	0.214168	0.663407
	H42	H	0.096183	0.781555	0.338308
	H43	H	0.894718	0.780842	0.663423
	H44	H	0.211702	0.335579	0.901296
	H45	H	0.210252	0.662559	0.096582
	H46	H	0.781020	0.335806	0.099771
	H47	H	0.781593	0.661461	0.903128
	H48	H	0.398181	0.112602	0.590459
	H49	H	0.587571	0.881231	0.598788
	H50	H	0.585522	0.113295	0.403460
	H51	H	0.406261	0.884065	0.411863
	H52	H	0.583594	0.396082	0.117389
	H53	H	0.591819	0.593068	0.882990
	H54	H	0.397308	0.598548	0.120939
	H55	H	0.411992	0.408657	0.887740
	H56	H	0.115143	0.593484	0.401382
	H57	H	0.875078	0.588119	0.604920
	H58	H	0.110960	0.396088	0.582768
	H59	H	0.879063	0.403013	0.415425
	H60	H	0.106846	0.418189	0.589223
	H61	H	0.877242	0.600151	0.586950
	H62	H	0.112003	0.595089	0.414574
	H63	H	0.879702	0.412063	0.407528
	H64	H	0.399567	0.580913	0.114897
	H65	H	0.587894	0.587105	0.886012
	H66	H	0.595851	0.402697	0.118397
	H67	H	0.405223	0.397231	0.882769
	H68	H	0.587332	0.111148	0.411247
	H69	H	0.585854	0.882967	0.592746
	H70	H	0.401971	0.114735	0.599622
	H71	H	0.399916	0.880555	0.408787
	H72	H	0.910456	0.610877	0.090719
	H73	H	0.086997	0.382947	0.101145
	H74	H	0.086804	0.609692	0.917544
	H75	H	0.892734	0.382181	0.914979
	H76	H	0.092696	0.899695	0.619336
	H77	H	0.092685	0.092830	0.383135
	H78	H	0.910535	0.099486	0.617650
	H79	H	0.901215	0.918353	0.387546
	H80	H	0.611034	0.081290	0.901591
	H81	H	0.380568	0.082400	0.094797
	H82	H	0.612504	0.903396	0.092635
	H83	H	0.379318	0.912101	0.904593
	H84	H	0.612842	0.904423	0.093305
	H85	H	0.376638	0.094261	0.098286
	H86	H	0.616512	0.099825	0.904275
	H87	H	0.375627	0.899911	0.905590
	H88	H	0.893593	0.092568	0.620672
	H89	H	0.087771	0.086885	0.387013
	H90	H	0.089190	0.909680	0.615047
	H91	H	0.917273	0.898318	0.387289
	H92	H	0.100998	0.617757	0.903215
	H93	H	0.084771	0.386558	0.090486
	H94	H	0.894118	0.615288	0.087807
	H95	H	0.901213	0.378287	0.895272
	H96	H	0.408137	0.110557	0.591934
	H97	H	0.592462	0.882297	0.594037
	H98	H	0.593433	0.114773	0.406787
	H99	H	0.405803	0.881382	0.403860
	H100	H	0.584473	0.409631	0.113378
	H101	H	0.584558	0.593697	0.885382
	H102	H	0.414157	0.592857	0.114123
	H103	H	0.398082	0.409510	0.884271
	H104	H	0.109487	0.583693	0.408196
	H105	H	0.884160	0.579957	0.587428
	H106	H	0.116688	0.402522	0.604436
	H107	H	0.876087	0.401524	0.404109
	H108	H	0.901403	0.617660	0.102796
	H109	H	0.095466	0.382352	0.092598
	H110	H	0.080677	0.614598	0.897106
	H111	H	0.913695	0.387504	0.911385
	H112	H	0.081375	0.901068	0.616046
	H113	H	0.084457	0.094234	0.385182
	H114	H	0.907446	0.081864	0.613237
	H115	H	0.892797	0.895611	0.379534
	H116	H	0.608788	0.089197	0.918832
	H117	H	0.381053	0.092110	0.086057
	H118	H	0.613677	0.904261	0.094298
	H119	H	0.380806	0.905669	0.915821
	C120	C	0.374112	0.005546	0.622973
	C121	C	0.617954	0.989398	0.623054
	C122	C	0.617988	0.005700	0.379106
	C123	C	0.374735	0.989117	0.379064
	C124	C	0.617798	0.375143	0.008678
	C125	C	0.617014	0.619458	0.992276
	C126	C	0.374940	0.619701	0.009030
	C127	C	0.374689	0.376119	0.992157
	C128	C	0.003802	0.619656	0.379584
	C129	C	0.986974	0.618485	0.621806
	C130	C	0.003332	0.376835	0.621835
	C131	C	0.986911	0.377110	0.379542
	C132	C	0.873266	0.506904	0.122837
	C133	C	0.117503	0.491435	0.122395
	C134	C	0.118306	0.506538	0.877840
	C135	C	0.874312	0.490355	0.879077
	C136	C	0.117130	0.875360	0.509026
	C137	C	0.117195	0.119733	0.493007
	C138	C	0.874476	0.119770	0.509737
	C139	C	0.874459	0.875516	0.492699
	C140	C	0.504085	0.119144	0.878898
	C141	C	0.487932	0.118204	0.121526
	C142	C	0.504566	0.875497	0.122518
	C143	C	0.487005	0.877108	0.880094
	C144	C	0.376180	0.883569	0.678623
	C145	C	0.616648	0.111503	0.678455
	C146	C	0.616214	0.883583	0.323977
	C147	C	0.376744	0.111304	0.323245
	C148	C	0.672858	0.379459	0.885710
	C149	C	0.671270	0.615372	0.115541
	C150	C	0.320342	0.617495	0.885874
	C151	C	0.318467	0.378833	0.115038
	C152	C	0.880611	0.675233	0.381277
	C153	C	0.110598	0.674287	0.619540
	C154	C	0.880180	0.321440	0.620925
	C155	C	0.109974	0.321623	0.380721
	C156	C	0.880135	0.379360	0.677997
	C157	C	0.110849	0.616620	0.676579
	C158	C	0.880393	0.618027	0.324219
	C159	C	0.110416	0.380620	0.324511
	C160	C	0.376674	0.675948	0.886455
	C161	C	0.615436	0.674724	0.114678
	C162	C	0.616385	0.320343	0.886143
	C163	C	0.375402	0.319996	0.114711
	C164	C	0.672805	0.883149	0.383150
	C165	C	0.673892	0.111617	0.620093
	C166	C	0.318975	0.883260	0.620200
	C167	C	0.319358	0.111466	0.381917
	C168	C	0.874926	0.385486	0.179193
	C169	C	0.114667	0.613729	0.177198
	C170	C	0.115631	0.384341	0.822842
	C171	C	0.876544	0.612368	0.823381
	C172	C	0.173131	0.877951	0.386565
	C173	C	0.171100	0.115496	0.616176
	C174	C	0.820140	0.116360	0.386580
	C175	C	0.819215	0.878599	0.615832
	C176	C	0.380901	0.175075	0.880428
	C177	C	0.611355	0.173569	0.119194
	C178	C	0.381034	0.820533	0.121197
	C179	C	0.610343	0.821690	0.882206
	C180	C	0.381150	0.878261	0.178033
	C181	C	0.611608	0.115585	0.176152
	C182	C	0.380673	0.116968	0.823682
	C183	C	0.610778	0.879634	0.825133
	C184	C	0.875285	0.176182	0.387373
	C185	C	0.115575	0.175425	0.615117
	C186	C	0.115966	0.819686	0.386963
	C187	C	0.875304	0.819563	0.615241
	C188	C	0.173633	0.384151	0.880627
	C189	C	0.172464	0.613822	0.118268
	C190	C	0.818482	0.384722	0.120323
	C191	C	0.819449	0.612789	0.882010
	C192	C	0.396436	0.090812	0.600555
	C193	C	0.595350	0.904334	0.601312
	C194	C	0.595524	0.090984	0.400720
	C195	C	0.397374	0.904183	0.401335
	C196	C	0.594860	0.396560	0.094300
	C197	C	0.594582	0.597883	0.906761
	C198	C	0.397079	0.597393	0.094526
	C199	C	0.398046	0.398591	0.907041
	C200	C	0.089742	0.597225	0.401559
	C201	C	0.901207	0.596141	0.599628
	C202	C	0.089309	0.399043	0.598807
	C203	C	0.900689	0.399044	0.402215
	C204	C	0.895496	0.592713	0.100450
	C205	C	0.095530	0.405922	0.100908
	C206	C	0.096209	0.591962	0.899769
	C207	C	0.896239	0.404657	0.900840
	C208	C	0.094437	0.897112	0.594798
	C209	C	0.094803	0.097844	0.407343
	C210	C	0.896954	0.097796	0.595123
	C211	C	0.897174	0.897495	0.407046
	C212	C	0.589953	0.096680	0.901557
	C213	C	0.401843	0.096077	0.099502
	C214	C	0.590710	0.897384	0.100047
	C215	C	0.400805	0.899287	0.902287
	Zn216	Zn	0.495770	-0.002036	0.751539
	Zn217	Zn	0.496519	-0.002952	0.249605
	Zn218	Zn	0.745220	0.498197	0.000572
	Zn219	Zn	0.246982	0.498717	-0.000335
	Zn220	Zn	-0.004813	0.746651	0.500918
	Zn221	Zn	-0.004500	0.248388	0.500962
	Zn222	Zn	-0.004067	0.498078	0.749954
	Zn223	Zn	-0.005285	0.499131	0.251543
	Zn224	Zn	0.495388	0.748351	0.000953
	Zn225	Zn	0.495924	0.246358	0.000638
	Zn226	Zn	0.746717	-0.002432	0.501113
	Zn227	Zn	0.245133	-0.002503	0.501200
	N228	N	0.409613	0.960731	0.680344
	N229	N	0.582794	0.034633	0.680694
	N230	N	0.582814	0.960682	0.321350
	N231	N	0.410351	0.034138	0.321119
	N232	N	0.673764	0.412767	0.962890
	N233	N	0.672294	0.581614	0.038474
	N234	N	0.319343	0.583155	0.962845
	N235	N	0.318009	0.412988	0.037947
	N236	N	0.958223	0.676320	0.415058
	N237	N	0.032609	0.675566	0.586133
	N238	N	0.957785	0.319880	0.586644
	N239	N	0.032052	0.319400	0.414256
	N240	N	0.957839	0.413117	0.678685
	N241	N	0.033374	0.582663	0.678010
	N242	N	0.957905	0.583966	0.323133
	N243	N	0.032591	0.414033	0.323464
	N244	N	0.409962	0.677514	0.964057
	N245	N	0.582182	0.677226	0.037187
	N246	N	0.582844	0.317446	0.963647
	N247	N	0.409426	0.317871	0.037339
	N248	N	0.673887	0.960141	0.416710
	N249	N	0.674722	0.034780	0.586250
	N250	N	0.317609	0.960149	0.586353
	N251	N	0.317935	0.034622	0.415683
	N252	N	0.908351	0.462445	0.180755
	N253	N	0.081235	0.536601	0.179750
	N254	N	0.082190	0.461380	0.821146
	N255	N	0.910042	0.535009	0.821483
	N256	N	0.173735	0.912050	0.463517
	N257	N	0.172329	0.081694	0.539017
	N258	N	0.819486	0.081877	0.463444
	N259	N	0.818678	0.912830	0.538685
	N260	N	0.458813	0.176540	0.914060
	N261	N	0.533463	0.175183	0.085970
	N262	N	0.458900	0.818539	0.087599
	N263	N	0.532478	0.820135	0.915725
	N264	N	0.458893	0.911723	0.178939
	N265	N	0.533820	0.081848	0.177612
	N266	N	0.458244	0.083355	0.822450
	N267	N	0.532999	0.913321	0.823694
	N268	N	0.908265	0.178580	0.464989
	N269	N	0.082934	0.178186	0.537499
	N270	N	0.081776	0.817959	0.464258
	N271	N	0.909044	0.817708	0.537876
	N272	N	0.175372	0.461109	0.914160
	N273	N	0.174274	0.536783	0.084816
	N274	N	0.817497	0.461422	0.085961
	N275	N	0.818021	0.535990	0.915801
	O276	O	0.408952	0.458046	0.520176
	H277	H	0.401913	0.462560	0.517387
	H278	H	0.413593	0.452806	0.522881
	O279	O	0.457319	0.531021	0.507219
	H280	H	0.460814	0.530485	0.509049
	H281	H	0.454372	0.532900	0.517464
	O282	O	0.489041	0.500433	0.534828
	H283	H	0.499705	0.498663	0.522012
	H284	H	0.485203	0.493857	0.542584
	O285	O	0.079522	1.052137	1.070323
	H286	H	0.083685	1.057666	1.055821
	H287	H	0.084122	1.042121	1.076729
	O288	O	1.056159	1.061017	-0.008809
	H289	H	1.041998	1.056800	-0.020318
	H290	H	1.055045	1.065997	-0.015814
	O291	O	0.009320	0.106860	1.054172
	H292	H	0.019707	0.108495	1.056775
	H293	H	0.017765	0.103306	1.050197
	O294	O	0.519380	0.489033	0.520304
	H295	H	0.515402	0.487873	0.526387
	H296	H	0.515927	0.491472	0.522864
	O297	O	0.500028	0.448524	0.431585
	H298	H	0.499221	0.455971	0.424803
	H299	H	0.511388	0.443605	0.423933
	O300	O	0.454112	0.397459	0.466311
	H301	H	0.451362	0.402920	0.462254
	H302	H	0.453106	0.393282	0.469824
	O303	O	0.480404	0.454088	0.457505
	H304	H	0.484330	0.439971	0.457224
	H305	H	0.466450	0.448921	0.450305
	O306	O	0.949464	0.049331	0.971927
	H307	H	0.951561	0.046991	0.975160
	H308	H	0.942888	0.053041	0.972989
	O309	O	0.419273	0.510561	0.461940
	H310	H	0.421282	0.524689	0.460749
	H311	H	0.406374	0.497465	0.472806
	O312	O	0.519798	0.416140	0.523521
	H313	H	0.523312	0.413604	0.526575
	H314	H	0.520607	0.414943	0.532273
	O315	O	0.957765	0.103814	0.980726
	H316	H	0.950481	0.104433	0.973870
	H317	H	0.955526	0.118496	0.986206
	O318	O	-0.004226	0.064305	0.072712
	H319	H	-0.000877	0.063218	0.085989
	H320	H	-0.007911	0.065663	0.075312
	O321	O	0.441928	0.483217	0.552652
	H322	H	0.445451	0.478990	0.549274
	H323	H	0.444583	0.485383	0.539995
	O324	O	0.957153	0.074742	0.046936
	H325	H	0.956406	0.068983	0.047140
	H326	H	0.958547	0.079283	0.049961
	O327	O	1.025642	1.032322	-0.022250
	H328	H	1.015105	1.033726	-0.014120
	H329	H	1.025574	1.031562	-0.026825
	O330	O	0.448598	0.446914	0.509996
	H331	H	0.445175	0.435454	0.513222
	H332	H	0.434844	0.456842	0.500303
	O333	O	0.527585	0.518552	0.485780
	H334	H	0.529427	0.523997	0.487680
	H335	H	0.526766	0.524988	0.477917
