data_Molecule from HDF5

_cell_length_a		16.386540
_cell_length_b		16.413946
_cell_length_c		16.446458
_cell_angle_alpha	90.107592
_cell_angle_beta	89.984776
_cell_angle_gamma	89.936595
_symmetry_space_group_name_H-M	'P 1'
_symmetry_Int_Tables_number		1

loop_
	_symmetry_equiv_pos_as_xyz
	x,y,z

loop_
	_atom_site_label
	_atom_site_type_symbol
	_atom_site_fract_x
	_atom_site_fract_y
	_atom_site_fract_z
	H0	H	0.397518	0.845709	0.719210
	H1	H	0.606430	0.163150	0.726934
	H2	H	0.608946	0.847786	0.278891
	H3	H	0.391875	0.162433	0.277518
	H4	H	0.721059	0.399068	0.842868
	H5	H	0.723565	0.611208	0.160248
	H6	H	0.278893	0.609378	0.845353
	H7	H	0.277658	0.398597	0.161198
	H8	H	0.840622	0.727925	0.393755
	H9	H	0.158104	0.725705	0.606313
	H10	H	0.840608	0.283222	0.608234
	H11	H	0.157736	0.284360	0.397078
	H12	H	0.840749	0.398799	0.722729
	H13	H	0.157148	0.611405	0.723138
	H14	H	0.841294	0.613003	0.277273
	H15	H	0.158423	0.400528	0.282249
	H16	H	0.398378	0.722608	0.844425
	H17	H	0.608146	0.728260	0.160833
	H18	H	0.607691	0.280931	0.844021
	H19	H	0.392359	0.281524	0.160106
	H20	H	0.722423	0.847531	0.396071
	H21	H	0.722129	0.164443	0.611245
	H22	H	0.280122	0.846630	0.604364
	H23	H	0.276343	0.164087	0.393990
	H24	H	0.894544	0.346031	0.221789
	H25	H	0.105946	0.662768	0.223896
	H26	H	0.106101	0.344709	0.780522
	H27	H	0.897080	0.662879	0.782089
	H28	H	0.219461	0.902150	0.342073
	H29	H	0.219891	0.110870	0.660611
	H30	H	0.773930	0.114438	0.345254
	H31	H	0.781501	0.904471	0.662277
	H32	H	0.340092	0.224649	0.899594
	H33	H	0.658233	0.228825	0.109511
	H34	H	0.340335	0.786748	0.106060
	H35	H	0.658160	0.784144	0.897716
	H36	H	0.341890	0.900762	0.223582
	H37	H	0.658022	0.113870	0.225423
	H38	H	0.339534	0.109551	0.783383
	H39	H	0.657885	0.899249	0.780528
	H40	H	0.891913	0.228100	0.343642
	H41	H	0.102369	0.224840	0.661414
	H42	H	0.104590	0.783866	0.343118
	H43	H	0.895465	0.784673	0.660921
	H44	H	0.219420	0.343965	0.899727
	H45	H	0.219225	0.663842	0.106054
	H46	H	0.780136	0.344960	0.105566
	H47	H	0.779180	0.662815	0.896606
	H48	H	0.408658	0.119307	0.587842
	H49	H	0.584468	0.892884	0.594220
	H50	H	0.586858	0.117248	0.418481
	H51	H	0.411430	0.893183	0.413033
	H52	H	0.584420	0.415451	0.113393
	H53	H	0.595709	0.590784	0.888308
	H54	H	0.403199	0.593134	0.119117
	H55	H	0.408882	0.418663	0.889964
	H56	H	0.112513	0.595581	0.412428
	H57	H	0.886661	0.594739	0.587275
	H58	H	0.110667	0.413882	0.583616
	H59	H	0.887992	0.422008	0.416783
	H60	H	0.112342	0.420859	0.594694
	H61	H	0.886797	0.589989	0.591875
	H62	H	0.111244	0.592468	0.414974
	H63	H	0.883685	0.418351	0.404689
	H64	H	0.414213	0.591674	0.113958
	H65	H	0.583255	0.589378	0.893558
	H66	H	0.591594	0.413512	0.115611
	H67	H	0.415322	0.416735	0.891793
	H68	H	0.588167	0.119252	0.411957
	H69	H	0.587211	0.895450	0.585295
	H70	H	0.404957	0.122013	0.596213
	H71	H	0.410843	0.893233	0.413749
	H72	H	0.911039	0.619815	0.094598
	H73	H	0.089238	0.388135	0.098913
	H74	H	0.093102	0.618900	0.912215
	H75	H	0.909134	0.390646	0.913782
	H76	H	0.087085	0.917432	0.613195
	H77	H	0.089213	0.090932	0.388847
	H78	H	0.910110	0.089896	0.612738
	H79	H	0.909459	0.916311	0.388849
	H80	H	0.611585	0.090992	0.916805
	H81	H	0.388715	0.089776	0.089055
	H82	H	0.613599	0.918793	0.093264
	H83	H	0.384175	0.912571	0.912967
	H84	H	0.615268	0.912935	0.091182
	H85	H	0.387286	0.092366	0.091825
	H86	H	0.613371	0.090355	0.909864
	H87	H	0.385647	0.916094	0.910568
	H88	H	0.916249	0.095288	0.613675
	H89	H	0.085677	0.097185	0.388722
	H90	H	0.088911	0.912200	0.615697
	H91	H	0.910904	0.919830	0.390352
	H92	H	0.086269	0.617787	0.907616
	H93	H	0.082961	0.393317	0.088513
	H94	H	0.917238	0.615335	0.087485
	H95	H	0.908245	0.388803	0.908641
	H96	H	0.414134	0.119334	0.595461
	H97	H	0.593470	0.892065	0.591650
	H98	H	0.581964	0.116137	0.413423
	H99	H	0.410670	0.892225	0.412663
	H100	H	0.590019	0.420854	0.112384
	H101	H	0.587024	0.601394	0.888161
	H102	H	0.411223	0.601819	0.119256
	H103	H	0.410873	0.412075	0.888590
	H104	H	0.111690	0.592002	0.410308
	H105	H	0.884278	0.596296	0.592954
	H106	H	0.116195	0.408797	0.594307
	H107	H	0.883838	0.409468	0.414488
	H108	H	0.907751	0.618261	0.085014
	H109	H	0.095566	0.390207	0.087815
	H110	H	0.086172	0.614979	0.915884
	H111	H	0.913208	0.390398	0.910637
	H112	H	0.092295	0.916875	0.615701
	H113	H	0.092287	0.096996	0.386508
	H114	H	0.908199	0.097422	0.615999
	H115	H	0.913535	0.916501	0.389810
	H116	H	0.614506	0.096566	0.913131
	H117	H	0.387490	0.093898	0.088335
	H118	H	0.612282	0.916753	0.087575
	H119	H	0.383131	0.912624	0.908687
	C120	C	0.378030	0.014391	0.623059
	C121	C	0.621092	0.997828	0.624077
	C122	C	0.620640	0.013742	0.381070
	C123	C	0.378231	0.997182	0.380010
	C124	C	0.621732	0.383017	0.009764
	C125	C	0.622056	0.626933	0.994133
	C126	C	0.378288	0.626456	0.012622
	C127	C	0.378858	0.383363	0.994794
	C128	C	0.007376	0.626506	0.379481
	C129	C	0.991000	0.625729	0.622500
	C130	C	0.007762	0.382904	0.622850
	C131	C	0.990139	0.383948	0.380091
	C132	C	0.879451	0.512759	0.121682
	C133	C	0.121246	0.495895	0.123925
	C134	C	0.121501	0.512337	0.880352
	C135	C	0.878728	0.495223	0.880028
	C136	C	0.121322	0.883535	0.509981
	C137	C	0.120878	0.127209	0.493252
	C138	C	0.877523	0.127713	0.510194
	C139	C	0.878578	0.884620	0.493831
	C140	C	0.508094	0.125584	0.881367
	C141	C	0.491886	0.126532	0.123410
	C142	C	0.508886	0.884249	0.123387
	C143	C	0.490217	0.882613	0.879935
	C144	C	0.377740	0.893942	0.680551
	C145	C	0.624062	0.116132	0.685903
	C146	C	0.625666	0.895431	0.319330
	C147	C	0.374251	0.115469	0.317957
	C148	C	0.681787	0.380363	0.890759
	C149	C	0.683469	0.629606	0.112809
	C150	C	0.319116	0.627606	0.892897
	C151	C	0.318083	0.380851	0.113555
	C152	C	0.888396	0.687785	0.375985
	C153	C	0.110053	0.685989	0.624513
	C154	C	0.888355	0.323126	0.625971
	C155	C	0.109927	0.324184	0.378507
	C156	C	0.888541	0.380731	0.683303
	C157	C	0.109676	0.628809	0.682740
	C158	C	0.888837	0.630716	0.317670
	C159	C	0.110294	0.382092	0.321135
	C160	C	0.378004	0.684384	0.892286
	C161	C	0.625881	0.688176	0.112990
	C162	C	0.625086	0.321638	0.891379
	C163	C	0.375502	0.322310	0.112958
	C164	C	0.682374	0.895109	0.377819
	C165	C	0.681944	0.116588	0.628070
	C166	C	0.319896	0.894218	0.622947
	C167	C	0.317014	0.116137	0.376600
	C168	C	0.876666	0.393598	0.182007
	C169	C	0.123743	0.615241	0.184009
	C170	C	0.123733	0.392384	0.820967
	C171	C	0.877515	0.615213	0.821132
	C172	C	0.180484	0.882915	0.390132
	C173	C	0.180211	0.129174	0.612751
	C174	C	0.815134	0.131825	0.392141
	C175	C	0.820175	0.884291	0.614161
	C176	C	0.387837	0.185304	0.880438
	C177	C	0.610817	0.188176	0.127130
	C178	C	0.388681	0.825359	0.125223
	C179	C	0.610357	0.823881	0.878987
	C180	C	0.389493	0.882086	0.183733
	C181	C	0.610688	0.130931	0.185003
	C182	C	0.387638	0.128043	0.822481
	C183	C	0.610164	0.881041	0.820448
	C184	C	0.873853	0.188533	0.391460
	C185	C	0.121361	0.185895	0.613155
	C186	C	0.123454	0.823895	0.390547
	C187	C	0.877184	0.825150	0.613565
	C188	C	0.180431	0.391982	0.880051
	C189	C	0.180167	0.615809	0.125119
	C190	C	0.819499	0.393210	0.124056
	C191	C	0.818834	0.615017	0.878127
	C192	C	0.402244	0.098303	0.599957
	C193	C	0.595708	0.914826	0.597750
	C194	C	0.593512	0.096201	0.407267
	C195	C	0.403803	0.914341	0.405654
	C196	C	0.595988	0.409066	0.092295
	C197	C	0.596144	0.601204	0.911472
	C198	C	0.402423	0.602496	0.095753
	C199	C	0.404538	0.408686	0.911679
	C200	C	0.090316	0.601029	0.405301
	C201	C	0.907335	0.600726	0.597677
	C202	C	0.091291	0.407444	0.598056
	C203	C	0.906880	0.409186	0.404911
	C204	C	0.904708	0.595940	0.096310
	C205	C	0.096444	0.412504	0.098923
	C206	C	0.096102	0.595457	0.904943
	C207	C	0.903069	0.411777	0.903982
	C208	C	0.096557	0.908161	0.593289
	C209	C	0.096269	0.102294	0.409703
	C210	C	0.903929	0.101856	0.592615
	C211	C	0.903991	0.910087	0.411304
	C212	C	0.591342	0.100013	0.905920
	C213	C	0.409389	0.099842	0.097197
	C214	C	0.592201	0.909096	0.097970
	C215	C	0.406227	0.906874	0.903923
	Zn216	Zn	0.498648	0.005281	0.752384
	Zn217	Zn	0.500699	0.005699	0.251448
	Zn218	Zn	0.750460	0.504169	0.001896
	Zn219	Zn	0.249573	0.504098	0.002641
	Zn220	Zn	-0.000912	0.754701	0.501124
	Zn221	Zn	-0.001153	0.255568	0.501540
	Zn222	Zn	0.000108	0.503661	0.751071
	Zn223	Zn	-0.000881	0.504814	0.251560
	Zn224	Zn	0.499825	0.755032	0.002919
	Zn225	Zn	0.500384	0.254030	0.002184
	Zn226	Zn	0.749511	0.006195	0.502377
	Zn227	Zn	0.249302	0.006062	0.501898
	N228	N	0.413022	0.969855	0.680972
	N229	N	0.587064	0.041096	0.683740
	N230	N	0.587983	0.970303	0.321212
	N231	N	0.411704	0.040469	0.320080
	N232	N	0.679711	0.418066	0.965489
	N233	N	0.681248	0.592313	0.037965
	N234	N	0.318890	0.592471	0.968609
	N235	N	0.320145	0.418185	0.038817
	N236	N	0.963291	0.685427	0.413606
	N237	N	0.034988	0.684086	0.587647
	N238	N	0.963368	0.324471	0.589036
	N239	N	0.034131	0.324905	0.414139
	N240	N	0.964082	0.417274	0.681514
	N241	N	0.034610	0.591818	0.681523
	N242	N	0.963838	0.593295	0.319819
	N243	N	0.034819	0.418621	0.321985
	N244	N	0.414076	0.683779	0.967486
	N245	N	0.588338	0.686529	0.038133
	N246	N	0.588458	0.323150	0.966452
	N247	N	0.413017	0.324269	0.038188
	N248	N	0.679323	0.969753	0.415552
	N249	N	0.679909	0.041968	0.590144
	N250	N	0.319889	0.970274	0.588151
	N251	N	0.319293	0.041699	0.414466
	N252	N	0.913076	0.469072	0.180837
	N253	N	0.088087	0.539460	0.183549
	N254	N	0.088039	0.468278	0.820715
	N255	N	0.913944	0.539880	0.822097
	N256	N	0.179396	0.919212	0.465547
	N257	N	0.180019	0.093619	0.537034
	N258	N	0.817131	0.094974	0.467074
	N259	N	0.820802	0.920429	0.538796
	N260	N	0.463646	0.183908	0.916258
	N261	N	0.535781	0.185746	0.089813
	N262	N	0.464052	0.826399	0.088535
	N263	N	0.534771	0.824598	0.915003
	N264	N	0.465278	0.917612	0.182934
	N265	N	0.535875	0.093290	0.182825
	N266	N	0.463459	0.091807	0.822658
	N267	N	0.534337	0.917062	0.820999
	N268	N	0.911817	0.185971	0.465937
	N269	N	0.085466	0.184995	0.537520
	N270	N	0.087473	0.824113	0.466033
	N271	N	0.912408	0.825109	0.537702
	N272	N	0.179315	0.467617	0.916018
	N273	N	0.178809	0.540608	0.088571
	N274	N	0.821095	0.468386	0.087340
	N275	N	0.819313	0.539409	0.913879
	O276	O	0.286407	0.483730	0.718109
	H277	H	0.288372	0.447237	0.712173
	H278	H	0.263926	0.463118	0.739925
	O279	O	0.453350	0.378714	0.292418
	H280	H	0.432261	0.390947	0.270396
	H281	H	0.455394	0.384618	0.277385
	O282	O	0.479125	0.556852	0.430149
	H283	H	0.466712	0.553994	0.427661
	H284	H	0.489895	0.558324	0.452232
	O285	O	0.940432	1.008370	0.017025
	H286	H	0.944640	1.005249	0.030680
	H287	H	0.944039	1.000615	0.003798
	O288	O	0.606524	0.552801	0.429439
	H289	H	0.625375	0.551489	0.429245
	H290	H	0.623822	0.560210	0.440858
	O291	O	0.613254	0.530478	0.346915
	H292	H	0.628340	0.544620	0.334234
	H293	H	0.603462	0.542229	0.348181
	O294	O	0.986682	0.982380	0.885692
	H295	H	1.000668	0.974733	0.878804
	H296	H	0.981007	0.982021	0.881114
	O297	O	0.324835	0.467250	0.442957
	H298	H	0.320103	0.485820	0.458646
	H299	H	0.327051	0.448715	0.463817
	O300	O	0.067125	-0.186275	-0.197528
	H301	H	0.080912	-0.181876	-0.200876
	H302	H	0.073792	-0.204275	-0.210840
	O303	O	0.481698	0.303151	0.708668
	H304	H	0.492092	0.294364	0.730648
	H305	H	0.500590	0.303892	0.692472
	O306	O	0.167873	-0.027813	1.100866
	H307	H	0.154287	-0.024953	1.101747
	H308	H	0.180831	-0.028878	1.107686
	O309	O	1.156403	0.090548	0.139422
	H310	H	1.144312	0.105948	0.141250
	H311	H	1.158911	0.094413	0.144687
	O312	O	0.516233	0.552388	0.697510
	H313	H	0.507580	0.552947	0.696238
	H314	H	0.509096	0.546718	0.694448
	O315	O	0.314353	0.602132	0.308968
	H316	H	0.313490	0.589879	0.307435
	H317	H	0.317935	0.610710	0.315366
	O318	O	0.321152	-0.671793	0.682687
	H319	H	0.339368	-0.686628	0.661356
	H320	H	0.344487	-0.684762	0.665134
	O321	O	0.496528	0.704289	0.637655
	H322	H	0.497314	0.695876	0.644273
	H323	H	0.493656	0.715311	0.640144
	O324	O	0.816291	0.179897	0.874103
	H325	H	0.815471	0.189703	0.882093
	H326	H	0.837292	0.176935	0.858285
	O327	O	0.222322	0.784256	0.776235
	H328	H	0.234405	0.759839	0.752349
	H329	H	0.233967	0.772088	0.811865
	O330	O	0.207523	0.976113	0.847918
	H331	H	0.199517	0.950055	0.843395
	H332	H	0.225223	0.961354	0.832158
	O333	O	0.642661	0.485458	-0.339917
	H334	H	0.643676	0.501820	-0.327837
	H335	H	0.647047	0.490726	-0.349982
	O336	O	0.969772	1.015631	0.044047
	H337	H	0.970928	1.022199	0.024970
	H338	H	0.954997	1.021006	0.036418
	O339	O	-0.153242	1.119292	1.098758
	H340	H	-0.154440	1.113740	1.105113
	H341	H	-0.164150	1.121265	1.101628
	O342	O	0.612713	0.394318	0.536380
	H343	H	0.610734	0.399157	0.526214
	H344	H	0.623003	0.403203	0.519946
	O345	O	0.089128	0.030632	1.049141
	H346	H	0.089299	0.036622	1.054945
	H347	H	0.089783	0.045237	1.044284
	O348	O	0.308914	0.690888	0.405538
	H349	H	0.317417	0.665408	0.397848
	H350	H	0.329342	0.703867	0.385508
	O351	O	0.864474	1.008508	0.056822
	H352	H	0.859818	1.015666	0.055608
	H353	H	0.833553	1.006167	0.047689
	O354	O	0.474245	0.703362	1.305472
	H355	H	0.490493	0.713275	1.318114
	H356	H	0.488707	0.721752	1.307028
	O357	O	0.032758	0.206799	0.208840
	H358	H	0.008995	0.197648	0.222453
	H359	H	0.025768	0.212381	0.226481
	O360	O	0.707580	0.581717	0.502046
	H361	H	0.706981	0.589010	0.487676
	H362	H	0.713622	0.577385	0.507270
	O363	O	0.840442	0.118580	-0.192932
	H364	H	0.841177	0.119182	-0.209513
	H365	H	0.852994	0.135691	-0.194960
	O366	O	0.062231	0.034316	0.960538
	H367	H	0.062707	0.019198	0.972496
	H368	H	0.066092	0.028470	0.958352
	O369	O	0.851772	0.006379	0.917731
	H370	H	0.857954	0.011041	0.905365
	H371	H	0.857051	0.022165	0.926207
	O372	O	0.288021	0.418673	0.537995
	H373	H	0.294020	0.413574	0.539587
	H374	H	0.272235	0.423842	0.526763
	O375	O	0.053129	-0.077720	1.197501
	H376	H	0.072810	-0.077755	1.206527
	H377	H	0.050753	-0.081891	1.210176
	O378	O	0.677455	0.328397	0.323093
	H379	H	0.661854	0.317490	0.349134
	H380	H	0.673452	0.361170	0.311873
	O381	O	0.201488	0.799270	-0.026165
	H382	H	0.212801	0.792560	-0.014373
	H383	H	0.198116	0.792622	-0.014434
	O384	O	0.505575	0.657667	0.421599
	H385	H	0.515499	0.653472	0.425775
	H386	H	0.482957	0.661237	0.444313
	O387	O	0.595317	0.587227	0.553791
	H388	H	0.606305	0.567975	0.560703
	H389	H	0.591488	0.607769	0.562719
	O390	O	0.980833	0.847757	-0.085653
	H391	H	0.996090	0.850799	-0.087764
	H392	H	0.970995	0.856513	-0.080280
	O393	O	1.100767	0.137063	0.989198
	H394	H	1.109635	0.126568	1.006839
	H395	H	1.109729	0.136492	0.993413
	O396	O	0.512518	0.281265	0.518427
	H397	H	0.514170	0.279854	0.512272
	H398	H	0.524297	0.287447	0.505564
	O399	O	0.713762	0.289579	0.482164
	H400	H	0.735118	0.265687	0.465359
	H401	H	0.710562	0.289649	0.488343
	O402	O	0.806757	0.937039	0.199332
	H403	H	0.794873	0.919183	0.188874
	H404	H	0.802911	0.934550	0.200047
	O405	O	-0.168244	-0.135008	-0.142503
	H406	H	-0.154153	-0.112301	-0.146810
	H407	H	-0.155693	-0.124572	-0.136753
	O408	O	0.675883	0.502467	0.329117
	H409	H	0.661631	0.518222	0.322828
	H410	H	0.683627	0.483555	0.322709
	O411	O	0.902882	0.804900	1.161591
	H412	H	0.901328	0.794693	1.167833
	H413	H	0.895595	0.790368	1.148369
	O414	O	0.576832	0.519946	0.606967
	H415	H	0.591696	0.521342	0.622787
	H416	H	0.562273	0.508703	0.599072
	O417	O	-0.148122	0.817370	1.065930
	H418	H	-0.140786	0.811397	1.046470
	H419	H	-0.152030	0.820295	1.066750
	O420	O	0.326066	1.618536	1.649077
	H421	H	0.326874	1.613281	1.647676
	H422	H	0.333266	1.613064	1.647130
	O423	O	0.138992	1.196719	0.030081
	H424	H	0.132078	1.201638	0.027170
	H425	H	0.148505	1.210603	0.035640
	O426	O	0.933935	0.055536	0.160218
	H427	H	0.926284	0.058064	0.158261
	H428	H	0.914478	0.049794	0.165439
	O429	O	0.699002	0.643916	0.700493
	H430	H	0.726668	0.648121	0.719335
	H431	H	0.695464	0.618470	0.695763
	O432	O	0.475305	0.501129	0.428158
	H433	H	0.463709	0.515951	0.439735
	H434	H	0.458143	0.500547	0.425086
	O435	O	0.074242	0.122300	-0.178775
	H436	H	0.090655	0.110709	-0.206824
	H437	H	0.092322	0.104023	-0.156388
	O438	O	-0.591156	1.351946	0.454089
	H439	H	-0.602825	1.343073	0.463327
	H440	H	-0.571092	1.337544	0.433479
	O441	O	0.317164	0.635258	0.520602
	H442	H	0.306631	0.621426	0.503470
	H443	H	0.303102	0.654516	0.527783
