data_Molecule from HDF5

_cell_length_a		16.323955
_cell_length_b		16.333795
_cell_length_c		16.291321
_cell_angle_alpha	90.035656
_cell_angle_beta	90.068026
_cell_angle_gamma	90.126055
_symmetry_space_group_name_H-M	'P 1'
_symmetry_Int_Tables_number		1

loop_
	_symmetry_equiv_pos_as_xyz
	x,y,z

loop_
	_atom_site_label
	_atom_site_type_symbol
	_atom_site_fract_x
	_atom_site_fract_y
	_atom_site_fract_z
	H0	H	0.405447	0.840586	0.716412
	H1	H	0.603211	0.167863	0.717737
	H2	H	0.601107	0.841604	0.287804
	H3	H	0.407065	0.168506	0.289350
	H4	H	0.719586	0.405356	0.839150
	H5	H	0.720269	0.603613	0.165623
	H6	H	0.289990	0.603153	0.838355
	H7	H	0.289481	0.405945	0.165208
	H8	H	0.840787	0.719095	0.400929
	H9	H	0.167538	0.719389	0.599175
	H10	H	0.841217	0.289737	0.599644
	H11	H	0.167228	0.288475	0.400430
	H12	H	0.842135	0.405248	0.717067
	H13	H	0.168249	0.603588	0.715937
	H14	H	0.841592	0.602862	0.284986
	H15	H	0.168234	0.407291	0.287105
	H16	H	0.406472	0.718237	0.838068
	H17	H	0.603120	0.719211	0.165593
	H18	H	0.601870	0.290238	0.838047
	H19	H	0.405204	0.289946	0.165805
	H20	H	0.717262	0.840953	0.404063
	H21	H	0.720347	0.167386	0.602193
	H22	H	0.288713	0.840856	0.600201
	H23	H	0.289859	0.167569	0.404462
	H24	H	0.906928	0.341050	0.215706
	H25	H	0.103007	0.667766	0.215683
	H26	H	0.103335	0.341553	0.786641
	H27	H	0.906582	0.667697	0.786513
	H28	H	0.218061	0.906483	0.338446
	H29	H	0.218584	0.102933	0.665404
	H30	H	0.788661	0.102986	0.338671
	H31	H	0.789069	0.905853	0.665506
	H32	H	0.340342	0.218917	0.904105
	H33	H	0.667727	0.219662	0.101176
	H34	H	0.340567	0.788860	0.101415
	H35	H	0.667281	0.790355	0.903336
	H36	H	0.340379	0.907975	0.215553
	H37	H	0.667629	0.102754	0.217169
	H38	H	0.339966	0.101560	0.788279
	H39	H	0.668211	0.908380	0.789312
	H40	H	0.905350	0.217976	0.337632
	H41	H	0.103614	0.220074	0.665055
	H42	H	0.100965	0.790881	0.337879
	H43	H	0.904734	0.789352	0.664944
	H44	H	0.219609	0.341914	0.902590
	H45	H	0.219795	0.667763	0.100445
	H46	H	0.790425	0.341102	0.099280
	H47	H	0.789477	0.667471	0.902209
	H48	H	0.413747	0.120504	0.600500
	H49	H	0.592426	0.892968	0.589899
	H50	H	0.595689	0.119242	0.411875
	H51	H	0.402737	0.886692	0.409278
	H52	H	0.602848	0.417248	0.117936
	H53	H	0.602283	0.601626	0.882577
	H54	H	0.411504	0.596253	0.118216
	H55	H	0.397455	0.414556	0.882428
	H56	H	0.117385	0.587093	0.406634
	H57	H	0.890659	0.589941	0.594533
	H58	H	0.122350	0.408531	0.594637
	H59	H	0.885038	0.401086	0.405456
	H60	H	0.119009	0.412382	0.590247
	H61	H	0.886043	0.599687	0.599712
	H62	H	0.125363	0.605623	0.399671
	H63	H	0.893129	0.412952	0.418221
	H64	H	0.414014	0.596059	0.117450
	H65	H	0.599678	0.591693	0.887247
	H66	H	0.591077	0.412370	0.115748
	H67	H	0.421042	0.422416	0.891962
	H68	H	0.600954	0.120865	0.410184
	H69	H	0.603451	0.886855	0.594162
	H70	H	0.413683	0.117797	0.591924
	H71	H	0.412419	0.886995	0.401801
	H72	H	0.903172	0.624104	0.099428
	H73	H	0.097803	0.388282	0.095082
	H74	H	0.095666	0.622233	0.900624
	H75	H	0.915517	0.388317	0.902887
	H76	H	0.093094	0.905419	0.618445
	H77	H	0.091826	0.093962	0.388381
	H78	H	0.908559	0.095540	0.617894
	H79	H	0.906714	0.917636	0.386539
	H80	H	0.618229	0.096377	0.912155
	H81	H	0.389320	0.091966	0.098893
	H82	H	0.622996	0.907590	0.102296
	H83	H	0.390133	0.908432	0.917755
	H84	H	0.618940	0.906682	0.088403
	H85	H	0.385649	0.104533	0.098765
	H86	H	0.620613	0.096309	0.906587
	H87	H	0.389348	0.919220	0.905546
	H88	H	0.914947	0.095577	0.616264
	H89	H	0.096143	0.103365	0.384138
	H90	H	0.103428	0.912104	0.619962
	H91	H	0.916379	0.910878	0.387928
	H92	H	0.092852	0.617105	0.914636
	H93	H	0.098005	0.388747	0.094406
	H94	H	0.920900	0.619219	0.099697
	H95	H	0.914352	0.390741	0.914253
	H96	H	0.406380	0.121292	0.595447
	H97	H	0.593146	0.888077	0.601950
	H98	H	0.595845	0.121340	0.406682
	H99	H	0.413518	0.890326	0.413455
	H100	H	0.599957	0.404543	0.120697
	H101	H	0.592398	0.600151	0.887271
	H102	H	0.413195	0.598887	0.117756
	H103	H	0.417771	0.397003	0.883312
	H104	H	0.117900	0.603695	0.419706
	H105	H	0.889779	0.600447	0.588821
	H106	H	0.119890	0.414018	0.596244
	H107	H	0.889039	0.418761	0.400752
	H108	H	0.910890	0.617356	0.084257
	H109	H	0.098917	0.388604	0.094505
	H110	H	0.107302	0.622433	0.910838
	H111	H	0.905063	0.387636	0.908298
	H112	H	0.093119	0.917459	0.615510
	H113	H	0.102666	0.094080	0.385374
	H114	H	0.912821	0.101284	0.618664
	H115	H	0.907018	0.906198	0.382604
	H116	H	0.619900	0.101586	0.910110
	H117	H	0.390332	0.098665	0.087708
	H118	H	0.617589	0.919178	0.095011
	H119	H	0.384542	0.903899	0.902946
	C120	C	0.382241	0.012221	0.624019
	C121	C	0.625698	0.996674	0.624100
	C122	C	0.625505	0.012629	0.381040
	C123	C	0.381994	0.995922	0.380302
	C124	C	0.626077	0.382710	0.010147
	C125	C	0.626468	0.626016	0.993775
	C126	C	0.383944	0.625304	0.010026
	C127	C	0.383570	0.383110	0.994105
	C128	C	0.012383	0.626643	0.379446
	C129	C	0.996395	0.626025	0.623459
	C130	C	0.012934	0.383143	0.622577
	C131	C	0.996675	0.382790	0.379554
	C132	C	0.883258	0.512674	0.123085
	C133	C	0.126481	0.496362	0.123223
	C134	C	0.126946	0.512738	0.879965
	C135	C	0.883259	0.496510	0.879972
	C136	C	0.124811	0.883211	0.509904
	C137	C	0.125836	0.126125	0.493560
	C138	C	0.883244	0.125690	0.509746
	C139	C	0.881335	0.882442	0.493592
	C140	C	0.511602	0.126080	0.880914
	C141	C	0.496171	0.127029	0.124235
	C142	C	0.511485	0.883509	0.123388
	C143	C	0.496118	0.882688	0.880239
	C144	C	0.384841	0.889187	0.678537
	C145	C	0.623967	0.119047	0.680022
	C146	C	0.622703	0.890217	0.325419
	C147	C	0.385469	0.119376	0.326039
	C148	C	0.681321	0.384897	0.887463
	C149	C	0.682144	0.623681	0.116829
	C150	C	0.328295	0.623079	0.887060
	C151	C	0.327671	0.385499	0.116609
	C152	C	0.889706	0.681486	0.380695
	C153	C	0.118923	0.681709	0.620358
	C154	C	0.890212	0.327658	0.620289
	C155	C	0.118871	0.327013	0.380842
	C156	C	0.890543	0.384998	0.678566
	C157	C	0.119273	0.623954	0.678407
	C158	C	0.890117	0.623423	0.323367
	C159	C	0.119443	0.385918	0.324422
	C160	C	0.385868	0.680639	0.886993
	C161	C	0.624168	0.681217	0.117022
	C162	C	0.622867	0.327762	0.887045
	C163	C	0.385374	0.327914	0.116956
	C164	C	0.680259	0.890028	0.383386
	C165	C	0.681903	0.118929	0.622443
	C166	C	0.326744	0.889514	0.620973
	C167	C	0.327407	0.119003	0.383279
	C168	C	0.885723	0.389811	0.178139
	C169	C	0.123687	0.619129	0.177917
	C170	C	0.123811	0.390214	0.824845
	C171	C	0.885718	0.619091	0.824452
	C172	C	0.180105	0.886037	0.387125
	C173	C	0.181157	0.123933	0.616393
	C174	C	0.827001	0.123487	0.387172
	C175	C	0.826667	0.885083	0.616598
	C176	C	0.389010	0.180942	0.883424
	C177	C	0.619019	0.181591	0.121640
	C178	C	0.389235	0.827556	0.121282
	C179	C	0.618857	0.828645	0.883341
	C180	C	0.389151	0.886532	0.178030
	C181	C	0.618893	0.123832	0.179467
	C182	C	0.388833	0.122596	0.826127
	C183	C	0.618989	0.886764	0.826055
	C184	C	0.885183	0.180447	0.386758
	C185	C	0.123575	0.181720	0.616358
	C186	C	0.121944	0.828608	0.386779
	C187	C	0.884266	0.827462	0.616447
	C188	C	0.181960	0.390481	0.882289
	C189	C	0.181977	0.618969	0.120965
	C190	C	0.827855	0.389840	0.120408
	C191	C	0.827815	0.618822	0.882238
	C192	C	0.404750	0.097614	0.602358
	C193	C	0.603088	0.911338	0.601795
	C194	C	0.603877	0.098441	0.403113
	C195	C	0.403286	0.910154	0.401844
	C196	C	0.604342	0.404805	0.095933
	C197	C	0.604415	0.604316	0.908111
	C198	C	0.406396	0.603416	0.095773
	C199	C	0.405647	0.404904	0.908085
	C200	C	0.098170	0.605268	0.402136
	C201	C	0.910917	0.603393	0.600912
	C202	C	0.098376	0.405125	0.600312
	C203	C	0.911092	0.404643	0.401760
	C204	C	0.905276	0.598053	0.101033
	C205	C	0.104724	0.410594	0.101112
	C206	C	0.105091	0.598627	0.902163
	C207	C	0.905294	0.411043	0.901978
	C208	C	0.102775	0.905116	0.595750
	C209	C	0.103484	0.103731	0.408063
	C210	C	0.905722	0.103778	0.595423
	C211	C	0.903465	0.904751	0.407929
	C212	C	0.597447	0.104364	0.903130
	C213	C	0.410457	0.104764	0.101840
	C214	C	0.597726	0.904947	0.101563
	C215	C	0.410007	0.904268	0.902365
	Zn216	Zn	0.503836	0.004407	0.752484
	Zn217	Zn	0.503820	0.004733	0.252486
	Zn218	Zn	0.754744	0.504667	0.001690
	Zn219	Zn	0.255043	0.504619	0.002171
	Zn220	Zn	0.003223	0.754372	0.501358
	Zn221	Zn	0.004550	0.254304	0.500917
	Zn222	Zn	0.005197	0.504360	0.751602
	Zn223	Zn	0.004990	0.504377	0.251383
	Zn224	Zn	0.504350	0.754291	0.001827
	Zn225	Zn	0.504344	0.254571	0.002116
	Zn226	Zn	0.754467	0.004775	0.502437
	Zn227	Zn	0.254197	0.004474	0.502245
	N228	N	0.418618	0.966352	0.680609
	N229	N	0.589563	0.042125	0.681134
	N230	N	0.589278	0.967269	0.324111
	N231	N	0.418823	0.042030	0.323974
	N232	N	0.683254	0.418499	0.964831
	N233	N	0.683626	0.590061	0.039329
	N234	N	0.327069	0.589306	0.964486
	N235	N	0.326506	0.419208	0.039254
	N236	N	0.966650	0.683541	0.414918
	N237	N	0.041567	0.682810	0.586621
	N238	N	0.967305	0.326229	0.586296
	N239	N	0.041704	0.325047	0.414587
	N240	N	0.967764	0.418825	0.680035
	N241	N	0.042083	0.589873	0.680036
	N242	N	0.967282	0.589849	0.322712
	N243	N	0.042425	0.419815	0.323513
	N244	N	0.419879	0.682054	0.964411
	N245	N	0.590301	0.683076	0.039666
	N246	N	0.589224	0.326409	0.964437
	N247	N	0.419167	0.326348	0.039668
	N248	N	0.681861	0.967306	0.417568
	N249	N	0.683000	0.041918	0.588347
	N250	N	0.325285	0.966933	0.587535
	N251	N	0.325274	0.041567	0.416380
	N252	N	0.919489	0.466987	0.179892
	N253	N	0.089862	0.541942	0.179421
	N254	N	0.090367	0.467425	0.823366
	N255	N	0.919737	0.542111	0.823166
	N256	N	0.181906	0.919331	0.464751
	N257	N	0.182566	0.090061	0.539180
	N258	N	0.825668	0.090054	0.464597
	N259	N	0.824889	0.918623	0.539344
	N260	N	0.466411	0.182997	0.916726
	N261	N	0.541652	0.183537	0.088111
	N262	N	0.466655	0.825775	0.087723
	N263	N	0.541250	0.825961	0.916193
	N264	N	0.466170	0.920584	0.179262
	N265	N	0.541424	0.090491	0.181067
	N266	N	0.466178	0.089270	0.824314
	N267	N	0.541531	0.919736	0.824394
	N268	N	0.919325	0.181957	0.464034
	N269	N	0.090025	0.183264	0.538873
	N270	N	0.088053	0.826929	0.463973
	N271	N	0.917252	0.825468	0.538698
	N272	N	0.183555	0.467625	0.916120
	N273	N	0.183615	0.541568	0.087482
	N274	N	0.826250	0.467127	0.086937
	N275	N	0.825973	0.541541	0.915720
	O276	O	0.511383	0.491315	0.515406
	H277	H	0.515285	0.486880	0.516016
	H278	H	0.518720	0.498120	0.516185
	O279	O	-0.021606	0.047775	-0.022052
	H280	H	-0.022797	0.042768	-0.027995
	H281	H	-0.025528	0.051395	-0.022210
	O282	O	0.487825	0.479255	0.542048
	H283	H	0.495574	0.479561	0.547601
	H284	H	0.480685	0.484129	0.552382
	O285	O	0.564386	0.516843	0.518463
	H286	H	0.569549	0.511935	0.518675
	H287	H	0.563678	0.524669	0.506979
	O288	O	0.987432	0.048510	0.017858
	H289	H	0.985686	0.038979	0.018957
	H290	H	0.984825	0.051450	0.018901
	O291	O	-0.450802	0.472101	-0.454049
	H292	H	-0.445539	0.465171	-0.458525
	H293	H	-0.454937	0.472562	-0.466396
	O294	O	0.543955	0.518293	0.513477
	H295	H	0.526146	0.523046	0.510467
	H296	H	0.545268	0.506776	0.521137
	O297	O	-0.001251	1.064136	0.014182
	H298	H	-0.002835	1.071296	0.017386
	H299	H	0.003903	1.067015	0.014829
	O300	O	1.018004	0.048120	0.996719
	H301	H	1.021384	0.045048	0.998860
	H302	H	1.018925	0.051335	0.995691
	O303	O	0.522072	0.461540	0.535439
	H304	H	0.518464	0.464008	0.527627
	H305	H	0.529918	0.466691	0.546874
	O306	O	0.009533	1.039679	1.019057
	H307	H	0.007124	1.042725	1.019277
	H308	H	0.005285	1.038938	1.017196
	O309	O	0.528942	0.500727	0.479495
	H310	H	0.530851	0.500400	0.478882
	H311	H	0.530518	0.503290	0.478662
