data_Molecule from HDF5

_cell_length_a		16.232775
_cell_length_b		16.312117
_cell_length_c		16.383065
_cell_angle_alpha	90.030947
_cell_angle_beta	89.908335
_cell_angle_gamma	90.047800
_symmetry_space_group_name_H-M	'P 1'
_symmetry_Int_Tables_number		1

loop_
	_symmetry_equiv_pos_as_xyz
	x,y,z

loop_
	_atom_site_label
	_atom_site_type_symbol
	_atom_site_fract_x
	_atom_site_fract_y
	_atom_site_fract_z
	H0	H	0.396733	0.839384	0.714927
	H1	H	0.597025	0.165349	0.716618
	H2	H	0.597478	0.839973	0.283705
	H3	H	0.396649	0.165785	0.283156
	H4	H	0.712946	0.404705	0.836927
	H5	H	0.713307	0.602321	0.161762
	H6	H	0.282779	0.599285	0.837012
	H7	H	0.281361	0.401924	0.162081
	H8	H	0.833972	0.717431	0.402777
	H9	H	0.161733	0.719473	0.599032
	H10	H	0.833689	0.289775	0.599043
	H11	H	0.161725	0.289689	0.402290
	H12	H	0.834153	0.404504	0.715637
	H13	H	0.161889	0.603930	0.715936
	H14	H	0.834597	0.604094	0.285872
	H15	H	0.160849	0.402936	0.285272
	H16	H	0.397802	0.717767	0.836774
	H17	H	0.597961	0.719605	0.161479
	H18	H	0.597135	0.286977	0.836729
	H19	H	0.398164	0.286533	0.162072
	H20	H	0.711848	0.839248	0.402700
	H21	H	0.709849	0.167379	0.596817
	H22	H	0.282354	0.839775	0.596465
	H23	H	0.285098	0.168071	0.403104
	H24	H	0.897067	0.340413	0.217648
	H25	H	0.097523	0.666808	0.215761
	H26	H	0.097495	0.340415	0.783981
	H27	H	0.897715	0.666281	0.785470
	H28	H	0.212912	0.905338	0.336784
	H29	H	0.212201	0.101568	0.662504
	H30	H	0.784392	0.100921	0.336308
	H31	H	0.783196	0.906145	0.663639
	H32	H	0.333652	0.217267	0.901119
	H33	H	0.661279	0.217353	0.098224
	H34	H	0.333828	0.788079	0.098126
	H35	H	0.661855	0.789324	0.901422
	H36	H	0.333965	0.903375	0.214384
	H37	H	0.661335	0.102650	0.214018
	H38	H	0.333506	0.100491	0.786048
	H39	H	0.660471	0.902202	0.783619
	H40	H	0.897994	0.219903	0.337961
	H41	H	0.096777	0.218715	0.663273
	H42	H	0.098980	0.786489	0.337760
	H43	H	0.898406	0.788126	0.662956
	H44	H	0.210298	0.338062	0.903591
	H45	H	0.213574	0.666174	0.098776
	H46	H	0.782968	0.339422	0.098916
	H47	H	0.784329	0.666348	0.904110
	H48	H	0.399272	0.121453	0.597762
	H49	H	0.596463	0.884787	0.591563
	H50	H	0.598152	0.120758	0.408106
	H51	H	0.410168	0.891137	0.414275
	H52	H	0.592122	0.398035	0.118769
	H53	H	0.582020	0.600447	0.885268
	H54	H	0.402602	0.595019	0.115531
	H55	H	0.408754	0.409459	0.885683
	H56	H	0.114016	0.589835	0.404267
	H57	H	0.881409	0.595180	0.594120
	H58	H	0.114170	0.418068	0.596918
	H59	H	0.881679	0.410040	0.411996
	H60	H	0.117479	0.404825	0.596121
	H61	H	0.882022	0.596544	0.595036
	H62	H	0.117382	0.601417	0.404127
	H63	H	0.882571	0.416155	0.409355
	H64	H	0.407986	0.593341	0.113097
	H65	H	0.598931	0.602196	0.880422
	H66	H	0.598580	0.419002	0.115326
	H67	H	0.403149	0.404147	0.882724
	H68	H	0.586959	0.119644	0.398925
	H69	H	0.585528	0.886476	0.599491
	H70	H	0.410667	0.118479	0.598218
	H71	H	0.395899	0.885493	0.407967
	H72	H	0.909930	0.613110	0.082902
	H73	H	0.090115	0.384565	0.103732
	H74	H	0.084441	0.621764	0.892980
	H75	H	0.912896	0.387524	0.902033
	H76	H	0.096560	0.916743	0.614783
	H77	H	0.093299	0.106161	0.381030
	H78	H	0.908633	0.095942	0.613708
	H79	H	0.909233	0.911060	0.386649
	H80	H	0.612068	0.087249	0.905325
	H81	H	0.377317	0.102794	0.096980
	H82	H	0.612411	0.915907	0.092508
	H83	H	0.378498	0.904562	0.905310
	H84	H	0.615815	0.908823	0.096835
	H85	H	0.383435	0.094985	0.083121
	H86	H	0.616989	0.098829	0.902410
	H87	H	0.382687	0.909881	0.912119
	H88	H	0.902692	0.102112	0.617726
	H89	H	0.096070	0.090207	0.385337
	H90	H	0.081066	0.915089	0.610440
	H91	H	0.903490	0.906231	0.382853
	H92	H	0.081014	0.611992	0.919246
	H93	H	0.081750	0.390601	0.090828
	H94	H	0.893970	0.623436	0.094946
	H95	H	0.907372	0.389594	0.914711
	H96	H	0.405046	0.117241	0.588099
	H97	H	0.584921	0.890005	0.586285
	H98	H	0.585481	0.114900	0.412257
	H99	H	0.409679	0.886690	0.399012
	H100	H	0.578546	0.413181	0.109374
	H101	H	0.592855	0.586778	0.886376
	H102	H	0.406981	0.599257	0.115725
	H103	H	0.401596	0.412033	0.884224
	H104	H	0.112666	0.596645	0.414354
	H105	H	0.882280	0.597044	0.593772
	H106	H	0.111715	0.411307	0.585340
	H107	H	0.879515	0.411423	0.405289
	H108	H	0.914619	0.619395	0.104214
	H109	H	0.096895	0.386192	0.089218
	H110	H	0.105773	0.621838	0.910849
	H111	H	0.899522	0.384024	0.904681
	H112	H	0.088856	0.902802	0.617482
	H113	H	0.080957	0.096788	0.387260
	H114	H	0.899692	0.094128	0.615899
	H115	H	0.902236	0.913587	0.385596
	H116	H	0.612456	0.096431	0.914266
	H117	H	0.381884	0.086688	0.098000
	H118	H	0.613903	0.907910	0.087819
	H119	H	0.380478	0.913746	0.904271
	C120	C	0.375453	0.011113	0.622215
	C121	C	0.618527	0.994539	0.621577
	C122	C	0.619138	0.010950	0.377967
	C123	C	0.376378	0.995558	0.378556
	C124	C	0.619511	0.380937	0.007657
	C125	C	0.620098	0.625357	0.991176
	C126	C	0.376630	0.624117	0.007493
	C127	C	0.375531	0.379990	0.991522
	C128	C	0.006331	0.624933	0.379363
	C129	C	0.990053	0.625503	0.622413
	C130	C	0.006249	0.382488	0.621951
	C131	C	0.989249	0.382830	0.379503
	C132	C	0.876107	0.511237	0.123019
	C133	C	0.119077	0.494862	0.122727
	C134	C	0.119095	0.510835	0.878878
	C135	C	0.877277	0.494769	0.878824
	C136	C	0.118798	0.882015	0.507445
	C137	C	0.119102	0.126130	0.491921
	C138	C	0.875129	0.126030	0.508354
	C139	C	0.875965	0.881575	0.492417
	C140	C	0.505624	0.123206	0.879049
	C141	C	0.489120	0.124155	0.121148
	C142	C	0.505967	0.881401	0.120983
	C143	C	0.489045	0.880991	0.878443
	C144	C	0.376954	0.888150	0.677020
	C145	C	0.616694	0.117069	0.677541
	C146	C	0.617261	0.888291	0.322414
	C147	C	0.377435	0.117610	0.322263
	C148	C	0.675109	0.383625	0.885452
	C149	C	0.675392	0.622846	0.113292
	C150	C	0.320585	0.620867	0.885584
	C151	C	0.319804	0.382089	0.113772
	C152	C	0.883134	0.680001	0.381935
	C153	C	0.113112	0.681205	0.619525
	C154	C	0.882666	0.327563	0.619696
	C155	C	0.112667	0.327261	0.381751
	C156	C	0.883188	0.384336	0.677751
	C157	C	0.113283	0.623581	0.677411
	C158	C	0.883456	0.623561	0.323828
	C159	C	0.112152	0.383568	0.323402
	C160	C	0.378009	0.679455	0.885315
	C161	C	0.617977	0.681031	0.113051
	C162	C	0.617448	0.325233	0.885522
	C163	C	0.377678	0.324483	0.113484
	C164	C	0.673981	0.887989	0.381277
	C165	C	0.672899	0.118033	0.618214
	C166	C	0.319892	0.888461	0.618338
	C167	C	0.321813	0.118660	0.381772
	C168	C	0.877145	0.388990	0.179105
	C169	C	0.117538	0.617784	0.177862
	C170	C	0.117647	0.388743	0.822621
	C171	C	0.878193	0.617611	0.823647
	C172	C	0.174894	0.884434	0.385481
	C173	C	0.174555	0.122964	0.614162
	C174	C	0.820482	0.122859	0.385819
	C175	C	0.820833	0.884877	0.614872
	C176	C	0.382289	0.178512	0.881525
	C177	C	0.612381	0.179636	0.118712
	C178	C	0.382891	0.825857	0.118614
	C179	C	0.612553	0.826472	0.880772
	C180	C	0.382877	0.883312	0.176496
	C181	C	0.612337	0.122796	0.176453
	C182	C	0.382413	0.121000	0.823992
	C183	C	0.611893	0.882461	0.822320
	C184	C	0.877563	0.181609	0.386246
	C185	C	0.117131	0.180997	0.614422
	C186	C	0.117711	0.825986	0.385716
	C187	C	0.878379	0.826404	0.614602
	C188	C	0.173441	0.387560	0.882301
	C189	C	0.175160	0.617630	0.119719
	C190	C	0.820283	0.388538	0.120224
	C191	C	0.821866	0.617787	0.882739
	C192	C	0.398363	0.096920	0.600909
	C193	C	0.595718	0.909074	0.599073
	C194	C	0.596770	0.096285	0.399855
	C195	C	0.398636	0.909994	0.400549
	C196	C	0.596593	0.403375	0.092685
	C197	C	0.597797	0.602944	0.905954
	C198	C	0.399492	0.602412	0.092744
	C199	C	0.397867	0.402252	0.906299
	C200	C	0.092428	0.602605	0.401135
	C201	C	0.904167	0.603021	0.600701
	C202	C	0.092122	0.404751	0.599333
	C203	C	0.903505	0.405700	0.402289
	C204	C	0.899360	0.596662	0.100518
	C205	C	0.096303	0.409185	0.101001
	C206	C	0.097024	0.596582	0.901197
	C207	C	0.899921	0.409190	0.900715
	C208	C	0.095692	0.904930	0.592324
	C209	C	0.096833	0.104278	0.406670
	C210	C	0.897255	0.103987	0.593653
	C211	C	0.898494	0.903766	0.406904
	C212	C	0.591559	0.100771	0.901064
	C213	C	0.403194	0.101497	0.099215
	C214	C	0.591967	0.904196	0.098824
	C215	C	0.402918	0.902791	0.900682
	Zn216	Zn	0.497308	0.002063	0.750692
	Zn217	Zn	0.497551	0.003265	0.249313
	Zn218	Zn	0.748219	0.502561	0.000040
	Zn219	Zn	0.247442	0.502505	0.000632
	Zn220	Zn	-0.001980	0.752951	0.500181
	Zn221	Zn	-0.002308	0.254752	0.500573
	Zn222	Zn	-0.001988	0.503675	0.749980
	Zn223	Zn	-0.002415	0.503676	0.251816
	Zn224	Zn	0.497988	0.753555	-0.000973
	Zn225	Zn	0.497408	0.251369	-0.000311
	Zn226	Zn	0.747224	0.003143	0.500147
	Zn227	Zn	0.247254	0.004102	0.499535
	N228	N	0.410585	0.965638	0.679738
	N229	N	0.583572	0.039315	0.679681
	N230	N	0.583783	0.965653	0.320257
	N231	N	0.410710	0.040195	0.320214
	N232	N	0.676475	0.417419	0.962434
	N233	N	0.676903	0.588946	0.036580
	N234	N	0.319819	0.587126	0.962498
	N235	N	0.318464	0.416013	0.036873
	N236	N	0.960528	0.680873	0.415769
	N237	N	0.035592	0.682257	0.585994
	N238	N	0.960049	0.326286	0.585617
	N239	N	0.035154	0.326596	0.415913
	N240	N	0.960994	0.417973	0.679104
	N241	N	0.035652	0.589871	0.679384
	N242	N	0.961162	0.590044	0.322212
	N243	N	0.034732	0.417904	0.322377
	N244	N	0.412042	0.681623	0.962322
	N245	N	0.584350	0.682686	0.036063
	N246	N	0.583528	0.323335	0.962581
	N247	N	0.411577	0.323022	0.036623
	N248	N	0.675267	0.965170	0.415151
	N249	N	0.674234	0.040831	0.584271
	N250	N	0.318969	0.965784	0.585054
	N251	N	0.320959	0.041631	0.416142
	N252	N	0.910922	0.466307	0.181140
	N253	N	0.083662	0.540524	0.179983
	N254	N	0.084662	0.466367	0.820524
	N255	N	0.911778	0.540152	0.821206
	N256	N	0.175571	0.918705	0.462146
	N257	N	0.175907	0.089671	0.537069
	N258	N	0.819087	0.088879	0.462590
	N259	N	0.819322	0.918488	0.537873
	N260	N	0.459912	0.179717	0.915216
	N261	N	0.534840	0.180594	0.085169
	N262	N	0.460476	0.824568	0.084873
	N263	N	0.535194	0.825650	0.915095
	N264	N	0.460419	0.917180	0.178059
	N265	N	0.534641	0.089016	0.178245
	N266	N	0.459949	0.087258	0.822428
	N267	N	0.534062	0.915643	0.820784
	N268	N	0.911093	0.183715	0.463328
	N269	N	0.083117	0.182874	0.537588
	N270	N	0.083774	0.824220	0.462695
	N271	N	0.911757	0.824323	0.537258
	N272	N	0.174371	0.464552	0.916890
	N273	N	0.176203	0.540282	0.086177
	N274	N	0.819572	0.465610	0.086186
	N275	N	0.820993	0.540406	0.916158
	O276	O	1.575719	0.427873	0.475591
	H277	H	1.564148	0.429101	0.475539
	H278	H	1.571123	0.429717	0.470614
	O279	O	-0.015310	-0.003749	-0.028211
	H280	H	-0.014452	-0.004562	-0.025507
	H281	H	-0.016205	0.003614	-0.029315
	O282	O	0.023737	-0.118791	1.004693
	H283	H	0.037717	-0.117796	1.000579
	H284	H	0.021520	-0.123866	1.008496
	O285	O	0.494580	0.504692	0.425199
	H286	H	0.491905	0.502181	0.423833
	H287	H	0.496247	0.505881	0.423281
	O288	O	0.482614	0.518254	0.439785
	H289	H	0.487566	0.526318	0.442153
	H290	H	0.485986	0.510665	0.438069
	O291	O	0.504758	0.494593	0.433046
	H292	H	0.505815	0.489929	0.437575
	H293	H	0.502245	0.489603	0.431385
	O294	O	-0.033592	-0.039350	0.010277
	H295	H	-0.035137	-0.038652	0.015188
	H296	H	-0.033456	-0.044509	0.010230
	O297	O	0.500548	0.453725	0.438512
	H298	H	0.494687	0.455582	0.436826
	H299	H	0.484010	0.462552	0.431184
	O300	O	-0.069369	0.995184	1.024068
	H301	H	-0.066684	0.991046	1.023118
	H302	H	-0.078726	0.997131	1.033742
	O303	O	0.538116	0.528487	0.395740
	H304	H	0.549266	0.510793	0.400864
	H305	H	0.544361	0.529990	0.389086
	O306	O	-0.050788	0.010398	0.980441
	H307	H	-0.058549	0.012675	0.974507
	H308	H	-0.047658	0.015211	0.978344
	O309	O	1.016937	0.984155	0.925343
	H310	H	1.017236	0.986955	0.928377
	H311	H	1.019002	0.994695	0.923983
	O312	O	0.428430	0.497359	0.474720
	H313	H	0.440044	0.503856	0.477759
	H314	H	0.430978	0.510520	0.476647
	O315	O	0.578285	0.522063	0.463451
	H316	H	0.586801	0.518114	0.464124
	H317	H	0.579556	0.517709	0.460710
	O318	O	0.009668	0.945916	-0.012251
	H319	H	0.014543	0.937981	-0.021164
	H320	H	0.006147	0.939037	-0.018542
	O321	O	1.035702	0.947581	-0.026092
	H322	H	1.035873	0.943307	-0.031075
	H323	H	1.031848	0.941107	-0.019795
