data_Molecule from HDF5

_cell_length_a		16.321471
_cell_length_b		16.359966
_cell_length_c		16.300365
_cell_angle_alpha	89.959934
_cell_angle_beta	89.902768
_cell_angle_gamma	89.946073
_symmetry_space_group_name_H-M	'P 1'
_symmetry_Int_Tables_number		1

loop_
	_symmetry_equiv_pos_as_xyz
	x,y,z

loop_
	_atom_site_label
	_atom_site_type_symbol
	_atom_site_fract_x
	_atom_site_fract_y
	_atom_site_fract_z
	H0	H	0.403009	0.836585	0.717855
	H1	H	0.599696	0.162388	0.717206
	H2	H	0.599902	0.836156	0.288769
	H3	H	0.404069	0.162421	0.288455
	H4	H	0.716318	0.400185	0.839105
	H5	H	0.715542	0.597624	0.166664
	H6	H	0.287013	0.597063	0.839058
	H7	H	0.287936	0.401771	0.167137
	H8	H	0.838189	0.714852	0.404912
	H9	H	0.164814	0.714222	0.601202
	H10	H	0.838869	0.284232	0.601831
	H11	H	0.165131	0.284414	0.403584
	H12	H	0.838031	0.402789	0.715597
	H13	H	0.164837	0.598108	0.717164
	H14	H	0.837300	0.597543	0.289586
	H15	H	0.165338	0.401075	0.287078
	H16	H	0.401223	0.715141	0.839352
	H17	H	0.599721	0.713672	0.166536
	H18	H	0.600635	0.283898	0.839747
	H19	H	0.403326	0.284407	0.166112
	H20	H	0.717557	0.837129	0.403609
	H21	H	0.716437	0.162330	0.600772
	H22	H	0.287190	0.836343	0.600636
	H23	H	0.287742	0.162614	0.405040
	H24	H	0.904992	0.336013	0.216789
	H25	H	0.098232	0.663729	0.215653
	H26	H	0.099779	0.335526	0.787918
	H27	H	0.903618	0.662808	0.789510
	H28	H	0.217313	0.901058	0.338926
	H29	H	0.215972	0.098320	0.666020
	H30	H	0.787793	0.097214	0.338571
	H31	H	0.786299	0.901483	0.665712
	H32	H	0.339007	0.214893	0.903550
	H33	H	0.664640	0.215227	0.102416
	H34	H	0.337838	0.785605	0.102338
	H35	H	0.664075	0.782976	0.903302
	H36	H	0.339010	0.901197	0.218876
	H37	H	0.665624	0.096599	0.216181
	H38	H	0.338733	0.097951	0.788988
	H39	H	0.665229	0.900594	0.787957
	H40	H	0.903645	0.214594	0.339073
	H41	H	0.100250	0.214469	0.665728
	H42	H	0.100484	0.784655	0.339059
	H43	H	0.901881	0.784575	0.666050
	H44	H	0.216352	0.336256	0.904783
	H45	H	0.214938	0.663031	0.100639
	H46	H	0.787834	0.335362	0.100824
	H47	H	0.785444	0.662043	0.904685
	H48	H	0.411852	0.110179	0.582883
	H49	H	0.599022	0.882015	0.600276
	H50	H	0.600688	0.114500	0.418540
	H51	H	0.406138	0.884154	0.415837
	H52	H	0.599204	0.408065	0.119651
	H53	H	0.592636	0.590881	0.888530
	H54	H	0.407372	0.588345	0.117541
	H55	H	0.406216	0.393956	0.882732
	H56	H	0.116134	0.593357	0.414574
	H57	H	0.886411	0.596422	0.591449
	H58	H	0.115523	0.412443	0.592475
	H59	H	0.886472	0.404075	0.412848
	H60	H	0.119802	0.406208	0.602457
	H61	H	0.887011	0.588540	0.596019
	H62	H	0.116559	0.588365	0.405223
	H63	H	0.887694	0.409912	0.410488
	H64	H	0.411531	0.595340	0.118953
	H65	H	0.592608	0.592817	0.886870
	H66	H	0.590168	0.411232	0.116635
	H67	H	0.398701	0.414732	0.886417
	H68	H	0.600470	0.119556	0.399987
	H69	H	0.587308	0.886013	0.596998
	H70	H	0.392968	0.120401	0.598536
	H71	H	0.407413	0.881864	0.404690
	H72	H	0.902619	0.615770	0.094082
	H73	H	0.099662	0.383055	0.094812
	H74	H	0.096462	0.614354	0.912792
	H75	H	0.908802	0.384309	0.910764
	H76	H	0.085708	0.908375	0.615196
	H77	H	0.101831	0.100198	0.382520
	H78	H	0.907008	0.091071	0.619057
	H79	H	0.906346	0.912073	0.387910
	H80	H	0.618207	0.089462	0.906491
	H81	H	0.384594	0.099396	0.095746
	H82	H	0.614637	0.910742	0.092169
	H83	H	0.385661	0.903677	0.910910
	H84	H	0.619233	0.905761	0.101413
	H85	H	0.388314	0.089930	0.090708
	H86	H	0.619102	0.096646	0.908866
	H87	H	0.387384	0.908551	0.912748
	H88	H	0.910413	0.092537	0.617129
	H89	H	0.098831	0.083411	0.388271
	H90	H	0.096217	0.897191	0.621187
	H91	H	0.915778	0.905199	0.387912
	H92	H	0.094723	0.615343	0.906151
	H93	H	0.092539	0.383509	0.101088
	H94	H	0.908032	0.616014	0.100587
	H95	H	0.905972	0.382644	0.908682
	H96	H	0.417283	0.116330	0.607669
	H97	H	0.596459	0.884894	0.588205
	H98	H	0.584563	0.112651	0.407729
	H99	H	0.415748	0.886135	0.410974
	H100	H	0.591656	0.401575	0.119539
	H101	H	0.594456	0.591714	0.886929
	H102	H	0.403596	0.595158	0.120396
	H103	H	0.419817	0.409733	0.890874
	H104	H	0.120065	0.598607	0.405644
	H105	H	0.883307	0.595738	0.599933
	H106	H	0.118362	0.400183	0.591063
	H107	H	0.885322	0.405721	0.406924
	H108	H	0.910373	0.613036	0.093299
	H109	H	0.091186	0.386182	0.091936
	H110	H	0.090203	0.612818	0.910545
	H111	H	0.909461	0.383451	0.907086
	H112	H	0.101073	0.912539	0.618775
	H113	H	0.085360	0.095661	0.388851
	H114	H	0.907709	0.094882	0.619566
	H115	H	0.905731	0.900987	0.383613
	H116	H	0.616708	0.091269	0.914010
	H117	H	0.385106	0.089055	0.101432
	H118	H	0.618152	0.899739	0.091152
	H119	H	0.385501	0.908212	0.907714
	C120	C	0.379318	0.007903	0.624925
	C121	C	0.622942	0.991447	0.623860
	C122	C	0.623762	0.007990	0.380518
	C123	C	0.380872	0.991376	0.381716
	C124	C	0.622623	0.377976	0.010880
	C125	C	0.622177	0.620220	0.995390
	C126	C	0.379177	0.621330	0.010748
	C127	C	0.379709	0.377830	0.994942
	C128	C	0.009381	0.621910	0.380855
	C129	C	0.993416	0.621500	0.624152
	C130	C	0.009796	0.378146	0.623717
	C131	C	0.994115	0.378209	0.381106
	C132	C	0.879323	0.507120	0.124302
	C133	C	0.122720	0.491917	0.124265
	C134	C	0.122782	0.507058	0.881080
	C135	C	0.879472	0.491137	0.880763
	C136	C	0.122971	0.878098	0.510478
	C137	C	0.123216	0.121176	0.494513
	C138	C	0.880152	0.121119	0.510361
	C139	C	0.880215	0.878060	0.494552
	C140	C	0.509884	0.120558	0.881633
	C141	C	0.493819	0.121113	0.124363
	C142	C	0.509751	0.877493	0.124466
	C143	C	0.493525	0.877592	0.881069
	C144	C	0.382884	0.885110	0.679631
	C145	C	0.620160	0.114013	0.678883
	C146	C	0.620952	0.885069	0.325852
	C147	C	0.383338	0.113958	0.326375
	C148	C	0.678067	0.380108	0.887906
	C149	C	0.677545	0.617861	0.117895
	C150	C	0.324391	0.618225	0.887935
	C151	C	0.325280	0.381102	0.117958
	C152	C	0.886544	0.676560	0.384193
	C153	C	0.116175	0.676527	0.621696
	C154	C	0.887436	0.322664	0.621763
	C155	C	0.116591	0.322595	0.382936
	C156	C	0.886782	0.381523	0.678194
	C157	C	0.116145	0.618642	0.679242
	C158	C	0.886349	0.618407	0.326814
	C159	C	0.116857	0.380997	0.325546
	C160	C	0.381210	0.676833	0.888123
	C161	C	0.619836	0.675383	0.117968
	C162	C	0.620640	0.322518	0.888109
	C163	C	0.382510	0.322803	0.117642
	C164	C	0.678988	0.885278	0.383240
	C165	C	0.678140	0.114083	0.621210
	C166	C	0.324891	0.885105	0.621960
	C167	C	0.325941	0.114115	0.384602
	C168	C	0.883551	0.384539	0.179051
	C169	C	0.118952	0.614978	0.178138
	C170	C	0.120166	0.384321	0.826043
	C171	C	0.882356	0.613833	0.826643
	C172	C	0.178742	0.880655	0.387584
	C173	C	0.177466	0.117987	0.617568
	C174	C	0.825588	0.118116	0.387429
	C175	C	0.824297	0.880870	0.617035
	C176	C	0.387546	0.176328	0.883923
	C177	C	0.616227	0.176608	0.122100
	C178	C	0.386750	0.823082	0.122541
	C179	C	0.615779	0.821466	0.882983
	C180	C	0.387373	0.880526	0.180554
	C181	C	0.616757	0.117769	0.178843
	C182	C	0.387336	0.118320	0.826800
	C183	C	0.616337	0.879909	0.825806
	C184	C	0.882740	0.176578	0.387795
	C185	C	0.120556	0.176204	0.617243
	C186	C	0.120903	0.822832	0.387575
	C187	C	0.881689	0.822855	0.617328
	C188	C	0.178386	0.384536	0.883689
	C189	C	0.177222	0.614507	0.121152
	C190	C	0.825394	0.384197	0.121412
	C191	C	0.823885	0.613567	0.884063
	C192	C	0.401063	0.093452	0.602974
	C193	C	0.600801	0.906428	0.601684
	C194	C	0.601715	0.093592	0.402248
	C195	C	0.403033	0.906105	0.404118
	C196	C	0.600154	0.400373	0.096375
	C197	C	0.599832	0.598233	0.909796
	C198	C	0.401043	0.599417	0.096770
	C199	C	0.401752	0.399700	0.908785
	C200	C	0.095242	0.600140	0.402398
	C201	C	0.907659	0.599855	0.602250
	C202	C	0.095731	0.399912	0.601650
	C203	C	0.908536	0.400160	0.403543
	C204	C	0.900564	0.592754	0.102366
	C205	C	0.100745	0.406306	0.102457
	C206	C	0.100389	0.592205	0.903342
	C207	C	0.901690	0.405499	0.902480
	C208	C	0.100884	0.899659	0.596217
	C209	C	0.101641	0.099452	0.408636
	C210	C	0.901934	0.099161	0.596416
	C211	C	0.902824	0.899619	0.408754
	C212	C	0.595868	0.098816	0.903422
	C213	C	0.407925	0.099101	0.102547
	C214	C	0.595366	0.899276	0.101630
	C215	C	0.408293	0.900215	0.903759
	Zn216	Zn	0.501739	-0.000021	0.752865
	Zn217	Zn	0.502010	-0.000656	0.252476
	Zn218	Zn	0.750487	0.498854	0.002717
	Zn219	Zn	0.251349	0.499499	0.002955
	Zn220	Zn	0.001512	0.749662	0.502915
	Zn221	Zn	0.002039	0.249536	0.502635
	Zn222	Zn	0.001474	0.499511	0.752031
	Zn223	Zn	0.001443	0.500043	0.252706
	Zn224	Zn	0.501091	0.749288	0.002767
	Zn225	Zn	0.501749	0.249322	0.002607
	Zn226	Zn	0.751871	-0.000399	0.502389
	Zn227	Zn	0.251465	-0.000383	0.502543
	N228	N	0.415821	0.962545	0.681761
	N229	N	0.586580	0.036998	0.680646
	N230	N	0.587428	0.962245	0.324075
	N231	N	0.416845	0.036763	0.324548
	N232	N	0.679324	0.413981	0.965127
	N233	N	0.679213	0.584365	0.040600
	N234	N	0.323167	0.584433	0.965227
	N235	N	0.323520	0.414552	0.040389
	N236	N	0.964138	0.678783	0.417052
	N237	N	0.038802	0.678481	0.588228
	N238	N	0.964979	0.320560	0.588640
	N239	N	0.039388	0.320896	0.416780
	N240	N	0.963815	0.415325	0.679424
	N241	N	0.038829	0.585402	0.680920
	N242	N	0.963733	0.584926	0.324930
	N243	N	0.039739	0.415072	0.324434
	N244	N	0.414533	0.678867	0.965600
	N245	N	0.586002	0.676918	0.040732
	N246	N	0.586777	0.321103	0.965514
	N247	N	0.415781	0.320782	0.040203
	N248	N	0.680960	0.962634	0.416317
	N249	N	0.680125	0.037013	0.587720
	N250	N	0.322605	0.962294	0.588698
	N251	N	0.324309	0.036969	0.418149
	N252	N	0.916114	0.461944	0.181187
	N253	N	0.085891	0.537694	0.180228
	N254	N	0.086350	0.461357	0.824091
	N255	N	0.916021	0.536764	0.824443
	N256	N	0.180111	0.914177	0.464908
	N257	N	0.179114	0.084147	0.540295
	N258	N	0.824154	0.084210	0.464608
	N259	N	0.823176	0.914309	0.539611
	N260	N	0.464781	0.177637	0.917561
	N261	N	0.538898	0.178531	0.088803
	N262	N	0.463829	0.821211	0.088209
	N263	N	0.538519	0.819908	0.916632
	N264	N	0.464827	0.913582	0.181822
	N265	N	0.539572	0.083991	0.180236
	N266	N	0.464466	0.084383	0.825483
	N267	N	0.539281	0.914093	0.824497
	N268	N	0.915647	0.178714	0.465463
	N269	N	0.087471	0.178031	0.539774
	N270	N	0.086790	0.821200	0.464900
	N271	N	0.915880	0.821255	0.540282
	N272	N	0.179994	0.461665	0.917266
	N273	N	0.179782	0.537039	0.088421
	N274	N	0.822753	0.461380	0.087876
	N275	N	0.822131	0.536138	0.917075
	O276	O	0.080332	-0.093617	0.967038
	H277	H	0.085253	-0.089146	0.972195
	H278	H	0.073460	-0.089232	0.975209
	O279	O	0.581143	0.545342	0.495588
	H280	H	0.581033	0.550978	0.502577
	H281	H	0.585157	0.542729	0.495071
	O282	O	0.546915	0.564634	0.474932
	H283	H	0.548093	0.570738	0.475898
	H284	H	0.540916	0.554491	0.470241
	O285	O	0.567511	0.517334	0.516890
	H286	H	0.571984	0.525096	0.517041
	H287	H	0.571577	0.519440	0.507660
	O288	O	0.042369	0.935597	-0.020920
	H289	H	0.051159	0.927740	-0.023709
	H290	H	0.049455	0.945637	-0.027815
	O291	O	0.045791	0.942351	0.972222
	H292	H	0.049137	0.937261	0.960561
	H293	H	0.038482	0.930235	0.980425
	O294	O	0.545010	0.558143	0.493115
	H295	H	0.541103	0.552890	0.496138
	H296	H	0.551911	0.559054	0.495833
	O297	O	1.026001	-0.082199	-0.008268
	H298	H	1.024681	-0.083952	-0.012041
	H299	H	1.024224	-0.085722	-0.006445
