data_Molecule from HDF5

_cell_length_a		16.426832
_cell_length_b		16.560513
_cell_length_c		16.413619
_cell_angle_alpha	89.890785
_cell_angle_beta	89.965983
_cell_angle_gamma	89.997465
_symmetry_space_group_name_H-M	'P 1'
_symmetry_Int_Tables_number		1

loop_
	_symmetry_equiv_pos_as_xyz
	x,y,z

loop_
	_atom_site_label
	_atom_site_type_symbol
	_atom_site_fract_x
	_atom_site_fract_y
	_atom_site_fract_z
	H0	H	0.399751	0.857132	0.726711
	H1	H	0.612118	0.170401	0.722514
	H2	H	0.611217	0.854813	0.281805
	H3	H	0.401563	0.168952	0.280193
	H4	H	0.730035	0.407884	0.845345
	H5	H	0.727876	0.617339	0.162432
	H6	H	0.286501	0.616239	0.844199
	H7	H	0.288301	0.408331	0.162893
	H8	H	0.848268	0.735132	0.395248
	H9	H	0.163496	0.735342	0.610091
	H10	H	0.847246	0.290760	0.609440
	H11	H	0.162781	0.288611	0.396603
	H12	H	0.845906	0.409811	0.722952
	H13	H	0.164892	0.616666	0.723082
	H14	H	0.848945	0.619088	0.279635
	H15	H	0.164680	0.407543	0.283301
	H16	H	0.399329	0.735112	0.845495
	H17	H	0.612591	0.734335	0.161518
	H18	H	0.617367	0.289227	0.845922
	H19	H	0.403517	0.291051	0.161744
	H20	H	0.726998	0.854323	0.397169
	H21	H	0.729212	0.169410	0.606775
	H22	H	0.283158	0.856622	0.610391
	H23	H	0.283048	0.169273	0.395775
	H24	H	0.902622	0.353593	0.224292
	H25	H	0.111720	0.669206	0.224113
	H26	H	0.110213	0.353659	0.783015
	H27	H	0.900606	0.669797	0.780552
	H28	H	0.225860	0.909774	0.344129
	H29	H	0.228793	0.118683	0.659612
	H30	H	0.786979	0.115957	0.342568
	H31	H	0.786569	0.909722	0.662243
	H32	H	0.349561	0.234665	0.898273
	H33	H	0.665710	0.234787	0.110837
	H34	H	0.349101	0.790402	0.110075
	H35	H	0.664736	0.790615	0.896850
	H36	H	0.347585	0.909003	0.223046
	H37	H	0.665068	0.117896	0.225492
	H38	H	0.348619	0.118699	0.781924
	H39	H	0.666000	0.909550	0.782739
	H40	H	0.899435	0.234883	0.344633
	H41	H	0.114148	0.235710	0.659347
	H42	H	0.110911	0.792179	0.344973
	H43	H	0.900405	0.791129	0.661289
	H44	H	0.225704	0.353034	0.901523
	H45	H	0.228695	0.669216	0.107497
	H46	H	0.785713	0.354313	0.108314
	H47	H	0.785010	0.670025	0.897885
	H48	H	0.412530	0.126313	0.590838
	H49	H	0.597212	0.899989	0.594099
	H50	H	0.596376	0.123705	0.414989
	H51	H	0.416461	0.900387	0.414154
	H52	H	0.593052	0.425382	0.114538
	H53	H	0.600306	0.599327	0.889514
	H54	H	0.414042	0.597574	0.116100
	H55	H	0.413872	0.416035	0.886432
	H56	H	0.119754	0.603306	0.413152
	H57	H	0.893550	0.601699	0.590968
	H58	H	0.121434	0.416921	0.593209
	H59	H	0.894473	0.421788	0.420704
	H60	H	0.115428	0.422730	0.584712
	H61	H	0.892609	0.600492	0.592033
	H62	H	0.118098	0.603268	0.418673
	H63	H	0.894304	0.428800	0.413344
	H64	H	0.424444	0.598792	0.113262
	H65	H	0.591648	0.598358	0.892541
	H66	H	0.593638	0.419854	0.116043
	H67	H	0.414338	0.428778	0.890574
	H68	H	0.597369	0.125237	0.412160
	H69	H	0.592409	0.901948	0.593074
	H70	H	0.419360	0.125536	0.595149
	H71	H	0.416741	0.900873	0.413498
	H72	H	0.917192	0.624582	0.092525
	H73	H	0.097030	0.402319	0.084207
	H74	H	0.094818	0.625111	0.908202
	H75	H	0.919229	0.401483	0.914106
	H76	H	0.095690	0.927728	0.615661
	H77	H	0.095421	0.100211	0.389754
	H78	H	0.918784	0.101559	0.615775
	H79	H	0.909830	0.922749	0.387448
	H80	H	0.618334	0.103784	0.922935
	H81	H	0.392582	0.104118	0.093986
	H82	H	0.618137	0.922859	0.089114
	H83	H	0.394823	0.922055	0.919031
	H84	H	0.619312	0.924809	0.093000
	H85	H	0.396162	0.103582	0.084430
	H86	H	0.618389	0.093662	0.909936
	H87	H	0.395234	0.927665	0.915212
	H88	H	0.916885	0.101508	0.616044
	H89	H	0.090789	0.099606	0.391772
	H90	H	0.088808	0.922230	0.615097
	H91	H	0.920173	0.925956	0.391308
	H92	H	0.095875	0.623711	0.916333
	H93	H	0.106232	0.394696	0.097813
	H94	H	0.917924	0.624461	0.093189
	H95	H	0.918247	0.400835	0.915202
	H96	H	0.418949	0.122983	0.587189
	H97	H	0.596018	0.900825	0.589442
	H98	H	0.594078	0.124303	0.412777
	H99	H	0.417170	0.900208	0.414108
	H100	H	0.598279	0.423719	0.116862
	H101	H	0.594505	0.606408	0.889857
	H102	H	0.418780	0.607149	0.118037
	H103	H	0.425272	0.421345	0.891789
	H104	H	0.117047	0.598526	0.414974
	H105	H	0.892976	0.602489	0.592016
	H106	H	0.117318	0.427666	0.595587
	H107	H	0.890485	0.419528	0.411921
	H108	H	0.917699	0.622966	0.091993
	H109	H	0.089026	0.399701	0.100609
	H110	H	0.102404	0.626482	0.911879
	H111	H	0.917872	0.400370	0.913422
	H112	H	0.096610	0.919782	0.618689
	H113	H	0.092061	0.103688	0.388656
	H114	H	0.917333	0.099331	0.615395
	H115	H	0.918346	0.915824	0.388042
	H116	H	0.624894	0.108438	0.908320
	H117	H	0.397575	0.095462	0.090457
	H118	H	0.620689	0.920929	0.092145
	H119	H	0.392559	0.922045	0.911985
	C120	C	0.384174	0.021632	0.624688
	C121	C	0.628292	1.004372	0.624156
	C122	C	0.627984	0.020525	0.380908
	C123	C	0.384364	1.004160	0.381068
	C124	C	0.628788	0.390801	0.011586
	C125	C	0.627931	0.633863	0.995430
	C126	C	0.386001	0.633415	0.011313
	C127	C	0.386383	0.390191	0.994962
	C128	C	0.014500	0.634455	0.381663
	C129	C	0.997573	0.633909	0.624313
	C130	C	0.013738	0.390351	0.624278
	C131	C	0.997843	0.391086	0.382820
	C132	C	0.885440	0.520034	0.125067
	C133	C	0.128743	0.503243	0.124994
	C134	C	0.128912	0.520403	0.881160
	C135	C	0.885740	0.504821	0.882018
	C136	C	0.126024	0.891887	0.511638
	C137	C	0.126467	0.133875	0.494062
	C138	C	0.885262	0.132941	0.510616
	C139	C	0.883943	0.889965	0.494134
	C140	C	0.516074	0.134735	0.881470
	C141	C	0.499520	0.133600	0.123679
	C142	C	0.515153	0.890852	0.124108
	C143	C	0.498483	0.891511	0.881909
	C144	C	0.381541	0.904130	0.686281
	C145	C	0.630702	0.122932	0.683084
	C146	C	0.630075	0.902164	0.321047
	C147	C	0.382168	0.121961	0.320074
	C148	C	0.690031	0.389064	0.892962
	C149	C	0.687994	0.635886	0.114688
	C150	C	0.325846	0.635289	0.892183
	C151	C	0.327657	0.389362	0.114833
	C152	C	0.895697	0.694852	0.377832
	C153	C	0.116323	0.694511	0.627172
	C154	C	0.894763	0.330670	0.627478
	C155	C	0.115968	0.329703	0.379312
	C156	C	0.894292	0.389884	0.684097
	C157	C	0.117049	0.635584	0.683875
	C158	C	0.896109	0.636905	0.320159
	C159	C	0.116916	0.388684	0.322663
	C160	C	0.382493	0.694246	0.892762
	C161	C	0.630691	0.694161	0.114300
	C162	C	0.633591	0.330162	0.892988
	C163	C	0.384986	0.331075	0.114530
	C164	C	0.687403	0.901956	0.379178
	C165	C	0.688730	0.122567	0.625404
	C166	C	0.323552	0.903763	0.628254
	C167	C	0.323565	0.122085	0.377694
	C168	C	0.883583	0.401347	0.185070
	C169	C	0.130145	0.622065	0.184285
	C170	C	0.129178	0.401111	0.822828
	C171	C	0.882662	0.622802	0.821128
	C172	C	0.185979	0.890650	0.392054
	C173	C	0.188196	0.136630	0.612534
	C174	C	0.826231	0.134450	0.390652
	C175	C	0.825322	0.889638	0.613980
	C176	C	0.396780	0.194647	0.879485
	C177	C	0.618221	0.194179	0.127804
	C178	C	0.396143	0.830914	0.127264
	C179	C	0.617461	0.831103	0.879250
	C180	C	0.395498	0.889843	0.183821
	C181	C	0.617883	0.135958	0.185133
	C182	C	0.396440	0.136985	0.821610
	C183	C	0.618096	0.890235	0.822226
	C184	C	0.881849	0.194042	0.391842
	C185	C	0.131249	0.194980	0.612279
	C186	C	0.128713	0.832372	0.392299
	C187	C	0.882055	0.830650	0.613800
	C188	C	0.186724	0.400721	0.881624
	C189	C	0.188370	0.621937	0.126212
	C190	C	0.825519	0.401652	0.127249
	C191	C	0.825231	0.622763	0.879744
	C192	C	0.409567	0.103586	0.598602
	C193	C	0.602492	0.922328	0.599404
	C194	C	0.602914	0.102948	0.405903
	C195	C	0.409445	0.921882	0.406545
	C196	C	0.602342	0.415889	0.094331
	C197	C	0.602756	0.608703	0.912442
	C198	C	0.411799	0.608166	0.094200
	C199	C	0.410887	0.414785	0.911306
	C200	C	0.096881	0.609105	0.408010
	C201	C	0.914648	0.608804	0.599087
	C202	C	0.096746	0.415252	0.598519
	C203	C	0.914978	0.416269	0.408043
	C204	C	0.910490	0.602603	0.099962
	C205	C	0.104414	0.420483	0.101111
	C206	C	0.104902	0.603386	0.905274
	C207	C	0.911266	0.422299	0.907201
	C208	C	0.100933	0.916143	0.594685
	C209	C	0.100300	0.108432	0.411667
	C210	C	0.910339	0.108069	0.593933
	C211	C	0.909007	0.914336	0.410641
	C212	C	0.598849	0.109249	0.906340
	C213	C	0.417043	0.108488	0.097114
	C214	C	0.597874	0.915625	0.098786
	C215	C	0.415753	0.916673	0.907761
	Zn216	Zn	0.506810	0.013378	0.753168
	Zn217	Zn	0.506922	0.012212	0.252225
	Zn218	Zn	0.756504	0.512800	0.003766
	Zn219	Zn	0.258134	0.511737	0.003317
	Zn220	Zn	0.005859	0.762519	0.503089
	Zn221	Zn	0.004726	0.261544	0.503302
	Zn222	Zn	0.006399	0.512390	0.752775
	Zn223	Zn	0.006724	0.512020	0.254141
	Zn224	Zn	0.506416	0.762184	0.003518
	Zn225	Zn	0.508189	0.262329	0.003131
	Zn226	Zn	0.756557	0.012664	0.502064
	Zn227	Zn	0.254996	0.012823	0.502741
	N228	N	0.418524	0.978528	0.684175
	N229	N	0.593933	0.048534	0.682586
	N230	N	0.593754	0.976872	0.322192
	N231	N	0.419107	0.047520	0.321910
	N232	N	0.686992	0.426127	0.967668
	N233	N	0.686340	0.599210	0.039763
	N234	N	0.328025	0.598105	0.967044
	N235	N	0.328404	0.425401	0.039393
	N236	N	0.970317	0.693494	0.415317
	N237	N	0.040891	0.693686	0.591076
	N238	N	0.970164	0.330717	0.591401
	N239	N	0.040912	0.331234	0.416154
	N240	N	0.969522	0.426296	0.682331
	N241	N	0.042198	0.598551	0.682275
	N242	N	0.970924	0.599896	0.322405
	N243	N	0.042444	0.426226	0.324774
	N244	N	0.419027	0.693164	0.967987
	N245	N	0.594292	0.693271	0.038862
	N246	N	0.596188	0.331079	0.967919
	N247	N	0.420704	0.331522	0.038722
	N248	N	0.686369	0.976536	0.415687
	N249	N	0.687657	0.047609	0.589672
	N250	N	0.324948	0.977868	0.590676
	N251	N	0.324797	0.047678	0.414741
	N252	N	0.919960	0.476204	0.183954
	N253	N	0.094127	0.547196	0.183852
	N254	N	0.094433	0.476619	0.822081
	N255	N	0.919695	0.548473	0.822652
	N256	N	0.184388	0.926900	0.467196
	N257	N	0.185382	0.099441	0.537959
	N258	N	0.828254	0.097195	0.465621
	N259	N	0.826348	0.925671	0.538518
	N260	N	0.472123	0.193415	0.915783
	N261	N	0.543592	0.192592	0.090173
	N262	N	0.471570	0.831154	0.091226
	N263	N	0.541879	0.831547	0.915302
	N264	N	0.470466	0.926320	0.182092
	N265	N	0.543145	0.098838	0.182745
	N266	N	0.471625	0.100465	0.822552
	N267	N	0.543033	0.927004	0.823628
	N268	N	0.917602	0.193233	0.467440
	N269	N	0.093706	0.193493	0.537597
	N270	N	0.092321	0.832900	0.467615
	N271	N	0.917394	0.830570	0.537911
	N272	N	0.186958	0.476024	0.916828
	N273	N	0.187640	0.547191	0.090177
	N274	N	0.826384	0.476413	0.091007
	N275	N	0.827071	0.548304	0.916937
	O276	O	0.562451	0.454919	0.667680
	H277	H	0.557828	0.478357	0.673030
	H278	H	0.547035	0.465636	0.658003
	O279	O	0.802230	-0.054601	1.207011
	H280	H	0.794847	-0.025801	1.196333
	H281	H	0.799565	-0.047978	1.220942
	O282	O	0.662639	0.597560	0.473355
	H283	H	0.650380	0.592322	0.489966
	H284	H	0.650460	0.600241	0.456847
	O285	O	0.714681	0.701134	0.483700
	H286	H	0.737680	0.714672	0.490211
	H287	H	0.696039	0.685455	0.476461
	O288	O	0.947119	1.128605	0.009485
	H289	H	0.957543	1.134594	0.014085
	H290	H	0.938851	1.140178	-0.000519
	O291	O	0.569414	0.309730	0.310422
	H292	H	0.551468	0.290613	0.296997
	H293	H	0.557770	0.308154	0.339657
	O294	O	-0.056742	0.043479	1.107349
	H295	H	-0.050297	0.051989	1.096867
	H296	H	-0.042063	0.044174	1.106820
	O297	O	0.448427	0.726861	0.492985
	H298	H	0.471748	0.726563	0.503626
	H299	H	0.436583	0.730961	0.488996
	O300	O	0.883688	1.002930	1.041971
	H301	H	0.878227	0.993552	1.040356
	H302	H	0.880541	1.007764	1.040424
	O303	O	0.391959	0.701591	0.305783
	H304	H	0.414572	0.717671	0.301254
	H305	H	0.370811	0.718285	0.325379
	O306	O	0.634159	0.543672	0.702526
	H307	H	0.642342	0.542666	0.687510
	H308	H	0.630558	0.577969	0.711879
	O309	O	0.473999	0.296793	0.478624
	H310	H	0.486134	0.298256	0.483879
	H311	H	0.457348	0.303984	0.482345
	O312	O	0.186545	1.010346	1.035818
	H313	H	0.170030	1.019948	1.017283
	H314	H	0.184077	1.007968	1.044898
	O315	O	0.696064	0.399882	0.315689
	H316	H	0.686003	0.390152	0.315967
	H317	H	0.699314	0.400396	0.293254
	O318	O	1.217249	-0.008271	-0.198501
	H319	H	1.206050	-0.023875	-0.196334
	H320	H	1.243123	-0.025795	-0.220538
	O321	O	0.103382	0.015502	0.209585
	H322	H	0.123424	0.027122	0.202791
	H323	H	0.099449	0.028321	0.211454
	O324	O	0.699302	0.702375	0.697206
	H325	H	0.701038	0.699360	0.712067
	H326	H	0.709953	0.701950	0.655421
	O327	O	0.597927	0.427764	0.439549
	H328	H	0.607077	0.414836	0.425377
	H329	H	0.598094	0.433852	0.433234
	O330	O	-0.045866	1.010125	-0.035108
	H331	H	-0.050278	1.013230	-0.021727
	H332	H	-0.038873	1.002353	-0.041662
	O333	O	0.709558	0.309319	0.494329
	H334	H	0.722107	0.322926	0.503597
	H335	H	0.705528	0.305000	0.469581
	O336	O	-0.624588	-0.296176	0.646379
	H337	H	-0.618202	-0.303194	0.636898
	H338	H	-0.597744	-0.294828	0.645325
	O339	O	0.054813	1.156306	0.855243
	H340	H	0.072430	1.143024	0.846848
	H341	H	0.049473	1.160513	0.851529
	O342	O	-0.102853	0.806475	1.166909
	H343	H	-0.096025	0.810967	1.165828
	H344	H	-0.105625	0.801883	1.190770
	O345	O	1.008244	0.962939	0.086640
	H346	H	0.997268	0.958211	0.077073
	H347	H	1.020382	0.945705	0.081537
	O348	O	0.519114	0.485833	0.357980
	H349	H	0.533003	0.484992	0.356306
	H350	H	0.498013	0.469740	0.375213
	O351	O	0.714688	0.530254	0.495251
	H352	H	0.701978	0.521279	0.485910
	H353	H	0.709804	0.543332	0.500437
	O354	O	-0.074614	0.958398	0.040631
	H355	H	-0.062832	0.969720	0.035696
	H356	H	-0.082681	0.964938	0.034807
	O357	O	0.193315	0.121213	1.204977
	H358	H	0.176426	0.151530	1.205563
	H359	H	0.215635	0.103203	1.219417
	O360	O	0.359276	0.520527	0.302300
	H361	H	0.327129	0.540504	0.277722
	H362	H	0.379399	0.552558	0.302171
	O363	O	-0.065982	-0.204387	1.022663
	H364	H	-0.087478	-0.219275	1.033548
	H365	H	-0.053148	-0.195008	1.041678
	O366	O	-0.079197	-0.127232	-0.134078
	H367	H	-0.089700	-0.109505	-0.117983
	H368	H	-0.067642	-0.115621	-0.121744
	O369	O	0.300811	0.527436	0.546609
	H370	H	0.299862	0.532579	0.550491
	H371	H	0.300349	0.519889	0.569113
	O372	O	1.190891	-0.169967	0.820007
	H373	H	1.159406	-0.175232	0.824854
	H374	H	1.198250	-0.176094	0.813672
	O375	O	0.511100	0.508637	0.602836
	H376	H	0.508867	0.508927	0.585797
	H377	H	0.496760	0.499597	0.622367
	O378	O	0.329367	0.432706	0.420884
	H379	H	0.336093	0.452871	0.422003
	H380	H	0.324756	0.443574	0.414489
	O381	O	0.300103	0.307148	0.523293
	H382	H	0.293200	0.315204	0.515205
	H383	H	0.285706	0.302100	0.529226
	O384	O	0.293332	0.629899	0.398876
	H385	H	0.301410	0.643021	0.406226
	H386	H	0.281087	0.645225	0.399687
	O387	O	0.065772	0.122234	0.861408
	H388	H	0.043225	0.099206	0.857466
	H389	H	0.076567	0.126089	0.855331
	O390	O	-0.002676	0.186123	0.188548
	H391	H	0.005638	0.184580	0.176757
	H392	H	-0.023261	0.189034	0.199289
	O393	O	1.211388	1.216737	1.122446
	H394	H	1.214930	1.232384	1.148244
	H395	H	1.226752	1.227779	1.096141
	O396	O	0.594998	-0.258312	0.394700
	H397	H	0.602131	-0.285480	0.401982
	H398	H	0.607095	-0.234314	0.400476
	O399	O	0.877680	0.208500	0.808309
	H400	H	0.872338	0.203713	0.795409
	H401	H	0.879511	0.215357	0.818460
	O402	O	0.801830	0.964124	0.955129
	H403	H	0.801716	0.974371	0.989888
	H404	H	0.787602	0.939682	0.951672
	O405	O	1.117815	1.197994	-0.019139
	H406	H	1.126623	1.196756	-0.033604
	H407	H	1.121354	1.191887	-0.014939
	O408	O	1.111594	-0.121928	0.168711
	H409	H	1.108971	-0.122532	0.160173
	H410	H	1.117255	-0.109015	0.167959
	O411	O	1.025148	0.808506	-0.196371
	H412	H	1.007468	0.812280	-0.178114
	H413	H	1.024197	0.787307	-0.210585
	O414	O	0.214301	-0.196913	-0.017731
	H415	H	0.227790	-0.209420	-0.022415
	H416	H	0.216033	-0.194975	-0.026342
	O417	O	0.475805	0.300916	0.707786
	H418	H	0.481982	0.283113	0.723407
	H419	H	0.498602	0.313254	0.709971
	O420	O	-0.175600	0.181281	0.019482
	H421	H	-0.167934	0.174098	-0.000522
	H422	H	-0.181692	0.209537	0.016950
	O423	O	0.483098	0.427013	0.311504
	H424	H	0.456165	0.436891	0.323950
	H425	H	0.479225	0.417581	0.301155
	O426	O	0.620099	0.359216	0.580596
	H427	H	0.601663	0.369483	0.572261
	H428	H	0.612906	0.376827	0.576832
	O429	O	0.537832	0.718821	0.386924
	H430	H	0.554988	0.728007	0.378287
	H431	H	0.555911	0.699694	0.383653
	O432	O	0.475038	0.591779	0.622251
	H433	H	0.483265	0.583531	0.627682
	H434	H	0.454951	0.582146	0.625336
	O435	O	0.283828	0.480765	0.722169
	H436	H	0.275166	0.449123	0.722089
	H437	H	0.262714	0.463716	0.742231
	O438	O	-0.191117	0.034279	-0.204837
	H439	H	-0.197312	0.027699	-0.205216
	H440	H	-0.193258	0.047538	-0.213396
	O441	O	1.168948	0.099350	-0.071288
	H442	H	1.160913	0.097730	-0.070879
	H443	H	1.166033	0.081082	-0.079552
	O444	O	-0.048058	0.954398	0.840060
	H445	H	-0.039838	0.961054	0.838117
	H446	H	-0.050179	0.939531	0.840353
	O447	O	0.511970	0.593178	0.291510
	H448	H	0.522458	0.600309	0.310851
	H449	H	0.507310	0.610159	0.283655
	O450	O	0.312289	0.318116	0.692659
	H451	H	0.352995	0.313568	0.695760
	H452	H	0.306730	0.303720	0.672726
	O453	O	0.536106	0.724363	0.717246
	H454	H	0.549578	0.732672	0.728648
	H455	H	0.553712	0.727998	0.730871
