data_Molecule from HDF5

_cell_length_a		16.383310
_cell_length_b		16.393156
_cell_length_c		16.477156
_cell_angle_alpha	90.074346
_cell_angle_beta	90.099329
_cell_angle_gamma	90.051834
_symmetry_space_group_name_H-M	'P 1'
_symmetry_Int_Tables_number		1

loop_
	_symmetry_equiv_pos_as_xyz
	x,y,z

loop_
	_atom_site_label
	_atom_site_type_symbol
	_atom_site_fract_x
	_atom_site_fract_y
	_atom_site_fract_z
	H0	H	0.379558	0.859470	0.713940
	H1	H	0.593606	0.175803	0.715726
	H2	H	0.594747	0.860061	0.270777
	H3	H	0.381071	0.176501	0.269776
	H4	H	0.706932	0.415130	0.831824
	H5	H	0.710760	0.621936	0.149942
	H6	H	0.266449	0.622365	0.833921
	H7	H	0.265590	0.411221	0.149695
	H8	H	0.829385	0.739352	0.388106
	H9	H	0.148196	0.741126	0.597889
	H10	H	0.829968	0.299146	0.597848
	H11	H	0.148423	0.298179	0.389010
	H12	H	0.830804	0.414295	0.712560
	H13	H	0.148935	0.624509	0.712769
	H14	H	0.831471	0.625631	0.268894
	H15	H	0.147758	0.412223	0.271271
	H16	H	0.383887	0.738132	0.833104
	H17	H	0.595983	0.739934	0.150063
	H18	H	0.591482	0.297175	0.832761
	H19	H	0.383106	0.295977	0.150783
	H20	H	0.709241	0.859876	0.388399
	H21	H	0.709845	0.176867	0.601841
	H22	H	0.266690	0.859632	0.596396
	H23	H	0.267779	0.178029	0.388448
	H24	H	0.882132	0.360202	0.214077
	H25	H	0.099410	0.675271	0.217249
	H26	H	0.095720	0.360698	0.769212
	H27	H	0.881939	0.676676	0.769719
	H28	H	0.209599	0.913703	0.334941
	H29	H	0.212720	0.126684	0.650887
	H30	H	0.764669	0.126098	0.336538
	H31	H	0.766768	0.913933	0.651332
	H32	H	0.329584	0.239658	0.886147
	H33	H	0.647837	0.237362	0.096052
	H34	H	0.330732	0.795004	0.098121
	H35	H	0.647449	0.798016	0.887811
	H36	H	0.329984	0.912147	0.213653
	H37	H	0.647059	0.124161	0.214226
	H38	H	0.330079	0.124675	0.769486
	H39	H	0.645727	0.911479	0.770543
	H40	H	0.882887	0.240452	0.335589
	H41	H	0.094164	0.241392	0.652140
	H42	H	0.093749	0.797831	0.335179
	H43	H	0.879759	0.794559	0.649992
	H44	H	0.209662	0.359622	0.885963
	H45	H	0.213841	0.674870	0.099941
	H46	H	0.769595	0.358525	0.095136
	H47	H	0.766836	0.677006	0.886007
	H48	H	0.407435	0.127044	0.577191
	H49	H	0.573966	0.905451	0.582323
	H50	H	0.577586	0.129845	0.410660
	H51	H	0.399055	0.905032	0.402135
	H52	H	0.580412	0.422236	0.107423
	H53	H	0.573529	0.609811	0.880185
	H54	H	0.405706	0.596682	0.099578
	H55	H	0.405611	0.434949	0.883133
	H56	H	0.101821	0.606278	0.405802
	H57	H	0.876272	0.604829	0.584850
	H58	H	0.102307	0.432306	0.580416
	H59	H	0.878012	0.440498	0.400440
	H60	H	0.103063	0.431062	0.583043
	H61	H	0.874576	0.611280	0.581276
	H62	H	0.102135	0.606829	0.403904
	H63	H	0.870932	0.423145	0.394594
	H64	H	0.407518	0.613231	0.103559
	H65	H	0.581859	0.610822	0.876521
	H66	H	0.583997	0.430841	0.105927
	H67	H	0.402878	0.421133	0.878865
	H68	H	0.581870	0.134829	0.399102
	H69	H	0.576720	0.906359	0.578331
	H70	H	0.394499	0.132108	0.578262
	H71	H	0.399908	0.905594	0.403698
	H72	H	0.905402	0.631291	0.081624
	H73	H	0.076260	0.405217	0.080700
	H74	H	0.086112	0.637073	0.898663
	H75	H	0.903974	0.404149	0.894303
	H76	H	0.074342	0.931069	0.604796
	H77	H	0.082017	0.108341	0.379838
	H78	H	0.897565	0.104202	0.604978
	H79	H	0.898440	0.926837	0.379148
	H80	H	0.604540	0.107230	0.897157
	H81	H	0.374447	0.100166	0.087831
	H82	H	0.604021	0.921821	0.080498
	H83	H	0.372666	0.926329	0.902605
	H84	H	0.598890	0.934250	0.076482
	H85	H	0.371731	0.114118	0.084180
	H86	H	0.600168	0.110649	0.908524
	H87	H	0.374602	0.928949	0.905509
	H88	H	0.904227	0.111287	0.606220
	H89	H	0.075109	0.104730	0.382700
	H90	H	0.078297	0.929786	0.606297
	H91	H	0.896284	0.932278	0.381463
	H92	H	0.067712	0.630303	0.898379
	H93	H	0.077063	0.404502	0.081359
	H94	H	0.898720	0.630625	0.076983
	H95	H	0.904238	0.408186	0.907723
	H96	H	0.402979	0.133368	0.589080
	H97	H	0.578649	0.903817	0.582034
	H98	H	0.569213	0.130569	0.400284
	H99	H	0.398639	0.904478	0.403272
	H100	H	0.574600	0.428896	0.102675
	H101	H	0.579186	0.602755	0.880397
	H102	H	0.392475	0.605209	0.107484
	H103	H	0.392155	0.430977	0.878041
	H104	H	0.101875	0.608639	0.404890
	H105	H	0.878243	0.606072	0.577903
	H106	H	0.103399	0.429501	0.579938
	H107	H	0.877066	0.425299	0.412794
	H108	H	0.897825	0.633840	0.084513
	H109	H	0.076395	0.405347	0.081391
	H110	H	0.078700	0.627661	0.914254
	H111	H	0.892594	0.402710	0.901929
	H112	H	0.077823	0.934133	0.604652
	H113	H	0.075262	0.112655	0.380601
	H114	H	0.894973	0.112607	0.609047
	H115	H	0.902463	0.930626	0.381458
	H116	H	0.598872	0.098603	0.904356
	H117	H	0.377350	0.104595	0.074084
	H118	H	0.603541	0.932278	0.089222
	H119	H	0.374410	0.930169	0.902068
	C120	C	0.367364	0.026625	0.613850
	C121	C	0.609118	1.009723	0.614555
	C122	C	0.609451	0.027075	0.371415
	C123	C	0.367226	1.010207	0.371249
	C124	C	0.610543	0.395840	0.000136
	C125	C	0.610917	0.639608	0.983561
	C126	C	0.368528	0.638139	-0.000299
	C127	C	0.366828	0.395685	0.983839
	C128	C	-0.002777	0.640025	0.371226
	C129	C	0.981062	0.640648	0.614040
	C130	C	-0.001980	0.398393	0.613617
	C131	C	0.980618	0.397307	0.371087
	C132	C	0.868209	0.526775	0.112729
	C133	C	0.110582	0.509427	0.114170
	C134	C	0.110133	0.526867	0.870716
	C135	C	0.867914	0.509884	0.869836
	C136	C	0.109356	0.898868	0.501140
	C137	C	0.110735	0.141151	0.485416
	C138	C	0.866155	0.141486	0.502405
	C139	C	0.866621	0.897298	0.484935
	C140	C	0.496248	0.138340	0.870925
	C141	C	0.479499	0.138964	0.113843
	C142	C	0.497322	0.896549	0.114192
	C143	C	0.479316	0.896510	0.871235
	C144	C	0.363124	0.907049	0.673648
	C145	C	0.611392	0.128564	0.675502
	C146	C	0.612367	0.907680	0.311037
	C147	C	0.363994	0.129326	0.310596
	C148	C	0.668318	0.395716	0.879910
	C149	C	0.671073	0.640992	0.102388
	C150	C	0.307213	0.640752	0.880886
	C151	C	0.305899	0.393005	0.102503
	C152	C	0.877584	0.699980	0.368753
	C153	C	0.100703	0.701178	0.616291
	C154	C	0.878112	0.338673	0.616080
	C155	C	0.100313	0.337537	0.369840
	C156	C	0.878453	0.396460	0.673144
	C157	C	0.100793	0.643423	0.673730
	C158	C	0.878440	0.643051	0.309891
	C159	C	0.100076	0.394667	0.311398
	C160	C	0.365784	0.698348	0.880690
	C161	C	0.613741	0.699723	0.102497
	C162	C	0.610546	0.337240	0.880164
	C163	C	0.364573	0.335613	0.103023
	C164	C	0.669635	0.907760	0.369612
	C165	C	0.669485	0.128933	0.618469
	C166	C	0.306342	0.907264	0.615564
	C167	C	0.307536	0.130114	0.369825
	C168	C	0.865232	0.407389	0.172934
	C169	C	0.115995	0.627871	0.176246
	C170	C	0.113228	0.407886	0.809541
	C171	C	0.864585	0.629419	0.810000
	C172	C	0.169596	0.895850	0.382401
	C173	C	0.172385	0.144836	0.603708
	C174	C	0.805061	0.144194	0.383939
	C175	C	0.806443	0.895052	0.603669
	C176	C	0.377131	0.199292	0.868266
	C177	C	0.599813	0.198403	0.115266
	C178	C	0.377976	0.835657	0.116240
	C179	C	0.599318	0.837370	0.869273
	C180	C	0.377793	0.893582	0.173969
	C181	C	0.599376	0.141891	0.173847
	C182	C	0.377230	0.142172	0.809998
	C183	C	0.598519	0.893835	0.810922
	C184	C	0.864078	0.200989	0.383185
	C185	C	0.113189	0.201700	0.604349
	C186	C	0.111659	0.838184	0.382432
	C187	C	0.862733	0.835444	0.602740
	C188	C	0.170112	0.407390	0.867689
	C189	C	0.172948	0.627734	0.117544
	C190	C	0.808710	0.406689	0.114084
	C191	C	0.807195	0.629336	0.868088
	C192	C	0.393790	0.109223	0.588714
	C193	C	0.583565	0.926765	0.588386
	C194	C	0.583779	0.110233	0.396323
	C195	C	0.392033	0.926774	0.395928
	C196	C	0.586547	0.420104	0.083546
	C197	C	0.585477	0.614958	0.900592
	C198	C	0.394283	0.612316	0.081971
	C199	C	0.392620	0.421363	0.901498
	C200	C	0.080132	0.614687	0.397378
	C201	C	0.898014	0.614838	0.588782
	C202	C	0.081221	0.423651	0.588338
	C203	C	0.897040	0.422451	0.395752
	C204	C	0.893370	0.610179	0.088065
	C205	C	0.084067	0.426553	0.088615
	C206	C	0.084768	0.609966	0.896360
	C207	C	0.893154	0.426751	0.894204
	C208	C	0.084081	0.924363	0.583930
	C209	C	0.085024	0.115919	0.402633
	C210	C	0.891421	0.116644	0.585196
	C211	C	0.891840	0.922681	0.402066
	C212	C	0.579516	0.112868	0.896190
	C213	C	0.396202	0.113633	0.089056
	C214	C	0.580630	0.922012	0.089113
	C215	C	0.395779	0.921303	0.896152
	Zn216	Zn	0.487464	0.017017	0.742796
	Zn217	Zn	0.488190	0.018200	0.241884
	Zn218	Zn	0.739901	0.517580	-0.008720
	Zn219	Zn	0.238213	0.517378	-0.008379
	Zn220	Zn	-0.011049	0.768796	0.493194
	Zn221	Zn	-0.011121	0.269668	0.493468
	Zn222	Zn	-0.010133	0.519213	0.742058
	Zn223	Zn	-0.011138	0.518138	0.242203
	Zn224	Zn	0.488887	0.768397	-0.007840
	Zn225	Zn	0.488689	0.266735	-0.007736
	Zn226	Zn	0.737891	0.019157	0.493573
	Zn227	Zn	0.239125	0.018952	0.493249
	N228	N	0.400121	0.982251	0.672959
	N229	N	0.574581	0.053186	0.673249
	N230	N	0.575619	0.983022	0.312067
	N231	N	0.400296	0.053801	0.311418
	N232	N	0.668613	0.431251	0.955638
	N233	N	0.669454	0.604510	0.027390
	N234	N	0.308715	0.604097	0.955911
	N235	N	0.306951	0.429474	0.027434
	N236	N	0.952583	0.698320	0.406181
	N237	N	0.025024	0.699775	0.580029
	N238	N	0.953419	0.339755	0.579470
	N239	N	0.024857	0.339028	0.406287
	N240	N	0.954078	0.432640	0.671848
	N241	N	0.025319	0.606893	0.672688
	N242	N	0.953899	0.606695	0.311354
	N243	N	0.024456	0.430803	0.312009
	N244	N	0.403060	0.696888	0.955485
	N245	N	0.577217	0.699124	0.027340
	N246	N	0.575608	0.337015	0.955964
	N247	N	0.401673	0.337243	0.028177
	N248	N	0.667749	0.983017	0.406598
	N249	N	0.667931	0.054156	0.580988
	N250	N	0.308878	0.982519	0.578978
	N251	N	0.309382	0.055056	0.406750
	N252	N	0.901384	0.483080	0.172565
	N253	N	0.078098	0.553047	0.174430
	N254	N	0.076566	0.483251	0.811549
	N255	N	0.901537	0.554263	0.810885
	N256	N	0.168135	0.933074	0.457232
	N257	N	0.170801	0.107950	0.528767
	N258	N	0.806316	0.108064	0.459104
	N259	N	0.808664	0.932698	0.529250
	N260	N	0.452240	0.196987	0.905390
	N261	N	0.524295	0.196775	0.078743
	N262	N	0.453486	0.837239	0.080070
	N263	N	0.524184	0.838929	0.906123
	N264	N	0.453113	0.930445	0.172818
	N265	N	0.523671	0.105721	0.173133
	N266	N	0.452346	0.104944	0.811659
	N267	N	0.522620	0.929684	0.811758
	N268	N	0.901372	0.199686	0.457864
	N269	N	0.075621	0.199589	0.529667
	N270	N	0.075024	0.839704	0.457360
	N271	N	0.899458	0.836632	0.527829
	N272	N	0.168190	0.482323	0.905138
	N273	N	0.169779	0.553090	0.079774
	N274	N	0.810457	0.481950	0.077453
	N275	N	0.809107	0.554068	0.904555
	O276	O	0.449166	0.588666	0.512915
	H277	H	0.465590	0.579940	0.502193
	H278	H	0.450110	0.575494	0.512734
	O279	O	0.584028	0.713018	0.690770
	H280	H	0.583706	0.723328	0.689086
	H281	H	0.543405	0.718715	0.677153
	O282	O	0.308425	0.710664	0.477044
	H283	H	0.318516	0.722128	0.473543
	H284	H	0.310030	0.703995	0.478995
	O285	O	1.607991	1.640911	0.497824
	H286	H	1.628532	1.647330	0.478481
	H287	H	1.604541	1.622134	0.491959
	O288	O	0.902646	0.181886	0.810050
	H289	H	0.909179	0.197843	0.817682
	H290	H	0.929196	0.167720	0.806609
	O291	O	0.599647	0.445623	0.311736
	H292	H	0.598297	0.436256	0.307350
	H293	H	0.605031	0.450698	0.318698
	O294	O	0.815012	1.065586	0.798831
	H295	H	0.814820	1.087718	0.801147
	H296	H	0.824177	1.055978	0.789197
	O297	O	0.463631	0.495854	0.343006
	H298	H	0.463517	0.505355	0.343441
	H299	H	0.458233	0.493774	0.364262
	O300	O	-0.558457	-0.581378	-0.330520
	H301	H	-0.540841	-0.578248	-0.323136
	H302	H	-0.542520	-0.580963	-0.319515
	O303	O	1.024730	0.214674	1.028808
	H304	H	1.007678	0.199479	1.019772
	H305	H	1.015768	0.231561	1.057711
	O306	O	-0.020304	-0.163070	1.073045
	H307	H	-0.026712	-0.155295	1.071276
	H308	H	-0.014075	-0.149999	1.053679
	O309	O	0.938663	-0.039332	-0.213668
	H310	H	0.946708	-0.035685	-0.204200
	H311	H	0.950625	-0.051539	-0.218465
	O312	O	0.307041	0.706273	0.310694
	H313	H	0.288415	0.687369	0.306309
	H314	H	0.295652	0.691272	0.329399
	O315	O	0.677617	0.335617	0.324095
	H316	H	0.653143	0.331421	0.325107
	H317	H	0.681347	0.354226	0.338309
	O318	O	0.772043	-0.938074	-0.036229
	H319	H	0.771877	-0.927726	-0.042679
	H320	H	0.767598	-0.929586	-0.045237
	O321	O	0.636166	0.314844	0.526508
	H322	H	0.654994	0.291817	0.525962
	H323	H	0.614538	0.324696	0.531430
	O324	O	1.064986	-0.034846	1.183422
	H325	H	1.059199	-0.058254	1.188883
	H326	H	1.066641	-0.036813	1.172079
	O327	O	-0.171566	1.176460	0.922122
	H328	H	-0.186346	1.148019	0.920132
	H329	H	-0.143455	1.177065	0.913246
	O330	O	0.148999	0.838261	0.808207
	H331	H	0.119624	0.832529	0.804402
	H332	H	0.156330	0.859224	0.817431
	O333	O	0.600057	0.515686	-0.512375
	H334	H	0.616535	0.514141	-0.515193
	H335	H	0.602927	0.495252	-0.511789
	O336	O	1.001770	0.830907	-0.221585
	H337	H	1.003922	0.850646	-0.208143
	H338	H	0.998340	0.810746	-0.247913
	O339	O	0.194951	0.807082	0.973792
	H340	H	0.198867	0.814643	0.955639
	H341	H	0.195474	0.787994	0.982185
	O342	O	0.527952	0.533643	0.283520
	H343	H	0.544155	0.521717	0.270276
	H344	H	0.517032	0.567181	0.276730
	O345	O	0.179467	0.207230	1.121211
	H346	H	0.149955	0.212891	1.138732
	H347	H	0.186356	0.201134	1.114059
	O348	O	0.587676	0.573043	0.660706
	H349	H	0.588600	0.585259	0.675215
	H350	H	0.593668	0.564855	0.673094
	O351	O	0.699659	0.507638	0.557104
	H352	H	0.704497	0.512207	0.567685
	H353	H	0.705110	0.509607	0.559635
	O354	O	0.436268	0.445967	1.527015
	H355	H	0.431731	0.448881	1.515533
	H356	H	0.442537	0.458056	1.539858
	O357	O	-0.110699	-0.175717	-0.068301
	H358	H	-0.118040	-0.179842	-0.063333
	H359	H	-0.108797	-0.169066	-0.078390
	O360	O	0.842812	0.169684	0.976980
	H361	H	0.826086	0.174058	0.976635
	H362	H	0.847919	0.160409	0.956488
	O363	O	1.190603	0.002410	-0.213202
	H364	H	1.197426	-0.008826	-0.221190
	H365	H	1.206935	0.006739	-0.201826
	O366	O	-0.032147	0.083780	1.087031
	H367	H	-0.038357	0.088193	1.087596
	H368	H	-0.043963	0.062567	1.103979
	O369	O	0.881632	0.025230	1.052534
	H370	H	0.892609	0.032594	1.058534
	H371	H	0.870637	0.026971	1.050214
	O372	O	0.679075	0.677299	0.624736
	H373	H	0.648624	0.686915	0.627279
	H374	H	0.690599	0.690579	0.606018
	O375	O	0.040714	0.041590	0.849910
	H376	H	0.044834	0.031602	0.850715
	H377	H	0.042139	0.052035	0.867230
	O378	O	0.517727	0.521116	0.484728
	H379	H	0.530748	0.514488	0.483189
	H380	H	0.522296	0.518109	0.461055
	O381	O	-0.068136	1.182369	0.191352
	H382	H	-0.074699	1.202616	0.203450
	H383	H	-0.087732	1.153956	0.188782
	O384	O	0.573142	0.385337	0.617314
	H385	H	0.570484	0.400345	0.622834
	H386	H	0.554146	0.373556	0.619472
	O387	O	1.142912	0.188982	1.114841
	H388	H	1.138385	0.202656	1.122871
	H389	H	1.131458	0.178669	1.136402
	O390	O	0.980013	1.060407	-0.023605
	H391	H	0.976941	1.064832	-0.016742
	H392	H	0.997916	1.061611	-0.026059
	O393	O	1.191763	0.039084	1.196365
	H394	H	1.189537	0.032866	1.209225
	H395	H	1.190963	0.044436	1.196607
	O396	O	0.586669	0.521439	0.476270
	H397	H	0.605816	0.536694	0.473741
	H398	H	0.588476	0.507859	0.458261
	O399	O	0.382759	0.381296	0.523306
	H400	H	0.379994	0.392835	0.526758
	H401	H	0.366336	0.365950	0.536535
	O402	O	0.797358	0.888625	0.018407
	H403	H	0.784210	0.870686	0.006903
	H404	H	0.792500	0.906190	-0.004231
	O405	O	-0.196703	-0.163169	0.180711
	H406	H	-0.186697	-0.166978	0.184392
	H407	H	-0.198468	-0.158152	0.148335
	O408	O	0.324137	0.402277	0.554362
	H409	H	0.313347	0.392334	0.552184
	H410	H	0.331674	0.417629	0.576027
	O411	O	1.190408	1.014937	0.951182
	H412	H	1.197725	1.026494	0.971467
	H413	H	1.181490	1.015998	0.948893
	O414	O	0.460974	0.666493	0.520137
	H415	H	0.465569	0.661600	0.503873
	H416	H	0.457208	0.651638	0.522314
	O417	O	-0.178533	0.962409	1.200143
	H418	H	-0.169867	0.930757	1.197094
	H419	H	-0.203333	0.959414	1.219099
	O420	O	0.291185	1.517338	1.483846
	H421	H	0.294131	1.518261	1.479216
	H422	H	0.295032	1.517199	1.492268
	O423	O	-0.020775	0.801264	0.160354
	H424	H	-0.013754	0.787574	0.135984
	H425	H	-0.038074	0.784090	0.180115
	O426	O	1.123401	-0.065346	0.074483
	H427	H	1.134345	-0.041320	0.083227
	H428	H	1.104660	-0.066221	0.064161
	O429	O	0.339324	0.527747	0.317456
	H430	H	0.346506	0.508400	0.322022
	H431	H	0.323240	0.518315	0.311032
	O432	O	0.437154	0.329452	0.372078
	H433	H	0.425436	0.334004	0.375008
	H434	H	0.430836	0.308746	0.352553
	O435	O	0.102004	0.193440	-0.096411
	H436	H	0.112091	0.202311	-0.100690
	H437	H	0.097405	0.206656	-0.093292
	O438	O	-0.530984	1.731134	0.280228
	H439	H	-0.567220	1.739136	0.276763
	H440	H	-0.548640	1.750052	0.265922
	O441	O	0.383140	0.477931	0.687647
	H442	H	0.373229	0.480711	0.685481
	H443	H	0.405276	0.481992	0.680625
