data_Molecule from HDF5

_cell_length_a		16.242108
_cell_length_b		16.354402
_cell_length_c		16.339115
_cell_angle_alpha	89.862011
_cell_angle_beta	89.818045
_cell_angle_gamma	89.941416
_symmetry_space_group_name_H-M	'P 1'
_symmetry_Int_Tables_number		1

loop_
	_symmetry_equiv_pos_as_xyz
	x,y,z

loop_
	_atom_site_label
	_atom_site_type_symbol
	_atom_site_fract_x
	_atom_site_fract_y
	_atom_site_fract_z
	H0	H	0.403369	0.838394	0.708241
	H1	H	0.602942	0.163483	0.706749
	H2	H	0.603848	0.838180	0.276346
	H3	H	0.405698	0.164117	0.277178
	H4	H	0.718657	0.403554	0.828992
	H5	H	0.716149	0.596980	0.156155
	H6	H	0.289925	0.599368	0.828593
	H7	H	0.287655	0.402322	0.154933
	H8	H	0.839452	0.717581	0.392084
	H9	H	0.167513	0.715070	0.588017
	H10	H	0.839220	0.286578	0.591072
	H11	H	0.166410	0.286669	0.391309
	H12	H	0.839301	0.403379	0.705917
	H13	H	0.167182	0.600597	0.705701
	H14	H	0.839041	0.600555	0.277096
	H15	H	0.166277	0.403083	0.275683
	H16	H	0.403161	0.717761	0.829635
	H17	H	0.601174	0.715620	0.155006
	H18	H	0.604781	0.285197	0.829778
	H19	H	0.403285	0.284971	0.155192
	H20	H	0.718722	0.837588	0.393485
	H21	H	0.717952	0.164274	0.588912
	H22	H	0.288625	0.837364	0.589801
	H23	H	0.290423	0.164630	0.393896
	H24	H	0.902619	0.339252	0.208572
	H25	H	0.101904	0.664175	0.206256
	H26	H	0.102944	0.338121	0.776262
	H27	H	0.903733	0.663780	0.776393
	H28	H	0.217772	0.905240	0.327896
	H29	H	0.216963	0.099359	0.655160
	H30	H	0.789607	0.100032	0.328562
	H31	H	0.789560	0.903011	0.654789
	H32	H	0.340054	0.217024	0.893119
	H33	H	0.667125	0.214795	0.089795
	H34	H	0.338689	0.787809	0.091016
	H35	H	0.667467	0.786137	0.892925
	H36	H	0.339683	0.902456	0.207395
	H37	H	0.667884	0.098299	0.204236
	H38	H	0.339529	0.100377	0.777001
	H39	H	0.667780	0.900838	0.775806
	H40	H	0.904484	0.217892	0.328383
	H41	H	0.102444	0.216820	0.654183
	H42	H	0.104784	0.785559	0.328912
	H43	H	0.901429	0.783404	0.652550
	H44	H	0.219089	0.338301	0.893292
	H45	H	0.215545	0.664889	0.087642
	H46	H	0.790975	0.337144	0.088422
	H47	H	0.787781	0.663692	0.893647
	H48	H	0.416938	0.113604	0.581014
	H49	H	0.593272	0.886160	0.583897
	H50	H	0.594124	0.114601	0.401112
	H51	H	0.406303	0.885325	0.402398
	H52	H	0.592598	0.407558	0.106563
	H53	H	0.599210	0.596619	0.875246
	H54	H	0.414774	0.593079	0.105770
	H55	H	0.414835	0.409787	0.879090
	H56	H	0.119783	0.593508	0.397534
	H57	H	0.887125	0.594255	0.582368
	H58	H	0.120830	0.404875	0.582406
	H59	H	0.884240	0.412680	0.389569
	H60	H	0.117423	0.411087	0.581898
	H61	H	0.887001	0.592468	0.585307
	H62	H	0.118994	0.594227	0.398663
	H63	H	0.884232	0.399249	0.402970
	H64	H	0.409000	0.599797	0.109762
	H65	H	0.596409	0.590003	0.877481
	H66	H	0.597216	0.401916	0.109863
	H67	H	0.413453	0.405911	0.876148
	H68	H	0.602228	0.118155	0.397697
	H69	H	0.598868	0.885925	0.582167
	H70	H	0.403674	0.117187	0.581548
	H71	H	0.411412	0.884220	0.393353
	H72	H	0.913269	0.614630	0.081431
	H73	H	0.091138	0.385344	0.089209
	H74	H	0.099739	0.619655	0.889263
	H75	H	0.905313	0.384257	0.900535
	H76	H	0.105058	0.911401	0.609371
	H77	H	0.100428	0.101787	0.372406
	H78	H	0.907589	0.097039	0.608624
	H79	H	0.912819	0.915648	0.377636
	H80	H	0.620524	0.093227	0.896295
	H81	H	0.385759	0.098051	0.082899
	H82	H	0.621726	0.907544	0.091401
	H83	H	0.382875	0.901593	0.891153
	H84	H	0.621271	0.900347	0.079798
	H85	H	0.388008	0.090185	0.083383
	H86	H	0.620143	0.095637	0.899657
	H87	H	0.389230	0.904903	0.911603
	H88	H	0.910762	0.088723	0.604853
	H89	H	0.101439	0.089407	0.376120
	H90	H	0.087769	0.913493	0.602586
	H91	H	0.916983	0.905767	0.376048
	H92	H	0.087041	0.613197	0.898672
	H93	H	0.093446	0.388036	0.079698
	H94	H	0.906326	0.618337	0.082695
	H95	H	0.911163	0.382423	0.891832
	H96	H	0.411107	0.118651	0.592710
	H97	H	0.597475	0.883844	0.587435
	H98	H	0.595079	0.117040	0.391994
	H99	H	0.416133	0.887336	0.401687
	H100	H	0.600041	0.409348	0.108976
	H101	H	0.592386	0.595894	0.877469
	H102	H	0.405718	0.590917	0.108093
	H103	H	0.409857	0.410227	0.876958
	H104	H	0.118551	0.593260	0.398805
	H105	H	0.886016	0.595536	0.585257
	H106	H	0.120624	0.409185	0.588099
	H107	H	0.890911	0.417148	0.406997
	H108	H	0.911348	0.617389	0.088558
	H109	H	0.100664	0.383907	0.085827
	H110	H	0.102004	0.616006	0.905280
	H111	H	0.915367	0.387527	0.900639
	H112	H	0.093120	0.897466	0.609636
	H113	H	0.089738	0.096188	0.377396
	H114	H	0.916505	0.096316	0.606010
	H115	H	0.906555	0.907818	0.373764
	H116	H	0.619191	0.091726	0.899602
	H117	H	0.385509	0.094158	0.089891
	H118	H	0.616309	0.913620	0.079791
	H119	H	0.390394	0.921014	0.896997
	C120	C	0.381405	0.009020	0.613637
	C121	C	0.625114	0.992835	0.612607
	C122	C	0.626009	0.008972	0.368795
	C123	C	0.382715	0.993263	0.370445
	C124	C	0.625651	0.378385	0.000745
	C125	C	0.624677	0.622488	0.984104
	C126	C	0.381335	0.623159	0.000281
	C127	C	0.382123	0.379333	0.984310
	C128	C	0.011058	0.623099	0.369707
	C129	C	0.995148	0.622839	0.612638
	C130	C	0.011448	0.379888	0.612967
	C131	C	0.994736	0.380976	0.370747
	C132	C	0.881260	0.509503	0.113340
	C133	C	0.123975	0.493307	0.113267
	C134	C	0.125364	0.509232	0.869317
	C135	C	0.881626	0.492678	0.869628
	C136	C	0.124724	0.879720	0.499581
	C137	C	0.125552	0.124163	0.483213
	C138	C	0.882634	0.123314	0.499268
	C139	C	0.882368	0.880157	0.482942
	C140	C	0.511908	0.122865	0.869754
	C141	C	0.495188	0.121802	0.112713
	C142	C	0.511409	0.879436	0.112918
	C143	C	0.495707	0.879714	0.870494
	C144	C	0.383108	0.886698	0.669455
	C145	C	0.622704	0.115299	0.667947
	C146	C	0.624072	0.886616	0.314199
	C147	C	0.385526	0.115490	0.315125
	C148	C	0.680844	0.382198	0.877798
	C149	C	0.679001	0.618758	0.107127
	C150	C	0.326940	0.620453	0.877401
	C151	C	0.325897	0.381752	0.106528
	C152	C	0.888315	0.679051	0.371917
	C153	C	0.118342	0.677844	0.609359
	C154	C	0.888057	0.324586	0.611061
	C155	C	0.117519	0.324950	0.371542
	C156	C	0.887996	0.382638	0.667942
	C157	C	0.118146	0.620846	0.667891
	C158	C	0.887911	0.621090	0.314840
	C159	C	0.117657	0.382960	0.314467
	C160	C	0.383383	0.679103	0.877883
	C161	C	0.621925	0.677599	0.106493
	C162	C	0.624178	0.323510	0.878265
	C163	C	0.383024	0.323209	0.106593
	C164	C	0.681238	0.886428	0.372447
	C165	C	0.679648	0.115800	0.609402
	C166	C	0.326015	0.886379	0.610876
	C167	C	0.327942	0.115816	0.373010
	C168	C	0.882876	0.387486	0.169866
	C169	C	0.122172	0.615682	0.168340
	C170	C	0.123398	0.386643	0.814202
	C171	C	0.883573	0.615141	0.814560
	C172	C	0.180239	0.883519	0.376749
	C173	C	0.179753	0.120295	0.606131
	C174	C	0.827547	0.120840	0.376749
	C175	C	0.826772	0.882187	0.605794
	C176	C	0.388624	0.178268	0.872825
	C177	C	0.618450	0.176630	0.109845
	C178	C	0.387762	0.825218	0.111043
	C179	C	0.618551	0.823864	0.872215
	C180	C	0.388349	0.882078	0.169099
	C181	C	0.618735	0.118887	0.166966
	C182	C	0.388377	0.120233	0.815270
	C183	C	0.618780	0.881083	0.814207
	C184	C	0.884709	0.179170	0.376865
	C185	C	0.123093	0.178942	0.605671
	C186	C	0.124015	0.824128	0.377347
	C187	C	0.882850	0.823040	0.604733
	C188	C	0.181016	0.386724	0.872204
	C189	C	0.178650	0.615852	0.109462
	C190	C	0.827319	0.386375	0.110266
	C191	C	0.826005	0.615173	0.872769
	C192	C	0.403823	0.094339	0.591608
	C193	C	0.603271	0.907527	0.590884
	C194	C	0.603638	0.094459	0.390435
	C195	C	0.404818	0.907606	0.392790
	C196	C	0.603221	0.399861	0.086394
	C197	C	0.602785	0.600598	0.898801
	C198	C	0.403238	0.601006	0.085833
	C199	C	0.405603	0.402079	0.899314
	C200	C	0.097004	0.600406	0.391745
	C201	C	0.909056	0.600658	0.590812
	C202	C	0.097246	0.401908	0.590630
	C203	C	0.908689	0.403059	0.393423
	C204	C	0.903682	0.594888	0.090735
	C205	C	0.101570	0.407717	0.091396
	C206	C	0.102884	0.594379	0.891261
	C207	C	0.903941	0.406851	0.891421
	C208	C	0.102006	0.901263	0.585085
	C209	C	0.103565	0.102301	0.397366
	C210	C	0.905112	0.100671	0.584677
	C211	C	0.905436	0.903009	0.397866
	C212	C	0.597791	0.100240	0.891863
	C213	C	0.408817	0.100341	0.091518
	C214	C	0.597553	0.900957	0.090234
	C215	C	0.409687	0.902607	0.893217
	Zn216	Zn	0.503799	0.000555	0.741604
	Zn217	Zn	0.503530	0.000546	0.240524
	Zn218	Zn	0.753415	0.500879	-0.007868
	Zn219	Zn	0.253341	0.501285	-0.007994
	Zn220	Zn	0.003266	0.751299	0.490748
	Zn221	Zn	0.003436	0.252034	0.491610
	Zn222	Zn	0.003530	0.500845	0.741356
	Zn223	Zn	0.002610	0.501769	0.241644
	Zn224	Zn	0.502738	0.751410	-0.008011
	Zn225	Zn	0.503567	0.250578	-0.007662
	Zn226	Zn	0.754247	0.001557	0.491298
	Zn227	Zn	0.253197	0.001401	0.491526
	N228	N	0.416831	0.963719	0.671149
	N229	N	0.589201	0.038120	0.669714
	N230	N	0.590336	0.963667	0.311981
	N231	N	0.418923	0.038111	0.313577
	N232	N	0.681709	0.415614	0.954843
	N233	N	0.680646	0.585003	0.030098
	N234	N	0.325624	0.586311	0.954384
	N235	N	0.325240	0.415949	0.029592
	N236	N	0.965835	0.680029	0.405475
	N237	N	0.040762	0.679230	0.575819
	N238	N	0.965851	0.322856	0.577338
	N239	N	0.040208	0.323773	0.405894
	N240	N	0.965580	0.416080	0.669527
	N241	N	0.040582	0.587097	0.669733
	N242	N	0.965474	0.587172	0.313200
	N243	N	0.040206	0.417166	0.313763
	N244	N	0.416368	0.681052	0.955310
	N245	N	0.588934	0.680086	0.029041
	N246	N	0.590621	0.320981	0.955753
	N247	N	0.417437	0.321720	0.029556
	N248	N	0.682599	0.963639	0.405899
	N249	N	0.681566	0.038689	0.576030
	N250	N	0.324826	0.963459	0.576692
	N251	N	0.326140	0.038843	0.406711
	N252	N	0.915795	0.465080	0.171823
	N253	N	0.088814	0.538469	0.170536
	N254	N	0.089720	0.463809	0.812167
	N255	N	0.917105	0.537834	0.812557
	N256	N	0.180809	0.917404	0.453742
	N257	N	0.181634	0.086949	0.528723
	N258	N	0.826142	0.086825	0.453830
	N259	N	0.826533	0.917206	0.529165
	N260	N	0.466365	0.179972	0.906059
	N261	N	0.540747	0.178550	0.076806
	N262	N	0.465362	0.823315	0.076827
	N263	N	0.540980	0.822863	0.906358
	N264	N	0.466276	0.914840	0.170357
	N265	N	0.541112	0.085405	0.168757
	N266	N	0.466048	0.086645	0.813141
	N267	N	0.541318	0.915257	0.813182
	N268	N	0.917970	0.180810	0.454210
	N269	N	0.090197	0.181337	0.528322
	N270	N	0.090114	0.821837	0.454549
	N271	N	0.916444	0.821431	0.527358
	N272	N	0.182321	0.463671	0.905875
	N273	N	0.179771	0.538773	0.075846
	N274	N	0.826291	0.463255	0.075928
	N275	N	0.824694	0.537900	0.906282
	O276	O	1.486180	0.463470	0.564832
	H277	H	1.488384	0.464528	0.559551
	H278	H	1.482781	0.458510	0.566232
	O279	O	-0.050853	-0.035162	-0.057495
	H280	H	-0.053453	-0.037972	-0.067158
	H281	H	-0.059555	-0.029014	-0.056198
	O282	O	-0.043734	-0.094757	0.932265
	H283	H	-0.045681	-0.101395	0.923136
	H284	H	-0.044570	-0.087421	0.926377
	O285	O	0.426953	0.461800	0.591596
	H286	H	0.416720	0.452478	0.591529
	H287	H	0.427446	0.470415	0.592618
	O288	O	0.402232	0.447570	0.565054
	H289	H	0.385670	0.436938	0.568159
	H290	H	0.405530	0.446543	0.576729
	O291	O	-0.016938	0.994519	0.962764
	H292	H	-0.010485	0.995747	0.954610
	H293	H	-0.019041	0.995226	0.967228
	O294	O	-0.036233	-0.042335	0.003515
	H295	H	-0.038285	-0.054043	0.000861
	H296	H	-0.033836	-0.046952	0.008488
	O297	O	0.439660	0.448909	0.636740
	H298	H	0.435835	0.456824	0.636500
	H299	H	0.441011	0.456428	0.639524
	O300	O	0.031762	0.913697	1.018358
	H301	H	0.035974	0.912043	1.023032
	H302	H	0.027401	0.917308	1.029616
	O303	O	0.441964	0.440732	0.556080
	H304	H	0.436288	0.439434	0.562725
	H305	H	0.445684	0.432626	0.558157
	O306	O	0.014275	0.020217	0.932650
	H307	H	0.002922	0.023193	0.929142
	H308	H	0.013340	0.013821	0.935004
	O309	O	1.021604	0.983062	0.943134
	H310	H	1.016685	0.986140	0.949451
	H311	H	1.028488	0.984329	0.937431
	O312	O	0.507711	0.548478	0.532432
	H313	H	0.496697	0.549939	0.538054
	H314	H	0.504397	0.548956	0.524098
	O315	O	0.459659	0.471351	0.610756
	H316	H	0.459941	0.473295	0.617175
	H317	H	0.465122	0.470402	0.603706
	O318	O	0.050000	0.906946	-0.039835
	H319	H	0.050709	0.895309	-0.045270
	H320	H	0.047450	0.909222	-0.044899
	O321	O	1.013451	1.035848	-0.021550
	H322	H	1.010674	1.044855	-0.025523
	H323	H	1.013487	1.034317	-0.024832
