data_Molecule from HDF5

_cell_length_a		16.299902
_cell_length_b		16.428015
_cell_length_c		16.239876
_cell_angle_alpha	90.036196
_cell_angle_beta	89.647401
_cell_angle_gamma	89.791670
_symmetry_space_group_name_H-M	'P 1'
_symmetry_Int_Tables_number		1

loop_
	_symmetry_equiv_pos_as_xyz
	x,y,z

loop_
	_atom_site_label
	_atom_site_type_symbol
	_atom_site_fract_x
	_atom_site_fract_y
	_atom_site_fract_z
	H0	H	0.393337	0.835034	0.723780
	H1	H	0.593157	0.157663	0.723128
	H2	H	0.596716	0.835387	0.288721
	H3	H	0.391882	0.157742	0.287890
	H4	H	0.715779	0.396594	0.841719
	H5	H	0.713409	0.596626	0.168763
	H6	H	0.283613	0.598812	0.841381
	H7	H	0.279787	0.396933	0.167147
	H8	H	0.833555	0.715934	0.402889
	H9	H	0.156567	0.717737	0.607615
	H10	H	0.834118	0.282373	0.611125
	H11	H	0.155556	0.276392	0.399790
	H12	H	0.834707	0.399998	0.723649
	H13	H	0.160037	0.597643	0.717192
	H14	H	0.834683	0.598877	0.288215
	H15	H	0.159513	0.397217	0.289134
	H16	H	0.398806	0.713958	0.842845
	H17	H	0.599156	0.714035	0.168529
	H18	H	0.602715	0.278580	0.842748
	H19	H	0.394107	0.279091	0.166486
	H20	H	0.715097	0.836781	0.403626
	H21	H	0.710295	0.158241	0.609103
	H22	H	0.275062	0.836518	0.608558
	H23	H	0.276646	0.158008	0.404804
	H24	H	0.896133	0.337024	0.224058
	H25	H	0.098332	0.658985	0.223118
	H26	H	0.100455	0.336878	0.785816
	H27	H	0.899045	0.659815	0.790256
	H28	H	0.213328	0.896483	0.343247
	H29	H	0.210006	0.099837	0.668861
	H30	H	0.778559	0.099099	0.342790
	H31	H	0.780595	0.901151	0.669779
	H32	H	0.336976	0.218435	0.902973
	H33	H	0.658258	0.213718	0.108906
	H34	H	0.334877	0.778624	0.109523
	H35	H	0.659377	0.780097	0.902522
	H36	H	0.332340	0.897122	0.221454
	H37	H	0.657713	0.095501	0.222499
	H38	H	0.332548	0.097434	0.792587
	H39	H	0.658475	0.896330	0.787679
	H40	H	0.890621	0.217590	0.344367
	H41	H	0.093154	0.214740	0.667987
	H42	H	0.099133	0.779795	0.343600
	H43	H	0.890978	0.780086	0.667448
	H44	H	0.216936	0.336532	0.902147
	H45	H	0.213552	0.659571	0.104380
	H46	H	0.779588	0.336564	0.109272
	H47	H	0.779510	0.658322	0.903559
	H48	H	0.400442	0.114062	0.604344
	H49	H	0.592596	0.881184	0.595667
	H50	H	0.585340	0.111946	0.411911
	H51	H	0.408619	0.884139	0.414272
	H52	H	0.586569	0.398916	0.122347
	H53	H	0.592939	0.591577	0.888106
	H54	H	0.414546	0.583316	0.116516
	H55	H	0.409496	0.401909	0.888312
	H56	H	0.111192	0.592665	0.419179
	H57	H	0.882633	0.587626	0.594322
	H58	H	0.111626	0.406951	0.594942
	H59	H	0.882348	0.413526	0.411382
	H60	H	0.113038	0.403201	0.595892
	H61	H	0.879453	0.588570	0.603078
	H62	H	0.109070	0.585327	0.416548
	H63	H	0.877781	0.401982	0.412595
	H64	H	0.406974	0.597685	0.124325
	H65	H	0.591382	0.583742	0.891620
	H66	H	0.594669	0.407183	0.121590
	H67	H	0.405481	0.409755	0.888966
	H68	H	0.583428	0.109732	0.414262
	H69	H	0.584151	0.881849	0.600524
	H70	H	0.407868	0.108970	0.597430
	H71	H	0.400570	0.882968	0.419856
	H72	H	0.899677	0.615666	0.104128
	H73	H	0.092339	0.384259	0.091650
	H74	H	0.090336	0.611895	0.914269
	H75	H	0.906695	0.380745	0.905842
	H76	H	0.082734	0.905501	0.620645
	H77	H	0.080720	0.088141	0.391058
	H78	H	0.899557	0.094966	0.623879
	H79	H	0.911435	0.897377	0.389121
	H80	H	0.613907	0.085141	0.905988
	H81	H	0.379612	0.093344	0.095482
	H82	H	0.612110	0.902568	0.098460
	H83	H	0.383505	0.903572	0.925112
	H84	H	0.611088	0.903783	0.095047
	H85	H	0.383083	0.088045	0.091374
	H86	H	0.612589	0.093712	0.917373
	H87	H	0.381838	0.910951	0.912456
	H88	H	0.900046	0.088101	0.621745
	H89	H	0.087427	0.090164	0.388439
	H90	H	0.085211	0.906725	0.621387
	H91	H	0.894300	0.906766	0.386274
	H92	H	0.095195	0.613902	0.911818
	H93	H	0.092474	0.382244	0.099250
	H94	H	0.916133	0.609358	0.097952
	H95	H	0.916046	0.387262	0.916579
	H96	H	0.396761	0.110214	0.594923
	H97	H	0.584435	0.884300	0.591454
	H98	H	0.586580	0.112049	0.415356
	H99	H	0.400229	0.880357	0.410330
	H100	H	0.584021	0.409005	0.117210
	H101	H	0.585067	0.589987	0.891318
	H102	H	0.397540	0.583166	0.122341
	H103	H	0.414223	0.408639	0.891409
	H104	H	0.112431	0.590326	0.411249
	H105	H	0.878732	0.595208	0.596833
	H106	H	0.110921	0.404140	0.592164
	H107	H	0.883253	0.408094	0.422003
	H108	H	0.901830	0.609262	0.086723
	H109	H	0.085432	0.385059	0.096437
	H110	H	0.090133	0.613594	0.908613
	H111	H	0.901209	0.383521	0.920497
	H112	H	0.082946	0.908201	0.620492
	H113	H	0.086046	0.083632	0.391897
	H114	H	0.905524	0.092716	0.621584
	H115	H	0.909383	0.916233	0.393868
	H116	H	0.608218	0.080706	0.918409
	H117	H	0.380512	0.086644	0.098310
	H118	H	0.611350	0.906085	0.097078
	H119	H	0.377666	0.896882	0.913377
	C120	C	0.371750	0.004833	0.629004
	C121	C	0.616025	0.988777	0.627020
	C122	C	0.616623	0.005051	0.383757
	C123	C	0.372663	0.988620	0.384426
	C124	C	0.620407	0.374461	0.013336
	C125	C	0.619176	0.618269	0.997887
	C126	C	0.376950	0.618522	0.013528
	C127	C	0.377689	0.376429	0.996656
	C128	C	0.004233	0.619643	0.384457
	C129	C	0.987465	0.620123	0.626530
	C130	C	0.004691	0.376427	0.626112
	C131	C	0.987597	0.376525	0.383979
	C132	C	0.876135	0.505570	0.127143
	C133	C	0.119617	0.490098	0.126120
	C134	C	0.121721	0.506483	0.881406
	C135	C	0.877437	0.489825	0.884187
	C136	C	0.115510	0.876454	0.513726
	C137	C	0.114374	0.118195	0.497631
	C138	C	0.872037	0.121249	0.514680
	C139	C	0.874238	0.877277	0.497265
	C140	C	0.504760	0.117688	0.884470
	C141	C	0.488022	0.118347	0.126076
	C142	C	0.504357	0.874222	0.127646
	C143	C	0.488118	0.874612	0.884917
	C144	C	0.372915	0.883615	0.685657
	C145	C	0.613487	0.109697	0.684386
	C146	C	0.616621	0.883843	0.326877
	C147	C	0.372783	0.109509	0.326571
	C148	C	0.677712	0.376130	0.890792
	C149	C	0.675337	0.616809	0.120169
	C150	C	0.321540	0.618010	0.890518
	C151	C	0.318728	0.377042	0.118503
	C152	C	0.882178	0.676832	0.384069
	C153	C	0.108609	0.678128	0.626048
	C154	C	0.882695	0.320759	0.628744
	C155	C	0.108235	0.316844	0.381931
	C156	C	0.883361	0.379098	0.685181
	C157	C	0.110507	0.618386	0.680799
	C158	C	0.882735	0.618568	0.327019
	C159	C	0.110061	0.376868	0.326726
	C160	C	0.378983	0.675436	0.891135
	C161	C	0.618623	0.675286	0.119886
	C162	C	0.621395	0.317268	0.891243
	C163	C	0.375871	0.318679	0.118400
	C164	C	0.675469	0.884704	0.384233
	C165	C	0.671739	0.110113	0.627334
	C166	C	0.314196	0.884222	0.628379
	C167	C	0.315455	0.109828	0.384907
	C168	C	0.876860	0.384703	0.184860
	C169	C	0.118340	0.610868	0.183857
	C170	C	0.120244	0.384980	0.824658
	C171	C	0.878532	0.611252	0.827947
	C172	C	0.174215	0.877034	0.391904
	C173	C	0.171208	0.118584	0.620033
	C174	C	0.816054	0.119699	0.392076
	C175	C	0.817734	0.879721	0.620307
	C176	C	0.384030	0.177728	0.884553
	C177	C	0.609793	0.174689	0.127335
	C178	C	0.382882	0.817224	0.128151
	C179	C	0.610579	0.818149	0.883502
	C180	C	0.381582	0.876107	0.183994
	C181	C	0.609307	0.115960	0.183963
	C182	C	0.381976	0.117577	0.829626
	C183	C	0.609942	0.875994	0.826261
	C184	C	0.871731	0.178674	0.392755
	C185	C	0.113456	0.176121	0.619674
	C186	C	0.117450	0.818836	0.391856
	C187	C	0.873003	0.819874	0.619336
	C188	C	0.178538	0.384925	0.881992
	C189	C	0.175538	0.611191	0.124671
	C190	C	0.819044	0.384598	0.127516
	C191	C	0.819399	0.610737	0.884785
	C192	C	0.394997	0.089092	0.605654
	C193	C	0.593475	0.904531	0.602798
	C194	C	0.592277	0.089262	0.407148
	C195	C	0.396339	0.904423	0.407888
	C196	C	0.595552	0.397956	0.098369
	C197	C	0.596361	0.595231	0.912423
	C198	C	0.399689	0.594942	0.098937
	C199	C	0.402612	0.399910	0.911778
	C200	C	0.088930	0.596237	0.408658
	C201	C	0.902231	0.597125	0.604456
	C202	C	0.089874	0.398303	0.601324
	C203	C	0.903115	0.400752	0.408267
	C204	C	0.899202	0.589738	0.103226
	C205	C	0.096602	0.405685	0.102699
	C206	C	0.098664	0.590960	0.904743
	C207	C	0.901054	0.405711	0.907502
	C208	C	0.090687	0.899928	0.598713
	C209	C	0.091187	0.094439	0.412649
	C210	C	0.895028	0.098710	0.600164
	C211	C	0.898114	0.900155	0.411740
	C212	C	0.589384	0.093691	0.907234
	C213	C	0.403118	0.095997	0.101976
	C214	C	0.589423	0.897388	0.103811
	C215	C	0.403333	0.897326	0.909652
	Zn216	Zn	0.494740	-0.003863	0.756669
	Zn217	Zn	0.493895	-0.003485	0.254720
	Zn218	Zn	0.747445	0.497045	0.005458
	Zn219	Zn	0.249514	0.497451	0.003884
	Zn220	Zn	-0.005222	0.748111	0.505392
	Zn221	Zn	-0.005648	0.248050	0.505023
	Zn222	Zn	-0.001461	0.498227	0.753946
	Zn223	Zn	-0.002730	0.498279	0.255759
	Zn224	Zn	0.497664	0.746429	0.006408
	Zn225	Zn	0.498171	0.246986	0.004913
	Zn226	Zn	0.745390	-0.001472	0.505839
	Zn227	Zn	0.243693	-0.002449	0.506190
	N228	N	0.407690	0.959705	0.686548
	N229	N	0.579662	0.033273	0.684425
	N230	N	0.580714	0.959785	0.326294
	N231	N	0.407791	0.032986	0.326161
	N232	N	0.677461	0.410890	0.967818
	N233	N	0.675891	0.582074	0.043085
	N234	N	0.319978	0.583571	0.967835
	N235	N	0.319948	0.412150	0.041669
	N236	N	0.958810	0.677559	0.419120
	N237	N	0.031058	0.679402	0.593150
	N238	N	0.959261	0.319003	0.592716
	N239	N	0.031141	0.316617	0.416793
	N240	N	0.960343	0.413015	0.683631
	N241	N	0.034239	0.582782	0.681150
	N242	N	0.959483	0.583791	0.327196
	N243	N	0.034069	0.413383	0.327909
	N244	N	0.412527	0.675877	0.968580
	N245	N	0.584494	0.676183	0.042681
	N246	N	0.586895	0.315811	0.968710
	N247	N	0.411938	0.318457	0.041719
	N248	N	0.675534	0.961183	0.418703
	N249	N	0.673448	0.033905	0.592335
	N250	N	0.313205	0.960635	0.594092
	N251	N	0.315181	0.033841	0.419919
	N252	N	0.911586	0.460835	0.184669
	N253	N	0.084326	0.534454	0.184801
	N254	N	0.086049	0.461556	0.823901
	N255	N	0.914099	0.535322	0.827652
	N256	N	0.173194	0.911989	0.468771
	N257	N	0.172031	0.083406	0.543158
	N258	N	0.816046	0.084831	0.468895
	N259	N	0.818293	0.914711	0.543246
	N260	N	0.461336	0.177846	0.917884
	N261	N	0.533360	0.176384	0.092087
	N262	N	0.460309	0.815822	0.094043
	N263	N	0.534000	0.817176	0.919341
	N264	N	0.458048	0.911095	0.183622
	N265	N	0.532525	0.081560	0.183244
	N266	N	0.457864	0.080675	0.829611
	N267	N	0.532622	0.910242	0.826861
	N268	N	0.905586	0.180072	0.470152
	N269	N	0.078730	0.176000	0.542594
	N270	N	0.081504	0.818501	0.468642
	N271	N	0.907218	0.818063	0.541781
	N272	N	0.179620	0.461356	0.916561
	N273	N	0.176600	0.534961	0.089552
	N274	N	0.818237	0.460756	0.092318
	N275	N	0.818369	0.534201	0.919000
	O276	O	-0.080677	-0.051654	-0.026612
	H277	H	-0.075673	-0.051709	-0.006122
	H278	H	-0.093360	-0.067863	-0.020617
	O279	O	0.368637	0.408943	0.532243
	H280	H	0.372680	0.397869	0.533600
	H281	H	0.371404	0.403966	0.537659
	O282	O	1.921846	0.971532	1.177365
	H283	H	1.929815	0.968497	1.182773
	H284	H	1.916942	0.972544	1.185327
	O285	O	-0.623482	0.376737	0.517048
	H286	H	-0.611710	0.376723	0.521360
	H287	H	-0.634067	0.363633	0.527898
	O288	O	0.387053	0.574738	0.331234
	H289	H	0.392267	0.573359	0.325865
	H290	H	0.387828	0.580534	0.322639
	O291	O	0.487370	0.637106	0.506513
	H292	H	0.488172	0.631625	0.496428
	H293	H	0.490194	0.638653	0.506971
	O294	O	0.877326	1.030953	0.922364
	H295	H	0.878578	1.012589	0.918600
	H296	H	0.872554	1.028362	0.912695
	O297	O	0.136726	0.094627	-0.007064
	H298	H	0.129758	0.090820	-0.006764
	H299	H	0.136189	0.086602	-0.013844
	O300	O	0.543210	0.461486	0.337929
	H301	H	0.548107	0.474276	0.335103
	H302	H	0.526415	0.466203	0.340501
	O303	O	-0.084259	1.019951	1.042913
	H304	H	-0.082339	1.032272	1.041828
	H305	H	-0.094980	1.019457	1.042799
	O306	O	0.557683	0.454625	0.454050
	H307	H	0.551953	0.456779	0.448755
	H308	H	0.563718	0.454692	0.468867
	O309	O	1.546229	0.474946	-0.419122
	H310	H	1.543047	0.484493	-0.416855
	H311	H	1.540745	0.479530	-0.410930
	O312	O	0.070295	0.089772	1.157550
	H313	H	0.075292	0.099751	1.160142
	H314	H	0.078479	0.092342	1.140218
	O315	O	-0.103380	1.053125	0.080127
	H316	H	-0.107552	1.064558	0.080633
	H317	H	-0.095714	1.055832	0.081901
	O318	O	0.670332	0.298298	0.470492
	H319	H	0.674815	0.300139	0.448726
	H320	H	0.690855	0.280793	0.467356
	O321	O	0.522834	0.583589	0.509002
	H322	H	0.521661	0.574474	0.489994
	H323	H	0.517516	0.585439	0.508222
	O324	O	0.474118	0.635852	0.529168
	H325	H	0.469973	0.628454	0.523612
	H326	H	0.473559	0.636952	0.514810
	O327	O	0.411045	0.451223	0.587769
	H328	H	0.418869	0.459456	0.581834
	H329	H	0.405206	0.458544	0.600934
	O330	O	0.555224	0.386919	0.446130
	H331	H	0.538921	0.385396	0.455077
	H332	H	0.552849	0.393573	0.429467
	O333	O	-0.125501	1.084868	0.903302
	H334	H	-0.115401	1.088008	0.895531
	H335	H	-0.113591	1.064851	0.902153
	O336	O	0.901946	1.043885	1.102530
	H337	H	0.909992	1.067373	1.103087
	H338	H	0.899429	1.039300	1.094066
	O339	O	0.475383	0.423743	0.623546
	H340	H	0.471918	0.417626	0.636953
	H341	H	0.476383	0.432579	0.625183
	O342	O	1.039796	0.011529	-0.129739
	H343	H	1.041680	0.012190	-0.130306
	H344	H	1.033699	0.011401	-0.122172
	O345	O	0.492577	0.569194	0.514307
	H346	H	0.501722	0.566845	0.515960
	H347	H	0.490236	0.577710	0.522271
	O348	O	0.886571	0.911262	0.997142
	H349	H	0.889517	0.915656	1.007443
	H350	H	0.871469	0.895720	1.008555
	O351	O	0.887286	1.082672	-0.030919
	H352	H	0.870154	1.099697	-0.030281
	H353	H	0.889786	1.066676	-0.052767
	O354	O	0.545177	0.507902	0.574447
	H355	H	0.539377	0.517506	0.579667
	H356	H	0.552068	0.515027	0.568416
	O357	O	-0.035450	-0.051639	-0.135132
	H358	H	-0.036279	-0.050064	-0.133504
	H359	H	-0.026142	-0.064230	-0.133062
	O360	O	0.140271	-0.191444	-0.076156
	H361	H	0.124317	-0.195889	-0.070416
	H362	H	0.133656	-0.185402	-0.079861
	O363	O	0.912834	0.828015	0.216190
	H364	H	0.924382	0.832549	0.211084
	H365	H	0.912410	0.834111	0.220729
	O366	O	0.162324	-0.049438	-0.100659
	H367	H	0.167022	-0.056441	-0.102756
	H368	H	0.174059	-0.044536	-0.102608
	O369	O	0.524865	0.376338	0.513545
	H370	H	0.529068	0.379611	0.494270
	H371	H	0.529752	0.373723	0.510661
	O372	O	0.516228	0.447650	0.466957
	H373	H	0.509987	0.432564	0.471965
	H374	H	0.521424	0.443208	0.446372
	O375	O	0.403454	0.333358	0.576596
	H376	H	0.411686	0.336937	0.577738
	H377	H	0.417081	0.341093	0.576185
	O378	O	0.427494	0.621226	0.418594
	H379	H	0.436722	0.628012	0.430243
	H380	H	0.422577	0.630180	0.399168
	O381	O	0.602980	0.634887	0.530949
	H382	H	0.604108	0.628951	0.532797
	H383	H	0.603728	0.642719	0.549092
	O384	O	0.030776	1.108546	0.092374
	H385	H	0.023307	1.108208	0.099803
	H386	H	0.023595	1.118148	0.102303
	O387	O	0.978356	-0.182610	1.010488
	H388	H	0.981023	-0.190964	1.019413
	H389	H	1.001375	-0.178096	1.009688
	O390	O	0.016923	0.941271	-0.010713
	H391	H	0.023149	0.952974	-0.029245
	H392	H	0.010336	0.936465	-0.001159
	O393	O	1.097742	0.926996	-0.021429
	H394	H	1.108120	0.929296	-0.031969
	H395	H	1.093405	0.926105	-0.011680
	O396	O	0.584680	0.638889	0.583108
	H397	H	0.577213	0.645092	0.582044
	H398	H	0.577091	0.630759	0.584573
	O399	O	0.023412	1.102149	0.995972
	H400	H	0.019028	1.095548	0.994567
	H401	H	0.015508	1.114835	0.999962
	O402	O	1.169259	0.981870	1.081869
	H403	H	1.179288	0.974857	1.067278
	H404	H	1.163991	0.986029	1.064930
	O405	O	0.517093	0.399397	0.424323
	H406	H	0.507458	0.387135	0.423931
	H407	H	0.524296	0.385593	0.431713
