data_Molecule from HDF5

_cell_length_a		16.556453
_cell_length_b		16.666729
_cell_length_c		16.606465
_cell_angle_alpha	90.016684
_cell_angle_beta	90.073913
_cell_angle_gamma	89.841558
_symmetry_space_group_name_H-M	'P 1'
_symmetry_Int_Tables_number		1

loop_
	_symmetry_equiv_pos_as_xyz
	x,y,z

loop_
	_atom_site_label
	_atom_site_type_symbol
	_atom_site_fract_x
	_atom_site_fract_y
	_atom_site_fract_z
	H0	H	0.401580	0.849020	0.706916
	H1	H	0.611030	0.160246	0.708392
	H2	H	0.611645	0.849597	0.263445
	H3	H	0.401664	0.160084	0.266505
	H4	H	0.726430	0.397454	0.829780
	H5	H	0.725174	0.607381	0.142549
	H6	H	0.284385	0.609987	0.830572
	H7	H	0.284257	0.399937	0.141965
	H8	H	0.846301	0.722491	0.382503
	H9	H	0.161145	0.723562	0.588812
	H10	H	0.851155	0.280693	0.593790
	H11	H	0.162459	0.284457	0.382333
	H12	H	0.849502	0.398009	0.707998
	H13	H	0.161175	0.609021	0.705812
	H14	H	0.846119	0.605206	0.267425
	H15	H	0.163281	0.400968	0.266590
	H16	H	0.399527	0.726378	0.831205
	H17	H	0.610705	0.725011	0.142076
	H18	H	0.610417	0.281730	0.830402
	H19	H	0.398004	0.281375	0.140618
	H20	H	0.727661	0.849561	0.380574
	H21	H	0.726769	0.160187	0.591026
	H22	H	0.286115	0.848134	0.588444
	H23	H	0.286047	0.160487	0.383892
	H24	H	0.904542	0.346332	0.202418
	H25	H	0.104910	0.661452	0.201942
	H26	H	0.112400	0.350026	0.762626
	H27	H	0.897206	0.658406	0.762836
	H28	H	0.222813	0.902019	0.328536
	H29	H	0.225339	0.107697	0.642516
	H30	H	0.780830	0.112371	0.331802
	H31	H	0.785828	0.900975	0.643011
	H32	H	0.348383	0.227140	0.878485
	H33	H	0.658629	0.228244	0.093576
	H34	H	0.349028	0.783915	0.090672
	H35	H	0.661918	0.782560	0.880386
	H36	H	0.347955	0.902084	0.204201
	H37	H	0.659826	0.110611	0.208651
	H38	H	0.348319	0.110037	0.764297
	H39	H	0.661931	0.898269	0.764418
	H40	H	0.896768	0.228979	0.332197
	H41	H	0.111933	0.226296	0.641603
	H42	H	0.106648	0.786337	0.328550
	H43	H	0.899350	0.782259	0.641048
	H44	H	0.228412	0.349889	0.878563
	H45	H	0.222630	0.660553	0.086977
	H46	H	0.788120	0.346161	0.085253
	H47	H	0.780748	0.658587	0.878353
	H48	H	0.417655	0.115766	0.575773
	H49	H	0.599115	0.892206	0.575458
	H50	H	0.590709	0.111209	0.406658
	H51	H	0.414745	0.890582	0.390551
	H52	H	0.591142	0.411615	0.097035
	H53	H	0.598324	0.589041	0.874580
	H54	H	0.415001	0.596936	0.099125
	H55	H	0.414298	0.418442	0.874451
	H56	H	0.118101	0.595874	0.391151
	H57	H	0.894688	0.596081	0.566400
	H58	H	0.116417	0.416804	0.574697
	H59	H	0.892949	0.417220	0.393706
	H60	H	0.116459	0.415406	0.572030
	H61	H	0.894411	0.585783	0.576091
	H62	H	0.118749	0.598133	0.394019
	H63	H	0.892090	0.412475	0.393825
	H64	H	0.413013	0.591474	0.098077
	H65	H	0.587298	0.591611	0.877399
	H66	H	0.597688	0.414650	0.098777
	H67	H	0.420312	0.416666	0.876083
	H68	H	0.599394	0.118351	0.395036
	H69	H	0.591222	0.894118	0.579297
	H70	H	0.415602	0.115282	0.572529
	H71	H	0.416537	0.892148	0.395391
	H72	H	0.912951	0.616799	0.076973
	H73	H	0.098920	0.390116	0.077140
	H74	H	0.091236	0.615431	0.893030
	H75	H	0.917407	0.393813	0.896642
	H76	H	0.090951	0.910452	0.597521
	H77	H	0.090307	0.091035	0.376657
	H78	H	0.920813	0.095471	0.596832
	H79	H	0.918541	0.914290	0.374916
	H80	H	0.615894	0.091744	0.896967
	H81	H	0.391908	0.100042	0.070237
	H82	H	0.619293	0.911930	0.077186
	H83	H	0.397636	0.923190	0.899803
	H84	H	0.617325	0.913440	0.072678
	H85	H	0.396486	0.086657	0.068100
	H86	H	0.616716	0.094139	0.897982
	H87	H	0.391091	0.915093	0.888589
	H88	H	0.914645	0.092572	0.598257
	H89	H	0.093105	0.099613	0.372365
	H90	H	0.099327	0.910473	0.600595
	H91	H	0.913942	0.911184	0.372219
	H92	H	0.091636	0.613682	0.899890
	H93	H	0.093609	0.391593	0.077648
	H94	H	0.913906	0.616478	0.076411
	H95	H	0.915426	0.393240	0.897334
	H96	H	0.414016	0.116483	0.575802
	H97	H	0.592643	0.896107	0.570797
	H98	H	0.584596	0.113691	0.392434
	H99	H	0.411462	0.890589	0.395269
	H100	H	0.592781	0.418524	0.095176
	H101	H	0.593994	0.599026	0.871851
	H102	H	0.418714	0.592768	0.097149
	H103	H	0.416591	0.412118	0.873561
	H104	H	0.116792	0.594990	0.394574
	H105	H	0.889286	0.598573	0.579460
	H106	H	0.115276	0.418266	0.572474
	H107	H	0.893601	0.414644	0.398002
	H108	H	0.912459	0.615775	0.075813
	H109	H	0.096323	0.392224	0.072833
	H110	H	0.097073	0.616630	0.897135
	H111	H	0.916065	0.392582	0.895245
	H112	H	0.095426	0.917920	0.597452
	H113	H	0.099496	0.092871	0.373273
	H114	H	0.919627	0.089255	0.594563
	H115	H	0.913190	0.917371	0.373898
	H116	H	0.615161	0.092537	0.899629
	H117	H	0.390727	0.090756	0.080937
	H118	H	0.617837	0.916728	0.076872
	H119	H	0.392891	0.908762	0.902231
	C120	C	0.384197	0.012907	0.606768
	C121	C	0.626447	0.996786	0.607459
	C122	C	0.625669	0.012648	0.364890
	C123	C	0.383049	0.995130	0.363358
	C124	C	0.626034	0.382311	-0.005971
	C125	C	0.625999	0.625114	0.977564
	C126	C	0.383706	0.625989	-0.004989
	C127	C	0.383814	0.383272	0.977367
	C128	C	0.013122	0.625923	0.363122
	C129	C	0.996245	0.625323	0.606046
	C130	C	0.013701	0.383542	0.606675
	C131	C	0.997101	0.383336	0.364303
	C132	C	0.883467	0.512057	0.106615
	C133	C	0.126106	0.495291	0.106290
	C134	C	0.126235	0.512833	0.864103
	C135	C	0.882814	0.495320	0.863725
	C136	C	0.126236	0.882274	0.494496
	C137	C	0.126661	0.125845	0.477331
	C138	C	0.884103	0.126027	0.494573
	C139	C	0.883600	0.882911	0.477297
	C140	C	0.512794	0.125641	0.865199
	C141	C	0.495856	0.125410	0.106515
	C142	C	0.514108	0.882824	0.107031
	C143	C	0.497598	0.883628	0.865018
	C144	C	0.382837	0.895445	0.666540
	C145	C	0.628681	0.113685	0.667678
	C146	C	0.629493	0.895928	0.304039
	C147	C	0.382348	0.112981	0.305604
	C148	C	0.686050	0.379498	0.876680
	C149	C	0.685680	0.626343	0.095597
	C150	C	0.324196	0.628275	0.877545
	C151	C	0.323885	0.381460	0.094837
	C152	C	0.893828	0.683295	0.363218
	C153	C	0.114066	0.684357	0.607453
	C154	C	0.897231	0.321845	0.611013
	C155	C	0.115393	0.324304	0.363462
	C156	C	0.896807	0.379756	0.668245
	C157	C	0.113975	0.627394	0.665783
	C158	C	0.893580	0.625106	0.306047
	C159	C	0.115538	0.382176	0.305828
	C160	C	0.381547	0.686049	0.877782
	C161	C	0.628630	0.684699	0.095230
	C162	C	0.628521	0.321779	0.877157
	C163	C	0.380287	0.322548	0.094411
	C164	C	0.687091	0.895971	0.362111
	C165	C	0.686328	0.113699	0.609478
	C166	C	0.325636	0.895066	0.607921
	C167	C	0.324993	0.113320	0.363944
	C168	C	0.884604	0.393631	0.163630
	C169	C	0.125160	0.613843	0.163480
	C170	C	0.130039	0.396641	0.802943
	C171	C	0.879582	0.611965	0.803185
	C172	C	0.184121	0.882360	0.375940
	C173	C	0.185869	0.126827	0.595337
	C174	C	0.821641	0.130181	0.378432
	C175	C	0.824783	0.881930	0.595279
	C176	C	0.395380	0.186518	0.861300
	C177	C	0.612461	0.186994	0.110875
	C178	C	0.396004	0.823784	0.108927
	C179	C	0.614987	0.823066	0.862346
	C180	C	0.395598	0.882274	0.165482
	C181	C	0.613105	0.128555	0.167856
	C182	C	0.395408	0.128527	0.804085
	C183	C	0.615035	0.880881	0.804750
	C184	C	0.879314	0.188041	0.378462
	C185	C	0.129151	0.185609	0.594885
	C186	C	0.126209	0.824982	0.375677
	C187	C	0.881596	0.823080	0.594550
	C188	C	0.187667	0.396544	0.860888
	C189	C	0.183641	0.613648	0.106396
	C190	C	0.826959	0.393407	0.105274
	C191	C	0.821581	0.611936	0.860646
	C192	C	0.408656	0.094600	0.581952
	C193	C	0.601350	0.915266	0.582250
	C194	C	0.599012	0.093414	0.390467
	C195	C	0.407412	0.912644	0.387037
	C196	C	0.600977	0.407619	0.075822
	C197	C	0.600570	0.600208	0.895922
	C198	C	0.408644	0.600856	0.076829
	C199	C	0.409688	0.408552	0.896022
	C200	C	0.096307	0.602802	0.386502
	C201	C	0.914156	0.600538	0.581266
	C202	C	0.094931	0.409282	0.580396
	C203	C	0.914402	0.407770	0.388502
	C204	C	0.906475	0.594809	0.083226
	C205	C	0.103066	0.412821	0.082588
	C206	C	0.100601	0.594082	0.889564
	C207	C	0.908780	0.414427	0.889076
	C208	C	0.102327	0.906047	0.577010
	C209	C	0.101502	0.101442	0.395360
	C210	C	0.910881	0.099883	0.575558
	C211	C	0.908125	0.907428	0.394976
	C212	C	0.594610	0.100206	0.890853
	C213	C	0.414328	0.099724	0.080435
	C214	C	0.596603	0.907114	0.082784
	C215	C	0.415300	0.908433	0.889966
	Zn216	Zn	0.505195	0.004739	0.736548
	Zn217	Zn	0.505261	0.004156	0.234718
	Zn218	Zn	0.754429	0.503578	-0.014669
	Zn219	Zn	0.255296	0.504451	-0.014741
	Zn220	Zn	0.004539	0.754111	0.484587
	Zn221	Zn	0.005481	0.254506	0.485730
	Zn222	Zn	0.004832	0.504516	0.735305
	Zn223	Zn	0.005187	0.504409	0.235552
	Zn224	Zn	0.505538	0.754597	-0.013837
	Zn225	Zn	0.504321	0.254025	-0.014194
	Zn226	Zn	0.755491	0.004650	0.485878
	Zn227	Zn	0.254485	0.003776	0.485849
	N228	N	0.418341	0.969736	0.666061
	N229	N	0.592291	0.039788	0.666577
	N230	N	0.592102	0.969430	0.305408
	N231	N	0.417449	0.038280	0.304927
	N232	N	0.684756	0.416616	0.950501
	N233	N	0.684498	0.590016	0.021289
	N234	N	0.325152	0.591688	0.951542
	N235	N	0.325658	0.418384	0.020927
	N236	N	0.969246	0.684059	0.397871
	N237	N	0.039565	0.683518	0.571222
	N238	N	0.970819	0.323950	0.573319
	N239	N	0.040431	0.324696	0.399059
	N240	N	0.970264	0.417757	0.665498
	N241	N	0.039413	0.591524	0.665378
	N242	N	0.968762	0.590208	0.305601
	N243	N	0.040845	0.418062	0.306167
	N244	N	0.417673	0.685070	0.951998
	N245	N	0.592400	0.684216	0.020953
	N246	N	0.591891	0.323412	0.951223
	N247	N	0.416854	0.323556	0.020390
	N248	N	0.685074	0.969498	0.399311
	N249	N	0.685314	0.039781	0.572910
	N250	N	0.326250	0.969097	0.571490
	N251	N	0.325090	0.038717	0.399050
	N252	N	0.918638	0.468691	0.165002
	N253	N	0.090524	0.539096	0.163997
	N254	N	0.092684	0.470075	0.804771
	N255	N	0.916971	0.538397	0.804698
	N256	N	0.184435	0.917291	0.450838
	N257	N	0.184435	0.090262	0.521288
	N258	N	0.824348	0.092464	0.451687
	N259	N	0.825981	0.918532	0.521153
	N260	N	0.469444	0.185013	0.898511
	N261	N	0.538515	0.185157	0.073660
	N262	N	0.470881	0.823919	0.073323
	N263	N	0.540871	0.824661	0.899303
	N264	N	0.470118	0.918031	0.164676
	N265	N	0.539511	0.090738	0.165310
	N266	N	0.469498	0.091298	0.806193
	N267	N	0.540798	0.917799	0.806102
	N268	N	0.917556	0.185605	0.451850
	N269	N	0.092903	0.185194	0.520398
	N270	N	0.090942	0.824690	0.450456
	N271	N	0.917303	0.823452	0.519984
	N272	N	0.185625	0.469916	0.898365
	N273	N	0.184716	0.538776	0.071837
	N274	N	0.826032	0.468318	0.070851
	N275	N	0.823216	0.538344	0.897429
	O276	O	-0.184711	1.192542	0.168120
	H277	H	-0.169923	1.174890	0.149667
	H278	H	-0.163325	1.181508	0.157462
	O279	O	0.650665	0.291549	0.511201
	H280	H	0.644417	0.284379	0.510936
	H281	H	0.657482	0.286177	0.507428
	O282	O	1.009599	0.048419	0.837980
	H283	H	1.005796	0.053712	0.842515
	H284	H	0.994480	0.048932	0.851500
	O285	O	0.478921	0.679254	0.506773
	H286	H	0.484665	0.679200	0.509550
	H287	H	0.497807	0.679368	0.506392
	O288	O	0.590266	0.549736	0.356621
	H289	H	0.593993	0.553586	0.362997
	H290	H	0.602807	0.562599	0.357607
	O291	O	-0.022426	-0.207213	0.196535
	H292	H	-0.032374	-0.215698	0.196424
	H293	H	-0.044870	-0.218325	0.200832
	O294	O	1.170322	-0.022295	0.768647
	H295	H	1.175797	-0.023120	0.763999
	H296	H	1.180381	-0.008065	0.766084
	O297	O	-0.153428	0.852590	0.964610
	H298	H	-0.171201	0.857065	0.963051
	H299	H	-0.156488	0.858994	0.960044
	O300	O	0.197160	0.017414	1.201462
	H301	H	0.207935	0.021404	1.206295
	H302	H	0.203071	0.019074	1.207160
	O303	O	0.704595	0.506735	0.469941
	H304	H	0.705689	0.493297	0.455197
	H305	H	0.710253	0.498115	0.478242
	O306	O	0.400303	0.338834	0.472521
	H307	H	0.390778	0.331943	0.476973
	H308	H	0.391062	0.345804	0.477345
	O309	O	0.399806	0.481405	0.597876
	H310	H	0.398392	0.481457	0.585755
	H311	H	0.393324	0.471221	0.611932
	O312	O	0.722827	0.727778	0.513809
	H313	H	0.752504	0.737406	0.515733
	H314	H	0.730837	0.719000	0.533031
	O315	O	1.155968	1.077990	1.097022
	H316	H	1.144367	1.064852	1.116325
	H317	H	1.148175	1.072957	1.095835
	O318	O	0.726906	0.463730	0.265396
	H319	H	0.730246	0.446352	0.266025
	H320	H	0.745461	0.457421	0.250835
	O321	O	0.292567	1.480429	0.699956
	H322	H	0.281920	1.469985	0.700532
	H323	H	0.277978	1.473273	0.704431
	O324	O	1.180016	1.185741	0.142733
	H325	H	1.186360	1.179458	0.126543
	H326	H	1.203298	1.193207	0.174745
	O327	O	-0.215521	0.039565	0.767211
	H328	H	-0.239639	0.046965	0.739996
	H329	H	-0.215494	0.082690	0.765851
	O330	O	0.549222	0.474558	0.709313
	H331	H	0.546912	0.475028	0.707184
	H332	H	0.530312	0.467436	0.705869
	O333	O	0.389381	0.331634	0.437036
	H334	H	0.389518	0.345682	0.425997
	H335	H	0.389476	0.331645	0.430109
	O336	O	0.787515	0.214368	-0.068573
	H337	H	0.796749	0.215736	-0.071085
	H338	H	0.769875	0.230377	-0.066291
	O339	O	0.692032	-0.669867	0.666770
	H340	H	0.682501	-0.673187	0.651897
	H341	H	0.682926	-0.662192	0.659404
	O342	O	-0.054644	0.085133	0.212916
	H343	H	-0.047904	0.077525	0.213686
	H344	H	-0.053216	0.082774	0.220700
	O345	O	0.208810	0.800876	1.189010
	H346	H	0.218894	0.806083	1.180769
	H347	H	0.194075	0.802622	1.176581
	O348	O	0.117421	0.213248	-0.108894
	H349	H	0.122782	0.220127	-0.095605
	H350	H	0.118875	0.198326	-0.084332
	O351	O	0.506131	0.561757	0.415237
	H352	H	0.509300	0.571827	0.414060
	H353	H	0.517580	0.560069	0.419841
	O354	O	-0.282209	0.293059	1.271739
	H355	H	-0.277853	0.289878	1.254667
	H356	H	-0.277733	0.279367	1.275951
	O357	O	0.100210	0.028723	0.179801
	H358	H	0.109260	0.036784	0.181831
	H359	H	0.099851	0.013619	0.191233
	O360	O	0.284498	0.539956	0.263013
	H361	H	0.256332	0.544883	0.231387
	H362	H	0.301773	0.558611	0.262035
	O363	O	0.115674	0.228647	0.203897
	H364	H	0.118931	0.248025	0.219269
	H365	H	0.137529	0.221722	0.198994
	O366	O	0.545396	0.583781	0.450034
	H367	H	0.554005	0.585077	0.448859
	H368	H	0.544746	0.587266	0.447018
	O369	O	1.203909	0.211805	-0.064241
	H370	H	1.189490	0.189422	-0.046001
	H371	H	1.208934	0.223288	-0.059938
	O372	O	0.950523	1.045419	0.064968
	H373	H	0.944660	1.027158	0.076250
	H374	H	0.943200	1.033467	0.062832
	O375	O	0.784009	-0.218407	0.208159
	H376	H	0.791954	-0.190300	0.215106
	H377	H	0.771515	-0.234044	0.188225
	O378	O	0.999620	0.989082	0.794150
	H379	H	1.011688	0.981363	0.793522
	H380	H	0.983761	0.975454	0.788609
	O381	O	-0.206182	0.969627	1.201670
	H382	H	-0.201350	0.963208	1.193485
	H383	H	-0.230679	0.975494	1.208854
	O384	O	1.161665	-0.036136	0.886798
	H385	H	1.161928	-0.028463	0.889983
	H386	H	1.165141	-0.031583	0.884735
	O387	O	0.978857	1.206321	-0.203018
	H388	H	0.999810	1.209547	-0.189794
	H389	H	0.993412	1.215366	-0.208552
	O390	O	0.333215	0.481846	0.417257
	H391	H	0.329006	0.502519	0.402382
	H392	H	0.339540	0.480286	0.408972
	O393	O	0.458688	0.477584	0.280118
	H394	H	0.485145	0.478492	0.281296
	H395	H	0.451348	0.503082	0.279220
	O396	O	-0.157767	0.972281	0.896833
	H397	H	-0.165598	0.975530	0.893244
	H398	H	-0.161530	0.971239	0.888254
	O399	O	0.203488	-0.040363	0.976193
	H400	H	0.207505	-0.059027	0.987237
	H401	H	0.204361	-0.032708	0.972590
	O402	O	0.652181	0.610058	0.602277
	H403	H	0.658734	0.601202	0.605059
	H404	H	0.660212	0.606739	0.623100
	O405	O	0.859005	-0.155262	0.856200
	H406	H	0.867246	-0.133102	0.859286
	H407	H	0.857537	-0.172966	0.854597
	O408	O	0.215277	-0.124802	0.002657
	H409	H	0.227776	-0.141512	-0.007817
	H410	H	0.211464	-0.126481	-0.024922
	O411	O	0.392760	0.529556	0.590686
	H412	H	0.382824	0.539099	0.587628
	H413	H	0.386575	0.524043	0.583452
	O414	O	0.534896	0.718544	0.699304
	H415	H	0.527978	0.726749	0.713246
	H416	H	0.542230	0.718926	0.695193
	O417	O	0.092007	0.852979	1.085812
	H418	H	0.079597	0.845082	1.076458
	H419	H	0.100182	0.836480	1.083083
	O420	O	-0.216568	1.039116	1.026465
	H421	H	-0.213694	1.019397	1.024287
	H422	H	-0.218086	1.043689	1.018836
	O423	O	0.037014	-0.219704	0.768508
	H424	H	0.041194	-0.211263	0.756147
	H425	H	0.040815	-0.235178	0.755401
	O426	O	0.461717	0.308479	0.705475
	H427	H	0.450183	0.299992	0.706707
	H428	H	0.460404	0.286456	0.703531
	O429	O	0.608577	0.550998	0.632956
	H430	H	0.626769	0.540110	0.643033
	H431	H	0.583312	0.535313	0.642509
	O432	O	0.705972	0.704136	0.685541
	H433	H	0.696842	0.715353	0.682085
	H434	H	0.702042	0.666614	0.685906
	O435	O	-0.113026	0.780580	-0.037073
	H436	H	-0.099932	0.778118	-0.045377
	H437	H	-0.111376	0.777425	-0.045701
	O438	O	0.193208	-0.201088	-0.200539
	H439	H	0.208365	-0.226791	-0.233370
	H440	H	0.182219	-0.163911	-0.205861
	O441	O	-0.081807	-0.118313	-0.006090
	H442	H	-0.074538	-0.121233	-0.019678
	H443	H	-0.068374	-0.115800	0.007555
	O444	O	0.619462	0.317011	0.501809
	H445	H	0.614205	0.320018	0.487359
	H446	H	0.613988	0.309014	0.489819
	O447	O	0.306979	1.298376	1.656560
	H448	H	0.293991	1.305571	1.651797
	H449	H	0.311993	1.291684	1.658677
	O450	O	0.083752	0.982343	0.968693
	H451	H	0.098746	0.973050	0.964374
	H452	H	0.069148	0.980523	0.953623
	O453	O	0.649655	0.433896	0.553991
	H454	H	0.648692	0.426244	0.557032
	H455	H	0.647369	0.432415	0.562774
	O456	O	-0.076609	0.185159	0.987713
	H457	H	-0.074559	0.191300	0.986932
	H458	H	-0.059596	0.178504	0.981323
	O459	O	0.661112	0.667929	0.320610
	H460	H	0.651979	0.660933	0.352318
	H461	H	0.670059	0.671201	0.308101
	O462	O	0.825408	0.213385	0.775702
	H463	H	0.868513	0.215767	0.781204
	H464	H	0.807775	0.238685	0.771596
	O465	O	1.001426	0.003707	-0.036932
	H466	H	0.993403	-0.005964	-0.032708
	H467	H	0.999607	0.002657	-0.035202
	O468	O	0.360337	0.592750	0.397167
	H469	H	0.363600	0.576652	0.385047
	H470	H	0.383123	0.598251	0.394804
	O471	O	0.491048	0.400588	0.489853
	H472	H	0.499718	0.403830	0.475202
	H473	H	0.487241	0.401648	0.498874
	O474	O	0.291483	0.715329	0.449770
	H475	H	0.281287	0.725923	0.441090
	H476	H	0.296490	0.722133	0.450030
	O477	O	0.300443	0.714524	1.689958
	H478	H	0.313874	0.698315	1.683669
	H479	H	0.302740	0.711164	1.674530
	O480	O	0.344007	0.349821	0.300412
	H481	H	0.356077	0.357609	0.308343
	H482	H	0.364952	0.365682	0.308175
	O483	O	0.317873	0.682060	0.412648
	H484	H	0.323477	0.693769	0.432725
	H485	H	0.294491	0.696548	0.395930
	O486	O	1.472701	-0.279016	1.268836
	H487	H	1.481023	-0.261863	1.252861
	H488	H	1.480234	-0.268994	1.283571
	O489	O	1.543228	0.295001	0.284752
	H490	H	1.540130	0.293281	0.277275
	H491	H	1.554429	0.300295	0.278557
