data_Molecule from HDF5

_cell_length_a		16.353679
_cell_length_b		16.347810
_cell_length_c		16.450060
_cell_angle_alpha	89.817890
_cell_angle_beta	89.725343
_cell_angle_gamma	90.091451
_symmetry_space_group_name_H-M	'P 1'
_symmetry_Int_Tables_number		1

loop_
	_symmetry_equiv_pos_as_xyz
	x,y,z

loop_
	_atom_site_label
	_atom_site_type_symbol
	_atom_site_fract_x
	_atom_site_fract_y
	_atom_site_fract_z
	H0	H	0.377580	0.849413	0.726783
	H1	H	0.588830	0.168453	0.721703
	H2	H	0.587395	0.847799	0.283083
	H3	H	0.379147	0.167411	0.283607
	H4	H	0.704975	0.405884	0.844489
	H5	H	0.704508	0.614931	0.161868
	H6	H	0.261170	0.614145	0.844278
	H7	H	0.261948	0.402622	0.162413
	H8	H	0.821875	0.726741	0.401066
	H9	H	0.141439	0.725969	0.607423
	H10	H	0.821712	0.285291	0.610160
	H11	H	0.140919	0.286283	0.400303
	H12	H	0.822140	0.400417	0.726606
	H13	H	0.141946	0.610458	0.721859
	H14	H	0.821586	0.611303	0.284461
	H15	H	0.139545	0.399412	0.281566
	H16	H	0.379412	0.729292	0.844039
	H17	H	0.587874	0.730771	0.161819
	H18	H	0.589476	0.288992	0.843823
	H19	H	0.378032	0.286970	0.161228
	H20	H	0.700933	0.847022	0.400359
	H21	H	0.702280	0.168304	0.605160
	H22	H	0.262076	0.847669	0.610946
	H23	H	0.264956	0.168270	0.402241
	H24	H	0.875781	0.347400	0.224729
	H25	H	0.086886	0.666633	0.224473
	H26	H	0.087589	0.347301	0.783349
	H27	H	0.877325	0.665884	0.782006
	H28	H	0.203738	0.901390	0.344514
	H29	H	0.201730	0.110375	0.663624
	H30	H	0.762142	0.112959	0.344916
	H31	H	0.761276	0.903348	0.663772
	H32	H	0.321877	0.227499	0.900767
	H33	H	0.641810	0.229131	0.106308
	H34	H	0.321778	0.787862	0.107757
	H35	H	0.642117	0.787673	0.897599
	H36	H	0.322989	0.900860	0.226236
	H37	H	0.641397	0.114299	0.223875
	H38	H	0.323606	0.114341	0.782325
	H39	H	0.642394	0.904252	0.781292
	H40	H	0.874380	0.230699	0.346624
	H41	H	0.085830	0.227477	0.663149
	H42	H	0.086076	0.786797	0.344107
	H43	H	0.879111	0.788301	0.664396
	H44	H	0.201772	0.346844	0.900926
	H45	H	0.201130	0.668131	0.107271
	H46	H	0.761282	0.348143	0.108961
	H47	H	0.765582	0.667823	0.900292
	H48	H	0.392425	0.123612	0.598055
	H49	H	0.577352	0.890763	0.597318
	H50	H	0.575741	0.124460	0.408722
	H51	H	0.389283	0.893915	0.419607
	H52	H	0.570017	0.418647	0.116176
	H53	H	0.566257	0.597831	0.893403
	H54	H	0.386340	0.594311	0.116833
	H55	H	0.394517	0.418638	0.889698
	H56	H	0.096759	0.598814	0.413993
	H57	H	0.868128	0.593733	0.591918
	H58	H	0.092460	0.425117	0.594149
	H59	H	0.867617	0.421496	0.411637
	H60	H	0.099178	0.413354	0.600766
	H61	H	0.866906	0.593222	0.597957
	H62	H	0.093871	0.594216	0.416033
	H63	H	0.866396	0.414095	0.415021
	H64	H	0.397244	0.593436	0.113608
	H65	H	0.576333	0.603990	0.887673
	H66	H	0.572322	0.417058	0.116112
	H67	H	0.391055	0.417895	0.889079
	H68	H	0.567006	0.120843	0.410805
	H69	H	0.562345	0.895978	0.597915
	H70	H	0.396703	0.119568	0.589839
	H71	H	0.390227	0.890407	0.409030
	H72	H	0.890881	0.624266	0.100175
	H73	H	0.074901	0.391891	0.093339
	H74	H	0.069019	0.620339	0.913379
	H75	H	0.891071	0.392121	0.914042
	H76	H	0.071838	0.912040	0.619144
	H77	H	0.069781	0.101324	0.390444
	H78	H	0.891709	0.095532	0.617670
	H79	H	0.895501	0.914257	0.390832
	H80	H	0.593449	0.091590	0.914597
	H81	H	0.369006	0.097248	0.089677
	H82	H	0.598388	0.911525	0.092953
	H83	H	0.371936	0.918089	0.923348
	H84	H	0.592415	0.923277	0.085881
	H85	H	0.369660	0.093590	0.094177
	H86	H	0.600520	0.099249	0.902849
	H87	H	0.371135	0.929339	0.912357
	H88	H	0.892281	0.092784	0.616360
	H89	H	0.076732	0.095502	0.389986
	H90	H	0.074577	0.918072	0.617125
	H91	H	0.888865	0.915326	0.389399
	H92	H	0.073583	0.621198	0.914460
	H93	H	0.069395	0.393213	0.096963
	H94	H	0.901288	0.619459	0.095117
	H95	H	0.897100	0.393698	0.913901
	H96	H	0.387657	0.122866	0.589283
	H97	H	0.570851	0.897391	0.584658
	H98	H	0.573272	0.120581	0.418053
	H99	H	0.399310	0.894660	0.414452
	H100	H	0.572125	0.419914	0.116353
	H101	H	0.577839	0.591586	0.891395
	H102	H	0.393023	0.603734	0.117225
	H103	H	0.392585	0.421360	0.889595
	H104	H	0.096020	0.594410	0.410893
	H105	H	0.866736	0.599110	0.594517
	H106	H	0.094191	0.412223	0.586435
	H107	H	0.869133	0.420366	0.419860
	H108	H	0.890232	0.621142	0.088279
	H109	H	0.069295	0.395478	0.090320
	H110	H	0.072346	0.622119	0.910032
	H111	H	0.893440	0.394455	0.919123
	H112	H	0.068235	0.917189	0.615695
	H113	H	0.069060	0.092846	0.393956
	H114	H	0.894041	0.094975	0.616511
	H115	H	0.892297	0.920717	0.391967
	H116	H	0.598145	0.107046	0.916381
	H117	H	0.367609	0.099017	0.095166
	H118	H	0.596398	0.924349	0.100087
	H119	H	0.366214	0.914946	0.909513
	C120	C	0.360632	0.016394	0.625219
	C121	C	0.602975	1.000061	0.623717
	C122	C	0.603778	0.016322	0.381584
	C123	C	0.361172	0.998587	0.382422
	C124	C	0.604403	0.387397	0.011425
	C125	C	0.604843	0.630299	0.995572
	C126	C	0.360715	0.629465	0.010965
	C127	C	0.360631	0.386794	0.994361
	C128	C	-0.009902	0.628144	0.382418
	C129	C	0.972979	0.627094	0.625411
	C130	C	-0.009995	0.384543	0.626276
	C131	C	0.972653	0.385682	0.383249
	C132	C	0.860868	0.516339	0.126600
	C133	C	0.103422	0.498877	0.125503
	C134	C	0.103813	0.515627	0.881393
	C135	C	0.862093	0.498591	0.883462
	C136	C	0.103879	0.884135	0.512083
	C137	C	0.103086	0.128057	0.496274
	C138	C	0.860408	0.127933	0.512085
	C139	C	0.860053	0.884895	0.495843
	C140	C	0.491389	0.130711	0.880551
	C141	C	0.474102	0.129252	0.124457
	C142	C	0.490710	0.886380	0.125494
	C143	C	0.474695	0.888253	0.882088
	C144	C	0.358901	0.897033	0.686624
	C145	C	0.606477	0.120458	0.682357
	C146	C	0.605720	0.895786	0.322778
	C147	C	0.360195	0.119629	0.323488
	C148	C	0.665112	0.386480	0.892151
	C149	C	0.664720	0.632918	0.114345
	C150	C	0.301344	0.632117	0.891754
	C151	C	0.301439	0.384464	0.114514
	C152	C	0.869792	0.687497	0.381670
	C153	C	0.093404	0.686739	0.626136
	C154	C	0.869703	0.324828	0.628689
	C155	C	0.092898	0.325978	0.381559
	C156	C	0.870113	0.381888	0.686941
	C157	C	0.093633	0.628950	0.683241
	C158	C	0.869929	0.630040	0.323468
	C159	C	0.092294	0.382017	0.322230
	C160	C	0.360171	0.689433	0.891617
	C161	C	0.606384	0.690459	0.114431
	C162	C	0.607431	0.328349	0.891814
	C163	C	0.359052	0.326685	0.113841
	C164	C	0.662345	0.895436	0.381251
	C165	C	0.663033	0.120215	0.624266
	C166	C	0.301460	0.896019	0.628672
	C167	C	0.303081	0.119850	0.382166
	C168	C	0.857560	0.395724	0.185652
	C169	C	0.105182	0.618711	0.184687
	C170	C	0.105887	0.395454	0.822746
	C171	C	0.859740	0.618423	0.822645
	C172	C	0.163604	0.882894	0.392289
	C173	C	0.162309	0.129480	0.615708
	C174	C	0.801259	0.131106	0.392770
	C175	C	0.801136	0.884478	0.615934
	C176	C	0.370487	0.188918	0.881044
	C177	C	0.593874	0.189461	0.125494
	C178	C	0.370176	0.826935	0.126846
	C179	C	0.594461	0.828097	0.879526
	C180	C	0.370588	0.883174	0.185875
	C181	C	0.593816	0.131944	0.183843
	C182	C	0.371186	0.132516	0.822163
	C183	C	0.594528	0.886011	0.821409
	C184	C	0.857554	0.189785	0.393716
	C185	C	0.104359	0.187616	0.615612
	C186	C	0.105056	0.825522	0.392082
	C187	C	0.859311	0.826782	0.616204
	C188	C	0.162919	0.395276	0.881249
	C189	C	0.162195	0.619473	0.126205
	C190	C	0.800912	0.396175	0.127604
	C191	C	0.803788	0.619396	0.881320
	C192	C	0.385193	0.100338	0.599686
	C193	C	0.577507	0.916436	0.599877
	C194	C	0.579152	0.099919	0.405758
	C195	C	0.385877	0.914932	0.407205
	C196	C	0.578919	0.411524	0.094480
	C197	C	0.580280	0.605155	0.912305
	C198	C	0.385171	0.604443	0.094211
	C199	C	0.385509	0.412033	0.911245
	C200	C	0.073766	0.603134	0.406645
	C201	C	0.889057	0.602425	0.601584
	C202	C	0.073555	0.409742	0.601109
	C203	C	0.889339	0.411239	0.408320
	C204	C	0.886831	0.599905	0.101911
	C205	C	0.078346	0.415115	0.100595
	C206	C	0.078843	0.599526	0.905613
	C207	C	0.886856	0.415149	0.908784
	C208	C	0.078810	0.908625	0.595415
	C209	C	0.078833	0.103499	0.413040
	C210	C	0.885324	0.101971	0.595125
	C211	C	0.884913	0.909468	0.412268
	C212	C	0.575438	0.106341	0.904407
	C213	C	0.390517	0.103723	0.100014
	C214	C	0.574030	0.912269	0.100241
	C215	C	0.391269	0.913494	0.907651
	Zn216	Zn	0.483148	0.009651	0.752564
	Zn217	Zn	0.482311	0.007385	0.253578
	Zn218	Zn	0.734063	0.508513	0.004220
	Zn219	Zn	0.231657	0.507604	0.003594
	Zn220	Zn	-0.018476	0.755589	0.504657
	Zn221	Zn	-0.019313	0.257264	0.504583
	Zn222	Zn	-0.018448	0.506720	0.753737
	Zn223	Zn	-0.018225	0.506252	0.254230
	Zn224	Zn	0.482571	0.759049	0.003436
	Zn225	Zn	0.482574	0.258114	0.002629
	Zn226	Zn	0.731885	0.007374	0.503655
	Zn227	Zn	0.232461	0.006540	0.503808
	N228	N	0.394838	0.973064	0.684696
	N229	N	0.569500	0.044965	0.681978
	N230	N	0.570153	0.971829	0.322625
	N231	N	0.395220	0.043242	0.323246
	N232	N	0.663325	0.422437	0.967534
	N233	N	0.663868	0.596163	0.039357
	N234	N	0.301499	0.595792	0.967091
	N235	N	0.302339	0.421372	0.039257
	N236	N	0.945548	0.686560	0.417437
	N237	N	0.017312	0.685658	0.590703
	N238	N	0.945122	0.326331	0.591750
	N239	N	0.017513	0.328068	0.418705
	N240	N	0.946062	0.418231	0.685665
	N241	N	0.018011	0.592472	0.682757
	N242	N	0.945760	0.593725	0.323966
	N243	N	0.016730	0.418499	0.323190
	N244	N	0.396189	0.688017	0.966992
	N245	N	0.569833	0.688886	0.039524
	N246	N	0.570292	0.328659	0.967008
	N247	N	0.395195	0.328010	0.038256
	N248	N	0.661545	0.971424	0.416958
	N249	N	0.660747	0.044372	0.588409
	N250	N	0.302582	0.971198	0.591212
	N251	N	0.303503	0.043629	0.417976
	N252	N	0.894063	0.471507	0.185166
	N253	N	0.069537	0.542527	0.184566
	N254	N	0.069927	0.471432	0.822796
	N255	N	0.895385	0.542383	0.823989
	N256	N	0.163124	0.918599	0.467893
	N257	N	0.161533	0.093105	0.540597
	N258	N	0.803128	0.093240	0.467483
	N259	N	0.801272	0.919807	0.539907
	N260	N	0.446321	0.187873	0.916601
	N261	N	0.518443	0.187708	0.089220
	N262	N	0.445750	0.828977	0.089773
	N263	N	0.519037	0.829430	0.916400
	N264	N	0.446514	0.919517	0.185035
	N265	N	0.518113	0.095180	0.183319
	N266	N	0.447415	0.097120	0.821756
	N267	N	0.518889	0.922825	0.823058
	N268	N	0.893691	0.187674	0.468943
	N269	N	0.068049	0.186855	0.540362
	N270	N	0.068579	0.826281	0.467661
	N271	N	0.895200	0.826967	0.540488
	N272	N	0.161909	0.471142	0.916923
	N273	N	0.161241	0.543733	0.090103
	N274	N	0.802420	0.472363	0.091814
	N275	N	0.805055	0.543981	0.918458
	O276	O	0.546759	0.387348	0.410545
	H277	H	0.539305	0.395777	0.421433
	H278	H	0.560514	0.385544	0.410106
	O279	O	1.046407	-0.158962	-0.022791
	H280	H	1.062522	-0.165463	-0.027932
	H281	H	1.032472	-0.147029	-0.036137
	O282	O	0.605455	0.355355	0.396838
	H283	H	0.612505	0.361365	0.408856
	H284	H	0.604622	0.369806	0.394601
	O285	O	1.106835	0.191248	-0.034407
	H286	H	1.102561	0.196074	-0.043119
	H287	H	1.107335	0.181241	-0.039826
	O288	O	-0.011863	0.033838	0.970208
	H289	H	-0.013167	0.035589	0.979893
	H290	H	-0.020930	0.038994	0.975739
	O291	O	0.633844	0.561462	0.655898
	H292	H	0.623172	0.552476	0.656484
	H293	H	0.635042	0.563096	0.664901
	O294	O	0.346555	0.428090	0.540148
	H295	H	0.354736	0.436287	0.521393
	H296	H	0.337213	0.401430	0.537750
	O297	O	0.971484	0.940362	1.031397
	H298	H	0.963532	0.944548	1.026107
	H299	H	0.986547	0.928434	1.031210
	O300	O	-0.004068	0.163596	-0.170996
	H301	H	0.001786	0.176496	-0.175105
	H302	H	0.011486	0.143616	-0.159293
	O303	O	0.593984	0.505433	0.519617
	H304	H	0.595004	0.520444	0.517156
	H305	H	0.603552	0.506586	0.513023
	O306	O	1.164624	-0.085341	-0.168085
	H307	H	1.131792	-0.106170	-0.168082
	H308	H	1.173556	-0.076086	-0.160995
	O309	O	0.442493	0.561518	0.618316
	H310	H	0.447493	0.560973	0.616096
	H311	H	0.443888	0.552189	0.618838
	O312	O	0.386783	1.662552	-0.531409
	H313	H	0.363740	1.646739	-0.527966
	H314	H	0.392152	1.677785	-0.536939
	O315	O	0.539164	0.468356	0.605350
	H316	H	0.538870	0.476381	0.618086
	H317	H	0.555528	0.464763	0.603061
	O318	O	0.327814	0.696101	0.428038
	H319	H	0.324068	0.701966	0.446534
	H320	H	0.324068	0.678839	0.427028
	O321	O	0.872461	0.023805	0.940632
	H322	H	0.861086	0.024403	0.944011
	H323	H	0.872195	0.026904	0.954878
	O324	O	-0.041388	-0.089012	0.934161
	H325	H	-0.043334	-0.086563	0.931984
	H326	H	-0.042054	-0.082393	0.944682
	O327	O	0.915973	0.909682	1.158954
	H328	H	0.927241	0.925268	1.155248
	H329	H	0.928971	0.907481	1.161596
	O330	O	1.120947	0.992988	0.050496
	H331	H	1.116426	1.007575	0.053103
	H332	H	1.116637	0.979372	0.039819
	O333	O	1.177275	1.019616	1.176061
	H334	H	1.190150	1.033756	1.184633
	H335	H	1.182840	1.020322	1.173362
	O336	O	0.331593	0.505208	0.530949
	H337	H	0.320409	0.506326	0.524563
	H338	H	0.331674	0.523896	0.539674
	O339	O	1.311713	-0.466997	1.630878
	H340	H	1.296378	-0.474317	1.637263
	H341	H	1.312008	-0.462355	1.622000
	O342	O	-0.215055	0.863153	1.014410
	H343	H	-0.228496	0.850405	1.018734
	H344	H	-0.201024	0.862562	1.019525
	O345	O	-0.156100	1.147092	0.927641
	H346	H	-0.149723	1.151784	0.926366
	H347	H	-0.165622	1.166938	0.910635
	O348	O	1.377213	0.323631	0.683821
	H349	H	1.372339	0.336510	0.678335
	H350	H	1.372101	0.330962	0.688420
	O351	O	-0.155476	-0.078909	0.191219
	H352	H	-0.165381	-0.081311	0.202354
	H353	H	-0.139202	-0.091160	0.182533
	O354	O	0.976872	1.125906	0.108894
	H355	H	0.981034	1.148517	0.131654
	H356	H	0.983121	1.121632	0.096218
	O357	O	-0.149015	0.947131	0.160763
	H358	H	-0.135879	0.947827	0.165201
	H359	H	-0.153921	0.940157	0.185658
	O360	O	1.136673	0.169404	1.158720
	H361	H	1.143180	0.165613	1.149043
	H362	H	1.126766	0.170600	1.157700
	O363	O	0.148990	-0.015122	-0.182776
	H364	H	0.147230	-0.022024	-0.180456
	H365	H	0.162142	-0.033953	-0.190109
	O366	O	-0.109182	1.176025	-0.108332
	H367	H	-0.109698	1.175662	-0.097921
	H368	H	-0.105724	1.186522	-0.118426
	O369	O	0.637897	0.699437	0.554829
	H370	H	0.643709	0.703751	0.553859
	H371	H	0.632928	0.698562	0.557483
	O372	O	0.484852	0.683495	0.598337
	H373	H	0.489140	0.698682	0.602526
	H374	H	0.487330	0.689111	0.596688
	O375	O	0.505529	0.307561	0.663855
	H376	H	0.482143	0.325503	0.655961
	H377	H	0.500254	0.277491	0.682313
	O378	O	0.281011	0.547645	0.306154
	H379	H	0.290494	0.548156	0.314881
	H380	H	0.265260	0.555256	0.296495
	O381	O	0.643498	0.611010	0.474877
	H382	H	0.643649	0.621827	0.478302
	H383	H	0.647144	0.620929	0.483627
	O384	O	-0.018903	0.967482	1.070304
	H385	H	-0.026833	0.971026	1.066888
	H386	H	-0.008414	0.977198	1.071430
	O387	O	1.538619	0.414022	-0.669411
	H388	H	1.529468	0.416302	-0.660796
	H389	H	1.527285	0.402659	-0.679611
	O390	O	0.387558	0.658325	0.383210
	H391	H	0.393452	0.673183	0.382087
	H392	H	0.401949	0.660068	0.392027
	O393	O	1.141300	-0.153176	1.027595
	H394	H	1.140964	-0.151503	1.034537
	H395	H	1.142667	-0.153441	1.029958
	O396	O	0.561326	0.442353	0.409404
	H397	H	0.558236	0.427196	0.399819
	H398	H	0.563292	0.442719	0.424350
	O399	O	0.563565	0.474053	0.376746
	H400	H	0.564432	0.465865	0.362993
	H401	H	0.575285	0.488347	0.369317
	O402	O	1.057508	-0.179173	0.816168
	H403	H	1.039931	-0.179041	0.815074
	H404	H	1.040744	-0.183081	0.825745
	O405	O	0.602750	-0.484965	0.331568
	H406	H	0.605065	-0.469794	0.337484
	H407	H	0.599621	-0.503096	0.323876
	O408	O	0.834304	0.978566	1.033359
	H409	H	0.840608	0.980829	1.036135
	H410	H	0.835829	0.973160	1.037838
	O411	O	0.394143	0.454910	0.386385
	H412	H	0.389713	0.447071	0.398728
	H413	H	0.386484	0.462503	0.378513
	O414	O	0.020827	0.192674	1.031967
	H415	H	0.008842	0.174981	1.037294
	H416	H	0.026555	0.200938	1.037054
	O417	O	0.443168	0.338602	0.521107
	H418	H	0.460589	0.332632	0.532847
	H419	H	0.423902	0.324072	0.518300
	O420	O	0.596690	1.490996	-0.355363
	H421	H	0.593492	1.485903	-0.346879
	H422	H	0.593378	1.485863	-0.358797
	O423	O	0.915888	0.005891	0.194456
	H424	H	0.919485	0.018441	0.178472
	H425	H	0.900900	0.002955	0.202517
	O426	O	-0.168559	-0.009526	0.862941
	H427	H	-0.173456	-0.008559	0.865386
	H428	H	-0.173204	0.003336	0.870775
	O429	O	0.393419	0.542612	0.535577
	H430	H	0.411083	0.543889	0.523667
	H431	H	0.389962	0.541579	0.523095
