data_Molecule from HDF5

_cell_length_a		16.376989
_cell_length_b		16.307216
_cell_length_c		16.314122
_cell_angle_alpha	90.090969
_cell_angle_beta	90.021774
_cell_angle_gamma	90.041245
_symmetry_space_group_name_H-M	'P 1'
_symmetry_Int_Tables_number		1

loop_
	_symmetry_equiv_pos_as_xyz
	x,y,z

loop_
	_atom_site_label
	_atom_site_type_symbol
	_atom_site_fract_x
	_atom_site_fract_y
	_atom_site_fract_z
	H0	H	0.397502	0.836941	0.715731
	H1	H	0.592050	0.163988	0.714964
	H2	H	0.594311	0.837477	0.286175
	H3	H	0.398345	0.164259	0.288466
	H4	H	0.710102	0.402097	0.838484
	H5	H	0.709779	0.599659	0.165014
	H6	H	0.279666	0.599565	0.838266
	H7	H	0.280919	0.402922	0.165503
	H8	H	0.832844	0.714133	0.403868
	H9	H	0.158261	0.714913	0.600861
	H10	H	0.833282	0.285048	0.599025
	H11	H	0.158629	0.283911	0.402001
	H12	H	0.832956	0.401377	0.715703
	H13	H	0.158212	0.598465	0.716891
	H14	H	0.833099	0.597372	0.286525
	H15	H	0.158766	0.401321	0.286132
	H16	H	0.398280	0.713851	0.837236
	H17	H	0.593621	0.716231	0.164357
	H18	H	0.593236	0.286440	0.837977
	H19	H	0.397776	0.286594	0.165268
	H20	H	0.710072	0.837123	0.402141
	H21	H	0.711066	0.163101	0.601335
	H22	H	0.280071	0.837654	0.601464
	H23	H	0.281142	0.163307	0.403396
	H24	H	0.897918	0.335049	0.214059
	H25	H	0.093390	0.663022	0.216439
	H26	H	0.093798	0.336246	0.787300
	H27	H	0.898242	0.664013	0.788013
	H28	H	0.211196	0.900152	0.338954
	H29	H	0.210802	0.099594	0.665042
	H30	H	0.780787	0.097331	0.338290
	H31	H	0.780813	0.901586	0.664811
	H32	H	0.332016	0.213831	0.904935
	H33	H	0.658830	0.215677	0.099181
	H34	H	0.332123	0.786249	0.099831
	H35	H	0.658227	0.786311	0.904172
	H36	H	0.333156	0.902057	0.217244
	H37	H	0.659144	0.099287	0.216376
	H38	H	0.333107	0.098796	0.786183
	H39	H	0.659143	0.902599	0.787806
	H40	H	0.898163	0.212197	0.337301
	H41	H	0.092982	0.214229	0.664484
	H42	H	0.093313	0.785298	0.338667
	H43	H	0.898827	0.786352	0.665491
	H44	H	0.211454	0.337537	0.902181
	H45	H	0.209632	0.663704	0.100521
	H46	H	0.779214	0.336817	0.099484
	H47	H	0.781802	0.664212	0.903542
	H48	H	0.395428	0.118919	0.594654
	H49	H	0.591530	0.885114	0.587419
	H50	H	0.586548	0.116398	0.404513
	H51	H	0.408246	0.888039	0.414438
	H52	H	0.591304	0.409426	0.117534
	H53	H	0.592813	0.589576	0.885092
	H54	H	0.394764	0.600310	0.121550
	H55	H	0.398503	0.404496	0.884264
	H56	H	0.112126	0.591915	0.406324
	H57	H	0.879060	0.600022	0.591909
	H58	H	0.108428	0.413100	0.591295
	H59	H	0.879753	0.406827	0.404450
	H60	H	0.113830	0.406659	0.601649
	H61	H	0.882710	0.586992	0.590879
	H62	H	0.111332	0.595459	0.410191
	H63	H	0.879114	0.401960	0.406402
	H64	H	0.400336	0.582727	0.114348
	H65	H	0.583707	0.593308	0.887187
	H66	H	0.585516	0.410841	0.116149
	H67	H	0.401200	0.412046	0.886589
	H68	H	0.587215	0.113913	0.414259
	H69	H	0.593504	0.880625	0.600307
	H70	H	0.406493	0.117565	0.601042
	H71	H	0.395845	0.882029	0.411273
	H72	H	0.905419	0.615713	0.099899
	H73	H	0.102402	0.381101	0.089320
	H74	H	0.084765	0.614632	0.909833
	H75	H	0.892423	0.382821	0.911980
	H76	H	0.085962	0.908866	0.616637
	H77	H	0.095421	0.091058	0.383670
	H78	H	0.905946	0.081615	0.613097
	H79	H	0.901878	0.903683	0.384501
	H80	H	0.612941	0.099999	0.908787
	H81	H	0.379986	0.092382	0.099702
	H82	H	0.611775	0.904515	0.094024
	H83	H	0.379194	0.905000	0.908861
	H84	H	0.608700	0.909855	0.089952
	H85	H	0.379066	0.098786	0.094382
	H86	H	0.609606	0.091410	0.911707
	H87	H	0.380279	0.908477	0.908782
	H88	H	0.910337	0.101587	0.617925
	H89	H	0.086327	0.085102	0.388361
	H90	H	0.088914	0.903463	0.619183
	H91	H	0.900020	0.907614	0.385572
	H92	H	0.089736	0.615668	0.911702
	H93	H	0.086408	0.380597	0.106913
	H94	H	0.904704	0.613605	0.089810
	H95	H	0.904997	0.382113	0.899520
	H96	H	0.405884	0.113699	0.588710
	H97	H	0.581195	0.885658	0.596723
	H98	H	0.594587	0.118754	0.409477
	H99	H	0.406071	0.882979	0.401843
	H100	H	0.587658	0.405437	0.118194
	H101	H	0.591007	0.599189	0.883313
	H102	H	0.413464	0.598019	0.114873
	H103	H	0.406044	0.405649	0.886427
	H104	H	0.109324	0.590239	0.410516
	H105	H	0.877843	0.592068	0.602464
	H106	H	0.111481	0.400344	0.589932
	H107	H	0.881602	0.406601	0.409094
	H108	H	0.896016	0.617026	0.095126
	H109	H	0.080325	0.389093	0.085799
	H110	H	0.088676	0.616818	0.906527
	H111	H	0.908725	0.388284	0.915891
	H112	H	0.092032	0.908771	0.617714
	H113	H	0.085425	0.096716	0.385664
	H114	H	0.891008	0.094241	0.621021
	H115	H	0.904163	0.906982	0.386459
	H116	H	0.612040	0.092483	0.902873
	H117	H	0.382448	0.091426	0.091822
	H118	H	0.610717	0.910898	0.096685
	H119	H	0.379754	0.907232	0.905928
	C120	C	0.374325	0.008543	0.623083
	C121	C	0.617077	0.991936	0.623277
	C122	C	0.617722	0.008740	0.380100
	C123	C	0.374772	0.992145	0.380707
	C124	C	0.616808	0.379548	0.009544
	C125	C	0.617025	0.622251	0.993344
	C126	C	0.374045	0.622404	0.009341
	C127	C	0.374005	0.379581	0.994019
	C128	C	0.003619	0.620952	0.380392
	C129	C	0.987475	0.621539	0.623541
	C130	C	0.003748	0.378527	0.622413
	C131	C	0.987871	0.377025	0.378998
	C132	C	0.873780	0.507527	0.122969
	C133	C	0.117630	0.491349	0.123371
	C134	C	0.116650	0.507995	0.880621
	C135	C	0.873668	0.492247	0.880046
	C136	C	0.117707	0.878105	0.510330
	C137	C	0.117338	0.120529	0.493453
	C138	C	0.874259	0.120558	0.509465
	C139	C	0.874228	0.878200	0.493633
	C140	C	0.503764	0.122560	0.879976
	C141	C	0.488081	0.122911	0.123834
	C142	C	0.503254	0.879199	0.122738
	C143	C	0.487482	0.878926	0.879828
	C144	C	0.376616	0.885731	0.678268
	C145	C	0.613584	0.115103	0.677709
	C146	C	0.614755	0.886051	0.324236
	C147	C	0.377205	0.115069	0.325693
	C148	C	0.671745	0.381776	0.886735
	C149	C	0.672105	0.620122	0.116228
	C150	C	0.318165	0.619837	0.886822
	C151	C	0.319319	0.382750	0.116878
	C152	C	0.881457	0.676026	0.382997
	C153	C	0.109711	0.676881	0.621106
	C154	C	0.881572	0.323130	0.619795
	C155	C	0.110308	0.321995	0.381899
	C156	C	0.881592	0.380672	0.677945
	C157	C	0.109616	0.619313	0.679132
	C158	C	0.881439	0.617583	0.325329
	C159	C	0.110407	0.380185	0.324224
	C160	C	0.376852	0.676808	0.886257
	C161	C	0.614034	0.677579	0.116244
	C162	C	0.613666	0.324331	0.886613
	C163	C	0.376935	0.324688	0.116695
	C164	C	0.671983	0.885586	0.382242
	C165	C	0.672458	0.114534	0.621076
	C166	C	0.318200	0.886251	0.621591
	C167	C	0.319110	0.114700	0.382672
	C168	C	0.876873	0.384116	0.176955
	C169	C	0.114322	0.614331	0.178616
	C170	C	0.114125	0.385090	0.825374
	C171	C	0.877044	0.615095	0.825337
	C172	C	0.173074	0.879990	0.387619
	C173	C	0.172631	0.119442	0.616324
	C174	C	0.818792	0.118021	0.386920
	C175	C	0.819042	0.880878	0.616187
	C176	C	0.380955	0.176538	0.883507
	C177	C	0.610259	0.177929	0.120472
	C178	C	0.380875	0.823979	0.120391
	C179	C	0.610107	0.824444	0.883445
	C180	C	0.381355	0.881386	0.178886
	C181	C	0.610416	0.120225	0.178690
	C182	C	0.381215	0.119219	0.824991
	C183	C	0.610256	0.881977	0.825378
	C184	C	0.877356	0.174871	0.386383
	C185	C	0.113943	0.176148	0.616207
	C186	C	0.114785	0.822756	0.387461
	C187	C	0.877462	0.823806	0.616640
	C188	C	0.172658	0.385735	0.882246
	C189	C	0.172299	0.614552	0.121418
	C190	C	0.818175	0.384899	0.119786
	C191	C	0.819465	0.615180	0.883061
	C192	C	0.396071	0.094588	0.601221
	C193	C	0.595428	0.905905	0.601332
	C194	C	0.595910	0.094340	0.402870
	C195	C	0.396860	0.906486	0.402583
	C196	C	0.594663	0.401968	0.095340
	C197	C	0.595368	0.600488	0.907496
	C198	C	0.396440	0.600208	0.095041
	C199	C	0.395647	0.401092	0.907934
	C200	C	0.089045	0.598988	0.402530
	C201	C	0.902046	0.599600	0.601510
	C202	C	0.089244	0.400303	0.600636
	C203	C	0.902302	0.398619	0.400476
	C204	C	0.895594	0.593352	0.101340
	C205	C	0.096064	0.405780	0.100752
	C206	C	0.094531	0.593671	0.902870
	C207	C	0.895727	0.406430	0.902476
	C208	C	0.095675	0.900423	0.595734
	C209	C	0.095576	0.097715	0.408119
	C210	C	0.896047	0.098769	0.595378
	C211	C	0.895886	0.899742	0.407694
	C212	C	0.589319	0.101140	0.901537
	C213	C	0.402558	0.100691	0.101754
	C214	C	0.588404	0.901684	0.100059
	C215	C	0.401856	0.900540	0.901363
	Zn216	Zn	0.495713	0.000309	0.751376
	Zn217	Zn	0.495585	0.000766	0.252001
	Zn218	Zn	0.745148	0.500644	0.001257
	Zn219	Zn	0.245551	0.500772	0.001550
	Zn220	Zn	-0.004325	0.750084	0.502020
	Zn221	Zn	-0.004120	0.248965	0.501232
	Zn222	Zn	-0.004277	0.499877	0.751952
	Zn223	Zn	-0.004183	0.498890	0.250858
	Zn224	Zn	0.495176	0.750468	0.001066
	Zn225	Zn	0.495675	0.251571	0.001512
	Zn226	Zn	0.745307	-0.000130	0.501715
	Zn227	Zn	0.246356	0.000132	0.502006
	N228	N	0.410912	0.962759	0.679223
	N229	N	0.579933	0.037854	0.679115
	N230	N	0.581522	0.963539	0.322950
	N231	N	0.411176	0.037858	0.324341
	N232	N	0.673757	0.415333	0.964185
	N233	N	0.673983	0.586399	0.038798
	N234	N	0.316291	0.586814	0.964444
	N235	N	0.317264	0.415889	0.039355
	N236	N	0.958367	0.678040	0.416604
	N237	N	0.032621	0.678612	0.587567
	N238	N	0.958216	0.321946	0.585640
	N239	N	0.032997	0.320114	0.415241
	N240	N	0.958610	0.414335	0.679716
	N241	N	0.032711	0.585503	0.680630
	N242	N	0.958582	0.584317	0.323402
	N243	N	0.033403	0.413341	0.322087
	N244	N	0.410998	0.678174	0.963328
	N245	N	0.580563	0.679035	0.038919
	N246	N	0.580346	0.323124	0.964062
	N247	N	0.410192	0.322813	0.039371
	N248	N	0.673878	0.962782	0.416211
	N249	N	0.674506	0.036862	0.587792
	N250	N	0.316960	0.963552	0.587946
	N251	N	0.317572	0.037363	0.416296
	N252	N	0.910623	0.461451	0.179070
	N253	N	0.080900	0.536898	0.179848
	N254	N	0.080078	0.462326	0.824149
	N255	N	0.910021	0.537496	0.823344
	N256	N	0.174903	0.913743	0.464917
	N257	N	0.174796	0.085472	0.539125
	N258	N	0.817070	0.084847	0.464232
	N259	N	0.816846	0.913944	0.538679
	N260	N	0.458113	0.178833	0.916741
	N261	N	0.533184	0.179465	0.087064
	N262	N	0.457626	0.822524	0.086176
	N263	N	0.532855	0.822525	0.916566
	N264	N	0.458323	0.915216	0.180224
	N265	N	0.533288	0.086611	0.180783
	N266	N	0.458595	0.086283	0.822625
	N267	N	0.533013	0.915175	0.823070
	N268	N	0.910829	0.176870	0.463873
	N269	N	0.080543	0.177160	0.538916
	N270	N	0.080897	0.821458	0.464523
	N271	N	0.911105	0.822116	0.539431
	N272	N	0.174219	0.463020	0.916013
	N273	N	0.174446	0.537316	0.087636
	N274	N	0.816024	0.462643	0.087199
	N275	N	0.817470	0.537730	0.916500
	O276	O	1.207691	-0.164724	0.849086
	H277	H	1.209058	-0.166315	0.848816
	H278	H	1.219959	-0.159349	0.855489
	O279	O	0.474824	0.537101	0.479169
	H280	H	0.472500	0.540824	0.475982
	H281	H	0.475527	0.536691	0.482139
	O282	O	0.989233	1.024365	0.101193
	H283	H	0.990290	1.024954	0.109380
	H284	H	0.991934	1.025587	0.104795
	O285	O	0.498254	0.527963	0.472324
	H286	H	0.497151	0.536273	0.472074
	H287	H	0.503400	0.529254	0.471649
