data_Molecule from HDF5

_cell_length_a		16.684102
_cell_length_b		16.672207
_cell_length_c		16.637355
_cell_angle_alpha	89.843812
_cell_angle_beta	89.927756
_cell_angle_gamma	90.053176
_symmetry_space_group_name_H-M	'P 1'
_symmetry_Int_Tables_number		1

loop_
	_symmetry_equiv_pos_as_xyz
	x,y,z

loop_
	_atom_site_label
	_atom_site_type_symbol
	_atom_site_fract_x
	_atom_site_fract_y
	_atom_site_fract_z
	H0	H	0.394266	0.846774	0.720308
	H1	H	0.603401	0.157308	0.715881
	H2	H	0.604336	0.844588	0.278281
	H3	H	0.393565	0.154393	0.275074
	H4	H	0.718098	0.398527	0.841750
	H5	H	0.717886	0.604261	0.153798
	H6	H	0.280113	0.604297	0.841608
	H7	H	0.280043	0.397944	0.154544
	H8	H	0.846774	0.724284	0.390008
	H9	H	0.154037	0.720592	0.601156
	H10	H	0.844123	0.279131	0.601928
	H11	H	0.152535	0.276903	0.389645
	H12	H	0.844792	0.392748	0.719707
	H13	H	0.154767	0.602742	0.716487
	H14	H	0.845993	0.607131	0.275453
	H15	H	0.152220	0.392832	0.273776
	H16	H	0.394016	0.722052	0.843188
	H17	H	0.601154	0.718823	0.154428
	H18	H	0.600789	0.283862	0.841414
	H19	H	0.398663	0.284404	0.155955
	H20	H	0.719108	0.844197	0.395104
	H21	H	0.721036	0.155381	0.602344
	H22	H	0.276993	0.846979	0.605457
	H23	H	0.276944	0.153962	0.390282
	H24	H	0.893897	0.346029	0.219598
	H25	H	0.103551	0.655891	0.218408
	H26	H	0.102168	0.343341	0.779531
	H27	H	0.895474	0.654875	0.776991
	H28	H	0.223237	0.893763	0.344433
	H29	H	0.221253	0.106796	0.651372
	H30	H	0.779462	0.104664	0.342440
	H31	H	0.778367	0.894620	0.653050
	H32	H	0.341530	0.217171	0.897415
	H33	H	0.655134	0.221943	0.102316
	H34	H	0.344148	0.779604	0.103541
	H35	H	0.651796	0.776751	0.889306
	H36	H	0.344449	0.896175	0.219050
	H37	H	0.655014	0.106074	0.219251
	H38	H	0.343161	0.103724	0.779247
	H39	H	0.652938	0.895617	0.775885
	H40	H	0.894676	0.220721	0.342238
	H41	H	0.105539	0.222207	0.651361
	H42	H	0.106467	0.778671	0.343848
	H43	H	0.893406	0.776879	0.652170
	H44	H	0.218583	0.343976	0.894761
	H45	H	0.220310	0.655708	0.102240
	H46	H	0.777860	0.346061	0.103758
	H47	H	0.780737	0.655753	0.893706
	H48	H	0.410500	0.111803	0.587016
	H49	H	0.596794	0.889069	0.584827
	H50	H	0.597662	0.114556	0.407179
	H51	H	0.415034	0.895070	0.421240
	H52	H	0.592197	0.405174	0.114061
	H53	H	0.588126	0.586134	0.888095
	H54	H	0.413174	0.590954	0.108941
	H55	H	0.406367	0.412060	0.885432
	H56	H	0.110855	0.597883	0.417500
	H57	H	0.885104	0.590185	0.592199
	H58	H	0.108227	0.412584	0.584109
	H59	H	0.887572	0.407231	0.409161
	H60	H	0.111373	0.412471	0.590607
	H61	H	0.887958	0.592970	0.582531
	H62	H	0.104633	0.578733	0.413162
	H63	H	0.889841	0.413187	0.413491
	H64	H	0.406509	0.592493	0.111105
	H65	H	0.585217	0.593460	0.886071
	H66	H	0.591971	0.417050	0.109737
	H67	H	0.410837	0.409011	0.885939
	H68	H	0.584183	0.112001	0.401743
	H69	H	0.586442	0.886677	0.596072
	H70	H	0.408681	0.112836	0.585718
	H71	H	0.400577	0.884962	0.408690
	H72	H	0.913624	0.610881	0.086876
	H73	H	0.093761	0.388196	0.085215
	H74	H	0.090542	0.611180	0.909319
	H75	H	0.900477	0.387222	0.913625
	H76	H	0.092297	0.915780	0.609547
	H77	H	0.094996	0.091561	0.382949
	H78	H	0.911031	0.093317	0.610385
	H79	H	0.912563	0.910205	0.386349
	H80	H	0.610599	0.092083	0.907134
	H81	H	0.386407	0.093375	0.093285
	H82	H	0.611180	0.908462	0.086351
	H83	H	0.388631	0.910256	0.909771
	H84	H	0.610082	0.911903	0.085359
	H85	H	0.388552	0.094340	0.084542
	H86	H	0.610788	0.091481	0.908283
	H87	H	0.388650	0.913128	0.911372
	H88	H	0.906386	0.088857	0.610324
	H89	H	0.087444	0.079534	0.389202
	H90	H	0.082158	0.914827	0.605849
	H91	H	0.907445	0.910026	0.385262
	H92	H	0.093087	0.612216	0.905113
	H93	H	0.085541	0.387923	0.092410
	H94	H	0.906244	0.611984	0.083936
	H95	H	0.910664	0.385598	0.900418
	H96	H	0.408793	0.112566	0.588463
	H97	H	0.582005	0.893123	0.582983
	H98	H	0.587251	0.108068	0.415479
	H99	H	0.420373	0.888740	0.401235
	H100	H	0.582114	0.409641	0.107891
	H101	H	0.593061	0.592043	0.884662
	H102	H	0.408291	0.585607	0.109301
	H103	H	0.406406	0.406420	0.883710
	H104	H	0.114116	0.590263	0.398781
	H105	H	0.890173	0.584120	0.585871
	H106	H	0.112013	0.406576	0.586265
	H107	H	0.888518	0.413877	0.405558
	H108	H	0.907878	0.614064	0.091469
	H109	H	0.084346	0.393341	0.082857
	H110	H	0.088091	0.611753	0.904395
	H111	H	0.916338	0.392193	0.914349
	H112	H	0.086921	0.906744	0.610660
	H113	H	0.080199	0.093176	0.387511
	H114	H	0.912343	0.087433	0.608038
	H115	H	0.909550	0.914498	0.387189
	H116	H	0.610152	0.091751	0.906937
	H117	H	0.390177	0.086604	0.088690
	H118	H	0.610356	0.911195	0.089446
	H119	H	0.388762	0.912837	0.907897
	C120	C	0.377745	0.009771	0.619612
	C121	C	0.620557	0.992315	0.619210
	C122	C	0.621411	0.008779	0.376458
	C123	C	0.379023	0.991646	0.376980
	C124	C	0.620088	0.379965	0.006869
	C125	C	0.620221	0.622351	0.989457
	C126	C	0.377928	0.621519	0.006604
	C127	C	0.377448	0.378980	0.989391
	C128	C	0.008084	0.621765	0.376537
	C129	C	0.990577	0.620849	0.618694
	C130	C	0.008094	0.378311	0.618974
	C131	C	0.990719	0.378977	0.376410
	C132	C	0.877075	0.509895	0.119939
	C133	C	0.119844	0.492582	0.118671
	C134	C	0.120973	0.508176	0.876348
	C135	C	0.878633	0.491606	0.877526
	C136	C	0.120579	0.879480	0.506538
	C137	C	0.120574	0.121466	0.488597
	C138	C	0.878578	0.121214	0.506385
	C139	C	0.878251	0.879094	0.489392
	C140	C	0.507437	0.122378	0.876871
	C141	C	0.491445	0.122706	0.120292
	C142	C	0.507582	0.879409	0.118803
	C143	C	0.490527	0.879351	0.876537
	C144	C	0.375572	0.893336	0.680246
	C145	C	0.622080	0.109917	0.677104
	C146	C	0.622753	0.891494	0.317689
	C147	C	0.375661	0.107857	0.315399
	C148	C	0.678480	0.379654	0.888890
	C149	C	0.678177	0.622777	0.107044
	C150	C	0.319326	0.622968	0.888857
	C151	C	0.319818	0.378931	0.107732
	C152	C	0.892578	0.683207	0.372515
	C153	C	0.107721	0.680180	0.619769
	C154	C	0.890992	0.318806	0.620601
	C155	C	0.106210	0.317560	0.372259
	C156	C	0.891241	0.375543	0.678997
	C157	C	0.108007	0.621543	0.676896
	C158	C	0.892083	0.624934	0.315836
	C159	C	0.106058	0.375345	0.314659
	C160	C	0.376032	0.681410	0.889417
	C161	C	0.620420	0.680037	0.107172
	C162	C	0.620547	0.322343	0.888626
	C163	C	0.378566	0.322544	0.108308
	C164	C	0.680045	0.891383	0.375642
	C165	C	0.680561	0.108985	0.620421
	C166	C	0.317499	0.893369	0.623064
	C167	C	0.317821	0.107617	0.372937
	C168	C	0.875529	0.392746	0.179649
	C169	C	0.121974	0.609251	0.178313
	C170	C	0.121182	0.390419	0.818644
	C171	C	0.877318	0.608215	0.817267
	C172	C	0.182159	0.876019	0.390609
	C173	C	0.181278	0.124864	0.604802
	C174	C	0.819053	0.122968	0.389230
	C175	C	0.818452	0.876286	0.606505
	C176	C	0.389165	0.178884	0.877780
	C177	C	0.608375	0.182085	0.121169
	C178	C	0.390779	0.819943	0.121416
	C179	C	0.605844	0.817817	0.872189
	C180	C	0.390780	0.877822	0.178666
	C181	C	0.608432	0.124412	0.179193
	C182	C	0.389506	0.122154	0.819327
	C183	C	0.606406	0.876872	0.815711
	C184	C	0.876504	0.180635	0.389130
	C185	C	0.123785	0.182315	0.604715
	C186	C	0.124149	0.818794	0.390458
	C187	C	0.875479	0.818022	0.606000
	C188	C	0.179253	0.390832	0.875836
	C189	C	0.179854	0.609249	0.120644
	C190	C	0.817510	0.392867	0.122462
	C191	C	0.820056	0.608675	0.875339
	C192	C	0.402540	0.091357	0.594261
	C193	C	0.595531	0.910892	0.594846
	C194	C	0.596637	0.090441	0.401037
	C195	C	0.404816	0.910714	0.403073
	C196	C	0.595752	0.403771	0.088981
	C197	C	0.595894	0.597738	0.907693
	C198	C	0.402375	0.596852	0.088371
	C199	C	0.400828	0.402491	0.906789
	C200	C	0.088845	0.596158	0.402383
	C201	C	0.908912	0.596243	0.594041
	C202	C	0.089350	0.403275	0.594203
	C203	C	0.909671	0.404313	0.402144
	C204	C	0.901997	0.590974	0.094656
	C205	C	0.094935	0.410972	0.093824
	C206	C	0.097267	0.590299	0.899664
	C207	C	0.902484	0.409628	0.902514
	C208	C	0.094494	0.905158	0.587658
	C209	C	0.094927	0.095431	0.407540
	C210	C	0.902979	0.096834	0.588361
	C211	C	0.902821	0.904400	0.407639
	C212	C	0.589109	0.098457	0.900427
	C213	C	0.409598	0.098214	0.095716
	C214	C	0.589278	0.903841	0.094025
	C215	C	0.409628	0.904772	0.902632
	Zn216	Zn	0.499208	0.001314	0.747859
	Zn217	Zn	0.500366	0.000195	0.248001
	Zn218	Zn	0.748791	0.500985	-0.001506
	Zn219	Zn	0.249368	0.500511	-0.001852
	Zn220	Zn	-0.000745	0.750615	0.497497
	Zn221	Zn	-0.000871	0.249791	0.497530
	Zn222	Zn	-0.000797	0.499381	0.747916
	Zn223	Zn	-0.001202	0.501029	0.248044
	Zn224	Zn	0.498760	0.750393	-0.002161
	Zn225	Zn	0.499259	0.251127	-0.001861
	Zn226	Zn	0.749531	-0.000174	0.498128
	Zn227	Zn	0.249468	0.000291	0.498018
	N228	N	0.412081	0.966913	0.678510
	N229	N	0.585702	0.036134	0.677080
	N230	N	0.587040	0.965697	0.317894
	N231	N	0.413010	0.034572	0.317626
	N232	N	0.678832	0.414378	0.963640
	N233	N	0.678506	0.587724	0.032581
	N234	N	0.320179	0.586361	0.962795
	N235	N	0.318535	0.412994	0.032572
	N236	N	0.965709	0.681507	0.409813
	N237	N	0.033460	0.680250	0.584580
	N238	N	0.964869	0.320041	0.584055
	N239	N	0.033301	0.319596	0.410067
	N240	N	0.964994	0.411864	0.678278
	N241	N	0.033990	0.585571	0.676577
	N242	N	0.964970	0.587393	0.318191
	N243	N	0.033119	0.412877	0.317056
	N244	N	0.411733	0.680830	0.963601
	N245	N	0.585238	0.680185	0.032781
	N246	N	0.585116	0.322032	0.963219
	N247	N	0.413318	0.322072	0.033479
	N248	N	0.679517	0.965378	0.411500
	N249	N	0.680055	0.034749	0.585207
	N250	N	0.318550	0.966877	0.586026
	N251	N	0.319751	0.034373	0.410724
	N252	N	0.911689	0.466689	0.178627
	N253	N	0.085430	0.535551	0.177206
	N254	N	0.085791	0.464578	0.818574
	N255	N	0.912961	0.534122	0.818190
	N256	N	0.180091	0.913170	0.464009
	N257	N	0.179595	0.087627	0.531368
	N258	N	0.819746	0.086928	0.463518
	N259	N	0.819984	0.913516	0.532910
	N260	N	0.463442	0.179292	0.913057
	N261	N	0.534429	0.181292	0.085399
	N262	N	0.464604	0.820436	0.085082
	N263	N	0.532637	0.819221	0.909404
	N264	N	0.464492	0.914296	0.177273
	N265	N	0.534527	0.088251	0.178803
	N266	N	0.464252	0.087888	0.818286
	N267	N	0.533608	0.914551	0.818305
	N268	N	0.912655	0.179965	0.463154
	N269	N	0.086605	0.180396	0.531405
	N270	N	0.086346	0.820914	0.463652
	N271	N	0.911736	0.819411	0.531897
	N272	N	0.179604	0.465275	0.910934
	N273	N	0.178815	0.535446	0.084368
	N274	N	0.818203	0.466616	0.086101
	N275	N	0.820534	0.534941	0.912082
	O276	O	-0.076586	1.013093	0.174770
	H277	H	-0.082136	1.009405	0.165277
	H278	H	-0.101182	1.001020	0.171171
	O279	O	0.330219	0.334609	0.320478
	H280	H	0.319032	0.336112	0.320438
	H281	H	0.314636	0.334257	0.319162
	O282	O	1.258517	0.262122	0.729531
	H283	H	1.227543	0.230135	0.754382
	H284	H	1.250273	0.260671	0.701866
	O285	O	0.461572	0.363364	0.455772
	H286	H	0.441152	0.367352	0.443714
	H287	H	0.460084	0.352516	0.443851
	O288	O	0.324293	0.729656	0.499757
	H289	H	0.327684	0.736683	0.482648
	H290	H	0.321821	0.733424	0.481759
	O291	O	0.279658	0.280449	0.523532
	H292	H	0.257550	0.254038	0.522519
	H293	H	0.277775	0.308423	0.521686
	O294	O	0.945566	0.197469	0.979940
	H295	H	0.936482	0.189328	0.973604
	H296	H	0.925870	0.218503	0.989335
	O297	O	0.536257	0.606984	0.283706
	H298	H	0.547518	0.597908	0.284884
	H299	H	0.533803	0.611627	0.274757
	O300	O	-0.031849	0.222242	0.773931
	H301	H	-0.055098	0.232821	0.775945
	H302	H	-0.046767	0.241546	0.758986
	O303	O	0.687842	0.695800	0.473182
	H304	H	0.713644	0.712417	0.467569
	H305	H	0.685885	0.688778	0.506454
	O306	O	0.577570	0.275307	0.538887
	H307	H	0.553378	0.278709	0.545015
	H308	H	0.562278	0.270539	0.533154
	O309	O	0.309586	0.688135	0.686124
	H310	H	0.324034	0.682642	0.665217
	H311	H	0.332221	0.669903	0.676477
	O312	O	0.502272	0.523303	0.568349
	H313	H	0.511555	0.537195	0.561677
	H314	H	0.503900	0.511231	0.566446
	O315	O	0.864835	1.023619	1.013817
	H316	H	0.863155	1.008215	1.025714
	H317	H	0.860128	1.029993	1.012344
	O318	O	0.501539	0.499866	0.663311
	H319	H	0.504634	0.495228	0.659472
	H320	H	0.484211	0.474629	0.678652
	O321	O	0.206746	0.791726	0.789785
	H322	H	0.205508	0.792020	0.808905
	H323	H	0.230545	0.783170	0.765064
	O324	O	1.042562	1.006565	-0.003295
	H325	H	1.046291	1.017986	-0.000573
	H326	H	1.030351	1.007640	-0.013551
	O327	O	-0.003266	0.166108	0.941202
	H328	H	-0.017528	0.173838	0.946761
	H329	H	-0.010442	0.180012	0.945141
	O330	O	0.693597	0.362762	0.647926
	H331	H	0.676026	0.372146	0.639046
	H332	H	0.679832	0.380185	0.637270
	O333	O	0.481495	0.306096	0.712236
	H334	H	0.453884	0.291523	0.720557
	H335	H	0.462188	0.297019	0.712220
	O336	O	0.710956	0.292329	0.289829
	H337	H	0.714813	0.333304	0.296533
	H338	H	0.687305	0.288715	0.317352
	O339	O	1.013935	-0.016395	0.843818
	H340	H	1.011039	-0.023482	0.849092
	H341	H	1.008840	-0.012866	0.830385
	O342	O	-0.008549	-0.127954	0.095498
	H343	H	-0.007677	-0.133946	0.086148
	H344	H	-0.016265	-0.133716	0.082630
	O345	O	-0.043130	0.948672	0.807396
	H346	H	-0.031051	0.959367	0.800407
	H347	H	-0.028157	0.946517	0.815397
	O348	O	0.210058	0.089317	0.214166
	H349	H	0.192250	0.097353	0.202534
	H350	H	0.229015	0.074840	0.224009
	O351	O	0.713827	0.705306	0.287838
	H352	H	0.700919	0.694746	0.294236
	H353	H	0.722998	0.697724	0.295574
	O354	O	0.203039	-0.111685	1.115127
	H355	H	0.172608	-0.102030	1.098728
	H356	H	0.208383	-0.113491	1.097987
	O357	O	0.689251	0.452705	0.533583
	H358	H	0.685511	0.445003	0.529245
	H359	H	0.691306	0.451270	0.556375
	O360	O	0.274418	0.462922	0.721889
	H361	H	0.250831	0.464505	0.739770
	H362	H	0.280526	0.440684	0.723977
	O363	O	0.158430	0.122185	-0.065916
	H364	H	0.130144	0.129093	-0.066017
	H365	H	0.177212	0.130153	-0.052608
	O366	O	0.725166	0.519359	0.697988
	H367	H	0.727736	0.544075	0.703592
	H368	H	0.741521	0.535159	0.714369
	O369	O	0.820436	0.184785	0.175678
	H370	H	0.801745	0.189834	0.196850
	H371	H	0.812736	0.172307	0.168693
	O372	O	0.771185	0.777125	0.028228
	H373	H	0.754379	0.765420	0.039734
	H374	H	0.760454	0.775609	0.035542
	O375	O	0.774861	-0.029366	0.220675
	H376	H	0.766676	-0.058466	0.229779
	H377	H	0.760613	-0.051537	0.233829
	O378	O	0.380972	0.497549	0.309879
	H379	H	0.379661	0.497252	0.294992
	H380	H	0.401009	0.497000	0.310600
	O381	O	0.034113	0.775906	0.770895
	H382	H	0.044334	0.761796	0.760816
	H383	H	0.054933	0.764374	0.764957
	O384	O	0.776991	0.035444	0.780936
	H385	H	0.775260	0.038812	0.772785
	H386	H	0.777279	0.034196	0.762362
	O387	O	0.982271	0.780351	-0.067729
	H388	H	0.986195	0.777081	-0.074841
	H389	H	0.980240	0.785703	-0.059157
	O390	O	0.278529	0.234783	0.235017
	H391	H	0.241448	0.228861	0.235996
	H392	H	0.284387	0.213062	0.225257
	O393	O	0.498827	0.447107	0.446720
	H394	H	0.499501	0.451169	0.453678
	H395	H	0.486414	0.456794	0.441967
	O396	O	0.213923	0.971327	0.781523
	H397	H	0.241157	0.969954	0.771216
	H398	H	0.206726	0.960025	0.788685
	O399	O	0.157983	0.155738	0.793379
	H400	H	0.148596	0.133705	0.809105
	H401	H	0.127225	0.149287	0.805834
	O402	O	0.486420	0.624371	0.550290
	H403	H	0.467934	0.634191	0.545826
	H404	H	0.484396	0.618716	0.555886
	O405	O	0.968313	0.052810	0.911392
	H406	H	0.971135	0.046358	0.920653
	H407	H	0.970366	0.058522	0.908155
	O408	O	0.224990	0.226465	0.040526
	H409	H	0.236327	0.256254	0.036092
	H410	H	0.225374	0.231651	0.068995
	O411	O	0.712056	0.706656	0.675410
	H412	H	0.698253	0.722044	0.688290
	H413	H	0.721874	0.727082	0.681334
	O414	O	0.483456	0.615286	0.416771
	H415	H	0.475934	0.613697	0.418041
	H416	H	0.493837	0.622786	0.409966
	O417	O	0.542713	0.302823	0.286989
	H418	H	0.554943	0.307818	0.290944
	H419	H	0.546184	0.283243	0.272888
	O420	O	0.269243	0.476053	0.486166
	H421	H	0.274793	0.480890	0.476114
	H422	H	0.263014	0.500658	0.468799
	O423	O	0.034847	-0.075499	1.044642
	H424	H	0.043636	-0.078657	1.044667
	H425	H	0.026006	-0.075424	1.035860
	O426	O	0.534784	0.711094	0.448211
	H427	H	0.530675	0.713515	0.450598
	H428	H	0.553456	0.716488	0.443635
	O429	O	0.809946	0.811053	0.808818
	H430	H	0.832686	0.835119	0.811668
	H431	H	0.820968	0.822347	0.836241
	O432	O	0.591082	0.633442	0.535172
	H433	H	0.594418	0.622256	0.515399
	H434	H	0.590970	0.636542	0.530341
	O435	O	0.314988	0.694122	0.280354
	H436	H	0.328115	0.706422	0.275327
	H437	H	0.310427	0.701825	0.282570
	O438	O	0.050394	-0.027099	0.205389
	H439	H	0.046624	-0.021273	0.201345
	H440	H	0.058430	-0.008883	0.211251
	O441	O	0.034344	0.212968	0.210651
	H442	H	0.020174	0.207802	0.213194
	H443	H	0.012983	0.216748	0.224036
	O444	O	0.434453	0.291716	0.549736
	H445	H	0.414496	0.276834	0.549955
	H446	H	0.419980	0.302464	0.544613
	O447	O	0.224641	0.975830	0.981719
	H448	H	0.216399	0.988130	0.984491
	H449	H	0.225689	0.995865	0.996495
	O450	O	0.218829	0.779999	0.962617
	H451	H	0.237545	0.778389	0.966904
	H452	H	0.220005	0.774277	0.950158
	O453	O	0.334942	0.464520	0.495368
	H454	H	0.333877	0.468011	0.476295
	H455	H	0.342652	0.458387	0.490959
	O456	O	0.009761	0.143920	1.047975
	H457	H	-0.001346	0.145658	1.054297
	H458	H	-0.002637	0.140186	1.044970
	O459	O	0.861724	0.792183	0.206629
	H460	H	0.854378	0.764797	0.227994
	H461	H	0.898752	0.793306	0.208254
	O462	O	0.722419	0.472439	0.277327
	H463	H	0.740032	0.477785	0.281542
	H464	H	0.723473	0.474029	0.268240
	O465	O	0.827597	0.050219	0.045985
	H466	H	0.819154	0.034854	0.051808
	H467	H	0.821261	0.050663	0.043491
	O468	O	0.276513	0.584357	0.332418
	H469	H	0.286446	0.585814	0.336398
	H470	H	0.268247	0.591095	0.319533
	O471	O	0.484127	0.411129	0.679254
	H472	H	0.492767	0.422847	0.681590
	H473	H	0.468284	0.393860	0.692347
	O474	O	0.410478	0.667710	0.390933
	H475	H	0.415559	0.658185	0.406006
	H476	H	0.416385	0.653451	0.391505
	O477	O	0.683046	0.549193	1.401630
	H478	H	0.680320	0.554042	1.417132
	H479	H	0.687210	0.529149	1.406668
	O480	O	0.408401	0.548167	0.612045
	H481	H	0.407076	0.534029	0.619807
	H482	H	0.407276	0.539099	0.618042
	O483	O	0.575849	0.708191	0.714151
	H484	H	0.581064	0.716262	0.734080
	H485	H	0.564736	0.692122	0.727976
	O486	O	0.789328	0.209916	0.787308
	H487	H	0.764865	0.234687	0.770422
	H488	H	0.788462	0.180980	0.798911
	O489	O	0.937954	0.827688	0.208705
	H490	H	0.962274	0.818153	0.214983
	H491	H	0.952936	0.838814	0.198217
	O492	O	0.236642	-0.149853	0.234950
	H493	H	0.237969	-0.150558	0.244379
	H494	H	0.218460	-0.138710	0.215292
	O495	O	-0.179680	0.882979	0.946285
	H496	H	-0.188687	0.882556	0.951149
	H497	H	-0.169279	0.894720	0.947639
	O498	O	0.770732	1.117488	0.948856
	H499	H	0.763619	1.125722	0.927293
	H500	H	0.771916	1.124034	0.948432
	O501	O	0.720998	0.286424	0.459960
	H502	H	0.714210	0.272439	0.464790
	H503	H	0.724035	0.268441	0.473680
