data_Molecule from HDF5

_cell_length_a		16.337147
_cell_length_b		16.242306
_cell_length_c		16.306359
_cell_angle_alpha	89.761273
_cell_angle_beta	89.938669
_cell_angle_gamma	89.981499
_symmetry_space_group_name_H-M	'P 1'
_symmetry_Int_Tables_number		1

loop_
	_symmetry_equiv_pos_as_xyz
	x,y,z

loop_
	_atom_site_label
	_atom_site_type_symbol
	_atom_site_fract_x
	_atom_site_fract_y
	_atom_site_fract_z
	H0	H	0.410335	0.835491	0.710965
	H1	H	0.607139	0.163926	0.710606
	H2	H	0.607568	0.835704	0.282304
	H3	H	0.408446	0.163138	0.280791
	H4	H	0.724551	0.401362	0.833376
	H5	H	0.724479	0.599181	0.160264
	H6	H	0.293170	0.600701	0.833259
	H7	H	0.294312	0.400219	0.160225
	H8	H	0.845672	0.716268	0.396786
	H9	H	0.171873	0.714257	0.594958
	H10	H	0.845276	0.285031	0.595966
	H11	H	0.172167	0.286483	0.399496
	H12	H	0.845454	0.401106	0.712592
	H13	H	0.171692	0.597658	0.711366
	H14	H	0.845510	0.600419	0.280573
	H15	H	0.171427	0.401146	0.282208
	H16	H	0.412388	0.713836	0.831921
	H17	H	0.605537	0.713620	0.160851
	H18	H	0.606810	0.286327	0.832114
	H19	H	0.411099	0.285044	0.159362
	H20	H	0.723455	0.836515	0.398170
	H21	H	0.723168	0.163655	0.595153
	H22	H	0.292642	0.836814	0.598101
	H23	H	0.294197	0.164215	0.397516
	H24	H	0.908701	0.336949	0.213916
	H25	H	0.106030	0.664033	0.209696
	H26	H	0.106013	0.334973	0.784512
	H27	H	0.908683	0.663374	0.780628
	H28	H	0.225512	0.900374	0.334104
	H29	H	0.223559	0.098828	0.660106
	H30	H	0.793766	0.100412	0.333359
	H31	H	0.792041	0.899687	0.659420
	H32	H	0.345451	0.214683	0.896889
	H33	H	0.671713	0.213070	0.093344
	H34	H	0.344951	0.785650	0.094919
	H35	H	0.671934	0.786514	0.898458
	H36	H	0.344925	0.900182	0.212156
	H37	H	0.671231	0.098127	0.210786
	H38	H	0.345407	0.098998	0.781031
	H39	H	0.671056	0.900310	0.780804
	H40	H	0.910986	0.214587	0.332972
	H41	H	0.104858	0.211786	0.661158
	H42	H	0.108480	0.785477	0.333316
	H43	H	0.910576	0.786580	0.660351
	H44	H	0.223007	0.335558	0.898755
	H45	H	0.222782	0.663481	0.094728
	H46	H	0.793711	0.336129	0.097744
	H47	H	0.793641	0.663830	0.897377
	H48	H	0.411949	0.119538	0.593745
	H49	H	0.600312	0.882597	0.592664
	H50	H	0.600173	0.115156	0.406046
	H51	H	0.415775	0.883302	0.403616
	H52	H	0.596015	0.416370	0.107165
	H53	H	0.602370	0.604077	0.878032
	H54	H	0.412227	0.583506	0.109907
	H55	H	0.422707	0.406593	0.880845
	H56	H	0.124269	0.594044	0.402319
	H57	H	0.893287	0.588786	0.590086
	H58	H	0.125125	0.400817	0.588473
	H59	H	0.892424	0.405820	0.403997
	H60	H	0.123504	0.410448	0.589753
	H61	H	0.890916	0.594590	0.593466
	H62	H	0.123605	0.593434	0.404225
	H63	H	0.893291	0.407896	0.407234
	H64	H	0.423688	0.594528	0.110991
	H65	H	0.611710	0.586185	0.880534
	H66	H	0.595194	0.395286	0.113558
	H67	H	0.409230	0.400169	0.876258
	H68	H	0.604445	0.117526	0.401810
	H69	H	0.598039	0.884842	0.587621
	H70	H	0.421466	0.115203	0.590581
	H71	H	0.417412	0.884143	0.405041
	H72	H	0.916329	0.617683	0.094338
	H73	H	0.103921	0.382264	0.088998
	H74	H	0.096610	0.616617	0.898252
	H75	H	0.914242	0.381528	0.900497
	H76	H	0.097762	0.911513	0.610101
	H77	H	0.097015	0.090247	0.382363
	H78	H	0.920065	0.089601	0.610757
	H79	H	0.926906	0.913093	0.385149
	H80	H	0.621868	0.087772	0.902905
	H81	H	0.394233	0.090567	0.084795
	H82	H	0.624432	0.903358	0.087889
	H83	H	0.390801	0.903610	0.899715
	H84	H	0.622237	0.910430	0.087976
	H85	H	0.391226	0.089464	0.094061
	H86	H	0.625751	0.095534	0.900188
	H87	H	0.393653	0.905825	0.908844
	H88	H	0.914106	0.097002	0.614334
	H89	H	0.102276	0.100204	0.378543
	H90	H	0.099562	0.903189	0.613350
	H91	H	0.914628	0.897993	0.377692
	H92	H	0.098752	0.613303	0.910442
	H93	H	0.102458	0.381711	0.093362
	H94	H	0.920053	0.613973	0.085296
	H95	H	0.921333	0.386116	0.905469
	H96	H	0.412692	0.115778	0.583827
	H97	H	0.604021	0.883179	0.587809
	H98	H	0.598834	0.116951	0.399861
	H99	H	0.415396	0.883149	0.406225
	H100	H	0.613648	0.406374	0.116181
	H101	H	0.592140	0.588171	0.886230
	H102	H	0.408936	0.597902	0.116051
	H103	H	0.410165	0.415475	0.880843
	H104	H	0.124104	0.591781	0.402988
	H105	H	0.893490	0.594914	0.585839
	H106	H	0.126288	0.404706	0.596849
	H107	H	0.892792	0.409797	0.403000
	H108	H	0.910471	0.617022	0.085691
	H109	H	0.099139	0.383950	0.089778
	H110	H	0.107616	0.618564	0.903069
	H111	H	0.912968	0.383336	0.910094
	H112	H	0.105824	0.909101	0.612963
	H113	H	0.108333	0.090348	0.380219
	H114	H	0.910394	0.087450	0.613033
	H115	H	0.907151	0.916690	0.380449
	H116	H	0.622841	0.094125	0.908430
	H117	H	0.390934	0.097980	0.089868
	H118	H	0.625183	0.907420	0.094146
	H119	H	0.393633	0.913463	0.901717
	C120	C	0.386847	0.008554	0.618530
	C121	C	0.629399	0.991671	0.617746
	C122	C	0.629787	0.008413	0.374467
	C123	C	0.387327	0.991687	0.375905
	C124	C	0.630226	0.377923	0.004394
	C125	C	0.630629	0.621457	0.989186
	C126	C	0.386838	0.621551	0.004311
	C127	C	0.386083	0.378483	0.987704
	C128	C	0.016426	0.622376	0.374282
	C129	C	1.000329	0.621431	0.618203
	C130	C	0.017125	0.377071	0.619642
	C131	C	1.000607	0.378684	0.375840
	C132	C	0.886797	0.508106	0.118292
	C133	C	0.129855	0.491162	0.118345
	C134	C	0.129781	0.507899	0.875595
	C135	C	0.887089	0.491732	0.875799
	C136	C	0.130408	0.878688	0.504677
	C137	C	0.129863	0.121086	0.488916
	C138	C	0.886310	0.121630	0.505024
	C139	C	0.886699	0.879197	0.488442
	C140	C	0.516384	0.121806	0.874288
	C141	C	0.499893	0.121532	0.117990
	C142	C	0.516294	0.877610	0.118658
	C143	C	0.500381	0.878696	0.874651
	C144	C	0.389449	0.884866	0.673677
	C145	C	0.627465	0.114850	0.672790
	C146	C	0.627518	0.884778	0.320139
	C147	C	0.388827	0.114708	0.319641
	C148	C	0.686125	0.380837	0.881802
	C149	C	0.685968	0.619231	0.111814
	C150	C	0.331635	0.620324	0.881807
	C151	C	0.331763	0.380024	0.110881
	C152	C	0.894167	0.678047	0.376567
	C153	C	0.123149	0.676613	0.615415
	C154	C	0.894099	0.322211	0.617083
	C155	C	0.123246	0.323792	0.378767
	C156	C	0.894135	0.379811	0.674906
	C157	C	0.122979	0.619026	0.673551
	C158	C	0.894256	0.620736	0.318531
	C159	C	0.122966	0.380888	0.320378
	C160	C	0.390545	0.676937	0.881379
	C161	C	0.627391	0.676403	0.112017
	C162	C	0.627365	0.323795	0.881141
	C163	C	0.390130	0.323209	0.110736
	C164	C	0.685625	0.885292	0.377207
	C165	C	0.685229	0.114788	0.615483
	C166	C	0.331092	0.885312	0.617294
	C167	C	0.332120	0.115151	0.377781
	C168	C	0.888892	0.385477	0.174844
	C169	C	0.127129	0.614939	0.172376
	C170	C	0.127166	0.384251	0.821156
	C171	C	0.889124	0.614740	0.819576
	C172	C	0.187059	0.880339	0.382563
	C173	C	0.185161	0.118733	0.611513
	C174	C	0.831200	0.120461	0.382150
	C175	C	0.830568	0.880029	0.610880
	C176	C	0.393914	0.176826	0.876523
	C177	C	0.622625	0.175967	0.114730
	C178	C	0.393689	0.822997	0.115870
	C179	C	0.623001	0.823701	0.877714
	C180	C	0.393957	0.879571	0.174395
	C181	C	0.622328	0.118791	0.173102
	C182	C	0.394139	0.119388	0.818686
	C183	C	0.622745	0.880129	0.819070
	C184	C	0.889830	0.177219	0.381949
	C185	C	0.126367	0.175204	0.611961
	C186	C	0.128394	0.823411	0.382158
	C187	C	0.889162	0.823478	0.611256
	C188	C	0.185375	0.384590	0.877867
	C189	C	0.185120	0.614569	0.115324
	C190	C	0.831555	0.385116	0.117329
	C191	C	0.831801	0.614916	0.877625
	C192	C	0.408853	0.094495	0.596143
	C193	C	0.607179	0.905705	0.595790
	C194	C	0.607668	0.094271	0.396117
	C195	C	0.409541	0.905777	0.398422
	C196	C	0.608023	0.399590	0.090234
	C197	C	0.608452	0.599391	0.903703
	C198	C	0.408494	0.598736	0.090112
	C199	C	0.407610	0.400934	0.901528
	C200	C	0.101850	0.599673	0.396650
	C201	C	0.914882	0.599313	0.596273
	C202	C	0.102664	0.398827	0.597978
	C203	C	0.914999	0.401239	0.398112
	C204	C	0.909013	0.593887	0.095306
	C205	C	0.108246	0.404868	0.097122
	C206	C	0.107375	0.593860	0.897390
	C207	C	0.909651	0.405965	0.898611
	C208	C	0.107543	0.901279	0.590131
	C209	C	0.108629	0.099743	0.402567
	C210	C	0.908309	0.098158	0.590522
	C211	C	0.909508	0.902418	0.403165
	C212	C	0.601548	0.099186	0.897053
	C213	C	0.414097	0.099208	0.096155
	C214	C	0.601907	0.900195	0.096409
	C215	C	0.414900	0.901222	0.896776
	Zn216	Zn	0.508527	-0.000047	0.746058
	Zn217	Zn	0.507679	-0.000466	0.246856
	Zn218	Zn	0.758582	0.499730	-0.002888
	Zn219	Zn	0.257897	0.499855	-0.003408
	Zn220	Zn	0.007928	0.750362	0.496647
	Zn221	Zn	0.008529	0.249632	0.496956
	Zn222	Zn	0.008894	0.499638	0.747143
	Zn223	Zn	0.008475	0.500235	0.246367
	Zn224	Zn	0.508698	0.750522	-0.003196
	Zn225	Zn	0.507921	0.250152	-0.004299
	Zn226	Zn	0.757863	0.000189	0.496459
	Zn227	Zn	0.259124	0.000321	0.497254
	N228	N	0.423266	0.962455	0.674708
	N229	N	0.593587	0.037285	0.674222
	N230	N	0.593927	0.962405	0.317875
	N231	N	0.422431	0.037121	0.318388
	N232	N	0.687801	0.413649	0.959332
	N233	N	0.688139	0.586108	0.034400
	N234	N	0.329248	0.586596	0.959241
	N235	N	0.329225	0.413748	0.033357
	N236	N	0.971200	0.679376	0.410158
	N237	N	0.045913	0.678090	0.581705
	N238	N	0.971296	0.320318	0.583524
	N239	N	0.045981	0.322443	0.412625
	N240	N	0.971433	0.413361	0.676646
	N241	N	0.045864	0.585389	0.675331
	N242	N	0.971386	0.586728	0.317151
	N243	N	0.045679	0.414376	0.318480
	N244	N	0.424434	0.677693	0.958673
	N245	N	0.593651	0.678024	0.034857
	N246	N	0.593537	0.321689	0.958514
	N247	N	0.423127	0.322113	0.033071
	N248	N	0.687186	0.962977	0.410417
	N249	N	0.686606	0.037236	0.581992
	N250	N	0.329172	0.963182	0.583875
	N251	N	0.331066	0.037671	0.412107
	N252	N	0.922642	0.462921	0.175533
	N253	N	0.093500	0.537416	0.174405
	N254	N	0.093291	0.461849	0.819470
	N255	N	0.922838	0.537176	0.818309
	N256	N	0.188285	0.914092	0.459861
	N257	N	0.187354	0.085920	0.533941
	N258	N	0.828821	0.086776	0.459729
	N259	N	0.828747	0.913812	0.533387
	N260	N	0.470985	0.178387	0.910474
	N261	N	0.545441	0.177693	0.081042
	N262	N	0.470822	0.821560	0.082138
	N263	N	0.545853	0.822598	0.911660
	N264	N	0.471259	0.913193	0.175957
	N265	N	0.544861	0.085433	0.174998
	N266	N	0.471362	0.085849	0.817245
	N267	N	0.545463	0.913465	0.817001
	N268	N	0.923342	0.178131	0.459267
	N269	N	0.092892	0.176780	0.534627
	N270	N	0.094030	0.822114	0.459218
	N271	N	0.923526	0.822953	0.534179
	N272	N	0.187185	0.462409	0.910941
	N273	N	0.186944	0.536649	0.082384
	N274	N	0.830264	0.462414	0.082833
	N275	N	0.830574	0.537454	0.911936
	O276	O	0.951585	1.045255	-0.027093
	H277	H	0.940106	1.048266	-0.027085
	H278	H	0.965218	1.058025	-0.028293
	O279	O	0.047799	-0.052069	0.902609
	H280	H	0.043072	-0.065432	0.901795
	H281	H	0.049466	-0.048158	0.904790
	O282	O	0.022330	-0.007877	0.002509
	H283	H	0.024576	0.001661	0.007786
	H284	H	0.024899	-0.008789	0.005156
	O285	O	0.464404	0.509303	0.409192
	H286	H	0.471819	0.495836	0.405797
	H287	H	0.461311	0.517527	0.388197
	O288	O	0.056019	-0.042866	0.019286
	H289	H	0.051754	-0.047460	0.019546
	H290	H	0.061310	-0.031381	0.018688
	O291	O	-0.019528	0.955138	0.041078
	H292	H	-0.022511	0.955301	0.030457
	H293	H	-0.014673	0.954162	0.041028
	O294	O	-0.030709	1.002433	-0.047249
	H295	H	-0.028741	0.995683	-0.047141
	H296	H	-0.037137	0.991120	-0.037479
	O297	O	0.514711	0.506935	0.448372
	H298	H	0.512447	0.508281	0.438564
	H299	H	0.514528	0.510429	0.445791
	O300	O	0.491010	0.463101	0.478120
	H301	H	0.485416	0.469599	0.480093
	H302	H	0.485855	0.469625	0.479424
	O303	O	0.926170	0.046982	0.975822
	H304	H	0.935925	0.046375	0.969234
	H305	H	0.917826	0.054524	0.972117
	O306	O	-0.082035	1.016018	1.001926
	H307	H	-0.083828	1.006567	0.992123
	H308	H	-0.083617	1.012832	1.007167
	O309	O	0.039889	0.988078	1.073522
	H310	H	0.039869	0.994003	1.067970
	H311	H	0.035624	0.983281	1.079231
	O312	O	-0.003020	0.001341	0.938878
	H313	H	-0.002974	0.004977	0.938696
	H314	H	-0.004596	-0.003256	0.938455
	O315	O	0.498712	0.505396	0.396011
	H316	H	0.497154	0.499934	0.392198
	H317	H	0.507240	0.507385	0.403717
	O318	O	-0.052959	-0.012406	0.969481
	H319	H	-0.064221	-0.008266	0.962242
	H320	H	-0.052135	-0.016505	0.963018
	O321	O	0.582403	0.514177	0.518797
	H322	H	0.590589	0.511225	0.524354
	H323	H	0.565767	0.514900	0.518188
	O324	O	1.072102	-0.043592	0.969815
	H325	H	1.069804	-0.047303	0.969414
	H326	H	1.062735	-0.044715	0.974751
	O327	O	1.070462	0.914427	0.989150
	H328	H	1.077166	0.909900	0.995286
	H329	H	1.067962	0.910900	0.988632
	O330	O	0.504118	0.510876	0.513456
	H331	H	0.502040	0.508969	0.511231
	H332	H	0.495405	0.521297	0.508118
	O333	O	-0.002231	-0.009582	0.986327
	H334	H	0.004200	-0.019571	0.988177
	H335	H	-0.003448	-0.006335	0.981969
	O336	O	0.654439	0.310591	0.631090
	H337	H	0.662525	0.310753	0.635599
	H338	H	0.651490	0.299112	0.636794
	O339	O	0.482267	0.547138	0.420382
	H340	H	0.479287	0.558286	0.417982
	H341	H	0.477507	0.548521	0.412098
	O342	O	0.045936	1.015841	0.018753
	H343	H	0.043792	1.023953	0.022928
	H344	H	0.037610	1.020572	0.018252
	O345	O	0.518779	0.485414	0.467729
	H346	H	0.533073	0.481771	0.471137
	H347	H	0.516028	0.483974	0.474504
