data_Molecule from HDF5

_cell_length_a		16.421499
_cell_length_b		16.244969
_cell_length_c		16.158367
_cell_angle_alpha	90.157645
_cell_angle_beta	90.186715
_cell_angle_gamma	90.459354
_symmetry_space_group_name_H-M	'P 1'
_symmetry_Int_Tables_number		1

loop_
	_symmetry_equiv_pos_as_xyz
	x,y,z

loop_
	_atom_site_label
	_atom_site_type_symbol
	_atom_site_fract_x
	_atom_site_fract_y
	_atom_site_fract_z
	H0	H	0.404441	0.837727	0.711039
	H1	H	0.603249	0.165226	0.716916
	H2	H	0.597100	0.837543	0.287716
	H3	H	0.404328	0.166429	0.284432
	H4	H	0.718933	0.400756	0.838712
	H5	H	0.719443	0.605524	0.164772
	H6	H	0.285861	0.602872	0.838812
	H7	H	0.286674	0.400653	0.165474
	H8	H	0.839358	0.716211	0.402923
	H9	H	0.163540	0.722931	0.604710
	H10	H	0.841084	0.284117	0.601671
	H11	H	0.164560	0.286883	0.401069
	H12	H	0.840135	0.402897	0.717138
	H13	H	0.165229	0.602776	0.717354
	H14	H	0.840135	0.599054	0.285878
	H15	H	0.165061	0.403535	0.286030
	H16	H	0.404912	0.712793	0.835809
	H17	H	0.603874	0.718554	0.164296
	H18	H	0.599508	0.288802	0.836264
	H19	H	0.403352	0.287138	0.165650
	H20	H	0.718638	0.840434	0.397018
	H21	H	0.721544	0.164786	0.604040
	H22	H	0.283098	0.841256	0.601323
	H23	H	0.286910	0.166607	0.398147
	H24	H	0.905998	0.337910	0.213917
	H25	H	0.102720	0.666899	0.216126
	H26	H	0.100082	0.338656	0.787150
	H27	H	0.905389	0.666830	0.788383
	H28	H	0.216521	0.902696	0.336870
	H29	H	0.220577	0.106038	0.663727
	H30	H	0.786460	0.103559	0.337328
	H31	H	0.784079	0.901377	0.663910
	H32	H	0.340369	0.216492	0.898663
	H33	H	0.663189	0.221987	0.103997
	H34	H	0.339656	0.784135	0.097284
	H35	H	0.664641	0.785635	0.899053
	H36	H	0.339583	0.900197	0.215280
	H37	H	0.665014	0.102055	0.215956
	H38	H	0.340530	0.099261	0.782884
	H39	H	0.664389	0.902542	0.782602
	H40	H	0.904599	0.215265	0.336294
	H41	H	0.101555	0.216173	0.665749
	H42	H	0.099705	0.787805	0.337229
	H43	H	0.903571	0.790856	0.666949
	H44	H	0.217859	0.339806	0.899514
	H45	H	0.222698	0.665289	0.105232
	H46	H	0.783338	0.340540	0.106117
	H47	H	0.787406	0.665350	0.900871
	H48	H	0.413645	0.117939	0.589291
	H49	H	0.587692	0.888753	0.588160
	H50	H	0.592686	0.120716	0.401468
	H51	H	0.409104	0.886400	0.404963
	H52	H	0.595044	0.409061	0.118974
	H53	H	0.603263	0.598800	0.879689
	H54	H	0.414062	0.589985	0.117721
	H55	H	0.408332	0.406744	0.882489
	H56	H	0.116336	0.594679	0.411479
	H57	H	0.889374	0.588057	0.595058
	H58	H	0.114649	0.411357	0.587810
	H59	H	0.887185	0.410626	0.406847
	H60	H	0.117522	0.416263	0.600099
	H61	H	0.884426	0.599497	0.602694
	H62	H	0.118156	0.597391	0.409175
	H63	H	0.887014	0.405393	0.408122
	H64	H	0.413217	0.595743	0.118599
	H65	H	0.598333	0.583802	0.885538
	H66	H	0.595032	0.415460	0.117731
	H67	H	0.406297	0.411264	0.884681
	H68	H	0.591705	0.115573	0.414928
	H69	H	0.598011	0.886594	0.584824
	H70	H	0.407395	0.120651	0.590815
	H71	H	0.410339	0.887935	0.411834
	H72	H	0.915137	0.617851	0.094491
	H73	H	0.100373	0.383833	0.097195
	H74	H	0.101439	0.621429	0.908469
	H75	H	0.905582	0.386065	0.912533
	H76	H	0.101739	0.922998	0.617152
	H77	H	0.086899	0.087039	0.388385
	H78	H	0.907671	0.097615	0.620442
	H79	H	0.909682	0.902606	0.382200
	H80	H	0.616613	0.098589	0.913393
	H81	H	0.385058	0.092783	0.100637
	H82	H	0.617588	0.905502	0.092235
	H83	H	0.384644	0.896442	0.905055
	H84	H	0.615543	0.912061	0.089781
	H85	H	0.386496	0.102193	0.087118
	H86	H	0.615571	0.090446	0.908806
	H87	H	0.391111	0.909979	0.914457
	H88	H	0.907185	0.086923	0.616920
	H89	H	0.092384	0.106380	0.379871
	H90	H	0.084191	0.914389	0.614540
	H91	H	0.902626	0.912908	0.383486
	H92	H	0.090643	0.617629	0.909655
	H93	H	0.091058	0.387001	0.096721
	H94	H	0.908347	0.618609	0.089392
	H95	H	0.910857	0.385616	0.906957
	H96	H	0.412437	0.120286	0.595734
	H97	H	0.595404	0.884485	0.595078
	H98	H	0.604283	0.121576	0.410949
	H99	H	0.404084	0.885732	0.409468
	H100	H	0.589849	0.412434	0.116298
	H101	H	0.587693	0.596382	0.885447
	H102	H	0.408019	0.592692	0.119357
	H103	H	0.411322	0.410414	0.885721
	H104	H	0.116874	0.598596	0.412252
	H105	H	0.887765	0.601387	0.588685
	H106	H	0.121184	0.403880	0.597266
	H107	H	0.889467	0.408885	0.411217
	H108	H	0.907631	0.620401	0.097311
	H109	H	0.096937	0.386889	0.087977
	H110	H	0.097632	0.617030	0.918739
	H111	H	0.912063	0.388645	0.914208
	H112	H	0.098742	0.904328	0.622484
	H113	H	0.106633	0.091338	0.380742
	H114	H	0.917648	0.093256	0.615800
	H115	H	0.914881	0.913442	0.386540
	H116	H	0.619375	0.097794	0.904217
	H117	H	0.391259	0.085456	0.086513
	H118	H	0.617602	0.911409	0.096914
	H119	H	0.387300	0.912161	0.898426
	C120	C	0.381423	0.011389	0.620694
	C121	C	0.624325	0.993927	0.621236
	C122	C	0.623678	0.011135	0.379438
	C123	C	0.380000	0.994581	0.378552
	C124	C	0.622903	0.381846	0.009929
	C125	C	0.625502	0.623610	0.991974
	C126	C	0.382565	0.621835	0.009814
	C127	C	0.380024	0.379770	0.992746
	C128	C	0.010285	0.624884	0.380984
	C129	C	0.994195	0.625744	0.624872
	C130	C	0.010653	0.380755	0.623791
	C131	C	0.994762	0.380379	0.379716
	C132	C	0.881287	0.510795	0.123171
	C133	C	0.125883	0.494119	0.123939
	C134	C	0.124318	0.510800	0.881683
	C135	C	0.881139	0.494450	0.881437
	C136	C	0.123162	0.883133	0.509676
	C137	C	0.124714	0.124681	0.491739
	C138	C	0.881598	0.122863	0.509450
	C139	C	0.879631	0.880924	0.492519
	C140	C	0.510555	0.123617	0.878659
	C141	C	0.494140	0.123876	0.122145
	C142	C	0.509929	0.879314	0.121772
	C143	C	0.494406	0.878271	0.877123
	C144	C	0.383265	0.887598	0.674810
	C145	C	0.623452	0.116412	0.678587
	C146	C	0.619340	0.887216	0.324352
	C147	C	0.383007	0.117460	0.321819
	C148	C	0.679990	0.381483	0.887142
	C149	C	0.681035	0.624006	0.115667
	C150	C	0.325008	0.621668	0.887175
	C151	C	0.324808	0.380901	0.116359
	C152	C	0.887950	0.678799	0.382531
	C153	C	0.115589	0.683535	0.623938
	C154	C	0.889224	0.323194	0.621798
	C155	C	0.116388	0.325200	0.381545
	C156	C	0.888731	0.382325	0.679201
	C157	C	0.116463	0.623884	0.680205
	C158	C	0.888357	0.620537	0.324440
	C159	C	0.116708	0.383463	0.324310
	C160	C	0.384487	0.676064	0.885586
	C161	C	0.623209	0.679873	0.115577
	C162	C	0.620264	0.326182	0.885758
	C163	C	0.382911	0.324539	0.116361
	C164	C	0.679532	0.888621	0.378815
	C165	C	0.682060	0.116279	0.622272
	C166	C	0.323083	0.889285	0.620198
	C167	C	0.324834	0.117589	0.378507
	C168	C	0.884059	0.387356	0.177674
	C169	C	0.123986	0.617442	0.179421
	C170	C	0.120870	0.387901	0.824916
	C171	C	0.884866	0.617731	0.826072
	C172	C	0.178500	0.883155	0.386151
	C173	C	0.181535	0.125021	0.615014
	C174	C	0.825375	0.122352	0.385988
	C175	C	0.823011	0.882279	0.615409
	C176	C	0.388748	0.178625	0.879164
	C177	C	0.615132	0.182387	0.122820
	C178	C	0.388343	0.822280	0.118646
	C179	C	0.616214	0.823675	0.878896
	C180	C	0.388136	0.880361	0.177231
	C181	C	0.615900	0.122732	0.178693
	C182	C	0.388769	0.120139	0.821702
	C183	C	0.616238	0.881793	0.821150
	C184	C	0.883734	0.178289	0.385617
	C185	C	0.122481	0.179757	0.616061
	C186	C	0.120332	0.826165	0.386350
	C187	C	0.882550	0.827416	0.616985
	C188	C	0.179485	0.388324	0.880856
	C189	C	0.183804	0.616309	0.124295
	C190	C	0.823332	0.388837	0.123662
	C191	C	0.825733	0.616751	0.881810
	C192	C	0.404486	0.097389	0.598557
	C193	C	0.600774	0.908601	0.596554
	C194	C	0.602623	0.096879	0.402325
	C195	C	0.401493	0.909155	0.402035
	C196	C	0.600030	0.405473	0.095542
	C197	C	0.603103	0.599803	0.905872
	C198	C	0.405285	0.599367	0.096173
	C199	C	0.402122	0.402675	0.906551
	C200	C	0.095254	0.603303	0.404185
	C201	C	0.909175	0.602876	0.602258
	C202	C	0.095793	0.403714	0.601495
	C203	C	0.909793	0.401983	0.402134
	C204	C	0.903815	0.596886	0.100403
	C205	C	0.102887	0.408172	0.100755
	C206	C	0.103040	0.596485	0.905591
	C207	C	0.903169	0.408847	0.904512
	C208	C	0.101233	0.906858	0.595831
	C209	C	0.102088	0.101589	0.405406
	C210	C	0.904240	0.099448	0.595381
	C211	C	0.902201	0.903126	0.406350
	C212	C	0.595235	0.101910	0.901941
	C213	C	0.409406	0.100372	0.098445
	C214	C	0.595019	0.902818	0.099772
	C215	C	0.409647	0.899771	0.899227
	Zn216	Zn	0.502867	0.001595	0.749155
	Zn217	Zn	0.502036	0.001972	0.251335
	Zn218	Zn	0.752182	0.502565	0.002213
	Zn219	Zn	0.253643	0.502050	0.002024
	Zn220	Zn	0.001408	0.754751	0.502584
	Zn221	Zn	0.002803	0.250623	0.501170
	Zn222	Zn	0.002990	0.503342	0.753568
	Zn223	Zn	0.003310	0.502570	0.251055
	Zn224	Zn	0.503181	0.749188	0.000130
	Zn225	Zn	0.501996	0.252924	0.000561
	Zn226	Zn	0.752735	0.002693	0.500203
	Zn227	Zn	0.252514	0.004415	0.500154
	N228	N	0.419107	0.964470	0.675009
	N229	N	0.587989	0.039453	0.677752
	N230	N	0.585292	0.964272	0.324536
	N231	N	0.416514	0.040179	0.321705
	N232	N	0.681950	0.415149	0.965319
	N233	N	0.682567	0.589633	0.037829
	N234	N	0.323834	0.588406	0.965381
	N235	N	0.322937	0.414654	0.038476
	N236	N	0.964667	0.681471	0.417034
	N237	N	0.038499	0.684769	0.590308
	N238	N	0.965969	0.322286	0.588001
	N239	N	0.039522	0.323118	0.415359
	N240	N	0.965394	0.417216	0.680754
	N241	N	0.040076	0.588609	0.680879
	N242	N	0.965483	0.587872	0.323151
	N243	N	0.040258	0.417176	0.323184
	N244	N	0.419637	0.676177	0.962866
	N245	N	0.589732	0.680303	0.037400
	N246	N	0.585468	0.326339	0.963008
	N247	N	0.416465	0.323682	0.038429
	N248	N	0.682522	0.966568	0.412224
	N249	N	0.682894	0.038811	0.587590
	N250	N	0.321748	0.967317	0.587550
	N251	N	0.322690	0.040101	0.412911
	N252	N	0.919331	0.464266	0.177756
	N253	N	0.088687	0.540354	0.179441
	N254	N	0.087213	0.465078	0.825262
	N255	N	0.918518	0.540411	0.825482
	N256	N	0.180243	0.918042	0.463744
	N257	N	0.183050	0.091480	0.536704
	N258	N	0.823862	0.088706	0.463956
	N259	N	0.821229	0.914903	0.536974
	N260	N	0.465403	0.180923	0.913898
	N261	N	0.538479	0.183299	0.088423
	N262	N	0.465158	0.821690	0.084939
	N263	N	0.539727	0.821335	0.913027
	N264	N	0.464788	0.915323	0.179072
	N265	N	0.539553	0.086833	0.178292
	N266	N	0.465383	0.086620	0.821379
	N267	N	0.539509	0.915027	0.819828
	N268	N	0.918048	0.178626	0.463440
	N269	N	0.087742	0.179632	0.538473
	N270	N	0.086727	0.826033	0.464319
	N271	N	0.917098	0.826513	0.539580
	N272	N	0.181659	0.465684	0.915620
	N273	N	0.185026	0.538421	0.090599
	N274	N	0.821446	0.466921	0.090669
	N275	N	0.823388	0.539180	0.915521
	O276	O	0.441938	0.615579	0.512500
	H277	H	0.438331	0.621065	0.514163
	H278	H	0.439610	0.629774	0.512202
	O279	O	0.385065	0.516406	0.412570
	H280	H	0.386482	0.524780	0.405673
	H281	H	0.386379	0.514977	0.410173
	O282	O	0.891278	0.935576	0.007643
	H283	H	0.890885	0.941459	0.006526
	H284	H	0.880730	0.933609	0.017374
	O285	O	1.041873	0.102663	0.924914
	H286	H	1.042499	0.102043	0.907805
	H287	H	1.050261	0.101714	0.924466
	O288	O	0.471914	0.536301	0.463705
	H289	H	0.466225	0.544142	0.462156
	H290	H	0.471021	0.533225	0.463316
	O291	O	0.491608	0.568060	0.534827
	H292	H	0.489068	0.554139	0.540972
	H293	H	0.494746	0.567193	0.539473
	O294	O	0.459370	0.534853	0.531390
	H295	H	0.458927	0.526509	0.521836
	H296	H	0.456290	0.537842	0.535017
	O297	O	0.543525	0.471932	0.413331
	H298	H	0.543176	0.471383	0.407395
	H299	H	0.539900	0.472199	0.414811
	O300	O	0.865615	0.079694	1.004509
	H301	H	0.856019	0.080910	1.001949
	H302	H	0.858396	0.068436	1.013148
	O303	O	0.976321	1.029805	-0.034528
	H304	H	0.967174	1.020392	-0.036680
	H305	H	0.982243	1.029539	-0.021879
	O306	O	0.078299	1.046740	0.979054
	H307	H	0.066874	1.047034	0.978896
	H308	H	0.061790	1.042109	0.988359
	O309	O	0.640599	0.500010	0.542579
	H310	H	0.659558	0.503717	0.539834
	H311	H	0.647667	0.518133	0.543725
	O312	O	-0.008484	-0.100131	0.066116
	H313	H	-0.017049	-0.096028	0.076256
	H314	H	-0.004015	-0.089187	0.058259
	O315	O	1.049497	-0.024347	-0.075736
	H316	H	1.047749	-0.032878	-0.068156
	H317	H	1.046738	-0.027036	-0.085299
	O318	O	1.062446	1.087348	1.112880
	H319	H	1.069231	1.094794	1.114104
	H320	H	1.067207	1.102500	1.128032
	O321	O	-0.614662	-0.611545	0.480871
	H322	H	-0.608988	-0.602976	0.481985
	H323	H	-0.626558	-0.611817	0.482335
	O324	O	0.493209	0.503498	0.405010
	H325	H	0.503936	0.498756	0.406676
	H326	H	0.496058	0.516108	0.411888
	O327	O	-0.530488	-0.492378	0.448545
	H328	H	-0.540909	-0.503518	0.443802
	H329	H	-0.530185	-0.486165	0.448788
	O330	O	0.485740	0.495679	0.464542
	H331	H	0.472640	0.500256	0.456402
	H332	H	0.482015	0.487511	0.457766
	O333	O	-0.212645	0.641661	0.639948
	H334	H	-0.219570	0.633467	0.640272
	H335	H	-0.210258	0.633647	0.627385
	O336	O	0.016118	0.065916	0.091040
	H337	H	0.035267	0.067952	0.083028
	H338	H	0.009335	0.068719	0.074711
	O339	O	0.091373	0.928731	0.982953
	H340	H	0.081741	0.927704	0.990730
	H341	H	0.089209	0.934621	0.975041
	O342	O	0.990285	1.058173	1.116610
	H343	H	0.997474	1.061212	1.099964
	H344	H	0.988179	1.061023	1.121926
	O345	O	0.967591	0.847082	0.051003
	H346	H	0.962797	0.848485	0.061907
	H347	H	0.980334	0.844221	0.055710
	O348	O	0.588937	0.589393	0.581312
	H349	H	0.598139	0.583749	0.585591
	H350	H	0.582744	0.585692	0.593312
	O351	O	0.510783	0.431007	0.544666
	H352	H	0.511576	0.429416	0.537457
	H353	H	0.500974	0.428177	0.546177
	O354	O	0.552981	0.548404	0.538049
	H355	H	0.540877	0.533659	0.549076
	H356	H	0.562524	0.563538	0.533927
	O357	O	0.878994	0.043330	1.022556
	H358	H	0.883001	0.067246	1.030164
	H359	H	0.883374	0.038816	1.020764
	O360	O	0.492857	0.445929	0.506837
	H361	H	0.500030	0.451961	0.497718
	H362	H	0.483179	0.446391	0.504911
	O363	O	1.005720	0.989505	-0.151104
	H364	H	1.008395	0.993036	-0.150624
	H365	H	1.012597	0.982938	-0.156352
	O366	O	1.025752	0.973063	1.012636
	H367	H	1.036531	0.988277	1.009919
	H368	H	1.031285	0.972426	1.015547
	O369	O	0.872045	-0.042374	0.970504
	H370	H	0.866678	-0.050414	0.971923
	H371	H	0.871272	-0.051656	0.970616
	O372	O	0.101003	0.034288	-0.015442
	H373	H	0.104757	0.032768	-0.012024
	H374	H	0.102093	0.027436	-0.024472
	O375	O	1.109000	0.005641	0.074314
	H376	H	1.110310	0.009713	0.059236
	H377	H	1.111749	0.015883	0.083528
	O378	O	0.524474	0.460239	0.522432
	H379	H	0.529503	0.456715	0.523681
	H380	H	0.527551	0.468964	0.511749
	O381	O	0.474654	0.444740	0.564391
	H382	H	0.473989	0.437477	0.571313
	H383	H	0.468022	0.451358	0.565172
