data_Molecule from HDF5

_cell_length_a		16.486117
_cell_length_b		16.360492
_cell_length_c		16.226213
_cell_angle_alpha	89.889256
_cell_angle_beta	90.131408
_cell_angle_gamma	90.044189
_symmetry_space_group_name_H-M	'P 1'
_symmetry_Int_Tables_number		1

loop_
	_symmetry_equiv_pos_as_xyz
	x,y,z

loop_
	_atom_site_label
	_atom_site_type_symbol
	_atom_site_fract_x
	_atom_site_fract_y
	_atom_site_fract_z
	H0	H	0.374121	0.826407	0.750238
	H1	H	0.573532	0.151180	0.750870
	H2	H	0.573349	0.827303	0.318225
	H3	H	0.373207	0.150737	0.317661
	H4	H	0.691191	0.385221	0.872247
	H5	H	0.690200	0.591679	0.195865
	H6	H	0.252125	0.591304	0.872052
	H7	H	0.255369	0.387189	0.197573
	H8	H	0.812369	0.708483	0.431922
	H9	H	0.130987	0.709244	0.640577
	H10	H	0.812491	0.269376	0.636464
	H11	H	0.132684	0.270815	0.431083
	H12	H	0.811544	0.387264	0.750684
	H13	H	0.132562	0.589836	0.753203
	H14	H	0.811457	0.592206	0.316815
	H15	H	0.132436	0.390193	0.317474
	H16	H	0.367948	0.707107	0.871515
	H17	H	0.571972	0.704492	0.196677
	H18	H	0.570962	0.273066	0.870449
	H19	H	0.372960	0.272510	0.197934
	H20	H	0.693128	0.828510	0.429734
	H21	H	0.692283	0.149934	0.637389
	H22	H	0.252458	0.829057	0.641328
	H23	H	0.253182	0.149097	0.429527
	H24	H	0.873515	0.327356	0.250262
	H25	H	0.071255	0.652201	0.249879
	H26	H	0.072513	0.326751	0.817604
	H27	H	0.870379	0.649885	0.815558
	H28	H	0.190562	0.886884	0.372678
	H29	H	0.192350	0.092292	0.696374
	H30	H	0.755481	0.090986	0.371857
	H31	H	0.754786	0.886662	0.697373
	H32	H	0.311575	0.205361	0.931769
	H33	H	0.632100	0.208529	0.137406
	H34	H	0.312869	0.768794	0.137562
	H35	H	0.631237	0.769242	0.930721
	H36	H	0.312679	0.885837	0.253250
	H37	H	0.633610	0.089013	0.251611
	H38	H	0.312714	0.089603	0.815478
	H39	H	0.633571	0.888323	0.817419
	H40	H	0.873702	0.204548	0.371095
	H41	H	0.074069	0.205249	0.697342
	H42	H	0.071931	0.772949	0.371816
	H43	H	0.869345	0.769801	0.696731
	H44	H	0.189718	0.328321	0.930950
	H45	H	0.192712	0.649146	0.139154
	H46	H	0.752976	0.328254	0.138253
	H47	H	0.751235	0.648734	0.928351
	H48	H	0.381836	0.106363	0.633954
	H49	H	0.569984	0.875593	0.617666
	H50	H	0.564019	0.103221	0.445696
	H51	H	0.380165	0.874214	0.444984
	H52	H	0.567190	0.398475	0.149956
	H53	H	0.561378	0.580411	0.918352
	H54	H	0.385285	0.577110	0.147006
	H55	H	0.374987	0.396928	0.916120
	H56	H	0.083629	0.579327	0.447465
	H57	H	0.858178	0.583422	0.624343
	H58	H	0.086001	0.398240	0.625898
	H59	H	0.857495	0.389677	0.444474
	H60	H	0.085679	0.397469	0.625898
	H61	H	0.861046	0.578157	0.620261
	H62	H	0.086720	0.579749	0.439758
	H63	H	0.861293	0.400504	0.448534
	H64	H	0.381238	0.581564	0.150222
	H65	H	0.564580	0.579262	0.917546
	H66	H	0.560968	0.402812	0.147028
	H67	H	0.379612	0.400780	0.920650
	H68	H	0.566027	0.103354	0.444785
	H69	H	0.568251	0.871474	0.632705
	H70	H	0.391300	0.098412	0.619261
	H71	H	0.382742	0.874630	0.444405
	H72	H	0.881685	0.604532	0.129523
	H73	H	0.062325	0.375304	0.127068
	H74	H	0.063480	0.601587	0.949487
	H75	H	0.885634	0.377980	0.948172
	H76	H	0.062753	0.892202	0.652180
	H77	H	0.066425	0.083169	0.416732
	H78	H	0.887944	0.071394	0.645702
	H79	H	0.879761	0.903209	0.419746
	H80	H	0.588291	0.081857	0.938596
	H81	H	0.361303	0.073918	0.124396
	H82	H	0.588153	0.892326	0.126704
	H83	H	0.358822	0.896091	0.942172
	H84	H	0.583275	0.896624	0.121012
	H85	H	0.356480	0.082968	0.133166
	H86	H	0.586647	0.085501	0.947260
	H87	H	0.359323	0.898358	0.944544
	H88	H	0.886287	0.091082	0.652918
	H89	H	0.065643	0.075732	0.420121
	H90	H	0.069734	0.903964	0.650118
	H91	H	0.886545	0.900686	0.421990
	H92	H	0.064971	0.603356	0.942268
	H93	H	0.062710	0.375162	0.124497
	H94	H	0.881571	0.601706	0.119154
	H95	H	0.874763	0.373352	0.948121
	H96	H	0.373459	0.103846	0.616480
	H97	H	0.557020	0.877489	0.624731
	H98	H	0.564932	0.103495	0.443018
	H99	H	0.381593	0.875167	0.447167
	H100	H	0.559779	0.395125	0.149165
	H101	H	0.562172	0.576476	0.919334
	H102	H	0.378589	0.575667	0.148774
	H103	H	0.381360	0.393519	0.918374
	H104	H	0.086653	0.586477	0.444990
	H105	H	0.857347	0.576418	0.627785
	H106	H	0.085705	0.397862	0.625429
	H107	H	0.857243	0.399165	0.437229
	H108	H	0.873220	0.605605	0.123474
	H109	H	0.064966	0.375220	0.126714
	H110	H	0.058217	0.601802	0.944081
	H111	H	0.881849	0.373246	0.938708
	H112	H	0.056783	0.902908	0.646333
	H113	H	0.059297	0.080918	0.420244
	H114	H	0.869661	0.078333	0.653608
	H115	H	0.881437	0.895749	0.418802
	H116	H	0.584587	0.076638	0.945155
	H117	H	0.358855	0.086664	0.120768
	H118	H	0.586027	0.900893	0.127308
	H119	H	0.357905	0.899399	0.940928
	C120	C	0.351473	-0.003218	0.655372
	C121	C	0.595422	0.981046	0.656021
	C122	C	0.594796	-0.002881	0.413660
	C123	C	0.351209	0.980678	0.413699
	C124	C	0.593222	0.367749	0.041815
	C125	C	0.593320	0.609757	1.025482
	C126	C	0.350342	0.609376	0.041873
	C127	C	0.349423	0.366836	1.025832
	C128	C	-0.019935	0.612107	0.412656
	C129	C	0.963969	0.610326	0.656247
	C130	C	-0.019445	0.366556	0.656770
	C131	C	0.964173	0.367083	0.412526
	C132	C	0.849674	0.497748	0.155450
	C133	C	0.093511	0.481569	0.156446
	C134	C	0.092598	0.496531	0.914037
	C135	C	0.850120	0.480681	0.913240
	C136	C	0.093269	0.868840	0.542837
	C137	C	0.094560	0.110556	0.526180
	C138	C	0.851589	0.110378	0.542921
	C139	C	0.851499	0.868423	0.526700
	C140	C	0.480779	0.110738	0.912566
	C141	C	0.464521	0.111111	0.156642
	C142	C	0.480189	0.866662	0.155924
	C143	C	0.464242	0.867700	0.912609
	C144	C	0.353083	0.875417	0.712755
	C145	C	0.594153	0.102413	0.712952
	C146	C	0.593538	0.875564	0.356668
	C147	C	0.352515	0.102082	0.355794
	C148	C	0.651231	0.366779	0.920157
	C149	C	0.651084	0.610439	0.147176
	C150	C	0.291547	0.610323	0.920446
	C151	C	0.293596	0.367427	0.148654
	C152	C	0.860119	0.669648	0.412459
	C153	C	0.083400	0.669495	0.658529
	C154	C	0.860366	0.308653	0.655821
	C155	C	0.084648	0.309996	0.412169
	C156	C	0.859764	0.367214	0.712915
	C157	C	0.084186	0.609947	0.714744
	C158	C	0.859963	0.611877	0.354815
	C159	C	0.084643	0.369408	0.355782
	C160	C	0.349444	0.667794	0.920119
	C161	C	0.592242	0.666834	0.147553
	C162	C	0.591853	0.310595	0.919549
	C163	C	0.352143	0.310531	0.148961
	C164	C	0.652909	0.876314	0.412437
	C165	C	0.653160	0.101864	0.656546
	C166	C	0.292609	0.876808	0.658483
	C167	C	0.292824	0.101331	0.411483
	C168	C	0.851960	0.376021	0.212846
	C169	C	0.092005	0.603263	0.212417
	C170	C	0.091825	0.375292	0.856309
	C171	C	0.850209	0.601595	0.854577
	C172	C	0.150999	0.867868	0.420852
	C173	C	0.153054	0.111189	0.647890
	C174	C	0.794286	0.110397	0.420676
	C175	C	0.793517	0.867650	0.648771
	C176	C	0.360000	0.167468	0.912342
	C177	C	0.584671	0.168935	0.156554
	C178	C	0.360486	0.808412	0.156556
	C179	C	0.583940	0.808870	0.911979
	C180	C	0.360566	0.866568	0.214253
	C181	C	0.585455	0.109492	0.213295
	C182	C	0.360383	0.109560	0.854712
	C183	C	0.585132	0.868263	0.855833
	C184	C	0.853051	0.166853	0.420271
	C185	C	0.094125	0.167549	0.648495
	C186	C	0.092240	0.811220	0.420541
	C187	C	0.850460	0.809475	0.648450
	C188	C	0.150340	0.375927	0.912536
	C189	C	0.152413	0.601723	0.157434
	C190	C	0.792450	0.376309	0.156590
	C191	C	0.791269	0.601135	0.910900
	C192	C	0.375211	0.080948	0.630365
	C193	C	0.571948	0.896709	0.631936
	C194	C	0.571642	0.081535	0.437402
	C195	C	0.374810	0.896462	0.438392
	C196	C	0.569550	0.391707	0.126684
	C197	C	0.569549	0.585748	0.940439
	C198	C	0.374650	0.585090	0.126659
	C199	C	0.372065	0.390197	0.940495
	C200	C	0.064000	0.588413	0.436944
	C201	C	0.880182	0.586296	0.631398
	C202	C	0.064213	0.390717	0.632906
	C203	C	0.880321	0.389949	0.436373
	C204	C	0.872312	0.582124	0.131268
	C205	C	0.070136	0.397030	0.132819
	C206	C	0.069104	0.580509	0.938317
	C207	C	0.873767	0.396700	0.937889
	C208	C	0.069763	0.892728	0.627507
	C209	C	0.070614	0.086818	0.441063
	C210	C	0.874576	0.087065	0.628623
	C211	C	0.875520	0.892735	0.442052
	C212	C	0.564806	0.087749	0.936695
	C213	C	0.380527	0.087773	0.133013
	C214	C	0.564092	0.889987	0.132002
	C215	C	0.380441	0.891243	0.935928
	Zn216	Zn	0.473104	-0.010933	0.783452
	Zn217	Zn	0.472879	-0.011528	0.285376
	Zn218	Zn	0.721147	0.488513	0.033841
	Zn219	Zn	0.221471	0.488410	0.034304
	Zn220	Zn	-0.027931	0.739839	0.535162
	Zn221	Zn	-0.027042	0.238278	0.534468
	Zn222	Zn	-0.028283	0.488425	0.785066
	Zn223	Zn	-0.028060	0.490287	0.284426
	Zn224	Zn	0.471538	0.737767	0.033491
	Zn225	Zn	0.471793	0.239678	0.034137
	Zn226	Zn	0.723630	-0.010756	0.534214
	Zn227	Zn	0.222578	-0.011172	0.534733
	N228	N	0.389233	0.951198	0.710869
	N229	N	0.559011	0.026167	0.712843
	N230	N	0.558212	0.951622	0.357087
	N231	N	0.388042	0.026051	0.356829
	N232	N	0.652308	0.401292	0.997216
	N233	N	0.651812	0.575680	0.070122
	N234	N	0.291967	0.574614	0.997158
	N235	N	0.291992	0.401796	0.071293
	N236	N	0.935945	0.669873	0.447730
	N237	N	0.007626	0.669925	0.623158
	N238	N	0.936601	0.308023	0.621809
	N239	N	0.008709	0.308225	0.446544
	N240	N	0.935563	0.402349	0.713796
	N241	N	0.008744	0.573952	0.713548
	N242	N	0.935867	0.577020	0.354804
	N243	N	0.008697	0.404148	0.355848
	N244	N	0.385214	0.667293	0.996706
	N245	N	0.556994	0.666502	0.070715
	N246	N	0.556435	0.311058	0.996244
	N247	N	0.386094	0.309911	0.071537
	N248	N	0.653813	0.952978	0.447145
	N249	N	0.654164	0.025366	0.622035
	N250	N	0.291267	0.953461	0.623648
	N251	N	0.291860	0.024775	0.446568
	N252	N	0.886914	0.452409	0.212255
	N253	N	0.056022	0.527534	0.211908
	N254	N	0.056268	0.451312	0.857165
	N255	N	0.886236	0.525912	0.856102
	N256	N	0.151792	0.902801	0.497889
	N257	N	0.153573	0.076714	0.570585
	N258	N	0.793186	0.076186	0.498117
	N259	N	0.794049	0.903592	0.572135
	N260	N	0.435930	0.168402	0.947577
	N261	N	0.508341	0.170155	0.122243
	N262	N	0.435978	0.808233	0.121159
	N263	N	0.507911	0.808312	0.946445
	N264	N	0.436217	0.902149	0.213998
	N265	N	0.509723	0.074434	0.213664
	N266	N	0.436431	0.075285	0.854507
	N267	N	0.509728	0.904264	0.855982
	N268	N	0.887828	0.166986	0.497404
	N269	N	0.058613	0.167384	0.571708
	N270	N	0.057132	0.811438	0.497384
	N271	N	0.885964	0.809947	0.571883
	N272	N	0.150996	0.452179	0.947677
	N273	N	0.153585	0.524839	0.123445
	N274	N	0.790965	0.452934	0.121734
	N275	N	0.791066	0.524933	0.946739
	O276	O	0.579581	0.442907	0.548035
	H277	H	0.574086	0.445281	0.536605
	H278	H	0.588711	0.437921	0.546902
	O279	O	0.631299	0.426543	0.345284
	H280	H	0.646284	0.428463	0.317684
	H281	H	0.625467	0.394250	0.351516
	O282	O	0.895695	-0.132635	1.162099
	H283	H	0.899821	-0.131206	1.156003
	H284	H	0.886903	-0.137136	1.157296
	O285	O	0.826204	-0.044357	-0.027242
	H286	H	0.831966	-0.040090	-0.023812
	H287	H	0.816859	-0.048080	-0.027103
	O288	O	0.951559	0.889900	1.122574
	H289	H	0.947734	0.897497	1.124129
	H290	H	0.931914	0.895490	1.134541
	O291	O	0.404536	1.393705	0.674388
	H292	H	0.382700	1.398325	0.675616
	H293	H	0.417141	1.405201	0.690468
	O294	O	0.606631	0.491863	0.671564
	H295	H	0.611084	0.494620	0.684726
	H296	H	0.605365	0.504813	0.671837
	O297	O	0.483389	0.404774	0.451288
	H298	H	0.495357	0.390906	0.460575
	H299	H	0.478875	0.399514	0.440885
	O300	O	0.975539	0.029311	0.052663
	H301	H	0.991032	0.033455	0.044086
	H302	H	0.965854	0.014561	0.063286
	O303	O	0.379192	0.502965	0.519595
	H304	H	0.382025	0.494988	0.500998
	H305	H	0.385536	0.506872	0.519732
	O306	O	0.400106	1.473615	0.432957
	H307	H	0.403657	1.473679	0.429225
	H308	H	0.406303	1.477185	0.436582
	O309	O	0.975137	0.115472	0.270353
	H310	H	0.990587	0.112911	0.274490
	H311	H	0.972084	0.116669	0.274141
	O312	O	0.398446	0.601434	0.516792
	H313	H	0.402102	0.577925	0.516646
	H314	H	0.396431	0.608268	0.495880
	O315	O	0.374780	0.458434	0.666982
	H316	H	0.388538	0.462384	0.649896
	H317	H	0.368101	0.458260	0.670740
	O318	O	-0.067777	0.810280	1.116304
	H319	H	-0.083474	0.818583	1.111228
	H320	H	-0.048004	0.822016	1.119422
	O321	O	0.418539	0.418607	0.637122
	H322	H	0.407896	0.415879	0.634182
	H323	H	0.402794	0.420353	0.658701
	O324	O	-0.140167	-0.069344	-0.981485
	H325	H	-0.141183	-0.075760	-0.975948
	H326	H	-0.136258	-0.059513	-0.978763
	O327	O	0.101536	1.167933	0.234917
	H328	H	0.112992	1.170618	0.241972
	H329	H	0.107920	1.170089	0.239245
	O330	O	0.074437	-0.184122	0.836924
	H331	H	0.075924	-0.185501	0.823159
	H332	H	0.080409	-0.178443	0.842054
	O333	O	-0.008701	-0.110224	0.999175
	H334	H	-0.006807	-0.115501	0.984425
	H335	H	-0.018717	-0.103148	0.992343
	O336	O	0.445542	1.469332	-0.286983
	H337	H	0.436272	1.467846	-0.278121
	H338	H	0.453158	1.477629	-0.287535
	O339	O	0.842175	0.126902	-0.020850
	H340	H	0.833947	0.124454	-0.037024
	H341	H	0.833440	0.130299	-0.008599
	O342	O	-0.120858	0.026645	-0.078661
	H343	H	-0.111918	0.029323	-0.076019
	H344	H	-0.130171	0.029455	-0.085762
	O345	O	0.979274	0.099896	1.075323
	H346	H	0.980422	0.100198	1.066520
	H347	H	0.983212	0.095526	1.065105
	O348	O	1.157821	0.993673	-0.026489
	H349	H	1.160910	0.975176	-0.014783
	H350	H	1.165126	1.001831	-0.028255
	O351	O	0.432043	0.386080	0.512017
	H352	H	0.436218	0.391154	0.519886
	H353	H	0.436041	0.385093	0.506616
	O354	O	0.356848	0.552362	1.380195
	H355	H	0.338477	0.556514	1.377087
	H356	H	0.358823	0.536327	1.378799
	O357	O	0.627898	0.517395	0.568802
	H358	H	0.635181	0.512905	0.564681
	H359	H	0.624632	0.525021	0.571124
	O360	O	2.010259	-0.153815	-0.045514
	H361	H	2.019655	-0.158218	-0.040087
	H362	H	2.012051	-0.145687	-0.034631
	O363	O	-0.117538	0.955247	0.912683
	H364	H	-0.117040	0.955994	0.905408
	H365	H	-0.121625	0.946354	0.911827
	O366	O	0.557693	0.346431	0.494287
	H367	H	0.538528	0.341660	0.498575
	H368	H	0.571014	0.352136	0.510638
	O369	O	-0.036666	0.152400	-0.940766
	H370	H	-0.044119	0.153359	-0.952586
	H371	H	-0.017599	0.140438	-0.941912
	O372	O	0.169543	0.188100	0.836557
	H373	H	0.170444	0.164245	0.839227
	H374	H	0.165337	0.187406	0.829288
	O375	O	0.569553	0.479985	0.367322
	H376	H	0.568587	0.481425	0.382281
	H377	H	0.543747	0.480308	0.364670
	O378	O	1.575728	1.476057	-0.433825
	H379	H	1.572019	1.470773	-0.418017
	H380	H	1.579199	1.478299	-0.445721
	O381	O	0.906129	-0.051023	0.107699
	H382	H	0.909676	-0.061050	0.103433
	H383	H	0.908431	-0.048126	0.107764
	O384	O	1.080858	1.065780	0.167993
	H385	H	1.081000	1.073176	0.166800
	H386	H	1.076860	1.058354	0.168964
	O387	O	1.161757	-0.134868	-0.037583
	H388	H	1.149934	-0.133157	-0.042322
	H389	H	1.168658	-0.137053	-0.035493
	O390	O	0.356716	1.608471	-0.617677
	H391	H	0.350235	1.599215	-0.622658
	H392	H	0.369515	1.601069	-0.623720
	O393	O	0.984698	1.115357	1.001872
	H394	H	0.987987	1.105800	1.010284
	H395	H	0.980662	1.119383	0.993773
	O396	O	-0.049781	0.127549	-0.078430
	H397	H	-0.055534	0.137070	-0.086491
	H398	H	-0.067736	0.121508	-0.074507
	O399	O	0.497008	0.437297	0.523841
	H400	H	0.511700	0.449694	0.521051
	H401	H	0.501481	0.445535	0.515415
	O402	O	0.490085	0.578179	0.504803
	H403	H	0.488237	0.582136	0.498367
	H404	H	0.498583	0.574268	0.504384
	O405	O	1.084318	0.948740	0.022437
	H406	H	1.082473	0.943654	0.012773
	H407	H	1.074313	0.945786	0.024741
	O408	O	1.518562	1.647505	-0.382007
	H409	H	1.521219	1.654197	-0.389347
	H410	H	1.517175	1.643410	-0.386711
	O411	O	0.841334	0.113804	1.112107
	H412	H	0.856980	0.115906	1.095813
	H413	H	0.835328	0.132022	1.120174
	O414	O	0.374369	0.464845	0.428688
	H415	H	0.363117	0.467622	0.421389
	H416	H	0.391963	0.471571	0.413259
	O417	O	0.410684	0.597280	0.597512
	H418	H	0.410859	0.599247	0.591040
	H419	H	0.409997	0.611596	0.594623
