data_Molecule from HDF5

_cell_length_a		16.337960
_cell_length_b		16.286894
_cell_length_c		16.319256
_cell_angle_alpha	89.721698
_cell_angle_beta	89.996489
_cell_angle_gamma	89.864765
_symmetry_space_group_name_H-M	'P 1'
_symmetry_Int_Tables_number		1

loop_
	_symmetry_equiv_pos_as_xyz
	x,y,z

loop_
	_atom_site_label
	_atom_site_type_symbol
	_atom_site_fract_x
	_atom_site_fract_y
	_atom_site_fract_z
	H0	H	0.400978	0.847908	0.711932
	H1	H	0.600639	0.173769	0.708824
	H2	H	0.600293	0.847205	0.280230
	H3	H	0.401628	0.173782	0.277612
	H4	H	0.716264	0.413132	0.831224
	H5	H	0.714758	0.608506	0.157600
	H6	H	0.283701	0.613814	0.831970
	H7	H	0.285491	0.411980	0.157646
	H8	H	0.837570	0.726080	0.395274
	H9	H	0.163370	0.724548	0.593193
	H10	H	0.837469	0.294958	0.594564
	H11	H	0.163444	0.294393	0.394851
	H12	H	0.838128	0.410904	0.711126
	H13	H	0.162949	0.608728	0.710115
	H14	H	0.838152	0.610846	0.278612
	H15	H	0.163859	0.411191	0.278608
	H16	H	0.401669	0.728166	0.831705
	H17	H	0.597914	0.722923	0.158204
	H18	H	0.599493	0.298453	0.830459
	H19	H	0.402755	0.296213	0.157722
	H20	H	0.717938	0.848081	0.394397
	H21	H	0.716191	0.174127	0.592782
	H22	H	0.285280	0.847389	0.595441
	H23	H	0.283818	0.173226	0.392195
	H24	H	0.900179	0.348311	0.211896
	H25	H	0.098691	0.674858	0.209085
	H26	H	0.099669	0.347421	0.780851
	H27	H	0.901261	0.673734	0.778485
	H28	H	0.219083	0.908094	0.332773
	H29	H	0.218653	0.111427	0.656351
	H30	H	0.785516	0.111008	0.330977
	H31	H	0.785594	0.910273	0.656895
	H32	H	0.338692	0.229872	0.892344
	H33	H	0.664409	0.225808	0.092228
	H34	H	0.338851	0.794280	0.096540
	H35	H	0.664008	0.795772	0.895750
	H36	H	0.339403	0.910266	0.211472
	H37	H	0.664361	0.108817	0.208530
	H38	H	0.339599	0.114309	0.775071
	H39	H	0.664079	0.911580	0.779021
	H40	H	0.898421	0.229012	0.332054
	H41	H	0.099602	0.225038	0.657461
	H42	H	0.100220	0.795192	0.331777
	H43	H	0.901956	0.794182	0.656934
	H44	H	0.218162	0.348843	0.895048
	H45	H	0.216719	0.673747	0.095994
	H46	H	0.786027	0.347662	0.094713
	H47	H	0.787092	0.674594	0.895521
	H48	H	0.406034	0.125099	0.581341
	H49	H	0.590720	0.898788	0.577403
	H50	H	0.594484	0.126533	0.405986
	H51	H	0.412172	0.895833	0.402071
	H52	H	0.597017	0.418945	0.111012
	H53	H	0.587727	0.610412	0.877922
	H54	H	0.411739	0.610221	0.111475
	H55	H	0.408583	0.425146	0.880393
	H56	H	0.113057	0.597492	0.407496
	H57	H	0.883192	0.607768	0.586592
	H58	H	0.113549	0.429867	0.590997
	H59	H	0.882236	0.415775	0.397834
	H60	H	0.120709	0.408880	0.596288
	H61	H	0.886894	0.599696	0.583145
	H62	H	0.118200	0.600357	0.393264
	H63	H	0.886884	0.417465	0.408149
	H64	H	0.400070	0.603094	0.112701
	H65	H	0.601945	0.607733	0.874938
	H66	H	0.591592	0.418961	0.109591
	H67	H	0.411830	0.418563	0.879705
	H68	H	0.597382	0.128743	0.397152
	H69	H	0.604246	0.891429	0.589189
	H70	H	0.408315	0.127338	0.587910
	H71	H	0.408039	0.895282	0.405610
	H72	H	0.898612	0.629033	0.084962
	H73	H	0.093601	0.394992	0.088380
	H74	H	0.088632	0.627757	0.894475
	H75	H	0.898391	0.392471	0.902703
	H76	H	0.084043	0.913882	0.608478
	H77	H	0.102081	0.102380	0.377183
	H78	H	0.923761	0.106100	0.606218
	H79	H	0.902289	0.926654	0.379515
	H80	H	0.616628	0.105767	0.901747
	H81	H	0.383243	0.105655	0.093556
	H82	H	0.613960	0.919015	0.078318
	H83	H	0.386395	0.919052	0.904577
	H84	H	0.617279	0.924654	0.093984
	H85	H	0.385917	0.110116	0.079241
	H86	H	0.615341	0.103281	0.901262
	H87	H	0.386489	0.922303	0.903402
	H88	H	0.898012	0.113257	0.616543
	H89	H	0.087489	0.094003	0.382825
	H90	H	0.100039	0.912205	0.613931
	H91	H	0.918985	0.919465	0.382038
	H92	H	0.087654	0.624115	0.908514
	H93	H	0.090816	0.396549	0.086406
	H94	H	0.910231	0.628410	0.094807
	H95	H	0.913271	0.394513	0.895156
	H96	H	0.413000	0.124757	0.583637
	H97	H	0.586511	0.894373	0.596364
	H98	H	0.588544	0.125811	0.399358
	H99	H	0.406851	0.893103	0.400138
	H100	H	0.594706	0.414560	0.110785
	H101	H	0.593646	0.597285	0.880682
	H102	H	0.411749	0.597388	0.106776
	H103	H	0.405281	0.419467	0.877444
	H104	H	0.118002	0.611668	0.403377
	H105	H	0.883692	0.599539	0.592065
	H106	H	0.113135	0.413982	0.575120
	H107	H	0.887044	0.425219	0.400413
	H108	H	0.912072	0.623579	0.080556
	H109	H	0.094259	0.396133	0.084968
	H110	H	0.100053	0.628886	0.902696
	H111	H	0.912150	0.398106	0.911913
	H112	H	0.095019	0.926881	0.607753
	H113	H	0.086796	0.110887	0.378051
	H114	H	0.902535	0.087273	0.606533
	H115	H	0.905590	0.909542	0.374244
	H116	H	0.617003	0.104973	0.899822
	H117	H	0.389518	0.096258	0.083588
	H118	H	0.620497	0.907863	0.090043
	H119	H	0.385236	0.919845	0.901569
	C120	C	0.379486	0.018407	0.615292
	C121	C	0.622933	1.002547	0.615960
	C122	C	0.623001	0.019152	0.372210
	C123	C	0.379289	1.002309	0.372423
	C124	C	0.622852	0.389742	0.002396
	C125	C	0.622273	0.632359	0.986147
	C126	C	0.378418	0.633717	0.003009
	C127	C	0.379666	0.390913	0.986782
	C128	C	0.008922	0.632419	0.372714
	C129	C	0.991924	0.631556	0.616117
	C130	C	0.008685	0.387996	0.617004
	C131	C	0.992795	0.389018	0.372466
	C132	C	0.878406	0.519364	0.116470
	C133	C	0.121965	0.503168	0.116307
	C134	C	0.121889	0.519399	0.873390
	C135	C	0.879119	0.502571	0.873405
	C136	C	0.122379	0.888454	0.502702
	C137	C	0.121928	0.131866	0.486351
	C138	C	0.878625	0.132190	0.502312
	C139	C	0.879586	0.889115	0.486250
	C140	C	0.509159	0.134031	0.871542
	C141	C	0.493373	0.132607	0.114661
	C142	C	0.509738	0.888656	0.116585
	C143	C	0.493323	0.890718	0.873943
	C144	C	0.380861	0.896676	0.673300
	C145	C	0.620612	0.125440	0.670539
	C146	C	0.620930	0.896129	0.317665
	C147	C	0.381036	0.124888	0.315914
	C148	C	0.678025	0.392808	0.879684
	C149	C	0.676864	0.628853	0.109026
	C150	C	0.322320	0.633059	0.880487
	C151	C	0.323889	0.392033	0.109074
	C152	C	0.886351	0.688024	0.374860
	C153	C	0.114620	0.686825	0.613873
	C154	C	0.886215	0.333035	0.614819
	C155	C	0.114907	0.332745	0.374590
	C156	C	0.886449	0.390513	0.672685
	C157	C	0.114499	0.629248	0.671737
	C158	C	0.886550	0.630649	0.317087
	C159	C	0.115165	0.390659	0.316716
	C160	C	0.381030	0.689719	0.880276
	C161	C	0.618897	0.685969	0.109182
	C162	C	0.619765	0.335978	0.879237
	C163	C	0.381828	0.334242	0.108941
	C164	C	0.679292	0.896583	0.374568
	C165	C	0.678395	0.125180	0.613361
	C166	C	0.323768	0.896075	0.614950
	C167	C	0.322362	0.124431	0.372706
	C168	C	0.880411	0.396758	0.172915
	C169	C	0.119332	0.625784	0.171758
	C170	C	0.120126	0.396264	0.818772
	C171	C	0.880629	0.625048	0.816589
	C172	C	0.179556	0.889485	0.380838
	C173	C	0.178951	0.130403	0.608325
	C174	C	0.823274	0.130997	0.379775
	C175	C	0.823511	0.890390	0.608232
	C176	C	0.387351	0.191100	0.872567
	C177	C	0.616001	0.187416	0.112475
	C178	C	0.387444	0.832676	0.115561
	C179	C	0.615616	0.834603	0.875705
	C180	C	0.387597	0.890671	0.172745
	C181	C	0.615809	0.129478	0.170368
	C182	C	0.387624	0.133610	0.814277
	C183	C	0.615673	0.891998	0.817790
	C184	C	0.879676	0.189607	0.380249
	C185	C	0.119906	0.187132	0.608798
	C186	C	0.120674	0.833075	0.380329
	C187	C	0.881529	0.832766	0.608442
	C188	C	0.179026	0.397102	0.875354
	C189	C	0.178095	0.625310	0.115474
	C190	C	0.823395	0.396581	0.114807
	C191	C	0.823999	0.625579	0.874798
	C192	C	0.402378	0.103753	0.591217
	C193	C	0.600456	0.917047	0.594245
	C194	C	0.600218	0.104813	0.394353
	C195	C	0.402394	0.916929	0.395661
	C196	C	0.600796	0.410994	0.088273
	C197	C	0.600623	0.611300	0.900123
	C198	C	0.401167	0.610460	0.088262
	C199	C	0.401919	0.414294	0.901399
	C200	C	0.094360	0.609862	0.394884
	C201	C	0.906680	0.609080	0.593642
	C202	C	0.093860	0.410749	0.594017
	C203	C	0.907520	0.412449	0.395626
	C204	C	0.900616	0.605002	0.093593
	C205	C	0.099348	0.417851	0.093308
	C206	C	0.098845	0.604676	0.895426
	C207	C	0.901569	0.417012	0.896482
	C208	C	0.099784	0.911092	0.587792
	C209	C	0.098963	0.109216	0.401597
	C210	C	0.901507	0.109077	0.587542
	C211	C	0.902433	0.911932	0.400567
	C212	C	0.594196	0.111148	0.894343
	C213	C	0.408235	0.110553	0.092017
	C214	C	0.595201	0.910833	0.093970
	C215	C	0.408225	0.913647	0.896643
	Zn216	Zn	0.501517	0.011259	0.744222
	Zn217	Zn	0.501256	0.010603	0.244014
	Zn218	Zn	0.751036	0.511126	-0.005933
	Zn219	Zn	0.250326	0.511795	-0.005245
	Zn220	Zn	0.001158	0.760097	0.494383
	Zn221	Zn	0.000111	0.260662	0.494392
	Zn222	Zn	0.000353	0.510586	0.744994
	Zn223	Zn	0.000624	0.511092	0.244106
	Zn224	Zn	0.501074	0.761177	-0.005358
	Zn225	Zn	0.501400	0.262116	-0.006231
	Zn226	Zn	0.751027	0.010930	0.494089
	Zn227	Zn	0.250534	0.010189	0.494019
	N228	N	0.414915	0.973992	0.673600
	N229	N	0.586495	0.048234	0.672194
	N230	N	0.586500	0.973239	0.316132
	N231	N	0.415486	0.047781	0.315397
	N232	N	0.680159	0.425310	0.957228
	N233	N	0.679144	0.596131	0.031410
	N234	N	0.320448	0.599087	0.957930
	N235	N	0.322391	0.426294	0.031948
	N236	N	0.963399	0.689112	0.408921
	N237	N	0.037422	0.688274	0.579960
	N238	N	0.963246	0.331296	0.580978
	N239	N	0.037757	0.331868	0.408520
	N240	N	0.963751	0.423916	0.674240
	N241	N	0.037621	0.595365	0.673065
	N242	N	0.963717	0.596925	0.315502
	N243	N	0.038019	0.424776	0.315229
	N244	N	0.414833	0.690563	0.957368
	N245	N	0.585565	0.688121	0.031944
	N246	N	0.586302	0.333744	0.956656
	N247	N	0.415688	0.333388	0.031760
	N248	N	0.680467	0.974092	0.407756
	N249	N	0.680025	0.047883	0.580083
	N250	N	0.322877	0.972889	0.579623
	N251	N	0.321209	0.047234	0.407262
	N252	N	0.913812	0.474054	0.174209
	N253	N	0.085086	0.548593	0.172286
	N254	N	0.085440	0.473213	0.817231
	N255	N	0.914225	0.547520	0.815545
	N256	N	0.180704	0.923193	0.458018
	N257	N	0.180332	0.096686	0.531145
	N258	N	0.822759	0.095963	0.456496
	N259	N	0.822319	0.924646	0.531001
	N260	N	0.463987	0.191559	0.907304
	N261	N	0.538982	0.189340	0.078507
	N262	N	0.464450	0.831358	0.081265
	N263	N	0.538600	0.833651	0.909845
	N264	N	0.464517	0.924741	0.173536
	N265	N	0.538586	0.096033	0.171977
	N266	N	0.464340	0.098695	0.813666
	N267	N	0.538689	0.926280	0.816493
	N268	N	0.913567	0.190408	0.457521
	N269	N	0.085064	0.187967	0.532187
	N270	N	0.085724	0.832640	0.456920
	N271	N	0.915471	0.831787	0.531447
	N272	N	0.179970	0.474488	0.908690
	N273	N	0.179635	0.548287	0.081382
	N274	N	0.822074	0.473941	0.080339
	N275	N	0.823078	0.548499	0.909478
	O276	O	0.993328	1.016176	0.022501
	H277	H	0.996105	1.017911	0.005673
	H278	H	0.995986	1.012418	0.021760
	O279	O	0.097093	-0.041533	0.934905
	H280	H	0.106609	-0.056218	0.942039
	H281	H	0.099119	-0.037934	0.925734
	O282	O	0.004694	-0.027277	-0.045825
	H283	H	0.001863	-0.028588	-0.039835
	H284	H	0.003184	-0.032983	-0.042094
	O285	O	0.432859	0.443542	0.530467
	H286	H	0.427631	0.438580	0.544267
	H287	H	0.429155	0.439921	0.527631
	O288	O	0.043272	0.037423	-0.008680
	H289	H	0.045834	0.022962	-0.004331
	H290	H	0.044755	0.051481	-0.009307
	O291	O	-0.050116	1.073351	-0.051213
	H292	H	-0.053433	1.066908	-0.037490
	H293	H	-0.029014	1.076805	-0.048309
	O294	O	0.042296	0.982169	0.136761
	H295	H	0.044301	0.967607	0.129724
	H296	H	0.035523	0.976171	0.137421
	O297	O	1.015485	0.106188	0.152947
	H298	H	1.003351	0.098619	0.153237
	H299	H	1.020614	0.113088	0.166929
	O300	O	0.483541	0.428670	0.501048
	H301	H	0.496217	0.425469	0.508803
	H302	H	0.474388	0.431325	0.504425
	O303	O	1.001247	0.067633	1.030215
	H304	H	0.996042	0.068763	1.033323
	H305	H	0.995668	0.068673	1.038145
	O306	O	-0.010000	1.049401	0.861168
	H307	H	-0.002078	1.055551	0.861671
	H308	H	-0.006870	1.062901	0.863359
	O309	O	0.078400	0.980583	0.987975
	H310	H	0.077816	0.984316	0.979770
	H311	H	0.071714	0.963855	0.984077
	O312	O	-0.134845	0.007807	1.039541
	H313	H	-0.146114	0.007505	1.036826
	H314	H	-0.132483	0.010798	1.041411
	O315	O	0.527022	0.447527	0.497435
	H316	H	0.522267	0.443219	0.487191
	H317	H	0.523728	0.450259	0.496167
	O318	O	0.101141	-0.100942	0.930197
	H319	H	0.105329	-0.096547	0.905452
	H320	H	0.116248	-0.110282	0.929524
	O321	O	1.057173	0.057308	-0.076586
	H322	H	1.046655	0.061913	-0.072672
	H323	H	1.051832	0.061878	-0.062548
	O324	O	1.005247	0.053156	1.006637
	H325	H	1.014714	0.072049	1.015547
	H326	H	1.006238	0.049071	1.021591
	O327	O	1.078941	1.019419	1.051040
	H328	H	1.077261	1.013439	1.054443
	H329	H	1.070759	1.016556	1.040369
	O330	O	0.523617	0.465354	0.505009
	H331	H	0.525110	0.455693	0.500760
	H332	H	0.527762	0.464307	0.501128
	O333	O	0.005538	0.043106	0.994381
	H334	H	0.007163	0.042754	0.984280
	H335	H	0.015193	0.045804	0.992236
	O336	O	0.971947	0.019916	1.022020
	H337	H	0.977224	0.020280	1.022875
	H338	H	0.984023	0.029546	1.022529
	O339	O	-0.020858	-0.047387	0.971779
	H340	H	-0.016825	-0.053047	0.969186
	H341	H	-0.032523	-0.044088	0.961208
	O342	O	0.150102	0.998604	-0.099153
	H343	H	0.147054	1.005741	-0.095858
	H344	H	0.141624	1.015517	-0.096063
	O345	O	0.499596	0.424896	0.552304
	H346	H	0.502653	0.425341	0.565163
	H347	H	0.503891	0.433659	0.546658
