data_Molecule from HDF5

_cell_length_a		16.536507
_cell_length_b		16.602959
_cell_length_c		16.671765
_cell_angle_alpha	90.059473
_cell_angle_beta	90.032949
_cell_angle_gamma	89.867850
_symmetry_space_group_name_H-M	'P 1'
_symmetry_Int_Tables_number		1

loop_
	_symmetry_equiv_pos_as_xyz
	x,y,z

loop_
	_atom_site_label
	_atom_site_type_symbol
	_atom_site_fract_x
	_atom_site_fract_y
	_atom_site_fract_z
	H0	H	0.391585	0.845011	0.681297
	H1	H	0.603477	0.156302	0.687383
	H2	H	0.603670	0.848401	0.238923
	H3	H	0.387395	0.156713	0.238738
	H4	H	0.717930	0.394713	0.806513
	H5	H	0.719809	0.610308	0.115285
	H6	H	0.270056	0.609741	0.810020
	H7	H	0.273023	0.395475	0.117219
	H8	H	0.839112	0.723992	0.355982
	H9	H	0.152557	0.720959	0.564819
	H10	H	0.839672	0.280436	0.567070
	H11	H	0.152375	0.280233	0.356064
	H12	H	0.840168	0.394525	0.684880
	H13	H	0.151994	0.607064	0.682827
	H14	H	0.839061	0.607200	0.240698
	H15	H	0.151144	0.394256	0.238959
	H16	H	0.381805	0.729658	0.812460
	H17	H	0.603944	0.727030	0.114307
	H18	H	0.602873	0.277389	0.807465
	H19	H	0.389063	0.277994	0.116429
	H20	H	0.717216	0.846248	0.357889
	H21	H	0.720410	0.156930	0.572340
	H22	H	0.279153	0.843328	0.561870
	H23	H	0.270507	0.156007	0.354156
	H24	H	0.888362	0.345844	0.184362
	H25	H	0.099420	0.656749	0.183318
	H26	H	0.102977	0.344991	0.739505
	H27	H	0.888236	0.656242	0.739054
	H28	H	0.214659	0.899293	0.305134
	H29	H	0.216213	0.104882	0.618711
	H30	H	0.772133	0.109343	0.308059
	H31	H	0.777180	0.899138	0.618348
	H32	H	0.338868	0.222819	0.856570
	H33	H	0.651489	0.224079	0.068581
	H34	H	0.341110	0.778879	0.070160
	H35	H	0.650481	0.777540	0.855445
	H36	H	0.342034	0.894754	0.187112
	H37	H	0.650481	0.110712	0.186773
	H38	H	0.339086	0.107802	0.739950
	H39	H	0.650985	0.893094	0.738941
	H40	H	0.888979	0.224207	0.307354
	H41	H	0.103301	0.224168	0.617755
	H42	H	0.098624	0.782329	0.304514
	H43	H	0.891628	0.780509	0.616759
	H44	H	0.218731	0.345711	0.855465
	H45	H	0.216150	0.656608	0.067264
	H46	H	0.774544	0.344978	0.065994
	H47	H	0.773840	0.657597	0.857674
	H48	H	0.403835	0.114592	0.551811
	H49	H	0.582421	0.892367	0.551013
	H50	H	0.582860	0.113661	0.375017
	H51	H	0.411356	0.890632	0.370060
	H52	H	0.582040	0.413946	0.071517
	H53	H	0.584082	0.591178	0.850071
	H54	H	0.407889	0.586259	0.071533
	H55	H	0.411045	0.411577	0.852048
	H56	H	0.106127	0.586845	0.373339
	H57	H	0.884863	0.588243	0.549179
	H58	H	0.107344	0.412815	0.551562
	H59	H	0.882609	0.411857	0.371910
	H60	H	0.107612	0.413219	0.550453
	H61	H	0.883374	0.589506	0.553634
	H62	H	0.108064	0.589826	0.370051
	H63	H	0.884539	0.412537	0.376044
	H64	H	0.410952	0.591277	0.072402
	H65	H	0.583092	0.585734	0.851730
	H66	H	0.583486	0.410453	0.073490
	H67	H	0.404759	0.411700	0.850921
	H68	H	0.582937	0.113352	0.375416
	H69	H	0.586562	0.891602	0.548524
	H70	H	0.408011	0.113517	0.554491
	H71	H	0.409568	0.892558	0.376175
	H72	H	0.902377	0.613987	0.051976
	H73	H	0.087902	0.387888	0.051343
	H74	H	0.079559	0.611267	0.872893
	H75	H	0.910069	0.389246	0.868246
	H76	H	0.086119	0.906795	0.574524
	H77	H	0.084586	0.090058	0.351696
	H78	H	0.911334	0.099972	0.574699
	H79	H	0.906722	0.910149	0.348931
	H80	H	0.607269	0.088162	0.874721
	H81	H	0.384499	0.085794	0.054464
	H82	H	0.605600	0.917668	0.049270
	H83	H	0.381234	0.909730	0.871118
	H84	H	0.608625	0.913466	0.051433
	H85	H	0.382459	0.094721	0.051915
	H86	H	0.605973	0.088230	0.875542
	H87	H	0.386448	0.914664	0.878384
	H88	H	0.899277	0.086701	0.574528
	H89	H	0.083099	0.090314	0.352275
	H90	H	0.089478	0.910894	0.575080
	H91	H	0.904725	0.913848	0.349645
	H92	H	0.085481	0.611584	0.875407
	H93	H	0.079517	0.389781	0.053317
	H94	H	0.909886	0.612813	0.054989
	H95	H	0.910357	0.391938	0.877217
	H96	H	0.408110	0.112416	0.549578
	H97	H	0.586345	0.890090	0.552861
	H98	H	0.583585	0.113417	0.374918
	H99	H	0.405086	0.889424	0.371985
	H100	H	0.586683	0.413131	0.072591
	H101	H	0.579000	0.589622	0.852364
	H102	H	0.405622	0.590488	0.074944
	H103	H	0.407588	0.416839	0.853444
	H104	H	0.107891	0.591131	0.374482
	H105	H	0.883482	0.592329	0.549749
	H106	H	0.107641	0.414278	0.550959
	H107	H	0.884804	0.415602	0.372381
	H108	H	0.908558	0.611117	0.047963
	H109	H	0.082412	0.391672	0.045196
	H110	H	0.084595	0.613862	0.869176
	H111	H	0.902056	0.388957	0.873572
	H112	H	0.084594	0.911853	0.573310
	H113	H	0.084013	0.091487	0.351468
	H114	H	0.916393	0.083354	0.567794
	H115	H	0.908527	0.913635	0.351388
	H116	H	0.605877	0.087394	0.874620
	H117	H	0.386465	0.089034	0.046038
	H118	H	0.606254	0.913113	0.046575
	H119	H	0.385324	0.919321	0.869338
	C120	C	0.375180	0.009797	0.582674
	C121	C	0.617755	0.993938	0.584430
	C122	C	0.617066	0.011114	0.341766
	C123	C	0.374609	0.993540	0.340272
	C124	C	0.616930	0.379560	-0.029952
	C125	C	0.615793	0.622494	0.953177
	C126	C	0.373258	0.623377	-0.028312
	C127	C	0.374524	0.380337	0.954260
	C128	C	0.003566	0.622080	0.341063
	C129	C	0.987354	0.622292	0.582880
	C130	C	0.004314	0.380655	0.583115
	C131	C	0.987019	0.379938	0.340342
	C132	C	0.873569	0.509748	0.083616
	C133	C	0.115502	0.492897	0.082718
	C134	C	0.116888	0.509444	0.840129
	C135	C	0.874388	0.493111	0.840691
	C136	C	0.117465	0.879302	0.470371
	C137	C	0.117219	0.122910	0.454261
	C138	C	0.874704	0.123611	0.470745
	C139	C	0.874929	0.880486	0.453229
	C140	C	0.503479	0.121561	0.841399
	C141	C	0.487034	0.123491	0.083805
	C142	C	0.504319	0.881705	0.082905
	C143	C	0.486908	0.880040	0.840349
	C144	C	0.373648	0.891890	0.641457
	C145	C	0.621362	0.109714	0.646629
	C146	C	0.620957	0.894499	0.280313
	C147	C	0.369843	0.109942	0.279054
	C148	C	0.677546	0.376649	0.853382
	C149	C	0.678753	0.627404	0.068797
	C150	C	0.310540	0.627584	0.856679
	C151	C	0.313456	0.377302	0.070751
	C152	C	0.886116	0.683241	0.338258
	C153	C	0.105325	0.681698	0.584227
	C154	C	0.886728	0.320009	0.585658
	C155	C	0.104773	0.319864	0.337660
	C156	C	0.886822	0.377125	0.643904
	C157	C	0.104854	0.625084	0.642900
	C158	C	0.885868	0.625203	0.280916
	C159	C	0.104128	0.376555	0.279129
	C160	C	0.366326	0.687124	0.857580
	C161	C	0.621120	0.685603	0.068459
	C162	C	0.620386	0.318178	0.853731
	C163	C	0.370874	0.318879	0.070267
	C164	C	0.677669	0.893633	0.339125
	C165	C	0.679421	0.110062	0.589105
	C166	C	0.317355	0.891120	0.582392
	C167	C	0.311675	0.109539	0.336516
	C168	C	0.870249	0.392733	0.144237
	C169	C	0.117946	0.609850	0.143138
	C170	C	0.120311	0.392196	0.779774
	C171	C	0.870434	0.609917	0.779820
	C172	C	0.175140	0.880018	0.352005
	C173	C	0.177033	0.124024	0.571500
	C174	C	0.812596	0.127239	0.354646
	C175	C	0.816318	0.879540	0.570966
	C176	C	0.385951	0.182646	0.838298
	C177	C	0.604634	0.184100	0.086518
	C178	C	0.387613	0.819901	0.087599
	C179	C	0.603722	0.818175	0.837336
	C180	C	0.388093	0.877485	0.145434
	C181	C	0.604075	0.127559	0.145273
	C182	C	0.386109	0.125307	0.780262
	C183	C	0.604092	0.875805	0.779538
	C184	C	0.871074	0.184253	0.354215
	C185	C	0.120975	0.183670	0.570825
	C186	C	0.117709	0.821658	0.351909
	C187	C	0.873159	0.820590	0.570239
	C188	C	0.178030	0.392476	0.837564
	C189	C	0.175903	0.609874	0.085531
	C190	C	0.813739	0.392171	0.085231
	C191	C	0.813660	0.610456	0.838643
	C192	C	0.399470	0.091969	0.558666
	C193	C	0.592308	0.912416	0.558307
	C194	C	0.590792	0.092364	0.367707
	C195	C	0.401165	0.912055	0.365434
	C196	C	0.591323	0.405254	0.051336
	C197	C	0.589294	0.596235	0.872444
	C198	C	0.400654	0.596755	0.052122
	C199	C	0.400533	0.405990	0.873301
	C200	C	0.085933	0.596476	0.365746
	C201	C	0.905127	0.597139	0.557951
	C202	C	0.086136	0.406105	0.558058
	C203	C	0.905201	0.405940	0.365975
	C204	C	0.899435	0.591369	0.058726
	C205	C	0.090517	0.411102	0.057411
	C206	C	0.090650	0.591139	0.865236
	C207	C	0.900070	0.411316	0.865780
	C208	C	0.093719	0.903012	0.552752
	C209	C	0.091386	0.097901	0.372899
	C210	C	0.901422	0.097406	0.551307
	C211	C	0.899552	0.905321	0.371337
	C212	C	0.585074	0.095458	0.867435
	C213	C	0.405619	0.097428	0.058111
	C214	C	0.585673	0.907490	0.056527
	C215	C	0.405471	0.906859	0.865805
	Zn216	Zn	0.495378	0.001355	0.712482
	Zn217	Zn	0.496184	0.002286	0.212147
	Zn218	Zn	0.745377	0.501159	-0.038166
	Zn219	Zn	0.244938	0.501176	-0.037535
	Zn220	Zn	-0.004042	0.751049	0.461573
	Zn221	Zn	-0.003476	0.252172	0.462070
	Zn222	Zn	-0.004165	0.501578	0.711555
	Zn223	Zn	-0.005187	0.501234	0.212059
	Zn224	Zn	0.495033	0.751910	-0.037581
	Zn225	Zn	0.495484	0.250788	-0.038198
	Zn226	Zn	0.746064	0.002444	0.462652
	Zn227	Zn	0.246112	0.001417	0.461878
	N228	N	0.408715	0.966771	0.642004
	N229	N	0.583756	0.036250	0.643911
	N230	N	0.584094	0.968586	0.281659
	N231	N	0.408297	0.036744	0.281302
	N232	N	0.675431	0.414126	0.926719
	N233	N	0.675609	0.588768	-0.003863
	N234	N	0.314735	0.588579	0.928892
	N235	N	0.315527	0.414781	-0.002539
	N236	N	0.960459	0.681443	0.374779
	N237	N	0.031012	0.680301	0.547519
	N238	N	0.960770	0.322053	0.548505
	N239	N	0.030757	0.321579	0.374900
	N240	N	0.960976	0.414113	0.642537
	N241	N	0.030345	0.588968	0.642111
	N242	N	0.960012	0.587811	0.282412
	N243	N	0.029599	0.413200	0.280497
	N244	N	0.404872	0.684655	0.930328
	N245	N	0.582622	0.682663	-0.004506
	N246	N	0.583354	0.319723	0.927391
	N247	N	0.408162	0.320599	-0.003227
	N248	N	0.675506	0.967332	0.376641
	N249	N	0.677391	0.036683	0.551060
	N250	N	0.317960	0.965533	0.546432
	N251	N	0.314513	0.036034	0.373901
	N252	N	0.906592	0.466951	0.143487
	N253	N	0.081023	0.536099	0.141471
	N254	N	0.083021	0.466239	0.781276
	N255	N	0.907375	0.535820	0.780719
	N256	N	0.175438	0.914843	0.426834
	N257	N	0.175115	0.087078	0.497763
	N258	N	0.814466	0.090278	0.428230
	N259	N	0.817212	0.916090	0.497116
	N260	N	0.460026	0.180586	0.875660
	N261	N	0.530850	0.181622	0.048851
	N262	N	0.460916	0.822481	0.049223
	N263	N	0.529617	0.820534	0.874334
	N264	N	0.461593	0.915416	0.142477
	N265	N	0.530039	0.090549	0.143751
	N266	N	0.460338	0.088167	0.781951
	N267	N	0.530117	0.913352	0.781068
	N268	N	0.908857	0.182315	0.427493
	N269	N	0.084647	0.183142	0.496746
	N270	N	0.082941	0.820740	0.426729
	N271	N	0.908573	0.820876	0.495835
	N272	N	0.176341	0.466495	0.874361
	N273	N	0.174425	0.536020	0.048565
	N274	N	0.815128	0.466229	0.048690
	N275	N	0.815971	0.536581	0.875695
	O276	O	0.009334	1.024367	-0.262447
	H277	H	0.016888	1.029492	-0.268750
	H278	H	0.007003	1.031129	-0.259920
	O279	O	0.454167	0.438182	0.266450
	H280	H	0.453448	0.433663	0.259597
	H281	H	0.465466	0.434818	0.269048
	O282	O	0.968770	-0.203591	1.160190
	H283	H	0.960867	-0.215797	1.163670
	H284	H	0.957101	-0.206294	1.166759
	O285	O	0.475181	0.285985	0.672353
	H286	H	0.451399	0.278945	0.677666
	H287	H	0.483890	0.297452	0.683817
	O288	O	0.270603	0.727441	0.418717
	H289	H	0.261575	0.739065	0.387227
	H290	H	0.247987	0.746686	0.401675
	O291	O	-0.218226	-0.030332	0.176052
	H292	H	-0.225657	-0.034779	0.176650
	H293	H	-0.228177	-0.035636	0.181106
	O294	O	1.205851	-0.170760	0.927363
	H295	H	1.206334	-0.173816	0.938235
	H296	H	1.203274	-0.173350	0.934694
	O297	O	-0.028793	0.813469	0.800729
	H298	H	-0.036400	0.808471	0.797825
	H299	H	-0.019273	0.825437	0.802466
	O300	O	-0.135275	0.009260	1.046768
	H301	H	-0.121467	0.003231	1.033598
	H302	H	-0.154327	-0.015498	1.050526
	O303	O	0.287182	0.397111	0.364945
	H304	H	0.275262	0.378136	0.365684
	H305	H	0.300697	0.412342	0.362873
	O306	O	0.282148	0.563177	0.520810
	H307	H	0.286896	0.582113	0.519834
	H308	H	0.278917	0.571429	0.503550
	O309	O	1.029346	0.089965	1.045898
	H310	H	1.026772	0.110836	1.034596
	H311	H	1.018501	0.107038	1.044262
	O312	O	0.699264	0.622023	0.363694
	H313	H	0.711954	0.618750	0.334800
	H314	H	0.676186	0.628626	0.363514
	O315	O	1.256753	1.267854	1.197797
	H316	H	1.226851	1.274624	1.198118
	H317	H	1.255458	1.254171	1.190963
	O318	O	0.691221	0.377857	0.329019
	H319	H	0.658624	0.386764	0.326047
	H320	H	0.690605	0.358333	0.360228
	O321	O	0.553913	1.628358	0.404857
	H322	H	0.536687	1.623111	0.415938
	H323	H	0.551357	1.631436	0.421987
	O324	O	1.300249	1.459912	0.341175
	H325	H	1.299520	1.478428	0.345873
	H326	H	1.284331	1.462110	0.328683
	O327	O	0.171053	-0.173975	0.809721
	H328	H	0.159133	-0.174568	0.825626
	H329	H	0.180075	-0.179465	0.810637
	O330	O	0.990506	0.163118	1.006133
	H331	H	0.983725	0.159306	1.010812
	H332	H	0.977809	0.155717	0.993963
	O333	O	0.559309	0.550743	0.233402
	H334	H	0.575960	0.544565	0.238308
	H335	H	0.557209	0.563705	0.226318
	O336	O	1.131198	0.187106	-0.183585
	H337	H	1.144614	0.200330	-0.180172
	H338	H	1.143892	0.172521	-0.168362
	O339	O	1.194005	-0.931092	0.896427
	H340	H	1.199236	-0.929402	0.887278
	H341	H	1.190341	-0.938418	0.903420
	O342	O	-0.559627	0.341896	0.488655
	H343	H	-0.562212	0.341906	0.489232
	H344	H	-0.590839	0.342974	0.487698
	O345	O	-0.477776	1.287320	1.249059
	H346	H	-0.491104	1.274860	1.273830
	H347	H	-0.485293	1.283465	1.229449
	O348	O	0.185018	-0.188994	0.147640
	H349	H	0.158633	-0.179953	0.124208
	H350	H	0.172561	-0.162426	0.135206
	O351	O	0.410888	0.583997	0.691953
	H352	H	0.418620	0.614178	0.697411
	H353	H	0.436711	0.569314	0.678652
	O354	O	-0.421858	0.420449	1.679431
	H355	H	-0.403568	0.424117	1.675460
	H356	H	-0.418005	0.421938	1.674389
	O357	O	-0.039660	0.213681	-0.257704
	H358	H	-0.039074	0.223416	-0.249602
	H359	H	-0.031736	0.223100	-0.263575
	O360	O	0.703260	0.535908	0.683129
	H361	H	0.721176	0.535147	0.700429
	H362	H	0.714423	0.536526	0.667391
	O363	O	0.278517	0.279999	0.492031
	H364	H	0.266512	0.286870	0.500141
	H365	H	0.256820	0.269571	0.500460
	O366	O	0.470334	0.534052	0.498152
	H367	H	0.471247	0.529763	0.497725
	H368	H	0.470485	0.541822	0.501966
	O369	O	0.780481	0.218318	-0.066312
	H370	H	0.761750	0.231330	-0.075939
	H371	H	0.778941	0.211003	-0.085555
	O372	O	0.677728	0.659777	0.300514
	H373	H	0.652052	0.665444	0.298356
	H374	H	0.669466	0.631596	0.309748
	O375	O	0.515631	-0.605812	0.489185
	H376	H	0.510167	-0.597099	0.492089
	H377	H	0.509230	-0.617063	0.494488
	O378	O	1.009247	0.873644	0.867079
	H379	H	1.003232	0.888351	0.865123
	H380	H	1.021208	0.888188	0.853641
	O381	O	0.085113	0.897848	1.049823
	H382	H	0.062366	0.898687	1.046789
	H383	H	0.070675	0.884999	1.050874
	O384	O	1.206935	0.023834	1.167328
	H385	H	1.198134	0.025834	1.160604
	H386	H	1.213648	0.019140	1.190302
	O387	O	0.965985	0.928731	0.021935
	H388	H	0.964607	0.928854	0.015196
	H389	H	0.964562	0.926388	0.018290
	O390	O	0.538888	0.273966	0.457001
	H391	H	0.514864	0.285974	0.460224
	H392	H	0.530837	0.268180	0.475155
	O393	O	0.695100	0.472750	0.536713
	H394	H	0.694108	0.465531	0.519707
	H395	H	0.695837	0.472825	0.524297
	O396	O	-0.441449	0.595496	1.495389
	H397	H	-0.441352	0.592839	1.496627
	H398	H	-0.437712	0.598055	1.479669
	O399	O	0.210117	-0.035177	0.744226
	H400	H	0.219693	-0.031822	0.745156
	H401	H	0.213818	-0.052604	0.732610
	O402	O	0.281946	0.466945	0.679308
	H403	H	0.265322	0.480928	0.685478
	H404	H	0.296601	0.487044	0.693557
	O405	O	1.077521	0.075242	0.920974
	H406	H	1.067970	0.073688	0.937351
	H407	H	1.083926	0.067537	0.913734
	O408	O	0.481092	0.721003	0.318055
	H409	H	0.464347	0.731911	0.320954
	H410	H	0.463167	0.725329	0.333105
	O411	O	0.467991	0.548433	0.473159
	H412	H	0.448450	0.556672	0.476016
	H413	H	0.475278	0.541972	0.463056
	O414	O	0.990119	0.146234	0.176144
	H415	H	0.972145	0.160679	0.175584
	H416	H	0.979395	0.160578	0.180733
	O417	O	-0.027043	1.032524	0.904486
	H418	H	-0.036428	1.034517	0.903199
	H419	H	-0.015704	1.029011	0.902640
	O420	O	-0.224253	1.060354	1.017580
	H421	H	-0.233994	1.072068	1.030321
	H422	H	-0.213010	1.057377	1.013829
	O423	O	-0.109694	-0.212746	0.856013
	H424	H	-0.137747	-0.227875	0.843252
	H425	H	-0.109770	-0.205836	0.846839
	O426	O	0.289903	0.706999	0.668048
	H427	H	0.280962	0.719030	0.681568
	H428	H	0.298946	0.691504	0.664505
	O429	O	0.438967	0.670679	0.424077
	H430	H	0.414972	0.670742	0.424252
	H431	H	0.435541	0.670765	0.444531
	O432	O	0.647744	0.304890	0.608402
	H433	H	0.640117	0.302519	0.607912
	H434	H	0.638807	0.323096	0.599738
	O435	O	-0.211206	0.795412	-0.003238
	H436	H	-0.223360	0.784173	-0.005195
	H437	H	-0.219237	0.809062	-0.008295
	O438	O	-0.055178	-0.042684	-0.057455
	H439	H	-0.058636	-0.051392	-0.073772
	H440	H	-0.066344	-0.025489	-0.033322
	O441	O	0.230415	-0.046769	0.015284
	H442	H	0.225270	-0.038345	0.017442
	H443	H	0.235598	-0.050256	0.018084
	O444	O	0.707408	0.725653	0.495811
	H445	H	0.707660	0.711605	0.470998
	H446	H	0.728555	0.752555	0.484254
	O447	O	0.314341	1.310534	1.652092
	H448	H	0.331693	1.319539	1.643727
	H449	H	0.302262	1.342987	1.648193
	O450	O	0.223464	1.233881	1.076940
	H451	H	0.229746	1.228697	1.074305
	H452	H	0.228633	1.236511	1.090232
	O453	O	0.786402	0.888856	0.854633
	H454	H	0.770793	0.883833	0.845830
	H455	H	0.803862	0.906624	0.834957
	O456	O	-0.213344	0.030047	0.758869
	H457	H	-0.205900	0.029803	0.761245
	H458	H	-0.237113	0.031117	0.740390
	O459	O	0.716822	0.311886	0.435237
	H460	H	0.700330	0.291493	0.445177
	H461	H	0.721178	0.298210	0.434562
	O462	O	0.789168	-0.199771	1.168133
	H463	H	0.783769	-0.191298	1.162353
	H464	H	0.785577	-0.210670	1.162533
	O465	O	1.712760	0.472229	0.248206
	H466	H	1.726245	0.462490	0.233942
	H467	H	1.718925	0.448925	0.250564
	O468	O	0.704834	0.707140	0.669068
	H469	H	0.682918	0.673594	0.675478
	H470	H	0.710291	0.711250	0.615793
	O471	O	0.791448	0.200954	0.759946
	H472	H	0.816003	0.179730	0.755554
	H473	H	0.787427	0.214587	0.761197
	O474	O	0.049748	0.956937	0.184850
	H475	H	0.032732	0.952974	0.179704
	H476	H	0.038950	0.970171	0.184370
	O477	O	0.287538	0.583789	1.256739
	H478	H	0.290897	0.573587	1.242286
	H479	H	0.305268	0.578920	1.242872
	O480	O	0.807069	0.228467	0.155243
	H481	H	0.810616	0.224408	0.163022
	H482	H	0.784861	0.238539	0.163804
	O483	O	0.019814	1.186604	-0.109225
	H484	H	0.019671	1.191808	-0.114675
	H485	H	0.021845	1.178281	-0.107821
	O486	O	1.517065	-0.279601	1.690094
	H487	H	1.510612	-0.263328	1.713543
	H488	H	1.536174	-0.270594	1.681388
	O489	O	1.331831	0.707503	0.252394
	H490	H	1.339835	0.675139	0.253775
	H491	H	1.315087	0.725076	0.225400
