data_Molecule from HDF5

_cell_length_a		16.291871
_cell_length_b		16.454677
_cell_length_c		16.320219
_cell_angle_alpha	89.700743
_cell_angle_beta	90.221201
_cell_angle_gamma	89.825122
_symmetry_space_group_name_H-M	'P 1'
_symmetry_Int_Tables_number		1

loop_
	_symmetry_equiv_pos_as_xyz
	x,y,z

loop_
	_atom_site_label
	_atom_site_type_symbol
	_atom_site_fract_x
	_atom_site_fract_y
	_atom_site_fract_z
	H0	H	0.386714	0.829651	0.736907
	H1	H	0.593044	0.149369	0.734354
	H2	H	0.594067	0.829529	0.298557
	H3	H	0.386955	0.149308	0.295243
	H4	H	0.709309	0.388933	0.855268
	H5	H	0.709264	0.589660	0.178405
	H6	H	0.272757	0.591541	0.855481
	H7	H	0.278137	0.388514	0.179546
	H8	H	0.830745	0.709047	0.409599
	H9	H	0.151908	0.705971	0.619988
	H10	H	0.828605	0.270807	0.620459
	H11	H	0.150954	0.267505	0.414473
	H12	H	0.828037	0.387320	0.733645
	H13	H	0.151267	0.589762	0.735219
	H14	H	0.830396	0.591925	0.296747
	H15	H	0.153495	0.385939	0.301470
	H16	H	0.385783	0.710273	0.856867
	H17	H	0.595892	0.707543	0.177617
	H18	H	0.597641	0.270779	0.855397
	H19	H	0.389033	0.268148	0.176405
	H20	H	0.709510	0.829194	0.414053
	H21	H	0.709317	0.149164	0.618590
	H22	H	0.272672	0.828467	0.618539
	H23	H	0.269376	0.148864	0.410256
	H24	H	0.890539	0.328756	0.236361
	H25	H	0.096330	0.647874	0.237084
	H26	H	0.091862	0.327715	0.800827
	H27	H	0.887111	0.648263	0.796646
	H28	H	0.209110	0.887088	0.355093
	H29	H	0.208807	0.088037	0.677861
	H30	H	0.772637	0.091376	0.354505
	H31	H	0.776159	0.888546	0.678886
	H32	H	0.331320	0.210125	0.911006
	H33	H	0.653907	0.206467	0.118155
	H34	H	0.330600	0.771127	0.120210
	H35	H	0.650971	0.769371	0.913212
	H36	H	0.328809	0.889984	0.233078
	H37	H	0.652187	0.092594	0.236490
	H38	H	0.329274	0.090766	0.798294
	H39	H	0.652830	0.889071	0.800902
	H40	H	0.884038	0.211802	0.357186
	H41	H	0.093100	0.204810	0.678538
	H42	H	0.095814	0.768486	0.356275
	H43	H	0.888554	0.768914	0.676715
	H44	H	0.208177	0.327658	0.918616
	H45	H	0.211281	0.648617	0.120831
	H46	H	0.774721	0.328053	0.118712
	H47	H	0.771173	0.648752	0.912310
	H48	H	0.400456	0.103018	0.607721
	H49	H	0.585248	0.875149	0.604979
	H50	H	0.577233	0.101822	0.426135
	H51	H	0.409950	0.877718	0.421938
	H52	H	0.584258	0.396849	0.133159
	H53	H	0.583480	0.577309	0.901579
	H54	H	0.401750	0.572857	0.129754
	H55	H	0.396944	0.399194	0.900744
	H56	H	0.101966	0.573423	0.431857
	H57	H	0.875299	0.580902	0.607741
	H58	H	0.108667	0.389474	0.611591
	H59	H	0.879244	0.402589	0.431802
	H60	H	0.103534	0.395661	0.602475
	H61	H	0.874995	0.580824	0.603200
	H62	H	0.108393	0.578184	0.420331
	H63	H	0.876451	0.403503	0.422672
	H64	H	0.408660	0.583794	0.130509
	H65	H	0.575866	0.579609	0.903784
	H66	H	0.581634	0.399922	0.129632
	H67	H	0.402171	0.402121	0.902513
	H68	H	0.584698	0.102702	0.428126
	H69	H	0.584447	0.873238	0.612691
	H70	H	0.400641	0.101687	0.603798
	H71	H	0.397811	0.878781	0.434440
	H72	H	0.900011	0.604741	0.112677
	H73	H	0.090432	0.374437	0.104704
	H74	H	0.081086	0.603726	0.922556
	H75	H	0.907111	0.376047	0.924235
	H76	H	0.079090	0.890909	0.630999
	H77	H	0.077553	0.079883	0.402973
	H78	H	0.895135	0.091500	0.637265
	H79	H	0.903105	0.900453	0.402037
	H80	H	0.606441	0.082449	0.927609
	H81	H	0.379287	0.077029	0.103666
	H82	H	0.603442	0.904600	0.104673
	H83	H	0.374669	0.899554	0.923293
	H84	H	0.608944	0.897477	0.114696
	H85	H	0.376252	0.080906	0.106583
	H86	H	0.605413	0.077653	0.925508
	H87	H	0.375123	0.896439	0.928631
	H88	H	0.892499	0.068985	0.630813
	H89	H	0.077105	0.079187	0.402693
	H90	H	0.086470	0.898276	0.632381
	H91	H	0.900697	0.895409	0.401185
	H92	H	0.078510	0.601480	0.927180
	H93	H	0.085232	0.371703	0.117541
	H94	H	0.906943	0.599848	0.105119
	H95	H	0.898009	0.375934	0.932990
	H96	H	0.397290	0.102788	0.605673
	H97	H	0.578388	0.876694	0.608947
	H98	H	0.582020	0.104838	0.421161
	H99	H	0.394011	0.871796	0.419165
	H100	H	0.580160	0.394773	0.130683
	H101	H	0.581214	0.584960	0.900740
	H102	H	0.396591	0.583009	0.135713
	H103	H	0.401990	0.396183	0.901491
	H104	H	0.107591	0.586249	0.431137
	H105	H	0.875867	0.577252	0.605583
	H106	H	0.105253	0.401322	0.613484
	H107	H	0.875439	0.394765	0.427212
	H108	H	0.895742	0.602928	0.102308
	H109	H	0.077180	0.377703	0.107544
	H110	H	0.084304	0.602470	0.927615
	H111	H	0.895500	0.371901	0.921192
	H112	H	0.076683	0.900636	0.628049
	H113	H	0.077036	0.079780	0.403085
	H114	H	0.913105	0.079987	0.627232
	H115	H	0.897677	0.899761	0.400637
	H116	H	0.608859	0.081221	0.921781
	H117	H	0.377234	0.082389	0.101415
	H118	H	0.606625	0.891595	0.102672
	H119	H	0.377057	0.901972	0.928702
	C120	C	0.368907	-0.003040	0.637313
	C121	C	0.612701	0.981071	0.638545
	C122	C	0.612262	-0.002426	0.394725
	C123	C	0.368051	0.980863	0.392899
	C124	C	0.613165	0.367714	0.024904
	C125	C	0.612266	0.610895	1.008329
	C126	C	0.369748	0.611244	0.025764
	C127	C	0.370961	0.368071	1.008375
	C128	C	0.000029	0.610668	0.394905
	C129	C	0.982036	0.609589	0.636951
	C130	C	-0.001289	0.366348	0.639233
	C131	C	0.983116	0.368198	0.396933
	C132	C	0.870448	0.496934	0.138066
	C133	C	0.114713	0.480247	0.140226
	C134	C	0.112163	0.496778	0.895832
	C135	C	0.868478	0.480093	0.894147
	C136	C	0.112546	0.866243	0.524478
	C137	C	0.109952	0.109432	0.508792
	C138	C	0.868461	0.111405	0.525269
	C139	C	0.869841	0.867356	0.507892
	C140	C	0.500062	0.111028	0.894078
	C141	C	0.483779	0.110587	0.136197
	C142	C	0.499665	0.867830	0.138169
	C143	C	0.482197	0.868727	0.895945
	C144	C	0.368235	0.877021	0.696750
	C145	C	0.612346	0.101327	0.695660
	C146	C	0.613138	0.877613	0.337288
	C147	C	0.367411	0.101269	0.334074
	C148	C	0.670830	0.369279	0.903556
	C149	C	0.670575	0.609753	0.129949
	C150	C	0.311220	0.611267	0.904240
	C151	C	0.315534	0.368507	0.130404
	C152	C	0.878988	0.669577	0.391892
	C153	C	0.103505	0.666793	0.638158
	C154	C	0.877057	0.309317	0.639359
	C155	C	0.103421	0.308088	0.396084
	C156	C	0.876721	0.367720	0.695526
	C157	C	0.103370	0.609131	0.695715
	C158	C	0.878873	0.611283	0.335514
	C159	C	0.104651	0.366947	0.339641
	C160	C	0.367480	0.670483	0.904999
	C161	C	0.613739	0.668229	0.129385
	C162	C	0.615302	0.310114	0.903597
	C163	C	0.370918	0.308646	0.128753
	C164	C	0.670709	0.877507	0.394992
	C165	C	0.670394	0.101222	0.637974
	C166	C	0.311328	0.876643	0.637757
	C167	C	0.309054	0.101069	0.391638
	C168	C	0.871127	0.376518	0.196549
	C169	C	0.115251	0.600161	0.198138
	C170	C	0.111492	0.375823	0.839493
	C171	C	0.867735	0.600147	0.835425
	C172	C	0.170519	0.866822	0.403455
	C173	C	0.169707	0.108359	0.629766
	C174	C	0.810929	0.111281	0.403435
	C175	C	0.813733	0.868423	0.629929
	C176	C	0.379037	0.170223	0.892455
	C177	C	0.605341	0.167693	0.137297
	C178	C	0.378526	0.810287	0.138968
	C179	C	0.603170	0.809439	0.894751
	C180	C	0.377804	0.869252	0.195192
	C181	C	0.604402	0.111231	0.196262
	C182	C	0.378072	0.110906	0.836532
	C183	C	0.603996	0.868896	0.838921
	C184	C	0.866579	0.171043	0.404585
	C185	C	0.111991	0.166250	0.630143
	C186	C	0.114116	0.807881	0.404076
	C187	C	0.869687	0.808942	0.628932
	C188	C	0.169301	0.375713	0.898038
	C189	C	0.172516	0.600488	0.139987
	C190	C	0.813186	0.376317	0.138328
	C191	C	0.810210	0.600637	0.893310
	C192	C	0.392741	0.080775	0.612698
	C193	C	0.589355	0.897116	0.615498
	C194	C	0.588044	0.081497	0.418185
	C195	C	0.393210	0.897617	0.417942
	C196	C	0.588931	0.390395	0.109162
	C197	C	0.587323	0.587452	0.923962
	C198	C	0.394901	0.586902	0.110130
	C199	C	0.393631	0.392193	0.923583
	C200	C	0.084201	0.586307	0.420318
	C201	C	0.897514	0.586182	0.612540
	C202	C	0.083620	0.388832	0.615883
	C203	C	0.898937	0.393109	0.420599
	C204	C	0.893903	0.580658	0.113746
	C205	C	0.091031	0.396342	0.116725
	C206	C	0.088284	0.580611	0.918955
	C207	C	0.892927	0.396300	0.919034
	C208	C	0.088163	0.889942	0.608520
	C209	C	0.084607	0.086161	0.424786
	C210	C	0.893069	0.087144	0.609944
	C211	C	0.893511	0.891389	0.423172
	C212	C	0.584837	0.087324	0.917977
	C213	C	0.399484	0.086983	0.111369
	C214	C	0.584226	0.891055	0.114302
	C215	C	0.397705	0.892525	0.919735
	Zn216	Zn	0.490408	-0.010962	0.766842
	Zn217	Zn	0.491111	-0.010302	0.265535
	Zn218	Zn	0.740745	0.489538	0.016639
	Zn219	Zn	0.241936	0.489218	0.017453
	Zn220	Zn	-0.009447	0.738450	0.516072
	Zn221	Zn	-0.010034	0.239403	0.517742
	Zn222	Zn	-0.009781	0.488599	0.765627
	Zn223	Zn	-0.007933	0.488852	0.267894
	Zn224	Zn	0.491266	0.739782	0.017035
	Zn225	Zn	0.492423	0.239350	0.015146
	Zn226	Zn	0.741411	-0.011180	0.516465
	Zn227	Zn	0.239895	-0.011056	0.515380
	N228	N	0.403414	0.952876	0.696399
	N229	N	0.577021	0.025568	0.696111
	N230	N	0.577404	0.953333	0.337007
	N231	N	0.403490	0.025612	0.334864
	N232	N	0.669774	0.404236	0.979849
	N233	N	0.669755	0.574600	0.053763
	N234	N	0.312409	0.575292	0.980469
	N235	N	0.315409	0.404827	0.054309
	N236	N	0.955195	0.669243	0.428074
	N237	N	0.027095	0.666987	0.602117
	N238	N	0.953977	0.308220	0.605040
	N239	N	0.026902	0.308819	0.431107
	N240	N	0.953352	0.402410	0.695453
	N241	N	0.026978	0.574196	0.694998
	N242	N	0.955283	0.575439	0.337039
	N243	N	0.028798	0.403671	0.340017
	N244	N	0.403055	0.670697	0.981518
	N245	N	0.578176	0.668832	0.052766
	N246	N	0.579915	0.308887	0.980012
	N247	N	0.404733	0.308329	0.051769
	N248	N	0.670206	0.953153	0.430227
	N249	N	0.670700	0.025431	0.603106
	N250	N	0.311696	0.952212	0.601453
	N251	N	0.309175	0.025304	0.427324
	N252	N	0.905980	0.452477	0.196558
	N253	N	0.080008	0.524341	0.198525
	N254	N	0.076795	0.452128	0.837958
	N255	N	0.903521	0.524350	0.836207
	N256	N	0.169760	0.902306	0.479348
	N257	N	0.168527	0.073676	0.553302
	N258	N	0.811987	0.075198	0.479504
	N259	N	0.813733	0.903905	0.553469
	N260	N	0.455868	0.170429	0.927524
	N261	N	0.529421	0.167275	0.100431
	N262	N	0.455171	0.809355	0.104346
	N263	N	0.526470	0.809313	0.929705
	N264	N	0.454145	0.904428	0.194823
	N265	N	0.527931	0.076235	0.195417
	N266	N	0.454439	0.075228	0.837219
	N267	N	0.527793	0.904752	0.839340
	N268	N	0.901463	0.171312	0.481595
	N269	N	0.075840	0.167259	0.553962
	N270	N	0.078806	0.807431	0.480352
	N271	N	0.903622	0.808111	0.551982
	N272	N	0.170126	0.451820	0.932198
	N273	N	0.172336	0.524844	0.104827
	N274	N	0.812605	0.452167	0.102600
	N275	N	0.810579	0.524859	0.929280
	O276	O	0.372044	0.573913	0.511391
	H277	H	0.378293	0.582157	0.503123
	H278	H	0.378379	0.569216	0.502521
	O279	O	0.527085	0.499781	0.631733
	H280	H	0.533341	0.489908	0.622707
	H281	H	0.526693	0.493726	0.613474
	O282	O	1.050129	0.080765	0.984061
	H283	H	1.047816	0.087247	0.991487
	H284	H	1.038662	0.074338	0.991747
	O285	O	0.550113	0.435057	0.637764
	H286	H	0.551143	0.415618	0.631172
	H287	H	0.546448	0.433925	0.644100
	O288	O	0.912624	0.853748	1.093586
	H289	H	0.910414	0.874420	1.102230
	H290	H	0.943125	0.849865	1.099424
	O291	O	0.466916	1.529250	0.405083
	H292	H	0.469083	1.539132	0.416129
	H293	H	0.471503	1.533067	0.416023
	O294	O	0.445729	0.312045	0.438340
	H295	H	0.446978	0.313070	0.440311
	H296	H	0.454328	0.306595	0.453072
	O297	O	0.299332	0.593959	0.428074
	H298	H	0.299522	0.598553	0.428102
	H299	H	0.310038	0.582737	0.408486
	O300	O	0.401730	0.386193	0.551810
	H301	H	0.408093	0.388113	0.547003
	H302	H	0.387486	0.403460	0.559724
	O303	O	0.590111	0.401643	0.615404
	H304	H	0.583247	0.396015	0.603960
	H305	H	0.574932	0.393773	0.610297
	O306	O	0.775454	0.883614	0.877010
	H307	H	0.772700	0.889479	0.871292
	H308	H	0.771725	0.879957	0.880820
	O309	O	0.640101	0.415485	0.408155
	H310	H	0.640798	0.414835	0.396975
	H311	H	0.631374	0.424767	0.407370
	O312	O	-0.145666	-0.104078	0.095876
	H313	H	-0.151399	-0.118691	0.110196
	H314	H	-0.145246	-0.102038	0.120472
	O315	O	0.593225	0.468100	0.381324
	H316	H	0.606731	0.475065	0.370935
	H317	H	0.588733	0.461581	0.382094
	O318	O	0.122633	0.879549	1.008411
	H319	H	0.132800	0.860408	0.991144
	H320	H	0.121878	0.886526	0.986720
	O321	O	0.589943	0.624795	0.597535
	H322	H	0.574264	0.626304	0.597972
	H323	H	0.583967	0.615972	0.604545
	O324	O	0.586208	0.648719	-0.473982
	H325	H	0.596272	0.659868	-0.473425
	H326	H	0.576157	0.637412	-0.463565
	O327	O	-0.096008	1.029629	-0.123578
	H328	H	-0.103591	1.032161	-0.131034
	H329	H	-0.107776	1.024279	-0.113326
	O330	O	0.080761	0.068168	0.916886
	H331	H	0.083602	0.061139	0.921819
	H332	H	0.079033	0.067117	0.922637
	O333	O	-0.050891	-0.166717	0.878910
	H334	H	-0.055083	-0.167548	0.888857
	H335	H	-0.063825	-0.178098	0.888680
	O336	O	0.366924	0.568694	0.513273
	H337	H	0.364984	0.566974	0.526511
	H338	H	0.356449	0.559647	0.512758
	O339	O	0.996769	0.046124	-0.061559
	H340	H	0.981059	0.050356	-0.063130
	H341	H	0.998468	0.037260	-0.060204
	O342	O	0.076683	0.137511	0.062100
	H343	H	0.076040	0.122649	0.075374
	H344	H	0.076715	0.143228	0.056435
	O345	O	0.839543	0.047939	1.026960
	H346	H	0.835000	0.056758	1.020595
	H347	H	0.862385	0.048974	1.022394
	O348	O	1.031058	0.825219	0.168707
	H349	H	1.054270	0.827972	0.156095
	H350	H	1.037085	0.807224	0.178227
	O351	O	0.425092	0.626664	0.463251
	H352	H	0.410821	0.628642	0.457247
	H353	H	0.429915	0.617704	0.465345
	O354	O	0.820110	-0.070477	1.107593
	H355	H	0.809407	-0.070075	1.106396
	H356	H	0.810931	-0.070176	1.110144
	O357	O	0.596771	0.512997	0.492991
	H358	H	0.584937	0.503232	0.496329
	H359	H	0.605340	0.516412	0.508140
	O360	O	0.840220	0.009678	-0.022568
	H361	H	0.839400	0.014159	-0.039563
	H362	H	0.846475	0.022034	-0.024221
	O363	O	0.044716	0.903161	0.897878
	H364	H	0.029414	0.915957	0.893936
	H365	H	0.026502	0.908636	0.894006
	O366	O	0.674048	0.362367	0.394213
	H367	H	0.673401	0.367398	0.378697
	H368	H	0.691504	0.360590	0.382185
	O369	O	-0.445625	0.309909	-0.497143
	H370	H	-0.428567	0.290906	-0.497907
	H371	H	-0.453495	0.321936	-0.494067
	O372	O	0.482114	0.628349	0.680494
	H373	H	0.479244	0.614553	0.676033
	H374	H	0.475541	0.642621	0.693805
	O375	O	0.400137	0.562168	0.553152
	H376	H	0.396679	0.554825	0.545338
	H377	H	0.413410	0.566324	0.551904
	O378	O	1.032955	1.039419	-0.036536
	H379	H	1.042068	1.034473	-0.022960
	H380	H	1.043859	1.036949	-0.033617
	O381	O	0.944486	0.060638	0.141148
	H382	H	0.939200	0.052230	0.142424
	H383	H	0.944508	0.062665	0.141345
	O384	O	1.150685	0.952432	0.063043
	H385	H	1.144925	0.960142	0.050670
	H386	H	1.161168	0.974932	0.058078
	O387	O	0.052798	0.130249	0.084708
	H388	H	0.054706	0.132771	0.072101
	H389	H	0.041577	0.127368	0.074441
	O390	O	0.406935	1.322863	-0.320973
	H391	H	0.409606	1.322368	-0.320551
	H392	H	0.398346	1.332954	-0.328898
	O393	O	0.967547	1.059689	0.919996
	H394	H	0.968935	1.062158	0.920748
	H395	H	0.961640	1.050525	0.931687
	O396	O	0.062200	0.013044	0.193861
	H397	H	0.063060	-0.000414	0.180906
	H398	H	0.061969	0.028561	0.196023
	O399	O	0.100916	0.889902	1.045599
	H400	H	0.101147	0.896158	1.037479
	H401	H	0.112381	0.890270	1.045785
	O402	O	0.500007	0.425049	0.455724
	H403	H	0.490209	0.435636	0.461921
	H404	H	0.497682	0.429632	0.452255
	O405	O	1.068991	1.055310	-0.073885
	H406	H	1.061492	1.055550	-0.067445
	H407	H	1.065582	1.060026	-0.083304
	O408	O	1.409044	1.645597	-0.621335
	H409	H	1.410894	1.660288	-0.613683
	H410	H	1.394409	1.639552	-0.626068
	O411	O	1.134020	-0.129976	1.077284
	H412	H	1.139136	-0.144791	1.065754
	H413	H	1.145928	-0.128570	1.080123
	O414	O	0.350044	0.447025	0.659206
	H415	H	0.337533	0.460767	0.665692
	H416	H	0.356215	0.458642	0.662951
	O417	O	0.482815	0.416371	0.389207
	H418	H	0.478316	0.416066	0.393794
	H419	H	0.491847	0.419330	0.400272
