data_Molecule from HDF5

_cell_length_a		16.363191
_cell_length_b		16.327521
_cell_length_c		16.304276
_cell_angle_alpha	89.963725
_cell_angle_beta	90.110609
_cell_angle_gamma	89.884162
_symmetry_space_group_name_H-M	'P 1'
_symmetry_Int_Tables_number		1

loop_
	_symmetry_equiv_pos_as_xyz
	x,y,z

loop_
	_atom_site_label
	_atom_site_type_symbol
	_atom_site_fract_x
	_atom_site_fract_y
	_atom_site_fract_z
	H0	H	0.402266	0.840155	0.717500
	H1	H	0.596933	0.166583	0.717761
	H2	H	0.597496	0.839564	0.289868
	H3	H	0.400144	0.167032	0.288240
	H4	H	0.713386	0.404407	0.839464
	H5	H	0.714243	0.600907	0.166421
	H6	H	0.284086	0.601775	0.839052
	H7	H	0.285550	0.405536	0.166372
	H8	H	0.836030	0.718328	0.403331
	H9	H	0.161949	0.717340	0.601727
	H10	H	0.835967	0.290063	0.598436
	H11	H	0.161861	0.287423	0.404186
	H12	H	0.836295	0.404602	0.716812
	H13	H	0.161935	0.600926	0.718612
	H14	H	0.835305	0.601483	0.287346
	H15	H	0.162413	0.405073	0.288449
	H16	H	0.400845	0.717275	0.838864
	H17	H	0.597773	0.716912	0.166657
	H18	H	0.595373	0.289825	0.839313
	H19	H	0.402164	0.289046	0.166739
	H20	H	0.714033	0.839865	0.404881
	H21	H	0.714263	0.166107	0.602135
	H22	H	0.284543	0.840163	0.602855
	H23	H	0.282681	0.165430	0.403260
	H24	H	0.903250	0.338782	0.216055
	H25	H	0.095974	0.667454	0.216696
	H26	H	0.096643	0.339186	0.790171
	H27	H	0.900516	0.666409	0.788072
	H28	H	0.214664	0.903899	0.339737
	H29	H	0.214141	0.101280	0.665602
	H30	H	0.784310	0.101199	0.339549
	H31	H	0.786764	0.905109	0.667136
	H32	H	0.335758	0.216796	0.905751
	H33	H	0.661782	0.217859	0.101696
	H34	H	0.335892	0.787941	0.102020
	H35	H	0.662614	0.789825	0.906720
	H36	H	0.335884	0.907017	0.217159
	H37	H	0.662541	0.101234	0.217229
	H38	H	0.336600	0.101366	0.787670
	H39	H	0.662436	0.905991	0.790041
	H40	H	0.901372	0.216937	0.339653
	H41	H	0.096366	0.216308	0.666751
	H42	H	0.096644	0.788902	0.338404
	H43	H	0.901659	0.788098	0.666323
	H44	H	0.213868	0.339662	0.905769
	H45	H	0.214476	0.667094	0.101818
	H46	H	0.784288	0.339928	0.102033
	H47	H	0.783488	0.665936	0.903572
	H48	H	0.410078	0.119571	0.602529
	H49	H	0.586144	0.887734	0.602504
	H50	H	0.584555	0.115915	0.412615
	H51	H	0.414659	0.887483	0.401393
	H52	H	0.598377	0.405354	0.122415
	H53	H	0.586010	0.601632	0.887622
	H54	H	0.406744	0.595590	0.118202
	H55	H	0.406071	0.412259	0.887351
	H56	H	0.114895	0.594002	0.404221
	H57	H	0.885163	0.596750	0.590616
	H58	H	0.115986	0.410505	0.597143
	H59	H	0.889313	0.415008	0.422536
	H60	H	0.116166	0.408024	0.598677
	H61	H	0.884456	0.590944	0.598411
	H62	H	0.114732	0.600836	0.413088
	H63	H	0.883061	0.418954	0.396642
	H64	H	0.407079	0.595281	0.117904
	H65	H	0.599684	0.599047	0.883736
	H66	H	0.594320	0.417590	0.117858
	H67	H	0.407127	0.407604	0.886373
	H68	H	0.600390	0.120450	0.415846
	H69	H	0.593198	0.890005	0.588106
	H70	H	0.410181	0.116403	0.589037
	H71	H	0.410830	0.892683	0.420109
	H72	H	0.910944	0.618813	0.100211
	H73	H	0.098655	0.385075	0.099922
	H74	H	0.096251	0.620380	0.910062
	H75	H	0.906802	0.387326	0.911354
	H76	H	0.099503	0.906286	0.621412
	H77	H	0.084832	0.082847	0.392281
	H78	H	0.903393	0.108106	0.623957
	H79	H	0.909842	0.911426	0.388954
	H80	H	0.617014	0.096723	0.904260
	H81	H	0.384398	0.093178	0.097694
	H82	H	0.619054	0.907693	0.111177
	H83	H	0.383389	0.914621	0.906255
	H84	H	0.615405	0.896825	0.088203
	H85	H	0.381921	0.099282	0.097686
	H86	H	0.614821	0.102128	0.913150
	H87	H	0.381004	0.905259	0.907628
	H88	H	0.895978	0.088413	0.620116
	H89	H	0.082968	0.107515	0.385633
	H90	H	0.092029	0.916537	0.616300
	H91	H	0.905364	0.904607	0.385496
	H92	H	0.090208	0.619646	0.906542
	H93	H	0.088072	0.388704	0.099183
	H94	H	0.906945	0.616731	0.088646
	H95	H	0.902905	0.386071	0.909520
	H96	H	0.398951	0.120682	0.595381
	H97	H	0.602091	0.883403	0.600611
	H98	H	0.594098	0.122008	0.400345
	H99	H	0.396625	0.884482	0.409257
	H100	H	0.585410	0.407192	0.117972
	H101	H	0.590865	0.588509	0.889655
	H102	H	0.407559	0.595675	0.117666
	H103	H	0.402528	0.409299	0.885747
	H104	H	0.111258	0.590269	0.413942
	H105	H	0.881235	0.600121	0.598758
	H106	H	0.114846	0.407648	0.595840
	H107	H	0.878791	0.394863	0.407758
	H108	H	0.899303	0.621576	0.097182
	H109	H	0.094990	0.389412	0.090383
	H110	H	0.090533	0.617270	0.913160
	H111	H	0.906351	0.386997	0.906818
	H112	H	0.087346	0.904033	0.618423
	H113	H	0.105302	0.094909	0.382617
	H114	H	0.916582	0.093375	0.615223
	H115	H	0.901191	0.912801	0.386053
	H116	H	0.613065	0.091638	0.912675
	H117	H	0.384498	0.096585	0.092206
	H118	H	0.609828	0.921657	0.091895
	H119	H	0.385637	0.910266	0.914995
	C120	C	0.378167	0.011410	0.624401
	C121	C	0.621289	0.994971	0.625115
	C122	C	0.621507	0.011429	0.381372
	C123	C	0.377890	0.995540	0.381466
	C124	C	0.620953	0.381432	0.011338
	C125	C	0.620814	0.624453	0.995061
	C126	C	0.377714	0.624587	0.010454
	C127	C	0.377735	0.381806	0.994774
	C128	C	0.006375	0.624245	0.381172
	C129	C	0.991099	0.624625	0.624940
	C130	C	0.007604	0.381082	0.624496
	C131	C	0.991343	0.381089	0.380920
	C132	C	0.877943	0.511055	0.123797
	C133	C	0.121761	0.495396	0.125232
	C134	C	0.120531	0.510974	0.881823
	C135	C	0.877078	0.494963	0.880881
	C136	C	0.121252	0.880629	0.510800
	C137	C	0.119489	0.123560	0.494727
	C138	C	0.877554	0.124527	0.511570
	C139	C	0.877789	0.881248	0.495043
	C140	C	0.507348	0.125298	0.881217
	C141	C	0.491176	0.124649	0.124565
	C142	C	0.507315	0.880962	0.125456
	C143	C	0.491142	0.881954	0.881892
	C144	C	0.381226	0.888590	0.679599
	C145	C	0.617948	0.117891	0.680048
	C146	C	0.618261	0.888418	0.327116
	C147	C	0.379979	0.118057	0.326263
	C148	C	0.675091	0.384615	0.888129
	C149	C	0.676376	0.621704	0.117692
	C150	C	0.322224	0.622124	0.887604
	C151	C	0.323394	0.384662	0.117918
	C152	C	0.884282	0.680099	0.382727
	C153	C	0.113448	0.679254	0.622420
	C154	C	0.884696	0.327079	0.620535
	C155	C	0.113416	0.325120	0.383458
	C156	C	0.884744	0.384551	0.678687
	C157	C	0.113360	0.621390	0.680252
	C158	C	0.884044	0.622075	0.325266
	C159	C	0.113786	0.383876	0.326142
	C160	C	0.380135	0.679443	0.887506
	C161	C	0.617969	0.678940	0.117893
	C162	C	0.617118	0.327194	0.888147
	C163	C	0.381170	0.326834	0.117987
	C164	C	0.676282	0.888552	0.384595
	C165	C	0.676265	0.117686	0.622552
	C166	C	0.322721	0.888826	0.622652
	C167	C	0.321304	0.117237	0.383073
	C168	C	0.882086	0.387828	0.178517
	C169	C	0.117858	0.618590	0.179685
	C170	C	0.117625	0.388179	0.827460
	C171	C	0.879985	0.617552	0.826129
	C172	C	0.176197	0.883409	0.388079
	C173	C	0.175629	0.121735	0.617343
	C174	C	0.822533	0.121737	0.388338
	C175	C	0.824047	0.884144	0.618115
	C176	C	0.384788	0.179698	0.884377
	C177	C	0.613585	0.179608	0.121768
	C178	C	0.384364	0.826413	0.122290
	C179	C	0.613740	0.827239	0.885530
	C180	C	0.384430	0.885237	0.179646
	C181	C	0.613778	0.122148	0.179619
	C182	C	0.384944	0.122133	0.826089
	C183	C	0.613952	0.885253	0.828023
	C184	C	0.880370	0.179312	0.388388
	C185	C	0.117296	0.178726	0.617834
	C186	C	0.117784	0.826262	0.387607
	C187	C	0.881677	0.826522	0.617927
	C188	C	0.175622	0.388300	0.884957
	C189	C	0.176457	0.618397	0.122468
	C190	C	0.823076	0.388290	0.122020
	C191	C	0.821938	0.617353	0.883524
	C192	C	0.399954	0.096711	0.602189
	C193	C	0.599993	0.909281	0.603490
	C194	C	0.599472	0.097420	0.403226
	C195	C	0.400645	0.910078	0.403811
	C196	C	0.598995	0.403494	0.097297
	C197	C	0.598819	0.602830	0.909154
	C198	C	0.400178	0.602039	0.095863
	C199	C	0.399006	0.403377	0.908754
	C200	C	0.091521	0.601713	0.403887
	C201	C	0.905799	0.602469	0.602599
	C202	C	0.093401	0.402366	0.603399
	C203	C	0.905790	0.403134	0.402537
	C204	C	0.899390	0.596819	0.101787
	C205	C	0.100236	0.409906	0.103119
	C206	C	0.098629	0.597049	0.903478
	C207	C	0.898865	0.408814	0.902782
	C208	C	0.099332	0.902516	0.596615
	C209	C	0.097390	0.101601	0.408988
	C210	C	0.899015	0.102981	0.597472
	C211	C	0.899199	0.903268	0.408990
	C212	C	0.593022	0.103153	0.903432
	C213	C	0.405681	0.102807	0.102458
	C214	C	0.592577	0.902264	0.103591
	C215	C	0.405375	0.903585	0.903352
	Zn216	Zn	0.499256	0.002903	0.753046
	Zn217	Zn	0.499482	0.003734	0.253630
	Zn218	Zn	0.749061	0.503021	0.002761
	Zn219	Zn	0.249594	0.503484	0.003148
	Zn220	Zn	-0.000863	0.752733	0.502657
	Zn221	Zn	-0.000890	0.252650	0.503208
	Zn222	Zn	-0.001211	0.502702	0.752987
	Zn223	Zn	-0.000788	0.503369	0.252460
	Zn224	Zn	0.498847	0.752535	0.002799
	Zn225	Zn	0.499122	0.253431	0.003340
	Zn226	Zn	0.749616	0.002875	0.503539
	Zn227	Zn	0.249166	0.002791	0.502957
	N228	N	0.415108	0.965497	0.680749
	N229	N	0.584335	0.040580	0.681551
	N230	N	0.585152	0.965925	0.324964
	N231	N	0.414624	0.041302	0.325391
	N232	N	0.677801	0.417350	0.965956
	N233	N	0.677855	0.588351	0.040168
	N234	N	0.320644	0.588743	0.965174
	N235	N	0.321220	0.418143	0.040529
	N236	N	0.961212	0.681429	0.417057
	N237	N	0.036407	0.681267	0.588602
	N238	N	0.961915	0.325190	0.587367
	N239	N	0.036263	0.323447	0.416920
	N240	N	0.962128	0.417340	0.681324
	N241	N	0.036142	0.588233	0.681824
	N242	N	0.960925	0.587984	0.324451
	N243	N	0.036879	0.417957	0.324547
	N244	N	0.413834	0.681326	0.964818
	N245	N	0.584102	0.680743	0.040613
	N246	N	0.584281	0.325079	0.965585
	N247	N	0.414109	0.324999	0.040374
	N248	N	0.678030	0.965961	0.417939
	N249	N	0.678324	0.040404	0.589090
	N250	N	0.320850	0.966144	0.588864
	N251	N	0.319898	0.039922	0.416721
	N252	N	0.915357	0.465111	0.179797
	N253	N	0.084502	0.541334	0.181409
	N254	N	0.083946	0.465532	0.825563
	N255	N	0.913590	0.540217	0.824592
	N256	N	0.178530	0.916304	0.465604
	N257	N	0.177032	0.088002	0.540057
	N258	N	0.820701	0.088270	0.465824
	N259	N	0.821479	0.917408	0.540760
	N260	N	0.462019	0.181523	0.918026
	N261	N	0.536401	0.181423	0.088385
	N262	N	0.461827	0.823436	0.089474
	N263	N	0.536392	0.825289	0.918380
	N264	N	0.461615	0.918423	0.181644
	N265	N	0.536826	0.088421	0.181129
	N266	N	0.462321	0.089021	0.824111
	N267	N	0.536599	0.918502	0.825578
	N268	N	0.913977	0.181042	0.465801
	N269	N	0.083192	0.180032	0.540582
	N270	N	0.084602	0.824105	0.465133
	N271	N	0.914308	0.824637	0.540292
	N272	N	0.177480	0.465831	0.918058
	N273	N	0.179095	0.540921	0.089418
	N274	N	0.820465	0.465756	0.088624
	N275	N	0.820143	0.539876	0.916766
	O276	O	1.387992	-0.380212	0.439029
	H277	H	1.380887	-0.378626	0.443284
	H278	H	1.387905	-0.378300	0.436010
	O279	O	0.424956	0.624411	0.405922
	H280	H	0.427635	0.621500	0.405190
	H281	H	0.426998	0.631707	0.402106
	O282	O	0.420698	0.621618	0.413190
	H283	H	0.416008	0.622311	0.419372
	H284	H	0.412753	0.625318	0.410373
	O285	O	0.393526	0.626205	0.430425
	H286	H	0.392155	0.627809	0.427404
	H287	H	0.400088	0.632844	0.420983
