data_Molecule from HDF5

_cell_length_a		16.318990
_cell_length_b		16.474575
_cell_length_c		16.243013
_cell_angle_alpha	90.048566
_cell_angle_beta	90.137874
_cell_angle_gamma	90.225902
_symmetry_space_group_name_H-M	'P 1'
_symmetry_Int_Tables_number		1

loop_
	_symmetry_equiv_pos_as_xyz
	x,y,z

loop_
	_atom_site_label
	_atom_site_type_symbol
	_atom_site_fract_x
	_atom_site_fract_y
	_atom_site_fract_z
	H0	H	0.382990	0.829483	0.741369
	H1	H	0.586945	0.151045	0.741955
	H2	H	0.583882	0.829604	0.306312
	H3	H	0.379145	0.149746	0.301911
	H4	H	0.696752	0.391657	0.859796
	H5	H	0.701432	0.592365	0.185292
	H6	H	0.265266	0.592196	0.860140
	H7	H	0.262458	0.385479	0.183705
	H8	H	0.823146	0.711329	0.417159
	H9	H	0.142671	0.713683	0.630228
	H10	H	0.824260	0.269948	0.626781
	H11	H	0.143861	0.271399	0.414542
	H12	H	0.819901	0.391497	0.736078
	H13	H	0.143489	0.594905	0.742408
	H14	H	0.820755	0.591486	0.306095
	H15	H	0.144637	0.391110	0.303800
	H16	H	0.379050	0.710336	0.862475
	H17	H	0.586571	0.707430	0.185476
	H18	H	0.586083	0.272491	0.861730
	H19	H	0.378276	0.269661	0.183871
	H20	H	0.703566	0.831799	0.419809
	H21	H	0.702865	0.151566	0.625125
	H22	H	0.261289	0.832927	0.629481
	H23	H	0.265196	0.151522	0.420106
	H24	H	0.881009	0.331489	0.240851
	H25	H	0.087703	0.651028	0.241583
	H26	H	0.082975	0.330838	0.802938
	H27	H	0.881444	0.651927	0.803891
	H28	H	0.202571	0.889223	0.361512
	H29	H	0.202327	0.094266	0.684774
	H30	H	0.766176	0.092848	0.361439
	H31	H	0.768498	0.891177	0.686228
	H32	H	0.325058	0.210716	0.915429
	H33	H	0.643861	0.210316	0.128155
	H34	H	0.324019	0.767096	0.130052
	H35	H	0.645140	0.770934	0.920078
	H36	H	0.321557	0.886698	0.241882
	H37	H	0.645209	0.090227	0.239618
	H38	H	0.323309	0.090221	0.805528
	H39	H	0.646783	0.890403	0.808226
	H40	H	0.880602	0.208972	0.361537
	H41	H	0.090458	0.213071	0.682529
	H42	H	0.090520	0.770153	0.362942
	H43	H	0.878817	0.770886	0.683267
	H44	H	0.201166	0.330842	0.917498
	H45	H	0.206975	0.648566	0.128450
	H46	H	0.764735	0.330544	0.123364
	H47	H	0.763939	0.651275	0.919072
	H48	H	0.394486	0.104828	0.614239
	H49	H	0.585225	0.874125	0.614326
	H50	H	0.570041	0.102693	0.433710
	H51	H	0.397952	0.880247	0.434651
	H52	H	0.580343	0.400204	0.141093
	H53	H	0.575252	0.586126	0.905929
	H54	H	0.393422	0.573535	0.135779
	H55	H	0.395612	0.397906	0.908606
	H56	H	0.099129	0.585651	0.432429
	H57	H	0.870578	0.578994	0.608390
	H58	H	0.098767	0.397982	0.610255
	H59	H	0.865879	0.397290	0.426174
	H60	H	0.095327	0.406299	0.608617
	H61	H	0.866663	0.581462	0.615384
	H62	H	0.096861	0.581972	0.436183
	H63	H	0.869253	0.393471	0.438446
	H64	H	0.400270	0.579507	0.135090
	H65	H	0.575875	0.577207	0.907850
	H66	H	0.570132	0.404645	0.136633
	H67	H	0.390984	0.397052	0.906189
	H68	H	0.578671	0.103892	0.436798
	H69	H	0.573969	0.874873	0.623057
	H70	H	0.394522	0.104193	0.615892
	H71	H	0.389904	0.878776	0.439942
	H72	H	0.890540	0.604576	0.110452
	H73	H	0.064333	0.380796	0.111425
	H74	H	0.078174	0.605163	0.933782
	H75	H	0.893092	0.380143	0.935186
	H76	H	0.081114	0.902922	0.640220
	H77	H	0.075313	0.085255	0.406058
	H78	H	0.895290	0.090706	0.641325
	H79	H	0.892778	0.898203	0.406445
	H80	H	0.600603	0.084497	0.933184
	H81	H	0.367330	0.079456	0.116114
	H82	H	0.598248	0.892968	0.110653
	H83	H	0.371879	0.899661	0.939444
	H84	H	0.594861	0.904421	0.111205
	H85	H	0.368422	0.084540	0.110593
	H86	H	0.599406	0.083461	0.935729
	H87	H	0.370036	0.903243	0.930616
	H88	H	0.888519	0.078170	0.639767
	H89	H	0.075870	0.079730	0.407472
	H90	H	0.067219	0.910484	0.632911
	H91	H	0.891600	0.904723	0.408171
	H92	H	0.071424	0.604010	0.929304
	H93	H	0.076652	0.378051	0.105943
	H94	H	0.890184	0.605425	0.114574
	H95	H	0.881598	0.375082	0.931036
	H96	H	0.395463	0.103490	0.615737
	H97	H	0.572971	0.879628	0.610451
	H98	H	0.576845	0.106186	0.428077
	H99	H	0.390236	0.876355	0.431003
	H100	H	0.570856	0.393483	0.139846
	H101	H	0.567504	0.581568	0.909076
	H102	H	0.391891	0.582544	0.139425
	H103	H	0.392310	0.401364	0.908713
	H104	H	0.097634	0.580361	0.431083
	H105	H	0.868660	0.587073	0.609197
	H106	H	0.098998	0.403825	0.616848
	H107	H	0.871860	0.406249	0.434580
	H108	H	0.894245	0.604483	0.112231
	H109	H	0.074199	0.374485	0.119171
	H110	H	0.071608	0.602373	0.937391
	H111	H	0.891502	0.376259	0.922397
	H112	H	0.066124	0.894309	0.638520
	H113	H	0.070880	0.081875	0.407840
	H114	H	0.902067	0.079007	0.634709
	H115	H	0.898224	0.901217	0.408744
	H116	H	0.600095	0.081215	0.933383
	H117	H	0.369563	0.077162	0.109111
	H118	H	0.600574	0.899371	0.120508
	H119	H	0.368796	0.894509	0.932743
	C120	C	0.362887	-0.001226	0.646032
	C121	C	0.607434	0.982278	0.645966
	C122	C	0.605320	-0.001569	0.402107
	C123	C	0.361450	0.983363	0.402353
	C124	C	0.603577	0.369817	0.031507
	C125	C	0.604334	0.612143	1.014620
	C126	C	0.363324	0.610494	0.030567
	C127	C	0.361265	0.367923	1.014274
	C128	C	-0.008124	0.613496	0.401166
	C129	C	0.974439	0.613821	0.644001
	C130	C	-0.008466	0.370622	0.643090
	C131	C	0.975349	0.369281	0.401070
	C132	C	0.861126	0.499319	0.143454
	C133	C	0.104936	0.482697	0.144312
	C134	C	0.104128	0.498863	0.900927
	C135	C	0.859395	0.483106	0.899200
	C136	C	0.104328	0.870939	0.531295
	C137	C	0.105798	0.113515	0.513683
	C138	C	0.864041	0.112539	0.531551
	C139	C	0.862977	0.870475	0.514564
	C140	C	0.493514	0.112743	0.901841
	C141	C	0.474631	0.111165	0.143762
	C142	C	0.491812	0.867542	0.145715
	C143	C	0.476453	0.868473	0.902720
	C144	C	0.362795	0.878230	0.703345
	C145	C	0.606831	0.102974	0.703314
	C146	C	0.604314	0.878197	0.344517
	C147	C	0.360619	0.102369	0.342083
	C148	C	0.659104	0.371299	0.908883
	C149	C	0.662939	0.612172	0.136550
	C150	C	0.304169	0.611435	0.909037
	C151	C	0.302075	0.367034	0.135558
	C152	C	0.871045	0.671609	0.399287
	C153	C	0.094725	0.673588	0.647315
	C154	C	0.871527	0.310559	0.644701
	C155	C	0.095824	0.311250	0.397800
	C156	C	0.869383	0.371085	0.699282
	C157	C	0.095144	0.614511	0.703307
	C158	C	0.869921	0.611981	0.343865
	C159	C	0.096209	0.370974	0.342588
	C160	C	0.360886	0.670390	0.910116
	C161	C	0.605481	0.669124	0.136851
	C162	C	0.603965	0.312055	0.909762
	C163	C	0.359460	0.309097	0.135376
	C164	C	0.663483	0.878935	0.401459
	C165	C	0.664579	0.103154	0.645288
	C166	C	0.302157	0.879918	0.647682
	C167	C	0.303944	0.103476	0.401097
	C168	C	0.861155	0.379261	0.201814
	C169	C	0.106621	0.602719	0.203001
	C170	C	0.103292	0.378792	0.841927
	C171	C	0.861330	0.603725	0.842339
	C172	C	0.163808	0.869865	0.410138
	C173	C	0.163650	0.113938	0.636048
	C174	C	0.805293	0.112210	0.409858
	C175	C	0.806105	0.870983	0.637079
	C176	C	0.372748	0.170555	0.898747
	C177	C	0.595769	0.170250	0.146035
	C178	C	0.371499	0.807541	0.147698
	C179	C	0.597222	0.810647	0.901668
	C180	C	0.370272	0.867181	0.203354
	C181	C	0.596413	0.110715	0.201730
	C182	C	0.372059	0.110699	0.843869
	C183	C	0.598140	0.870086	0.845990
	C184	C	0.862310	0.170019	0.409860
	C185	C	0.108372	0.173219	0.634795
	C186	C	0.107952	0.810703	0.410708
	C187	C	0.861289	0.811405	0.635586
	C188	C	0.161986	0.378671	0.899099
	C189	C	0.166052	0.601550	0.146443
	C190	C	0.803474	0.378656	0.143277
	C191	C	0.802538	0.603412	0.899399
	C192	C	0.387712	0.082283	0.622154
	C193	C	0.584154	0.898231	0.622819
	C194	C	0.581926	0.082480	0.425900
	C195	C	0.385537	0.900164	0.427846
	C196	C	0.580303	0.392720	0.117030
	C197	C	0.579816	0.588538	0.929688
	C198	C	0.388188	0.585820	0.114889
	C199	C	0.385738	0.391908	0.929873
	C200	C	0.076007	0.589634	0.425978
	C201	C	0.890368	0.589632	0.618358
	C202	C	0.075885	0.395602	0.618799
	C203	C	0.890966	0.392340	0.425977
	C204	C	0.884816	0.583161	0.119561
	C205	C	0.079313	0.399354	0.119328
	C206	C	0.080516	0.582202	0.926076
	C207	C	0.882189	0.398867	0.922723
	C208	C	0.078892	0.895413	0.615292
	C209	C	0.081235	0.089322	0.429188
	C210	C	0.888317	0.089347	0.616383
	C211	C	0.887117	0.894474	0.429901
	C212	C	0.578035	0.089755	0.926818
	C213	C	0.390451	0.087369	0.119208
	C214	C	0.576003	0.891919	0.121127
	C215	C	0.391956	0.892006	0.927273
	Zn216	Zn	0.485571	-0.009685	0.774888
	Zn217	Zn	0.482917	-0.009852	0.273132
	Zn218	Zn	0.731487	0.491234	0.022390
	Zn219	Zn	0.233811	0.489766	0.022124
	Zn220	Zn	-0.016639	0.741726	0.522272
	Zn221	Zn	-0.015197	0.241165	0.522413
	Zn222	Zn	-0.017860	0.491437	0.771518
	Zn223	Zn	-0.017209	0.491574	0.273511
	Zn224	Zn	0.484472	0.740126	0.023898
	Zn225	Zn	0.483669	0.240547	0.023239
	Zn226	Zn	0.735490	-0.008776	0.523419
	Zn227	Zn	0.232684	-0.007985	0.524057
	N228	N	0.399936	0.953133	0.702596
	N229	N	0.571981	0.026986	0.703777
	N230	N	0.568652	0.953576	0.345075
	N231	N	0.395650	0.026557	0.342729
	N232	N	0.658793	0.406770	0.985473
	N233	N	0.662376	0.577337	0.059461
	N234	N	0.305418	0.574853	0.985213
	N235	N	0.302923	0.402797	0.059021
	N236	N	0.947949	0.672821	0.434021
	N237	N	0.018497	0.673114	0.610932
	N238	N	0.948650	0.309970	0.610794
	N239	N	0.019527	0.310181	0.433651
	N240	N	0.945207	0.407695	0.698432
	N241	N	0.019516	0.578036	0.701348
	N242	N	0.946190	0.576797	0.344783
	N243	N	0.020339	0.406594	0.344679
	N244	N	0.396638	0.670099	0.986752
	N245	N	0.570000	0.669166	0.060050
	N246	N	0.569892	0.311133	0.987153
	N247	N	0.395501	0.309508	0.059112
	N248	N	0.663954	0.954770	0.436712
	N249	N	0.665092	0.027114	0.610304
	N250	N	0.302106	0.955915	0.612849
	N251	N	0.304210	0.028271	0.437625
	N252	N	0.896489	0.455192	0.201837
	N253	N	0.069213	0.527831	0.201728
	N254	N	0.068226	0.454473	0.842715
	N255	N	0.895994	0.527822	0.842176
	N256	N	0.161786	0.906429	0.486218
	N257	N	0.161923	0.077382	0.559999
	N258	N	0.806003	0.077280	0.486675
	N259	N	0.806992	0.906870	0.560743
	N260	N	0.449398	0.172092	0.934053
	N261	N	0.519051	0.170828	0.110845
	N262	N	0.447972	0.808027	0.112420
	N263	N	0.520393	0.809606	0.936242
	N264	N	0.446143	0.903892	0.202305
	N265	N	0.520124	0.074806	0.200779
	N266	N	0.448000	0.075370	0.845833
	N267	N	0.521977	0.905389	0.846535
	N268	N	0.898310	0.170218	0.486438
	N269	N	0.073233	0.173252	0.557715
	N270	N	0.071712	0.810993	0.487021
	N271	N	0.895801	0.810836	0.558529
	N272	N	0.162711	0.454278	0.935105
	N273	N	0.165205	0.525787	0.110983
	N274	N	0.803250	0.454529	0.107997
	N275	N	0.801415	0.527435	0.934289
	O276	O	0.390535	0.428627	0.515389
	H277	H	0.375825	0.430200	0.511531
	H278	H	0.387426	0.414991	0.520388
	O279	O	0.414149	0.637285	0.479476
	H280	H	0.419637	0.634490	0.479040
	H281	H	0.420380	0.620113	0.466725
	O282	O	1.142655	0.194484	1.067781
	H283	H	1.135849	0.188839	1.078756
	H284	H	1.149031	0.215518	1.072155
	O285	O	1.056922	-0.020854	-0.062948
	H286	H	1.052194	-0.018158	-0.066240
	H287	H	1.061779	-0.028293	-0.060951
	O288	O	1.087916	1.005739	1.204266
	H289	H	1.103475	1.001023	1.194500
	H290	H	1.081991	1.007489	1.208977
	O291	O	0.502459	1.519486	0.559150
	H292	H	0.490530	1.531174	0.556697
	H293	H	0.501416	1.505132	0.560758
	O294	O	0.429564	0.481216	0.524212
	H295	H	0.421494	0.481578	0.538524
	H296	H	0.427942	0.491744	0.528235
	O297	O	0.429578	0.483057	0.592985
	H298	H	0.419584	0.473352	0.600098
	H299	H	0.424800	0.459999	0.596067
	O300	O	0.870802	-0.127444	0.181524
	H301	H	0.879197	-0.142633	0.194162
	H302	H	0.844688	-0.128562	0.170078
	O303	O	0.522031	0.437871	0.452992
	H304	H	0.533668	0.430354	0.444698
	H305	H	0.533963	0.435136	0.441878
	O306	O	0.855937	1.168310	1.150916
	H307	H	0.842665	1.162492	1.157381
	H308	H	0.849921	1.162169	1.115553
	O309	O	0.535051	0.381241	0.455771
	H310	H	0.543841	0.384279	0.448444
	H311	H	0.530811	0.385914	0.469882
	O312	O	0.038853	0.180980	0.156815
	H313	H	0.020667	0.176153	0.148254
	H314	H	0.020333	0.189451	0.145519
	O315	O	0.506042	0.612731	0.622969
	H316	H	0.508275	0.624214	0.611715
	H317	H	0.501883	0.619408	0.622060
	O318	O	0.120356	0.801999	0.930591
	H319	H	0.146085	0.799066	0.936008
	H320	H	0.125221	0.798327	0.928840
	O321	O	0.442830	0.403208	0.589444
	H322	H	0.437651	0.399518	0.583744
	H323	H	0.457427	0.399153	0.584893
	O324	O	0.470690	0.398605	-0.498421
	H325	H	0.458869	0.409136	-0.503958
	H326	H	0.464538	0.392519	-0.511548
	O327	O	-0.180448	0.812378	0.159516
	H328	H	-0.189583	0.817162	0.155231
	H329	H	-0.188292	0.799739	0.138316
	O330	O	-0.109859	-0.082854	0.880177
	H331	H	-0.109365	-0.069523	0.873915
	H332	H	-0.109847	-0.083758	0.877176
	O333	O	-0.113238	-0.022555	1.080845
	H334	H	-0.111450	-0.039762	1.087759
	H335	H	-0.120626	-0.035026	1.094702
	O336	O	0.456908	0.519408	0.458023
	H337	H	0.439446	0.524647	0.461254
	H338	H	0.461053	0.504000	0.463674
	O339	O	1.167469	0.109225	0.145592
	H340	H	1.178970	0.099077	0.162804
	H341	H	1.134982	0.110984	0.146127
	O342	O	0.046976	0.114082	-0.028619
	H343	H	0.059755	0.114816	-0.021240
	H344	H	0.061719	0.121713	-0.018621
	O345	O	0.913355	-0.170606	0.924090
	H346	H	0.914743	-0.157697	0.918758
	H347	H	0.916142	-0.166069	0.905716
	O348	O	1.181479	0.931454	-0.157209
	H349	H	1.207982	0.929042	-0.171141
	H350	H	1.179088	0.908565	-0.132734
	O351	O	0.339981	0.488756	0.478867
	H352	H	0.342207	0.485583	0.475658
	H353	H	0.339005	0.490767	0.473080
	O354	O	0.805563	0.019088	1.118003
	H355	H	0.811376	-0.003816	1.118605
	H356	H	0.798733	0.017492	1.115128
	O357	O	0.594537	0.451339	0.446774
	H358	H	0.596365	0.438392	0.446404
	H359	H	0.596670	0.448010	0.432433
	O360	O	1.060846	-0.113612	0.032595
	H361	H	1.068393	-0.104520	0.026424
	H362	H	1.067783	-0.118969	0.032128
	O363	O	0.162587	0.835391	0.926501
	H364	H	0.130670	0.826610	0.936764
	H365	H	0.161782	0.825147	0.951927
	O366	O	0.648488	0.402257	0.516531
	H367	H	0.642499	0.415391	0.509643
	H368	H	0.650318	0.407649	0.520002
	O369	O	-0.643190	0.657822	-0.457333
	H370	H	-0.665051	0.667632	-0.452993
	H371	H	-0.642749	0.664173	-0.484558
	O372	O	0.533613	0.572581	0.458807
	H373	H	0.545031	0.577159	0.465483
	H374	H	0.532543	0.562990	0.468507
	O375	O	0.418158	0.355891	0.521011
	H376	H	0.418402	0.344118	0.519908
	H377	H	0.421379	0.363878	0.520105
	O378	O	1.419997	1.370964	-0.295605
	H379	H	1.424815	1.386082	-0.295171
	H380	H	1.422953	1.364518	-0.286803
	O381	O	0.991369	-0.027604	0.059491
	H382	H	0.995314	-0.011972	0.049014
	H383	H	0.999583	-0.021377	0.073064
	O384	O	0.908025	1.165050	-0.148710
	H385	H	0.924787	1.152343	-0.144344
	H386	H	0.900034	1.174804	-0.163272
	O387	O	-0.133696	0.072060	-0.140655
	H388	H	-0.129520	0.079561	-0.131517
	H389	H	-0.139840	0.079032	-0.152367
	O390	O	0.483993	1.517810	-0.463747
	H391	H	0.475145	1.532394	-0.467705
	H392	H	0.481093	1.519969	-0.475114
	O393	O	1.059712	1.051405	0.953343
	H394	H	1.052910	1.052460	0.957671
	H395	H	1.079638	1.066626	0.946532
	O396	O	-0.143327	-0.104411	0.031636
	H397	H	-0.138318	-0.095498	0.020360
	H398	H	-0.125410	-0.102792	0.028456
	O399	O	-0.007049	0.851878	1.175560
	H400	H	-0.015805	0.840791	1.197016
	H401	H	-0.008652	0.851171	1.168018
	O402	O	0.444632	0.655737	0.425529
	H403	H	0.437377	0.658339	0.425918
	H404	H	0.453392	0.660448	0.427731
	O405	O	1.023693	0.941860	0.062504
	H406	H	1.020932	0.950865	0.075217
	H407	H	1.030661	0.962854	0.051063
	O408	O	1.630287	1.553761	-0.436455
	H409	H	1.608248	1.564546	-0.436052
	H410	H	1.632429	1.545336	-0.425954
	O411	O	0.842940	0.161960	0.983856
	H412	H	0.845445	0.154248	0.967992
	H413	H	0.861091	0.149012	0.971094
	O414	O	0.511094	0.505773	0.595775
	H415	H	0.527057	0.518342	0.598263
	H416	H	0.511461	0.498673	0.600676
	O417	O	0.524644	0.344932	0.421393
	H418	H	0.507158	0.345446	0.417971
	H419	H	0.532940	0.355454	0.424034
