data_Molecule from HDF5

_cell_length_a		16.426733
_cell_length_b		16.404353
_cell_length_c		16.552310
_cell_angle_alpha	90.062684
_cell_angle_beta	89.981944
_cell_angle_gamma	90.081916
_symmetry_space_group_name_H-M	'P 1'
_symmetry_Int_Tables_number		1

loop_
	_symmetry_equiv_pos_as_xyz
	x,y,z

loop_
	_atom_site_label
	_atom_site_type_symbol
	_atom_site_fract_x
	_atom_site_fract_y
	_atom_site_fract_z
	H0	H	0.395669	0.852730	0.730453
	H1	H	0.611272	0.167895	0.728734
	H2	H	0.611646	0.852389	0.281421
	H3	H	0.394308	0.164998	0.283261
	H4	H	0.725822	0.403625	0.850049
	H5	H	0.727784	0.619053	0.162680
	H6	H	0.279076	0.615458	0.850456
	H7	H	0.280093	0.402486	0.163463
	H8	H	0.842893	0.727407	0.403823
	H9	H	0.160468	0.734076	0.614942
	H10	H	0.843692	0.288935	0.610440
	H11	H	0.160268	0.285811	0.400731
	H12	H	0.845825	0.402537	0.729016
	H13	H	0.159920	0.619746	0.732488
	H14	H	0.844782	0.614259	0.285618
	H15	H	0.159892	0.400538	0.283776
	H16	H	0.396201	0.730902	0.849159
	H17	H	0.610597	0.734483	0.162587
	H18	H	0.607773	0.288721	0.848684
	H19	H	0.397169	0.286871	0.164060
	H20	H	0.724309	0.850885	0.399823
	H21	H	0.723513	0.169137	0.609876
	H22	H	0.281710	0.851000	0.612931
	H23	H	0.281421	0.166315	0.401603
	H24	H	0.899325	0.350212	0.226373
	H25	H	0.114170	0.666465	0.233259
	H26	H	0.112890	0.352232	0.783348
	H27	H	0.896167	0.665111	0.783913
	H28	H	0.229350	0.898683	0.351144
	H29	H	0.224002	0.113738	0.664883
	H30	H	0.781090	0.114039	0.348483
	H31	H	0.783364	0.906492	0.664465
	H32	H	0.342576	0.226799	0.905335
	H33	H	0.661660	0.229449	0.110534
	H34	H	0.344769	0.787843	0.111624
	H35	H	0.660729	0.789055	0.901416
	H36	H	0.346110	0.899813	0.230888
	H37	H	0.659604	0.117312	0.230110
	H38	H	0.344863	0.116029	0.785280
	H39	H	0.661613	0.906548	0.786781
	H40	H	0.898933	0.228990	0.348245
	H41	H	0.107114	0.229121	0.664709
	H42	H	0.110141	0.785530	0.349835
	H43	H	0.900230	0.790413	0.664758
	H44	H	0.222324	0.349483	0.904079
	H45	H	0.226497	0.667971	0.113810
	H46	H	0.782609	0.350318	0.111795
	H47	H	0.781468	0.666046	0.901394
	H48	H	0.416213	0.121606	0.594195
	H49	H	0.595990	0.896073	0.594699
	H50	H	0.590999	0.123118	0.414439
	H51	H	0.410073	0.893984	0.420802
	H52	H	0.593903	0.418692	0.120428
	H53	H	0.586249	0.600253	0.896788
	H54	H	0.415315	0.603285	0.119946
	H55	H	0.417909	0.416654	0.895420
	H56	H	0.114205	0.599932	0.424568
	H57	H	0.891618	0.596091	0.596394
	H58	H	0.114305	0.426234	0.597196
	H59	H	0.892325	0.423094	0.422424
	H60	H	0.119026	0.415994	0.600266
	H61	H	0.891187	0.597227	0.596768
	H62	H	0.113378	0.590492	0.420476
	H63	H	0.888382	0.422218	0.410985
	H64	H	0.410121	0.594191	0.118488
	H65	H	0.596621	0.600670	0.892142
	H66	H	0.592133	0.423355	0.118322
	H67	H	0.408830	0.415646	0.891396
	H68	H	0.587209	0.118996	0.419190
	H69	H	0.591529	0.895253	0.602019
	H70	H	0.411917	0.123048	0.595601
	H71	H	0.420726	0.895538	0.412222
	H72	H	0.917270	0.621478	0.095822
	H73	H	0.092706	0.398245	0.091722
	H74	H	0.093412	0.623375	0.917587
	H75	H	0.910967	0.393330	0.915758
	H76	H	0.083462	0.916346	0.616570
	H77	H	0.093998	0.097820	0.394018
	H78	H	0.915716	0.098959	0.617765
	H79	H	0.915164	0.919524	0.394257
	H80	H	0.616568	0.097746	0.916791
	H81	H	0.391954	0.095583	0.091238
	H82	H	0.616095	0.917865	0.091797
	H83	H	0.388106	0.921481	0.913070
	H84	H	0.611833	0.927420	0.090510
	H85	H	0.389302	0.093501	0.099611
	H86	H	0.617874	0.099033	0.914428
	H87	H	0.388628	0.917244	0.919721
	H88	H	0.910977	0.101678	0.620591
	H89	H	0.092444	0.092990	0.396499
	H90	H	0.099179	0.917057	0.622362
	H91	H	0.912553	0.916466	0.392647
	H92	H	0.086385	0.620998	0.917088
	H93	H	0.093914	0.395481	0.099555
	H94	H	0.915256	0.622583	0.095213
	H95	H	0.919919	0.395478	0.914957
	H96	H	0.415774	0.123276	0.598226
	H97	H	0.587413	0.898123	0.595579
	H98	H	0.593798	0.121476	0.420535
	H99	H	0.421957	0.899936	0.425046
	H100	H	0.588857	0.418883	0.118115
	H101	H	0.592828	0.591359	0.897027
	H102	H	0.420128	0.595249	0.115789
	H103	H	0.411715	0.424234	0.895915
	H104	H	0.117027	0.598159	0.414674
	H105	H	0.891626	0.596774	0.596167
	H106	H	0.115241	0.418146	0.589334
	H107	H	0.887624	0.412674	0.418575
	H108	H	0.916049	0.622715	0.097761
	H109	H	0.086252	0.398872	0.097659
	H110	H	0.090040	0.620587	0.923592
	H111	H	0.915360	0.396696	0.923010
	H112	H	0.092488	0.930125	0.614822
	H113	H	0.088331	0.096598	0.395580
	H114	H	0.910164	0.095837	0.618317
	H115	H	0.911276	0.920557	0.393109
	H116	H	0.616466	0.100715	0.916301
	H117	H	0.388275	0.101720	0.096273
	H118	H	0.616016	0.924984	0.099352
	H119	H	0.390944	0.925070	0.919275
	C120	C	0.381904	0.018219	0.628585
	C121	C	0.623772	1.001866	0.627817
	C122	C	0.624317	0.017542	0.384483
	C123	C	0.383062	1.000116	0.386302
	C124	C	0.624257	0.387842	0.014923
	C125	C	0.625174	0.631528	0.998584
	C126	C	0.381701	0.630077	0.014458
	C127	C	0.380463	0.386806	0.998359
	C128	C	0.010780	0.629455	0.386634
	C129	C	0.995264	0.630854	0.629359
	C130	C	0.011403	0.387575	0.627990
	C131	C	0.994119	0.387035	0.385425
	C132	C	0.883063	0.517497	0.128036
	C133	C	0.125334	0.501257	0.129734
	C134	C	0.124089	0.517580	0.886158
	C135	C	0.882173	0.499495	0.885709
	C136	C	0.125458	0.886632	0.514975
	C137	C	0.124276	0.129294	0.498822
	C138	C	0.880313	0.130805	0.514675
	C139	C	0.881377	0.887687	0.497924
	C140	C	0.511764	0.131211	0.884579
	C141	C	0.494250	0.129956	0.128112
	C142	C	0.511315	0.888670	0.127448
	C143	C	0.493973	0.888878	0.884865
	C144	C	0.378105	0.899764	0.690157
	C145	C	0.627719	0.120809	0.687769
	C146	C	0.628349	0.899310	0.322770
	C147	C	0.377741	0.118215	0.324582
	C148	C	0.685321	0.385361	0.897039
	C149	C	0.687042	0.636190	0.115681
	C150	C	0.319834	0.633437	0.897028
	C151	C	0.320297	0.384432	0.116365
	C152	C	0.891125	0.688747	0.385000
	C153	C	0.113221	0.693302	0.632767
	C154	C	0.891687	0.328378	0.629454
	C155	C	0.112784	0.326179	0.382515
	C156	C	0.892984	0.385047	0.688505
	C157	C	0.112964	0.636120	0.691324
	C158	C	0.892138	0.632556	0.326026
	C159	C	0.112655	0.383610	0.324387
	C160	C	0.378293	0.690912	0.896513
	C161	C	0.628857	0.694021	0.115556
	C162	C	0.626895	0.327706	0.896534
	C163	C	0.378855	0.326868	0.116568
	C164	C	0.684849	0.898712	0.381355
	C165	C	0.684029	0.121166	0.628768
	C166	C	0.321404	0.898908	0.631481
	C167	C	0.321373	0.118767	0.383455
	C168	C	0.880634	0.398043	0.187162
	C169	C	0.130345	0.619389	0.191786
	C170	C	0.129321	0.399291	0.824353
	C171	C	0.878506	0.617905	0.824418
	C172	C	0.188283	0.881818	0.397980
	C173	C	0.184070	0.131800	0.617266
	C174	C	0.820865	0.132624	0.395766
	C175	C	0.822590	0.887188	0.616896
	C176	C	0.391265	0.189088	0.884676
	C177	C	0.613553	0.190293	0.129832
	C178	C	0.392419	0.827247	0.130298
	C179	C	0.613044	0.828697	0.882654
	C180	C	0.393092	0.883379	0.189498
	C181	C	0.612456	0.134502	0.189560
	C182	C	0.392204	0.133290	0.825435
	C183	C	0.613567	0.887393	0.825809
	C184	C	0.879524	0.189927	0.395819
	C185	C	0.125632	0.189343	0.617436
	C186	C	0.128741	0.825211	0.397398
	C187	C	0.880917	0.829586	0.617187
	C188	C	0.183897	0.397967	0.884434
	C189	C	0.186766	0.620152	0.132546
	C190	C	0.822564	0.398274	0.130054
	C191	C	0.821548	0.618520	0.883021
	C192	C	0.407355	0.100998	0.603322
	C193	C	0.598816	0.918343	0.604032
	C194	C	0.598057	0.099902	0.410458
	C195	C	0.409700	0.917874	0.412036
	C196	C	0.598920	0.413015	0.097342
	C197	C	0.599291	0.605106	0.916693
	C198	C	0.407592	0.604697	0.096578
	C199	C	0.405653	0.411818	0.915599
	C200	C	0.093473	0.603634	0.412362
	C201	C	0.912980	0.604247	0.603822
	C202	C	0.094524	0.412898	0.602836
	C203	C	0.911076	0.412159	0.410266
	C204	C	0.908904	0.600572	0.103503
	C205	C	0.098763	0.419027	0.103828
	C206	C	0.097748	0.600071	0.912051
	C207	C	0.907911	0.416810	0.910865
	C208	C	0.099291	0.913420	0.596767
	C209	C	0.098950	0.103397	0.416705
	C210	C	0.905018	0.105699	0.597117
	C211	C	0.905878	0.911681	0.414972
	C212	C	0.595342	0.106438	0.908841
	C213	C	0.411503	0.104068	0.103000
	C214	C	0.593140	0.915750	0.101348
	C215	C	0.410908	0.914052	0.910113
	Zn216	Zn	0.503044	0.010603	0.756934
	Zn217	Zn	0.502789	0.009010	0.256658
	Zn218	Zn	0.753953	0.509163	0.007418
	Zn219	Zn	0.252090	0.509448	0.006777
	Zn220	Zn	0.002615	0.758661	0.506810
	Zn221	Zn	0.002804	0.258705	0.506953
	Zn222	Zn	0.004301	0.508548	0.757667
	Zn223	Zn	0.002930	0.509501	0.257332
	Zn224	Zn	0.502645	0.760096	0.006049
	Zn225	Zn	0.503037	0.258112	0.006457
	Zn226	Zn	0.751993	0.008970	0.505966
	Zn227	Zn	0.254077	0.008582	0.507016
	N228	N	0.415081	0.974917	0.688507
	N229	N	0.590942	0.045577	0.687405
	N230	N	0.591367	0.974344	0.324673
	N231	N	0.415380	0.043513	0.326291
	N232	N	0.684091	0.421724	0.971932
	N233	N	0.684900	0.597994	0.041755
	N234	N	0.321693	0.596588	0.971487
	N235	N	0.321207	0.421013	0.041854
	N236	N	0.966216	0.687105	0.421770
	N237	N	0.039011	0.690115	0.594899
	N238	N	0.966543	0.329727	0.592559
	N239	N	0.038264	0.328300	0.419944
	N240	N	0.968597	0.421008	0.687676
	N241	N	0.038494	0.597957	0.689465
	N242	N	0.967547	0.596483	0.326864
	N243	N	0.037757	0.420827	0.326042
	N244	N	0.415936	0.689076	0.970581
	N245	N	0.591058	0.691178	0.041616
	N246	N	0.589671	0.329146	0.970863
	N247	N	0.415395	0.328017	0.041859
	N248	N	0.682194	0.973152	0.419348
	N249	N	0.681755	0.046018	0.592068
	N250	N	0.323555	0.973501	0.593944
	N251	N	0.324728	0.044353	0.421302
	N252	N	0.917580	0.473265	0.185915
	N253	N	0.092899	0.544506	0.190257
	N254	N	0.092892	0.474691	0.825259
	N255	N	0.915430	0.542845	0.825810
	N256	N	0.186461	0.919243	0.472391
	N257	N	0.183552	0.095471	0.542521
	N258	N	0.821025	0.096784	0.470835
	N259	N	0.822459	0.922344	0.541490
	N260	N	0.466720	0.187857	0.920788
	N261	N	0.539003	0.187769	0.092337
	N262	N	0.466703	0.830286	0.092310
	N263	N	0.537685	0.829363	0.918534
	N264	N	0.467935	0.920946	0.187737
	N265	N	0.537105	0.098127	0.188780
	N266	N	0.468380	0.098591	0.825016
	N267	N	0.538158	0.923667	0.826824
	N268	N	0.915474	0.189129	0.470679
	N269	N	0.089306	0.188130	0.542500
	N270	N	0.090432	0.828271	0.471077
	N271	N	0.916485	0.829693	0.542150
	N272	N	0.180912	0.472602	0.922119
	N273	N	0.183689	0.545689	0.094558
	N274	N	0.823783	0.473725	0.094078
	N275	N	0.823483	0.543762	0.920166
	O276	O	0.559379	0.549850	0.529916
	H277	H	0.545176	0.550315	0.522460
	H278	H	0.566616	0.571736	0.512604
	O279	O	1.027692	0.177202	1.074560
	H280	H	1.027385	0.184316	1.082616
	H281	H	1.036350	0.182143	1.070197
	O282	O	0.700396	0.681181	0.703143
	H283	H	0.713797	0.665452	0.719721
	H284	H	0.664483	0.672875	0.710267
	O285	O	0.487272	0.718948	0.296806
	H286	H	0.458009	0.708131	0.309475
	H287	H	0.486003	0.740467	0.270020
	O288	O	1.089257	1.018334	-0.105078
	H289	H	1.095304	1.009235	-0.095219
	H290	H	1.082110	1.012897	-0.097528
	O291	O	0.370844	0.680779	0.356918
	H292	H	0.370623	0.685259	0.385681
	H293	H	0.347738	0.646711	0.342296
	O294	O	0.122874	-0.089649	1.144666
	H295	H	0.115931	-0.092074	1.137376
	H296	H	0.114290	-0.105783	1.144807
	O297	O	0.526424	0.321705	0.290895
	H298	H	0.531086	0.295124	0.273149
	H299	H	0.532370	0.316834	0.308017
	O300	O	0.561040	0.722145	0.495751
	H301	H	0.565976	0.732811	0.465023
	H302	H	0.588058	0.723845	0.497357
	O303	O	0.647622	0.513169	0.322712
	H304	H	0.671505	0.503662	0.301511
	H305	H	0.635647	0.499621	0.322919
	O306	O	0.318503	0.327487	0.683171
	H307	H	0.308337	0.371478	0.691864
	H308	H	0.367710	0.318337	0.698263
	O309	O	0.298420	0.490461	0.718124
	H310	H	0.278793	0.492978	0.741747
	H311	H	0.286474	0.514171	0.686984
	O312	O	-0.052408	1.013675	1.023473
	H313	H	-0.050678	1.009942	1.031327
	H314	H	-0.036236	1.018441	1.009146
	O315	O	0.295583	0.718350	0.478612
	H316	H	0.278052	0.738998	0.457328
	H317	H	0.318014	0.737545	0.497577
	O318	O	0.803659	0.195770	-0.005571
	H319	H	0.819485	0.198973	-0.021234
	H320	H	0.786126	0.207843	-0.004749
	O321	O	-0.009489	0.215416	-0.184258
	H322	H	-0.040533	0.203282	-0.174742
	H323	H	-0.016599	0.234120	-0.196452
	O324	O	0.591189	0.598585	0.334985
	H325	H	0.598446	0.588511	0.343854
	H326	H	0.585866	0.591036	0.326689
	O327	O	0.477238	0.292857	0.720930
	H328	H	0.490338	0.285205	0.720213
	H329	H	0.492569	0.278853	0.732514
	O330	O	0.211557	1.036702	0.218617
	H331	H	0.218440	1.036661	0.229031
	H332	H	0.216800	1.029369	0.210927
	O333	O	0.597114	0.473641	0.448332
	H334	H	0.608216	0.489904	0.445940
	H335	H	0.576187	0.478900	0.446729
	O336	O	-0.047694	-0.199067	0.217464
	H337	H	-0.055598	-0.230513	0.234995
	H338	H	-0.077729	-0.193262	0.210441
	O339	O	0.007246	1.005442	0.808915
	H340	H	0.011094	1.008479	0.824687
	H341	H	0.017213	1.008681	0.795901
	O342	O	0.187096	0.825930	0.825892
	H343	H	0.168079	0.820809	0.814020
	H344	H	0.194592	0.870917	0.819773
	O345	O	0.841193	0.837630	-0.141929
	H346	H	0.833839	0.857105	-0.131702
	H347	H	0.852855	0.829359	-0.133971
	O348	O	0.282997	0.530561	0.541873
	H349	H	0.275976	0.521315	0.526162
	H350	H	0.284599	0.548348	0.532047
	O351	O	0.480921	0.542221	0.709220
	H352	H	0.481470	0.544254	0.697726
	H353	H	0.471665	0.543526	0.704341
	O354	O	0.196635	0.791549	-0.007295
	H355	H	0.189949	0.792085	-0.046092
	H356	H	0.220120	0.771525	-0.016924
	O357	O	0.150731	0.212434	1.121999
	H358	H	0.146136	0.222032	1.136157
	H359	H	0.168718	0.227387	1.124416
	O360	O	0.338249	0.521343	0.311722
	H361	H	0.343790	0.511620	0.312847
	H362	H	0.326770	0.506425	0.297398
	O363	O	0.088670	0.115043	0.836822
	H364	H	0.095771	0.131441	0.843383
	H365	H	0.071039	0.132953	0.840206
	O366	O	0.192841	0.083524	0.076112
	H367	H	0.192065	0.058052	0.082870
	H368	H	0.210020	0.092942	0.082866
	O369	O	0.528343	0.725900	0.721855
	H370	H	0.522082	0.744347	0.741616
	H371	H	0.528857	0.721485	0.726766
	O372	O	1.012055	-0.157554	0.858812
	H373	H	1.007307	-0.159536	0.852499
	H374	H	1.012851	-0.182534	0.863920
	O375	O	0.675780	0.372816	0.317752
	H376	H	0.661946	0.362898	0.309107
	H377	H	0.683984	0.365860	0.343846
	O378	O	0.717673	0.710220	0.524311
	H379	H	0.740991	0.732636	0.533474
	H380	H	0.716411	0.707712	0.558584
	O381	O	0.703204	0.306542	0.427113
	H382	H	0.727039	0.284303	0.420886
	H383	H	0.689115	0.311019	0.445253
	O384	O	0.616707	0.529194	0.438772
	H385	H	0.619582	0.551860	0.441143
	H386	H	0.616611	0.525217	0.422222
	O387	O	-0.129399	0.011900	0.916837
	H388	H	-0.118025	0.027929	0.916658
	H389	H	-0.125522	0.008020	0.925758
	O390	O	0.033180	0.124741	0.001938
	H391	H	0.031908	0.123714	0.003729
	H392	H	0.034881	0.109194	0.013880
	O393	O	1.067699	0.860289	1.043740
	H394	H	1.063949	0.858299	1.056640
	H395	H	1.102380	0.856449	1.041922
	O396	O	0.971148	0.035627	0.203208
	H397	H	0.974220	0.026643	0.202641
	H398	H	0.976810	0.042285	0.204587
	O399	O	0.887188	0.184423	0.927668
	H400	H	0.888048	0.157306	0.922472
	H401	H	0.883802	0.181724	0.949254
	O402	O	1.026351	0.871709	1.094070
	H403	H	1.019200	0.864723	1.091000
	H404	H	1.046092	0.871752	1.095986
	O405	O	0.791623	1.037542	0.041639
	H406	H	0.795138	1.041462	0.046245
	H407	H	0.797316	1.039401	0.036193
	O408	O	0.817932	-0.181981	0.156456
	H409	H	0.798915	-0.178006	0.158720
	H410	H	0.814036	-0.166247	0.133378
	O411	O	0.858111	0.851345	0.015628
	H412	H	0.851505	0.849931	0.010420
	H413	H	0.869726	0.850808	0.011102
	O414	O	0.364106	0.299798	0.376857
	H415	H	0.353742	0.306800	0.386814
	H416	H	0.363511	0.309073	0.386573
	O417	O	0.427925	0.443515	0.340093
	H418	H	0.436332	0.436973	0.343022
	H419	H	0.448252	0.450402	0.339627
	O420	O	0.051158	0.198164	0.178464
	H421	H	0.051729	0.176289	0.192378
	H422	H	0.048209	0.191358	0.196266
	O423	O	0.661004	0.421301	0.654335
	H424	H	0.668145	0.423638	0.641120
	H425	H	0.660987	0.427554	0.646151
	O426	O	0.532599	0.299630	0.531357
	H427	H	0.520915	0.296536	0.537663
	H428	H	0.525326	0.321199	0.524695
	O429	O	0.498856	0.542557	0.660896
	H430	H	0.501265	0.531557	0.649714
	H431	H	0.471581	0.532988	0.648451
	O432	O	0.645893	0.517038	0.616410
	H433	H	0.649398	0.522758	0.640577
	H434	H	0.641254	0.516701	0.609442
	O435	O	0.601286	0.494062	0.629779
	H436	H	0.605434	0.507863	0.624970
	H437	H	0.602770	0.495856	0.630407
	O438	O	-0.072277	0.152116	-0.117660
	H439	H	-0.066060	0.134624	-0.118079
	H440	H	-0.074861	0.160088	-0.132073
	O441	O	1.104710	-0.055830	-0.198081
	H442	H	1.128576	-0.038171	-0.201160
	H443	H	1.111006	-0.047239	-0.205815
	O444	O	-0.204521	0.995072	1.211408
	H445	H	-0.201703	0.990848	1.225292
	H446	H	-0.216392	1.000669	1.204033
	O447	O	0.428013	0.621325	0.542892
	H448	H	0.451409	0.626253	0.541420
	H449	H	0.438739	0.614822	0.538320
	O450	O	0.290436	0.295974	0.525303
	H451	H	0.299230	0.294550	0.556769
	H452	H	0.267626	0.280754	0.540112
	O453	O	0.304365	0.459231	0.406642
	H454	H	0.309637	0.434350	0.404583
	H455	H	0.298430	0.456770	0.394910
