data_Molecule from HDF5

_cell_length_a		16.687243
_cell_length_b		16.658299
_cell_length_c		16.629991
_cell_angle_alpha	89.961081
_cell_angle_beta	90.115511
_cell_angle_gamma	89.889017
_symmetry_space_group_name_H-M	'P 1'
_symmetry_Int_Tables_number		1

loop_
	_symmetry_equiv_pos_as_xyz
	x,y,z

loop_
	_atom_site_label
	_atom_site_type_symbol
	_atom_site_fract_x
	_atom_site_fract_y
	_atom_site_fract_z
	H0	H	0.369786	0.823040	0.698313
	H1	H	0.586100	0.129181	0.699941
	H2	H	0.581614	0.823211	0.253327
	H3	H	0.369282	0.131467	0.253012
	H4	H	0.697224	0.373437	0.818516
	H5	H	0.694066	0.579649	0.131500
	H6	H	0.249172	0.586930	0.823617
	H7	H	0.257364	0.372766	0.131111
	H8	H	0.821090	0.696411	0.372492
	H9	H	0.128150	0.703235	0.585495
	H10	H	0.822125	0.254970	0.581411
	H11	H	0.129432	0.254215	0.369004
	H12	H	0.821738	0.371203	0.697566
	H13	H	0.127995	0.587838	0.701818
	H14	H	0.820397	0.579688	0.256860
	H15	H	0.129253	0.368726	0.252144
	H16	H	0.365598	0.702055	0.822208
	H17	H	0.578557	0.696413	0.131155
	H18	H	0.580629	0.258564	0.817410
	H19	H	0.374808	0.258734	0.131139
	H20	H	0.695454	0.821480	0.371546
	H21	H	0.699442	0.129978	0.581751
	H22	H	0.253422	0.823439	0.582293
	H23	H	0.251428	0.129486	0.365735
	H24	H	0.872377	0.322100	0.194710
	H25	H	0.078483	0.632948	0.195047
	H26	H	0.082243	0.323230	0.752603
	H27	H	0.872131	0.633525	0.755302
	H28	H	0.198698	0.869516	0.320235
	H29	H	0.200869	0.084707	0.628087
	H30	H	0.755106	0.082030	0.319466
	H31	H	0.755771	0.871332	0.630029
	H32	H	0.323311	0.201822	0.865674
	H33	H	0.633733	0.194153	0.075491
	H34	H	0.323129	0.753473	0.082951
	H35	H	0.632092	0.758031	0.872671
	H36	H	0.323056	0.870574	0.197826
	H37	H	0.633219	0.078187	0.191873
	H38	H	0.323342	0.086322	0.749509
	H39	H	0.632311	0.873486	0.756473
	H40	H	0.870075	0.198187	0.320046
	H41	H	0.082422	0.198367	0.629684
	H42	H	0.081555	0.755512	0.319422
	H43	H	0.871104	0.754598	0.629119
	H44	H	0.198437	0.323068	0.868496
	H45	H	0.196573	0.631233	0.081215
	H46	H	0.755777	0.321981	0.079021
	H47	H	0.755962	0.633585	0.870984
	H48	H	0.390812	0.086648	0.563302
	H49	H	0.564162	0.863831	0.569193
	H50	H	0.567191	0.089372	0.384163
	H51	H	0.389609	0.865955	0.384259
	H52	H	0.567070	0.381512	0.088475
	H53	H	0.567469	0.568241	0.861700
	H54	H	0.388090	0.564045	0.086087
	H55	H	0.383526	0.392713	0.863781
	H56	H	0.087555	0.564898	0.388910
	H57	H	0.866105	0.566441	0.561107
	H58	H	0.083372	0.395690	0.562066
	H59	H	0.863203	0.386302	0.382645
	H60	H	0.088795	0.387335	0.570206
	H61	H	0.867403	0.562749	0.562302
	H62	H	0.088514	0.564458	0.381450
	H63	H	0.865145	0.386804	0.389165
	H64	H	0.390645	0.561976	0.083828
	H65	H	0.565771	0.567057	0.862646
	H66	H	0.570906	0.388625	0.086235
	H67	H	0.391603	0.391100	0.865007
	H68	H	0.566072	0.089139	0.384012
	H69	H	0.562539	0.867257	0.560875
	H70	H	0.390656	0.085554	0.559204
	H71	H	0.389759	0.867244	0.387501
	H72	H	0.886521	0.590080	0.069953
	H73	H	0.070422	0.363888	0.064630
	H74	H	0.063486	0.589680	0.884532
	H75	H	0.888550	0.366046	0.883862
	H76	H	0.069258	0.890617	0.587258
	H77	H	0.061332	0.058291	0.367318
	H78	H	0.882092	0.064408	0.586998
	H79	H	0.888330	0.882481	0.361775
	H80	H	0.584100	0.063804	0.892215
	H81	H	0.362598	0.075336	0.062989
	H82	H	0.588443	0.890076	0.070183
	H83	H	0.364945	0.888495	0.885675
	H84	H	0.588192	0.881066	0.061814
	H85	H	0.367823	0.064874	0.059026
	H86	H	0.587586	0.061301	0.880410
	H87	H	0.366325	0.890031	0.888691
	H88	H	0.890143	0.063001	0.584557
	H89	H	0.059117	0.069915	0.364745
	H90	H	0.061874	0.894709	0.582158
	H91	H	0.880193	0.888411	0.361172
	H92	H	0.056675	0.584150	0.889204
	H93	H	0.062638	0.365221	0.068255
	H94	H	0.884626	0.589111	0.062718
	H95	H	0.888065	0.367101	0.889394
	H96	H	0.387918	0.087817	0.560709
	H97	H	0.570823	0.864269	0.562732
	H98	H	0.566282	0.088994	0.384998
	H99	H	0.386624	0.865586	0.386796
	H100	H	0.563189	0.387938	0.084778
	H101	H	0.564792	0.569042	0.862550
	H102	H	0.391067	0.565528	0.085316
	H103	H	0.386633	0.385420	0.861587
	H104	H	0.090451	0.570768	0.385528
	H105	H	0.865553	0.565180	0.564920
	H106	H	0.086456	0.383249	0.558037
	H107	H	0.866334	0.391390	0.385404
	H108	H	0.879468	0.591436	0.067438
	H109	H	0.064666	0.367292	0.060021
	H110	H	0.065341	0.586618	0.894165
	H111	H	0.883206	0.365687	0.886694
	H112	H	0.061115	0.885470	0.585333
	H113	H	0.069497	0.065025	0.361216
	H114	H	0.888610	0.070702	0.588621
	H115	H	0.888602	0.891452	0.365236
	H116	H	0.590065	0.072466	0.885457
	H117	H	0.363391	0.065720	0.070808
	H118	H	0.584037	0.892559	0.059017
	H119	H	0.365944	0.892182	0.885709
	C120	C	0.356096	-0.014954	0.595275
	C121	C	0.598297	0.967472	0.596713
	C122	C	0.597740	-0.013744	0.353200
	C123	C	0.355207	0.968259	0.352824
	C124	C	0.598369	0.355702	-0.017271
	C125	C	0.596808	0.598565	0.966246
	C126	C	0.354550	0.598842	-0.015996
	C127	C	0.355598	0.356724	0.966235
	C128	C	-0.014514	0.598254	0.354198
	C129	C	0.967628	0.599104	0.596908
	C130	C	-0.015591	0.356212	0.596377
	C131	C	0.967088	0.355052	0.353161
	C132	C	0.853428	0.486656	0.097206
	C133	C	0.097238	0.468374	0.096634
	C134	C	0.096243	0.485635	0.855040
	C135	C	0.854951	0.469303	0.854438
	C136	C	0.096893	0.856790	0.482630
	C137	C	0.097105	0.097655	0.466357
	C138	C	0.854797	0.097761	0.483606
	C139	C	0.854782	0.855687	0.465986
	C140	C	0.485442	0.099195	0.852219
	C141	C	0.468389	0.098287	0.094568
	C142	C	0.484751	0.855599	0.096330
	C143	C	0.468271	0.857534	0.854805
	C144	C	0.352469	0.869226	0.657213
	C145	C	0.602960	0.083108	0.658752
	C146	C	0.599733	0.869553	0.293666
	C147	C	0.351047	0.084238	0.292134
	C148	C	0.657178	0.354942	0.865143
	C149	C	0.654853	0.598779	0.084350
	C150	C	0.290949	0.603919	0.869272
	C151	C	0.297022	0.354830	0.083878
	C152	C	0.868038	0.657004	0.353343
	C153	C	0.082233	0.661855	0.602537
	C154	C	0.868348	0.295229	0.599653
	C155	C	0.082945	0.294045	0.350491
	C156	C	0.868273	0.353106	0.657230
	C157	C	0.082171	0.604219	0.660154
	C158	C	0.867673	0.598994	0.295992
	C159	C	0.082796	0.351421	0.292522
	C160	C	0.348681	0.661302	0.868747
	C161	C	0.597495	0.656674	0.084352
	C162	C	0.599400	0.297622	0.864756
	C163	C	0.355532	0.297990	0.083944
	C164	C	0.656491	0.868929	0.352156
	C165	C	0.659453	0.083594	0.600204
	C166	C	0.294381	0.869532	0.599826
	C167	C	0.292622	0.083263	0.348677
	C168	C	0.853199	0.368802	0.155268
	C169	C	0.097891	0.585623	0.155626
	C170	C	0.100039	0.369659	0.793401
	C171	C	0.853869	0.586863	0.795371
	C172	C	0.157933	0.852638	0.366550
	C173	C	0.159469	0.102007	0.582030
	C174	C	0.795118	0.100087	0.366431
	C175	C	0.795447	0.853181	0.583115
	C176	C	0.369560	0.161192	0.848123
	C177	C	0.586344	0.155708	0.095016
	C178	C	0.369050	0.794549	0.100048
	C179	C	0.585105	0.797582	0.853677
	C180	C	0.369066	0.852638	0.157172
	C181	C	0.586234	0.097836	0.152769
	C182	C	0.369632	0.103643	0.790416
	C183	C	0.585277	0.855303	0.796001
	C184	C	0.852284	0.157953	0.366741
	C185	C	0.100614	0.158549	0.582879
	C186	C	0.099799	0.795631	0.366195
	C187	C	0.852979	0.795382	0.582731
	C188	C	0.158144	0.369659	0.850804
	C189	C	0.156391	0.585082	0.098997
	C190	C	0.795155	0.368944	0.097953
	C191	C	0.796170	0.586896	0.852976
	C192	C	0.382200	0.065746	0.568622
	C193	C	0.572914	0.886252	0.571350
	C194	C	0.573261	0.068113	0.377365
	C195	C	0.381449	0.887469	0.378694
	C196	C	0.573977	0.379317	0.065041
	C197	C	0.572825	0.574902	0.883769
	C198	C	0.382273	0.571547	0.064280
	C199	C	0.380123	0.382323	0.884620
	C200	C	0.067417	0.573803	0.378442
	C201	C	0.887201	0.572430	0.570169
	C202	C	0.065059	0.381605	0.570769
	C203	C	0.885857	0.380805	0.378548
	C204	C	0.876804	0.568874	0.073416
	C205	C	0.072769	0.386686	0.071624
	C206	C	0.069537	0.565894	0.881775
	C207	C	0.879515	0.387539	0.879352
	C208	C	0.071130	0.882897	0.563732
	C209	C	0.070862	0.071756	0.385418
	C210	C	0.879714	0.073048	0.565499
	C211	C	0.878812	0.880417	0.384015
	C212	C	0.566221	0.073255	0.878536
	C213	C	0.385978	0.075299	0.070913
	C214	C	0.565842	0.880900	0.070823
	C215	C	0.387051	0.882994	0.879486
	Zn216	Zn	0.476612	-0.022659	0.724225
	Zn217	Zn	0.476379	-0.022568	0.224429
	Zn218	Zn	0.725626	0.477578	-0.025074
	Zn219	Zn	0.226081	0.477265	-0.024384
	Zn220	Zn	-0.022703	0.727596	0.474977
	Zn221	Zn	-0.024125	0.226740	0.475499
	Zn222	Zn	-0.024229	0.477520	0.725164
	Zn223	Zn	-0.024115	0.476929	0.225089
	Zn224	Zn	0.475823	0.727026	-0.025212
	Zn225	Zn	0.476731	0.227622	-0.026292
	Zn226	Zn	0.725861	-0.023052	0.474994
	Zn227	Zn	0.226667	-0.023659	0.474416
	N228	N	0.390132	0.942400	0.654618
	N229	N	0.565631	0.009912	0.656706
	N230	N	0.563893	0.943679	0.294095
	N231	N	0.389484	0.011563	0.294499
	N232	N	0.656881	0.390242	0.939731
	N233	N	0.654679	0.563443	0.009823
	N234	N	0.294412	0.565647	0.942250
	N235	N	0.296637	0.390518	0.009428
	N236	N	0.942489	0.656715	0.388735
	N237	N	0.009850	0.658687	0.563642
	N238	N	0.941683	0.296662	0.562621
	N239	N	0.009800	0.296235	0.387910
	N240	N	0.941471	0.390243	0.655645
	N241	N	0.009747	0.565649	0.656739
	N242	N	0.941848	0.563215	0.296061
	N243	N	0.009641	0.388804	0.294174
	N244	N	0.387774	0.658119	0.941150
	N245	N	0.562153	0.656778	0.009695
	N246	N	0.563423	0.297896	0.938956
	N247	N	0.390877	0.298644	0.009484
	N248	N	0.655691	0.942729	0.388377
	N249	N	0.657023	0.010473	0.562512
	N250	N	0.296455	0.942702	0.562019
	N251	N	0.294859	0.009911	0.385668
	N252	N	0.888719	0.442990	0.155117
	N253	N	0.061884	0.511704	0.154456
	N254	N	0.062371	0.442858	0.795582
	N255	N	0.889704	0.512630	0.796082
	N256	N	0.156372	0.889915	0.440091
	N257	N	0.157493	0.064696	0.508492
	N258	N	0.796552	0.063266	0.440289
	N259	N	0.796354	0.889995	0.509342
	N260	N	0.442793	0.158801	0.885720
	N261	N	0.511863	0.156317	0.059890
	N262	N	0.442086	0.796094	0.063029
	N263	N	0.511002	0.798601	0.889643
	N264	N	0.442190	0.889923	0.155193
	N265	N	0.511525	0.063206	0.153158
	N266	N	0.442707	0.065768	0.792770
	N267	N	0.511541	0.891627	0.796387
	N268	N	0.888934	0.156696	0.440688
	N269	N	0.062334	0.155862	0.509845
	N270	N	0.062465	0.798081	0.439515
	N271	N	0.889229	0.796695	0.508793
	N272	N	0.156090	0.442899	0.888410
	N273	N	0.156296	0.510947	0.063244
	N274	N	0.794873	0.443330	0.062710
	N275	N	0.796475	0.512571	0.888875
	O276	O	-0.073930	0.931225	-0.260489
	H277	H	-0.070724	0.926201	-0.269351
	H278	H	-0.064831	0.939294	-0.258580
	O279	O	0.422146	0.695971	0.549576
	H280	H	0.428552	0.697691	0.561430
	H281	H	0.398960	0.698978	0.559144
	O282	O	0.851238	-0.239151	1.191995
	H283	H	0.834915	-0.273079	1.228098
	H284	H	0.838113	-0.223110	1.189695
	O285	O	0.379472	0.333791	0.351101
	H286	H	0.401234	0.325410	0.357583
	H287	H	0.366892	0.316608	0.343262
	O288	O	0.652022	0.651003	0.555136
	H289	H	0.645990	0.660017	0.545001
	H290	H	0.650446	0.655423	0.549734
	O291	O	0.688091	0.689848	0.689325
	H292	H	0.721451	0.724140	0.718154
	H293	H	0.687594	0.691316	0.646405
	O294	O	1.081340	0.135473	0.815714
	H295	H	1.098157	0.146979	0.809996
	H296	H	1.087732	0.134384	0.818540
	O297	O	1.035079	1.148495	0.165788
	H298	H	1.026012	1.155679	0.169634
	H299	H	1.018240	1.153792	0.152048
	O300	O	-0.028510	-0.232342	1.127542
	H301	H	-0.044546	-0.218964	1.137287
	H302	H	-0.027762	-0.239606	1.144667
	O303	O	0.462590	0.248937	0.457970
	H304	H	0.488250	0.252133	0.471142
	H305	H	0.473203	0.246180	0.452044
	O306	O	0.471741	0.516042	0.516358
	H307	H	0.469263	0.514277	0.517796
	H308	H	0.459412	0.528233	0.517487
	O309	O	0.259127	0.257450	0.502080
	H310	H	0.241237	0.237931	0.504029
	H311	H	0.282437	0.251205	0.486222
	O312	O	0.250275	0.433555	0.503179
	H313	H	0.246007	0.440869	0.511189
	H314	H	0.254865	0.425075	0.486683
	O315	O	1.501798	1.702239	1.698419
	H316	H	1.515324	1.712192	1.702018
	H317	H	1.514128	1.715198	1.713127
	O318	O	0.382479	0.535264	0.480941
	H319	H	0.366103	0.540938	0.472867
	H320	H	0.383587	0.527524	0.475012
	O321	O	-0.005671	0.768877	0.760359
	H322	H	-0.004826	0.753910	0.743577
	H323	H	0.005684	0.766846	0.779858
	O324	O	0.983680	1.197516	-0.009562
	H325	H	0.994564	1.195629	-0.020294
	H326	H	0.981815	1.191114	-0.028560
	O327	O	-0.247179	-0.241294	1.011018
	H328	H	-0.263128	-0.258975	1.036127
	H329	H	-0.251876	-0.251721	1.037429
	O330	O	0.259478	0.589788	0.576153
	H331	H	0.251179	0.587119	0.558149
	H332	H	0.250573	0.596293	0.575293
	O333	O	0.470106	0.527107	0.278294
	H334	H	0.443428	0.523515	0.278673
	H335	H	0.475532	0.515585	0.270058
	O336	O	0.598057	0.393925	0.604477
	H337	H	0.604941	0.407023	0.607584
	H338	H	0.598538	0.406220	0.607561
	O339	O	1.162825	-0.209853	1.151233
	H340	H	1.148621	-0.190798	1.135432
	H341	H	1.146748	-0.195992	1.129768
	O342	O	0.703378	0.507212	-0.299907
	H343	H	0.716320	0.534724	-0.284759
	H344	H	0.710359	0.527493	-0.291224
	O345	O	-0.195496	1.147548	1.026806
	H346	H	-0.197277	1.149761	1.010036
	H347	H	-0.205984	1.158056	1.007576
	O348	O	0.692014	0.433655	0.258664
	H349	H	0.702684	0.442983	0.248929
	H350	H	0.690125	0.431555	0.250822
	O351	O	0.682288	1.261453	0.267231
	H352	H	0.681426	1.295603	0.274186
	H353	H	0.717169	1.232804	0.235164
	O354	O	0.184133	-0.226405	0.763290
	H355	H	0.165560	-0.218604	0.770002
	H356	H	0.176459	-0.214939	0.792691
	O357	O	1.190076	0.133242	1.098118
	H358	H	1.208340	0.133297	1.130165
	H359	H	1.157929	0.139279	1.101514
	O360	O	1.012735	0.978133	0.921029
	H361	H	1.010962	0.994674	0.916468
	H362	H	1.016669	0.985460	0.922440
	O363	O	0.016545	-0.075562	0.199264
	H364	H	0.023278	-0.082388	0.204906
	H365	H	0.013467	-0.076859	0.191940
	O366	O	0.523401	0.512548	0.266306
	H367	H	0.514798	0.506638	0.279721
	H368	H	0.515243	0.492056	0.267076
	O369	O	0.356524	0.498030	0.400541
	H370	H	0.358614	0.482922	0.400984
	H371	H	0.349127	0.499696	0.413381
	O372	O	0.797371	0.904711	-0.076125
	H373	H	0.801394	0.888171	-0.063518
	H374	H	0.793196	0.909775	-0.077678
	O375	O	1.250673	0.252357	0.254280
	H376	H	1.244339	0.262385	0.250466
	H377	H	1.258760	0.252742	0.264464
	O378	O	0.257797	0.692288	0.460017
	H379	H	0.258573	0.699835	0.454825
	H380	H	0.247818	0.692853	0.438651
	O381	O	-0.039008	0.852787	1.032523
	H382	H	-0.043726	0.855717	1.024782
	H383	H	-0.045770	0.861240	1.032940
	O384	O	1.073606	-0.207195	0.927392
	H385	H	1.070208	-0.187432	0.930744
	H386	H	1.062982	-0.202548	0.941229
	O387	O	1.454184	0.393242	0.399103
	H388	H	1.455395	0.390240	0.404497
	H389	H	1.467656	0.386355	0.396148
	O390	O	0.259679	0.679813	0.262656
	H391	H	0.228055	0.706027	0.230634
	H392	H	0.270886	0.660399	0.269718
	O393	O	0.582115	0.248059	0.497403
	H394	H	0.590930	0.253288	0.484176
	H395	H	0.588641	0.233468	0.513327
	O396	O	0.196398	1.082115	0.883926
	H397	H	0.201495	1.099144	0.882638
	H398	H	0.192362	1.094798	0.884429
	O399	O	-0.233936	-0.116171	1.150142
	H400	H	-0.241027	-0.091930	1.135785
	H401	H	-0.257199	-0.135449	1.183401
	O402	O	0.479470	0.493947	0.680328
	H403	H	0.482647	0.503112	0.686818
	H404	H	0.480315	0.512886	0.677641
	O405	O	0.923169	0.116106	1.060223
	H406	H	0.920553	0.125092	1.038481
	H407	H	0.915683	0.123691	1.059766
	O408	O	-0.233291	0.185406	-0.233838
	H409	H	-0.265599	0.215006	-0.268699
	H410	H	-0.225442	0.146719	-0.241275
	O411	O	0.851463	1.019932	0.944540
	H412	H	0.852618	1.049273	0.938947
	H413	H	0.857716	1.011102	0.936156
	O414	O	0.761783	0.007325	0.756981
	H415	H	0.749202	0.005182	0.745905
	H416	H	0.767692	-0.003450	0.753746
	O417	O	0.705394	0.433440	0.495596
	H418	H	0.701697	0.443455	0.516969
	H419	H	0.700993	0.415177	0.494979
	O420	O	0.577859	0.555432	0.438888
	H421	H	0.577601	0.555768	0.432513
	H422	H	0.586913	0.552988	0.448653
	O423	O	0.077776	0.050527	1.025685
	H424	H	0.067333	0.046563	1.011117
	H425	H	0.082162	0.057876	1.010489
	O426	O	0.261859	0.268632	0.681359
	H427	H	0.265358	0.281207	0.650387
	H428	H	0.276942	0.296605	0.676050
	O429	O	1.191845	0.927408	1.046309
	H430	H	1.199762	0.941009	1.069785
	H431	H	1.199225	0.926273	1.032577
	O432	O	0.192113	0.947658	0.756634
	H433	H	0.198073	0.939136	0.764826
	H434	H	0.212313	0.954674	0.744329
	O435	O	1.032402	1.110406	0.803271
	H436	H	1.027197	1.114309	0.808391
	H437	H	1.046160	1.118885	0.786975
	O438	O	0.257472	-0.497294	0.253205
	H439	H	0.258611	-0.496146	0.251654
	H440	H	0.239677	-0.498655	0.240171
	O441	O	-0.331617	0.282318	-0.336564
	H442	H	-0.351976	0.307677	-0.347029
	H443	H	-0.351871	0.294302	-0.357328
	O444	O	0.476575	0.448504	0.585476
	H445	H	0.481998	0.474879	0.590159
	H446	H	0.481847	0.438074	0.566473
	O447	O	-0.327078	1.673032	0.282000
	H448	H	-0.336183	1.656960	0.314314
	H449	H	-0.359546	1.655258	0.285912
	O450	O	-0.497381	0.685014	1.412413
	H451	H	-0.509350	0.689596	1.422329
	H452	H	-0.506544	0.687649	1.398284
	O453	O	0.679506	0.366283	0.448062
	H454	H	0.683799	0.357908	0.454282
	H455	H	0.686110	0.365850	0.434560
	O456	O	0.789433	-0.208394	0.782370
	H457	H	0.818544	-0.191208	0.787215
	H458	H	0.802614	-0.193523	0.812304
	O459	O	0.920857	0.808997	-0.083219
	H460	H	0.934724	0.796258	-0.090915
	H461	H	0.897412	0.809758	-0.064838
	O462	O	0.515048	0.247849	0.252656
	H463	H	0.539014	0.244247	0.243776
	H464	H	0.527615	0.229263	0.236674
	O465	O	1.188913	0.199551	-0.008022
	H466	H	1.215642	0.226021	-0.005498
	H467	H	1.178531	0.193063	0.015840
	O468	O	0.349648	0.601817	0.680040
	H469	H	0.323435	0.623812	0.692083
	H470	H	0.366825	0.610603	0.662573
	O471	O	0.756431	0.959925	1.088530
	H472	H	0.742793	0.965938	1.083028
	H473	H	0.767871	0.967135	1.079943
	O474	O	0.269405	0.462180	0.697127
	H475	H	0.269796	0.469906	0.704692
	H476	H	0.250922	0.475691	0.701274
	O477	O	1.167362	0.762874	0.953220
	H478	H	1.175152	0.747330	0.954488
	H479	H	1.166539	0.769613	0.951165
	O480	O	0.459354	0.252010	0.684743
	H481	H	0.436925	0.266305	0.689510
	H482	H	0.454639	0.245322	0.712874
	O483	O	0.452845	0.699458	0.258525
	H484	H	0.444340	0.712917	0.244494
	H485	H	0.434276	0.695933	0.253296
	O486	O	0.788418	0.168459	1.166155
	H487	H	0.808123	0.160656	1.140482
	H488	H	0.804849	0.142941	1.152810
	O489	O	0.870896	1.002687	0.200108
	H490	H	0.876069	0.994530	0.205257
	H491	H	0.879196	0.994980	0.197565
	O492	O	-0.132459	0.111863	-0.088890
	H493	H	-0.143193	0.116076	-0.110655
	H494	H	-0.131063	0.104785	-0.102252
	O495	O	0.196386	1.001079	1.188108
	H496	H	0.185304	1.022364	1.185597
	H497	H	0.209174	1.002592	1.214556
	O498	O	0.942904	1.193203	0.761744
	H499	H	0.924653	1.205086	0.748490
	H500	H	0.939514	1.200307	0.757495
	O501	O	0.577087	0.466369	0.423818
	H502	H	0.574793	0.463483	0.436142
	H503	H	0.574537	0.458629	0.421977
