data_Molecule from HDF5

_cell_length_a		16.330022
_cell_length_b		16.300413
_cell_length_c		16.323059
_cell_angle_alpha	90.022261
_cell_angle_beta	90.109767
_cell_angle_gamma	90.123975
_symmetry_space_group_name_H-M	'P 1'
_symmetry_Int_Tables_number		1

loop_
	_symmetry_equiv_pos_as_xyz
	x,y,z

loop_
	_atom_site_label
	_atom_site_type_symbol
	_atom_site_fract_x
	_atom_site_fract_y
	_atom_site_fract_z
	H0	H	0.400581	0.842653	0.719338
	H1	H	0.598947	0.169297	0.718997
	H2	H	0.597524	0.841923	0.290258
	H3	H	0.402358	0.169507	0.290163
	H4	H	0.713551	0.407417	0.840552
	H5	H	0.716173	0.604495	0.167391
	H6	H	0.284661	0.604796	0.841912
	H7	H	0.286323	0.407071	0.168202
	H8	H	0.837230	0.718715	0.406164
	H9	H	0.164134	0.720421	0.602978
	H10	H	0.836522	0.291612	0.601504
	H11	H	0.163959	0.290970	0.406877
	H12	H	0.837504	0.406100	0.719587
	H13	H	0.164649	0.603567	0.718863
	H14	H	0.836793	0.602779	0.289650
	H15	H	0.163889	0.408696	0.290974
	H16	H	0.402350	0.719191	0.841210
	H17	H	0.599197	0.719961	0.168493
	H18	H	0.596346	0.291964	0.840504
	H19	H	0.402697	0.291198	0.167827
	H20	H	0.712865	0.841949	0.406362
	H21	H	0.714938	0.169331	0.602307
	H22	H	0.285665	0.842193	0.602035
	H23	H	0.285044	0.169040	0.405400
	H24	H	0.902277	0.341849	0.218267
	H25	H	0.098599	0.668941	0.219017
	H26	H	0.097650	0.341716	0.790687
	H27	H	0.902374	0.669027	0.789119
	H28	H	0.215218	0.906884	0.341963
	H29	H	0.216228	0.103985	0.667969
	H30	H	0.785526	0.103644	0.340759
	H31	H	0.786319	0.907829	0.667743
	H32	H	0.336407	0.219643	0.906108
	H33	H	0.663782	0.220728	0.102837
	H34	H	0.337513	0.790441	0.101471
	H35	H	0.663574	0.790702	0.906000
	H36	H	0.336732	0.907074	0.217785
	H37	H	0.663643	0.104605	0.219940
	H38	H	0.336741	0.103154	0.789739
	H39	H	0.663649	0.907568	0.789262
	H40	H	0.902531	0.218743	0.341064
	H41	H	0.099245	0.219763	0.668045
	H42	H	0.097685	0.791742	0.340498
	H43	H	0.902752	0.791309	0.668245
	H44	H	0.212853	0.341742	0.908143
	H45	H	0.214430	0.669141	0.103394
	H46	H	0.785830	0.341850	0.102390
	H47	H	0.786562	0.669344	0.905666
	H48	H	0.407024	0.117892	0.582542
	H49	H	0.598561	0.889123	0.594155
	H50	H	0.597714	0.121811	0.418155
	H51	H	0.408770	0.886450	0.398086
	H52	H	0.593437	0.422143	0.117593
	H53	H	0.599060	0.600284	0.886998
	H54	H	0.407017	0.599034	0.120840
	H55	H	0.404920	0.424680	0.891820
	H56	H	0.117295	0.599401	0.409629
	H57	H	0.885084	0.597027	0.599148
	H58	H	0.118787	0.412345	0.607615
	H59	H	0.884938	0.413211	0.410165
	H60	H	0.117348	0.403841	0.593675
	H61	H	0.885081	0.599915	0.597227
	H62	H	0.116170	0.599585	0.413351
	H63	H	0.883704	0.409909	0.409678
	H64	H	0.406710	0.597900	0.120450
	H65	H	0.591923	0.591611	0.891449
	H66	H	0.585727	0.406803	0.119842
	H67	H	0.416416	0.405103	0.889415
	H68	H	0.596548	0.124796	0.405087
	H69	H	0.593349	0.887327	0.603070
	H70	H	0.395322	0.128038	0.604475
	H71	H	0.416364	0.894694	0.418327
	H72	H	0.908112	0.619173	0.092104
	H73	H	0.093213	0.388573	0.100323
	H74	H	0.097066	0.624496	0.907640
	H75	H	0.911512	0.393699	0.920263
	H76	H	0.083621	0.903939	0.619852
	H77	H	0.088075	0.091111	0.392558
	H78	H	0.906773	0.084340	0.616415
	H79	H	0.908152	0.912717	0.389623
	H80	H	0.614447	0.097445	0.913462
	H81	H	0.386626	0.098470	0.092245
	H82	H	0.613760	0.914855	0.092645
	H83	H	0.384413	0.910125	0.911601
	H84	H	0.616090	0.917004	0.102880
	H85	H	0.384316	0.093936	0.101203
	H86	H	0.616156	0.098440	0.908562
	H87	H	0.385551	0.912837	0.912339
	H88	H	0.919250	0.105720	0.618868
	H89	H	0.089161	0.105355	0.387891
	H90	H	0.105489	0.908571	0.624626
	H91	H	0.906035	0.907335	0.387476
	H92	H	0.088559	0.620903	0.910076
	H93	H	0.092367	0.390295	0.096785
	H94	H	0.901283	0.624506	0.098851
	H95	H	0.896985	0.386436	0.912586
	H96	H	0.421270	0.120363	0.604963
	H97	H	0.588551	0.891650	0.595516
	H98	H	0.586299	0.119267	0.412128
	H99	H	0.394599	0.888143	0.415784
	H100	H	0.603020	0.408551	0.123675
	H101	H	0.587600	0.602742	0.889138
	H102	H	0.407994	0.598610	0.120559
	H103	H	0.394615	0.406033	0.883476
	H104	H	0.115074	0.596684	0.411305
	H105	H	0.885430	0.597354	0.595513
	H106	H	0.112722	0.419320	0.594065
	H107	H	0.884896	0.411120	0.412542
	H108	H	0.911582	0.622188	0.102520
	H109	H	0.095914	0.388338	0.097445
	H110	H	0.095652	0.621157	0.916541
	H111	H	0.912191	0.388856	0.902462
	H112	H	0.091710	0.925306	0.616042
	H113	H	0.100734	0.096259	0.386776
	H114	H	0.895525	0.104312	0.625401
	H115	H	0.902317	0.912675	0.387001
	H116	H	0.616221	0.101702	0.912101
	H117	H	0.382649	0.103685	0.099736
	H118	H	0.619165	0.907326	0.099194
	H119	H	0.384933	0.912464	0.909670
	C120	C	0.379141	0.013765	0.625254
	C121	C	0.621786	0.997529	0.625827
	C122	C	0.621460	0.013886	0.383238
	C123	C	0.378535	0.997973	0.382600
	C124	C	0.621830	0.384204	0.012334
	C125	C	0.622282	0.627226	0.996632
	C126	C	0.378912	0.626919	0.012881
	C127	C	0.378046	0.383817	0.996392
	C128	C	0.008300	0.626486	0.382860
	C129	C	0.992884	0.626716	0.626029
	C130	C	0.008609	0.383715	0.626212
	C131	C	0.992481	0.383318	0.382732
	C132	C	0.878902	0.513815	0.125755
	C133	C	0.121975	0.497164	0.126426
	C134	C	0.121574	0.513667	0.883457
	C135	C	0.878588	0.497645	0.882671
	C136	C	0.121883	0.883932	0.512385
	C137	C	0.122025	0.126618	0.496683
	C138	C	0.878536	0.126906	0.512650
	C139	C	0.877811	0.883093	0.495944
	C140	C	0.508129	0.127311	0.882974
	C141	C	0.492271	0.127436	0.126175
	C142	C	0.508570	0.884340	0.125965
	C143	C	0.492602	0.883710	0.882626
	C144	C	0.381097	0.890879	0.680379
	C145	C	0.619623	0.120476	0.680994
	C146	C	0.617998	0.890741	0.328334
	C147	C	0.381719	0.120723	0.328120
	C148	C	0.675941	0.386971	0.889331
	C149	C	0.677801	0.624918	0.119064
	C150	C	0.323418	0.624515	0.890344
	C151	C	0.323876	0.386499	0.119533
	C152	C	0.885839	0.681029	0.385366
	C153	C	0.115625	0.682377	0.623449
	C154	C	0.885538	0.328829	0.623058
	C155	C	0.115294	0.328966	0.386287
	C156	C	0.885767	0.386234	0.681038
	C157	C	0.115793	0.624460	0.681173
	C158	C	0.885596	0.623191	0.327705
	C159	C	0.115124	0.386863	0.328256
	C160	C	0.381668	0.681648	0.889979
	C161	C	0.619880	0.682360	0.119504
	C162	C	0.617494	0.329664	0.889373
	C163	C	0.381319	0.328721	0.119216
	C164	C	0.675413	0.890753	0.385861
	C165	C	0.677218	0.120331	0.623035
	C166	C	0.323572	0.890963	0.622575
	C167	C	0.323373	0.120506	0.385144
	C168	C	0.881983	0.390581	0.180212
	C169	C	0.119424	0.620246	0.181645
	C170	C	0.118323	0.390744	0.828597
	C171	C	0.881694	0.620229	0.827034
	C172	C	0.176981	0.886301	0.390193
	C173	C	0.178021	0.124555	0.619260
	C174	C	0.823124	0.124304	0.389726
	C175	C	0.823932	0.886753	0.619142
	C176	C	0.385029	0.181614	0.885683
	C177	C	0.615081	0.182840	0.123399
	C178	C	0.385840	0.828794	0.122586
	C179	C	0.615082	0.828590	0.885171
	C180	C	0.385659	0.886551	0.180576
	C181	C	0.615202	0.125236	0.181431
	C182	C	0.385347	0.124199	0.827623
	C183	C	0.614957	0.886446	0.827036
	C184	C	0.881108	0.181709	0.389830
	C185	C	0.119855	0.181845	0.619371
	C186	C	0.118537	0.829134	0.389550
	C187	C	0.881798	0.829099	0.619268
	C188	C	0.175422	0.390571	0.886897
	C189	C	0.176699	0.620322	0.123957
	C190	C	0.823982	0.390648	0.122675
	C191	C	0.823973	0.620544	0.884744
	C192	C	0.401329	0.099904	0.603690
	C193	C	0.599908	0.911600	0.604018
	C194	C	0.599969	0.099866	0.405248
	C195	C	0.400161	0.911851	0.404329
	C196	C	0.600605	0.406081	0.098235
	C197	C	0.599516	0.604695	0.910990
	C198	C	0.400836	0.604896	0.098673
	C199	C	0.398965	0.405529	0.910415
	C200	C	0.094194	0.604723	0.404801
	C201	C	0.907296	0.604584	0.603699
	C202	C	0.094001	0.405457	0.604662
	C203	C	0.906583	0.404885	0.404428
	C204	C	0.900606	0.599766	0.104156
	C205	C	0.100278	0.411337	0.104570
	C206	C	0.100199	0.599891	0.905062
	C207	C	0.900241	0.411819	0.905205
	C208	C	0.099846	0.906065	0.598183
	C209	C	0.099331	0.104231	0.411123
	C210	C	0.900510	0.104639	0.598117
	C211	C	0.899317	0.904543	0.410217
	C212	C	0.593644	0.105637	0.905042
	C213	C	0.406828	0.105109	0.104206
	C214	C	0.594181	0.906518	0.104670
	C215	C	0.407074	0.905451	0.904547
	Zn216	Zn	0.499825	0.005809	0.754018
	Zn217	Zn	0.500130	0.005850	0.254797
	Zn218	Zn	0.750190	0.505696	0.004318
	Zn219	Zn	0.250015	0.505512	0.005281
	Zn220	Zn	0.000652	0.755140	0.504412
	Zn221	Zn	0.000507	0.255016	0.504637
	Zn222	Zn	0.000716	0.505498	0.754695
	Zn223	Zn	0.000220	0.505391	0.254132
	Zn224	Zn	0.500701	0.755202	0.004675
	Zn225	Zn	0.499569	0.256029	0.004375
	Zn226	Zn	0.749961	0.005084	0.504135
	Zn227	Zn	0.250492	0.005670	0.504292
	N228	N	0.414662	0.968375	0.682240
	N229	N	0.585743	0.043138	0.682784
	N230	N	0.585075	0.968389	0.326512
	N231	N	0.415340	0.043447	0.326663
	N232	N	0.678550	0.420297	0.966857
	N233	N	0.679099	0.591250	0.041840
	N234	N	0.321552	0.591260	0.967802
	N235	N	0.321508	0.419977	0.042185
	N236	N	0.962923	0.682937	0.419020
	N237	N	0.038153	0.683867	0.589970
	N238	N	0.962646	0.327233	0.589413
	N239	N	0.037811	0.326637	0.419206
	N240	N	0.963242	0.419467	0.683314
	N241	N	0.038713	0.590480	0.682736
	N242	N	0.963108	0.590041	0.325995
	N243	N	0.037829	0.420135	0.326148
	N244	N	0.415515	0.683225	0.967220
	N245	N	0.586106	0.683904	0.042179
	N246	N	0.584738	0.327834	0.966801
	N247	N	0.414264	0.327171	0.041773
	N248	N	0.677524	0.968144	0.419301
	N249	N	0.678686	0.042864	0.589633
	N250	N	0.322576	0.968297	0.588836
	N251	N	0.321370	0.043073	0.418358
	N252	N	0.915317	0.468144	0.182286
	N253	N	0.086037	0.542729	0.183269
	N254	N	0.085401	0.468276	0.826723
	N255	N	0.914996	0.542829	0.825913
	N256	N	0.179034	0.919659	0.467552
	N257	N	0.179324	0.090941	0.541989
	N258	N	0.821575	0.090696	0.467026
	N259	N	0.821461	0.919652	0.541667
	N260	N	0.462290	0.183621	0.919355
	N261	N	0.537696	0.184349	0.089764
	N262	N	0.463271	0.826955	0.089629
	N263	N	0.538148	0.826707	0.919088
	N264	N	0.462796	0.920525	0.182513
	N265	N	0.538061	0.091434	0.183236
	N266	N	0.462613	0.090895	0.826028
	N267	N	0.537847	0.920114	0.825599
	N268	N	0.914917	0.183529	0.466988
	N269	N	0.085624	0.183072	0.542239
	N270	N	0.084964	0.827792	0.466657
	N271	N	0.914434	0.826384	0.541717
	N272	N	0.177467	0.468016	0.920407
	N273	N	0.178416	0.542950	0.090294
	N274	N	0.821996	0.468226	0.089598
	N275	N	0.821959	0.543347	0.918619
	O276	O	-0.040427	0.047726	1.004166
	H277	H	-0.040526	0.052303	0.999972
	H278	H	-0.046355	0.048153	1.007138
	O279	O	0.958919	0.073867	-0.017004
	H280	H	0.961551	0.069672	-0.007567
	H281	H	0.957561	0.076369	-0.022512
	O282	O	0.552457	0.592631	0.528574
	H283	H	0.546341	0.590187	0.542410
	H284	H	0.551041	0.589472	0.519527
	O285	O	0.536712	0.546680	0.525523
	H286	H	0.530611	0.544300	0.520352
	H287	H	0.534257	0.546156	0.534200
	O288	O	0.568064	0.561306	0.523542
	H289	H	0.568033	0.567635	0.514966
	H290	H	0.562043	0.564440	0.528459
	O291	O	-0.419653	0.531830	0.545239
	H292	H	-0.410455	0.529123	0.551064
	H293	H	-0.411338	0.540076	0.534950
	O294	O	0.541144	0.556578	0.515276
	H295	H	0.555377	0.561222	0.525289
	H296	H	0.538546	0.560859	0.511519
	O297	O	0.927776	0.069963	-0.007429
	H298	H	0.922030	0.070417	-0.011714
	H299	H	0.933344	0.078301	-0.005551
