data_Molecule from HDF5

_cell_length_a		16.321691
_cell_length_b		16.281419
_cell_length_c		16.325695
_cell_angle_alpha	90.007121
_cell_angle_beta	89.743559
_cell_angle_gamma	89.850072
_symmetry_space_group_name_H-M	'P 1'
_symmetry_Int_Tables_number		1

loop_
	_symmetry_equiv_pos_as_xyz
	x,y,z

loop_
	_atom_site_label
	_atom_site_type_symbol
	_atom_site_fract_x
	_atom_site_fract_y
	_atom_site_fract_z
	H0	H	0.407790	0.837297	0.716812
	H1	H	0.603786	0.164342	0.717251
	H2	H	0.606776	0.838764	0.286199
	H3	H	0.407545	0.165407	0.288466
	H4	H	0.721527	0.402440	0.839858
	H5	H	0.718211	0.599897	0.166423
	H6	H	0.290245	0.601169	0.839413
	H7	H	0.289702	0.402189	0.166038
	H8	H	0.843452	0.718091	0.405591
	H9	H	0.168775	0.717353	0.602077
	H10	H	0.842673	0.287572	0.602415
	H11	H	0.169967	0.288637	0.406221
	H12	H	0.841574	0.405072	0.717406
	H13	H	0.168422	0.602297	0.719284
	H14	H	0.842449	0.602253	0.289160
	H15	H	0.169159	0.402186	0.287296
	H16	H	0.407480	0.716126	0.838790
	H17	H	0.602890	0.717115	0.165585
	H18	H	0.604885	0.286800	0.838941
	H19	H	0.406872	0.287015	0.165447
	H20	H	0.723170	0.838914	0.402399
	H21	H	0.717108	0.166123	0.599160
	H22	H	0.290657	0.838401	0.602395
	H23	H	0.292217	0.165478	0.404956
	H24	H	0.906812	0.337940	0.218617
	H25	H	0.101790	0.666050	0.216434
	H26	H	0.104309	0.338588	0.787702
	H27	H	0.906287	0.665765	0.789134
	H28	H	0.223231	0.902123	0.340257
	H29	H	0.220279	0.100697	0.666456
	H30	H	0.791846	0.102400	0.340096
	H31	H	0.789673	0.903248	0.666059
	H32	H	0.342124	0.215827	0.905087
	H33	H	0.669538	0.215567	0.098377
	H34	H	0.341329	0.788014	0.101910
	H35	H	0.667836	0.785892	0.904146
	H36	H	0.342951	0.902911	0.220274
	H37	H	0.669443	0.101008	0.216206
	H38	H	0.342433	0.099628	0.788766
	H39	H	0.668924	0.900713	0.787242
	H40	H	0.909190	0.216773	0.339771
	H41	H	0.102609	0.215844	0.666959
	H42	H	0.107376	0.785589	0.340978
	H43	H	0.907492	0.787957	0.666352
	H44	H	0.219754	0.337841	0.904468
	H45	H	0.219760	0.665386	0.101655
	H46	H	0.790436	0.337966	0.102831
	H47	H	0.790792	0.665647	0.905527
	H48	H	0.421696	0.113452	0.591425
	H49	H	0.601661	0.883878	0.594306
	H50	H	0.596965	0.116731	0.410819
	H51	H	0.421406	0.885260	0.402063
	H52	H	0.599057	0.410875	0.118291
	H53	H	0.603509	0.597744	0.884449
	H54	H	0.404914	0.588135	0.117657
	H55	H	0.404595	0.406744	0.883200
	H56	H	0.122501	0.595088	0.408994
	H57	H	0.891611	0.593905	0.592456
	H58	H	0.122177	0.403590	0.592678
	H59	H	0.889732	0.408884	0.409196
	H60	H	0.119484	0.414311	0.593912
	H61	H	0.890745	0.591998	0.599882
	H62	H	0.121585	0.594004	0.409980
	H63	H	0.890861	0.409062	0.413130
	H64	H	0.420399	0.591957	0.115310
	H65	H	0.600739	0.588122	0.888407
	H66	H	0.594987	0.406865	0.117912
	H67	H	0.414564	0.417449	0.889989
	H68	H	0.603264	0.118763	0.410746
	H69	H	0.598667	0.885061	0.597282
	H70	H	0.404781	0.118242	0.590273
	H71	H	0.419781	0.889883	0.419802
	H72	H	0.905480	0.617979	0.090350
	H73	H	0.093878	0.384642	0.103218
	H74	H	0.099363	0.616287	0.915767
	H75	H	0.924712	0.388747	0.908529
	H76	H	0.101687	0.912399	0.619213
	H77	H	0.104297	0.097306	0.384954
	H78	H	0.914247	0.094587	0.618360
	H79	H	0.912507	0.915638	0.388069
	H80	H	0.619847	0.092879	0.916270
	H81	H	0.390795	0.090087	0.098133
	H82	H	0.619592	0.917626	0.098026
	H83	H	0.391205	0.908868	0.914550
	H84	H	0.623867	0.901768	0.099374
	H85	H	0.388555	0.097625	0.100376
	H86	H	0.621664	0.088140	0.902395
	H87	H	0.389274	0.913859	0.905195
	H88	H	0.910824	0.098537	0.620892
	H89	H	0.100225	0.091177	0.388258
	H90	H	0.096302	0.910781	0.617221
	H91	H	0.920077	0.909995	0.388619
	H92	H	0.100965	0.619298	0.907804
	H93	H	0.094380	0.388055	0.089548
	H94	H	0.909247	0.620820	0.104330
	H95	H	0.908047	0.387223	0.921036
	H96	H	0.413432	0.120719	0.605795
	H97	H	0.598031	0.885779	0.593210
	H98	H	0.599258	0.119034	0.405366
	H99	H	0.405367	0.882950	0.411097
	H100	H	0.600515	0.405211	0.119814
	H101	H	0.593056	0.596560	0.887772
	H102	H	0.409947	0.602763	0.121140
	H103	H	0.419703	0.402361	0.886518
	H104	H	0.122401	0.593929	0.408466
	H105	H	0.888358	0.599013	0.597216
	H106	H	0.123334	0.408915	0.602724
	H107	H	0.890608	0.412480	0.410856
	H108	H	0.919718	0.615187	0.095322
	H109	H	0.105952	0.383728	0.095855
	H110	H	0.093148	0.617033	0.910234
	H111	H	0.906233	0.381277	0.900228
	H112	H	0.099735	0.906930	0.619888
	H113	H	0.097080	0.098395	0.387487
	H114	H	0.908319	0.093516	0.620164
	H115	H	0.911959	0.906012	0.385680
	H116	H	0.625409	0.102197	0.906166
	H117	H	0.390849	0.095884	0.092838
	H118	H	0.618484	0.907582	0.085266
	H119	H	0.386334	0.903330	0.906527
	C120	C	0.384118	0.009813	0.624834
	C121	C	0.627151	0.993077	0.623167
	C122	C	0.628854	0.010381	0.379931
	C123	C	0.386067	0.993935	0.381996
	C124	C	0.627307	0.379426	0.010702
	C125	C	0.627003	0.623213	0.994573
	C126	C	0.383580	0.623118	0.010333
	C127	C	0.383755	0.379868	0.994331
	C128	C	0.014274	0.623744	0.381413
	C129	C	0.997474	0.624211	0.625079
	C130	C	0.013798	0.380835	0.625025
	C131	C	0.998205	0.380924	0.381863
	C132	C	0.883076	0.509744	0.125723
	C133	C	0.126675	0.493767	0.124549
	C134	C	0.126670	0.509871	0.881935
	C135	C	0.884299	0.493906	0.882075
	C136	C	0.128578	0.880539	0.511274
	C137	C	0.128294	0.124061	0.494989
	C138	C	0.883853	0.124228	0.511562
	C139	C	0.885349	0.881987	0.495242
	C140	C	0.514082	0.122798	0.880994
	C141	C	0.497575	0.123475	0.124562
	C142	C	0.513115	0.880345	0.123949
	C143	C	0.497112	0.879878	0.880835
	C144	C	0.387062	0.886391	0.679322
	C145	C	0.624031	0.116057	0.678612
	C146	C	0.626934	0.887418	0.324566
	C147	C	0.387662	0.116801	0.326851
	C148	C	0.683074	0.382162	0.888183
	C149	C	0.681032	0.620644	0.117392
	C150	C	0.328546	0.621158	0.887859
	C151	C	0.328253	0.382325	0.117221
	C152	C	0.891671	0.679719	0.384872
	C153	C	0.120148	0.679578	0.622536
	C154	C	0.891193	0.325601	0.622929
	C155	C	0.120911	0.325620	0.384742
	C156	C	0.890632	0.384146	0.679855
	C157	C	0.119858	0.622469	0.680876
	C158	C	0.891357	0.622222	0.326985
	C159	C	0.120608	0.382440	0.325917
	C160	C	0.386907	0.678333	0.887648
	C161	C	0.623493	0.678787	0.117079
	C162	C	0.624753	0.324951	0.887679
	C163	C	0.386411	0.325148	0.117058
	C164	C	0.684975	0.887591	0.381924
	C165	C	0.680367	0.116747	0.619968
	C166	C	0.328828	0.886946	0.622544
	C167	C	0.329907	0.116571	0.384325
	C168	C	0.886121	0.386946	0.181077
	C169	C	0.123272	0.617078	0.178921
	C170	C	0.124602	0.387130	0.826005
	C171	C	0.886382	0.617156	0.827678
	C172	C	0.184624	0.882238	0.388825
	C173	C	0.182412	0.121135	0.617926
	C174	C	0.829804	0.122321	0.388620
	C175	C	0.828660	0.883479	0.617460
	C176	C	0.391043	0.177912	0.884443
	C177	C	0.620553	0.178282	0.120168
	C178	C	0.390333	0.825675	0.122240
	C179	C	0.619550	0.823863	0.883318
	C180	C	0.391201	0.882610	0.180993
	C181	C	0.620704	0.121189	0.178568
	C182	C	0.391311	0.120555	0.826237
	C183	C	0.619932	0.881003	0.825155
	C184	C	0.887949	0.179362	0.388651
	C185	C	0.124154	0.178538	0.618097
	C186	C	0.127277	0.824207	0.389222
	C187	C	0.887358	0.826421	0.617773
	C188	C	0.181620	0.386559	0.884122
	C189	C	0.181535	0.616749	0.121789
	C190	C	0.828479	0.386807	0.123215
	C191	C	0.828763	0.616872	0.885149
	C192	C	0.406722	0.095328	0.602491
	C193	C	0.605658	0.907218	0.601316
	C194	C	0.606359	0.096030	0.402356
	C195	C	0.408950	0.908129	0.404429
	C196	C	0.604851	0.401256	0.096435
	C197	C	0.605568	0.600760	0.908912
	C198	C	0.405328	0.600801	0.095988
	C199	C	0.406218	0.402210	0.908835
	C200	C	0.099856	0.601053	0.402928
	C201	C	0.912231	0.601678	0.602982
	C202	C	0.099572	0.402558	0.602928
	C203	C	0.912469	0.403602	0.404374
	C204	C	0.904979	0.595844	0.103290
	C205	C	0.104663	0.407769	0.102636
	C206	C	0.104427	0.595456	0.904608
	C207	C	0.906417	0.407865	0.903708
	C208	C	0.105853	0.903209	0.596554
	C209	C	0.106884	0.101947	0.409145
	C210	C	0.904847	0.102078	0.597520
	C211	C	0.908266	0.904167	0.409581
	C212	C	0.600053	0.100749	0.902046
	C213	C	0.412193	0.101029	0.103277
	C214	C	0.598572	0.902377	0.100888
	C215	C	0.411198	0.902184	0.902432
	Zn216	Zn	0.506006	0.001397	0.752516
	Zn217	Zn	0.506465	0.002010	0.252706
	Zn218	Zn	0.755313	0.501441	0.003165
	Zn219	Zn	0.255376	0.501350	0.002797
	Zn220	Zn	0.006363	0.752538	0.503203
	Zn221	Zn	0.005914	0.252236	0.503499
	Zn222	Zn	0.005485	0.502456	0.753685
	Zn223	Zn	0.005531	0.502115	0.253166
	Zn224	Zn	0.504923	0.751505	0.002463
	Zn225	Zn	0.505641	0.251585	0.002367
	Zn226	Zn	0.755797	0.002532	0.502366
	Zn227	Zn	0.256739	0.001864	0.502914
	N228	N	0.420895	0.963788	0.680932
	N229	N	0.591449	0.038329	0.680691
	N230	N	0.593048	0.964821	0.323080
	N231	N	0.421716	0.039407	0.325176
	N232	N	0.684510	0.415464	0.965529
	N233	N	0.683046	0.586580	0.040257
	N234	N	0.326628	0.587291	0.965011
	N235	N	0.326729	0.415904	0.039929
	N236	N	0.969006	0.680971	0.417977
	N237	N	0.043207	0.680549	0.588314
	N238	N	0.968707	0.323392	0.589541
	N239	N	0.043715	0.324631	0.418902
	N240	N	0.967868	0.417764	0.681248
	N241	N	0.042672	0.588781	0.682672
	N242	N	0.968585	0.588221	0.324685
	N243	N	0.043202	0.416019	0.324057
	N244	N	0.420261	0.679575	0.964902
	N245	N	0.590646	0.680306	0.039713
	N246	N	0.590688	0.323291	0.964965
	N247	N	0.420200	0.323383	0.039808
	N248	N	0.686147	0.964910	0.415748
	N249	N	0.682267	0.039334	0.586165
	N250	N	0.327124	0.964412	0.589321
	N251	N	0.328996	0.039096	0.417981
	N252	N	0.919295	0.464614	0.182735
	N253	N	0.089877	0.539691	0.180532
	N254	N	0.091075	0.464730	0.824666
	N255	N	0.920221	0.539786	0.825624
	N256	N	0.185514	0.916436	0.465763
	N257	N	0.185011	0.088058	0.540501
	N258	N	0.827258	0.088749	0.465919
	N259	N	0.827616	0.917315	0.540222
	N260	N	0.468388	0.179357	0.917502
	N261	N	0.543069	0.180021	0.087522
	N262	N	0.467224	0.824210	0.087430
	N263	N	0.542325	0.823103	0.917042
	N264	N	0.468592	0.915850	0.182059
	N265	N	0.543334	0.087935	0.181505
	N266	N	0.468749	0.086992	0.823933
	N267	N	0.542770	0.915378	0.823635
	N268	N	0.920854	0.180559	0.466135
	N269	N	0.091134	0.180440	0.540644
	N270	N	0.093229	0.822846	0.466366
	N271	N	0.921753	0.825252	0.540688
	N272	N	0.182995	0.463868	0.918275
	N273	N	0.183714	0.539028	0.088679
	N274	N	0.826596	0.464205	0.089411
	N275	N	0.827426	0.539138	0.918413
	O276	O	0.524794	0.526703	0.455237
	H277	H	0.527189	0.518880	0.465572
	H278	H	0.519641	0.524862	0.465476
	O279	O	-0.002636	-0.030872	0.016575
	H280	H	-0.001835	-0.034019	0.009199
	H281	H	0.001129	-0.028305	0.015490
	O282	O	0.518529	0.456453	0.468134
	H283	H	0.513865	0.449165	0.465316
	H284	H	0.506971	0.462261	0.466034
	O285	O	0.447781	0.467407	0.473030
	H286	H	0.446223	0.473529	0.478722
	H287	H	0.439161	0.463468	0.470333
	O288	O	0.990897	-0.060960	0.071056
	H289	H	0.995356	-0.064047	0.064198
	H290	H	0.987926	-0.049932	0.062000
	O291	O	-0.518117	0.447102	-0.497823
	H292	H	-0.512349	0.456958	-0.500181
	H293	H	-0.525095	0.454321	-0.501485
	O294	O	0.003726	0.939848	0.076456
	H295	H	0.002215	0.940205	0.086080
	H296	H	0.005235	0.938083	0.079458
	O297	O	-0.020606	0.896971	0.091811
	H298	H	-0.019109	0.895707	0.094981
	H299	H	-0.020013	0.889839	0.091156
	O300	O	1.030721	-0.056752	1.030041
	H301	H	1.026053	-0.062074	1.031626
	H302	H	1.027174	-0.060006	1.044628
	O303	O	0.496651	0.503407	0.463142
	H304	H	0.499779	0.506578	0.462525
	H305	H	0.501277	0.490072	0.451474
	O306	O	0.506010	1.493539	1.442780
	H307	H	0.503904	1.495789	1.451594
	H308	H	0.508510	1.491888	1.437869
	O309	O	0.502104	0.497800	0.419798
	H310	H	0.512295	0.496927	0.416435
	H311	H	0.512123	0.485909	0.423485
