data_Molecule from HDF5

_cell_length_a		16.352588
_cell_length_b		16.256036
_cell_length_c		16.341392
_cell_angle_alpha	90.192957
_cell_angle_beta	89.612444
_cell_angle_gamma	89.660298
_symmetry_space_group_name_H-M	'P 1'
_symmetry_Int_Tables_number		1

loop_
	_symmetry_equiv_pos_as_xyz
	x,y,z

loop_
	_atom_site_label
	_atom_site_type_symbol
	_atom_site_fract_x
	_atom_site_fract_y
	_atom_site_fract_z
	H0	H	0.397975	0.831669	0.715213
	H1	H	0.597396	0.156890	0.711948
	H2	H	0.603354	0.832212	0.276642
	H3	H	0.398868	0.157981	0.283586
	H4	H	0.719673	0.391438	0.836469
	H5	H	0.716344	0.599898	0.158100
	H6	H	0.282664	0.596821	0.833706
	H7	H	0.281536	0.398825	0.158720
	H8	H	0.839888	0.714681	0.396304
	H9	H	0.162922	0.711218	0.598739
	H10	H	0.838182	0.279978	0.596840
	H11	H	0.163628	0.276965	0.395377
	H12	H	0.841041	0.391395	0.717235
	H13	H	0.163386	0.593026	0.712640
	H14	H	0.839392	0.599404	0.279871
	H15	H	0.163272	0.392909	0.277141
	H16	H	0.400078	0.710975	0.833296
	H17	H	0.596932	0.712426	0.159177
	H18	H	0.599731	0.277996	0.835385
	H19	H	0.397606	0.281943	0.160108
	H20	H	0.719301	0.831588	0.391632
	H21	H	0.714509	0.155675	0.597537
	H22	H	0.282368	0.831760	0.599831
	H23	H	0.282449	0.156365	0.397784
	H24	H	0.898875	0.333104	0.213582
	H25	H	0.100818	0.657840	0.213864
	H26	H	0.105076	0.332383	0.777178
	H27	H	0.897729	0.657081	0.778442
	H28	H	0.219571	0.890514	0.336099
	H29	H	0.215023	0.095132	0.658766
	H30	H	0.782594	0.094698	0.334167
	H31	H	0.780938	0.891761	0.658304
	H32	H	0.335495	0.211293	0.900082
	H33	H	0.660183	0.212655	0.097702
	H34	H	0.335079	0.781625	0.096387
	H35	H	0.660053	0.775753	0.893679
	H36	H	0.337369	0.895202	0.215949
	H37	H	0.661591	0.096002	0.212770
	H38	H	0.336413	0.095817	0.781818
	H39	H	0.659963	0.890503	0.777889
	H40	H	0.899557	0.210902	0.333286
	H41	H	0.098551	0.210489	0.659013
	H42	H	0.102518	0.776562	0.335331
	H43	H	0.900142	0.778927	0.659295
	H44	H	0.219395	0.333293	0.892335
	H45	H	0.212149	0.659363	0.095354
	H46	H	0.781867	0.333232	0.099347
	H47	H	0.780352	0.657316	0.894423
	H48	H	0.405005	0.109226	0.589142
	H49	H	0.595338	0.876489	0.586050
	H50	H	0.594023	0.109617	0.407775
	H51	H	0.406452	0.878782	0.409032
	H52	H	0.593087	0.411103	0.111202
	H53	H	0.587835	0.590717	0.880897
	H54	H	0.407657	0.576190	0.106077
	H55	H	0.421009	0.406445	0.887006
	H56	H	0.112770	0.574641	0.401730
	H57	H	0.884283	0.587139	0.594976
	H58	H	0.114112	0.402625	0.583923
	H59	H	0.886670	0.404297	0.403992
	H60	H	0.116806	0.403106	0.589659
	H61	H	0.886595	0.590214	0.584557
	H62	H	0.119715	0.589471	0.398842
	H63	H	0.885706	0.402513	0.403572
	H64	H	0.413738	0.598890	0.112062
	H65	H	0.597321	0.582806	0.880706
	H66	H	0.583913	0.404194	0.110591
	H67	H	0.405855	0.389395	0.876957
	H68	H	0.590344	0.110156	0.401740
	H69	H	0.588754	0.876841	0.591369
	H70	H	0.407037	0.109723	0.590815
	H71	H	0.409867	0.877960	0.400773
	H72	H	0.903502	0.609839	0.082051
	H73	H	0.097417	0.380361	0.081837
	H74	H	0.090980	0.608232	0.910780
	H75	H	0.908003	0.376782	0.899515
	H76	H	0.089611	0.895169	0.614002
	H77	H	0.092091	0.078416	0.383761
	H78	H	0.904794	0.089548	0.612486
	H79	H	0.909121	0.901949	0.381260
	H80	H	0.613715	0.084672	0.902833
	H81	H	0.383942	0.088085	0.090640
	H82	H	0.612174	0.903335	0.085899
	H83	H	0.382453	0.903764	0.904056
	H84	H	0.613493	0.903663	0.087135
	H85	H	0.383352	0.087646	0.092044
	H86	H	0.615038	0.087829	0.904783
	H87	H	0.383993	0.902983	0.907253
	H88	H	0.904131	0.083299	0.611520
	H89	H	0.088227	0.087646	0.381900
	H90	H	0.099206	0.906075	0.613878
	H91	H	0.909436	0.906743	0.382670
	H92	H	0.096721	0.613203	0.901182
	H93	H	0.090650	0.377634	0.092818
	H94	H	0.902903	0.614405	0.094767
	H95	H	0.918891	0.383727	0.907816
	H96	H	0.407310	0.109224	0.588766
	H97	H	0.588768	0.879613	0.583795
	H98	H	0.588076	0.107475	0.407684
	H99	H	0.415542	0.880338	0.407243
	H100	H	0.593275	0.399819	0.114850
	H101	H	0.586188	0.579760	0.886127
	H102	H	0.390985	0.591095	0.116084
	H103	H	0.397110	0.412858	0.880793
	H104	H	0.113041	0.586185	0.413620
	H105	H	0.888834	0.579734	0.587470
	H106	H	0.117710	0.397564	0.586215
	H107	H	0.886630	0.403033	0.405814
	H108	H	0.915141	0.609338	0.089556
	H109	H	0.084750	0.383238	0.082267
	H110	H	0.084587	0.609911	0.900479
	H111	H	0.905100	0.381709	0.913580
	H112	H	0.085748	0.908631	0.609400
	H113	H	0.098004	0.085689	0.378878
	H114	H	0.909471	0.085529	0.609444
	H115	H	0.913814	0.904111	0.383044
	H116	H	0.612137	0.085387	0.906183
	H117	H	0.384329	0.089008	0.092168
	H118	H	0.614373	0.902155	0.086447
	H119	H	0.384614	0.906635	0.906224
	C120	C	0.376825	0.002229	0.619505
	C121	C	0.620266	0.985077	0.617329
	C122	C	0.622010	0.002318	0.374436
	C123	C	0.379254	0.986035	0.376613
	C124	C	0.620642	0.373977	0.005837
	C125	C	0.619872	0.616230	0.989015
	C126	C	0.375852	0.617859	0.004197
	C127	C	0.377232	0.374417	0.988442
	C128	C	0.008881	0.615704	0.375480
	C129	C	0.993083	0.615498	0.618815
	C130	C	0.009782	0.372022	0.617737
	C131	C	0.993063	0.372421	0.373648
	C132	C	0.877406	0.503937	0.118706
	C133	C	0.120107	0.487784	0.116186
	C134	C	0.122165	0.503297	0.873680
	C135	C	0.879230	0.487383	0.875797
	C136	C	0.123013	0.871560	0.506013
	C137	C	0.121358	0.114358	0.488632
	C138	C	0.877166	0.116059	0.504057
	C139	C	0.879427	0.873241	0.488760
	C140	C	0.506434	0.116183	0.876143
	C141	C	0.490819	0.117762	0.120034
	C142	C	0.506548	0.873659	0.117656
	C143	C	0.490151	0.872940	0.874603
	C144	C	0.377815	0.880264	0.676753
	C145	C	0.617740	0.107763	0.673808
	C146	C	0.622845	0.880637	0.315689
	C147	C	0.379279	0.108772	0.321123
	C148	C	0.679350	0.372915	0.884318
	C149	C	0.677420	0.618111	0.109936
	C150	C	0.320903	0.616257	0.882018
	C151	C	0.319985	0.377310	0.110545
	C152	C	0.887844	0.675050	0.376759
	C153	C	0.114592	0.672323	0.617941
	C154	C	0.887129	0.317006	0.617387
	C155	C	0.114992	0.315253	0.374680
	C156	C	0.888673	0.372411	0.677098
	C157	C	0.114923	0.613458	0.674590
	C158	C	0.887603	0.617680	0.318828
	C159	C	0.114657	0.373037	0.316047
	C160	C	0.379022	0.673266	0.881888
	C161	C	0.617897	0.674183	0.110464
	C162	C	0.620212	0.316296	0.883920
	C163	C	0.377877	0.319531	0.111245
	C164	C	0.680332	0.880292	0.373199
	C165	C	0.675698	0.107444	0.616517
	C166	C	0.320441	0.880214	0.619126
	C167	C	0.321503	0.108009	0.378413
	C168	C	0.878527	0.381775	0.175578
	C169	C	0.119363	0.609642	0.174106
	C170	C	0.123523	0.381089	0.816059
	C171	C	0.878461	0.608548	0.817363
	C172	C	0.180799	0.871207	0.384450
	C173	C	0.176426	0.113967	0.610630
	C174	C	0.821022	0.114902	0.382569
	C175	C	0.820542	0.872949	0.609905
	C176	C	0.384340	0.173028	0.879056
	C177	C	0.612294	0.173931	0.117697
	C178	C	0.384204	0.818629	0.116767
	C179	C	0.611660	0.814695	0.874390
	C180	C	0.385232	0.875550	0.175990
	C181	C	0.612724	0.115847	0.175153
	C182	C	0.384841	0.115435	0.820342
	C183	C	0.611577	0.871939	0.816696
	C184	C	0.879251	0.172625	0.382107
	C185	C	0.118525	0.171504	0.610564
	C186	C	0.122861	0.814331	0.384166
	C187	C	0.879736	0.816632	0.610427
	C188	C	0.180478	0.381519	0.873634
	C189	C	0.175112	0.610363	0.115249
	C190	C	0.820302	0.381933	0.118773
	C191	C	0.820244	0.608922	0.875234
	C192	C	0.399880	0.087394	0.596326
	C193	C	0.597567	0.899855	0.594124
	C194	C	0.597846	0.086896	0.398678
	C195	C	0.403579	0.900973	0.399091
	C196	C	0.597061	0.398008	0.090207
	C197	C	0.597167	0.591591	0.904519
	C198	C	0.397593	0.595272	0.089174
	C199	C	0.400929	0.396509	0.903824
	C200	C	0.093253	0.590762	0.398315
	C201	C	0.908551	0.592447	0.595758
	C202	C	0.094124	0.394504	0.593650
	C203	C	0.908393	0.396358	0.397446
	C204	C	0.900401	0.588934	0.095586
	C205	C	0.097422	0.402296	0.092572
	C206	C	0.097852	0.588496	0.897467
	C207	C	0.903472	0.402797	0.899918
	C208	C	0.098464	0.896051	0.590441
	C209	C	0.099235	0.090805	0.403555
	C210	C	0.899778	0.092853	0.588961
	C211	C	0.903806	0.897258	0.404363
	C212	C	0.591632	0.092759	0.898161
	C213	C	0.405789	0.095140	0.098166
	C214	C	0.591492	0.896423	0.093409
	C215	C	0.405501	0.897422	0.898823
	Zn216	Zn	0.498754	-0.006110	0.746547
	Zn217	Zn	0.499967	-0.005032	0.247116
	Zn218	Zn	0.749379	0.495664	-0.002790
	Zn219	Zn	0.248498	0.496280	-0.004160
	Zn220	Zn	0.001260	0.743862	0.497145
	Zn221	Zn	0.000224	0.243636	0.496004
	Zn222	Zn	0.001176	0.493755	0.746487
	Zn223	Zn	0.000324	0.495864	0.245409
	Zn224	Zn	0.498085	0.745109	-0.004201
	Zn225	Zn	0.498630	0.245480	-0.002198
	Zn226	Zn	0.749205	-0.006683	0.496447
	Zn227	Zn	0.250063	-0.006619	0.497296
	N228	N	0.412436	0.957066	0.676773
	N229	N	0.583799	0.030632	0.674480
	N230	N	0.587107	0.957406	0.316130
	N231	N	0.414878	0.031984	0.320063
	N232	N	0.679925	0.407932	0.961057
	N233	N	0.678497	0.582537	0.033357
	N234	N	0.318966	0.582543	0.959036
	N235	N	0.319322	0.410572	0.033355
	N236	N	0.964401	0.673907	0.411182
	N237	N	0.037891	0.673604	0.583907
	N238	N	0.963201	0.316475	0.581197
	N239	N	0.038348	0.314686	0.409600
	N240	N	0.965659	0.405874	0.677538
	N241	N	0.038268	0.579053	0.675387
	N242	N	0.963684	0.581227	0.318030
	N243	N	0.037632	0.407593	0.315028
	N244	N	0.412459	0.674378	0.958807
	N245	N	0.582728	0.673043	0.034364
	N246	N	0.584547	0.316676	0.960388
	N247	N	0.412655	0.317514	0.034434
	N248	N	0.680105	0.956959	0.408918
	N249	N	0.677339	0.030145	0.582219
	N250	N	0.319725	0.957155	0.584305
	N251	N	0.321393	0.030748	0.412204
	N252	N	0.913080	0.458599	0.175950
	N253	N	0.085799	0.532316	0.174646
	N254	N	0.087815	0.457768	0.816312
	N255	N	0.914366	0.531879	0.817634
	N256	N	0.181057	0.905972	0.461317
	N257	N	0.178373	0.079479	0.533664
	N258	N	0.819622	0.080723	0.459268
	N259	N	0.820108	0.907256	0.532966
	N260	N	0.461072	0.173532	0.913049
	N261	N	0.535483	0.175089	0.084224
	N262	N	0.460748	0.817438	0.081272
	N263	N	0.535014	0.815129	0.909580
	N264	N	0.462440	0.908575	0.176702
	N265	N	0.536024	0.081618	0.176614
	N266	N	0.461850	0.080836	0.818380
	N267	N	0.534961	0.907435	0.816672
	N268	N	0.913267	0.173887	0.459010
	N269	N	0.084719	0.171691	0.533717
	N270	N	0.087609	0.814309	0.460784
	N271	N	0.915650	0.816583	0.534183
	N272	N	0.179652	0.458610	0.908829
	N273	N	0.175519	0.533524	0.079760
	N274	N	0.819163	0.459078	0.084488
	N275	N	0.820452	0.532379	0.910791
	O276	O	-0.003962	0.045748	0.035721
	H277	H	-0.010907	0.030314	0.043613
	H278	H	0.002716	0.050108	0.029380
	O279	O	0.538602	0.357083	0.488995
	H280	H	0.533903	0.348529	0.489914
	H281	H	0.536210	0.359051	0.481724
	O282	O	1.130535	-0.047689	-0.104529
	H283	H	1.136346	-0.036930	-0.097214
	H284	H	1.134863	-0.054189	-0.101126
	O285	O	0.039088	1.091875	0.069086
	H286	H	0.047725	1.106988	0.079751
	H287	H	0.050644	1.088338	0.068455
	O288	O	0.402604	0.567544	0.387837
	H289	H	0.403182	0.563971	0.384518
	H290	H	0.424737	0.564175	0.394471
	O291	O	0.532539	0.362206	0.493466
	H292	H	0.540019	0.368802	0.487781
	H293	H	0.529255	0.366580	0.510262
	O294	O	0.893739	0.941707	0.914594
	H295	H	0.884076	0.939810	0.907555
	H296	H	0.902514	0.950994	0.913259
	O297	O	-0.029924	-0.150703	-0.016724
	H298	H	-0.032736	-0.144376	-0.018209
	H299	H	-0.032482	-0.151811	-0.017043
	O300	O	0.434662	0.440354	0.627046
	H301	H	0.436446	0.435834	0.622762
	H302	H	0.430466	0.450881	0.642430
	O303	O	-0.093967	1.148934	0.815952
	H304	H	-0.095099	1.146655	0.815312
	H305	H	-0.092434	1.137397	0.809357
	O306	O	0.482185	0.537678	0.583619
	H307	H	0.482688	0.553385	0.580702
	H308	H	0.472758	0.523653	0.572568
	O309	O	1.050584	0.014540	-0.147949
	H310	H	1.059908	0.014366	-0.149889
	H311	H	1.058828	0.008086	-0.123107
	O312	O	-0.037392	-0.121445	0.881671
	H313	H	-0.042680	-0.132897	0.873739
	H314	H	-0.024700	-0.129465	0.874218
	O315	O	0.462044	0.447193	0.484792
	H316	H	0.473534	0.453725	0.470542
	H317	H	0.471823	0.449293	0.494339
	O318	O	0.555646	0.369028	0.590618
	H319	H	0.567876	0.368325	0.577369
	H320	H	0.563678	0.363957	0.595636
	O321	O	0.623983	0.597093	0.582040
	H322	H	0.619919	0.588315	0.579717
	H323	H	0.624061	0.587819	0.583165
	O324	O	0.380594	0.666613	0.493668
	H325	H	0.378606	0.660104	0.472752
	H326	H	0.366803	0.672717	0.483242
	O327	O	0.162243	1.053543	1.105058
	H328	H	0.161150	1.053749	1.085087
	H329	H	0.176508	1.054030	1.101813
	O330	O	0.372879	0.429148	0.546343
	H331	H	0.367154	0.419900	0.557073
	H332	H	0.372356	0.447176	0.536519
	O333	O	-0.131554	1.035391	1.053571
	H334	H	-0.115938	1.028198	1.043158
	H335	H	-0.152119	1.043253	1.040888
	O336	O	0.919870	0.930363	1.093311
	H337	H	0.921133	0.929232	1.093558
	H338	H	0.909543	0.944612	1.086195
	O339	O	0.591477	0.444232	0.378965
	H340	H	0.597569	0.455652	0.393021
	H341	H	0.566693	0.446772	0.377482
	O342	O	0.958927	0.041989	0.081195
	H343	H	0.961700	0.052295	0.075868
	H344	H	0.957119	0.047519	0.090348
	O345	O	0.404310	0.481356	0.334340
	H346	H	0.407810	0.480342	0.320117
	H347	H	0.411239	0.488486	0.328657
	O348	O	1.170093	1.082508	0.960279
	H349	H	1.162689	1.077497	0.956825
	H350	H	1.170767	1.065520	0.949969
	O351	O	1.116745	0.980512	0.146622
	H352	H	1.125788	0.995228	0.151325
	H353	H	1.109844	0.980765	0.155777
	O354	O	0.642066	0.504224	0.523497
	H355	H	0.657927	0.514188	0.507952
	H356	H	0.636511	0.511746	0.519940
	O357	O	0.621664	0.505423	0.346206
	H358	H	0.641638	0.504539	0.330140
	H359	H	0.624946	0.490510	0.359412
	O360	O	-0.122431	0.052098	0.013375
	H361	H	-0.104668	0.070543	0.012891
	H362	H	-0.114110	0.069261	0.006648
	O363	O	0.564142	0.357193	0.431477
	H364	H	0.553329	0.360052	0.426349
	H365	H	0.560106	0.357074	0.441896
	O366	O	0.408301	0.554945	0.582069
	H367	H	0.398963	0.555847	0.573811
	H368	H	0.408787	0.542803	0.585711
	O369	O	0.633804	0.529276	0.523592
	H370	H	0.639543	0.534574	0.531138
	H371	H	0.641161	0.524440	0.526018
	O372	O	0.648449	0.479776	0.437666
	H373	H	0.627543	0.461718	0.440865
	H374	H	0.664756	0.476306	0.412136
	O375	O	0.396102	0.491705	0.505615
	H376	H	0.402853	0.493536	0.510894
	H377	H	0.387527	0.502726	0.503255
	O378	O	0.502106	0.663016	0.431753
	H379	H	0.501337	0.669491	0.427857
	H380	H	0.495542	0.655456	0.440640
	O381	O	0.158406	0.866213	0.901680
	H382	H	0.145471	0.875117	0.911021
	H383	H	0.152154	0.862946	0.908438
	O384	O	0.036983	0.972967	0.087498
	H385	H	0.043590	0.979424	0.084485
	H386	H	0.018072	0.965017	0.077168
	O387	O	0.884020	0.132258	0.951942
	H388	H	0.881225	0.136852	0.941560
	H389	H	0.879666	0.133712	0.939548
	O390	O	-0.029907	1.009525	0.131716
	H391	H	-0.035436	1.015403	0.132046
	H392	H	-0.044187	1.011601	0.137116
	O393	O	0.921318	0.988990	-0.002794
	H394	H	0.926743	0.987450	-0.009047
	H395	H	0.908471	0.995517	-0.018236
	O396	O	0.516233	0.484670	0.537307
	H397	H	0.519729	0.479344	0.526565
	H398	H	0.508876	0.486977	0.533817
	O399	O	-0.008945	0.872388	0.899462
	H400	H	-0.009492	0.864243	0.880521
	H401	H	0.007906	0.868906	0.918853
	O402	O	1.034107	1.068142	0.949853
	H403	H	1.029667	1.079629	0.959905
	H404	H	1.031278	1.055384	0.953142
	O405	O	0.577855	0.592441	0.478260
	H406	H	0.581782	0.606449	0.481351
	H407	H	0.594492	0.597432	0.475118
