data_Molecule from HDF5

_cell_length_a		16.311145
_cell_length_b		16.331550
_cell_length_c		16.330672
_cell_angle_alpha	89.997955
_cell_angle_beta	90.231648
_cell_angle_gamma	90.016657
_symmetry_space_group_name_H-M	'P 1'
_symmetry_Int_Tables_number		1

loop_
	_symmetry_equiv_pos_as_xyz
	x,y,z

loop_
	_atom_site_label
	_atom_site_type_symbol
	_atom_site_fract_x
	_atom_site_fract_y
	_atom_site_fract_z
	H0	H	0.404719	0.845273	0.721824
	H1	H	0.602326	0.171535	0.722639
	H2	H	0.600116	0.845505	0.292304
	H3	H	0.402900	0.172576	0.292395
	H4	H	0.716121	0.411576	0.843717
	H5	H	0.719142	0.609838	0.170132
	H6	H	0.285904	0.608563	0.844648
	H7	H	0.289000	0.410319	0.171625
	H8	H	0.839537	0.722598	0.409062
	H9	H	0.165377	0.722443	0.606566
	H10	H	0.838860	0.293527	0.605887
	H11	H	0.165661	0.293346	0.409831
	H12	H	0.838704	0.409989	0.721374
	H13	H	0.165186	0.606220	0.722340
	H14	H	0.839449	0.607106	0.292278
	H15	H	0.166193	0.409653	0.294591
	H16	H	0.404346	0.723147	0.843492
	H17	H	0.601099	0.724628	0.169712
	H18	H	0.600274	0.295010	0.843974
	H19	H	0.404810	0.294309	0.170123
	H20	H	0.717184	0.845395	0.409345
	H21	H	0.718789	0.171060	0.607346
	H22	H	0.288118	0.845256	0.605630
	H23	H	0.286925	0.171925	0.408749
	H24	H	0.905443	0.345346	0.221576
	H25	H	0.100970	0.671512	0.223285
	H26	H	0.100844	0.345473	0.793719
	H27	H	0.903231	0.671967	0.792453
	H28	H	0.215048	0.911075	0.344274
	H29	H	0.217565	0.105655	0.670640
	H30	H	0.787132	0.106083	0.344639
	H31	H	0.788192	0.909582	0.670841
	H32	H	0.338974	0.224497	0.908130
	H33	H	0.666209	0.223957	0.106292
	H34	H	0.339026	0.794033	0.105158
	H35	H	0.666291	0.794648	0.910404
	H36	H	0.338970	0.909791	0.221916
	H37	H	0.665816	0.107958	0.223126
	H38	H	0.339061	0.106680	0.792110
	H39	H	0.666223	0.909890	0.793804
	H40	H	0.903254	0.222824	0.344416
	H41	H	0.102506	0.223002	0.670971
	H42	H	0.099519	0.793904	0.344349
	H43	H	0.905254	0.794736	0.671162
	H44	H	0.216666	0.346141	0.910415
	H45	H	0.215825	0.672957	0.105709
	H46	H	0.788685	0.345819	0.104418
	H47	H	0.788397	0.673069	0.909551
	H48	H	0.399403	0.126198	0.597889
	H49	H	0.597118	0.891932	0.601949
	H50	H	0.593385	0.124291	0.412329
	H51	H	0.404279	0.891480	0.412382
	H52	H	0.596159	0.414733	0.123742
	H53	H	0.603962	0.602050	0.888531
	H54	H	0.400543	0.603812	0.126944
	H55	H	0.407132	0.420780	0.893146
	H56	H	0.119917	0.604098	0.414749
	H57	H	0.885025	0.599701	0.605163
	H58	H	0.120798	0.410200	0.606593
	H59	H	0.884040	0.412426	0.410979
	H60	H	0.117451	0.413607	0.595159
	H61	H	0.883994	0.606628	0.600164
	H62	H	0.118061	0.601414	0.419474
	H63	H	0.886884	0.413898	0.419114
	H64	H	0.411835	0.593377	0.119486
	H65	H	0.591740	0.595302	0.894590
	H66	H	0.598125	0.417450	0.123219
	H67	H	0.413052	0.416187	0.892759
	H68	H	0.593989	0.122904	0.417971
	H69	H	0.593452	0.892748	0.602318
	H70	H	0.413826	0.126071	0.610151
	H71	H	0.412432	0.893112	0.410162
	H72	H	0.909187	0.624246	0.098822
	H73	H	0.090738	0.392411	0.107366
	H74	H	0.095712	0.627854	0.908119
	H75	H	0.903858	0.391470	0.913562
	H76	H	0.102900	0.916852	0.624292
	H77	H	0.095101	0.097790	0.393392
	H78	H	0.915485	0.105678	0.623602
	H79	H	0.913625	0.918982	0.394919
	H80	H	0.620351	0.105687	0.913349
	H81	H	0.388073	0.096120	0.101254
	H82	H	0.620183	0.914837	0.106552
	H83	H	0.388429	0.917903	0.916682
	H84	H	0.617340	0.911942	0.094740
	H85	H	0.384064	0.106409	0.104014
	H86	H	0.617803	0.103213	0.917299
	H87	H	0.386034	0.917592	0.910085
	H88	H	0.904537	0.103799	0.626076
	H89	H	0.090353	0.103444	0.392065
	H90	H	0.091595	0.918170	0.621912
	H91	H	0.909995	0.910345	0.391078
	H92	H	0.087946	0.622332	0.916224
	H93	H	0.095350	0.395240	0.094162
	H94	H	0.910802	0.626058	0.102840
	H95	H	0.911549	0.392877	0.910418
	H96	H	0.416545	0.120283	0.592559
	H97	H	0.595555	0.893703	0.599150
	H98	H	0.598514	0.124770	0.414832
	H99	H	0.409843	0.894831	0.417821
	H100	H	0.594474	0.417448	0.122648
	H101	H	0.590874	0.609685	0.890555
	H102	H	0.415851	0.609421	0.122771
	H103	H	0.406237	0.413432	0.890167
	H104	H	0.118122	0.598568	0.414271
	H105	H	0.887579	0.599574	0.596587
	H106	H	0.116501	0.421404	0.604575
	H107	H	0.887812	0.420420	0.412865
	H108	H	0.913512	0.623721	0.099996
	H109	H	0.103380	0.390370	0.103705
	H110	H	0.100113	0.624904	0.919421
	H111	H	0.910039	0.394614	0.918954
	H112	H	0.095689	0.907671	0.625805
	H113	H	0.097522	0.104068	0.390339
	H114	H	0.910879	0.095502	0.621700
	H115	H	0.904160	0.918627	0.391061
	H116	H	0.618123	0.101214	0.912526
	H117	H	0.388164	0.104076	0.093599
	H118	H	0.615421	0.923830	0.098894
	H119	H	0.386129	0.912272	0.913938
	C120	C	0.381435	0.016548	0.628656
	C121	C	0.624850	0.999999	0.629994
	C122	C	0.623528	0.016409	0.386350
	C123	C	0.380148	1.000982	0.384856
	C124	C	0.624192	0.388249	0.015253
	C125	C	0.624361	0.631176	0.998941
	C126	C	0.380969	0.630638	0.015261
	C127	C	0.380756	0.387707	0.999451
	C128	C	0.010874	0.629686	0.386797
	C129	C	0.993604	0.630215	0.629788
	C130	C	0.010291	0.386449	0.629949
	C131	C	0.994409	0.386895	0.386508
	C132	C	0.881759	0.517261	0.129393
	C133	C	0.124536	0.500393	0.130048
	C134	C	0.123103	0.516982	0.886840
	C135	C	0.880387	0.501111	0.885847
	C136	C	0.124037	0.886380	0.516106
	C137	C	0.123656	0.130082	0.499578
	C138	C	0.880985	0.130067	0.516037
	C139	C	0.880822	0.887147	0.499642
	C140	C	0.510493	0.131005	0.885936
	C141	C	0.494330	0.131142	0.129086
	C142	C	0.510253	0.887577	0.128663
	C143	C	0.494700	0.887723	0.885994
	C144	C	0.383842	0.894038	0.684139
	C145	C	0.622499	0.123009	0.684743
	C146	C	0.621078	0.894192	0.330419
	C147	C	0.382512	0.123452	0.329840
	C148	C	0.678611	0.390678	0.892542
	C149	C	0.680299	0.629326	0.121536
	C150	C	0.324710	0.628768	0.893091
	C151	C	0.326186	0.389874	0.122370
	C152	C	0.888021	0.684653	0.388589
	C153	C	0.116317	0.685091	0.627405
	C154	C	0.887620	0.331360	0.626601
	C155	C	0.117093	0.331559	0.389622
	C156	C	0.887442	0.389235	0.684081
	C157	C	0.116362	0.627090	0.684783
	C158	C	0.888231	0.627519	0.330585
	C159	C	0.117375	0.389209	0.332098
	C160	C	0.383653	0.685317	0.892329
	C161	C	0.622182	0.686845	0.121318
	C162	C	0.620539	0.333156	0.892656
	C163	C	0.383620	0.332144	0.121814
	C164	C	0.678561	0.893799	0.389090
	C165	C	0.680342	0.122617	0.627385
	C166	C	0.326547	0.893751	0.625806
	C167	C	0.324811	0.123441	0.387584
	C168	C	0.884137	0.394196	0.184175
	C169	C	0.122371	0.622962	0.185865
	C170	C	0.120748	0.394356	0.831958
	C171	C	0.883079	0.623626	0.830782
	C172	C	0.177898	0.889798	0.393047
	C173	C	0.179356	0.126656	0.622259
	C174	C	0.825274	0.126992	0.393218
	C175	C	0.825864	0.889285	0.622241
	C176	C	0.387730	0.186280	0.887842
	C177	C	0.617229	0.186168	0.126928
	C178	C	0.387813	0.831757	0.126060
	C179	C	0.617508	0.832393	0.889243
	C180	C	0.387683	0.889516	0.183831
	C181	C	0.617269	0.128574	0.184889
	C182	C	0.387824	0.128161	0.830087
	C183	C	0.617570	0.889993	0.831782
	C184	C	0.883029	0.184706	0.393111
	C185	C	0.121995	0.184844	0.622321
	C186	C	0.120280	0.832021	0.393021
	C187	C	0.883824	0.832020	0.622311
	C188	C	0.178485	0.394563	0.889765
	C189	C	0.179083	0.623699	0.127283
	C190	C	0.826532	0.394397	0.125726
	C191	C	0.825784	0.624068	0.888778
	C192	C	0.403521	0.102062	0.606628
	C193	C	0.602231	0.914744	0.607809
	C194	C	0.601601	0.102001	0.408409
	C195	C	0.402354	0.915311	0.407019
	C196	C	0.602699	0.410166	0.101096
	C197	C	0.601861	0.608832	0.913244
	C198	C	0.403162	0.608783	0.100954
	C199	C	0.402365	0.410253	0.914013
	C200	C	0.096576	0.607791	0.409468
	C201	C	0.907596	0.608363	0.607262
	C202	C	0.096093	0.408515	0.608453
	C203	C	0.908481	0.409178	0.407991
	C204	C	0.904599	0.602643	0.107324
	C205	C	0.102961	0.414952	0.108322
	C206	C	0.100990	0.602860	0.908322
	C207	C	0.902170	0.415178	0.907828
	C208	C	0.102929	0.907799	0.601790
	C209	C	0.100983	0.108150	0.414013
	C210	C	0.903592	0.108173	0.601496
	C211	C	0.902818	0.909368	0.414345
	C212	C	0.596473	0.109631	0.907921
	C213	C	0.408715	0.108725	0.106437
	C214	C	0.595785	0.910201	0.106610
	C215	C	0.409106	0.909585	0.907332
	Zn216	Zn	0.503287	0.008915	0.757159
	Zn217	Zn	0.501953	0.008965	0.256895
	Zn218	Zn	0.752617	0.509352	0.007476
	Zn219	Zn	0.252170	0.509290	0.007976
	Zn220	Zn	0.001977	0.758234	0.507686
	Zn221	Zn	0.002365	0.258553	0.507734
	Zn222	Zn	0.001798	0.508681	0.757754
	Zn223	Zn	0.003235	0.508187	0.258513
	Zn224	Zn	0.502286	0.759169	0.006984
	Zn225	Zn	0.502615	0.259931	0.007620
	Zn226	Zn	0.752552	0.008301	0.508351
	Zn227	Zn	0.252343	0.008457	0.507238
	N228	N	0.417704	0.971172	0.685594
	N229	N	0.588666	0.045747	0.686462
	N230	N	0.587473	0.971416	0.328832
	N231	N	0.416281	0.046391	0.328242
	N232	N	0.680842	0.424047	0.969798
	N233	N	0.681725	0.595497	0.044406
	N234	N	0.323158	0.595296	0.970383
	N235	N	0.324333	0.423865	0.045203
	N236	N	0.965250	0.686296	0.422660
	N237	N	0.038838	0.687137	0.593872
	N238	N	0.965104	0.329481	0.593623
	N239	N	0.039549	0.330109	0.422574
	N240	N	0.964794	0.422711	0.686236
	N241	N	0.039081	0.593683	0.686047
	N242	N	0.965671	0.593963	0.329437
	N243	N	0.040203	0.422996	0.330121
	N244	N	0.417889	0.686730	0.969550
	N245	N	0.588042	0.687964	0.044174
	N246	N	0.587211	0.331759	0.970028
	N247	N	0.416861	0.330502	0.044649
	N248	N	0.680292	0.970917	0.422941
	N249	N	0.681701	0.045457	0.593968
	N250	N	0.324765	0.971067	0.592143
	N251	N	0.323058	0.046083	0.421056
	N252	N	0.917948	0.471304	0.186121
	N253	N	0.089151	0.545604	0.187672
	N254	N	0.087119	0.471631	0.830097
	N255	N	0.916169	0.546083	0.828859
	N256	N	0.180354	0.922995	0.470412
	N257	N	0.180741	0.093536	0.544901
	N258	N	0.823795	0.093801	0.470632
	N259	N	0.824068	0.922918	0.545053
	N260	N	0.465242	0.188263	0.921642
	N261	N	0.539874	0.187825	0.092944
	N262	N	0.465039	0.830446	0.092414
	N263	N	0.540248	0.830864	0.922346
	N264	N	0.464758	0.923511	0.185351
	N265	N	0.539859	0.095026	0.186317
	N266	N	0.465076	0.094364	0.828960
	N267	N	0.540283	0.923646	0.829517
	N268	N	0.916807	0.186882	0.470449
	N269	N	0.088013	0.186777	0.545071
	N270	N	0.087766	0.829485	0.470543
	N271	N	0.917458	0.830530	0.545265
	N272	N	0.179718	0.471733	0.923485
	N273	N	0.180467	0.546730	0.093148
	N274	N	0.825035	0.471863	0.092248
	N275	N	0.824248	0.546846	0.922482
	O276	O	-0.014463	0.050949	1.008016
	H277	H	-0.014192	0.056886	1.015383
	H278	H	-0.017489	0.058090	1.000516
	O279	O	0.994157	0.048681	0.003213
	H280	H	0.990805	0.052933	0.001806
	H281	H	0.994588	0.048047	0.003837
	O282	O	0.461054	0.423323	0.400890
	H283	H	0.455362	0.442593	0.418352
	H284	H	0.454969	0.410491	0.390711
	O285	O	0.459559	0.430140	0.416596
	H286	H	0.444151	0.433075	0.395791
	H287	H	0.460910	0.422336	0.407510
	O288	O	0.465026	0.474867	0.444483
	H289	H	0.459507	0.469397	0.447100
	H290	H	0.484414	0.470618	0.440574
	O291	O	-0.504922	0.491948	0.393680
	H292	H	-0.498056	0.488219	0.394153
	H293	H	-0.508065	0.497120	0.398705
	O294	O	0.453819	0.475160	0.469602
	H295	H	0.448445	0.481174	0.460154
	H296	H	0.460775	0.475425	0.482222
	O297	O	0.979551	0.077929	0.000796
	H298	H	0.979500	0.082980	-0.001042
	H299	H	0.981952	0.080349	0.002191
