data_Molecule from HDF5

_cell_length_a		16.309054
_cell_length_b		16.315347
_cell_length_c		16.324704
_cell_angle_alpha	90.064953
_cell_angle_beta	90.006454
_cell_angle_gamma	90.022475
_symmetry_space_group_name_H-M	'P 1'
_symmetry_Int_Tables_number		1

loop_
	_symmetry_equiv_pos_as_xyz
	x,y,z

loop_
	_atom_site_label
	_atom_site_type_symbol
	_atom_site_fract_x
	_atom_site_fract_y
	_atom_site_fract_z
	H0	H	0.401776	0.836462	0.714641
	H1	H	0.597262	0.163595	0.713672
	H2	H	0.598419	0.836223	0.285452
	H3	H	0.401764	0.163755	0.286108
	H4	H	0.714830	0.402059	0.836759
	H5	H	0.713421	0.597336	0.163691
	H6	H	0.286683	0.597138	0.835891
	H7	H	0.286269	0.403383	0.163326
	H8	H	0.835883	0.712801	0.402539
	H9	H	0.163383	0.714093	0.597567
	H10	H	0.835358	0.287043	0.596599
	H11	H	0.163859	0.286386	0.403169
	H12	H	0.836409	0.402240	0.714468
	H13	H	0.163968	0.597982	0.713579
	H14	H	0.836512	0.596717	0.285644
	H15	H	0.164028	0.401415	0.285374
	H16	H	0.403812	0.713226	0.836000
	H17	H	0.598055	0.714758	0.163329
	H18	H	0.598681	0.285142	0.836620
	H19	H	0.402096	0.286540	0.163216
	H20	H	0.715140	0.836796	0.401109
	H21	H	0.713496	0.163097	0.597904
	H22	H	0.285430	0.836109	0.597613
	H23	H	0.283874	0.162491	0.401095
	H24	H	0.902641	0.335679	0.213507
	H25	H	0.097318	0.663765	0.213203
	H26	H	0.098045	0.336347	0.786449
	H27	H	0.903098	0.664673	0.787372
	H28	H	0.213331	0.901822	0.336552
	H29	H	0.213388	0.097499	0.663250
	H30	H	0.785669	0.097483	0.336931
	H31	H	0.786410	0.902480	0.663684
	H32	H	0.336568	0.214028	0.902170
	H33	H	0.663554	0.215470	0.098506
	H34	H	0.336519	0.786558	0.097430
	H35	H	0.664215	0.785722	0.902497
	H36	H	0.336766	0.901627	0.214721
	H37	H	0.663113	0.099630	0.215706
	H38	H	0.337080	0.098445	0.785117
	H39	H	0.664333	0.902462	0.786300
	H40	H	0.902611	0.213390	0.335689
	H41	H	0.098756	0.215076	0.663179
	H42	H	0.097135	0.786047	0.336428
	H43	H	0.901820	0.785256	0.663363
	H44	H	0.213821	0.336457	0.902770
	H45	H	0.212464	0.664318	0.096188
	H46	H	0.785932	0.336513	0.097556
	H47	H	0.786985	0.663950	0.904229
	H48	H	0.409441	0.117527	0.601618
	H49	H	0.596586	0.882514	0.592755
	H50	H	0.589944	0.118746	0.393682
	H51	H	0.403199	0.884944	0.414721
	H52	H	0.583796	0.402195	0.114324
	H53	H	0.598617	0.591408	0.882836
	H54	H	0.404536	0.605051	0.119940
	H55	H	0.405328	0.406750	0.883239
	H56	H	0.117949	0.599480	0.405406
	H57	H	0.882347	0.598417	0.592064
	H58	H	0.114908	0.412376	0.594849
	H59	H	0.879322	0.403655	0.393003
	H60	H	0.118506	0.403086	0.597438
	H61	H	0.885701	0.589026	0.590326
	H62	H	0.114264	0.591946	0.412061
	H63	H	0.883496	0.396694	0.414803
	H64	H	0.396742	0.587405	0.116672
	H65	H	0.589792	0.592070	0.885069
	H66	H	0.601731	0.401997	0.119654
	H67	H	0.407488	0.407634	0.884081
	H68	H	0.584025	0.110049	0.415530
	H69	H	0.591896	0.882489	0.597141
	H70	H	0.411986	0.112038	0.587230
	H71	H	0.402666	0.880019	0.400570
	H72	H	0.906669	0.616405	0.095465
	H73	H	0.093865	0.385374	0.086693
	H74	H	0.095317	0.617534	0.906418
	H75	H	0.915638	0.385378	0.901991
	H76	H	0.093638	0.898423	0.618884
	H77	H	0.088110	0.089526	0.386487
	H78	H	0.896932	0.088951	0.616938
	H79	H	0.899353	0.903587	0.380915
	H80	H	0.615228	0.094761	0.911018
	H81	H	0.384506	0.089409	0.094655
	H82	H	0.613723	0.913915	0.091736
	H83	H	0.381851	0.906672	0.898218
	H84	H	0.619192	0.905611	0.099786
	H85	H	0.382687	0.096233	0.094916
	H86	H	0.616281	0.089742	0.904635
	H87	H	0.383471	0.898759	0.911175
	H88	H	0.915156	0.090109	0.612240
	H89	H	0.090742	0.098864	0.383177
	H90	H	0.099947	0.911455	0.617076
	H91	H	0.908045	0.913841	0.386872
	H92	H	0.092828	0.616446	0.905253
	H93	H	0.099225	0.380716	0.096089
	H94	H	0.907173	0.615582	0.093165
	H95	H	0.905652	0.386627	0.915926
	H96	H	0.398162	0.117477	0.591012
	H97	H	0.590792	0.884262	0.591445
	H98	H	0.606276	0.118154	0.411447
	H99	H	0.415751	0.886193	0.405904
	H100	H	0.593848	0.417321	0.113416
	H101	H	0.594277	0.599022	0.882287
	H102	H	0.415464	0.590068	0.112191
	H103	H	0.407148	0.405715	0.883557
	H104	H	0.117281	0.589541	0.401769
	H105	H	0.882423	0.591446	0.599705
	H106	H	0.114360	0.404633	0.587342
	H107	H	0.887989	0.418558	0.408926
	H108	H	0.905125	0.617010	0.093786
	H109	H	0.088098	0.384264	0.096655
	H110	H	0.093130	0.615829	0.908456
	H111	H	0.899122	0.380174	0.901383
	H112	H	0.085760	0.909666	0.612783
	H113	H	0.098129	0.091691	0.382458
	H114	H	0.906119	0.105170	0.619352
	H115	H	0.913117	0.900094	0.383976
	H116	H	0.618424	0.097421	0.903753
	H117	H	0.385228	0.093480	0.089328
	H118	H	0.615831	0.902013	0.088146
	H119	H	0.387898	0.913798	0.910525
	C120	C	0.378046	0.007743	0.622003
	C121	C	0.621053	0.991443	0.621484
	C122	C	0.621642	0.007807	0.378354
	C123	C	0.378225	0.991605	0.378497
	C124	C	0.621567	0.378763	0.007772
	C125	C	0.621730	0.621902	0.991593
	C126	C	0.378458	0.621830	0.008122
	C127	C	0.378344	0.378727	0.991627
	C128	C	0.008091	0.621077	0.378626
	C129	C	0.991787	0.621344	0.621864
	C130	C	0.007772	0.378660	0.621409
	C131	C	0.992023	0.378382	0.378058
	C132	C	0.878722	0.507987	0.121793
	C133	C	0.121537	0.492089	0.121145
	C134	C	0.121878	0.508141	0.878524
	C135	C	0.878710	0.492189	0.878690
	C136	C	0.121259	0.878300	0.508351
	C137	C	0.121032	0.121726	0.492036
	C138	C	0.878096	0.122035	0.508051
	C139	C	0.878431	0.878114	0.491719
	C140	C	0.508482	0.121801	0.878562
	C141	C	0.491994	0.121769	0.121723
	C142	C	0.508250	0.878923	0.121397
	C143	C	0.492332	0.878133	0.878387
	C144	C	0.381428	0.884919	0.676645
	C145	C	0.617967	0.114647	0.675872
	C146	C	0.618869	0.885075	0.323098
	C147	C	0.380693	0.114527	0.323592
	C148	C	0.676981	0.381278	0.885228
	C149	C	0.675937	0.618402	0.114886
	C150	C	0.324269	0.618304	0.884637
	C151	C	0.323526	0.381719	0.114568
	C152	C	0.884836	0.675282	0.381791
	C153	C	0.114796	0.676065	0.618308
	C154	C	0.884286	0.324417	0.617734
	C155	C	0.115227	0.323879	0.381494
	C156	C	0.884862	0.381931	0.676043
	C157	C	0.115136	0.618442	0.675972
	C158	C	0.884785	0.617195	0.324299
	C159	C	0.115149	0.381137	0.323408
	C160	C	0.382149	0.675994	0.884752
	C161	C	0.618653	0.676594	0.114830
	C162	C	0.618971	0.323842	0.885141
	C163	C	0.381295	0.324211	0.114613
	C164	C	0.676528	0.885105	0.380975
	C165	C	0.675549	0.114617	0.618267
	C166	C	0.323254	0.884957	0.619073
	C167	C	0.322820	0.114301	0.381154
	C168	C	0.882084	0.384536	0.175651
	C169	C	0.117904	0.614948	0.175363
	C170	C	0.118674	0.385193	0.823921
	C171	C	0.882054	0.615428	0.824699
	C172	C	0.176029	0.880841	0.385178
	C173	C	0.175816	0.118518	0.614620
	C174	C	0.823645	0.118242	0.385369
	C175	C	0.824150	0.881574	0.615085
	C176	C	0.385234	0.176173	0.881809
	C177	C	0.614689	0.177501	0.119641
	C178	C	0.385391	0.823832	0.118559
	C179	C	0.615527	0.823914	0.882003
	C180	C	0.385271	0.881451	0.176315
	C181	C	0.614649	0.119514	0.177317
	C182	C	0.385415	0.118654	0.823897
	C183	C	0.615523	0.881690	0.824074
	C184	C	0.881509	0.175893	0.384780
	C185	C	0.118751	0.176774	0.614594
	C186	C	0.118090	0.823448	0.385304
	C187	C	0.881395	0.823500	0.614999
	C188	C	0.176292	0.385108	0.881494
	C189	C	0.175402	0.615148	0.117456
	C190	C	0.823536	0.385144	0.118587
	C191	C	0.824715	0.615625	0.882821
	C192	C	0.400060	0.093629	0.599815
	C193	C	0.599557	0.905450	0.599927
	C194	C	0.599748	0.093667	0.400478
	C195	C	0.400535	0.905939	0.400641
	C196	C	0.599626	0.400892	0.093600
	C197	C	0.600538	0.600342	0.905547
	C198	C	0.399409	0.600490	0.093962
	C199	C	0.400194	0.400313	0.905876
	C200	C	0.094264	0.599842	0.400103
	C201	C	0.905745	0.599460	0.600314
	C202	C	0.093717	0.400034	0.599581
	C203	C	0.905986	0.399877	0.399213
	C204	C	0.900150	0.594015	0.100517
	C205	C	0.099974	0.405619	0.099480
	C206	C	0.100120	0.594354	0.900220
	C207	C	0.900375	0.406311	0.900319
	C208	C	0.099768	0.900288	0.594135
	C209	C	0.098894	0.099922	0.406175
	C210	C	0.899750	0.100969	0.594095
	C211	C	0.900320	0.899545	0.406244
	C212	C	0.594416	0.100312	0.899892
	C213	C	0.406238	0.099595	0.099441
	C214	C	0.594146	0.900844	0.099731
	C215	C	0.406425	0.899959	0.900208
	Zn216	Zn	0.500260	0.000037	0.750429
	Zn217	Zn	0.500003	0.000112	0.250057
	Zn218	Zn	0.750211	0.500016	-0.000031
	Zn219	Zn	0.250071	0.500135	-0.000338
	Zn220	Zn	-0.000360	0.749729	0.500076
	Zn221	Zn	-0.000313	0.250275	0.499655
	Zn222	Zn	0.000413	0.500273	0.750406
	Zn223	Zn	0.000402	0.499672	0.249935
	Zn224	Zn	0.500204	0.750029	0.000178
	Zn225	Zn	0.499982	0.250358	-0.000134
	Zn226	Zn	0.749801	-0.000598	0.500391
	Zn227	Zn	0.249788	-0.000469	0.499755
	N228	N	0.414698	0.962466	0.678446
	N229	N	0.584645	0.037214	0.677729
	N230	N	0.585443	0.962535	0.321469
	N231	N	0.414766	0.037335	0.322179
	N232	N	0.678584	0.414739	0.962631
	N233	N	0.678006	0.585222	0.037264
	N234	N	0.321952	0.585239	0.962090
	N235	N	0.321822	0.415234	0.037314
	N236	N	0.962272	0.677239	0.415292
	N237	N	0.037018	0.678022	0.585348
	N238	N	0.961801	0.322305	0.584402
	N239	N	0.037788	0.322173	0.414894
	N240	N	0.962425	0.414890	0.678383
	N241	N	0.037667	0.585109	0.678198
	N242	N	0.962543	0.584468	0.322069
	N243	N	0.037611	0.414326	0.321237
	N244	N	0.414917	0.678426	0.962377
	N245	N	0.585603	0.678647	0.037296
	N246	N	0.585436	0.322041	0.962330
	N247	N	0.414548	0.322113	0.037105
	N248	N	0.678163	0.962370	0.414783
	N249	N	0.677811	0.036914	0.585291
	N250	N	0.321262	0.962291	0.585538
	N251	N	0.321091	0.036864	0.414406
	N252	N	0.915405	0.462001	0.177843
	N253	N	0.085048	0.537311	0.177579
	N254	N	0.085436	0.462625	0.822337
	N255	N	0.914812	0.537766	0.822121
	N256	N	0.177920	0.914418	0.462519
	N257	N	0.177391	0.084838	0.537196
	N258	N	0.821488	0.085361	0.462922
	N259	N	0.822256	0.914859	0.537758
	N260	N	0.462678	0.178030	0.915305
	N261	N	0.537417	0.178928	0.085591
	N262	N	0.462798	0.822185	0.084979
	N263	N	0.537817	0.821580	0.914859
	N264	N	0.462501	0.915118	0.178046
	N265	N	0.537340	0.085772	0.178610
	N266	N	0.462972	0.085787	0.821663
	N267	N	0.537954	0.914851	0.821874
	N268	N	0.914568	0.178372	0.462316
	N269	N	0.085410	0.178754	0.537247
	N270	N	0.084702	0.821749	0.462727
	N271	N	0.914216	0.820926	0.537403
	N272	N	0.178651	0.462758	0.914617
	N273	N	0.177783	0.537466	0.084536
	N274	N	0.821702	0.462650	0.085432
	N275	N	0.822342	0.537873	0.915597
