data_Molecule from HDF5

_cell_length_a		16.297642
_cell_length_b		16.376005
_cell_length_c		16.553202
_cell_angle_alpha	89.874870
_cell_angle_beta	89.770082
_cell_angle_gamma	90.115244
_symmetry_space_group_name_H-M	'P 1'
_symmetry_Int_Tables_number		1

loop_
	_symmetry_equiv_pos_as_xyz
	x,y,z

loop_
	_atom_site_label
	_atom_site_type_symbol
	_atom_site_fract_x
	_atom_site_fract_y
	_atom_site_fract_z
	H0	H	0.388208	0.842974	0.736752
	H1	H	0.608546	0.157869	0.732562
	H2	H	0.608951	0.841367	0.286784
	H3	H	0.392194	0.156329	0.285556
	H4	H	0.723498	0.394358	0.855569
	H5	H	0.720963	0.607276	0.169640
	H6	H	0.275554	0.606737	0.855323
	H7	H	0.276701	0.393230	0.169911
	H8	H	0.840714	0.722907	0.405632
	H9	H	0.158364	0.722871	0.618535
	H10	H	0.840508	0.277329	0.617388
	H11	H	0.159446	0.278952	0.404901
	H12	H	0.840497	0.391007	0.734743
	H13	H	0.155719	0.611087	0.737589
	H14	H	0.839417	0.608071	0.290276
	H15	H	0.156528	0.390444	0.286123
	H16	H	0.392327	0.722691	0.854977
	H17	H	0.606515	0.724154	0.167984
	H18	H	0.607250	0.277897	0.854930
	H19	H	0.390291	0.273850	0.167381
	H20	H	0.720812	0.839997	0.405820
	H21	H	0.716227	0.161099	0.609559
	H22	H	0.279685	0.839917	0.614409
	H23	H	0.279529	0.158112	0.404533
	H24	H	0.892224	0.340950	0.233931
	H25	H	0.105441	0.658360	0.234459
	H26	H	0.106447	0.342078	0.789314
	H27	H	0.888388	0.657316	0.787654
	H28	H	0.222045	0.894939	0.353709
	H29	H	0.224210	0.105732	0.668411
	H30	H	0.780948	0.104244	0.352856
	H31	H	0.776250	0.894145	0.668634
	H32	H	0.340864	0.221137	0.904883
	H33	H	0.659281	0.220876	0.113352
	H34	H	0.340243	0.780288	0.116474
	H35	H	0.658678	0.778424	0.905386
	H36	H	0.342575	0.890592	0.235349
	H37	H	0.658211	0.108112	0.232350
	H38	H	0.341474	0.108527	0.787248
	H39	H	0.658811	0.893370	0.789111
	H40	H	0.898703	0.220278	0.353253
	H41	H	0.108654	0.222855	0.668726
	H42	H	0.109041	0.775276	0.355541
	H43	H	0.891463	0.776265	0.668510
	H44	H	0.218999	0.340458	0.908176
	H45	H	0.219691	0.659080	0.117037
	H46	H	0.780707	0.339006	0.113606
	H47	H	0.779452	0.659829	0.909735
	H48	H	0.411147	0.112552	0.598023
	H49	H	0.585322	0.886791	0.600241
	H50	H	0.587914	0.113694	0.416140
	H51	H	0.408132	0.885389	0.423410
	H52	H	0.587670	0.413626	0.123734
	H53	H	0.591791	0.590505	0.898475
	H54	H	0.409600	0.591269	0.125097
	H55	H	0.412320	0.411323	0.901087
	H56	H	0.112520	0.585771	0.422235
	H57	H	0.886316	0.588583	0.599027
	H58	H	0.113663	0.413351	0.603021
	H59	H	0.884448	0.408290	0.422413
	H60	H	0.113642	0.410935	0.600311
	H61	H	0.887194	0.584579	0.598850
	H62	H	0.112310	0.586747	0.424194
	H63	H	0.886542	0.410195	0.428582
	H64	H	0.408651	0.588915	0.125635
	H65	H	0.588066	0.585410	0.901685
	H66	H	0.582243	0.409743	0.122756
	H67	H	0.409148	0.410105	0.898531
	H68	H	0.585643	0.111722	0.421178
	H69	H	0.587846	0.885886	0.599977
	H70	H	0.414927	0.112954	0.602683
	H71	H	0.415536	0.885027	0.416741
	H72	H	0.910618	0.613240	0.101067
	H73	H	0.081739	0.386213	0.107545
	H74	H	0.085275	0.613306	0.923319
	H75	H	0.909697	0.386277	0.924070
	H76	H	0.080702	0.909810	0.620717
	H77	H	0.096039	0.088493	0.397505
	H78	H	0.907792	0.087269	0.623631
	H79	H	0.915376	0.910223	0.400765
	H80	H	0.613238	0.087205	0.922336
	H81	H	0.382837	0.089792	0.105359
	H82	H	0.615857	0.919420	0.110226
	H83	H	0.383492	0.907899	0.921629
	H84	H	0.618572	0.899195	0.098120
	H85	H	0.387106	0.089490	0.091773
	H86	H	0.613918	0.087406	0.919723
	H87	H	0.388444	0.913496	0.928540
	H88	H	0.911727	0.087981	0.622753
	H89	H	0.086401	0.085184	0.402285
	H90	H	0.091990	0.906671	0.626237
	H91	H	0.908941	0.907756	0.397231
	H92	H	0.082859	0.612008	0.924471
	H93	H	0.083036	0.389228	0.096171
	H94	H	0.907860	0.615145	0.103941
	H95	H	0.911823	0.386136	0.921936
	H96	H	0.416089	0.110670	0.597275
	H97	H	0.586705	0.885914	0.602037
	H98	H	0.591502	0.113401	0.421032
	H99	H	0.417416	0.889130	0.425808
	H100	H	0.588316	0.406985	0.125049
	H101	H	0.585302	0.592124	0.900280
	H102	H	0.410636	0.589678	0.123746
	H103	H	0.408679	0.413911	0.899980
	H104	H	0.111056	0.585257	0.423514
	H105	H	0.885174	0.586090	0.602216
	H106	H	0.112222	0.414793	0.600075
	H107	H	0.887078	0.414902	0.423362
	H108	H	0.912273	0.613903	0.105190
	H109	H	0.091926	0.383847	0.102065
	H110	H	0.085487	0.612627	0.925802
	H111	H	0.912611	0.387606	0.923827
	H112	H	0.090182	0.918235	0.621386
	H113	H	0.087411	0.095701	0.398726
	H114	H	0.909619	0.090540	0.625235
	H115	H	0.909777	0.915182	0.400591
	H116	H	0.614230	0.089545	0.921295
	H117	H	0.388510	0.077709	0.099695
	H118	H	0.608497	0.917611	0.088049
	H119	H	0.386134	0.917486	0.919588
	C120	C	0.379077	0.007999	0.632804
	C121	C	0.620195	0.991278	0.631815
	C122	C	0.621788	0.007994	0.387965
	C123	C	0.380124	0.991136	0.389328
	C124	C	0.620105	0.378223	0.020321
	C125	C	0.621037	0.622368	1.003739
	C126	C	0.377023	0.622602	0.020657
	C127	C	0.376834	0.377648	1.003368
	C128	C	0.007150	0.620374	0.390467
	C129	C	0.990422	0.621123	0.633547
	C130	C	0.008437	0.378762	0.634028
	C131	C	0.991247	0.378582	0.391366
	C132	C	0.877497	0.508480	0.134489
	C133	C	0.119007	0.491364	0.134065
	C134	C	0.118785	0.508329	0.891564
	C135	C	0.877302	0.491363	0.890913
	C136	C	0.121324	0.878299	0.519295
	C137	C	0.123443	0.122646	0.503178
	C138	C	0.878808	0.121049	0.519434
	C139	C	0.877679	0.878027	0.503161
	C140	C	0.509076	0.121654	0.888676
	C141	C	0.491330	0.119606	0.131048
	C142	C	0.508894	0.878839	0.131816
	C143	C	0.491010	0.879131	0.890067
	C144	C	0.372711	0.889921	0.695176
	C145	C	0.624531	0.110634	0.691636
	C146	C	0.626098	0.888826	0.327536
	C147	C	0.375402	0.109214	0.326975
	C148	C	0.682595	0.376068	0.902499
	C149	C	0.680950	0.624915	0.122034
	C150	C	0.315748	0.624872	0.902841
	C151	C	0.316330	0.374597	0.122062
	C152	C	0.888086	0.682308	0.387946
	C153	C	0.110072	0.682935	0.636689
	C154	C	0.888532	0.317235	0.636108
	C155	C	0.111244	0.318418	0.387376
	C156	C	0.888407	0.373856	0.694751
	C157	C	0.108738	0.627184	0.696253
	C158	C	0.887538	0.624661	0.330481
	C159	C	0.109665	0.374117	0.328142
	C160	C	0.374005	0.682847	0.902446
	C161	C	0.623898	0.683601	0.121361
	C162	C	0.624650	0.318046	0.902027
	C163	C	0.372810	0.314886	0.120691
	C164	C	0.681552	0.888180	0.387288
	C165	C	0.678865	0.112115	0.630829
	C166	C	0.318484	0.888403	0.634231
	C167	C	0.319327	0.110228	0.386489
	C168	C	0.874285	0.388520	0.193820
	C169	C	0.122850	0.610827	0.194161
	C170	C	0.123398	0.389431	0.830301
	C171	C	0.872206	0.610061	0.829042
	C172	C	0.182292	0.876134	0.401176
	C173	C	0.184596	0.124732	0.621023
	C174	C	0.820367	0.122873	0.400326
	C175	C	0.816471	0.875487	0.621412
	C176	C	0.389017	0.182106	0.885968
	C177	C	0.611324	0.180680	0.132376
	C178	C	0.388563	0.819134	0.134826
	C179	C	0.610916	0.818553	0.887478
	C180	C	0.389834	0.874391	0.193931
	C181	C	0.611089	0.124465	0.191303
	C182	C	0.389522	0.125496	0.827670
	C183	C	0.610964	0.875718	0.829361
	C184	C	0.879249	0.180486	0.400543
	C185	C	0.126710	0.182981	0.621197
	C186	C	0.125807	0.816581	0.402087
	C187	C	0.874051	0.816955	0.621481
	C188	C	0.179251	0.388401	0.889755
	C189	C	0.179954	0.611181	0.135673
	C190	C	0.818625	0.387661	0.134237
	C191	C	0.817765	0.611424	0.889887
	C192	C	0.406268	0.090722	0.606823
	C193	C	0.594187	0.907888	0.607564
	C194	C	0.595810	0.091337	0.412247
	C195	C	0.406163	0.908281	0.414909
	C196	C	0.593544	0.402973	0.102399
	C197	C	0.595579	0.596737	0.921516
	C198	C	0.402442	0.597288	0.103150
	C199	C	0.402648	0.404086	0.921342
	C200	C	0.090452	0.593760	0.415940
	C201	C	0.907733	0.594087	0.607332
	C202	C	0.091388	0.405469	0.608693
	C203	C	0.907688	0.404068	0.417473
	C204	C	0.902884	0.592128	0.110361
	C205	C	0.093095	0.408173	0.109159
	C206	C	0.092339	0.590827	0.917051
	C207	C	0.903742	0.408318	0.916180
	C208	C	0.095004	0.904321	0.601288
	C209	C	0.097510	0.097152	0.420998
	C210	C	0.902867	0.095834	0.602384
	C211	C	0.903908	0.903523	0.421039
	C212	C	0.591987	0.095592	0.913867
	C213	C	0.407940	0.093342	0.106093
	C214	C	0.592505	0.904732	0.106132
	C215	C	0.407679	0.905324	0.915792
	Zn216	Zn	0.500054	-0.000280	0.761286
	Zn217	Zn	0.501258	-0.000901	0.259807
	Zn218	Zn	0.749257	0.499926	0.012992
	Zn219	Zn	0.247796	0.499859	0.012523
	Zn220	Zn	-0.000293	0.749038	0.511745
	Zn221	Zn	0.000741	0.251114	0.512469
	Zn222	Zn	-0.001559	0.499984	0.762184
	Zn223	Zn	-0.001680	0.499319	0.263007
	Zn224	Zn	0.499209	0.751139	0.011367
	Zn225	Zn	0.499057	0.248689	0.010529
	Zn226	Zn	0.748634	-0.000442	0.510869
	Zn227	Zn	0.251307	-0.000374	0.511194
	N228	N	0.409731	0.965420	0.694265
	N229	N	0.588691	0.034535	0.692375
	N230	N	0.589680	0.964374	0.327833
	N231	N	0.412492	0.033984	0.328662
	N232	N	0.679883	0.412742	0.976946
	N233	N	0.679378	0.587510	0.047915
	N234	N	0.317503	0.588042	0.977494
	N235	N	0.318413	0.412798	0.048087
	N236	N	0.963636	0.679803	0.424729
	N237	N	0.035584	0.679093	0.598104
	N238	N	0.964084	0.319884	0.599190
	N239	N	0.036580	0.321231	0.426285
	N240	N	0.963884	0.411474	0.693559
	N241	N	0.033431	0.589448	0.694429
	N242	N	0.962788	0.587007	0.332062
	N243	N	0.034003	0.410843	0.330623
	N244	N	0.411085	0.681594	0.976781
	N245	N	0.587347	0.682140	0.046534
	N246	N	0.586387	0.319245	0.976177
	N247	N	0.409423	0.316558	0.045809
	N248	N	0.679089	0.963375	0.424093
	N249	N	0.676238	0.036827	0.594363
	N250	N	0.322292	0.963040	0.596171
	N251	N	0.322242	0.035792	0.424729
	N252	N	0.909724	0.464706	0.194441
	N253	N	0.086147	0.535193	0.193582
	N254	N	0.086511	0.464938	0.831319
	N255	N	0.908610	0.534282	0.829530
	N256	N	0.179674	0.913662	0.475166
	N257	N	0.182675	0.088040	0.546503
	N258	N	0.820271	0.086472	0.475231
	N259	N	0.818709	0.912780	0.546991
	N260	N	0.464046	0.179796	0.923268
	N261	N	0.535749	0.177915	0.095649
	N262	N	0.463673	0.821787	0.096948
	N263	N	0.535140	0.820436	0.924320
	N264	N	0.465914	0.910806	0.192105
	N265	N	0.535486	0.087309	0.190643
	N266	N	0.465300	0.088653	0.829008
	N267	N	0.535299	0.912629	0.830886
	N268	N	0.915026	0.179408	0.475659
	N269	N	0.089697	0.181974	0.546770
	N270	N	0.088484	0.817928	0.476628
	N271	N	0.911395	0.818419	0.546950
	N272	N	0.176694	0.463418	0.926972
	N273	N	0.178041	0.535669	0.099442
	N274	N	0.820352	0.463394	0.098358
	N275	N	0.820833	0.536554	0.927478
	O276	O	0.640264	0.307132	0.427881
	H277	H	0.619639	0.295152	0.406489
	H278	H	0.647837	0.309285	0.450153
	O279	O	0.501135	0.676471	0.315064
	H280	H	0.527764	0.664790	0.316903
	H281	H	0.498473	0.682495	0.301811
	O282	O	0.477098	0.478619	0.308800
	H283	H	0.460432	0.488934	0.313428
	H284	H	0.480274	0.478332	0.322623
	O285	O	0.891935	0.918844	-0.142939
	H286	H	0.877827	0.938072	-0.141770
	H287	H	0.888996	0.937150	-0.139168
	O288	O	0.444060	0.284430	0.463965
	H289	H	0.455738	0.291338	0.487600
	H290	H	0.441403	0.275994	0.440520
	O291	O	0.560383	0.351035	0.705086
	H292	H	0.562027	0.345963	0.708465
	H293	H	0.579708	0.386121	0.710044
	O294	O	0.878975	1.033286	0.915257
	H295	H	0.854952	1.039632	0.900369
	H296	H	0.895100	1.043024	0.923514
	O297	O	0.441818	0.466787	0.490706
	H298	H	0.446017	0.472753	0.482169
	H299	H	0.438265	0.449988	0.486550
	O300	O	0.695972	0.484859	0.427968
	H301	H	0.717059	0.481469	0.421994
	H302	H	0.683670	0.471770	0.432319
	O303	O	0.288321	0.483284	0.729625
	H304	H	0.279828	0.454875	0.741260
	H305	H	0.273975	0.453735	0.737087
	O306	O	-0.086513	0.026417	1.214866
	H307	H	-0.096976	0.000060	1.214691
	H308	H	-0.088140	0.013442	1.218778
	O309	O	0.917458	-0.032202	-0.000259
	H310	H	0.915149	-0.031999	-0.015212
	H311	H	0.915847	-0.035376	-0.005221
	O312	O	0.521027	0.551240	0.376531
	H313	H	0.515362	0.565575	0.367982
	H314	H	0.529682	0.551684	0.370184
	O315	O	0.527143	0.544737	0.539884
	H316	H	0.536222	0.545964	0.539287
	H317	H	0.520984	0.543666	0.537251
	O318	O	0.038619	-0.078460	0.168305
	H319	H	0.036740	-0.076315	0.166268
	H320	H	0.049353	-0.065122	0.176735
	O321	O	0.820078	0.130375	-0.061038
	H322	H	0.817057	0.116493	-0.032746
	H323	H	0.816820	0.130645	-0.051761
	O324	O	0.980994	0.151543	0.819519
	H325	H	0.984476	0.156046	0.798368
	H326	H	0.989693	0.152083	0.824136
	O327	O	0.322965	0.510846	0.303514
	H328	H	0.298750	0.519529	0.287133
	H329	H	0.318236	0.548873	0.311017
	O330	O	-0.025230	0.796192	0.996280
	H331	H	-0.018692	0.791670	0.995856
	H332	H	-0.026154	0.806452	0.996671
	O333	O	0.203914	1.051860	0.006396
	H334	H	0.215569	1.076587	0.006072
	H335	H	0.190180	1.025562	0.016236
	O336	O	1.160126	0.917475	0.072380
	H337	H	1.165727	0.905889	0.073449
	H338	H	1.157843	0.912903	0.069913
	O339	O	0.101279	1.046336	0.823776
	H340	H	0.116603	1.041491	0.825679
	H341	H	0.115920	1.047828	0.815383
	O342	O	0.496825	0.704464	0.600256
	H343	H	0.494323	0.715836	0.607294
	H344	H	0.504070	0.699472	0.589184
	O345	O	-0.120646	0.050620	1.182253
	H346	H	-0.106571	0.038820	1.181875
	H347	H	-0.120279	0.048905	1.191109
	O348	O	0.504345	0.291111	0.655337
	H349	H	0.512096	0.285235	0.677018
	H350	H	0.523088	0.297253	0.663349
	O351	O	1.185125	0.800012	0.002714
	H352	H	1.208126	0.774048	-0.001400
	H353	H	1.171024	0.812644	-0.027406
	O354	O	1.142519	1.148002	1.192034
	H355	H	1.129688	1.153659	1.205588
	H356	H	1.144514	1.129949	1.193597
	O357	O	0.115190	-0.021019	-0.168885
	H358	H	0.126923	-0.020368	-0.146839
	H359	H	0.142189	-0.018974	-0.188349
	O360	O	0.651349	0.503886	0.724996
	H361	H	0.641081	0.538807	0.722035
	H362	H	0.668912	0.517969	0.741475
	O363	O	0.800946	0.078058	0.098634
	H364	H	0.812489	0.066868	0.109873
	H365	H	0.779339	0.091900	0.116817
	O366	O	0.163874	-0.177672	0.835979
	H367	H	0.159579	-0.149468	0.822092
	H368	H	0.133625	-0.186383	0.831559
	O369	O	0.647208	0.667973	0.613953
	H370	H	0.624662	0.678215	0.613952
	H371	H	0.642709	0.668583	0.587661
	O372	O	0.314359	0.325687	0.692911
	H373	H	0.335503	0.309764	0.677722
	H374	H	0.336107	0.311602	0.671662
	O375	O	0.011213	-0.193194	0.804288
	H376	H	-0.012718	-0.201618	0.810488
	H377	H	0.000234	-0.192926	0.788905
	O378	O	0.065414	0.076964	-0.026620
	H379	H	0.059931	0.073948	-0.037366
	H380	H	0.057711	0.079415	-0.023038
	O381	O	-0.010632	1.143894	0.156809
	H382	H	-0.021390	1.153765	0.148444
	H383	H	-0.000810	1.133798	0.148513
	O384	O	0.575008	0.664940	0.713888
	H385	H	0.540351	0.654200	0.714650
	H386	H	0.574267	0.682991	0.714021
	O387	O	0.476112	0.554476	0.713786
	H388	H	0.466286	0.560639	0.708879
	H389	H	0.458654	0.540038	0.716477
	O390	O	0.975081	0.861606	0.223839
	H391	H	0.973374	0.841980	0.250134
	H392	H	0.978314	0.876133	0.214330
	O393	O	0.688011	0.301134	0.483159
	H394	H	0.687398	0.298686	0.498078
	H395	H	0.688476	0.310318	0.490502
	O396	O	0.512908	0.578486	0.467422
	H397	H	0.513687	0.576586	0.466870
	H398	H	0.507205	0.572325	0.472166
	O399	O	0.706067	0.403363	0.301945
	H400	H	0.704589	0.379541	0.334096
	H401	H	0.705283	0.397315	0.278864
	O402	O	0.812252	0.878897	0.019811
	H403	H	0.822303	0.894204	-0.000675
	H404	H	0.810088	0.874469	0.016615
	O405	O	0.428700	0.579591	0.455348
	H406	H	0.419346	0.581046	0.461611
	H407	H	0.448650	0.568052	0.455435
	O408	O	0.519967	0.297575	0.301663
	H409	H	0.505637	0.298771	0.282903
	H410	H	0.512290	0.306984	0.298211
	O411	O	0.966035	1.195871	0.879774
	H412	H	0.949401	1.190077	0.874019
	H413	H	0.968169	1.200022	0.885778
	O414	O	0.699515	0.509557	0.574745
	H415	H	0.699899	0.512875	0.550996
	H416	H	0.705419	0.510916	0.597227
	O417	O	-0.170900	0.824786	1.187912
	H418	H	-0.151761	0.834503	1.189854
	H419	H	-0.163066	0.814180	1.155621
	O420	O	-0.165711	1.076195	0.849205
	H421	H	-0.124515	1.081699	0.833362
	H422	H	-0.177481	1.083522	0.868836
	O423	O	0.138305	1.055654	0.180399
	H424	H	0.145314	1.054839	0.182683
	H425	H	0.132169	1.041075	0.177641
	O426	O	0.316387	0.680868	0.332807
	H427	H	0.322129	0.691287	0.372666
	H428	H	0.348978	0.688183	0.334181
	O429	O	0.600350	0.708090	0.549411
	H430	H	0.592586	0.682713	0.522600
	H431	H	0.621589	0.718319	0.552540
	O432	O	0.289152	0.290608	0.531407
	H433	H	0.306180	0.306720	0.505333
	H434	H	0.257388	0.255314	0.534362
	O435	O	0.195853	0.130843	0.046021
	H436	H	0.203106	0.136839	0.070038
	H437	H	0.205769	0.138940	0.058115
	O438	O	0.286604	0.513345	0.524111
	H439	H	0.290084	0.512859	0.538791
	H440	H	0.279653	0.505334	0.507576
	O441	O	0.332923	0.686733	0.529481
	H442	H	0.329351	0.689706	0.532391
	H443	H	0.322935	0.666274	0.548253
