data_Molecule from HDF5

_cell_length_a		16.387844
_cell_length_b		16.229902
_cell_length_c		16.233649
_cell_angle_alpha	89.966096
_cell_angle_beta	89.927823
_cell_angle_gamma	89.947297
_symmetry_space_group_name_H-M	'P 1'
_symmetry_Int_Tables_number		1

loop_
	_symmetry_equiv_pos_as_xyz
	x,y,z

loop_
	_atom_site_label
	_atom_site_type_symbol
	_atom_site_fract_x
	_atom_site_fract_y
	_atom_site_fract_z
	H0	H	0.401583	0.835183	0.719372
	H1	H	0.595916	0.164932	0.721609
	H2	H	0.596627	0.836198	0.293058
	H3	H	0.401400	0.165039	0.292278
	H4	H	0.715410	0.399885	0.842430
	H5	H	0.714157	0.599857	0.169868
	H6	H	0.284299	0.598736	0.842862
	H7	H	0.282857	0.399169	0.169942
	H8	H	0.836658	0.717257	0.407858
	H9	H	0.162747	0.715373	0.604181
	H10	H	0.836364	0.285551	0.606122
	H11	H	0.161152	0.286469	0.407808
	H12	H	0.836032	0.402757	0.722175
	H13	H	0.162179	0.599677	0.721469
	H14	H	0.836508	0.600818	0.291885
	H15	H	0.161649	0.403700	0.292173
	H16	H	0.402136	0.712622	0.841669
	H17	H	0.596838	0.714047	0.170334
	H18	H	0.596010	0.287006	0.841231
	H19	H	0.403000	0.288556	0.171226
	H20	H	0.715270	0.837539	0.406809
	H21	H	0.713180	0.165262	0.606917
	H22	H	0.284026	0.837318	0.605873
	H23	H	0.284106	0.164997	0.406484
	H24	H	0.902095	0.337079	0.220460
	H25	H	0.095055	0.665850	0.218208
	H26	H	0.096471	0.336882	0.792668
	H27	H	0.901182	0.666822	0.793545
	H28	H	0.214605	0.902102	0.342711
	H29	H	0.214174	0.101113	0.670660
	H30	H	0.783151	0.103225	0.343077
	H31	H	0.783179	0.901195	0.670169
	H32	H	0.335175	0.215106	0.908755
	H33	H	0.661241	0.215978	0.104894
	H34	H	0.334970	0.785633	0.104979
	H35	H	0.661800	0.785328	0.907817
	H36	H	0.335883	0.901575	0.222726
	H37	H	0.661481	0.098677	0.220257
	H38	H	0.335014	0.098401	0.792787
	H39	H	0.660977	0.900355	0.790742
	H40	H	0.902106	0.214716	0.341756
	H41	H	0.096399	0.215506	0.671085
	H42	H	0.096144	0.789063	0.342244
	H43	H	0.902020	0.788573	0.671004
	H44	H	0.213437	0.336560	0.906899
	H45	H	0.214607	0.664127	0.105900
	H46	H	0.784889	0.337178	0.106570
	H47	H	0.782599	0.664541	0.906641
	H48	H	0.403828	0.118226	0.600037
	H49	H	0.577952	0.887315	0.601579
	H50	H	0.591954	0.116485	0.417662
	H51	H	0.405186	0.883747	0.414787
	H52	H	0.592707	0.406224	0.123385
	H53	H	0.598578	0.595817	0.886683
	H54	H	0.406616	0.587532	0.121711
	H55	H	0.413038	0.402200	0.889367
	H56	H	0.115075	0.599312	0.415952
	H57	H	0.885763	0.587274	0.600218
	H58	H	0.115424	0.413113	0.609169
	H59	H	0.883904	0.407553	0.417356
	H60	H	0.117272	0.397799	0.598552
	H61	H	0.880961	0.599146	0.606126
	H62	H	0.113666	0.590741	0.412723
	H63	H	0.883220	0.411990	0.412457
	H64	H	0.408495	0.595432	0.123140
	H65	H	0.593299	0.584013	0.891882
	H66	H	0.594016	0.408774	0.122584
	H67	H	0.397228	0.405125	0.885924
	H68	H	0.596386	0.119216	0.411460
	H69	H	0.598176	0.887556	0.584155
	H70	H	0.408761	0.117527	0.601564
	H71	H	0.408064	0.884719	0.414346
	H72	H	0.907782	0.614134	0.089309
	H73	H	0.089988	0.387003	0.090219
	H74	H	0.092237	0.617459	0.915794
	H75	H	0.910565	0.387285	0.919415
	H76	H	0.093279	0.902375	0.626150
	H77	H	0.089966	0.099231	0.389400
	H78	H	0.907639	0.098158	0.624249
	H79	H	0.910984	0.904205	0.389864
	H80	H	0.610424	0.094255	0.926159
	H81	H	0.382439	0.093874	0.101998
	H82	H	0.613507	0.908112	0.100917
	H83	H	0.381452	0.910833	0.904270
	H84	H	0.614874	0.904563	0.100982
	H85	H	0.382069	0.096399	0.099874
	H86	H	0.610966	0.082989	0.909509
	H87	H	0.380691	0.896404	0.914049
	H88	H	0.900166	0.090358	0.623164
	H89	H	0.100027	0.094203	0.388338
	H90	H	0.099196	0.913124	0.623914
	H91	H	0.899513	0.908710	0.387387
	H92	H	0.094211	0.618425	0.914629
	H93	H	0.101591	0.380561	0.101177
	H94	H	0.897195	0.621417	0.099922
	H95	H	0.899862	0.383485	0.915555
	H96	H	0.406684	0.116765	0.596773
	H97	H	0.601662	0.878560	0.609577
	H98	H	0.588258	0.118227	0.410765
	H99	H	0.406464	0.885376	0.417296
	H100	H	0.591412	0.408380	0.121941
	H101	H	0.585354	0.595652	0.890302
	H102	H	0.400912	0.592608	0.124550
	H103	H	0.406228	0.417023	0.892580
	H104	H	0.117230	0.597420	0.407194
	H105	H	0.885536	0.598495	0.592536
	H106	H	0.109751	0.414171	0.591441
	H107	H	0.881384	0.405545	0.411534
	H108	H	0.912387	0.617639	0.104186
	H109	H	0.085638	0.384131	0.106472
	H110	H	0.092473	0.617785	0.912853
	H111	H	0.909472	0.383645	0.907965
	H112	H	0.087501	0.911886	0.621194
	H113	H	0.091606	0.088169	0.392960
	H114	H	0.909964	0.088671	0.619617
	H115	H	0.908356	0.915961	0.392710
	H116	H	0.618195	0.101895	0.908237
	H117	H	0.383288	0.094065	0.098582
	H118	H	0.613212	0.906583	0.097615
	H119	H	0.385948	0.910919	0.921006
	C120	C	0.377912	0.008975	0.628017
	C121	C	0.620610	0.992934	0.627950
	C122	C	0.620890	0.009471	0.384885
	C123	C	0.377796	0.992741	0.385576
	C124	C	0.621327	0.378736	0.014203
	C125	C	0.620791	0.621286	0.997782
	C126	C	0.377203	0.621154	0.014898
	C127	C	0.377448	0.379101	0.997919
	C128	C	0.007704	0.623856	0.384207
	C129	C	0.991594	0.623358	0.628241
	C130	C	0.007089	0.379451	0.628860
	C131	C	0.990235	0.380010	0.385071
	C132	C	0.877628	0.509806	0.127533
	C133	C	0.120794	0.492075	0.127934
	C134	C	0.120665	0.509272	0.885372
	C135	C	0.877901	0.493113	0.885422
	C136	C	0.121519	0.880511	0.515188
	C137	C	0.121566	0.123332	0.498429
	C138	C	0.877670	0.122511	0.514318
	C139	C	0.877653	0.880588	0.498193
	C140	C	0.505855	0.121756	0.885685
	C141	C	0.490205	0.122773	0.128505
	C142	C	0.506285	0.878066	0.128428
	C143	C	0.490298	0.877475	0.884511
	C144	C	0.380829	0.884800	0.682270
	C145	C	0.617134	0.115980	0.683878
	C146	C	0.617781	0.885481	0.330325
	C147	C	0.380561	0.116250	0.330263
	C148	C	0.676984	0.380131	0.891256
	C149	C	0.676101	0.619932	0.120931
	C150	C	0.321926	0.619358	0.891592
	C151	C	0.321628	0.380109	0.121190
	C152	C	0.885281	0.679345	0.387216
	C153	C	0.113962	0.677991	0.625168
	C154	C	0.884878	0.323824	0.626614
	C155	C	0.112972	0.325076	0.387719
	C156	C	0.884723	0.381885	0.684320
	C157	C	0.113696	0.620257	0.683331
	C158	C	0.885081	0.621560	0.329396
	C159	C	0.112970	0.382990	0.330115
	C160	C	0.380981	0.675323	0.890861
	C161	C	0.617624	0.676344	0.121317
	C162	C	0.617494	0.324070	0.890555
	C163	C	0.381351	0.325191	0.121893
	C164	C	0.676554	0.886172	0.386978
	C165	C	0.675402	0.116123	0.626746
	C166	C	0.322281	0.885766	0.626038
	C167	C	0.322132	0.116053	0.386464
	C168	C	0.880794	0.386144	0.183037
	C169	C	0.116630	0.616531	0.181489
	C170	C	0.117537	0.385753	0.830094
	C171	C	0.880568	0.617179	0.830776
	C172	C	0.176473	0.882467	0.391632
	C173	C	0.176141	0.121397	0.621687
	C174	C	0.821579	0.122580	0.391697
	C175	C	0.821605	0.881639	0.621224
	C176	C	0.383645	0.177222	0.887915
	C177	C	0.612636	0.177877	0.125764
	C178	C	0.383770	0.823409	0.125502
	C179	C	0.612943	0.822632	0.887186
	C180	C	0.384183	0.880677	0.184408
	C181	C	0.612607	0.119508	0.183103
	C182	C	0.383658	0.118965	0.830535
	C183	C	0.612633	0.880129	0.829202
	C184	C	0.881101	0.177736	0.390986
	C185	C	0.117560	0.178259	0.621815
	C186	C	0.117687	0.826185	0.391358
	C187	C	0.880877	0.825882	0.621935
	C188	C	0.175630	0.385619	0.886969
	C189	C	0.175871	0.615757	0.125658
	C190	C	0.822691	0.386258	0.126427
	C191	C	0.821513	0.616045	0.886744
	C192	C	0.399998	0.095196	0.605992
	C193	C	0.599031	0.906774	0.605280
	C194	C	0.598801	0.095723	0.406955
	C195	C	0.399998	0.906943	0.408651
	C196	C	0.599301	0.401238	0.100496
	C197	C	0.598705	0.598425	0.911842
	C198	C	0.398846	0.598553	0.100942
	C199	C	0.399092	0.401559	0.911636
	C200	C	0.093239	0.602154	0.405615
	C201	C	0.906059	0.601431	0.606036
	C202	C	0.092305	0.401820	0.606478
	C203	C	0.904922	0.401935	0.407269
	C204	C	0.899324	0.595570	0.104424
	C205	C	0.098986	0.406172	0.105917
	C206	C	0.099231	0.595594	0.907681
	C207	C	0.900176	0.407018	0.907765
	C208	C	0.099702	0.902557	0.601578
	C209	C	0.100168	0.100494	0.412339
	C210	C	0.899557	0.099336	0.600272
	C211	C	0.899694	0.903265	0.412285
	C212	C	0.591175	0.099459	0.908159
	C213	C	0.404654	0.101025	0.106669
	C214	C	0.591770	0.900060	0.106314
	C215	C	0.404798	0.899453	0.906655
	Zn216	Zn	0.498391	0.000008	0.756244
	Zn217	Zn	0.498430	0.000580	0.257488
	Zn218	Zn	0.749589	0.500421	0.006180
	Zn219	Zn	0.249207	0.500286	0.006582
	Zn220	Zn	-0.000336	0.752361	0.506579
	Zn221	Zn	-0.001402	0.250629	0.506288
	Zn222	Zn	-0.001061	0.501702	0.757690
	Zn223	Zn	-0.001251	0.501553	0.256083
	Zn224	Zn	0.498569	0.748510	0.006478
	Zn225	Zn	0.498643	0.251443	0.006100
	Zn226	Zn	0.749291	0.002028	0.506231
	Zn227	Zn	0.249902	0.001655	0.506855
	N228	N	0.414778	0.962250	0.683426
	N229	N	0.583874	0.038143	0.684835
	N230	N	0.583834	0.963141	0.328848
	N231	N	0.414341	0.038719	0.329520
	N232	N	0.679288	0.413411	0.969246
	N233	N	0.678110	0.586342	0.043041
	N234	N	0.319687	0.586170	0.969661
	N235	N	0.319241	0.413119	0.043193
	N236	N	0.962523	0.680835	0.420733
	N237	N	0.036900	0.680037	0.591695
	N238	N	0.961920	0.322181	0.592843
	N239	N	0.035752	0.322748	0.420852
	N240	N	0.961752	0.415752	0.685874
	N241	N	0.036539	0.587145	0.685297
	N242	N	0.962163	0.588031	0.327311
	N243	N	0.035688	0.416364	0.328224
	N244	N	0.414305	0.676775	0.968572
	N245	N	0.584074	0.677338	0.043796
	N246	N	0.583712	0.323113	0.968151
	N247	N	0.415271	0.324411	0.044188
	N248	N	0.678558	0.964243	0.419912
	N249	N	0.677659	0.038631	0.592630
	N250	N	0.320308	0.963986	0.592960
	N251	N	0.320489	0.038338	0.420556
	N252	N	0.914302	0.463721	0.183841
	N253	N	0.083264	0.538666	0.183266
	N254	N	0.084084	0.463491	0.829113
	N255	N	0.914913	0.539735	0.829844
	N256	N	0.178918	0.915549	0.469692
	N257	N	0.178505	0.087774	0.544017
	N258	N	0.819389	0.088903	0.469344
	N259	N	0.819648	0.914882	0.543307
	N260	N	0.460690	0.179218	0.921238
	N261	N	0.535569	0.180092	0.092607
	N262	N	0.460871	0.821380	0.091879
	N263	N	0.535930	0.821147	0.921026
	N264	N	0.461302	0.913958	0.186309
	N265	N	0.535376	0.085941	0.184780
	N266	N	0.460607	0.085051	0.829139
	N267	N	0.535536	0.913679	0.827565
	N268	N	0.915393	0.177571	0.468430
	N269	N	0.084479	0.179658	0.544033
	N270	N	0.084360	0.824797	0.469160
	N271	N	0.915125	0.824848	0.544439
	N272	N	0.177726	0.463369	0.920578
	N273	N	0.178624	0.537745	0.092942
	N274	N	0.820517	0.464027	0.092513
	N275	N	0.819849	0.538084	0.919988
	O276	O	0.500231	0.482486	0.506035
	H277	H	0.499099	0.481633	0.497195
	H278	H	0.505660	0.484830	0.496003
	O279	O	0.498890	0.540302	0.424676
	H280	H	0.499373	0.547581	0.421247
	H281	H	0.492277	0.550391	0.419037
	O282	O	0.496644	0.512855	0.584585
	H283	H	0.496016	0.512447	0.578859
	H284	H	0.488623	0.506362	0.599323
	O285	O	-0.003961	1.022394	0.980777
	H286	H	-0.006599	1.013773	0.989754
	H287	H	-0.005569	1.015417	0.972798
	O288	O	0.520461	0.557357	0.459433
	H289	H	0.521625	0.547277	0.454999
	H290	H	0.525105	0.560268	0.458062
	O291	O	-0.026617	0.019123	0.972316
	H292	H	-0.025848	0.013102	0.970235
	H293	H	-0.019245	0.012718	0.973360
	O294	O	0.515427	0.466068	0.531010
	H295	H	0.506997	0.466838	0.532062
	H296	H	0.511914	0.461643	0.532709
	O297	O	0.568854	0.466119	0.482921
	H298	H	0.578870	0.467783	0.479560
	H299	H	0.564478	0.471427	0.501908
	O300	O	0.486028	0.542458	0.499625
	H301	H	0.485386	0.547089	0.494351
	H302	H	0.481170	0.543440	0.484109
	O303	O	0.499844	0.481646	0.432776
	H304	H	0.499497	0.481590	0.445041
	H305	H	0.503927	0.481766	0.438800
	O306	O	0.947933	0.008898	0.952336
	H307	H	0.944669	0.015374	0.952412
	H308	H	0.942849	0.008384	0.948022
	O309	O	0.489890	0.461804	0.453235
	H310	H	0.488363	0.463220	0.451721
	H311	H	0.493378	0.458195	0.460503
	O312	O	-0.026447	-0.019591	0.019811
	H313	H	-0.021189	-0.014284	0.016504
	H314	H	-0.040141	-0.030330	0.019961
	O315	O	0.972084	0.055028	1.032174
	H316	H	0.974592	0.059297	1.037637
	H317	H	0.964673	0.058588	1.033340
	O318	O	-0.076130	0.105327	-0.045342
	H319	H	-0.065821	0.113909	-0.043810
	H320	H	-0.067921	0.107421	-0.042260
	O321	O	0.572267	0.520938	0.501082
	H322	H	0.581136	0.523544	0.494931
	H323	H	0.561043	0.514236	0.506911
	O324	O	0.890906	-0.004344	0.037343
	H325	H	0.886764	0.004278	0.035977
	H326	H	0.877189	-0.007956	0.035786
	O327	O	0.892494	1.055725	0.034162
	H328	H	0.892894	1.046487	0.031123
	H329	H	0.883682	1.058308	0.036486
	O330	O	0.983037	0.962985	-0.044144
	H331	H	0.982296	0.969262	-0.044579
	H332	H	0.986405	0.970545	-0.054255
	O333	O	0.506593	0.493645	0.446260
	H334	H	0.497691	0.500949	0.456934
	H335	H	0.511325	0.494369	0.443637
