data_Molecule from HDF5

_cell_length_a		16.701477
_cell_length_b		16.660612
_cell_length_c		16.592576
_cell_angle_alpha	90.150245
_cell_angle_beta	89.994839
_cell_angle_gamma	89.801218
_symmetry_space_group_name_H-M	'P 1'
_symmetry_Int_Tables_number		1

loop_
	_symmetry_equiv_pos_as_xyz
	x,y,z

loop_
	_atom_site_label
	_atom_site_type_symbol
	_atom_site_fract_x
	_atom_site_fract_y
	_atom_site_fract_z
	H0	H	0.391802	0.841212	0.712862
	H1	H	0.596298	0.153614	0.709198
	H2	H	0.603046	0.842369	0.269970
	H3	H	0.385448	0.147258	0.265901
	H4	H	0.720966	0.386474	0.838348
	H5	H	0.718697	0.603075	0.146342
	H6	H	0.277328	0.599808	0.836117
	H7	H	0.279298	0.394735	0.148998
	H8	H	0.843181	0.721035	0.384770
	H9	H	0.148561	0.722785	0.603236
	H10	H	0.842109	0.277986	0.595932
	H11	H	0.152305	0.276265	0.388353
	H12	H	0.842773	0.392578	0.714119
	H13	H	0.150680	0.604116	0.716224
	H14	H	0.844355	0.605937	0.266963
	H15	H	0.153206	0.393460	0.273033
	H16	H	0.395444	0.713049	0.834301
	H17	H	0.604115	0.720136	0.145287
	H18	H	0.601888	0.274287	0.836507
	H19	H	0.393896	0.276495	0.147879
	H20	H	0.719295	0.842135	0.386562
	H21	H	0.714653	0.153495	0.595798
	H22	H	0.272862	0.843391	0.600498
	H23	H	0.269648	0.146654	0.381729
	H24	H	0.894098	0.340867	0.212244
	H25	H	0.099487	0.652811	0.212031
	H26	H	0.100644	0.341141	0.773210
	H27	H	0.888142	0.649674	0.769524
	H28	H	0.223257	0.884293	0.340947
	H29	H	0.217284	0.101258	0.646818
	H30	H	0.775935	0.100908	0.336312
	H31	H	0.777466	0.894651	0.648964
	H32	H	0.340998	0.215165	0.889097
	H33	H	0.650536	0.218522	0.099663
	H34	H	0.343559	0.773709	0.097593
	H35	H	0.651545	0.773199	0.884609
	H36	H	0.345009	0.887852	0.215928
	H37	H	0.650627	0.102731	0.215186
	H38	H	0.340788	0.097347	0.773771
	H39	H	0.653587	0.892735	0.772366
	H40	H	0.891917	0.216098	0.335309
	H41	H	0.099707	0.215660	0.648106
	H42	H	0.107006	0.769619	0.340621
	H43	H	0.890487	0.775563	0.647543
	H44	H	0.217095	0.341052	0.888811
	H45	H	0.216596	0.652347	0.097151
	H46	H	0.775553	0.342361	0.098966
	H47	H	0.770618	0.648504	0.882983
	H48	H	0.411025	0.106288	0.581793
	H49	H	0.590421	0.883692	0.582731
	H50	H	0.586839	0.108254	0.403804
	H51	H	0.412285	0.887090	0.408092
	H52	H	0.590617	0.408128	0.104659
	H53	H	0.587845	0.589908	0.876866
	H54	H	0.404273	0.583901	0.105151
	H55	H	0.407222	0.400977	0.877918
	H56	H	0.105464	0.585869	0.411848
	H57	H	0.889244	0.582833	0.575444
	H58	H	0.110536	0.402273	0.583491
	H59	H	0.885145	0.406821	0.402077
	H60	H	0.108069	0.405642	0.579764
	H61	H	0.887464	0.580820	0.583765
	H62	H	0.104086	0.576503	0.404841
	H63	H	0.884763	0.406669	0.400434
	H64	H	0.411089	0.584863	0.102382
	H65	H	0.589570	0.574620	0.881890
	H66	H	0.582769	0.412620	0.100187
	H67	H	0.403189	0.407346	0.878490
	H68	H	0.584828	0.107000	0.402548
	H69	H	0.588971	0.883707	0.583101
	H70	H	0.407096	0.105773	0.577508
	H71	H	0.409510	0.885019	0.406540
	H72	H	0.896764	0.608087	0.074280
	H73	H	0.088695	0.385848	0.080141
	H74	H	0.089218	0.608751	0.904121
	H75	H	0.910807	0.388777	0.911882
	H76	H	0.088505	0.904226	0.607474
	H77	H	0.081592	0.085292	0.381112
	H78	H	0.896901	0.088429	0.607736
	H79	H	0.905710	0.912417	0.381426
	H80	H	0.608147	0.083607	0.899790
	H81	H	0.390468	0.078216	0.077158
	H82	H	0.607238	0.911418	0.080265
	H83	H	0.384717	0.905302	0.897161
	H84	H	0.608347	0.904906	0.079607
	H85	H	0.384650	0.084926	0.084498
	H86	H	0.610135	0.089016	0.898986
	H87	H	0.385242	0.901111	0.903052
	H88	H	0.908951	0.083132	0.601324
	H89	H	0.087145	0.086471	0.378271
	H90	H	0.086883	0.919449	0.600718
	H91	H	0.913884	0.909643	0.383044
	H92	H	0.087460	0.610020	0.901951
	H93	H	0.092943	0.382995	0.083645
	H94	H	0.911497	0.609252	0.090794
	H95	H	0.904636	0.382996	0.903191
	H96	H	0.404943	0.108038	0.582971
	H97	H	0.589461	0.884051	0.581624
	H98	H	0.585130	0.106817	0.405537
	H99	H	0.412036	0.886614	0.404361
	H100	H	0.582432	0.402770	0.103005
	H101	H	0.575660	0.582370	0.883501
	H102	H	0.407635	0.590823	0.105609
	H103	H	0.409971	0.407109	0.881505
	H104	H	0.108567	0.586386	0.400800
	H105	H	0.885925	0.588692	0.581408
	H106	H	0.109402	0.407740	0.584488
	H107	H	0.884388	0.405360	0.401519
	H108	H	0.917875	0.600542	0.071546
	H109	H	0.087287	0.383681	0.085409
	H110	H	0.086087	0.608504	0.904327
	H111	H	0.916080	0.387229	0.900902
	H112	H	0.074046	0.909027	0.600052
	H113	H	0.085402	0.080597	0.380428
	H114	H	0.909172	0.096843	0.606292
	H115	H	0.908021	0.903834	0.379303
	H116	H	0.608904	0.087065	0.904676
	H117	H	0.386708	0.088872	0.074339
	H118	H	0.605866	0.908659	0.074809
	H119	H	0.386937	0.908007	0.903382
	C120	C	0.375431	0.004578	0.613491
	C121	C	0.619101	0.987701	0.613677
	C122	C	0.618377	0.005092	0.371272
	C123	C	0.375847	0.986684	0.371277
	C124	C	0.618388	0.374239	0.000532
	C125	C	0.617763	0.616297	0.982876
	C126	C	0.376135	0.617706	0.000738
	C127	C	0.376289	0.375038	0.983410
	C128	C	0.004842	0.617372	0.371646
	C129	C	0.988698	0.617873	0.614276
	C130	C	0.006023	0.374940	0.613818
	C131	C	0.988201	0.375208	0.370442
	C132	C	0.876636	0.504373	0.112335
	C133	C	0.119496	0.487882	0.113970
	C134	C	0.118856	0.505681	0.871686
	C135	C	0.875710	0.487469	0.871071
	C136	C	0.117680	0.875271	0.501507
	C137	C	0.117100	0.116616	0.483029
	C138	C	0.874315	0.119487	0.500949
	C139	C	0.876594	0.876594	0.484183
	C140	C	0.505397	0.117038	0.870600
	C141	C	0.488673	0.116986	0.112911
	C142	C	0.505753	0.875178	0.111867
	C143	C	0.488552	0.873681	0.869091
	C144	C	0.373388	0.888050	0.673252
	C145	C	0.617084	0.106256	0.671119
	C146	C	0.621366	0.888484	0.310628
	C147	C	0.368978	0.101077	0.307394
	C148	C	0.679830	0.369700	0.884509
	C149	C	0.678469	0.620367	0.099496
	C150	C	0.317175	0.618334	0.882901
	C151	C	0.318531	0.375074	0.101847
	C152	C	0.889508	0.679912	0.367219
	C153	C	0.103054	0.680965	0.619710
	C154	C	0.889016	0.316792	0.615366
	C155	C	0.105700	0.316185	0.369513
	C156	C	0.889287	0.373917	0.673795
	C157	C	0.104079	0.622215	0.676205
	C158	C	0.889977	0.622762	0.308623
	C159	C	0.106151	0.374541	0.312450
	C160	C	0.375639	0.674883	0.882141
	C161	C	0.621477	0.678613	0.099052
	C162	C	0.620945	0.313667	0.883563
	C163	C	0.375291	0.316395	0.101176
	C164	C	0.678974	0.888599	0.368496
	C165	C	0.675710	0.106154	0.614561
	C166	C	0.314125	0.889121	0.617414
	C167	C	0.311205	0.100869	0.364721
	C168	C	0.875075	0.387660	0.172569
	C169	C	0.118846	0.605774	0.172539
	C170	C	0.119678	0.388072	0.812675
	C171	C	0.870978	0.603382	0.809906
	C172	C	0.181617	0.867884	0.386778
	C173	C	0.176955	0.119225	0.600273
	C174	C	0.815587	0.119689	0.383224
	C175	C	0.817167	0.875595	0.601856
	C176	C	0.387793	0.175229	0.870360
	C177	C	0.604307	0.178014	0.117206
	C178	C	0.389914	0.814057	0.115375
	C179	C	0.605467	0.814151	0.867094
	C180	C	0.390559	0.870913	0.174181
	C181	C	0.604167	0.120410	0.174795
	C182	C	0.387593	0.116938	0.812967
	C183	C	0.606111	0.873177	0.810898
	C184	C	0.873118	0.177140	0.382750
	C185	C	0.118776	0.176374	0.600667
	C186	C	0.123616	0.811208	0.386668
	C187	C	0.873542	0.816613	0.601342
	C188	C	0.177373	0.387903	0.870296
	C189	C	0.177270	0.605385	0.115624
	C190	C	0.816217	0.388289	0.116161
	C191	C	0.812522	0.602528	0.866301
	C192	C	0.400579	0.085713	0.587849
	C193	C	0.596389	0.905394	0.589408
	C194	C	0.592758	0.086234	0.396707
	C195	C	0.403554	0.906906	0.398665
	C196	C	0.592599	0.400483	0.081691
	C197	C	0.591810	0.589793	0.901981
	C198	C	0.400655	0.593546	0.083107
	C199	C	0.399894	0.398575	0.900814
	C200	C	0.085070	0.590507	0.398307
	C201	C	0.908311	0.591346	0.587800
	C202	C	0.087848	0.398591	0.589505
	C203	C	0.906319	0.399470	0.394511
	C204	C	0.901540	0.585010	0.086411
	C205	C	0.096273	0.405497	0.089863
	C206	C	0.094462	0.587615	0.896355
	C207	C	0.902914	0.407216	0.897708
	C208	C	0.090627	0.903191	0.581822
	C209	C	0.091989	0.091297	0.401357
	C210	C	0.898377	0.096282	0.583576
	C211	C	0.901916	0.901396	0.402438
	C212	C	0.587690	0.093327	0.894387
	C213	C	0.408203	0.091256	0.086384
	C214	C	0.586347	0.901117	0.085689
	C215	C	0.406832	0.897878	0.893955
	Zn216	Zn	0.497185	-0.004227	0.741248
	Zn217	Zn	0.496952	-0.004037	0.242168
	Zn218	Zn	0.746622	0.495134	-0.008382
	Zn219	Zn	0.248408	0.496787	-0.007441
	Zn220	Zn	-0.003129	0.746633	0.493217
	Zn221	Zn	-0.003074	0.246175	0.491386
	Zn222	Zn	-0.002580	0.496877	0.742921
	Zn223	Zn	-0.003144	0.496502	0.241710
	Zn224	Zn	0.497247	0.745734	-0.009393
	Zn225	Zn	0.497524	0.246282	-0.008200
	Zn226	Zn	0.747327	-0.002500	0.492376
	Zn227	Zn	0.246408	-0.004384	0.492166
	N228	N	0.410794	0.961116	0.671004
	N229	N	0.582839	0.031426	0.670958
	N230	N	0.584427	0.962098	0.311913
	N231	N	0.408788	0.029131	0.311398
	N232	N	0.678275	0.406830	0.958351
	N233	N	0.676389	0.582259	0.026178
	N234	N	0.316987	0.583849	0.957973
	N235	N	0.318852	0.410731	0.027395
	N236	N	0.962031	0.676829	0.405894
	N237	N	0.030092	0.678481	0.582000
	N238	N	0.962701	0.316931	0.578823
	N239	N	0.031256	0.316218	0.404736
	N240	N	0.963242	0.409342	0.673109
	N241	N	0.031825	0.583536	0.673048
	N242	N	0.962806	0.584686	0.311152
	N243	N	0.031916	0.410178	0.312525
	N244	N	0.411447	0.674703	0.956594
	N245	N	0.584341	0.676355	0.025398
	N246	N	0.583549	0.316187	0.956918
	N247	N	0.410333	0.316104	0.026389
	N248	N	0.677290	0.962212	0.405497
	N249	N	0.677478	0.031353	0.579731
	N250	N	0.315289	0.962673	0.580640
	N251	N	0.315172	0.028552	0.403916
	N252	N	0.911967	0.460780	0.170412
	N253	N	0.083791	0.531403	0.171856
	N254	N	0.084122	0.462396	0.813167
	N255	N	0.909872	0.530862	0.812787
	N256	N	0.178010	0.907247	0.459433
	N257	N	0.176381	0.082930	0.525958
	N258	N	0.816106	0.084562	0.457883
	N259	N	0.818795	0.912173	0.527969
	N260	N	0.462411	0.175813	0.905145
	N261	N	0.531335	0.176119	0.079353
	N262	N	0.462658	0.816603	0.077237
	N263	N	0.531246	0.814145	0.902484
	N264	N	0.463560	0.908422	0.172178
	N265	N	0.531232	0.082885	0.172328
	N266	N	0.461981	0.081722	0.812749
	N267	N	0.532235	0.909491	0.811948
	N268	N	0.908883	0.177347	0.457131
	N269	N	0.082150	0.174903	0.526636
	N270	N	0.084507	0.815413	0.459154
	N271	N	0.909663	0.816974	0.527004
	N272	N	0.177411	0.462304	0.906045
	N273	N	0.178118	0.530842	0.080162
	N274	N	0.816719	0.461904	0.079457
	N275	N	0.815268	0.529298	0.903710
	O276	O	0.020453	1.016909	-0.144234
	H277	H	0.010648	1.018791	-0.133922
	H278	H	0.015244	1.015554	-0.147059
	O279	O	0.307505	0.300973	0.302679
	H280	H	0.311910	0.313089	0.325468
	H281	H	0.334340	0.315069	0.312576
	O282	O	0.910662	0.147890	1.003428
	H283	H	0.897548	0.158190	1.010860
	H284	H	0.914130	0.138057	0.998525
	O285	O	0.466069	0.603751	0.571549
	H286	H	0.452267	0.619744	0.571586
	H287	H	0.470430	0.611890	0.591373
	O288	O	0.628149	0.530468	0.565555
	H289	H	0.620006	0.534571	0.581446
	H290	H	0.633331	0.545638	0.562499
	O291	O	0.431518	0.312200	0.672495
	H292	H	0.416217	0.305384	0.678577
	H293	H	0.433715	0.309973	0.688878
	O294	O	0.961815	0.216475	0.773204
	H295	H	0.942856	0.212569	0.786342
	H296	H	0.958136	0.243262	0.748877
	O297	O	0.640182	0.700897	0.351243
	H298	H	0.631324	0.687044	0.357919
	H299	H	0.629084	0.696870	0.366838
	O300	O	0.187927	0.186383	0.801024
	H301	H	0.170553	0.153416	0.805065
	H302	H	0.167606	0.183484	0.834546
	O303	O	0.719699	0.719574	0.523710
	H304	H	0.730873	0.717652	0.517888
	H305	H	0.733948	0.730040	0.529587
	O306	O	0.647905	0.271119	0.449851
	H307	H	0.650779	0.267080	0.450101
	H308	H	0.662086	0.279939	0.449255
	O309	O	0.283664	0.706802	0.702113
	H310	H	0.270774	0.716774	0.718240
	H311	H	0.283756	0.701017	0.692337
	O312	O	0.513786	0.693028	0.711958
	H313	H	0.511557	0.723063	0.742409
	H314	H	0.537860	0.692619	0.696367
	O315	O	1.072382	1.214414	0.933204
	H316	H	1.074804	1.212928	0.959199
	H317	H	1.052247	1.225018	0.933476
	O318	O	0.489998	0.422871	0.386030
	H319	H	0.489505	0.430821	0.397396
	H320	H	0.495352	0.413468	0.383693
	O321	O	0.212574	1.011059	0.843608
	H322	H	0.205635	1.007597	0.852299
	H323	H	0.222093	1.001740	0.843439
	O324	O	1.054169	0.934665	0.221381
	H325	H	1.037117	0.926297	0.217787
	H326	H	1.039804	0.941696	0.223093
	O327	O	-0.105049	-0.012948	0.993305
	H328	H	-0.116607	-0.020780	0.987621
	H329	H	-0.087520	-0.003029	0.988749
	O330	O	0.415745	0.508746	0.404721
	H331	H	0.411813	0.512864	0.401283
	H332	H	0.419601	0.510808	0.411069
	O333	O	0.525179	0.357246	0.699925
	H334	H	0.515395	0.378809	0.698481
	H335	H	0.501453	0.342824	0.717051
	O336	O	0.719600	0.489472	0.283864
	H337	H	0.708524	0.469630	0.278034
	H338	H	0.730160	0.475020	0.263185
	O339	O	0.937513	-0.061117	1.066885
	H340	H	0.918795	-0.049616	1.064326
	H341	H	0.931235	-0.054104	1.058047
	O342	O	0.223885	0.003690	-0.011455
	H343	H	0.226278	0.000160	0.009862
	H344	H	0.218438	0.014744	-0.002496
	O345	O	0.028226	1.022919	1.016915
	H346	H	0.021020	1.021340	1.016325
	H347	H	0.024955	1.027382	1.015470
	O348	O	0.202337	0.209975	0.200682
	H349	H	0.203687	0.181518	0.186303
	H350	H	0.233561	0.235446	0.223607
	O351	O	0.745895	0.749579	0.241548
	H352	H	0.725432	0.778249	0.247556
	H353	H	0.725513	0.714762	0.268044
	O354	O	0.079249	-0.221074	1.049569
	H355	H	0.063528	-0.196181	1.050782
	H356	H	0.052107	-0.236290	1.044523
	O357	O	0.692057	0.306743	0.683570
	H358	H	0.658255	0.327062	0.681300
	H359	H	0.691393	0.328417	0.651772
	O360	O	0.280816	0.275431	0.523316
	H361	H	0.283926	0.301848	0.526520
	H362	H	0.259022	0.256841	0.518835
	O363	O	-0.215425	0.200434	0.198636
	H364	H	-0.225733	0.189409	0.177043
	H365	H	-0.221586	0.210665	0.209895
	O366	O	0.269084	0.461031	0.715658
	H367	H	0.254702	0.442977	0.728216
	H368	H	0.260443	0.438592	0.728421
	O369	O	0.695899	0.303216	0.307194
	H370	H	0.703933	0.294647	0.331511
	H371	H	0.676727	0.319683	0.314027
	O372	O	0.993087	0.772997	-0.199554
	H373	H	1.007295	0.749266	-0.215718
	H374	H	1.014784	0.783827	-0.202703
	O375	O	0.779721	-0.213667	0.016104
	H376	H	0.766429	-0.226677	0.037629
	H377	H	0.774767	-0.214073	0.033896
	O378	O	0.393084	0.468063	0.515462
	H379	H	0.399525	0.471366	0.527787
	H380	H	0.395609	0.465407	0.502845
	O381	O	0.121577	0.949661	0.780929
	H382	H	0.135395	0.959344	0.773681
	H383	H	0.102652	0.954222	0.787697
	O384	O	0.776983	0.034407	0.771452
	H385	H	0.759797	0.029291	0.751598
	H386	H	0.788684	0.050300	0.764374
	O387	O	1.189722	0.806610	0.185928
	H388	H	1.167179	0.839083	0.191368
	H389	H	1.176708	0.809756	0.154079
	O390	O	0.517920	0.338053	0.393407
	H391	H	0.512120	0.325872	0.401437
	H392	H	0.499649	0.351622	0.388811
	O393	O	0.507033	0.498837	0.689159
	H394	H	0.476186	0.503232	0.692360
	H395	H	0.493979	0.498571	0.684556
	O396	O	0.285648	1.285404	0.700850
	H397	H	0.252915	1.251161	0.730510
	H398	H	0.293424	1.283109	0.666969
	O399	O	0.022425	-0.029021	0.864781
	H400	H	0.025032	-0.014107	0.864438
	H401	H	0.030128	-0.035110	0.867647
	O402	O	0.499474	0.481808	0.320318
	H403	H	0.491776	0.480839	0.304837
	H404	H	0.494148	0.484516	0.330893
	O405	O	0.934660	0.007173	0.821761
	H406	H	0.935238	0.011072	0.826216
	H407	H	0.935343	0.011991	0.823548
	O408	O	0.220288	0.214048	0.025691
	H409	H	0.224069	0.216299	0.040409
	H410	H	0.230412	0.229216	0.018960
	O411	O	0.701338	0.703002	0.694308
	H412	H	0.718515	0.728872	0.720952
	H413	H	0.709316	0.691636	0.664675
	O414	O	0.789840	0.202576	0.783356
	H415	H	0.802118	0.182266	0.789507
	H416	H	0.757903	0.234527	0.751881
	O417	O	0.459747	0.625092	0.270857
	H418	H	0.449622	0.627978	0.279211
	H419	H	0.451029	0.632349	0.258581
	O420	O	0.317095	0.426121	0.387900
	H421	H	0.317728	0.442693	0.394755
	H422	H	0.317581	0.434877	0.385628
	O423	O	0.218148	-0.195816	0.971086
	H424	H	0.235358	-0.226453	0.973715
	H425	H	0.192046	-0.186973	1.001139
	O426	O	0.284167	0.713292	0.467638
	H427	H	0.274251	0.730747	0.471217
	H428	H	0.280163	0.692800	0.470810
	O429	O	0.834281	0.952857	0.953700
	H430	H	0.842383	0.948233	0.953764
	H431	H	0.826663	0.936799	0.957473
	O432	O	0.482001	0.726991	0.534920
	H433	H	0.493596	0.733978	0.543724
	H434	H	0.470221	0.716583	0.545394
	O435	O	0.289676	0.704584	0.280484
	H436	H	0.259723	0.732029	0.254148
	H437	H	0.299329	0.706046	0.315805
	O438	O	-0.027887	-0.218297	0.211376
	H439	H	-0.038238	-0.231211	0.223330
	H440	H	-0.044961	-0.223420	0.212337
	O441	O	0.028014	0.220967	0.214502
	H442	H	0.030052	0.245500	0.240433
	H443	H	0.066414	0.219373	0.213131
	O444	O	0.511000	0.331471	0.480944
	H445	H	0.518603	0.330756	0.483580
	H446	H	0.515561	0.332610	0.500726
	O447	O	-0.058806	1.128079	1.152693
	H448	H	-0.062794	1.139095	1.164907
	H449	H	-0.058460	1.129998	1.151269
	O450	O	-0.184530	0.808619	0.806251
	H451	H	-0.177577	0.826714	0.829084
	H452	H	-0.159385	0.816569	0.816550
	O453	O	0.446994	0.646918	0.594343
	H454	H	0.451854	0.634298	0.601754
	H455	H	0.465617	0.650683	0.589372
	O456	O	0.209715	-0.210987	0.821948
	H457	H	0.209413	-0.176039	0.833682
	H458	H	0.215724	-0.216511	0.851998
	O459	O	0.873531	0.803408	0.117764
	H460	H	0.847922	0.798851	0.132283
	H461	H	0.882709	0.814569	0.119425
	O462	O	0.723862	0.559479	0.460815
	H463	H	0.719454	0.555893	0.435848
	H464	H	0.710590	0.564731	0.460658
	O465	O	0.784175	-0.036300	0.204153
	H466	H	0.777404	-0.029094	0.190462
	H467	H	0.772812	-0.033565	0.218204
	O468	O	0.271210	0.533849	0.270174
	H469	H	0.266295	0.566302	0.261644
	H470	H	0.257447	0.538353	0.249630
	O471	O	0.307836	0.544599	0.590817
	H472	H	0.296765	0.542986	0.602670
	H473	H	0.316624	0.542302	0.597332
	O474	O	0.473572	0.489155	0.317072
	H475	H	0.462372	0.481698	0.316675
	H476	H	0.469401	0.498639	0.320221
	O477	O	0.549342	0.626887	1.346174
	H478	H	0.528650	0.629610	1.338769
	H479	H	0.553327	0.620703	1.347642
	O480	O	0.523884	0.274297	0.460884
	H481	H	0.527086	0.267515	0.466012
	H482	H	0.519172	0.275957	0.476148
	O483	O	0.717077	0.519582	0.713176
	H484	H	0.728032	0.535127	0.724918
	H485	H	0.713125	0.522326	0.725127
	O486	O	0.932289	-0.042952	0.968468
	H487	H	0.924156	-0.041626	0.964680
	H488	H	0.936691	-0.037740	0.981022
	O489	O	0.779523	1.045990	0.049469
	H490	H	0.783182	1.052366	0.035842
	H491	H	0.778216	1.040944	0.049409
	O492	O	0.223559	-0.025105	0.144846
	H493	H	0.221011	-0.003703	0.148154
	H494	H	0.233653	-0.020876	0.150962
	O495	O	0.129381	1.054145	1.147671
	H496	H	0.125784	1.052900	1.141777
	H497	H	0.115475	1.034458	1.152598
	O498	O	0.779661	1.216707	0.965831
	H499	H	0.773002	1.229347	0.950061
	H500	H	0.767101	1.219940	0.952705
	O501	O	0.719963	0.384406	0.523309
	H502	H	0.718049	0.388137	0.519190
	H503	H	0.725601	0.414352	0.536060
