data_Molecule from HDF5

_cell_length_a		16.200343
_cell_length_b		16.280161
_cell_length_c		16.379338
_cell_angle_alpha	90.159586
_cell_angle_beta	89.867814
_cell_angle_gamma	90.147873
_symmetry_space_group_name_H-M	'P 1'
_symmetry_Int_Tables_number		1

loop_
	_symmetry_equiv_pos_as_xyz
	x,y,z

loop_
	_atom_site_label
	_atom_site_type_symbol
	_atom_site_fract_x
	_atom_site_fract_y
	_atom_site_fract_z
	H0	H	0.395161	0.842810	0.717460
	H1	H	0.597630	0.168092	0.716700
	H2	H	0.597235	0.841821	0.284034
	H3	H	0.396625	0.168443	0.286299
	H4	H	0.712292	0.408664	0.836724
	H5	H	0.714072	0.605085	0.163657
	H6	H	0.285085	0.603548	0.837539
	H7	H	0.284716	0.409515	0.163842
	H8	H	0.833522	0.716985	0.402411
	H9	H	0.161930	0.720095	0.597724
	H10	H	0.833832	0.293022	0.597914
	H11	H	0.162020	0.291110	0.401049
	H12	H	0.835940	0.404088	0.716544
	H13	H	0.162554	0.606542	0.714336
	H14	H	0.834695	0.603102	0.285067
	H15	H	0.163092	0.405413	0.285459
	H16	H	0.401825	0.718872	0.837607
	H17	H	0.597721	0.722357	0.163572
	H18	H	0.599875	0.289118	0.838422
	H19	H	0.400722	0.292302	0.163561
	H20	H	0.710401	0.840541	0.403563
	H21	H	0.711138	0.169152	0.598688
	H22	H	0.283473	0.840825	0.598130
	H23	H	0.285422	0.169506	0.405952
	H24	H	0.897298	0.341118	0.215928
	H25	H	0.099820	0.667481	0.216276
	H26	H	0.098578	0.342141	0.784231
	H27	H	0.901888	0.668926	0.786103
	H28	H	0.212345	0.907434	0.338697
	H29	H	0.210914	0.103409	0.664553
	H30	H	0.782352	0.103017	0.338215
	H31	H	0.782334	0.907800	0.664645
	H32	H	0.333734	0.219128	0.903311
	H33	H	0.663283	0.218817	0.097624
	H34	H	0.333190	0.793127	0.096770
	H35	H	0.662290	0.792567	0.900912
	H36	H	0.332707	0.906916	0.214161
	H37	H	0.661458	0.106223	0.216730
	H38	H	0.333226	0.104230	0.787566
	H39	H	0.661355	0.906564	0.784340
	H40	H	0.898741	0.219973	0.338212
	H41	H	0.096932	0.222290	0.663253
	H42	H	0.097418	0.789811	0.338444
	H43	H	0.895558	0.788020	0.663379
	H44	H	0.212204	0.341023	0.902276
	H45	H	0.210472	0.669676	0.096289
	H46	H	0.784090	0.340289	0.096835
	H47	H	0.786802	0.669498	0.903011
	H48	H	0.403406	0.120753	0.590476
	H49	H	0.588960	0.887438	0.597231
	H50	H	0.586468	0.119936	0.409927
	H51	H	0.396110	0.883392	0.398309
	H52	H	0.594565	0.413519	0.116088
	H53	H	0.604463	0.598947	0.881768
	H54	H	0.403162	0.598044	0.116839
	H55	H	0.410037	0.411275	0.885843
	H56	H	0.119147	0.602374	0.400159
	H57	H	0.882345	0.598534	0.585520
	H58	H	0.116885	0.413647	0.595067
	H59	H	0.882933	0.415231	0.408867
	H60	H	0.116864	0.410727	0.590886
	H61	H	0.883009	0.588337	0.596452
	H62	H	0.114024	0.602435	0.414775
	H63	H	0.880544	0.412273	0.403414
	H64	H	0.407476	0.600222	0.115708
	H65	H	0.587624	0.591154	0.888767
	H66	H	0.589367	0.417075	0.114088
	H67	H	0.403284	0.408916	0.883316
	H68	H	0.593202	0.121465	0.409736
	H69	H	0.584533	0.890205	0.592862
	H70	H	0.401490	0.123096	0.598672
	H71	H	0.415902	0.891493	0.403153
	H72	H	0.901591	0.624838	0.101645
	H73	H	0.092526	0.388109	0.090973
	H74	H	0.088884	0.623298	0.901103
	H75	H	0.903101	0.388952	0.909480
	H76	H	0.084666	0.919218	0.613749
	H77	H	0.095266	0.105055	0.382118
	H78	H	0.898134	0.106852	0.620288
	H79	H	0.898673	0.918958	0.386698
	H80	H	0.613468	0.092986	0.907267
	H81	H	0.381403	0.099208	0.093443
	H82	H	0.612885	0.916918	0.088960
	H83	H	0.377844	0.908361	0.902836
	H84	H	0.613472	0.918380	0.095781
	H85	H	0.380546	0.098109	0.095407
	H86	H	0.615920	0.099528	0.905183
	H87	H	0.381892	0.909443	0.913857
	H88	H	0.900240	0.090186	0.614912
	H89	H	0.096070	0.090704	0.386882
	H90	H	0.085345	0.903427	0.618167
	H91	H	0.914245	0.911455	0.388245
	H92	H	0.088660	0.618661	0.910296
	H93	H	0.093107	0.387485	0.094757
	H94	H	0.917954	0.617963	0.096619
	H95	H	0.905126	0.387212	0.902869
	H96	H	0.409847	0.121476	0.596565
	H97	H	0.590849	0.889268	0.591228
	H98	H	0.589263	0.122032	0.403996
	H99	H	0.400531	0.890400	0.418153
	H100	H	0.588887	0.410602	0.116083
	H101	H	0.588244	0.610203	0.883675
	H102	H	0.403744	0.602758	0.118601
	H103	H	0.404814	0.415655	0.885915
	H104	H	0.113312	0.589763	0.406193
	H105	H	0.878119	0.602198	0.599307
	H106	H	0.115087	0.415380	0.590414
	H107	H	0.881099	0.409612	0.408732
	H108	H	0.904073	0.618791	0.084426
	H109	H	0.089256	0.388537	0.093684
	H110	H	0.097776	0.623428	0.906670
	H111	H	0.910770	0.390003	0.907563
	H112	H	0.098340	0.912669	0.619457
	H113	H	0.082754	0.098690	0.388183
	H114	H	0.913734	0.101645	0.614906
	H115	H	0.900646	0.902501	0.382446
	H116	H	0.613515	0.098257	0.912082
	H117	H	0.380378	0.100711	0.095007
	H118	H	0.615975	0.912237	0.093559
	H119	H	0.382051	0.918908	0.907203
	C120	C	0.375835	0.013631	0.622964
	C121	C	0.617900	0.996844	0.622409
	C122	C	0.618648	0.013000	0.379085
	C123	C	0.375666	0.996579	0.379383
	C124	C	0.620155	0.384464	0.008332
	C125	C	0.621560	0.628599	0.992340
	C126	C	0.376951	0.627641	0.009161
	C127	C	0.377366	0.383976	0.992383
	C128	C	0.006990	0.626252	0.378511
	C129	C	0.989836	0.626025	0.621590
	C130	C	0.007591	0.384212	0.621246
	C131	C	0.990051	0.383574	0.378377
	C132	C	0.877353	0.512528	0.122346
	C133	C	0.119925	0.496454	0.121363
	C134	C	0.120721	0.513737	0.877665
	C135	C	0.878116	0.497059	0.878520
	C136	C	0.118790	0.883278	0.509638
	C137	C	0.119834	0.127728	0.492921
	C138	C	0.875842	0.127355	0.509105
	C139	C	0.874893	0.882295	0.493182
	C140	C	0.505889	0.126083	0.879966
	C141	C	0.489538	0.128127	0.123045
	C142	C	0.505852	0.885717	0.121324
	C143	C	0.489091	0.884226	0.878957
	C144	C	0.376062	0.891019	0.678613
	C145	C	0.617471	0.119644	0.678386
	C146	C	0.617158	0.890467	0.322621
	C147	C	0.377538	0.119776	0.324769
	C148	C	0.674861	0.387481	0.885619
	C149	C	0.676322	0.625838	0.115008
	C150	C	0.322879	0.624205	0.886277
	C151	C	0.322294	0.387800	0.115233
	C152	C	0.882904	0.680112	0.381484
	C153	C	0.113291	0.682022	0.618539
	C154	C	0.883443	0.329931	0.618792
	C155	C	0.113142	0.328466	0.380602
	C156	C	0.884471	0.385176	0.677635
	C157	C	0.113577	0.625363	0.676354
	C158	C	0.883469	0.623421	0.323164
	C159	C	0.113519	0.385177	0.323050
	C160	C	0.380855	0.681706	0.886397
	C161	C	0.618423	0.684133	0.115039
	C162	C	0.619172	0.327699	0.886670
	C163	C	0.379774	0.329652	0.114921
	C164	C	0.673384	0.889823	0.381909
	C165	C	0.673573	0.120175	0.619552
	C166	C	0.321022	0.890011	0.619049
	C167	C	0.321820	0.120263	0.384094
	C168	C	0.878022	0.389724	0.177340
	C169	C	0.118752	0.619187	0.177410
	C170	C	0.118748	0.390861	0.822294
	C171	C	0.880722	0.620065	0.823571
	C172	C	0.174318	0.886347	0.387102
	C173	C	0.174023	0.125077	0.615695
	C174	C	0.820414	0.123888	0.386886
	C175	C	0.819703	0.885996	0.615721
	C176	C	0.382621	0.181366	0.882875
	C177	C	0.613602	0.182205	0.119429
	C178	C	0.382139	0.830513	0.117956
	C179	C	0.612919	0.829578	0.880376
	C180	C	0.381873	0.887065	0.176092
	C181	C	0.612606	0.126253	0.178537
	C182	C	0.382423	0.124670	0.825102
	C183	C	0.612300	0.886227	0.822393
	C184	C	0.878480	0.181788	0.386626
	C185	C	0.117122	0.183916	0.614908
	C186	C	0.117124	0.827997	0.387053
	C187	C	0.876173	0.826636	0.614980
	C188	C	0.175263	0.390280	0.881075
	C189	C	0.173749	0.620427	0.117685
	C190	C	0.821379	0.389460	0.118467
	C191	C	0.823907	0.620390	0.882057
	C192	C	0.398342	0.099414	0.601532
	C193	C	0.594926	0.911148	0.600153
	C194	C	0.596185	0.098854	0.401391
	C195	C	0.397699	0.910642	0.400248
	C196	C	0.597428	0.407050	0.093502
	C197	C	0.599897	0.606708	0.906890
	C198	C	0.398395	0.606697	0.094918
	C199	C	0.399369	0.405638	0.907120
	C200	C	0.093225	0.604515	0.400492
	C201	C	0.903604	0.602873	0.599982
	C202	C	0.093855	0.406602	0.598684
	C203	C	0.903612	0.405955	0.400693
	C204	C	0.900879	0.598282	0.100592
	C205	C	0.098176	0.410419	0.099546
	C206	C	0.098475	0.599587	0.899690
	C207	C	0.899968	0.411070	0.900193
	C208	C	0.096080	0.905325	0.595049
	C209	C	0.097931	0.104956	0.407745
	C210	C	0.897777	0.105909	0.594696
	C211	C	0.897740	0.904446	0.407810
	C212	C	0.592028	0.103321	0.901677
	C213	C	0.403056	0.105889	0.101118
	C214	C	0.591937	0.909058	0.099376
	C215	C	0.402801	0.905881	0.901457
	Zn216	Zn	0.496849	0.005423	0.751142
	Zn217	Zn	0.496907	0.005606	0.250526
	Zn218	Zn	0.749397	0.505269	0.000168
	Zn219	Zn	0.248207	0.505516	0.000409
	Zn220	Zn	-0.002483	0.753837	0.500826
	Zn221	Zn	-0.001804	0.256935	0.500309
	Zn222	Zn	-0.000931	0.505314	0.749374
	Zn223	Zn	-0.000812	0.504414	0.250607
	Zn224	Zn	0.498459	0.756980	0.000866
	Zn225	Zn	0.498637	0.254815	0.000294
	Zn226	Zn	0.746668	0.004856	0.501528
	Zn227	Zn	0.247759	0.004885	0.502070
	N228	N	0.409671	0.968665	0.681065
	N229	N	0.583486	0.042059	0.680327
	N230	N	0.583931	0.968120	0.320642
	N231	N	0.410219	0.041923	0.321471
	N232	N	0.675396	0.422176	0.962092
	N233	N	0.678565	0.592415	0.037768
	N234	N	0.320276	0.591422	0.963499
	N235	N	0.320713	0.421007	0.038141
	N236	N	0.960580	0.682071	0.415151
	N237	N	0.035528	0.682473	0.585126
	N238	N	0.960974	0.329339	0.584378
	N239	N	0.035144	0.326958	0.413776
	N240	N	0.962733	0.418387	0.679331
	N241	N	0.035649	0.591463	0.678505
	N242	N	0.961621	0.590653	0.321309
	N243	N	0.035923	0.419066	0.321771
	N244	N	0.414090	0.683705	0.963722
	N245	N	0.585261	0.686157	0.037835
	N246	N	0.585437	0.326126	0.964015
	N247	N	0.413429	0.327253	0.037758
	N248	N	0.674654	0.967166	0.416023
	N249	N	0.673905	0.042851	0.585559
	N250	N	0.320524	0.967391	0.585366
	N251	N	0.320619	0.042838	0.417395
	N252	N	0.912121	0.467241	0.179931
	N253	N	0.085559	0.541312	0.179629
	N254	N	0.085895	0.468589	0.819866
	N255	N	0.913796	0.542423	0.821313
	N256	N	0.175353	0.920165	0.464100
	N257	N	0.175841	0.090728	0.538957
	N258	N	0.818719	0.090691	0.464003
	N259	N	0.818883	0.919858	0.538874
	N260	N	0.460390	0.182398	0.916192
	N261	N	0.535969	0.183427	0.085749
	N262	N	0.460073	0.829803	0.084490
	N263	N	0.535306	0.828039	0.914661
	N264	N	0.459912	0.920902	0.178145
	N265	N	0.534275	0.093373	0.180996
	N266	N	0.460266	0.091116	0.822995
	N267	N	0.534345	0.919644	0.821462
	N268	N	0.912093	0.184213	0.463708
	N269	N	0.084134	0.185495	0.537550
	N270	N	0.083060	0.826329	0.464196
	N271	N	0.909721	0.824137	0.537688
	N272	N	0.176684	0.467780	0.914676
	N273	N	0.174563	0.543206	0.083559
	N274	N	0.820970	0.466985	0.085084
	N275	N	0.821925	0.542812	0.915313
	O276	O	0.512971	0.448094	0.476943
	H277	H	0.522605	0.453534	0.477763
	H278	H	0.521180	0.440326	0.461909
	O279	O	0.482284	0.495512	0.553284
	H280	H	0.483521	0.495086	0.561853
	H281	H	0.473133	0.488769	0.550494
	O282	O	0.500397	0.470672	0.508666
	H283	H	0.502720	0.469878	0.509204
	H284	H	0.492272	0.468486	0.502222
	O285	O	-0.061883	0.984502	1.026427
	H286	H	-0.053266	0.990808	1.033902
	H287	H	-0.060626	0.977969	1.034404
	O288	O	0.517529	0.480211	0.502204
	H289	H	0.514915	0.469774	0.498264
	H290	H	0.519407	0.468579	0.501730
	O291	O	-0.009443	-0.009639	1.111471
	H292	H	-0.005782	0.002238	1.112044
	H293	H	-0.024246	-0.005796	1.115767
	O294	O	0.497150	0.458230	0.524059
	H295	H	0.485176	0.463323	0.518762
	H296	H	0.503946	0.454042	0.518605
	O297	O	0.604770	0.442315	0.499801
	H298	H	0.613031	0.439097	0.501739
	H299	H	0.592920	0.449005	0.503662
	O300	O	0.461692	0.520653	0.496041
	H301	H	0.466329	0.526691	0.496290
	H302	H	0.465455	0.521129	0.493833
	O303	O	0.513413	0.467261	0.524250
	H304	H	0.513572	0.479786	0.523715
	H305	H	0.510106	0.467802	0.521506
	O306	O	0.945201	-0.017029	1.064189
	H307	H	0.948742	-0.021746	1.050439
	H308	H	0.947645	-0.025996	1.062067
	O309	O	0.596996	0.522663	0.487627
	H310	H	0.598024	0.524773	0.491299
	H311	H	0.600415	0.525483	0.500468
	O312	O	-0.082643	-0.061400	0.071424
	H313	H	-0.086985	-0.064759	0.072805
	H314	H	-0.087698	-0.066421	0.075791
	O315	O	0.912954	0.016428	1.025969
	H316	H	0.908224	0.013027	1.035144
	H317	H	0.917215	0.011743	1.021582
	O318	O	-0.028709	0.022192	0.046028
	H319	H	-0.032462	0.022144	0.036934
	H320	H	-0.029061	0.024830	0.039262
	O321	O	0.536931	0.394297	0.473634
	H322	H	0.541727	0.398715	0.475376
	H323	H	0.539755	0.396483	0.474904
	O324	O	0.979330	-0.060268	0.063342
	H325	H	0.994229	-0.060768	0.071186
	H326	H	0.965039	-0.050955	0.076700
	O327	O	0.957551	0.959394	0.084844
	H328	H	0.956059	0.956472	0.089242
	H329	H	0.961802	0.966686	0.092271
	O330	O	0.955873	1.014093	0.074105
	H331	H	0.950643	1.008461	0.074216
	H332	H	0.962060	1.014260	0.066979
	O333	O	0.558586	0.508092	0.549154
	H334	H	0.560095	0.494314	0.559027
	H335	H	0.562009	0.506580	0.546712
