data_Molecule from HDF5

_cell_length_a		16.377186
_cell_length_b		16.204180
_cell_length_c		16.300303
_cell_angle_alpha	89.985020
_cell_angle_beta	90.023667
_cell_angle_gamma	89.724294
_symmetry_space_group_name_H-M	'P 1'
_symmetry_Int_Tables_number		1

loop_
	_symmetry_equiv_pos_as_xyz
	x,y,z

loop_
	_atom_site_label
	_atom_site_type_symbol
	_atom_site_fract_x
	_atom_site_fract_y
	_atom_site_fract_z
	H0	H	0.401023	0.838100	0.718462
	H1	H	0.595149	0.166766	0.718040
	H2	H	0.596871	0.837475	0.290421
	H3	H	0.398596	0.166887	0.290462
	H4	H	0.714104	0.401187	0.842198
	H5	H	0.713672	0.601861	0.167964
	H6	H	0.280604	0.603124	0.842374
	H7	H	0.282880	0.402074	0.167842
	H8	H	0.835269	0.718807	0.405584
	H9	H	0.161393	0.714326	0.602689
	H10	H	0.834515	0.289299	0.603528
	H11	H	0.160574	0.286093	0.406848
	H12	H	0.836172	0.402823	0.721699
	H13	H	0.160403	0.600313	0.721207
	H14	H	0.835249	0.602640	0.288944
	H15	H	0.160659	0.401800	0.290604
	H16	H	0.400724	0.714678	0.840235
	H17	H	0.595205	0.716316	0.168476
	H18	H	0.595216	0.288587	0.840384
	H19	H	0.401557	0.288537	0.168467
	H20	H	0.715128	0.838350	0.403489
	H21	H	0.710475	0.166765	0.601777
	H22	H	0.284725	0.838166	0.603816
	H23	H	0.281395	0.166139	0.404546
	H24	H	0.900964	0.336927	0.219309
	H25	H	0.095548	0.665650	0.219890
	H26	H	0.095895	0.337172	0.793183
	H27	H	0.898340	0.665267	0.791104
	H28	H	0.214392	0.901146	0.342008
	H29	H	0.213579	0.101425	0.667566
	H30	H	0.780295	0.104529	0.342396
	H31	H	0.782945	0.903808	0.668418
	H32	H	0.335323	0.217416	0.906214
	H33	H	0.660992	0.215599	0.101953
	H34	H	0.334115	0.788976	0.102171
	H35	H	0.660298	0.786027	0.905756
	H36	H	0.334930	0.903018	0.220827
	H37	H	0.659980	0.102395	0.220665
	H38	H	0.335140	0.102436	0.789398
	H39	H	0.660453	0.903106	0.789697
	H40	H	0.900800	0.216612	0.341464
	H41	H	0.093523	0.213229	0.670189
	H42	H	0.096423	0.786704	0.341468
	H43	H	0.900652	0.788468	0.669035
	H44	H	0.213198	0.338468	0.906767
	H45	H	0.211524	0.666366	0.105389
	H46	H	0.783904	0.337658	0.105004
	H47	H	0.782663	0.665361	0.906621
	H48	H	0.405752	0.118006	0.591951
	H49	H	0.595268	0.884426	0.597041
	H50	H	0.589115	0.119406	0.408454
	H51	H	0.412018	0.887610	0.412996
	H52	H	0.603426	0.419265	0.121762
	H53	H	0.578302	0.591878	0.893197
	H54	H	0.400923	0.595343	0.122325
	H55	H	0.401976	0.405433	0.886508
	H56	H	0.112121	0.589609	0.412397
	H57	H	0.883295	0.592083	0.599348
	H58	H	0.111910	0.411971	0.598105
	H59	H	0.883966	0.408268	0.419116
	H60	H	0.116149	0.407033	0.605697
	H61	H	0.881436	0.597514	0.601159
	H62	H	0.113961	0.594675	0.410341
	H63	H	0.883567	0.416507	0.410027
	H64	H	0.405064	0.592409	0.119824
	H65	H	0.594859	0.606118	0.883874
	H66	H	0.577517	0.416005	0.114273
	H67	H	0.400228	0.414344	0.888341
	H68	H	0.586909	0.117746	0.413779
	H69	H	0.589261	0.884785	0.599910
	H70	H	0.399415	0.121215	0.597424
	H71	H	0.402289	0.885754	0.417346
	H72	H	0.903635	0.618021	0.097150
	H73	H	0.095594	0.385350	0.093375
	H74	H	0.096344	0.622590	0.910440
	H75	H	0.898543	0.382336	0.913251
	H76	H	0.091839	0.906316	0.621955
	H77	H	0.086444	0.104708	0.386984
	H78	H	0.907601	0.091423	0.619509
	H79	H	0.902316	0.905284	0.386722
	H80	H	0.610682	0.090225	0.916312
	H81	H	0.382489	0.099420	0.091496
	H82	H	0.609264	0.916014	0.091354
	H83	H	0.380366	0.906914	0.908852
	H84	H	0.614377	0.910967	0.107070
	H85	H	0.384374	0.088103	0.097549
	H86	H	0.615658	0.091143	0.902056
	H87	H	0.383439	0.909562	0.914955
	H88	H	0.903778	0.100338	0.621751
	H89	H	0.100588	0.091487	0.386413
	H90	H	0.095000	0.910887	0.621730
	H91	H	0.901744	0.917509	0.390556
	H92	H	0.082955	0.619216	0.907599
	H93	H	0.094434	0.381985	0.103210
	H94	H	0.904617	0.618795	0.098014
	H95	H	0.909482	0.383874	0.907053
	H96	H	0.407500	0.119734	0.600310
	H97	H	0.589416	0.886829	0.592941
	H98	H	0.592764	0.118673	0.413691
	H99	H	0.403534	0.883910	0.406716
	H100	H	0.590964	0.394483	0.124981
	H101	H	0.600365	0.583747	0.889314
	H102	H	0.406227	0.597557	0.121539
	H103	H	0.408960	0.411078	0.890164
	H104	H	0.112121	0.594734	0.415811
	H105	H	0.882832	0.596571	0.595350
	H106	H	0.115325	0.402800	0.596320
	H107	H	0.879789	0.404763	0.407573
	H108	H	0.905249	0.618437	0.097341
	H109	H	0.086412	0.386570	0.098270
	H110	H	0.088081	0.616535	0.920860
	H111	H	0.907970	0.386500	0.919193
	H112	H	0.089880	0.911427	0.620088
	H113	H	0.083741	0.086146	0.393264
	H114	H	0.897721	0.092187	0.621847
	H115	H	0.912519	0.910617	0.390866
	H116	H	0.615831	0.103234	0.910851
	H117	H	0.379501	0.098842	0.104090
	H118	H	0.614547	0.900169	0.093910
	H119	H	0.382644	0.914200	0.908846
	C120	C	0.376799	0.010856	0.625512
	C121	C	0.619036	0.993958	0.625297
	C122	C	0.619535	0.010425	0.382823
	C123	C	0.376323	0.994126	0.383156
	C124	C	0.619485	0.380209	0.012998
	C125	C	0.619593	0.623302	0.996724
	C126	C	0.375464	0.624017	0.013197
	C127	C	0.375490	0.380949	0.996254
	C128	C	0.005990	0.623693	0.383207
	C129	C	0.989738	0.623837	0.627491
	C130	C	0.006560	0.379314	0.628207
	C131	C	0.989778	0.380212	0.383631
	C132	C	0.876411	0.510075	0.126629
	C133	C	0.119353	0.493274	0.127153
	C134	C	0.118438	0.510716	0.884510
	C135	C	0.876370	0.492633	0.884190
	C136	C	0.120691	0.879785	0.513173
	C137	C	0.118896	0.123045	0.496842
	C138	C	0.875110	0.124174	0.513633
	C139	C	0.876820	0.881631	0.497032
	C140	C	0.506335	0.124145	0.881841
	C141	C	0.489858	0.124055	0.126336
	C142	C	0.505323	0.880795	0.126010
	C143	C	0.489141	0.880645	0.882206
	C144	C	0.380009	0.887254	0.680845
	C145	C	0.615605	0.117709	0.679965
	C146	C	0.617663	0.886689	0.327806
	C147	C	0.378557	0.117759	0.328276
	C148	C	0.675586	0.381478	0.890482
	C149	C	0.674991	0.621471	0.119508
	C150	C	0.319664	0.622418	0.890626
	C151	C	0.321008	0.382526	0.119198
	C152	C	0.883781	0.680226	0.385514
	C153	C	0.112393	0.677567	0.624095
	C154	C	0.883717	0.325871	0.624538
	C155	C	0.112048	0.324485	0.386492
	C156	C	0.884508	0.382445	0.683365
	C157	C	0.112042	0.620638	0.682859
	C158	C	0.884059	0.622996	0.326916
	C159	C	0.112102	0.382033	0.328582
	C160	C	0.378875	0.678342	0.889698
	C161	C	0.616199	0.678531	0.119515
	C162	C	0.616350	0.325642	0.889532
	C163	C	0.379749	0.325865	0.119456
	C164	C	0.676184	0.887023	0.384270
	C165	C	0.673238	0.117549	0.622717
	C166	C	0.322428	0.887212	0.623738
	C167	C	0.320008	0.117369	0.384944
	C168	C	0.879837	0.386136	0.181760
	C169	C	0.116358	0.616695	0.182447
	C170	C	0.116202	0.386357	0.830651
	C171	C	0.877993	0.616208	0.828768
	C172	C	0.175938	0.881290	0.390566
	C173	C	0.174702	0.121100	0.619404
	C174	C	0.819424	0.123645	0.390712
	C175	C	0.821015	0.883468	0.619712
	C176	C	0.383916	0.179626	0.885140
	C177	C	0.612214	0.178509	0.123024
	C178	C	0.382656	0.826573	0.122904
	C179	C	0.611803	0.824651	0.885403
	C180	C	0.383377	0.882979	0.182124
	C181	C	0.611628	0.121922	0.181960
	C182	C	0.383767	0.122183	0.827293
	C183	C	0.611794	0.882521	0.827461
	C184	C	0.878874	0.179711	0.390461
	C185	C	0.115180	0.176858	0.620451
	C186	C	0.117360	0.824318	0.390484
	C187	C	0.879702	0.826459	0.620220
	C188	C	0.174735	0.387275	0.886811
	C189	C	0.174157	0.617015	0.125456
	C190	C	0.821520	0.386501	0.125161
	C191	C	0.820380	0.616319	0.885884
	C192	C	0.398005	0.097329	0.603069
	C193	C	0.597584	0.907498	0.603020
	C194	C	0.596523	0.096384	0.405406
	C195	C	0.399264	0.908055	0.405918
	C196	C	0.597199	0.402999	0.098356
	C197	C	0.597615	0.600602	0.910837
	C198	C	0.397693	0.601709	0.098946
	C199	C	0.397315	0.403512	0.910520
	C200	C	0.090880	0.600153	0.406149
	C201	C	0.904520	0.601832	0.605230
	C202	C	0.092425	0.400872	0.606460
	C203	C	0.904425	0.403111	0.405810
	C204	C	0.898029	0.596000	0.104134
	C205	C	0.098406	0.407008	0.104783
	C206	C	0.095828	0.596937	0.906434
	C207	C	0.898836	0.406477	0.906551
	C208	C	0.098708	0.902712	0.599187
	C209	C	0.096913	0.100670	0.411010
	C210	C	0.896646	0.101223	0.598932
	C211	C	0.898979	0.904455	0.411539
	C212	C	0.592017	0.101552	0.903433
	C213	C	0.404143	0.101955	0.104218
	C214	C	0.590572	0.902659	0.103944
	C215	C	0.404161	0.903459	0.904343
	Zn216	Zn	0.497798	0.002696	0.753326
	Zn217	Zn	0.497582	0.002178	0.255137
	Zn218	Zn	0.748486	0.501355	0.005268
	Zn219	Zn	0.246538	0.502846	0.004869
	Zn220	Zn	-0.002082	0.752387	0.505448
	Zn221	Zn	-0.002189	0.251940	0.505793
	Zn222	Zn	-0.001906	0.501653	0.756121
	Zn223	Zn	-0.002162	0.501619	0.254903
	Zn224	Zn	0.497183	0.751929	0.004365
	Zn225	Zn	0.497571	0.252338	0.004071
	Zn226	Zn	0.747000	0.002236	0.504296
	Zn227	Zn	0.248274	0.002206	0.504863
	N228	N	0.413041	0.965127	0.682020
	N229	N	0.582697	0.039712	0.681726
	N230	N	0.583319	0.964271	0.326640
	N231	N	0.412732	0.039996	0.327127
	N232	N	0.677760	0.414718	0.968165
	N233	N	0.677188	0.587959	0.042026
	N234	N	0.317447	0.589494	0.968447
	N235	N	0.318270	0.416146	0.041753
	N236	N	0.960629	0.680776	0.419633
	N237	N	0.035458	0.679670	0.590439
	N238	N	0.960888	0.324112	0.590851
	N239	N	0.035068	0.323343	0.420030
	N240	N	0.961692	0.415238	0.685408
	N241	N	0.034659	0.587856	0.684969
	N242	N	0.960967	0.588569	0.325372
	N243	N	0.034877	0.415910	0.326618
	N244	N	0.412973	0.679317	0.966886
	N245	N	0.582373	0.679689	0.042171
	N246	N	0.581900	0.324841	0.966507
	N247	N	0.413038	0.324921	0.041949
	N248	N	0.677579	0.964993	0.417640
	N249	N	0.675316	0.039608	0.589395
	N250	N	0.320278	0.965061	0.590025
	N251	N	0.318638	0.039469	0.418502
	N252	N	0.913180	0.463926	0.182942
	N253	N	0.082917	0.539115	0.183511
	N254	N	0.082108	0.464191	0.828867
	N255	N	0.912038	0.538282	0.827417
	N256	N	0.178128	0.914919	0.467990
	N257	N	0.177170	0.088391	0.541534
	N258	N	0.816692	0.090059	0.468166
	N259	N	0.819138	0.917020	0.542078
	N260	N	0.460997	0.180808	0.918298
	N261	N	0.535296	0.179648	0.088950
	N262	N	0.459492	0.824862	0.088940
	N263	N	0.534641	0.823318	0.918746
	N264	N	0.460599	0.916179	0.183812
	N265	N	0.534544	0.088669	0.184001
	N266	N	0.460976	0.088140	0.825390
	N267	N	0.534835	0.916592	0.825343
	N268	N	0.912804	0.180105	0.467661
	N269	N	0.081143	0.177965	0.543258
	N270	N	0.083746	0.823432	0.467880
	N271	N	0.913539	0.825211	0.543061
	N272	N	0.175947	0.465462	0.919656
	N273	N	0.176146	0.539172	0.091598
	N274	N	0.819148	0.464399	0.091802
	N275	N	0.819386	0.538608	0.919708
	O276	O	0.507838	0.579756	0.489421
	H277	H	0.502732	0.580573	0.487556
	H278	H	0.502776	0.579178	0.486293
	O279	O	0.492709	0.527917	0.470198
	H280	H	0.483708	0.528768	0.473066
	H281	H	0.500561	0.515058	0.467484
	O282	O	0.559758	0.472270	0.439413
	H283	H	0.556494	0.481281	0.440262
	H284	H	0.560233	0.474172	0.449169
	O285	O	-0.046802	1.002136	1.080868
	H286	H	-0.044029	1.004295	1.077045
	H287	H	-0.062986	0.993536	1.085337
	O288	O	0.468460	0.536110	0.446978
	H289	H	0.471848	0.534827	0.446474
	H290	H	0.467715	0.539541	0.447460
	O291	O	0.015324	0.016146	0.992056
	H292	H	0.021018	0.026079	0.994371
	H293	H	0.014138	0.009740	1.000336
	O294	O	0.458289	0.580064	0.515368
	H295	H	0.466461	0.585362	0.504038
	H296	H	0.462440	0.576890	0.516772
	O297	O	0.509147	0.530631	0.487099
	H298	H	0.511491	0.515032	0.485861
	H299	H	0.500616	0.536400	0.490118
	O300	O	0.554342	0.503587	0.446761
	H301	H	0.553549	0.510080	0.446169
	H302	H	0.560728	0.501428	0.432698
	O303	O	0.508606	0.475658	0.525452
	H304	H	0.514886	0.478007	0.528008
	H305	H	0.507663	0.473803	0.527875
	O306	O	0.992771	-0.021889	1.045053
	H307	H	0.982435	-0.021462	1.047389
	H308	H	0.999661	-0.029732	1.042037
	O309	O	0.539578	0.528940	0.450103
	H310	H	0.533506	0.523761	0.453127
	H311	H	0.539038	0.534177	0.438600
	O312	O	-0.014800	-0.026485	0.095005
	H313	H	-0.013426	-0.017688	0.095907
	H314	H	-0.015756	-0.021615	0.100955
	O315	O	0.950379	-0.011800	1.072722
	H316	H	0.943736	-0.023500	1.077955
	H317	H	0.948251	-0.014905	1.075362
	O318	O	0.031339	-0.047398	0.070322
	H319	H	0.028122	-0.036327	0.059560
	H320	H	0.034169	-0.053538	0.073912
	O321	O	0.478856	0.541921	0.464048
	H322	H	0.479423	0.552229	0.466326
	H323	H	0.471125	0.550762	0.463091
	O324	O	1.014926	-0.095845	0.005092
	H325	H	1.023218	-0.101052	0.007757
	H326	H	1.008901	-0.095998	0.009372
	O327	O	0.931634	0.974665	-0.013762
	H328	H	0.925714	0.970065	-0.012269
	H329	H	0.943174	0.973913	-0.014005
	O330	O	0.930147	0.976698	-0.018878
	H331	H	0.936031	0.976872	-0.028352
	H332	H	0.923129	0.980240	-0.021354
	O333	O	0.519715	0.514435	0.446729
	H334	H	0.515547	0.512385	0.450171
	H335	H	0.525272	0.519238	0.447808
