data_Molecule from HDF5

_cell_length_a		16.409293
_cell_length_b		16.278042
_cell_length_c		16.271664
_cell_angle_alpha	89.883708
_cell_angle_beta	89.941297
_cell_angle_gamma	89.898290
_symmetry_space_group_name_H-M	'P 1'
_symmetry_Int_Tables_number		1

loop_
	_symmetry_equiv_pos_as_xyz
	x,y,z

loop_
	_atom_site_label
	_atom_site_type_symbol
	_atom_site_fract_x
	_atom_site_fract_y
	_atom_site_fract_z
	H0	H	0.405649	0.836331	0.719859
	H1	H	0.600845	0.164334	0.717209
	H2	H	0.601576	0.835597	0.291046
	H3	H	0.407402	0.164054	0.290781
	H4	H	0.719529	0.401063	0.840589
	H5	H	0.720258	0.599251	0.167103
	H6	H	0.289796	0.600181	0.840451
	H7	H	0.288589	0.400026	0.167673
	H8	H	0.841608	0.716220	0.404860
	H9	H	0.166735	0.714972	0.602175
	H10	H	0.841222	0.286696	0.602680
	H11	H	0.166933	0.284637	0.405985
	H12	H	0.842048	0.401865	0.720228
	H13	H	0.167091	0.597700	0.718387
	H14	H	0.840947	0.599297	0.289704
	H15	H	0.166741	0.401282	0.288425
	H16	H	0.408080	0.713966	0.839998
	H17	H	0.601615	0.712213	0.168491
	H18	H	0.601124	0.288070	0.839432
	H19	H	0.407663	0.286529	0.168231
	H20	H	0.720693	0.837195	0.404426
	H21	H	0.719231	0.163412	0.604070
	H22	H	0.287415	0.837314	0.605303
	H23	H	0.288463	0.163433	0.404412
	H24	H	0.907928	0.336780	0.217954
	H25	H	0.100512	0.665095	0.216503
	H26	H	0.102095	0.335893	0.790928
	H27	H	0.908225	0.664185	0.790633
	H28	H	0.220712	0.900966	0.341449
	H29	H	0.219550	0.101517	0.667883
	H30	H	0.788345	0.101058	0.340706
	H31	H	0.788971	0.901884	0.667003
	H32	H	0.342117	0.216089	0.905593
	H33	H	0.667116	0.213816	0.100761
	H34	H	0.342334	0.783718	0.104578
	H35	H	0.668231	0.785336	0.906507
	H36	H	0.341856	0.901856	0.219111
	H37	H	0.667927	0.096538	0.217067
	H38	H	0.341955	0.099097	0.788939
	H39	H	0.667549	0.901816	0.789295
	H40	H	0.907435	0.214144	0.339794
	H41	H	0.100783	0.213651	0.668049
	H42	H	0.102037	0.786718	0.339658
	H43	H	0.905605	0.785838	0.667635
	H44	H	0.220658	0.337111	0.904793
	H45	H	0.219044	0.663867	0.103237
	H46	H	0.790284	0.336721	0.102662
	H47	H	0.789907	0.663693	0.904017
	H48	H	0.415325	0.113107	0.593106
	H49	H	0.604498	0.884785	0.589395
	H50	H	0.595878	0.116217	0.407909
	H51	H	0.406298	0.880542	0.405943
	H52	H	0.592066	0.408544	0.118792
	H53	H	0.606619	0.589044	0.886365
	H54	H	0.410110	0.595786	0.121670
	H55	H	0.403702	0.405747	0.884934
	H56	H	0.116785	0.588500	0.412778
	H57	H	0.889484	0.594345	0.594931
	H58	H	0.120597	0.402964	0.596604
	H59	H	0.888785	0.401834	0.416852
	H60	H	0.118128	0.408545	0.594735
	H61	H	0.889490	0.590535	0.598679
	H62	H	0.120428	0.593281	0.405299
	H63	H	0.891995	0.415354	0.411816
	H64	H	0.407065	0.588990	0.120327
	H65	H	0.591110	0.587810	0.891213
	H66	H	0.600232	0.401907	0.122727
	H67	H	0.412010	0.416640	0.890599
	H68	H	0.595981	0.115522	0.412665
	H69	H	0.599084	0.880999	0.605093
	H70	H	0.406868	0.115737	0.593451
	H71	H	0.418758	0.885705	0.411054
	H72	H	0.914599	0.613812	0.089993
	H73	H	0.100629	0.381695	0.102991
	H74	H	0.105352	0.616892	0.915134
	H75	H	0.903881	0.380356	0.906855
	H76	H	0.097531	0.907736	0.620043
	H77	H	0.095780	0.091091	0.388638
	H78	H	0.907488	0.087696	0.619546
	H79	H	0.906411	0.910525	0.386475
	H80	H	0.620445	0.093592	0.910131
	H81	H	0.390077	0.092653	0.095426
	H82	H	0.622878	0.902419	0.105727
	H83	H	0.391414	0.913217	0.911281
	H84	H	0.620517	0.900047	0.091741
	H85	H	0.389326	0.092243	0.099467
	H86	H	0.619051	0.094049	0.910532
	H87	H	0.388023	0.903946	0.906810
	H88	H	0.914908	0.094203	0.619091
	H89	H	0.096710	0.096098	0.387386
	H90	H	0.096146	0.908539	0.619464
	H91	H	0.914801	0.912337	0.389482
	H92	H	0.097826	0.619232	0.902457
	H93	H	0.089314	0.387003	0.095921
	H94	H	0.904073	0.618656	0.094448
	H95	H	0.919044	0.385155	0.907321
	H96	H	0.412157	0.117373	0.600199
	H97	H	0.587924	0.887658	0.593613
	H98	H	0.600540	0.117056	0.410659
	H99	H	0.407461	0.885243	0.420364
	H100	H	0.601599	0.412273	0.119682
	H101	H	0.596460	0.601739	0.885381
	H102	H	0.414487	0.590572	0.118383
	H103	H	0.417456	0.403761	0.889119
	H104	H	0.120368	0.598192	0.413988
	H105	H	0.887214	0.595158	0.599218
	H106	H	0.119567	0.407897	0.600928
	H107	H	0.886132	0.405113	0.402380
	H108	H	0.913689	0.617871	0.102488
	H109	H	0.101701	0.385286	0.089295
	H110	H	0.091277	0.613313	0.914799
	H111	H	0.910003	0.385523	0.920678
	H112	H	0.095972	0.906559	0.620254
	H113	H	0.100671	0.092392	0.387215
	H114	H	0.906275	0.097292	0.622530
	H115	H	0.912881	0.904106	0.386607
	H116	H	0.619896	0.093209	0.910609
	H117	H	0.389008	0.095494	0.097431
	H118	H	0.617114	0.912983	0.096806
	H119	H	0.390523	0.903857	0.917170
	C120	C	0.382169	0.007973	0.625890
	C121	C	0.625423	0.992215	0.624949
	C122	C	0.626181	0.008263	0.381975
	C123	C	0.382529	0.991837	0.383037
	C124	C	0.626150	0.379069	0.012119
	C125	C	0.625931	0.620850	0.995993
	C126	C	0.382618	0.621380	0.012035
	C127	C	0.382642	0.379291	0.996046
	C128	C	0.011503	0.622348	0.382136
	C129	C	0.996085	0.621739	0.625784
	C130	C	0.012435	0.378206	0.626325
	C131	C	0.996526	0.378665	0.382100
	C132	C	0.882748	0.508750	0.124956
	C133	C	0.125689	0.492364	0.125230
	C134	C	0.126390	0.508491	0.882072
	C135	C	0.883120	0.491987	0.882855
	C136	C	0.125414	0.878881	0.512234
	C137	C	0.125507	0.121507	0.496268
	C138	C	0.881831	0.121984	0.512372
	C139	C	0.882557	0.879651	0.495431
	C140	C	0.512689	0.122157	0.882205
	C141	C	0.496746	0.121367	0.125568
	C142	C	0.512611	0.877273	0.126355
	C143	C	0.497203	0.878556	0.882966
	C144	C	0.384789	0.885270	0.682100
	C145	C	0.622325	0.115314	0.680090
	C146	C	0.623212	0.884911	0.328002
	C147	C	0.385996	0.115145	0.328044
	C148	C	0.681203	0.381117	0.889290
	C149	C	0.681420	0.619033	0.118715
	C150	C	0.327839	0.619902	0.889301
	C151	C	0.326864	0.380132	0.118829
	C152	C	0.889874	0.678012	0.384271
	C153	C	0.118098	0.677328	0.623060
	C154	C	0.889777	0.323995	0.623455
	C155	C	0.118480	0.322944	0.384999
	C156	C	0.890128	0.381361	0.681607
	C157	C	0.118499	0.618726	0.680502
	C158	C	0.889704	0.619697	0.327091
	C159	C	0.118464	0.381078	0.326842
	C160	C	0.386682	0.676459	0.888925
	C161	C	0.622535	0.675202	0.119398
	C162	C	0.622434	0.324878	0.888633
	C163	C	0.386076	0.323967	0.119226
	C164	C	0.682211	0.885728	0.384241
	C165	C	0.680429	0.115039	0.623143
	C166	C	0.326149	0.885635	0.625062
	C167	C	0.327059	0.114817	0.384650
	C168	C	0.886274	0.385634	0.180418
	C169	C	0.122178	0.615889	0.179589
	C170	C	0.123308	0.385033	0.827708
	C171	C	0.886585	0.615302	0.827869
	C172	C	0.181429	0.881000	0.389527
	C173	C	0.180679	0.120098	0.619181
	C174	C	0.826786	0.120437	0.389277
	C175	C	0.827225	0.881393	0.618493
	C176	C	0.390419	0.177844	0.884809
	C177	C	0.618794	0.176042	0.122265
	C178	C	0.390573	0.822087	0.124608
	C179	C	0.619384	0.822896	0.885382
	C180	C	0.390495	0.880466	0.181721
	C181	C	0.619033	0.117852	0.180007
	C182	C	0.390253	0.119708	0.827041
	C183	C	0.619264	0.880967	0.827371
	C184	C	0.885815	0.176724	0.388813
	C185	C	0.122019	0.176333	0.619347
	C186	C	0.122996	0.823907	0.388982
	C187	C	0.885161	0.824051	0.618712
	C188	C	0.182214	0.385584	0.884218
	C189	C	0.180885	0.615303	0.123223
	C190	C	0.827893	0.385587	0.123308
	C191	C	0.828091	0.615014	0.884492
	C192	C	0.404887	0.093364	0.602490
	C193	C	0.603608	0.906506	0.602654
	C194	C	0.604111	0.094115	0.404092
	C195	C	0.404464	0.906041	0.405574
	C196	C	0.604251	0.400821	0.098073
	C197	C	0.604570	0.599177	0.909794
	C198	C	0.404293	0.598485	0.098109
	C199	C	0.404490	0.402167	0.910322
	C200	C	0.097017	0.599963	0.404136
	C201	C	0.910806	0.599890	0.603984
	C202	C	0.097411	0.399885	0.604084
	C203	C	0.911076	0.400762	0.404011
	C204	C	0.904470	0.594554	0.102267
	C205	C	0.103777	0.406912	0.102528
	C206	C	0.104490	0.594211	0.904204
	C207	C	0.904767	0.405966	0.905021
	C208	C	0.103160	0.901077	0.597957
	C209	C	0.104095	0.099483	0.410158
	C210	C	0.903389	0.099803	0.598146
	C211	C	0.904640	0.902243	0.409794
	C212	C	0.597595	0.100195	0.904025
	C213	C	0.411413	0.099793	0.103942
	C214	C	0.598034	0.898647	0.104535
	C215	C	0.412014	0.900732	0.905208
	Zn216	Zn	0.504683	0.000024	0.753599
	Zn217	Zn	0.504327	-0.000483	0.254431
	Zn218	Zn	0.754193	0.500118	0.003638
	Zn219	Zn	0.253956	0.500221	0.003918
	Zn220	Zn	0.003782	0.750693	0.503769
	Zn221	Zn	0.003923	0.249517	0.504331
	Zn222	Zn	0.004437	0.499890	0.754538
	Zn223	Zn	0.004481	0.501189	0.253278
	Zn224	Zn	0.504585	0.749206	0.004417
	Zn225	Zn	0.504563	0.251160	0.004136
	Zn226	Zn	0.754025	0.000590	0.503881
	Zn227	Zn	0.254066	0.000411	0.504742
	N228	N	0.419112	0.962367	0.682501
	N229	N	0.588717	0.037898	0.681188
	N230	N	0.588969	0.961994	0.326752
	N231	N	0.419679	0.037728	0.326897
	N232	N	0.683522	0.414140	0.966896
	N233	N	0.683469	0.585966	0.040958
	N234	N	0.325040	0.586644	0.966976
	N235	N	0.324614	0.413777	0.041267
	N236	N	0.966638	0.679414	0.417917
	N237	N	0.040876	0.679248	0.589834
	N238	N	0.966705	0.321992	0.589525
	N239	N	0.041617	0.321449	0.418760
	N240	N	0.967207	0.414337	0.683364
	N241	N	0.041707	0.584933	0.682308
	N242	N	0.966652	0.585615	0.325897
	N243	N	0.041681	0.415083	0.325219
	N244	N	0.419899	0.677548	0.966529
	N245	N	0.588754	0.676521	0.042008
	N246	N	0.588690	0.323628	0.966171
	N247	N	0.420122	0.323403	0.041969
	N248	N	0.684012	0.963575	0.417292
	N249	N	0.682404	0.037480	0.589530
	N250	N	0.324467	0.962992	0.591095
	N251	N	0.324812	0.037153	0.418260
	N252	N	0.919661	0.463137	0.181513
	N253	N	0.088655	0.538554	0.181014
	N254	N	0.089390	0.462404	0.826448
	N255	N	0.920221	0.537859	0.826763
	N256	N	0.183337	0.914243	0.467114
	N257	N	0.182967	0.086777	0.541421
	N258	N	0.823989	0.087355	0.467054
	N259	N	0.825615	0.915285	0.540983
	N260	N	0.467306	0.179610	0.918353
	N261	N	0.541724	0.178572	0.089285
	N262	N	0.467445	0.820017	0.090965
	N263	N	0.542529	0.821503	0.919391
	N264	N	0.467281	0.914371	0.182678
	N265	N	0.542002	0.084645	0.182089
	N266	N	0.467021	0.085686	0.825410
	N267	N	0.542352	0.914742	0.825672
	N268	N	0.919134	0.178009	0.466192
	N269	N	0.088076	0.177185	0.542080
	N270	N	0.088601	0.822830	0.466220
	N271	N	0.918888	0.822901	0.541227
	N272	N	0.184177	0.463138	0.917380
	N273	N	0.183120	0.537651	0.090005
	N274	N	0.825411	0.463226	0.089795
	N275	N	0.825867	0.537356	0.918046
	O276	O	0.443374	0.507443	0.493745
	H277	H	0.438546	0.509271	0.503683
	H278	H	0.445031	0.517631	0.498732
	O279	O	0.056731	-0.035355	-0.017889
	H280	H	0.064228	-0.034352	-0.018253
	H281	H	0.058092	-0.025295	-0.016916
	O282	O	0.487634	0.495349	0.500529
	H283	H	0.485262	0.500476	0.496197
	H284	H	0.489371	0.498657	0.500781
	O285	O	0.492281	0.548423	0.497110
	H286	H	0.492214	0.546489	0.491454
	H287	H	0.496817	0.550275	0.503053
	O288	O	1.086447	-0.051248	-0.029634
	H289	H	1.079164	-0.042411	-0.041905
	H290	H	1.090015	-0.063321	-0.033461
	O291	O	-0.492720	0.518548	-0.499564
	H292	H	-0.487623	0.515640	-0.503394
	H293	H	-0.494428	0.509864	-0.503529
	O294	O	0.050823	0.988158	-0.040708
	H295	H	0.054898	0.983225	-0.040845
	H296	H	0.054544	0.981271	-0.031416
	O297	O	0.046367	0.936639	-0.040369
	H298	H	0.045607	0.931393	-0.055252
	H299	H	0.049779	0.939991	-0.036715
	O300	O	1.061453	0.025506	0.939109
	H301	H	1.062719	0.035121	0.937155
	H302	H	1.060040	0.012063	0.949488
	O303	O	0.481917	0.453325	0.554010
	H304	H	0.480880	0.454833	0.551925
	H305	H	0.488586	0.455293	0.550582
	O306	O	0.470450	1.454377	1.544816
	H307	H	0.466835	1.444656	1.540140
	H308	H	0.464364	1.449202	1.543980
	O309	O	0.526575	0.497921	0.441801
	H310	H	0.530555	0.503505	0.430367
	H311	H	0.525990	0.501369	0.442600
