data_Molecule from HDF5

_cell_length_a		16.272945
_cell_length_b		16.251966
_cell_length_c		16.280686
_cell_angle_alpha	89.801936
_cell_angle_beta	89.992831
_cell_angle_gamma	90.410972
_symmetry_space_group_name_H-M	'P 1'
_symmetry_Int_Tables_number		1

loop_
	_symmetry_equiv_pos_as_xyz
	x,y,z

loop_
	_atom_site_label
	_atom_site_type_symbol
	_atom_site_fract_x
	_atom_site_fract_y
	_atom_site_fract_z
	H0	H	0.385954	0.837491	0.710745
	H1	H	0.587551	0.165751	0.709628
	H2	H	0.583378	0.837082	0.282396
	H3	H	0.388016	0.164792	0.278767
	H4	H	0.701074	0.402712	0.834314
	H5	H	0.700292	0.600210	0.161158
	H6	H	0.269676	0.601640	0.833312
	H7	H	0.269623	0.399714	0.159884
	H8	H	0.822538	0.716364	0.396697
	H9	H	0.148749	0.718775	0.596012
	H10	H	0.823350	0.284438	0.596066
	H11	H	0.150690	0.290107	0.398689
	H12	H	0.822764	0.400280	0.712769
	H13	H	0.149390	0.601751	0.711704
	H14	H	0.822276	0.600586	0.281198
	H15	H	0.149177	0.404673	0.281768
	H16	H	0.387383	0.715850	0.832581
	H17	H	0.585061	0.716762	0.160138
	H18	H	0.582111	0.289501	0.831970
	H19	H	0.383901	0.282488	0.158684
	H20	H	0.699867	0.837839	0.396931
	H21	H	0.701814	0.165835	0.592555
	H22	H	0.268360	0.838837	0.596014
	H23	H	0.272979	0.165980	0.395076
	H24	H	0.885196	0.338281	0.213444
	H25	H	0.084822	0.665651	0.210619
	H26	H	0.082701	0.338735	0.782285
	H27	H	0.885597	0.664642	0.780014
	H28	H	0.200541	0.903995	0.332110
	H29	H	0.202359	0.101203	0.659030
	H30	H	0.773826	0.101182	0.332050
	H31	H	0.769436	0.902251	0.659273
	H32	H	0.321513	0.214188	0.895192
	H33	H	0.648308	0.216960	0.093669
	H34	H	0.322071	0.784973	0.094684
	H35	H	0.649885	0.787216	0.897671
	H36	H	0.322652	0.899911	0.210990
	H37	H	0.649497	0.100547	0.208545
	H38	H	0.323134	0.100138	0.778546
	H39	H	0.650297	0.903293	0.781137
	H40	H	0.889526	0.216850	0.333068
	H41	H	0.087344	0.217082	0.659711
	H42	H	0.084101	0.788896	0.332290
	H43	H	0.884662	0.785154	0.659281
	H44	H	0.196524	0.337439	0.899083
	H45	H	0.202525	0.664811	0.096478
	H46	H	0.769364	0.337496	0.097521
	H47	H	0.771789	0.665445	0.898394
	H48	H	0.393449	0.116618	0.580203
	H49	H	0.576781	0.889139	0.577845
	H50	H	0.579071	0.119619	0.397386
	H51	H	0.392308	0.883911	0.398479
	H52	H	0.576386	0.407787	0.113733
	H53	H	0.573603	0.587877	0.884290
	H54	H	0.394554	0.597849	0.113444
	H55	H	0.400304	0.412781	0.884134
	H56	H	0.103847	0.595931	0.398544
	H57	H	0.870369	0.586515	0.593613
	H58	H	0.106855	0.402144	0.596719
	H59	H	0.868284	0.407932	0.399251
	H60	H	0.101175	0.407643	0.580960
	H61	H	0.866388	0.599871	0.590664
	H62	H	0.102731	0.600246	0.406578
	H63	H	0.869021	0.403255	0.408339
	H64	H	0.388648	0.590422	0.112940
	H65	H	0.575918	0.601750	0.879250
	H66	H	0.576480	0.407883	0.112831
	H67	H	0.389335	0.396069	0.875346
	H68	H	0.579271	0.117272	0.403393
	H69	H	0.587388	0.881505	0.592492
	H70	H	0.390586	0.119935	0.590922
	H71	H	0.397382	0.887013	0.405927
	H72	H	0.886931	0.619534	0.090207
	H73	H	0.076282	0.386647	0.086488
	H74	H	0.079905	0.619526	0.904470
	H75	H	0.891963	0.386120	0.906502
	H76	H	0.078117	0.916944	0.609596
	H77	H	0.074255	0.103195	0.379259
	H78	H	0.899093	0.092284	0.610841
	H79	H	0.900066	0.904661	0.380568
	H80	H	0.600446	0.097430	0.908300
	H81	H	0.370652	0.088594	0.084641
	H82	H	0.602031	0.915412	0.092502
	H83	H	0.371944	0.911358	0.905421
	H84	H	0.606017	0.902228	0.093429
	H85	H	0.367772	0.090605	0.093916
	H86	H	0.601190	0.089922	0.900644
	H87	H	0.369172	0.909378	0.898404
	H88	H	0.892678	0.098452	0.614961
	H89	H	0.087750	0.097813	0.376714
	H90	H	0.071835	0.906710	0.610833
	H91	H	0.885357	0.906043	0.376514
	H92	H	0.077105	0.619006	0.903344
	H93	H	0.079940	0.383205	0.092436
	H94	H	0.897426	0.617843	0.094404
	H95	H	0.889422	0.384336	0.904192
	H96	H	0.401801	0.116712	0.589022
	H97	H	0.569191	0.885735	0.594876
	H98	H	0.584275	0.119356	0.400371
	H99	H	0.387963	0.885482	0.406697
	H100	H	0.575945	0.407842	0.112217
	H101	H	0.586253	0.591378	0.879332
	H102	H	0.397739	0.589007	0.110474
	H103	H	0.379522	0.415481	0.879324
	H104	H	0.099809	0.592289	0.405290
	H105	H	0.872347	0.592166	0.581593
	H106	H	0.101510	0.419077	0.594778
	H107	H	0.871807	0.413030	0.408446
	H108	H	0.894845	0.616266	0.083733
	H109	H	0.072305	0.385547	0.093088
	H110	H	0.077656	0.617095	0.906134
	H111	H	0.893494	0.385202	0.903020
	H112	H	0.084057	0.907222	0.615160
	H113	H	0.077333	0.089061	0.382835
	H114	H	0.889746	0.089140	0.612015
	H115	H	0.893511	0.917327	0.383121
	H116	H	0.603895	0.099707	0.898923
	H117	H	0.366813	0.097506	0.086879
	H118	H	0.600086	0.907819	0.081778
	H119	H	0.369566	0.903862	0.903985
	C120	C	0.365078	0.009777	0.616731
	C121	C	0.607556	0.993610	0.616707
	C122	C	0.608496	0.010342	0.372620
	C123	C	0.364573	0.993742	0.374015
	C124	C	0.606085	0.379525	0.005310
	C125	C	0.607819	0.622928	0.988661
	C126	C	0.364372	0.622157	0.004602
	C127	C	0.361908	0.378332	0.987573
	C128	C	-0.005698	0.624150	0.374491
	C129	C	0.977467	0.623321	0.617878
	C130	C	-0.005033	0.379438	0.619200
	C131	C	0.977754	0.380539	0.375951
	C132	C	0.863478	0.509677	0.118925
	C133	C	0.106392	0.493294	0.118916
	C134	C	0.106450	0.510412	0.875736
	C135	C	0.863278	0.493204	0.875175
	C136	C	0.106615	0.881870	0.503710
	C137	C	0.109003	0.124980	0.487673
	C138	C	0.865607	0.122706	0.504692
	C139	C	0.863609	0.879848	0.487601
	C140	C	0.493955	0.123566	0.873275
	C141	C	0.476637	0.121970	0.116653
	C142	C	0.494402	0.879199	0.117669
	C143	C	0.478024	0.879612	0.873831
	C144	C	0.365775	0.886834	0.673094
	C145	C	0.606968	0.116820	0.671840
	C146	C	0.604590	0.886422	0.319170
	C147	C	0.367671	0.116294	0.317443
	C148	C	0.662504	0.382377	0.882678
	C149	C	0.662399	0.620664	0.112146
	C150	C	0.308335	0.620688	0.881873
	C151	C	0.307258	0.379677	0.110957
	C152	C	0.871339	0.678996	0.376202
	C153	C	0.100100	0.680135	0.616079
	C154	C	0.871906	0.323016	0.616513
	C155	C	0.101476	0.327218	0.378375
	C156	C	0.871670	0.380570	0.674439
	C157	C	0.100453	0.622133	0.673641
	C158	C	0.871059	0.621423	0.318926
	C159	C	0.100791	0.383880	0.320042
	C160	C	0.366672	0.677846	0.881462
	C161	C	0.605364	0.678680	0.111656
	C162	C	0.603215	0.326171	0.881570
	C163	C	0.364203	0.321431	0.110051
	C164	C	0.662511	0.886989	0.376257
	C165	C	0.663660	0.117169	0.613546
	C166	C	0.307589	0.887139	0.615700
	C167	C	0.310399	0.116857	0.375349
	C168	C	0.865046	0.386925	0.175171
	C169	C	0.104949	0.616585	0.173079
	C170	C	0.103093	0.387494	0.820180
	C171	C	0.865527	0.616048	0.818750
	C172	C	0.162524	0.883872	0.380892
	C173	C	0.164813	0.122243	0.610207
	C174	C	0.811239	0.121216	0.381203
	C175	C	0.807779	0.881809	0.610671
	C176	C	0.370906	0.177622	0.874805
	C177	C	0.599721	0.178381	0.113847
	C178	C	0.370997	0.822945	0.115149
	C179	C	0.601082	0.824974	0.876916
	C180	C	0.371261	0.880299	0.172898
	C181	C	0.600436	0.120560	0.171100
	C182	C	0.371634	0.120693	0.816673
	C183	C	0.601240	0.882585	0.818945
	C184	C	0.868566	0.178920	0.381731
	C185	C	0.107373	0.179753	0.610572
	C186	C	0.104578	0.826608	0.381139
	C187	C	0.865109	0.823725	0.610593
	C188	C	0.159743	0.386845	0.878338
	C189	C	0.163592	0.616084	0.116445
	C190	C	0.807628	0.386507	0.117558
	C191	C	0.808889	0.616385	0.877601
	C192	C	0.388535	0.095554	0.593540
	C193	C	0.584541	0.907829	0.594809
	C194	C	0.587136	0.096445	0.393939
	C195	C	0.386356	0.907765	0.397092
	C196	C	0.583174	0.401449	0.090828
	C197	C	0.585347	0.600269	0.903153
	C198	C	0.387125	0.599172	0.090095
	C199	C	0.383497	0.401523	0.901907
	C200	C	0.079757	0.602518	0.396938
	C201	C	0.891928	0.599719	0.595318
	C202	C	0.080845	0.402697	0.597278
	C203	C	0.891996	0.401822	0.398498
	C204	C	0.886242	0.595742	0.095977
	C205	C	0.082994	0.407156	0.097009
	C206	C	0.084581	0.596357	0.898039
	C207	C	0.885259	0.407409	0.897953
	C208	C	0.084568	0.903906	0.589634
	C209	C	0.086357	0.103124	0.401611
	C210	C	0.887339	0.099771	0.590422
	C211	C	0.886355	0.902680	0.402109
	C212	C	0.579797	0.101997	0.896032
	C213	C	0.390761	0.098927	0.095019
	C214	C	0.580318	0.901892	0.095800
	C215	C	0.392209	0.901530	0.896113
	Zn216	Zn	0.486832	0.001975	0.745396
	Zn217	Zn	0.486026	0.001148	0.245359
	Zn218	Zn	0.735484	0.501127	-0.002100
	Zn219	Zn	0.234744	0.500925	-0.002968
	Zn220	Zn	-0.014157	0.752362	0.496149
	Zn221	Zn	-0.013212	0.251925	0.496630
	Zn222	Zn	-0.014336	0.501979	0.746888
	Zn223	Zn	-0.014902	0.501722	0.247127
	Zn224	Zn	0.486121	0.751202	-0.003650
	Zn225	Zn	0.484078	0.250922	-0.004337
	Zn226	Zn	0.735908	0.002028	0.495476
	Zn227	Zn	0.236165	0.002774	0.495577
	N228	N	0.400914	0.964071	0.673518
	N229	N	0.572913	0.039079	0.673847
	N230	N	0.571557	0.964150	0.316705
	N231	N	0.400527	0.038573	0.316393
	N232	N	0.664349	0.415274	0.960555
	N233	N	0.664387	0.586936	0.034709
	N234	N	0.306971	0.586570	0.959467
	N235	N	0.305532	0.414419	0.033722
	N236	N	0.948703	0.680905	0.409995
	N237	N	0.022606	0.680923	0.581955
	N238	N	0.949451	0.322317	0.582912
	N239	N	0.024117	0.325096	0.412393
	N240	N	0.949157	0.414983	0.676250
	N241	N	0.023198	0.587534	0.674885
	N242	N	0.948526	0.588023	0.317643
	N243	N	0.023024	0.416725	0.318656
	N244	N	0.400734	0.678937	0.958673
	N245	N	0.572124	0.680285	0.033868
	N246	N	0.568775	0.324549	0.958581
	N247	N	0.397432	0.320699	0.032415
	N248	N	0.665062	0.964993	0.408634
	N249	N	0.664305	0.039657	0.579930
	N250	N	0.306863	0.964747	0.581559
	N251	N	0.308492	0.039471	0.409841
	N252	N	0.898905	0.464666	0.176301
	N253	N	0.070192	0.539196	0.174657
	N254	N	0.070744	0.465442	0.818573
	N255	N	0.898318	0.538426	0.817001
	N256	N	0.163789	0.917700	0.458236
	N257	N	0.165931	0.088925	0.532723
	N258	N	0.809184	0.086977	0.458615
	N259	N	0.806643	0.915966	0.533242
	N260	N	0.447998	0.179309	0.909374
	N261	N	0.521921	0.179466	0.080827
	N262	N	0.448483	0.822252	0.081438
	N263	N	0.523419	0.823044	0.910358
	N264	N	0.448821	0.914365	0.174620
	N265	N	0.522996	0.085979	0.172912
	N266	N	0.449264	0.087798	0.815782
	N267	N	0.523744	0.915930	0.817041
	N268	N	0.901762	0.179865	0.459320
	N269	N	0.073607	0.181627	0.533183
	N270	N	0.070671	0.825184	0.458462
	N271	N	0.898931	0.822282	0.533077
	N272	N	0.162220	0.464398	0.912003
	N273	N	0.164502	0.538255	0.083419
	N274	N	0.806762	0.463963	0.083319
	N275	N	0.807258	0.538900	0.912040
	O276	O	0.009369	-0.029813	0.002324
	H277	H	0.004367	-0.023103	0.004748
	H278	H	0.017044	-0.034597	0.005759
	O279	O	0.954862	0.957468	0.012034
	H280	H	0.947980	0.955698	0.014498
	H281	H	0.951673	0.947009	0.005734
	O282	O	0.481209	0.526620	0.537148
	H283	H	0.472973	0.513329	0.534961
	H284	H	0.474905	0.531776	0.525260
	O285	O	-0.001175	1.040007	0.955498
	H286	H	-0.012980	1.043176	0.951607
	H287	H	-0.003736	1.044567	0.954873
	O288	O	0.536944	0.461853	0.494733
	H289	H	0.541582	0.470099	0.497999
	H290	H	0.539716	0.462170	0.494930
	O291	O	0.979123	1.038063	0.950373
	H292	H	0.982436	1.045303	0.953359
	H293	H	0.980414	1.036423	0.946802
	O294	O	1.065559	1.013699	1.024992
	H295	H	1.069659	1.020448	1.038148
	H296	H	1.060141	1.003036	1.030424
	O297	O	0.965400	-0.032703	1.070815
	H298	H	0.962808	-0.037464	1.074088
	H299	H	0.964400	-0.047203	1.070760
	O300	O	0.395906	0.467202	0.567339
	H301	H	0.401205	0.469303	0.562261
	H302	H	0.389602	0.461713	0.569038
	O303	O	0.950953	0.009895	-0.013996
	H304	H	0.942787	0.015636	-0.026926
	H305	H	0.938314	0.007728	-0.018852
	O306	O	-0.032063	1.078360	0.961930
	H307	H	-0.032493	1.083661	0.967339
	H308	H	-0.024832	1.085600	0.959740
	O309	O	0.459522	0.510575	0.550955
	H310	H	0.454527	0.506259	0.545152
	H311	H	0.456759	0.498811	0.548448
	O312	O	0.941216	-0.056119	1.085645
	H313	H	0.933627	-0.058539	1.081004
	H314	H	0.928916	-0.054240	1.081288
	O315	O	0.477649	0.460068	0.509311
	H316	H	0.479123	0.453250	0.524240
	H317	H	0.479060	0.451698	0.506439
	O318	O	0.460114	0.554217	0.413915
	H319	H	0.474501	0.549214	0.425281
	H320	H	0.446274	0.553356	0.411436
	O321	O	0.946282	1.005586	0.923070
	H322	H	0.957591	0.994774	0.922798
	H323	H	0.948510	1.007917	0.927734
	O324	O	1.033474	1.022507	0.958066
	H325	H	1.042026	1.021024	0.953431
	H326	H	1.033498	1.017354	0.956893
	O327	O	0.434694	0.369247	0.470962
	H328	H	0.429590	0.368720	0.465879
	H329	H	0.436100	0.376180	0.477319
	O330	O	0.972051	-0.059065	0.975450
	H331	H	0.974070	-0.052155	0.972071
	H332	H	0.978841	-0.063089	0.979464
	O333	O	1.037296	1.001540	0.068183
	H334	H	1.025629	0.999866	0.066005
	H335	H	1.034444	0.992087	0.080667
	O336	O	0.458180	0.451131	0.445338
	H337	H	0.459425	0.459148	0.449151
	H338	H	0.453642	0.442317	0.444709
	O339	O	0.573895	0.582336	0.470469
	H340	H	0.576847	0.584552	0.479477
	H341	H	0.573586	0.574143	0.470413
	O342	O	-0.082263	1.036847	-0.099087
	H343	H	-0.065740	1.046257	-0.091229
	H344	H	-0.082990	1.047079	-0.105055
	O345	O	0.052578	-0.003406	-0.016634
	H346	H	0.049149	-0.001455	-0.013096
	H347	H	0.057397	-0.007548	-0.012516
	O348	O	0.571048	0.610605	0.576648
	H349	H	0.568860	0.607962	0.578932
	H350	H	0.575931	0.622822	0.585251
	O351	O	0.442258	0.499824	0.574268
	H352	H	0.445906	0.502293	0.574126
	H353	H	0.443880	0.490276	0.570207
	O354	O	0.428202	0.501883	0.506465
	H355	H	0.431342	0.510181	0.508787
	H356	H	0.428639	0.503224	0.499523
	O357	O	0.538005	0.518593	0.456845
	H358	H	0.530013	0.516048	0.451127
	H359	H	0.531670	0.513845	0.473753
	O360	O	0.548149	-0.565432	0.549247
	H361	H	0.535626	-0.554863	0.552565
	H362	H	0.552438	-0.556832	0.547658
	O363	O	0.467152	0.594223	0.514882
	H364	H	0.475524	0.618708	0.506925
	H365	H	0.461756	0.587484	0.520882
	O366	O	0.487713	-0.500363	0.466934
	H367	H	0.477576	-0.489146	0.461867
	H368	H	0.497430	-0.490728	0.468532
	O369	O	0.587584	0.519717	0.484480
	H370	H	0.586915	0.516496	0.488290
	H371	H	0.597865	0.522018	0.488860
