data_Molecule from HDF5

_cell_length_a		16.319409
_cell_length_b		16.297292
_cell_length_c		16.288986
_cell_angle_alpha	89.985140
_cell_angle_beta	89.760455
_cell_angle_gamma	89.910981
_symmetry_space_group_name_H-M	'P 1'
_symmetry_Int_Tables_number		1

loop_
	_symmetry_equiv_pos_as_xyz
	x,y,z

loop_
	_atom_site_label
	_atom_site_type_symbol
	_atom_site_fract_x
	_atom_site_fract_y
	_atom_site_fract_z
	H0	H	0.404909	0.837525	0.718173
	H1	H	0.601985	0.164318	0.718724
	H2	H	0.602175	0.837330	0.288728
	H3	H	0.405106	0.164510	0.289265
	H4	H	0.719470	0.402289	0.840224
	H5	H	0.717379	0.600668	0.166788
	H6	H	0.289307	0.601081	0.840443
	H7	H	0.287758	0.402484	0.166313
	H8	H	0.840166	0.716064	0.406699
	H9	H	0.167601	0.716308	0.601297
	H10	H	0.841053	0.287042	0.604171
	H11	H	0.167141	0.286546	0.404260
	H12	H	0.840517	0.404738	0.718430
	H13	H	0.167522	0.599666	0.716731
	H14	H	0.840641	0.601717	0.288664
	H15	H	0.166349	0.402472	0.287098
	H16	H	0.403445	0.717290	0.840800
	H17	H	0.601565	0.715779	0.166860
	H18	H	0.602676	0.286646	0.839633
	H19	H	0.404982	0.287320	0.167329
	H20	H	0.720162	0.837745	0.404000
	H21	H	0.718024	0.164536	0.602599
	H22	H	0.288964	0.837562	0.602640
	H23	H	0.289292	0.164679	0.405585
	H24	H	0.903233	0.339021	0.220351
	H25	H	0.101146	0.665291	0.217470
	H26	H	0.102502	0.338892	0.788547
	H27	H	0.905434	0.665603	0.789937
	H28	H	0.219568	0.903481	0.340316
	H29	H	0.217070	0.099378	0.668116
	H30	H	0.790172	0.100819	0.340109
	H31	H	0.788019	0.901092	0.666627
	H32	H	0.339587	0.214975	0.905355
	H33	H	0.666528	0.215281	0.101528
	H34	H	0.339772	0.786029	0.103252
	H35	H	0.666108	0.785112	0.904550
	H36	H	0.339478	0.903305	0.218333
	H37	H	0.666877	0.098073	0.216176
	H38	H	0.339994	0.099141	0.789146
	H39	H	0.666040	0.900674	0.786891
	H40	H	0.906144	0.216963	0.340701
	H41	H	0.101352	0.215555	0.667865
	H42	H	0.104255	0.787251	0.339985
	H43	H	0.905718	0.787737	0.667558
	H44	H	0.218772	0.338455	0.903116
	H45	H	0.218907	0.664449	0.102312
	H46	H	0.789537	0.338085	0.102741
	H47	H	0.786440	0.664073	0.904186
	H48	H	0.414516	0.115831	0.595343
	H49	H	0.592216	0.883586	0.604880
	H50	H	0.603201	0.119903	0.407494
	H51	H	0.410224	0.886268	0.417676
	H52	H	0.603296	0.406335	0.122513
	H53	H	0.593062	0.594953	0.888067
	H54	H	0.415484	0.597176	0.119558
	H55	H	0.408415	0.405932	0.885855
	H56	H	0.117557	0.587078	0.409419
	H57	H	0.886947	0.606310	0.589870
	H58	H	0.120160	0.411714	0.601023
	H59	H	0.891392	0.416484	0.415784
	H60	H	0.122556	0.402199	0.597707
	H61	H	0.892843	0.584191	0.591926
	H62	H	0.122743	0.598568	0.403186
	H63	H	0.885498	0.409623	0.403416
	H64	H	0.404815	0.595172	0.121921
	H65	H	0.598812	0.593550	0.886525
	H66	H	0.594245	0.414076	0.116730
	H67	H	0.409676	0.409008	0.886641
	H68	H	0.590637	0.115356	0.405645
	H69	H	0.589794	0.889400	0.586980
	H70	H	0.405826	0.117109	0.593338
	H71	H	0.406746	0.882414	0.407386
	H72	H	0.908497	0.619457	0.098141
	H73	H	0.104771	0.384580	0.092063
	H74	H	0.097200	0.616755	0.913661
	H75	H	0.910862	0.382600	0.902275
	H76	H	0.094867	0.904169	0.621108
	H77	H	0.090611	0.101108	0.387849
	H78	H	0.904466	0.093746	0.621958
	H79	H	0.916388	0.917964	0.391116
	H80	H	0.620655	0.096020	0.908190
	H81	H	0.383543	0.102699	0.101430
	H82	H	0.617786	0.912449	0.097458
	H83	H	0.387454	0.912033	0.909090
	H84	H	0.621135	0.903824	0.099181
	H85	H	0.388918	0.094846	0.088027
	H86	H	0.617471	0.093891	0.914516
	H87	H	0.386020	0.905348	0.909663
	H88	H	0.912466	0.090638	0.618108
	H89	H	0.105876	0.096147	0.384828
	H90	H	0.100989	0.909838	0.620730
	H91	H	0.918395	0.901030	0.387520
	H92	H	0.099436	0.620080	0.908857
	H93	H	0.094950	0.383138	0.105120
	H94	H	0.912354	0.617313	0.097179
	H95	H	0.919794	0.389440	0.913910
	H96	H	0.409323	0.119104	0.601069
	H97	H	0.606840	0.882839	0.592461
	H98	H	0.596316	0.114363	0.417443
	H99	H	0.417358	0.885921	0.408438
	H100	H	0.591122	0.400918	0.120173
	H101	H	0.595003	0.588902	0.889157
	H102	H	0.410944	0.586534	0.117276
	H103	H	0.411999	0.406619	0.887088
	H104	H	0.118414	0.598906	0.416107
	H105	H	0.884071	0.596051	0.609862
	H106	H	0.118365	0.408841	0.591205
	H107	H	0.887140	0.402235	0.416662
	H108	H	0.908864	0.617347	0.094012
	H109	H	0.088323	0.389519	0.090915
	H110	H	0.093828	0.617572	0.909022
	H111	H	0.904827	0.384872	0.916249
	H112	H	0.093736	0.911677	0.618154
	H113	H	0.095473	0.086014	0.391027
	H114	H	0.911185	0.099536	0.620439
	H115	H	0.903221	0.909029	0.384751
	H116	H	0.618407	0.089178	0.909103
	H117	H	0.388159	0.087052	0.102346
	H118	H	0.618065	0.905876	0.091376
	H119	H	0.388710	0.908510	0.915049
	C120	C	0.381507	0.009430	0.625412
	C121	C	0.624562	0.993119	0.624057
	C122	C	0.625968	0.009173	0.380995
	C123	C	0.382583	0.992821	0.382439
	C124	C	0.625578	0.378611	0.011647
	C125	C	0.624221	0.621827	0.995574
	C126	C	0.381963	0.622381	0.011747
	C127	C	0.381737	0.379309	0.994790
	C128	C	0.011858	0.623264	0.381808
	C129	C	0.996000	0.623520	0.625442
	C130	C	0.012183	0.380218	0.625290
	C131	C	0.995628	0.380632	0.382456
	C132	C	0.881352	0.510178	0.125461
	C133	C	0.124571	0.493494	0.124653
	C134	C	0.125406	0.510311	0.881697
	C135	C	0.882205	0.493038	0.882002
	C136	C	0.126137	0.879619	0.511894
	C137	C	0.125296	0.122941	0.496228
	C138	C	0.881765	0.123428	0.512246
	C139	C	0.883412	0.880409	0.495610
	C140	C	0.511295	0.122267	0.881722
	C141	C	0.494727	0.122936	0.125146
	C142	C	0.511301	0.879131	0.125112
	C143	C	0.495017	0.879043	0.881871
	C144	C	0.384328	0.886314	0.680425
	C145	C	0.622209	0.115785	0.679997
	C146	C	0.623587	0.886280	0.325931
	C147	C	0.384955	0.115883	0.327290
	C148	C	0.681735	0.381207	0.889091
	C149	C	0.679592	0.620544	0.117978
	C150	C	0.326911	0.621158	0.889247
	C151	C	0.325871	0.381915	0.117639
	C152	C	0.889108	0.678800	0.385072
	C153	C	0.118842	0.678247	0.621923
	C154	C	0.889470	0.325337	0.623664
	C155	C	0.118241	0.324332	0.383626
	C156	C	0.889347	0.383472	0.680920
	C157	C	0.118674	0.620759	0.679662
	C158	C	0.888971	0.621398	0.327130
	C159	C	0.118026	0.382182	0.325797
	C160	C	0.383958	0.678672	0.889394
	C161	C	0.621782	0.677662	0.118107
	C162	C	0.623509	0.323950	0.888595
	C163	C	0.384082	0.324678	0.118069
	C164	C	0.682174	0.886545	0.383086
	C165	C	0.679820	0.115834	0.622277
	C166	C	0.326506	0.886284	0.623406
	C167	C	0.327467	0.116011	0.384955
	C168	C	0.883269	0.387592	0.181775
	C169	C	0.121585	0.616576	0.179297
	C170	C	0.123309	0.387373	0.826217
	C171	C	0.884677	0.616589	0.827366
	C172	C	0.181679	0.882545	0.389124
	C173	C	0.179501	0.119847	0.619169
	C174	C	0.827700	0.121057	0.388994
	C175	C	0.826603	0.881870	0.618118
	C176	C	0.388527	0.177257	0.884623
	C177	C	0.617735	0.177659	0.122165
	C178	C	0.388345	0.824268	0.123150
	C179	C	0.617385	0.822983	0.883675
	C180	C	0.388366	0.881989	0.180795
	C181	C	0.617956	0.119347	0.179120
	C182	C	0.388539	0.119632	0.827030
	C183	C	0.617635	0.880758	0.825731
	C184	C	0.885218	0.178750	0.389274
	C185	C	0.121933	0.177559	0.619118
	C186	C	0.124089	0.824965	0.388929
	C187	C	0.885255	0.825473	0.618690
	C188	C	0.180870	0.387233	0.883241
	C189	C	0.180286	0.616012	0.122449
	C190	C	0.826601	0.387155	0.123470
	C191	C	0.825846	0.616003	0.884179
	C192	C	0.403305	0.095086	0.603095
	C193	C	0.602573	0.907435	0.601454
	C194	C	0.603325	0.094564	0.403599
	C195	C	0.404816	0.907062	0.404609
	C196	C	0.602909	0.400669	0.097588
	C197	C	0.601936	0.599153	0.909922
	C198	C	0.404179	0.599691	0.097641
	C199	C	0.403681	0.400760	0.908708
	C200	C	0.097349	0.601136	0.403102
	C201	C	0.910147	0.601798	0.603763
	C202	C	0.098154	0.401326	0.603178
	C203	C	0.910077	0.402876	0.405243
	C204	C	0.903301	0.595879	0.102983
	C205	C	0.102396	0.407642	0.102492
	C206	C	0.103404	0.595746	0.904043
	C207	C	0.904993	0.407649	0.904332
	C208	C	0.103271	0.902038	0.597922
	C209	C	0.103797	0.100806	0.410130
	C210	C	0.903102	0.101266	0.597952
	C211	C	0.906011	0.902916	0.409978
	C212	C	0.596911	0.099615	0.903938
	C213	C	0.408940	0.101247	0.103807
	C214	C	0.596760	0.900900	0.102785
	C215	C	0.409417	0.902013	0.904598
	Zn216	Zn	0.503078	0.000630	0.753431
	Zn217	Zn	0.503284	0.000820	0.253251
	Zn218	Zn	0.753431	0.501187	0.003856
	Zn219	Zn	0.253671	0.501418	0.002845
	Zn220	Zn	0.004220	0.751920	0.503648
	Zn221	Zn	0.003771	0.251404	0.504099
	Zn222	Zn	0.004442	0.501969	0.753527
	Zn223	Zn	0.003077	0.501857	0.253278
	Zn224	Zn	0.502783	0.750414	0.003979
	Zn225	Zn	0.503314	0.250863	0.003262
	Zn226	Zn	0.754192	0.001497	0.503349
	Zn227	Zn	0.254213	0.001154	0.504042
	N228	N	0.417989	0.963658	0.681729
	N229	N	0.588623	0.038442	0.681260
	N230	N	0.589474	0.963466	0.324592
	N231	N	0.418672	0.038411	0.325857
	N232	N	0.683086	0.414329	0.966669
	N233	N	0.680963	0.586230	0.040818
	N234	N	0.325666	0.586764	0.966397
	N235	N	0.324262	0.415072	0.040086
	N236	N	0.966291	0.680249	0.418404
	N237	N	0.041528	0.680097	0.588835
	N238	N	0.966902	0.323070	0.590014
	N239	N	0.041171	0.323355	0.418459
	N240	N	0.966620	0.416956	0.681972
	N241	N	0.041324	0.587657	0.681966
	N242	N	0.966328	0.587850	0.324748
	N243	N	0.040932	0.416288	0.324872
	N244	N	0.417424	0.679455	0.966773
	N245	N	0.588183	0.678762	0.040874
	N246	N	0.589365	0.322254	0.965944
	N247	N	0.418314	0.323129	0.040782
	N248	N	0.683967	0.964050	0.416507
	N249	N	0.681651	0.038490	0.588312
	N250	N	0.324647	0.963768	0.589899
	N251	N	0.326013	0.038671	0.418667
	N252	N	0.916517	0.465094	0.182995
	N253	N	0.087587	0.539391	0.180685
	N254	N	0.089506	0.464583	0.825121
	N255	N	0.918781	0.539257	0.825756
	N256	N	0.182962	0.915820	0.466755
	N257	N	0.181778	0.086755	0.541481
	N258	N	0.825482	0.087316	0.466354
	N259	N	0.825541	0.915523	0.540651
	N260	N	0.465854	0.178910	0.917986
	N261	N	0.540183	0.179976	0.089383
	N262	N	0.465697	0.822447	0.089257
	N263	N	0.540233	0.821918	0.917894
	N264	N	0.465772	0.915461	0.182155
	N265	N	0.540569	0.086087	0.181063
	N266	N	0.466014	0.086211	0.825043
	N267	N	0.540292	0.914724	0.824437
	N268	N	0.918276	0.180168	0.466772
	N269	N	0.088651	0.179306	0.541658
	N270	N	0.090179	0.823122	0.466418
	N271	N	0.919815	0.824410	0.541620
	N272	N	0.182414	0.464573	0.917146
	N273	N	0.182069	0.538484	0.089157
	N274	N	0.825183	0.464371	0.089419
	N275	N	0.824110	0.538417	0.917413
	O276	O	0.547256	0.434958	-0.546121
	H277	H	0.538136	0.432504	-0.545002
	H278	H	0.549872	0.438769	-0.552730
	O279	O	-0.036408	-0.005705	0.026942
	H280	H	-0.032433	-0.002696	0.019145
	H281	H	-0.030451	-0.003100	0.034526
	O282	O	-0.068138	0.064817	1.021175
	H283	H	-0.076452	0.062290	1.034023
	H284	H	-0.064307	0.064892	1.022013
	O285	O	0.574145	0.455514	0.444897
	H286	H	0.577480	0.463171	0.444285
	H287	H	0.570869	0.462530	0.450041
	O288	O	0.562915	0.502981	0.486325
	H289	H	0.556129	0.503684	0.488801
	H290	H	0.561556	0.502207	0.490344
	O291	O	0.572341	0.486647	0.474799
	H292	H	0.574732	0.490921	0.475064
	H293	H	0.580175	0.487799	0.471105
	O294	O	-0.059650	0.000050	0.051016
	H295	H	-0.064785	-0.004243	0.041936
	H296	H	-0.063544	0.007520	0.046776
	O297	O	0.530104	0.489335	0.471321
	H298	H	0.527787	0.500116	0.471829
	H299	H	0.529099	0.485708	0.469194
	O300	O	0.011139	0.987400	0.992357
	H301	H	0.010909	0.986621	0.996303
	H302	H	0.010503	0.988448	0.992321
	O303	O	0.578654	0.487533	0.483168
	H304	H	0.585346	0.483696	0.480428
	H305	H	0.580624	0.479406	0.482021
	O306	O	-0.049092	0.043918	1.007707
	H307	H	-0.050346	0.050026	1.008277
	H308	H	-0.048913	0.049407	1.011438
	O309	O	0.965371	1.038878	1.012321
	H310	H	0.962702	1.040233	1.015083
	H311	H	0.954501	1.038669	1.002482
	O312	O	0.541621	0.492089	0.465332
	H313	H	0.534679	0.488217	0.464808
	H314	H	0.549582	0.487839	0.460695
	O315	O	0.546342	0.455246	0.449458
	H316	H	0.550936	0.446767	0.445385
	H317	H	0.546692	0.444404	0.449636
	O318	O	-0.072792	1.004178	0.044947
	H319	H	-0.071307	0.999939	0.046715
	H320	H	-0.082203	1.004749	0.048764
	O321	O	0.973374	1.011297	0.026127
	H322	H	0.982565	1.008365	0.021249
	H323	H	0.979565	1.014634	0.029538
