data_Molecule from HDF5

_cell_length_a		16.373017
_cell_length_b		16.289551
_cell_length_c		16.312115
_cell_angle_alpha	90.008733
_cell_angle_beta	89.893501
_cell_angle_gamma	90.078416
_symmetry_space_group_name_H-M	'P 1'
_symmetry_Int_Tables_number		1

loop_
	_symmetry_equiv_pos_as_xyz
	x,y,z

loop_
	_atom_site_label
	_atom_site_type_symbol
	_atom_site_fract_x
	_atom_site_fract_y
	_atom_site_fract_z
	H0	H	0.406906	0.830556	0.704438
	H1	H	0.601756	0.158193	0.704917
	H2	H	0.602679	0.830624	0.276586
	H3	H	0.408261	0.158932	0.279120
	H4	H	0.718770	0.397298	0.828242
	H5	H	0.719897	0.593687	0.155130
	H6	H	0.289626	0.593318	0.828480
	H7	H	0.289634	0.395701	0.155007
	H8	H	0.840717	0.708804	0.394501
	H9	H	0.167402	0.708457	0.589870
	H10	H	0.842349	0.278159	0.591618
	H11	H	0.167755	0.281036	0.395396
	H12	H	0.841519	0.395867	0.707309
	H13	H	0.167307	0.592429	0.706087
	H14	H	0.840839	0.591766	0.277069
	H15	H	0.167926	0.396523	0.278111
	H16	H	0.408761	0.706306	0.827557
	H17	H	0.602411	0.709245	0.155299
	H18	H	0.601681	0.281779	0.827318
	H19	H	0.407109	0.280468	0.155617
	H20	H	0.719751	0.830602	0.392681
	H21	H	0.718853	0.158278	0.589395
	H22	H	0.289560	0.831605	0.589915
	H23	H	0.290188	0.158097	0.393656
	H24	H	0.906215	0.330130	0.206671
	H25	H	0.102550	0.657723	0.206818
	H26	H	0.103524	0.330343	0.777323
	H27	H	0.908091	0.657974	0.779184
	H28	H	0.220247	0.894841	0.329181
	H29	H	0.219211	0.093208	0.654940
	H30	H	0.791154	0.092555	0.328129
	H31	H	0.789376	0.895626	0.654769
	H32	H	0.341477	0.207565	0.894734
	H33	H	0.667687	0.208678	0.088216
	H34	H	0.341084	0.778822	0.090041
	H35	H	0.667588	0.780424	0.893634
	H36	H	0.341339	0.895685	0.206990
	H37	H	0.667587	0.092956	0.205583
	H38	H	0.341442	0.091913	0.777006
	H39	H	0.667537	0.895812	0.775888
	H40	H	0.907560	0.208693	0.328827
	H41	H	0.102056	0.208269	0.655778
	H42	H	0.102500	0.779754	0.328721
	H43	H	0.906583	0.780542	0.656168
	H44	H	0.218771	0.330223	0.893847
	H45	H	0.218908	0.657645	0.090451
	H46	H	0.789088	0.330022	0.091444
	H47	H	0.790178	0.657631	0.893265
	H48	H	0.406855	0.114796	0.592894
	H49	H	0.598042	0.876727	0.586244
	H50	H	0.608478	0.114409	0.394915
	H51	H	0.412002	0.879228	0.401841
	H52	H	0.601726	0.399396	0.109242
	H53	H	0.592808	0.592315	0.875806
	H54	H	0.414063	0.582935	0.105845
	H55	H	0.407642	0.391983	0.871916
	H56	H	0.119385	0.586146	0.399929
	H57	H	0.888226	0.583554	0.590279
	H58	H	0.122553	0.395559	0.589685
	H59	H	0.890243	0.399471	0.403983
	H60	H	0.118149	0.399955	0.579416
	H61	H	0.887079	0.592134	0.585805
	H62	H	0.119151	0.587532	0.396779
	H63	H	0.889401	0.405498	0.395781
	H64	H	0.413025	0.592503	0.108652
	H65	H	0.606072	0.589955	0.873200
	H66	H	0.597042	0.405186	0.107049
	H67	H	0.404407	0.409379	0.876491
	H68	H	0.589847	0.110297	0.392065
	H69	H	0.594927	0.878511	0.584311
	H70	H	0.420218	0.109191	0.585928
	H71	H	0.408308	0.876983	0.398466
	H72	H	0.911607	0.611096	0.090442
	H73	H	0.101917	0.377285	0.081032
	H74	H	0.094198	0.607054	0.905654
	H75	H	0.913057	0.376849	0.897035
	H76	H	0.100188	0.902477	0.608935
	H77	H	0.094286	0.093045	0.375632
	H78	H	0.905455	0.090313	0.610742
	H79	H	0.910628	0.902087	0.375973
	H80	H	0.620658	0.090432	0.900207
	H81	H	0.388283	0.087363	0.086639
	H82	H	0.622360	0.889512	0.084394
	H83	H	0.387515	0.902127	0.889125
	H84	H	0.614324	0.906302	0.072678
	H85	H	0.388589	0.089130	0.084799
	H86	H	0.618967	0.084362	0.897875
	H87	H	0.387003	0.892240	0.899583
	H88	H	0.910073	0.079429	0.605605
	H89	H	0.104915	0.086902	0.373535
	H90	H	0.096165	0.902018	0.607572
	H91	H	0.913634	0.902969	0.377079
	H92	H	0.105713	0.612279	0.898607
	H93	H	0.098482	0.375370	0.091005
	H94	H	0.915908	0.607668	0.082446
	H95	H	0.912195	0.378599	0.901296
	H96	H	0.406651	0.110965	0.577337
	H97	H	0.598667	0.878396	0.582091
	H98	H	0.597757	0.107109	0.409376
	H99	H	0.413661	0.878766	0.396074
	H100	H	0.594053	0.397519	0.107572
	H101	H	0.598599	0.579445	0.878566
	H102	H	0.405529	0.586373	0.109189
	H103	H	0.420907	0.402031	0.878422
	H104	H	0.119147	0.589105	0.398803
	H105	H	0.890962	0.585137	0.581399
	H106	H	0.119825	0.407311	0.588563
	H107	H	0.886374	0.396017	0.395151
	H108	H	0.906762	0.610062	0.082252
	H109	H	0.092019	0.379987	0.083461
	H110	H	0.093176	0.611434	0.892284
	H111	H	0.908931	0.377517	0.899099
	H112	H	0.097931	0.898752	0.609305
	H113	H	0.095047	0.081078	0.378257
	H114	H	0.917526	0.089437	0.606766
	H115	H	0.912893	0.900272	0.375827
	H116	H	0.621506	0.088911	0.893691
	H117	H	0.389633	0.086776	0.084777
	H118	H	0.620150	0.909672	0.093656
	H119	H	0.391485	0.905969	0.902397
	C120	C	0.383265	0.003128	0.613009
	C121	C	0.625837	0.986138	0.612665
	C122	C	0.626531	0.002392	0.370179
	C123	C	0.383181	0.986348	0.370389
	C124	C	0.625930	0.372791	-0.000191
	C125	C	0.627063	0.616022	0.983714
	C126	C	0.382855	0.615629	-0.000051
	C127	C	0.382922	0.372647	0.983584
	C128	C	0.011765	0.616080	0.369748
	C129	C	0.996156	0.615674	0.614094
	C130	C	0.012669	0.372391	0.614042
	C131	C	0.996429	0.372483	0.370676
	C132	C	0.883084	0.501665	0.113483
	C133	C	0.125705	0.485989	0.113586
	C134	C	0.126189	0.501969	0.870514
	C135	C	0.883333	0.485988	0.870820
	C136	C	0.126099	0.872878	0.500310
	C137	C	0.126036	0.115623	0.484014
	C138	C	0.882940	0.115675	0.500116
	C139	C	0.883247	0.872741	0.483830
	C140	C	0.512742	0.115784	0.869719
	C141	C	0.496460	0.116008	0.113047
	C142	C	0.511635	0.872934	0.112488
	C143	C	0.496588	0.872421	0.869227
	C144	C	0.386309	0.879635	0.667046
	C145	C	0.622631	0.109742	0.666809
	C146	C	0.623557	0.879438	0.314720
	C147	C	0.386887	0.109881	0.316511
	C148	C	0.681118	0.375913	0.876935
	C149	C	0.681732	0.614041	0.106545
	C150	C	0.328038	0.613251	0.876952
	C151	C	0.328017	0.375580	0.106686
	C152	C	0.889227	0.670919	0.373201
	C153	C	0.118748	0.670721	0.610763
	C154	C	0.890446	0.316800	0.611695
	C155	C	0.119238	0.318319	0.374063
	C156	C	0.890105	0.375137	0.669258
	C157	C	0.118703	0.613212	0.668698
	C158	C	0.889382	0.612729	0.315218
	C159	C	0.119225	0.375631	0.315905
	C160	C	0.386706	0.669763	0.876530
	C161	C	0.623490	0.671586	0.106455
	C162	C	0.622692	0.318988	0.876381
	C163	C	0.386083	0.317920	0.106692
	C164	C	0.681663	0.879400	0.372267
	C165	C	0.681044	0.109415	0.609928
	C166	C	0.328079	0.880196	0.610260
	C167	C	0.328343	0.109429	0.373176
	C168	C	0.885284	0.378834	0.168911
	C169	C	0.123008	0.608971	0.168733
	C170	C	0.123594	0.379097	0.815493
	C171	C	0.886655	0.608923	0.816185
	C172	C	0.181402	0.875086	0.377599
	C173	C	0.181182	0.113597	0.606528
	C174	C	0.828335	0.113327	0.377206
	C175	C	0.827738	0.875047	0.606483
	C176	C	0.389919	0.170106	0.873155
	C177	C	0.619165	0.170845	0.109484
	C178	C	0.389676	0.817007	0.110680
	C179	C	0.618966	0.817788	0.872459
	C180	C	0.389705	0.875089	0.168712
	C181	C	0.618833	0.113693	0.168045
	C182	C	0.390004	0.112672	0.814904
	C183	C	0.618959	0.875322	0.814087
	C184	C	0.886672	0.170530	0.377265
	C185	C	0.122818	0.170385	0.606988
	C186	C	0.122957	0.817931	0.377441
	C187	C	0.885714	0.817732	0.606928
	C188	C	0.181215	0.379180	0.873102
	C189	C	0.180667	0.608958	0.110767
	C190	C	0.827416	0.378746	0.111706
	C191	C	0.828180	0.608749	0.873093
	C192	C	0.404795	0.089391	0.591646
	C193	C	0.603766	0.900241	0.590767
	C194	C	0.604924	0.088283	0.392154
	C195	C	0.404888	0.900607	0.392387
	C196	C	0.604187	0.394304	0.085654
	C197	C	0.605474	0.593732	0.897847
	C198	C	0.404473	0.593694	0.085654
	C199	C	0.404461	0.394626	0.897697
	C200	C	0.097238	0.594119	0.391935
	C201	C	0.910914	0.593495	0.592162
	C202	C	0.098060	0.394465	0.592302
	C203	C	0.910887	0.394023	0.392085
	C204	C	0.904892	0.587301	0.091464
	C205	C	0.103936	0.399823	0.091602
	C206	C	0.104106	0.588102	0.892408
	C207	C	0.905002	0.399855	0.892795
	C208	C	0.104457	0.894807	0.586360
	C209	C	0.104343	0.093616	0.397932
	C210	C	0.904741	0.093258	0.585731
	C211	C	0.905725	0.895140	0.398352
	C212	C	0.598321	0.094353	0.891067
	C213	C	0.410927	0.094033	0.091626
	C214	C	0.596844	0.895369	0.090143
	C215	C	0.410812	0.893891	0.890900
	Zn216	Zn	0.504761	-0.005176	0.740823
	Zn217	Zn	0.504506	-0.005233	0.242112
	Zn218	Zn	0.754973	0.493725	-0.007542
	Zn219	Zn	0.254153	0.494334	-0.008009
	Zn220	Zn	0.004374	0.744041	0.492165
	Zn221	Zn	0.004792	0.243961	0.492347
	Zn222	Zn	0.004891	0.493978	0.742698
	Zn223	Zn	0.004455	0.493767	0.241498
	Zn224	Zn	0.504552	0.743466	-0.008707
	Zn225	Zn	0.504620	0.244292	-0.008785
	Zn226	Zn	0.754694	-0.005819	0.491724
	Zn227	Zn	0.254591	-0.005150	0.491674
	N228	N	0.420087	0.957136	0.668804
	N229	N	0.589260	0.032292	0.668709
	N230	N	0.590260	0.956904	0.313245
	N231	N	0.420282	0.032501	0.314774
	N232	N	0.683038	0.408879	0.954624
	N233	N	0.684071	0.580373	0.029272
	N234	N	0.325289	0.580339	0.954689
	N235	N	0.325758	0.408832	0.029162
	N236	N	0.966508	0.673096	0.406332
	N237	N	0.041621	0.672302	0.577385
	N238	N	0.967492	0.315044	0.578146
	N239	N	0.041916	0.316133	0.407125
	N240	N	0.967096	0.409049	0.670727
	N241	N	0.041597	0.579761	0.670828
	N242	N	0.966598	0.579560	0.313040
	N243	N	0.042031	0.408645	0.313550
	N244	N	0.420203	0.671031	0.953730
	N245	N	0.590235	0.672817	0.028987
	N246	N	0.589113	0.316831	0.953664
	N247	N	0.419765	0.316283	0.029320
	N248	N	0.683582	0.956739	0.406069
	N249	N	0.682834	0.031664	0.576700
	N250	N	0.325952	0.957898	0.577597
	N251	N	0.325927	0.031620	0.406030
	N252	N	0.919215	0.456197	0.170299
	N253	N	0.089556	0.531451	0.170341
	N254	N	0.090163	0.456638	0.813807
	N255	N	0.920307	0.531659	0.814842
	N256	N	0.183372	0.908600	0.455039
	N257	N	0.183163	0.080318	0.529010
	N258	N	0.826096	0.079812	0.454480
	N259	N	0.825874	0.908293	0.529146
	N260	N	0.466989	0.172069	0.906598
	N261	N	0.542090	0.172602	0.076197
	N262	N	0.466347	0.815760	0.076193
	N263	N	0.541943	0.816006	0.905948
	N264	N	0.466610	0.909145	0.170000
	N265	N	0.541605	0.080238	0.170246
	N266	N	0.467263	0.079473	0.812806
	N267	N	0.541798	0.908730	0.811976
	N268	N	0.919789	0.172137	0.454677
	N269	N	0.089204	0.171718	0.529764
	N270	N	0.089550	0.816250	0.454804
	N271	N	0.919901	0.816437	0.529688
	N272	N	0.182714	0.456517	0.906723
	N273	N	0.182261	0.531480	0.077286
	N274	N	0.826180	0.455942	0.077626
	N275	N	0.826167	0.531204	0.906543
	O276	O	0.933806	-0.028081	1.137594
	H277	H	0.939831	-0.032795	1.139217
	H278	H	0.922535	-0.030829	1.146744
	O279	O	-0.028919	0.969593	1.084227
	H280	H	-0.034937	0.974862	1.089878
	H281	H	-0.034585	0.971308	1.090235
	O282	O	0.948791	0.948124	0.084906
	H283	H	0.949264	0.933298	0.085725
	H284	H	0.956007	0.945290	0.070962
	O285	O	-0.034641	0.935648	1.079358
	H286	H	-0.035214	0.942112	1.081176
	H287	H	-0.034736	0.942981	1.078957
