data_Molecule from HDF5

_cell_length_a		16.303767
_cell_length_b		16.355590
_cell_length_c		16.295869
_cell_angle_alpha	90.069373
_cell_angle_beta	89.911971
_cell_angle_gamma	89.966868
_symmetry_space_group_name_H-M	'P 1'
_symmetry_Int_Tables_number		1

loop_
	_symmetry_equiv_pos_as_xyz
	x,y,z

loop_
	_atom_site_label
	_atom_site_type_symbol
	_atom_site_fract_x
	_atom_site_fract_y
	_atom_site_fract_z
	H0	H	0.401831	0.837139	0.713984
	H1	H	0.596672	0.164053	0.713391
	H2	H	0.598239	0.837784	0.284375
	H3	H	0.402974	0.163639	0.286311
	H4	H	0.713417	0.402833	0.835832
	H5	H	0.712567	0.596756	0.164064
	H6	H	0.286824	0.596113	0.835841
	H7	H	0.286070	0.403316	0.163826
	H8	H	0.836046	0.713846	0.403155
	H9	H	0.163446	0.714812	0.598288
	H10	H	0.836626	0.285585	0.599600
	H11	H	0.163262	0.285229	0.400876
	H12	H	0.836221	0.402721	0.714768
	H13	H	0.163578	0.597515	0.714221
	H14	H	0.836453	0.597011	0.287325
	H15	H	0.163236	0.402688	0.285786
	H16	H	0.401637	0.714289	0.836529
	H17	H	0.597427	0.714376	0.163678
	H18	H	0.598232	0.285635	0.836091
	H19	H	0.401170	0.285665	0.164063
	H20	H	0.714025	0.837004	0.402011
	H21	H	0.713729	0.163807	0.597236
	H22	H	0.284798	0.837035	0.598802
	H23	H	0.285745	0.163545	0.402712
	H24	H	0.901657	0.337148	0.214592
	H25	H	0.097069	0.663080	0.214029
	H26	H	0.098552	0.336828	0.785008
	H27	H	0.903295	0.662994	0.787278
	H28	H	0.213648	0.902391	0.336282
	H29	H	0.213762	0.098055	0.663758
	H30	H	0.787888	0.096842	0.335173
	H31	H	0.787022	0.904050	0.664614
	H32	H	0.336443	0.214004	0.901822
	H33	H	0.663949	0.213542	0.096463
	H34	H	0.336298	0.785980	0.097827
	H35	H	0.663858	0.785652	0.901852
	H36	H	0.335882	0.903380	0.213938
	H37	H	0.664118	0.096781	0.212319
	H38	H	0.336051	0.095826	0.787442
	H39	H	0.663833	0.902531	0.785441
	H40	H	0.902404	0.213876	0.335800
	H41	H	0.098658	0.215341	0.663538
	H42	H	0.098951	0.784523	0.336996
	H43	H	0.901891	0.786548	0.663755
	H44	H	0.215431	0.336147	0.901410
	H45	H	0.214072	0.663130	0.097870
	H46	H	0.784989	0.336610	0.098129
	H47	H	0.786167	0.662195	0.902488
	H48	H	0.398353	0.117414	0.590247
	H49	H	0.590368	0.886617	0.589225
	H50	H	0.595602	0.114450	0.414334
	H51	H	0.403957	0.882798	0.405801
	H52	H	0.597809	0.401759	0.119150
	H53	H	0.594932	0.593074	0.883588
	H54	H	0.400658	0.590013	0.117291
	H55	H	0.407571	0.410464	0.885121
	H56	H	0.119686	0.595144	0.397701
	H57	H	0.885272	0.591605	0.591288
	H58	H	0.115239	0.409810	0.593705
	H59	H	0.881229	0.401533	0.402693
	H60	H	0.117277	0.405016	0.595097
	H61	H	0.882589	0.592287	0.597425
	H62	H	0.116959	0.600383	0.413936
	H63	H	0.885480	0.405110	0.414883
	H64	H	0.412170	0.590679	0.113407
	H65	H	0.593212	0.593396	0.883556
	H66	H	0.594484	0.412701	0.115066
	H67	H	0.411476	0.402464	0.884034
	H68	H	0.601132	0.119729	0.401350
	H69	H	0.598426	0.883967	0.591001
	H70	H	0.406187	0.118277	0.601867
	H71	H	0.408716	0.884000	0.404652
	H72	H	0.896208	0.615990	0.084735
	H73	H	0.100078	0.383965	0.087465
	H74	H	0.105005	0.617686	0.909644
	H75	H	0.906144	0.383743	0.906341
	H76	H	0.086159	0.913515	0.612477
	H77	H	0.094324	0.093058	0.383842
	H78	H	0.906804	0.096079	0.616363
	H79	H	0.904798	0.895802	0.380185
	H80	H	0.617002	0.090622	0.901205
	H81	H	0.382185	0.093081	0.098182
	H82	H	0.619804	0.903230	0.101010
	H83	H	0.380723	0.905367	0.897287
	H84	H	0.615088	0.899973	0.085379
	H85	H	0.383149	0.098136	0.091137
	H86	H	0.617881	0.099149	0.906277
	H87	H	0.382295	0.898180	0.911607
	H88	H	0.904212	0.094055	0.616813
	H89	H	0.091773	0.091008	0.385081
	H90	H	0.090364	0.897388	0.618713
	H91	H	0.898772	0.914043	0.383902
	H92	H	0.091582	0.617938	0.896050
	H93	H	0.093541	0.380656	0.102035
	H94	H	0.902269	0.620961	0.105677
	H95	H	0.906464	0.383091	0.906309
	H96	H	0.412382	0.113123	0.589814
	H97	H	0.592552	0.883550	0.597371
	H98	H	0.586409	0.115721	0.402231
	H99	H	0.406971	0.885166	0.408712
	H100	H	0.585749	0.403216	0.114839
	H101	H	0.594106	0.594522	0.882722
	H102	H	0.406747	0.600260	0.118339
	H103	H	0.402810	0.403623	0.882330
	H104	H	0.112549	0.584717	0.409239
	H105	H	0.882933	0.597585	0.593235
	H106	H	0.115632	0.406018	0.590183
	H107	H	0.885082	0.413751	0.405763
	H108	H	0.917197	0.611556	0.091212
	H109	H	0.084898	0.387050	0.089992
	H110	H	0.087654	0.611860	0.913689
	H111	H	0.906400	0.383171	0.906694
	H112	H	0.102407	0.909893	0.618636
	H113	H	0.090815	0.094303	0.383911
	H114	H	0.907191	0.092395	0.615717
	H115	H	0.917297	0.908604	0.387070
	H116	H	0.614597	0.091418	0.910616
	H117	H	0.385901	0.089609	0.090497
	H118	H	0.614278	0.915534	0.091628
	H119	H	0.387252	0.913243	0.910091
	C120	C	0.377805	0.008207	0.621677
	C121	C	0.621575	0.992693	0.620979
	C122	C	0.622233	0.008746	0.377484
	C123	C	0.378769	0.992090	0.378607
	C124	C	0.621326	0.377766	0.008298
	C125	C	0.621688	0.621395	0.991614
	C126	C	0.378385	0.621482	0.008324
	C127	C	0.378583	0.377890	0.991898
	C128	C	0.008423	0.621564	0.379066
	C129	C	0.991479	0.622210	0.622351
	C130	C	0.008213	0.378790	0.621706
	C131	C	0.991718	0.378437	0.378650
	C132	C	0.877302	0.508119	0.121974
	C133	C	0.121276	0.491807	0.121586
	C134	C	0.122779	0.507653	0.878125
	C135	C	0.878530	0.491223	0.878760
	C136	C	0.121420	0.878356	0.508555
	C137	C	0.121109	0.121446	0.492202
	C138	C	0.878301	0.121994	0.507727
	C139	C	0.878692	0.878423	0.492099
	C140	C	0.508263	0.121362	0.878446
	C141	C	0.491851	0.121628	0.121163
	C142	C	0.508081	0.878726	0.121111
	C143	C	0.491850	0.877861	0.877995
	C144	C	0.380915	0.885595	0.676189
	C145	C	0.617949	0.115245	0.675721
	C146	C	0.618910	0.885959	0.322671
	C147	C	0.382135	0.115195	0.324294
	C148	C	0.676423	0.381119	0.884959
	C149	C	0.675565	0.618077	0.115067
	C150	C	0.324338	0.617462	0.884654
	C151	C	0.323820	0.381921	0.115250
	C152	C	0.885090	0.676179	0.382149
	C153	C	0.114702	0.676667	0.618920
	C154	C	0.885145	0.323907	0.619338
	C155	C	0.114561	0.323496	0.380604
	C156	C	0.884956	0.382121	0.676686
	C157	C	0.115068	0.618637	0.676451
	C158	C	0.885041	0.618182	0.324697
	C159	C	0.114512	0.381530	0.323285
	C160	C	0.381239	0.676017	0.885103
	C161	C	0.618408	0.676390	0.114730
	C162	C	0.618939	0.323309	0.884961
	C163	C	0.380969	0.323538	0.115170
	C164	C	0.676643	0.885885	0.380663
	C165	C	0.675874	0.115286	0.617784
	C166	C	0.323156	0.885628	0.618648
	C167	C	0.323538	0.114896	0.381498
	C168	C	0.880758	0.385472	0.176508
	C169	C	0.117997	0.614491	0.176269
	C170	C	0.119421	0.385052	0.823170
	C171	C	0.882017	0.614126	0.824557
	C172	C	0.176372	0.881263	0.385201
	C173	C	0.175869	0.118626	0.615033
	C174	C	0.824797	0.118126	0.384399
	C175	C	0.823787	0.882212	0.615308
	C176	C	0.385072	0.175640	0.881725
	C177	C	0.614993	0.176367	0.118130
	C178	C	0.384871	0.824001	0.118409
	C179	C	0.615190	0.823473	0.881063
	C180	C	0.384762	0.882214	0.176030
	C181	C	0.615380	0.117969	0.175075
	C182	C	0.384830	0.117383	0.824724
	C183	C	0.615086	0.881324	0.823301
	C184	C	0.881508	0.176411	0.384681
	C185	C	0.118649	0.176902	0.614899
	C186	C	0.119370	0.822935	0.385679
	C187	C	0.881343	0.824367	0.615209
	C188	C	0.177316	0.384843	0.880979
	C189	C	0.176083	0.614491	0.118491
	C190	C	0.822993	0.385171	0.118678
	C191	C	0.823697	0.613725	0.881481
	C192	C	0.399329	0.094046	0.600338
	C193	C	0.600163	0.906749	0.599147
	C194	C	0.600541	0.094553	0.399421
	C195	C	0.400304	0.906319	0.400022
	C196	C	0.599217	0.399507	0.094121
	C197	C	0.600352	0.599935	0.905471
	C198	C	0.400024	0.599984	0.094217
	C199	C	0.400821	0.399283	0.905941
	C200	C	0.094279	0.599953	0.400626
	C201	C	0.905744	0.600290	0.600654
	C202	C	0.093965	0.400624	0.599593
	C203	C	0.906068	0.400361	0.401191
	C204	C	0.898740	0.594031	0.100288
	C205	C	0.099299	0.405912	0.099551
	C206	C	0.101103	0.593715	0.899976
	C207	C	0.900118	0.405434	0.900066
	C208	C	0.099422	0.900409	0.594522
	C209	C	0.098896	0.099403	0.406341
	C210	C	0.899749	0.100599	0.594072
	C211	C	0.900661	0.899841	0.405852
	C212	C	0.594296	0.099992	0.899677
	C213	C	0.405918	0.099934	0.099852
	C214	C	0.594239	0.900033	0.099192
	C215	C	0.405730	0.899120	0.899831
	Zn216	Zn	0.499758	0.000017	0.750076
	Zn217	Zn	0.499974	0.000512	0.249872
	Zn218	Zn	0.749808	0.499650	0.000132
	Zn219	Zn	0.250834	0.499994	0.000039
	Zn220	Zn	0.000109	0.750072	0.500442
	Zn221	Zn	-0.000200	0.250142	0.499974
	Zn222	Zn	0.000376	0.499939	0.750239
	Zn223	Zn	-0.000507	0.500352	0.250254
	Zn224	Zn	0.499902	0.749646	-0.000134
	Zn225	Zn	0.500095	0.249627	-0.000002
	Zn226	Zn	0.750568	0.000158	0.499469
	Zn227	Zn	0.249700	0.000195	0.499903
	N228	N	0.414371	0.962822	0.678134
	N229	N	0.584802	0.037869	0.677771
	N230	N	0.585912	0.963320	0.320833
	N231	N	0.415715	0.037923	0.322445
	N232	N	0.678126	0.414484	0.962641
	N233	N	0.677560	0.584486	0.037552
	N234	N	0.322475	0.584342	0.962252
	N235	N	0.322334	0.415012	0.037780
	N236	N	0.962704	0.678480	0.415214
	N237	N	0.037061	0.678742	0.585917
	N238	N	0.962718	0.321591	0.585961
	N239	N	0.037257	0.321667	0.414583
	N240	N	0.962389	0.415684	0.678023
	N241	N	0.037545	0.585372	0.678720
	N242	N	0.962615	0.584895	0.322821
	N243	N	0.036999	0.415006	0.322021
	N244	N	0.414056	0.678601	0.962857
	N245	N	0.585668	0.678415	0.037007
	N246	N	0.585523	0.321229	0.962473
	N247	N	0.414359	0.320993	0.037404
	N248	N	0.678838	0.963226	0.414165
	N249	N	0.678059	0.038004	0.584367
	N250	N	0.321004	0.963058	0.585608
	N251	N	0.321431	0.037503	0.414596
	N252	N	0.913840	0.462892	0.178498
	N253	N	0.084668	0.537368	0.178009
	N254	N	0.086185	0.462512	0.821343
	N255	N	0.915592	0.536936	0.823017
	N256	N	0.177692	0.915174	0.462648
	N257	N	0.177315	0.084845	0.537689
	N258	N	0.822899	0.084725	0.461888
	N259	N	0.822159	0.915267	0.537532
	N260	N	0.462861	0.178285	0.914291
	N261	N	0.537351	0.178422	0.085210
	N262	N	0.462496	0.821748	0.084931
	N263	N	0.537513	0.821413	0.914538
	N264	N	0.462262	0.915551	0.177577
	N265	N	0.537851	0.084646	0.177133
	N266	N	0.462390	0.084107	0.822753
	N267	N	0.537490	0.914297	0.821219
	N268	N	0.914013	0.179072	0.462584
	N269	N	0.085204	0.178691	0.537442
	N270	N	0.085872	0.821204	0.463229
	N271	N	0.914635	0.822021	0.537649
	N272	N	0.179284	0.462045	0.914565
	N273	N	0.178119	0.537014	0.085100
	N274	N	0.820929	0.462415	0.085384
	N275	N	0.821355	0.536340	0.914423
