data_Molecule from HDF5

_cell_length_a		16.504675
_cell_length_b		16.512076
_cell_length_c		16.637425
_cell_angle_alpha	90.013368
_cell_angle_beta	89.952693
_cell_angle_gamma	90.162016
_symmetry_space_group_name_H-M	'P 1'
_symmetry_Int_Tables_number		1

loop_
	_symmetry_equiv_pos_as_xyz
	x,y,z

loop_
	_atom_site_label
	_atom_site_type_symbol
	_atom_site_fract_x
	_atom_site_fract_y
	_atom_site_fract_z
	H0	H	0.388199	0.854454	0.699891
	H1	H	0.600670	0.168255	0.699980
	H2	H	0.600736	0.854451	0.255148
	H3	H	0.391004	0.168165	0.258223
	H4	H	0.717616	0.404478	0.823591
	H5	H	0.717902	0.618409	0.133483
	H6	H	0.272019	0.616733	0.822036
	H7	H	0.273705	0.407380	0.134410
	H8	H	0.836693	0.731677	0.374908
	H9	H	0.151510	0.734067	0.585313
	H10	H	0.836627	0.291085	0.583174
	H11	H	0.151610	0.292615	0.376323
	H12	H	0.836821	0.406254	0.700458
	H13	H	0.149845	0.619676	0.702637
	H14	H	0.838653	0.620199	0.254816
	H15	H	0.150729	0.407245	0.257590
	H16	H	0.388395	0.733473	0.822161
	H17	H	0.601079	0.734188	0.133412
	H18	H	0.599731	0.289099	0.822668
	H19	H	0.389830	0.290806	0.134174
	H20	H	0.713484	0.851737	0.374951
	H21	H	0.714129	0.169018	0.580484
	H22	H	0.274599	0.853387	0.581282
	H23	H	0.276110	0.169135	0.375844
	H24	H	0.888204	0.355166	0.200412
	H25	H	0.100191	0.669310	0.199412
	H26	H	0.098647	0.354411	0.757967
	H27	H	0.890007	0.668559	0.759073
	H28	H	0.218110	0.905404	0.322949
	H29	H	0.216633	0.117684	0.634884
	H30	H	0.774075	0.114854	0.322159
	H31	H	0.772089	0.906187	0.634212
	H32	H	0.337016	0.230838	0.874425
	H33	H	0.652672	0.230815	0.079473
	H34	H	0.336351	0.789422	0.082800
	H35	H	0.650756	0.789483	0.874329
	H36	H	0.337494	0.904946	0.200325
	H37	H	0.652283	0.115544	0.197252
	H38	H	0.338474	0.118318	0.755343
	H39	H	0.651141	0.905654	0.757425
	H40	H	0.888910	0.233918	0.322811
	H41	H	0.099434	0.233304	0.635574
	H42	H	0.102939	0.786894	0.323486
	H43	H	0.888355	0.788667	0.634152
	H44	H	0.211846	0.353289	0.876111
	H45	H	0.215398	0.669406	0.081826
	H46	H	0.773566	0.354189	0.083679
	H47	H	0.774791	0.668687	0.876703
	H48	H	0.398740	0.128792	0.573523
	H49	H	0.583449	0.898012	0.567423
	H50	H	0.583316	0.122479	0.388185
	H51	H	0.404901	0.896941	0.386141
	H52	H	0.584423	0.423211	0.089538
	H53	H	0.583620	0.601804	0.865817
	H54	H	0.410616	0.596318	0.086756
	H55	H	0.405997	0.422071	0.866830
	H56	H	0.109221	0.603537	0.385055
	H57	H	0.882025	0.600372	0.568120
	H58	H	0.106288	0.430782	0.573027
	H59	H	0.884967	0.426406	0.395658
	H60	H	0.110332	0.416975	0.572181
	H61	H	0.882601	0.599436	0.567062
	H62	H	0.105027	0.602491	0.396459
	H63	H	0.881052	0.427306	0.382837
	H64	H	0.406741	0.605949	0.091183
	H65	H	0.585526	0.596063	0.867786
	H66	H	0.581227	0.423147	0.089537
	H67	H	0.403059	0.416453	0.864322
	H68	H	0.585295	0.122490	0.388915
	H69	H	0.583638	0.897874	0.569307
	H70	H	0.416674	0.122188	0.572950
	H71	H	0.410283	0.899857	0.389047
	H72	H	0.905961	0.624461	0.066918
	H73	H	0.081319	0.400479	0.066904
	H74	H	0.083500	0.625462	0.888321
	H75	H	0.903587	0.396530	0.886653
	H76	H	0.078324	0.928169	0.585359
	H77	H	0.074716	0.102398	0.370975
	H78	H	0.904976	0.106619	0.592497
	H79	H	0.905692	0.918105	0.365491
	H80	H	0.607501	0.105306	0.891994
	H81	H	0.382907	0.100230	0.065972
	H82	H	0.606212	0.922018	0.066645
	H83	H	0.383142	0.922535	0.895306
	H84	H	0.605815	0.922586	0.066263
	H85	H	0.381168	0.097389	0.071873
	H86	H	0.604330	0.095139	0.891464
	H87	H	0.383350	0.928052	0.886911
	H88	H	0.899741	0.097842	0.590774
	H89	H	0.089692	0.110712	0.363180
	H90	H	0.079776	0.915992	0.590155
	H91	H	0.902477	0.923674	0.366710
	H92	H	0.083009	0.623466	0.889490
	H93	H	0.086298	0.398917	0.067889
	H94	H	0.908179	0.623457	0.067846
	H95	H	0.910352	0.400169	0.888059
	H96	H	0.405276	0.120289	0.557692
	H97	H	0.582539	0.898737	0.568485
	H98	H	0.584995	0.124004	0.387481
	H99	H	0.404377	0.899276	0.392355
	H100	H	0.582768	0.420737	0.090397
	H101	H	0.579564	0.598006	0.869287
	H102	H	0.399608	0.597267	0.089668
	H103	H	0.399428	0.421790	0.864792
	H104	H	0.104537	0.592359	0.388782
	H105	H	0.882137	0.599017	0.568457
	H106	H	0.103327	0.423012	0.561215
	H107	H	0.879062	0.416146	0.389751
	H108	H	0.907620	0.622960	0.066016
	H109	H	0.082374	0.398550	0.071708
	H110	H	0.084728	0.624673	0.889756
	H111	H	0.904892	0.399567	0.892903
	H112	H	0.089629	0.925174	0.590613
	H113	H	0.090561	0.092337	0.368860
	H114	H	0.909445	0.098526	0.587995
	H115	H	0.908824	0.923482	0.369409
	H116	H	0.609334	0.099840	0.882950
	H117	H	0.379038	0.103922	0.070370
	H118	H	0.606103	0.922969	0.067438
	H119	H	0.379978	0.918738	0.886666
	C120	C	0.373881	0.019676	0.599691
	C121	C	0.615856	1.002470	0.599864
	C122	C	0.616382	0.019059	0.356406
	C123	C	0.374512	1.002699	0.357776
	C124	C	0.615267	0.390030	-0.013185
	C125	C	0.615866	0.632263	0.970100
	C126	C	0.373338	0.631906	-0.014168
	C127	C	0.372037	0.389230	0.969069
	C128	C	0.003092	0.632730	0.357512
	C129	C	0.985945	0.632996	0.600388
	C130	C	0.002625	0.390869	0.600725
	C131	C	0.985484	0.391011	0.357539
	C132	C	0.873999	0.519909	0.099604
	C133	C	0.115981	0.503090	0.100399
	C134	C	0.115351	0.520530	0.857335
	C135	C	0.873810	0.502672	0.857857
	C136	C	0.116042	0.889979	0.486389
	C137	C	0.116343	0.133400	0.471048
	C138	C	0.872897	0.133216	0.487097
	C139	C	0.873025	0.889259	0.470159
	C140	C	0.503253	0.132562	0.856811
	C141	C	0.485708	0.132450	0.099611
	C142	C	0.502569	0.889458	0.099734
	C143	C	0.485975	0.890119	0.857379
	C144	C	0.370612	0.901451	0.659485
	C145	C	0.618504	0.121090	0.659465
	C146	C	0.618707	0.901082	0.295982
	C147	C	0.372590	0.121208	0.298239
	C148	C	0.676868	0.386568	0.870113
	C149	C	0.677091	0.636216	0.086955
	C150	C	0.312600	0.634596	0.868743
	C151	C	0.313294	0.388499	0.087237
	C152	C	0.884363	0.692426	0.355800
	C153	C	0.104049	0.693930	0.603223
	C154	C	0.884042	0.330854	0.602125
	C155	C	0.104350	0.332016	0.356971
	C156	C	0.884287	0.387959	0.660588
	C157	C	0.103262	0.637078	0.661757
	C158	C	0.885200	0.636528	0.296314
	C159	C	0.103778	0.388448	0.297759
	C160	C	0.370297	0.692938	0.868774
	C161	C	0.618827	0.693717	0.086871
	C162	C	0.617880	0.329509	0.869592
	C163	C	0.370920	0.330373	0.087156
	C164	C	0.674782	0.899870	0.355528
	C165	C	0.675153	0.121399	0.600433
	C166	C	0.313765	0.901182	0.600745
	C167	C	0.315394	0.121461	0.356583
	C168	C	0.870795	0.402272	0.160095
	C169	C	0.118638	0.621874	0.159722
	C170	C	0.117061	0.401836	0.797904
	C171	C	0.871550	0.621331	0.798854
	C172	C	0.177739	0.887065	0.369662
	C173	C	0.176285	0.135711	0.588246
	C174	C	0.814048	0.134122	0.369059
	C175	C	0.812387	0.887276	0.587500
	C176	C	0.384727	0.191828	0.855167
	C177	C	0.605129	0.191285	0.099278
	C178	C	0.383997	0.829107	0.101763
	C179	C	0.603960	0.829957	0.855770
	C180	C	0.384449	0.886656	0.159958
	C181	C	0.605077	0.133974	0.157538
	C182	C	0.385459	0.135505	0.796033
	C183	C	0.604106	0.887355	0.797553
	C184	C	0.871168	0.193214	0.369544
	C185	C	0.118022	0.193435	0.588382
	C186	C	0.120208	0.828256	0.369818
	C187	C	0.870192	0.829016	0.587494
	C188	C	0.173312	0.401166	0.856858
	C189	C	0.175676	0.622043	0.101163
	C190	C	0.813219	0.401845	0.102343
	C191	C	0.814435	0.621365	0.857206
	C192	C	0.399553	0.102390	0.575229
	C193	C	0.590582	0.919877	0.575464
	C194	C	0.591737	0.101614	0.381152
	C195	C	0.399463	0.920255	0.382248
	C196	C	0.589982	0.415219	0.068539
	C197	C	0.590185	0.606083	0.888767
	C198	C	0.398632	0.606956	0.067694
	C199	C	0.396137	0.413147	0.886600
	C200	C	0.084946	0.606860	0.382876
	C201	C	0.903682	0.607082	0.575072
	C202	C	0.085290	0.416373	0.575949
	C203	C	0.903184	0.416116	0.382109
	C204	C	0.899752	0.602327	0.074176
	C205	C	0.090669	0.420776	0.076008
	C206	C	0.090760	0.602988	0.881935
	C207	C	0.899028	0.420194	0.882344
	C208	C	0.089948	0.915826	0.567619
	C209	C	0.091995	0.108879	0.388972
	C210	C	0.897684	0.108222	0.569192
	C211	C	0.898519	0.914481	0.388474
	C212	C	0.585639	0.107277	0.881771
	C213	C	0.402762	0.107762	0.076082
	C214	C	0.584721	0.915203	0.074268
	C215	C	0.403531	0.915771	0.882441
	Zn216	Zn	0.494830	0.011186	0.728697
	Zn217	Zn	0.494542	0.011160	0.228163
	Zn218	Zn	0.745003	0.511040	-0.020907
	Zn219	Zn	0.243508	0.511289	-0.021772
	Zn220	Zn	-0.005441	0.760792	0.478563
	Zn221	Zn	-0.005676	0.262674	0.479439
	Zn222	Zn	-0.005684	0.511738	0.729135
	Zn223	Zn	-0.005507	0.512293	0.228744
	Zn224	Zn	0.494266	0.761377	-0.021762
	Zn225	Zn	0.494267	0.260799	-0.021497
	Zn226	Zn	0.744301	0.010921	0.477840
	Zn227	Zn	0.245454	0.011731	0.478564
	N228	N	0.407280	0.976178	0.659065
	N229	N	0.582519	0.045994	0.659458
	N230	N	0.583283	0.976156	0.296308
	N231	N	0.408449	0.046266	0.298608
	N232	N	0.675235	0.423608	0.944038
	N233	N	0.675291	0.598404	0.013425
	N234	N	0.314299	0.597468	0.942562
	N235	N	0.313529	0.424015	0.012678
	N236	N	0.958679	0.690360	0.392963
	N237	N	0.029938	0.691455	0.565664
	N238	N	0.958852	0.332437	0.565754
	N239	N	0.029688	0.333113	0.393133
	N240	N	0.959131	0.424571	0.659883
	N241	N	0.028737	0.600173	0.660385
	N242	N	0.959975	0.599981	0.297276
	N243	N	0.028888	0.424401	0.297971
	N244	N	0.407243	0.691554	0.942778
	N245	N	0.581555	0.691483	0.013076
	N246	N	0.580273	0.331547	0.943187
	N247	N	0.406587	0.330403	0.012543
	N248	N	0.673564	0.974422	0.392377
	N249	N	0.673886	0.046565	0.564336
	N250	N	0.315541	0.975870	0.564618
	N251	N	0.316357	0.046833	0.392780
	N252	N	0.907694	0.476851	0.158722
	N253	N	0.082393	0.546751	0.159614
	N254	N	0.082103	0.477189	0.797781
	N255	N	0.907645	0.546516	0.799213
	N256	N	0.175197	0.924833	0.443168
	N257	N	0.175493	0.099108	0.514167
	N258	N	0.815105	0.097348	0.443120
	N259	N	0.813780	0.923826	0.513525
	N260	N	0.459063	0.190321	0.892129
	N261	N	0.529926	0.190372	0.063957
	N262	N	0.458508	0.830866	0.064825
	N263	N	0.529403	0.831684	0.892189
	N264	N	0.459188	0.923301	0.158966
	N265	N	0.529717	0.098494	0.158297
	N266	N	0.460265	0.099300	0.796981
	N267	N	0.529561	0.924123	0.798539
	N268	N	0.907025	0.192755	0.444096
	N269	N	0.081288	0.192058	0.514542
	N270	N	0.082501	0.829943	0.443396
	N271	N	0.907113	0.830185	0.513557
	N272	N	0.172680	0.476083	0.892889
	N273	N	0.174281	0.547344	0.065027
	N274	N	0.815251	0.476234	0.065277
	N275	N	0.815363	0.546410	0.892959
	O276	O	0.790346	1.209307	-0.049613
	H277	H	0.810023	1.208731	-0.050940
	H278	H	0.779828	1.218059	-0.039326
	O279	O	0.289126	0.294380	0.689240
	H280	H	0.324872	0.285462	0.686640
	H281	H	0.286806	0.327608	0.703593
	O282	O	0.466951	0.300733	0.689535
	H283	H	0.477618	0.300904	0.700877
	H284	H	0.481754	0.302658	0.693776
	O285	O	0.335236	0.510028	0.435801
	H286	H	0.337805	0.509266	0.431313
	H287	H	0.338485	0.497558	0.425572
	O288	O	1.524458	-0.277459	0.694136
	H289	H	1.524485	-0.269026	0.719311
	H290	H	1.544655	-0.280772	0.696100
	O291	O	1.113698	0.803659	0.987264
	H292	H	1.119717	0.802723	1.007987
	H293	H	1.112352	0.806659	0.988320
	O294	O	-0.005460	-0.027997	0.024287
	H295	H	-0.011746	-0.026393	0.017814
	H296	H	-0.014663	-0.031414	0.030620
	O297	O	0.958248	-0.065661	-0.167625
	H298	H	0.970449	-0.057848	-0.151963
	H299	H	0.940896	-0.052576	-0.183713
	O300	O	0.709160	0.487669	0.263820
	H301	H	0.714320	0.467907	0.248622
	H302	H	0.709001	0.475594	0.249145
	O303	O	-0.376004	-0.548456	-0.500537
	H304	H	-0.375416	-0.547212	-0.480739
	H305	H	-0.382571	-0.548949	-0.503468
	O306	O	0.798845	-0.184216	0.174280
	H307	H	0.811699	-0.185885	0.189225
	H308	H	0.793306	-0.188101	0.128039
	O309	O	0.701988	0.304532	0.438960
	H310	H	0.706183	0.302671	0.442659
	H311	H	0.717174	0.315067	0.446984
	O312	O	0.204360	0.848280	0.855769
	H313	H	0.222448	0.850539	0.860486
	H314	H	0.206081	0.848106	0.885186
	O315	O	0.698903	0.714087	0.684410
	H316	H	0.708625	0.741689	0.706023
	H317	H	0.704284	0.721058	0.630840
	O318	O	0.902692	0.171026	0.146319
	H319	H	0.901196	0.162420	0.132437
	H320	H	0.918059	0.154804	0.133854
	O321	O	0.107553	1.085660	1.202135
	H322	H	0.105450	1.104485	1.209136
	H323	H	0.128550	1.098095	1.211237
	O324	O	1.008979	-0.117563	0.816534
	H325	H	1.003612	-0.104201	0.797853
	H326	H	1.008711	-0.132456	0.818058
	O327	O	0.530192	0.621799	0.369573
	H328	H	0.520825	0.626316	0.380755
	H329	H	0.524541	0.630850	0.352069
	O330	O	1.432612	1.511405	-0.455955
	H331	H	1.440079	1.510677	-0.463638
	H332	H	1.430283	1.521153	-0.447794
	O333	O	0.975154	0.165578	1.069018
	H334	H	0.993510	0.152391	1.077110
	H335	H	0.986131	0.163086	1.078144
	O336	O	0.192064	1.020528	-0.045297
	H337	H	0.203408	1.007712	-0.062336
	H338	H	0.184164	1.025873	-0.047786
	O339	O	0.275372	0.479465	0.698778
	H340	H	0.257622	0.477032	0.712636
	H341	H	0.270398	0.497945	0.697317
	O342	O	-0.161499	0.859389	0.782192
	H343	H	-0.150436	0.878146	0.798608
	H344	H	-0.155014	0.869822	0.793924
	O345	O	1.118425	0.188905	0.849695
	H346	H	1.119890	0.177225	0.852300
	H347	H	1.128376	0.194644	0.828520
	O348	O	-0.046084	1.010532	-0.054099
	H349	H	-0.028871	1.017987	-0.078939
	H350	H	-0.030902	1.001257	-0.058090
	O351	O	-0.031161	0.219438	0.768478
	H352	H	-0.022761	0.227086	0.778134
	H353	H	-0.019747	0.220346	0.753079
	O354	O	0.995592	0.221172	1.183798
	H355	H	1.001826	0.215069	1.192996
	H356	H	1.003293	0.223334	1.195257
	O357	O	0.529162	0.456395	0.443787
	H358	H	0.534064	0.457329	0.439684
	H359	H	0.543922	0.465043	0.445571
	O360	O	0.666657	0.548336	0.394601
	H361	H	0.662275	0.535550	0.370305
	H362	H	0.668240	0.539309	0.403318
	O363	O	0.144196	1.037261	1.075150
	H364	H	0.137337	1.048698	1.089551
	H365	H	0.132725	1.044587	1.060786
	O366	O	0.403748	0.638180	1.556209
	H367	H	0.417159	0.637696	1.552793
	H368	H	0.397464	0.647019	1.558203
	O369	O	-0.019048	-0.173052	1.194649
	H370	H	-0.027866	-0.188375	1.217003
	H371	H	-0.008963	-0.168764	1.196086
	O372	O	0.190121	0.879616	1.096024
	H373	H	0.198804	0.892701	1.089512
	H374	H	0.190427	0.884592	1.113744
	O375	O	1.054575	-0.021701	0.147768
	H376	H	1.069426	-0.011667	0.154137
	H377	H	1.048371	-0.021670	0.155901
	O378	O	0.542820	0.597152	0.275004
	H379	H	0.527867	0.586619	0.277964
	H380	H	0.547149	0.593603	0.275730
	O381	O	-0.453649	0.497205	0.329584
	H382	H	-0.448339	0.494984	0.327203
	H383	H	-0.451929	0.495282	0.338412
	O384	O	0.698184	0.712234	0.505737
	H385	H	0.705374	0.707961	0.482320
	H386	H	0.689582	0.720239	0.484205
	O387	O	0.529077	1.295146	1.258773
	H388	H	0.548378	1.291649	1.252832
	H389	H	0.531442	1.286610	1.243662
	O390	O	-0.200751	1.204993	0.782427
	H391	H	-0.193577	1.216413	0.798349
	H392	H	-0.186207	1.221502	0.779445
	O393	O	1.141905	-0.189008	-0.223713
	H394	H	1.154720	-0.182706	-0.202064
	H395	H	1.105059	-0.188256	-0.228159
	O396	O	0.279731	0.313908	0.495097
	H397	H	0.286147	0.304079	0.521205
	H398	H	0.270963	0.294991	0.509243
	O399	O	0.405386	0.718983	0.445163
	H400	H	0.402147	0.708615	0.455040
	H401	H	0.411313	0.715199	0.446467
	O402	O	0.931409	-0.197356	0.919383
	H403	H	0.930475	-0.193648	0.943265
	H404	H	0.926503	-0.199666	0.913818
	O405	O	0.299724	0.688329	0.284181
	H406	H	0.297662	0.687929	0.314911
	H407	H	0.311648	0.664059	0.291749
	O408	O	0.783035	0.982884	1.194821
	H409	H	0.766146	0.956464	1.203935
	H410	H	0.764382	0.981869	1.184612
	O411	O	1.033230	1.097078	-0.104878
	H412	H	1.040455	1.102036	-0.095114
	H413	H	1.045249	1.091289	-0.113260
	O414	O	0.212973	0.004786	-0.211530
	H415	H	0.228976	-0.004636	-0.229500
	H416	H	0.212123	-0.029718	-0.200784
	O417	O	0.201480	0.218498	1.189435
	H418	H	0.173254	0.223012	1.170994
	H419	H	0.224805	0.235743	1.205793
	O420	O	0.796827	-0.039105	0.925377
	H421	H	0.790511	-0.023215	0.906453
	H422	H	0.806858	-0.029897	0.925637
	O423	O	1.402218	0.711501	0.581860
	H424	H	1.404581	0.714610	0.593422
	H425	H	1.398217	0.723083	0.583395
	O426	O	0.357397	0.461962	0.389986
	H427	H	0.368072	0.460167	0.400848
	H428	H	0.347919	0.451358	0.406278
	O429	O	0.939418	1.082218	0.141975
	H430	H	0.928163	1.068989	0.145838
	H431	H	0.922903	1.077462	0.138212
	O432	O	1.471739	-0.280713	1.261781
	H433	H	1.450150	-0.284266	1.258168
	H434	H	1.474002	-0.270976	1.240469
	O435	O	-0.498448	-0.450470	0.545354
	H436	H	-0.493560	-0.457294	0.539513
	H437	H	-0.510509	-0.446316	0.553827
	O438	O	0.484410	0.550201	0.683669
	H439	H	0.489932	0.557820	0.668519
	H440	H	0.481668	0.562710	0.700992
	O441	O	0.678536	0.320578	0.303931
	H442	H	0.694667	0.296378	0.280206
	H443	H	0.678624	0.321886	0.336591
	O444	O	0.488314	0.301875	0.486127
	H445	H	0.497516	0.299484	0.468413
	H446	H	0.488854	0.301578	0.483348
	O447	O	0.638624	0.469900	0.596935
	H448	H	0.657260	0.485072	0.603118
	H449	H	0.631475	0.484650	0.607284
	O450	O	1.692539	-0.440500	0.684455
	H451	H	1.717819	-0.434875	0.705584
	H452	H	1.693575	-0.398328	0.678707
	O453	O	0.787444	-0.194064	1.006495
	H454	H	0.798734	-0.184991	0.988777
	H455	H	0.774030	-0.198431	0.994259
	O456	O	0.057241	1.094460	0.788285
	H457	H	0.076375	1.079223	0.786295
	H458	H	0.063007	1.095081	0.781907
	O459	O	0.297385	0.587657	0.576236
	H460	H	0.308926	0.576635	0.561847
	H461	H	0.294754	0.582481	0.565421
	O462	O	0.645330	0.316928	0.625618
	H463	H	0.633284	0.336250	0.619232
	H464	H	0.624900	0.317005	0.617455
	O465	O	0.304406	0.326327	0.286531
	H466	H	0.316030	0.329435	0.298660
	H467	H	0.318337	0.337460	0.301048
	O468	O	0.207818	1.216053	0.021216
	H469	H	0.222145	1.222902	0.031773
	H470	H	0.214089	1.215274	0.014485
	O471	O	0.279233	0.535603	0.281109
	H472	H	0.275677	0.542587	0.271676
	H473	H	0.273630	0.526386	0.280515
	O474	O	0.782220	1.050366	0.032596
	H475	H	0.780822	1.043382	0.023511
	H476	H	0.795602	1.049952	0.025678
	O477	O	-0.225078	0.040535	0.759715
	H478	H	-0.219598	0.077048	0.763729
	H479	H	-0.251674	0.057771	0.736587
