data_Molecule from HDF5

_cell_length_a		16.223827
_cell_length_b		16.382338
_cell_length_c		16.227372
_cell_angle_alpha	90.060477
_cell_angle_beta	89.854775
_cell_angle_gamma	90.019712
_symmetry_space_group_name_H-M	'P 1'
_symmetry_Int_Tables_number		1

loop_
	_symmetry_equiv_pos_as_xyz
	x,y,z

loop_
	_atom_site_label
	_atom_site_type_symbol
	_atom_site_fract_x
	_atom_site_fract_y
	_atom_site_fract_z
	H0	H	0.398548	0.832268	0.712134
	H1	H	0.597994	0.157534	0.711354
	H2	H	0.597057	0.831869	0.280540
	H3	H	0.400489	0.158205	0.281676
	H4	H	0.714949	0.396964	0.831052
	H5	H	0.713261	0.590937	0.160123
	H6	H	0.288235	0.593230	0.830480
	H7	H	0.286383	0.397724	0.159425
	H8	H	0.836368	0.708841	0.394787
	H9	H	0.162626	0.711585	0.596544
	H10	H	0.835958	0.280116	0.595083
	H11	H	0.163122	0.277462	0.394426
	H12	H	0.836379	0.396235	0.709904
	H13	H	0.165390	0.592151	0.706874
	H14	H	0.836186	0.590330	0.282306
	H15	H	0.164688	0.396296	0.280891
	H16	H	0.401152	0.711469	0.832358
	H17	H	0.601230	0.710918	0.158857
	H18	H	0.601508	0.279384	0.831812
	H19	H	0.398455	0.278648	0.158302
	H20	H	0.714744	0.832074	0.396142
	H21	H	0.713830	0.157477	0.594141
	H22	H	0.284730	0.831066	0.594557
	H23	H	0.283911	0.157375	0.398026
	H24	H	0.901357	0.331293	0.208889
	H25	H	0.100502	0.657254	0.210994
	H26	H	0.100720	0.331376	0.779275
	H27	H	0.903129	0.657126	0.780128
	H28	H	0.214140	0.894957	0.332014
	H29	H	0.211238	0.091261	0.661480
	H30	H	0.787046	0.089801	0.331481
	H31	H	0.783958	0.895568	0.659862
	H32	H	0.337156	0.211524	0.894785
	H33	H	0.664451	0.209094	0.094449
	H34	H	0.336788	0.778545	0.097085
	H35	H	0.664596	0.781316	0.895640
	H36	H	0.334967	0.898345	0.208987
	H37	H	0.664304	0.093300	0.209506
	H38	H	0.334871	0.091793	0.783589
	H39	H	0.662909	0.896065	0.779199
	H40	H	0.898439	0.209022	0.332315
	H41	H	0.099121	0.210411	0.659162
	H42	H	0.100132	0.777676	0.332567
	H43	H	0.896713	0.776650	0.658716
	H44	H	0.217279	0.332206	0.895433
	H45	H	0.215689	0.658132	0.093017
	H46	H	0.785386	0.332054	0.093374
	H47	H	0.786454	0.657457	0.896788
	H48	H	0.410407	0.105024	0.578120
	H49	H	0.588870	0.877164	0.598172
	H50	H	0.584023	0.111732	0.389957
	H51	H	0.399856	0.877504	0.402019
	H52	H	0.600237	0.394346	0.117543
	H53	H	0.592668	0.585705	0.879643
	H54	H	0.394859	0.588086	0.115881
	H55	H	0.409795	0.407311	0.880605
	H56	H	0.115684	0.583684	0.402692
	H57	H	0.883759	0.584584	0.587275
	H58	H	0.114653	0.401575	0.580553
	H59	H	0.885163	0.400399	0.411543
	H60	H	0.117340	0.404667	0.591461
	H61	H	0.882839	0.586911	0.589198
	H62	H	0.118468	0.588912	0.402315
	H63	H	0.884011	0.408364	0.396603
	H64	H	0.414556	0.574141	0.105380
	H65	H	0.591608	0.591848	0.877462
	H66	H	0.595570	0.410775	0.109635
	H67	H	0.414600	0.398840	0.879169
	H68	H	0.587937	0.105500	0.414865
	H69	H	0.581337	0.884455	0.581270
	H70	H	0.392040	0.114304	0.589787
	H71	H	0.408149	0.877959	0.396484
	H72	H	0.908513	0.610746	0.090806
	H73	H	0.094484	0.379827	0.086676
	H74	H	0.090700	0.608260	0.903930
	H75	H	0.913436	0.382422	0.909270
	H76	H	0.089163	0.901274	0.612020
	H77	H	0.096073	0.085482	0.378649
	H78	H	0.901040	0.085131	0.614366
	H79	H	0.908653	0.896623	0.378465
	H80	H	0.616069	0.080558	0.898728
	H81	H	0.385741	0.086818	0.079755
	H82	H	0.614546	0.910299	0.088086
	H83	H	0.378703	0.886665	0.905233
	H84	H	0.620296	0.898574	0.096106
	H85	H	0.382620	0.082718	0.094718
	H86	H	0.619649	0.095073	0.899650
	H87	H	0.389253	0.907801	0.917832
	H88	H	0.911256	0.084866	0.610921
	H89	H	0.088452	0.082628	0.382384
	H90	H	0.090614	0.899965	0.612755
	H91	H	0.902961	0.901679	0.378096
	H92	H	0.099858	0.611625	0.902706
	H93	H	0.094118	0.379648	0.087381
	H94	H	0.908450	0.609540	0.087178
	H95	H	0.897170	0.375970	0.903341
	H96	H	0.413232	0.111363	0.600127
	H97	H	0.600436	0.878034	0.582966
	H98	H	0.607852	0.114931	0.400863
	H99	H	0.408131	0.881108	0.405904
	H100	H	0.582726	0.397307	0.110195
	H101	H	0.597793	0.589800	0.877193
	H102	H	0.418171	0.598629	0.112819
	H103	H	0.404733	0.399949	0.876485
	H104	H	0.115842	0.587288	0.407561
	H105	H	0.883203	0.588047	0.587258
	H106	H	0.119121	0.393675	0.587214
	H107	H	0.878606	0.392323	0.398051
	H108	H	0.905108	0.610485	0.088810
	H109	H	0.092970	0.379590	0.087237
	H110	H	0.093484	0.610866	0.895273
	H111	H	0.911625	0.376907	0.892078
	H112	H	0.091261	0.901971	0.612890
	H113	H	0.088704	0.090770	0.378231
	H114	H	0.906739	0.094372	0.614423
	H115	H	0.909630	0.903488	0.381111
	H116	H	0.613929	0.086661	0.911455
	H117	H	0.380470	0.096904	0.089510
	H118	H	0.616465	0.897039	0.081710
	H119	H	0.381626	0.909139	0.891748
	C120	C	0.376345	0.002546	0.618227
	C121	C	0.619832	0.986939	0.616895
	C122	C	0.621572	0.003259	0.373096
	C123	C	0.376709	0.986570	0.373560
	C124	C	0.622183	0.372633	0.004192
	C125	C	0.622491	0.617024	0.986970
	C126	C	0.380055	0.616224	0.003551
	C127	C	0.379792	0.373609	0.986932
	C128	C	0.008637	0.615053	0.374506
	C129	C	0.991834	0.615503	0.616414
	C130	C	0.008858	0.372430	0.616357
	C131	C	0.991185	0.372014	0.373318
	C132	C	0.878452	0.502665	0.117138
	C133	C	0.122905	0.486836	0.116462
	C134	C	0.123479	0.502961	0.872104
	C135	C	0.879142	0.486340	0.873177
	C136	C	0.119989	0.872312	0.504191
	C137	C	0.119693	0.114948	0.488148
	C138	C	0.877645	0.116036	0.504757
	C139	C	0.877296	0.871914	0.487406
	C140	C	0.508320	0.116000	0.874414
	C141	C	0.491571	0.116757	0.116796
	C142	C	0.508391	0.873315	0.117662
	C143	C	0.491149	0.872892	0.874626
	C144	C	0.378767	0.880529	0.673628
	C145	C	0.617873	0.109103	0.672844
	C146	C	0.618026	0.880557	0.318047
	C147	C	0.379828	0.109191	0.319262
	C148	C	0.677048	0.376179	0.880275
	C149	C	0.676462	0.612840	0.110721
	C150	C	0.325243	0.613880	0.879853
	C151	C	0.323573	0.376391	0.110077
	C152	C	0.885341	0.670679	0.375361
	C153	C	0.114172	0.672495	0.615366
	C154	C	0.885081	0.317724	0.614915
	C155	C	0.114517	0.316311	0.374973
	C156	C	0.885171	0.375562	0.671830
	C157	C	0.115591	0.612999	0.670354
	C158	C	0.885206	0.611864	0.319277
	C159	C	0.115293	0.374935	0.318317
	C160	C	0.381644	0.672190	0.880622
	C161	C	0.620981	0.672358	0.110021
	C162	C	0.621047	0.317464	0.880705
	C163	C	0.379886	0.317613	0.109806
	C164	C	0.676242	0.880440	0.375779
	C165	C	0.675690	0.109064	0.614886
	C166	C	0.321695	0.880067	0.615439
	C167	C	0.321918	0.108953	0.377333
	C168	C	0.881075	0.380344	0.171728
	C169	C	0.121076	0.608785	0.172919
	C170	C	0.121301	0.380203	0.817087
	C171	C	0.882404	0.608667	0.818046
	C172	C	0.176047	0.874654	0.381028
	C173	C	0.174227	0.112123	0.611959
	C174	C	0.823869	0.111574	0.380690
	C175	C	0.821548	0.874366	0.610792
	C176	C	0.385596	0.172636	0.875510
	C177	C	0.615209	0.171390	0.114797
	C178	C	0.385491	0.817268	0.116261
	C179	C	0.614921	0.818454	0.875274
	C180	C	0.384325	0.876992	0.171733
	C181	C	0.615088	0.113764	0.171904
	C182	C	0.384442	0.113372	0.820061
	C183	C	0.614387	0.875999	0.817918
	C184	C	0.878978	0.171052	0.381373
	C185	C	0.118305	0.171147	0.610979
	C186	C	0.119241	0.816451	0.381241
	C187	C	0.878073	0.815871	0.610149
	C188	C	0.179289	0.380662	0.874702
	C189	C	0.178220	0.609349	0.114224
	C190	C	0.823370	0.380485	0.113924
	C191	C	0.824325	0.608758	0.875937
	C192	C	0.398598	0.088133	0.595896
	C193	C	0.597124	0.901958	0.593930
	C194	C	0.599769	0.088489	0.395289
	C195	C	0.398812	0.900988	0.395077
	C196	C	0.599496	0.394481	0.090313
	C197	C	0.600480	0.595408	0.900539
	C198	C	0.402569	0.593497	0.089384
	C199	C	0.403016	0.395651	0.900911
	C200	C	0.094382	0.592973	0.397338
	C201	C	0.905468	0.593133	0.594360
	C202	C	0.094915	0.393814	0.593212
	C203	C	0.904934	0.393966	0.395429
	C204	C	0.900778	0.588376	0.095305
	C205	C	0.100522	0.401797	0.093693
	C206	C	0.100959	0.588194	0.893968
	C207	C	0.900900	0.400570	0.895124
	C208	C	0.096904	0.894528	0.590316
	C209	C	0.097553	0.092785	0.402039
	C210	C	0.899745	0.094243	0.590893
	C211	C	0.900282	0.894173	0.401415
	C212	C	0.594191	0.093827	0.896658
	C213	C	0.405386	0.095169	0.094676
	C214	C	0.594785	0.895427	0.095186
	C215	C	0.405307	0.894651	0.898063
	Zn216	Zn	0.498358	-0.005338	0.746393
	Zn217	Zn	0.499420	-0.004425	0.244698
	Zn218	Zn	0.749801	0.494587	-0.004735
	Zn219	Zn	0.251705	0.495104	-0.005583
	Zn220	Zn	-0.000912	0.743788	0.495782
	Zn221	Zn	-0.000793	0.244191	0.495493
	Zn222	Zn	0.000963	0.493845	0.743972
	Zn223	Zn	0.000689	0.494298	0.245546
	Zn224	Zn	0.500870	0.744742	-0.004246
	Zn225	Zn	0.500528	0.244924	-0.004834
	Zn226	Zn	0.749666	-0.005843	0.496335
	Zn227	Zn	0.248349	-0.005829	0.496522
	N228	N	0.411901	0.957814	0.675559
	N229	N	0.583772	0.032119	0.674169
	N230	N	0.584803	0.957884	0.316346
	N231	N	0.413266	0.032105	0.316978
	N232	N	0.677835	0.409973	0.957898
	N233	N	0.677532	0.579077	0.033130
	N234	N	0.324364	0.579447	0.957350
	N235	N	0.323667	0.410800	0.032721
	N236	N	0.963054	0.672900	0.408815
	N237	N	0.036242	0.673855	0.582242
	N238	N	0.962742	0.315970	0.580866
	N239	N	0.036263	0.314096	0.408049
	N240	N	0.963033	0.408908	0.672796
	N241	N	0.038377	0.578145	0.671073
	N242	N	0.962703	0.577886	0.318756
	N243	N	0.037809	0.408918	0.317086
	N244	N	0.414845	0.673743	0.958397
	N245	N	0.588214	0.674931	0.032062
	N246	N	0.587540	0.315192	0.958678
	N247	N	0.413880	0.315769	0.032116
	N248	N	0.678598	0.957472	0.409330
	N249	N	0.676935	0.032112	0.581019
	N250	N	0.320123	0.957165	0.581767
	N251	N	0.319705	0.031616	0.410193
	N252	N	0.914987	0.457360	0.173516
	N253	N	0.087392	0.531694	0.174378
	N254	N	0.087563	0.457320	0.815104
	N255	N	0.915552	0.531372	0.816132
	N256	N	0.176703	0.908682	0.458563
	N257	N	0.175172	0.077679	0.534542
	N258	N	0.822530	0.078175	0.458490
	N259	N	0.820872	0.908442	0.533401
	N260	N	0.463643	0.174288	0.908560
	N261	N	0.537532	0.173353	0.081148
	N262	N	0.463890	0.815110	0.083183
	N263	N	0.537613	0.816619	0.909983
	N264	N	0.461738	0.910802	0.172855
	N265	N	0.537163	0.080419	0.173319
	N266	N	0.461570	0.078795	0.819213
	N267	N	0.536230	0.909104	0.817133
	N268	N	0.911732	0.173934	0.459410
	N269	N	0.085237	0.173056	0.533050
	N270	N	0.085198	0.814925	0.458930
	N271	N	0.911722	0.813983	0.532361
	N272	N	0.180936	0.457802	0.908096
	N273	N	0.179338	0.532663	0.079780
	N274	N	0.821793	0.457562	0.080634
	N275	N	0.822425	0.531713	0.909550
	O276	O	1.034632	1.057838	0.016424
	H277	H	1.036243	1.062215	0.009038
	H278	H	1.043912	1.053708	0.021009
	O279	O	0.406082	0.555123	0.472004
	H280	H	0.395039	0.553997	0.491257
	H281	H	0.407430	0.555905	0.453301
	O282	O	-0.037826	-0.061510	0.066161
	H283	H	-0.036680	-0.064175	0.072406
	H284	H	-0.029533	-0.055832	0.070354
	O285	O	0.542614	0.527321	0.549520
	H286	H	0.547177	0.526954	0.550799
	H287	H	0.547281	0.531046	0.547515
	O288	O	0.031137	0.018315	0.088449
	H289	H	0.031874	0.020183	0.096944
	H290	H	0.037768	0.021639	0.079572
	O291	O	0.037322	1.011038	0.021851
	H292	H	0.031569	1.017062	0.010084
	H293	H	0.032268	1.012520	0.034528
	O294	O	-0.004959	0.991291	0.006226
	H295	H	0.002469	0.994713	0.016131
	H296	H	-0.003215	0.995153	0.019742
	O297	O	0.533134	0.473836	0.479659
	H298	H	0.535014	0.477603	0.477858
	H299	H	0.532352	0.479766	0.478927
	O300	O	0.512834	0.491469	0.460937
	H301	H	0.512239	0.486406	0.466228
	H302	H	0.512321	0.496813	0.457712
	O303	O	1.007437	0.000206	0.997855
	H304	H	1.007674	-0.000072	0.989871
	H305	H	1.008574	-0.003639	1.002522
	O306	O	-0.012536	0.967408	1.053479
	H307	H	-0.010464	0.958951	1.054501
	H308	H	-0.015250	0.960338	1.054813
	O309	O	0.028584	1.009831	1.005475
	H310	H	0.036161	1.004504	1.002343
	H311	H	0.025133	1.009271	1.006660
	O312	O	-0.023400	-0.051669	0.957691
	H313	H	-0.020088	-0.058294	0.954446
	H314	H	-0.037735	-0.048802	0.953435
	O315	O	0.542676	0.520154	0.465852
	H316	H	0.531609	0.537512	0.466389
	H317	H	0.537470	0.527457	0.471080
	O318	O	-0.017784	-0.070114	1.025354
	H319	H	-0.022417	-0.073577	1.027332
	H320	H	-0.007696	-0.077048	1.030119
	O321	O	0.472419	0.455759	0.549793
	H322	H	0.473780	0.450739	0.555499
	H323	H	0.481447	0.447086	0.550309
	O324	O	1.052704	0.034433	0.990823
	H325	H	1.048751	0.035664	0.990119
	H326	H	1.048261	0.036952	0.992466
	O327	O	0.965878	0.964543	1.036124
	H328	H	0.956804	0.965302	1.044692
	H329	H	0.967001	0.962432	1.034468
	O330	O	0.453623	0.535831	0.464926
	H331	H	0.443853	0.536808	0.456012
	H332	H	0.458046	0.533055	0.464300
	O333	O	0.464076	0.528278	0.454210
	H334	H	0.470055	0.531394	0.459838
	H335	H	0.467568	0.526249	0.464127
	O336	O	0.486652	0.486286	0.579176
	H337	H	0.484655	0.477573	0.577531
	H338	H	0.486838	0.480891	0.569192
	O339	O	0.514854	0.512354	0.530342
	H340	H	0.519404	0.509393	0.520286
	H341	H	0.509691	0.511964	0.527378
	O342	O	0.540165	0.450573	0.466433
	H343	H	0.533465	0.442084	0.468535
	H344	H	0.540089	0.454915	0.460264
	O345	O	0.509861	0.595205	0.548841
	H346	H	0.512840	0.595659	0.554351
	H347	H	0.509106	0.597788	0.557721
