data_Molecule from HDF5

_cell_length_a		16.249485
_cell_length_b		16.302269
_cell_length_c		16.261447
_cell_angle_alpha	90.023571
_cell_angle_beta	90.366833
_cell_angle_gamma	89.861281
_symmetry_space_group_name_H-M	'P 1'
_symmetry_Int_Tables_number		1

loop_
	_symmetry_equiv_pos_as_xyz
	x,y,z

loop_
	_atom_site_label
	_atom_site_type_symbol
	_atom_site_fract_x
	_atom_site_fract_y
	_atom_site_fract_z
	H0	H	0.406756	0.833370	0.705943
	H1	H	0.603493	0.159869	0.710368
	H2	H	0.603410	0.834432	0.277728
	H3	H	0.402386	0.160524	0.278422
	H4	H	0.715495	0.397845	0.828934
	H5	H	0.717566	0.594470	0.157388
	H6	H	0.288122	0.594776	0.829483
	H7	H	0.289653	0.398326	0.157356
	H8	H	0.839469	0.712642	0.391988
	H9	H	0.166761	0.709956	0.594304
	H10	H	0.838856	0.280603	0.591885
	H11	H	0.166883	0.281150	0.395918
	H12	H	0.838464	0.397231	0.706439
	H13	H	0.166470	0.594338	0.708774
	H14	H	0.838362	0.594590	0.277517
	H15	H	0.166496	0.396680	0.279789
	H16	H	0.402518	0.711307	0.829312
	H17	H	0.603390	0.711372	0.156991
	H18	H	0.601412	0.280799	0.830039
	H19	H	0.404752	0.281843	0.157252
	H20	H	0.717957	0.833296	0.395337
	H21	H	0.719456	0.159672	0.594850
	H22	H	0.290857	0.832874	0.590929
	H23	H	0.285352	0.159527	0.393304
	H24	H	0.903812	0.332424	0.207297
	H25	H	0.101612	0.659245	0.209070
	H26	H	0.099962	0.332641	0.780506
	H27	H	0.902412	0.659369	0.775921
	H28	H	0.216154	0.896991	0.329153
	H29	H	0.217012	0.092640	0.657938
	H30	H	0.786627	0.095126	0.330789
	H31	H	0.789274	0.895547	0.657358
	H32	H	0.339478	0.213097	0.892770
	H33	H	0.666667	0.211707	0.095003
	H34	H	0.338409	0.782831	0.090818
	H35	H	0.666780	0.781991	0.895662
	H36	H	0.338075	0.899974	0.206227
	H37	H	0.665210	0.098599	0.212265
	H38	H	0.338578	0.095893	0.777988
	H39	H	0.666869	0.898775	0.780560
	H40	H	0.901435	0.211113	0.330610
	H41	H	0.104023	0.210862	0.656574
	H42	H	0.102124	0.779886	0.329844
	H43	H	0.905353	0.780352	0.656923
	H44	H	0.218006	0.333165	0.894605
	H45	H	0.218410	0.659720	0.094421
	H46	H	0.788141	0.333326	0.091042
	H47	H	0.786096	0.659682	0.892413
	H48	H	0.414441	0.112060	0.583772
	H49	H	0.589572	0.883487	0.585822
	H50	H	0.596406	0.113620	0.401973
	H51	H	0.414681	0.881609	0.394448
	H52	H	0.596989	0.403915	0.110065
	H53	H	0.596878	0.584300	0.878261
	H54	H	0.414731	0.586795	0.107989
	H55	H	0.403815	0.397635	0.873755
	H56	H	0.122137	0.593008	0.395215
	H57	H	0.881433	0.592331	0.595686
	H58	H	0.118707	0.396428	0.579070
	H59	H	0.888194	0.407413	0.402781
	H60	H	0.116532	0.411446	0.587456
	H61	H	0.886838	0.597352	0.573667
	H62	H	0.118515	0.590933	0.408028
	H63	H	0.883911	0.403955	0.392982
	H64	H	0.412041	0.595703	0.111769
	H65	H	0.587378	0.590248	0.879072
	H66	H	0.595758	0.404370	0.109031
	H67	H	0.406527	0.414104	0.879437
	H68	H	0.592424	0.112435	0.401356
	H69	H	0.600702	0.881076	0.581557
	H70	H	0.404758	0.113599	0.582199
	H71	H	0.411438	0.881876	0.405640
	H72	H	0.904819	0.614470	0.087339
	H73	H	0.092795	0.380918	0.087018
	H74	H	0.106353	0.616894	0.899350
	H75	H	0.910300	0.379528	0.894605
	H76	H	0.100947	0.901077	0.611194
	H77	H	0.103517	0.096711	0.372086
	H78	H	0.903746	0.095702	0.614760
	H79	H	0.905173	0.904347	0.374935
	H80	H	0.616868	0.086244	0.906470
	H81	H	0.388650	0.088672	0.076797
	H82	H	0.620481	0.905226	0.091324
	H83	H	0.385899	0.906932	0.893800
	H84	H	0.619235	0.899267	0.084498
	H85	H	0.386610	0.083786	0.088883
	H86	H	0.619932	0.087117	0.897527
	H87	H	0.383151	0.897542	0.897419
	H88	H	0.909199	0.077765	0.607980
	H89	H	0.097674	0.077166	0.379029
	H90	H	0.096604	0.906167	0.608968
	H91	H	0.913528	0.908124	0.380166
	H92	H	0.087008	0.613210	0.891277
	H93	H	0.097470	0.381082	0.081795
	H94	H	0.914894	0.612431	0.089125
	H95	H	0.910520	0.381920	0.902946
	H96	H	0.408866	0.115557	0.590935
	H97	H	0.598097	0.878239	0.593567
	H98	H	0.593771	0.111807	0.405271
	H99	H	0.404014	0.877960	0.397617
	H100	H	0.596159	0.403414	0.110139
	H101	H	0.596902	0.594557	0.874219
	H102	H	0.406431	0.588164	0.110975
	H103	H	0.419421	0.401951	0.878975
	H104	H	0.117468	0.581461	0.399174
	H105	H	0.890682	0.576469	0.581923
	H106	H	0.123362	0.397553	0.595857
	H107	H	0.884966	0.396921	0.402371
	H108	H	0.910872	0.610325	0.079490
	H109	H	0.099635	0.378773	0.087836
	H110	H	0.091052	0.608820	0.911467
	H111	H	0.903992	0.378844	0.899426
	H112	H	0.094891	0.899080	0.610082
	H113	H	0.083221	0.093653	0.379087
	H114	H	0.922144	0.092137	0.608626
	H115	H	0.912776	0.898805	0.377170
	H116	H	0.620886	0.094284	0.902778
	H117	H	0.384049	0.096818	0.086178
	H118	H	0.616158	0.908228	0.083831
	H119	H	0.386873	0.905232	0.903883
	C120	C	0.382209	0.005374	0.613559
	C121	C	0.625836	0.988280	0.616669
	C122	C	0.623948	0.005002	0.373121
	C123	C	0.380198	0.988221	0.370638
	C124	C	0.624437	0.374922	0.001623
	C125	C	0.624112	0.618395	0.985110
	C126	C	0.381339	0.618741	0.001814
	C127	C	0.381632	0.375361	0.985349
	C128	C	0.011167	0.617701	0.370989
	C129	C	0.994432	0.616778	0.613768
	C130	C	0.011067	0.373504	0.615392
	C131	C	0.994270	0.373991	0.371477
	C132	C	0.881953	0.504343	0.113646
	C133	C	0.125212	0.488028	0.115148
	C134	C	0.123623	0.504838	0.872514
	C135	C	0.879655	0.488155	0.869903
	C136	C	0.125325	0.873701	0.501674
	C137	C	0.124228	0.117255	0.485014
	C138	C	0.881460	0.117691	0.502667
	C139	C	0.881801	0.874441	0.485135
	C140	C	0.510967	0.118448	0.872284
	C141	C	0.494481	0.118635	0.114715
	C142	C	0.510670	0.875806	0.114562
	C143	C	0.493961	0.874949	0.871031
	C144	C	0.385831	0.882156	0.668475
	C145	C	0.623720	0.111106	0.672430
	C146	C	0.622926	0.882862	0.316394
	C147	C	0.381499	0.111266	0.315569
	C148	C	0.678549	0.377105	0.878216
	C149	C	0.680074	0.615483	0.108212
	C150	C	0.325705	0.615750	0.878608
	C151	C	0.326992	0.377614	0.108480
	C152	C	0.888027	0.674011	0.372191
	C153	C	0.117657	0.672070	0.613648
	C154	C	0.887819	0.318523	0.612330
	C155	C	0.117531	0.318616	0.374826
	C156	C	0.887406	0.376855	0.668930
	C157	C	0.117483	0.614430	0.670630
	C158	C	0.887473	0.615205	0.315392
	C159	C	0.117497	0.376094	0.317121
	C160	C	0.382587	0.673622	0.878674
	C161	C	0.623241	0.673574	0.108041
	C162	C	0.621876	0.318936	0.878597
	C163	C	0.384189	0.319694	0.108303
	C164	C	0.679963	0.882313	0.375063
	C165	C	0.681575	0.110852	0.615146
	C166	C	0.328383	0.881823	0.611044
	C167	C	0.323531	0.110640	0.372674
	C168	C	0.883843	0.381336	0.169198
	C169	C	0.122217	0.610827	0.170853
	C170	C	0.120955	0.381531	0.817867
	C171	C	0.881736	0.610778	0.814058
	C172	C	0.179324	0.876184	0.378407
	C173	C	0.179685	0.113807	0.608322
	C174	C	0.824871	0.115775	0.379503
	C175	C	0.826874	0.875736	0.608379
	C176	C	0.388006	0.174781	0.873139
	C177	C	0.617615	0.173911	0.114417
	C178	C	0.387243	0.820691	0.111891
	C179	C	0.617541	0.819841	0.874787
	C180	C	0.387230	0.878627	0.169119
	C181	C	0.616789	0.117693	0.173060
	C182	C	0.387493	0.116393	0.816051
	C183	C	0.617715	0.877715	0.817449
	C184	C	0.882003	0.173174	0.379490
	C185	C	0.123184	0.172318	0.608085
	C186	C	0.122001	0.818590	0.378380
	C187	C	0.884250	0.818203	0.608154
	C188	C	0.179542	0.382028	0.874819
	C189	C	0.180369	0.610864	0.113861
	C190	C	0.826468	0.381779	0.111363
	C191	C	0.824172	0.611063	0.872072
	C192	C	0.403390	0.091445	0.592078
	C193	C	0.603027	0.902954	0.593789
	C194	C	0.600891	0.090453	0.396163
	C195	C	0.403112	0.902611	0.392911
	C196	C	0.602751	0.397346	0.087516
	C197	C	0.600654	0.596073	0.899206
	C198	C	0.404264	0.596676	0.088176
	C199	C	0.403510	0.397777	0.899608
	C200	C	0.097203	0.595261	0.394030
	C201	C	0.908543	0.595098	0.590438
	C202	C	0.097323	0.395445	0.593802
	C203	C	0.907983	0.396194	0.392971
	C204	C	0.903871	0.590211	0.091821
	C205	C	0.102993	0.402535	0.092332
	C206	C	0.101234	0.590739	0.894465
	C207	C	0.901822	0.402418	0.892304
	C208	C	0.103851	0.895596	0.587670
	C209	C	0.101474	0.095554	0.398775
	C210	C	0.904962	0.095255	0.588275
	C211	C	0.903909	0.897097	0.399702
	C212	C	0.596967	0.095640	0.895417
	C213	C	0.408684	0.096281	0.090926
	C214	C	0.596450	0.897742	0.092893
	C215	C	0.407585	0.896908	0.892077
	Zn216	Zn	0.502640	-0.002730	0.743485
	Zn217	Zn	0.502232	-0.002674	0.243036
	Zn218	Zn	0.752337	0.496487	-0.007596
	Zn219	Zn	0.253377	0.496933	-0.006549
	Zn220	Zn	0.003227	0.745584	0.493274
	Zn221	Zn	0.002755	0.245583	0.493626
	Zn222	Zn	0.002468	0.495706	0.742523
	Zn223	Zn	0.002854	0.495460	0.243039
	Zn224	Zn	0.502551	0.746829	-0.006438
	Zn225	Zn	0.503240	0.246985	-0.006250
	Zn226	Zn	0.753729	-0.003668	0.494489
	Zn227	Zn	0.252991	-0.004231	0.493107
	N228	N	0.418638	0.960010	0.670211
	N229	N	0.589681	0.033891	0.673523
	N230	N	0.588820	0.960207	0.314978
	N231	N	0.416107	0.034119	0.314158
	N232	N	0.680210	0.411241	0.955553
	N233	N	0.680742	0.581800	0.030578
	N234	N	0.324870	0.582298	0.956357
	N235	N	0.325374	0.411531	0.031097
	N236	N	0.965787	0.675360	0.406173
	N237	N	0.040187	0.673680	0.578810
	N238	N	0.965690	0.316394	0.579628
	N239	N	0.039773	0.317263	0.408021
	N240	N	0.965110	0.410149	0.671017
	N241	N	0.040011	0.580697	0.670742
	N242	N	0.965036	0.580997	0.314416
	N243	N	0.039701	0.409601	0.314899
	N244	N	0.416511	0.675431	0.956413
	N245	N	0.589216	0.675516	0.030474
	N246	N	0.588987	0.317495	0.956341
	N247	N	0.417494	0.318280	0.030763
	N248	N	0.680946	0.959371	0.409295
	N249	N	0.683053	0.033564	0.581229
	N250	N	0.326157	0.959155	0.577431
	N251	N	0.322473	0.033096	0.405927
	N252	N	0.917559	0.458783	0.170846
	N253	N	0.088878	0.533383	0.172278
	N254	N	0.086833	0.458869	0.816263
	N255	N	0.915467	0.533368	0.812655
	N256	N	0.181347	0.909876	0.455969
	N257	N	0.180347	0.080332	0.530659
	N258	N	0.824441	0.081861	0.456866
	N259	N	0.825270	0.910055	0.530980
	N260	N	0.465777	0.176094	0.907227
	N261	N	0.540606	0.174521	0.078864
	N262	N	0.464867	0.818752	0.078621
	N263	N	0.539567	0.817827	0.907148
	N264	N	0.464785	0.912296	0.170969
	N265	N	0.539245	0.083720	0.173130
	N266	N	0.465008	0.082004	0.815500
	N267	N	0.539927	0.911313	0.815079
	N268	N	0.916511	0.174469	0.457102
	N269	N	0.089299	0.174424	0.530348
	N270	N	0.089207	0.816816	0.456089
	N271	N	0.917744	0.817081	0.530771
	N272	N	0.181216	0.459783	0.907885
	N273	N	0.182228	0.533538	0.079933
	N274	N	0.825314	0.459033	0.077392
	N275	N	0.822639	0.533763	0.905880
	O276	O	0.963486	0.964440	-0.035214
	H277	H	0.964625	0.963281	-0.024739
	H278	H	0.954759	0.966915	-0.019712
	O279	O	-0.030291	-0.013170	1.035057
	H280	H	-0.027821	-0.012800	1.042674
	H281	H	-0.035897	-0.009643	1.028204
	O282	O	-0.010627	-0.023420	-0.002949
	H283	H	-0.016869	-0.034002	-0.004840
	H284	H	-0.003129	-0.029095	-0.000531
	O285	O	0.536187	0.513065	0.465087
	H286	H	0.532107	0.520241	0.468844
	H287	H	0.535563	0.527437	0.470677
	O288	O	-0.024740	0.080126	-0.002112
	H289	H	-0.026507	0.072516	-0.004203
	H290	H	-0.024857	0.089565	-0.005324
	O291	O	-0.035690	0.966380	0.094742
	H292	H	-0.035534	0.965886	0.094522
	H293	H	-0.037531	0.966968	0.100774
	O294	O	0.016531	1.045567	-0.048918
	H295	H	0.012365	1.031776	-0.048322
	H296	H	0.015937	1.053464	-0.049690
	O297	O	0.520284	0.529562	0.487637
	H298	H	0.514724	0.533625	0.491200
	H299	H	0.522806	0.528964	0.483368
	O300	O	0.550659	0.504647	0.463124
	H301	H	0.563341	0.496505	0.466657
	H302	H	0.551496	0.503943	0.463126
	O303	O	1.018005	-0.046372	1.034943
	H304	H	1.018488	-0.045602	1.032426
	H305	H	1.018995	-0.038659	1.033943
	O306	O	-0.010528	1.005162	0.977208
	H307	H	-0.009334	1.005719	0.975969
	H308	H	-0.006777	1.006986	0.986489
	O309	O	0.062455	1.069372	1.104774
	H310	H	0.069224	1.078547	1.108392
	H311	H	0.060917	1.079242	1.100641
	O312	O	0.014765	0.030571	0.972762
	H313	H	0.017653	0.023053	0.968446
	H314	H	0.010287	0.032943	0.963145
	O315	O	0.480800	0.518951	0.492360
	H316	H	0.492041	0.515119	0.492910
	H317	H	0.484406	0.515454	0.496167
	O318	O	-0.099921	-0.090637	1.058542
	H319	H	-0.091598	-0.095622	1.058873
	H320	H	-0.097830	-0.078709	1.060174
	O321	O	0.550442	0.556769	0.489388
	H322	H	0.556135	0.556362	0.483509
	H323	H	0.554671	0.558629	0.494292
	O324	O	1.055374	-0.001905	1.041137
	H325	H	1.053598	-0.000760	1.045730
	H326	H	1.053888	-0.004885	1.045147
	O327	O	0.971147	0.908696	1.013756
	H328	H	0.973679	0.921671	1.014673
	H329	H	0.962950	0.902205	1.016819
	O330	O	0.513706	0.556101	0.498407
	H331	H	0.508114	0.563031	0.502778
	H332	H	0.519952	0.563499	0.507743
	O333	O	0.527863	0.578005	0.506767
	H334	H	0.517455	0.583147	0.503192
	H335	H	0.537099	0.587362	0.504192
	O336	O	0.540044	0.565955	0.484459
	H337	H	0.533119	0.573639	0.484049
	H338	H	0.535893	0.567711	0.489315
	O339	O	0.492200	0.483751	0.465102
	H340	H	0.488325	0.481443	0.471671
	H341	H	0.495738	0.478381	0.469694
	O342	O	0.516832	0.502552	0.503227
	H343	H	0.516383	0.502526	0.501265
	H344	H	0.513056	0.489926	0.501618
	O345	O	0.479542	0.509896	0.509023
	H346	H	0.480245	0.506190	0.503038
	H347	H	0.488235	0.514209	0.505996
