data_Molecule from HDF5

_cell_length_a		16.443143
_cell_length_b		16.656397
_cell_length_c		16.558766
_cell_angle_alpha	89.771000
_cell_angle_beta	89.847740
_cell_angle_gamma	89.908632
_symmetry_space_group_name_H-M	'P 1'
_symmetry_Int_Tables_number		1

loop_
	_symmetry_equiv_pos_as_xyz
	x,y,z

loop_
	_atom_site_label
	_atom_site_type_symbol
	_atom_site_fract_x
	_atom_site_fract_y
	_atom_site_fract_z
	H0	H	0.389461	0.856042	0.701284
	H1	H	0.599531	0.168952	0.698396
	H2	H	0.603255	0.856286	0.256086
	H3	H	0.390695	0.167737	0.255451
	H4	H	0.717864	0.409644	0.819234
	H5	H	0.715307	0.615128	0.134885
	H6	H	0.275129	0.620204	0.819777
	H7	H	0.278373	0.412906	0.135181
	H8	H	0.840258	0.736442	0.368603
	H9	H	0.153218	0.736169	0.583360
	H10	H	0.839454	0.290198	0.584937
	H11	H	0.155929	0.296174	0.376944
	H12	H	0.839628	0.407249	0.699429
	H13	H	0.155381	0.618342	0.697225
	H14	H	0.838575	0.618706	0.255302
	H15	H	0.156063	0.413057	0.259929
	H16	H	0.385644	0.740813	0.823368
	H17	H	0.601392	0.733442	0.133611
	H18	H	0.603024	0.292343	0.819775
	H19	H	0.392772	0.292848	0.134645
	H20	H	0.718991	0.856870	0.373653
	H21	H	0.717120	0.169227	0.582680
	H22	H	0.276051	0.853891	0.581917
	H23	H	0.278436	0.169421	0.377495
	H24	H	0.894460	0.356081	0.196712
	H25	H	0.103656	0.668549	0.199485
	H26	H	0.104396	0.358222	0.754766
	H27	H	0.886417	0.665635	0.748788
	H28	H	0.218012	0.909081	0.320226
	H29	H	0.215562	0.113869	0.635664
	H30	H	0.775544	0.117861	0.321435
	H31	H	0.774766	0.906473	0.633808
	H32	H	0.338655	0.234786	0.872429
	H33	H	0.653375	0.233601	0.081820
	H34	H	0.339468	0.788905	0.086437
	H35	H	0.653227	0.791275	0.871330
	H36	H	0.338448	0.908398	0.198815
	H37	H	0.653804	0.116454	0.198184
	H38	H	0.336750	0.116562	0.759251
	H39	H	0.652798	0.907987	0.755568
	H40	H	0.892196	0.234033	0.321251
	H41	H	0.103723	0.235129	0.633410
	H42	H	0.104061	0.790877	0.320672
	H43	H	0.884657	0.783897	0.629309
	H44	H	0.218587	0.356971	0.873964
	H45	H	0.217822	0.670142	0.080111
	H46	H	0.776617	0.356276	0.080059
	H47	H	0.770934	0.666454	0.866809
	H48	H	0.403803	0.122401	0.562895
	H49	H	0.581639	0.904080	0.564033
	H50	H	0.586041	0.123550	0.387609
	H51	H	0.404705	0.899225	0.386811
	H52	H	0.586505	0.421020	0.090045
	H53	H	0.582760	0.601154	0.866233
	H54	H	0.410304	0.608512	0.090233
	H55	H	0.409213	0.426179	0.865238
	H56	H	0.110684	0.607639	0.387709
	H57	H	0.887269	0.594463	0.565316
	H58	H	0.105447	0.426635	0.559323
	H59	H	0.881692	0.423821	0.383222
	H60	H	0.111040	0.427165	0.573111
	H61	H	0.884403	0.602571	0.561879
	H62	H	0.106729	0.599980	0.391711
	H63	H	0.881051	0.419074	0.387414
	H64	H	0.400695	0.597236	0.088848
	H65	H	0.582238	0.603323	0.865685
	H66	H	0.585147	0.422746	0.088394
	H67	H	0.410364	0.418785	0.863570
	H68	H	0.584855	0.123918	0.385535
	H69	H	0.587735	0.901754	0.566237
	H70	H	0.400530	0.126708	0.571922
	H71	H	0.410751	0.900482	0.386845
	H72	H	0.904940	0.625143	0.067301
	H73	H	0.084397	0.401974	0.071399
	H74	H	0.090684	0.625914	0.887660
	H75	H	0.908371	0.403239	0.891799
	H76	H	0.084933	0.924786	0.588530
	H77	H	0.087172	0.105850	0.365057
	H78	H	0.904265	0.101546	0.590838
	H79	H	0.911888	0.924371	0.365994
	H80	H	0.608588	0.098547	0.884653
	H81	H	0.384011	0.102734	0.063624
	H82	H	0.610255	0.919848	0.066919
	H83	H	0.387590	0.930224	0.895404
	H84	H	0.607792	0.921810	0.062439
	H85	H	0.383390	0.099704	0.068888
	H86	H	0.610999	0.106345	0.886936
	H87	H	0.381811	0.926718	0.885087
	H88	H	0.910502	0.100797	0.588624
	H89	H	0.088304	0.104754	0.364577
	H90	H	0.080750	0.923903	0.587109
	H91	H	0.907426	0.925023	0.365152
	H92	H	0.082291	0.625936	0.880745
	H93	H	0.086052	0.402924	0.063994
	H94	H	0.907472	0.625823	0.068249
	H95	H	0.909134	0.401874	0.887476
	H96	H	0.410163	0.122355	0.571312
	H97	H	0.582066	0.901542	0.570033
	H98	H	0.583723	0.123242	0.387814
	H99	H	0.407223	0.901579	0.391722
	H100	H	0.584483	0.420182	0.089033
	H101	H	0.584372	0.602229	0.864473
	H102	H	0.415216	0.595814	0.084716
	H103	H	0.403462	0.421936	0.862568
	H104	H	0.110371	0.599037	0.382276
	H105	H	0.889220	0.596684	0.556783
	H106	H	0.112094	0.414878	0.565141
	H107	H	0.884045	0.424651	0.389395
	H108	H	0.907336	0.624406	0.065977
	H109	H	0.091551	0.400229	0.068951
	H110	H	0.081302	0.622527	0.891167
	H111	H	0.912239	0.403796	0.889824
	H112	H	0.083055	0.920409	0.588942
	H113	H	0.086850	0.104519	0.364964
	H114	H	0.908765	0.106328	0.591583
	H115	H	0.909523	0.928392	0.367050
	H116	H	0.607022	0.101028	0.892651
	H117	H	0.381610	0.105189	0.068444
	H118	H	0.608695	0.925362	0.066992
	H119	H	0.382719	0.918919	0.894583
	C120	C	0.373215	0.020076	0.600491
	C121	C	0.616522	1.004954	0.599176
	C122	C	0.617704	0.020359	0.355639
	C123	C	0.375426	1.003629	0.356692
	C124	C	0.618185	0.390586	-0.014879
	C125	C	0.616440	0.633918	0.968816
	C126	C	0.375015	0.634979	-0.014653
	C127	C	0.375748	0.391527	0.968442
	C128	C	0.005268	0.634962	0.354304
	C129	C	0.989590	0.632322	0.595900
	C130	C	0.005503	0.390497	0.598961
	C131	C	0.987942	0.392747	0.356688
	C132	C	0.875149	0.521701	0.098520
	C133	C	0.118813	0.505343	0.098701
	C134	C	0.118210	0.521975	0.855193
	C135	C	0.875686	0.504823	0.855421
	C136	C	0.116556	0.891636	0.484888
	C137	C	0.118571	0.134836	0.469189
	C138	C	0.875740	0.134544	0.486460
	C139	C	0.875563	0.891725	0.468546
	C140	C	0.504262	0.133947	0.856369
	C141	C	0.487672	0.133590	0.098333
	C142	C	0.504590	0.890827	0.098493
	C143	C	0.487373	0.892232	0.857594
	C144	C	0.371416	0.902668	0.660661
	C145	C	0.618358	0.122195	0.658831
	C146	C	0.621236	0.903317	0.295946
	C147	C	0.373122	0.121211	0.296475
	C148	C	0.677997	0.390344	0.866652
	C149	C	0.676139	0.634522	0.087164
	C150	C	0.314499	0.638460	0.867295
	C151	C	0.317408	0.392387	0.087748
	C152	C	0.887053	0.695661	0.351245
	C153	C	0.106549	0.695077	0.600509
	C154	C	0.886974	0.330610	0.602578
	C155	C	0.108166	0.335309	0.357144
	C156	C	0.886853	0.388649	0.659540
	C157	C	0.107490	0.636264	0.657284
	C158	C	0.886335	0.636984	0.294861
	C159	C	0.108301	0.393330	0.299312
	C160	C	0.369635	0.698501	0.869175
	C161	C	0.619496	0.693491	0.086700
	C162	C	0.620979	0.331893	0.866970
	C163	C	0.374264	0.333167	0.087511
	C164	C	0.678315	0.903389	0.354840
	C165	C	0.676901	0.122181	0.601253
	C166	C	0.315168	0.901518	0.601028
	C167	C	0.317113	0.122126	0.356769
	C168	C	0.874746	0.403082	0.157160
	C169	C	0.121118	0.622309	0.158558
	C170	C	0.121734	0.404477	0.795439
	C171	C	0.869879	0.619955	0.791256
	C172	C	0.177847	0.890199	0.367315
	C173	C	0.176916	0.134196	0.587880
	C174	C	0.815417	0.136756	0.368723
	C175	C	0.814403	0.888010	0.586377
	C176	C	0.385496	0.194120	0.854493
	C177	C	0.606328	0.193380	0.100399
	C178	C	0.386457	0.829983	0.102976
	C179	C	0.605871	0.831661	0.853842
	C180	C	0.385813	0.888981	0.159155
	C181	C	0.606461	0.135256	0.158174
	C182	C	0.384652	0.135387	0.798176
	C183	C	0.605732	0.889582	0.796317
	C184	C	0.873671	0.194364	0.368432
	C185	C	0.120997	0.194075	0.587065
	C186	C	0.121184	0.831404	0.367454
	C187	C	0.869363	0.827470	0.584150
	C188	C	0.178687	0.404188	0.854521
	C189	C	0.178113	0.623054	0.099271
	C190	C	0.816351	0.403332	0.099352
	C191	C	0.812499	0.620380	0.849984
	C192	C	0.397648	0.102413	0.575738
	C193	C	0.591076	0.923723	0.574011
	C194	C	0.592145	0.102150	0.379972
	C195	C	0.400407	0.921666	0.381414
	C196	C	0.592759	0.414589	0.067656
	C197	C	0.590679	0.609245	0.886876
	C198	C	0.401320	0.608218	0.066732
	C199	C	0.400564	0.415401	0.885609
	C200	C	0.087869	0.609606	0.379923
	C201	C	0.908139	0.605721	0.569073
	C202	C	0.088044	0.415590	0.573232
	C203	C	0.904083	0.415852	0.380080
	C204	C	0.899490	0.603720	0.074231
	C205	C	0.094342	0.423114	0.074743
	C206	C	0.092289	0.603487	0.879626
	C207	C	0.902439	0.423908	0.882207
	C208	C	0.090294	0.916048	0.566885
	C209	C	0.094225	0.111569	0.386365
	C210	C	0.900694	0.110006	0.568940
	C211	C	0.902217	0.918469	0.387362
	C212	C	0.587246	0.109085	0.881142
	C213	C	0.404619	0.109276	0.073843
	C214	C	0.587372	0.915466	0.072928
	C215	C	0.405373	0.917895	0.884043
	Zn216	Zn	0.495348	0.012995	0.728791
	Zn217	Zn	0.496048	0.011969	0.226671
	Zn218	Zn	0.745922	0.513146	-0.022987
	Zn219	Zn	0.247773	0.513954	-0.023432
	Zn220	Zn	-0.003358	0.762092	0.475597
	Zn221	Zn	-0.003300	0.263447	0.477909
	Zn222	Zn	-0.003078	0.512605	0.725932
	Zn223	Zn	-0.003299	0.513462	0.227441
	Zn224	Zn	0.495866	0.762985	-0.022374
	Zn225	Zn	0.496692	0.262250	-0.023471
	Zn226	Zn	0.746648	0.012632	0.478079
	Zn227	Zn	0.245877	0.011622	0.478066
	N228	N	0.406665	0.977385	0.660531
	N229	N	0.581525	0.048349	0.657609
	N230	N	0.584212	0.977280	0.296264
	N231	N	0.408520	0.046508	0.296289
	N232	N	0.676350	0.426325	0.941166
	N233	N	0.674548	0.598230	0.012723
	N234	N	0.317735	0.599604	0.940561
	N235	N	0.318190	0.427883	0.012658
	N236	N	0.962129	0.694549	0.387376
	N237	N	0.032052	0.692986	0.563223
	N238	N	0.961866	0.331515	0.565853
	N239	N	0.032136	0.334623	0.391931
	N240	N	0.961695	0.425182	0.657667
	N241	N	0.033633	0.597768	0.654508
	N242	N	0.961051	0.600131	0.296455
	N243	N	0.032466	0.428042	0.298755
	N244	N	0.406371	0.696463	0.943628
	N245	N	0.583299	0.693305	0.012095
	N246	N	0.584570	0.331813	0.941678
	N247	N	0.409589	0.332466	0.012193
	N248	N	0.676408	0.977295	0.391166
	N249	N	0.676073	0.048225	0.564752
	N250	N	0.315847	0.975846	0.564658
	N251	N	0.318407	0.048017	0.393414
	N252	N	0.910226	0.477719	0.157125
	N253	N	0.084828	0.548196	0.158133
	N254	N	0.085044	0.478585	0.795465
	N255	N	0.908610	0.547011	0.794478
	N256	N	0.175021	0.927000	0.441328
	N257	N	0.175675	0.098248	0.513482
	N258	N	0.816230	0.100443	0.443357
	N259	N	0.818006	0.927380	0.513417
	N260	N	0.461024	0.193492	0.889665
	N261	N	0.531354	0.192735	0.064169
	N262	N	0.461359	0.831002	0.066131
	N263	N	0.531114	0.833125	0.891119
	N264	N	0.460382	0.926149	0.156613
	N265	N	0.531450	0.099133	0.157367
	N266	N	0.459629	0.098830	0.798968
	N267	N	0.530977	0.926316	0.798189
	N268	N	0.910094	0.193404	0.442901
	N269	N	0.085387	0.194657	0.512083
	N270	N	0.083779	0.832152	0.441640
	N271	N	0.906976	0.829825	0.510059
	N272	N	0.176764	0.478184	0.890750
	N273	N	0.176689	0.549276	0.062678
	N274	N	0.816209	0.478067	0.063989
	N275	N	0.816276	0.547889	0.889365
	O276	O	1.044325	0.991774	0.174605
	H277	H	1.045424	0.972155	0.175189
	H278	H	1.059330	0.986732	0.175247
	O279	O	0.053296	0.090295	0.906238
	H280	H	0.048617	0.086982	0.910441
	H281	H	0.040277	0.090345	0.900759
	O282	O	0.301021	0.318178	0.507770
	H283	H	0.309467	0.319339	0.516855
	H284	H	0.296114	0.319217	0.506494
	O285	O	0.384732	0.674806	0.506421
	H286	H	0.372524	0.665886	0.515975
	H287	H	0.387203	0.677386	0.481115
	O288	O	1.630726	-0.388771	0.684614
	H289	H	1.610162	-0.386065	0.676442
	H290	H	1.638568	-0.391214	0.689900
	O291	O	1.215379	0.982602	0.754959
	H292	H	1.214024	0.955483	0.763799
	H293	H	1.247120	0.975416	0.732453
	O294	O	0.098536	-0.131116	0.101264
	H295	H	0.098269	-0.125447	0.091696
	H296	H	0.081237	-0.118704	0.108787
	O297	O	1.048551	0.243668	-0.085504
	H298	H	1.052060	0.247617	-0.105795
	H299	H	1.034703	0.228280	-0.090053
	O300	O	0.703798	0.328142	0.269645
	H301	H	0.718125	0.313414	0.270900
	H302	H	0.694461	0.315480	0.255646
	O303	O	-0.704240	-0.687275	-0.325515
	H304	H	-0.724051	-0.711344	-0.314089
	H305	H	-0.681247	-0.684307	-0.339153
	O306	O	0.805003	-0.175961	0.163474
	H307	H	0.802097	-0.145949	0.150074
	H308	H	0.842086	-0.181193	0.154802
	O309	O	0.546464	0.298799	0.272898
	H310	H	0.549817	0.281461	0.253528
	H311	H	0.546924	0.301784	0.289510
	O312	O	-0.042211	1.231463	0.763731
	H313	H	-0.055912	1.217740	0.753442
	H314	H	-0.041079	1.246570	0.738372
	O315	O	0.628149	0.520261	0.633429
	H316	H	0.616833	0.541819	0.646974
	H317	H	0.628291	0.515011	0.633765
	O318	O	1.198554	0.032215	0.188922
	H319	H	1.208380	0.055408	0.199686
	H320	H	1.196399	0.047552	0.198170
	O321	O	-0.187846	1.201463	1.168153
	H322	H	-0.168141	1.200789	1.136910
	H323	H	-0.168370	1.171347	1.164664
	O324	O	1.195077	0.106528	0.874504
	H325	H	1.185368	0.106994	0.885164
	H326	H	1.188859	0.095977	0.892138
	O327	O	0.506512	0.540901	0.576648
	H328	H	0.492775	0.545916	0.577726
	H329	H	0.507922	0.553661	0.566293
	O330	O	1.625719	1.395627	-0.441415
	H331	H	1.609887	1.393880	-0.445236
	H332	H	1.618600	1.390048	-0.438517
	O333	O	0.963173	0.099624	1.195929
	H334	H	0.954670	0.088333	1.203869
	H335	H	0.978251	0.101266	1.195205
	O336	O	-0.024954	0.796753	0.189962
	H337	H	-0.027788	0.768965	0.203687
	H338	H	-0.016255	0.793775	0.171584
	O339	O	0.275810	0.480024	0.698833
	H340	H	0.273045	0.458943	0.704957
	H341	H	0.254137	0.465089	0.715620
	O342	O	-0.221340	1.222703	0.951553
	H343	H	-0.226127	1.228852	0.935924
	H344	H	-0.224765	1.235851	0.929155
	O345	O	0.813219	0.036914	0.764208
	H346	H	0.813789	0.027049	0.745024
	H347	H	0.806665	0.014439	0.773999
	O348	O	0.174146	0.825977	-0.211802
	H349	H	0.169110	0.812613	-0.187599
	H350	H	0.166026	0.835349	-0.190978
	O351	O	-0.237025	0.243629	0.744422
	H352	H	-0.239162	0.233043	0.743975
	H353	H	-0.239691	0.232814	0.733892
	O354	O	0.962934	-0.176211	0.934894
	H355	H	0.952181	-0.186626	0.936153
	H356	H	0.964265	-0.171826	0.925469
	O357	O	0.287282	0.718677	0.356633
	H358	H	0.270124	0.747351	0.345433
	H359	H	0.309526	0.712532	0.375402
	O360	O	0.627417	0.522756	0.386587
	H361	H	0.633174	0.528693	0.380268
	H362	H	0.625792	0.510030	0.363344
	O363	O	0.061021	1.210879	1.186809
	H364	H	0.081968	1.219508	1.204336
	H365	H	0.056220	1.223604	1.193880
	O366	O	0.361004	0.492387	1.460865
	H367	H	0.354256	0.502475	1.449604
	H368	H	0.357514	0.499799	1.456655
	O369	O	-0.005128	0.011351	0.752561
	H370	H	-0.001183	0.003722	0.760110
	H371	H	-0.001262	0.016417	0.749169
	O372	O	0.188987	0.931162	1.085182
	H373	H	0.180051	0.945173	1.090345
	H374	H	0.185188	0.942905	1.107764
	O375	O	1.216867	0.217153	0.002446
	H376	H	1.221652	0.228036	0.009901
	H377	H	1.211520	0.232632	-0.008097
	O378	O	0.566254	0.358401	0.542724
	H379	H	0.573619	0.370051	0.545212
	H380	H	0.572759	0.347810	0.541797
	O381	O	-0.292638	0.391695	0.447793
	H382	H	-0.289544	0.381879	0.418753
	H383	H	-0.284436	0.374924	0.450824
	O384	O	0.836109	1.069783	1.057713
	H385	H	0.836694	1.062018	1.048550
	H386	H	0.820107	1.085725	1.062724
	O387	O	0.435120	1.553305	1.606467
	H388	H	0.438756	1.553896	1.594169
	H389	H	0.435519	1.539289	1.595728
	O390	O	-0.024778	1.062505	0.951837
	H391	H	-0.027331	1.063791	0.947182
	H392	H	-0.025096	1.060448	0.966136
	O393	O	1.038431	0.168450	0.005599
	H394	H	1.045662	0.175357	-0.004013
	H395	H	1.030607	0.180449	-0.010093
	O396	O	0.476115	0.481826	0.545109
	H397	H	0.484583	0.485354	0.546964
	H398	H	0.495179	0.486130	0.532246
	O399	O	0.397442	0.641217	0.517718
	H400	H	0.393307	0.638834	0.518991
	H401	H	0.390509	0.631055	0.507681
	O402	O	1.092985	0.033311	0.933570
	H403	H	1.087189	0.031543	0.950990
	H404	H	1.091618	0.032215	0.936721
	O405	O	0.294219	0.624410	0.271059
	H406	H	0.283346	0.624233	0.269579
	H407	H	0.291753	0.637036	0.281075
	O408	O	0.779832	0.983965	1.193081
	H409	H	0.773505	0.980435	1.174669
	H410	H	0.761332	0.985718	1.210638
	O411	O	1.014386	0.784176	0.004787
	H412	H	1.013495	0.785403	-0.013216
	H413	H	1.035033	0.785943	-0.017751
	O414	O	0.014265	-0.201786	-0.243298
	H415	H	0.021007	-0.204600	-0.254984
	H416	H	0.026933	-0.202219	-0.250456
	O417	O	0.206112	0.219209	1.173119
	H418	H	0.196331	0.227082	1.146012
	H419	H	0.231658	0.240477	1.198028
	O420	O	0.775593	-0.028417	0.937017
	H421	H	0.775471	-0.042502	0.935071
	H422	H	0.776440	-0.041177	0.935800
	O423	O	1.483507	0.643119	0.519834
	H424	H	1.469871	0.638493	0.520609
	H425	H	1.502919	0.650329	0.520468
	O426	O	0.701938	0.540730	0.358328
	H427	H	0.703229	0.548007	0.354671
	H428	H	0.706837	0.532748	0.364448
	O429	O	0.894781	1.043556	-0.000542
	H430	H	0.883305	1.038399	-0.009493
	H431	H	0.899320	1.052553	-0.001191
	O432	O	1.538167	-0.330271	1.277000
	H433	H	1.540917	-0.335147	1.263878
	H434	H	1.531981	-0.343935	1.291224
	O435	O	-0.641258	-0.668335	0.369073
	H436	H	-0.633565	-0.671850	0.389599
	H437	H	-0.627669	-0.652905	0.390909
	O438	O	0.500436	0.550042	0.407089
	H439	H	0.525135	0.550230	0.394347
	H440	H	0.515229	0.551909	0.408323
	O441	O	0.617652	0.557120	0.358251
	H442	H	0.626986	0.540262	0.347532
	H443	H	0.616790	0.572235	0.352715
	O444	O	0.395633	0.368227	0.287991
	H445	H	0.392204	0.382778	0.291213
	H446	H	0.411571	0.358537	0.293294
	O447	O	0.718564	0.488736	0.278359
	H448	H	0.723806	0.468681	0.265978
	H449	H	0.732891	0.473043	0.267093
	O450	O	1.478475	-0.296577	0.662746
	H451	H	1.469612	-0.313937	0.646940
	H452	H	1.487582	-0.276878	0.677247
	O453	O	0.839906	-0.129684	0.794607
	H454	H	0.857006	-0.139551	0.796294
	H455	H	0.826503	-0.152178	0.774610
	O456	O	-0.021777	1.097136	0.810658
	H457	H	-0.021453	1.090922	0.799309
	H458	H	-0.013390	1.076628	0.812007
	O459	O	0.672417	0.719844	0.487338
	H460	H	0.670640	0.707051	0.474862
	H461	H	0.690401	0.718082	0.492828
	O462	O	0.464543	0.299035	0.686248
	H463	H	0.456028	0.302123	0.688063
	H464	H	0.472975	0.291588	0.704271
	O465	O	0.466661	0.526465	0.363745
	H466	H	0.474241	0.525838	0.375186
	H467	H	0.487682	0.540445	0.356148
	O468	O	0.197841	0.808599	-0.052629
	H469	H	0.212236	0.839931	-0.028485
	H470	H	0.218910	0.802852	-0.051404
	O471	O	0.296948	0.496592	0.354609
	H472	H	0.294380	0.499170	0.345242
	H473	H	0.307586	0.498192	0.360401
	O474	O	0.781106	0.794722	0.004421
	H475	H	0.779687	0.771900	-0.006105
	H476	H	0.779937	0.790729	0.020074
	O477	O	-0.294872	-0.279534	0.689202
	H478	H	-0.308957	-0.283336	0.660064
	H479	H	-0.320536	-0.303824	0.692893
