data_Molecule from HDF5

_cell_length_a		16.231467
_cell_length_b		16.408664
_cell_length_c		16.420197
_cell_angle_alpha	89.991913
_cell_angle_beta	89.758888
_cell_angle_gamma	90.131538
_symmetry_space_group_name_H-M	'P 1'
_symmetry_Int_Tables_number		1

loop_
	_symmetry_equiv_pos_as_xyz
	x,y,z

loop_
	_atom_site_label
	_atom_site_type_symbol
	_atom_site_fract_x
	_atom_site_fract_y
	_atom_site_fract_z
	H0	H	0.392376	0.829384	0.721656
	H1	H	0.606050	0.147310	0.723495
	H2	H	0.603908	0.829384	0.279815
	H3	H	0.397499	0.149393	0.283235
	H4	H	0.717882	0.383938	0.844079
	H5	H	0.711046	0.588366	0.165011
	H6	H	0.276975	0.590161	0.842468
	H7	H	0.280121	0.389877	0.165355
	H8	H	0.835258	0.707883	0.400922
	H9	H	0.158881	0.707882	0.605864
	H10	H	0.836160	0.267793	0.607140
	H11	H	0.160435	0.274227	0.400513
	H12	H	0.835592	0.381629	0.724212
	H13	H	0.157911	0.593298	0.722494
	H14	H	0.832654	0.588459	0.289136
	H15	H	0.158555	0.388185	0.284228
	H16	H	0.389090	0.710445	0.843188
	H17	H	0.599872	0.708934	0.161997
	H18	H	0.600997	0.269111	0.842660
	H19	H	0.390404	0.267123	0.162459
	H20	H	0.718256	0.829446	0.398173
	H21	H	0.716603	0.149777	0.602691
	H22	H	0.278744	0.828601	0.604150
	H23	H	0.282050	0.150579	0.400121
	H24	H	0.892201	0.328600	0.223309
	H25	H	0.096917	0.650546	0.220555
	H26	H	0.102369	0.330609	0.781122
	H27	H	0.888459	0.646578	0.781521
	H28	H	0.215478	0.888323	0.341390
	H29	H	0.218480	0.092928	0.661807
	H30	H	0.781602	0.091224	0.341563
	H31	H	0.776241	0.886302	0.661871
	H32	H	0.335023	0.206069	0.898384
	H33	H	0.657728	0.207654	0.103514
	H34	H	0.334283	0.771212	0.104561
	H35	H	0.659155	0.769624	0.898316
	H36	H	0.336402	0.884269	0.222561
	H37	H	0.659798	0.090976	0.217084
	H38	H	0.336649	0.092756	0.780888
	H39	H	0.660022	0.885627	0.782875
	H40	H	0.894484	0.209423	0.343277
	H41	H	0.105767	0.213425	0.660761
	H42	H	0.102623	0.768688	0.343195
	H43	H	0.891034	0.768490	0.662260
	H44	H	0.214521	0.328708	0.901246
	H45	H	0.213646	0.649770	0.105221
	H46	H	0.778729	0.327125	0.104422
	H47	H	0.777715	0.648981	0.902797
	H48	H	0.409548	0.103256	0.593227
	H49	H	0.583824	0.877468	0.587691
	H50	H	0.588460	0.105119	0.400823
	H51	H	0.413168	0.877864	0.414449
	H52	H	0.575558	0.394900	0.114726
	H53	H	0.580966	0.576415	0.891150
	H54	H	0.408334	0.579305	0.114343
	H55	H	0.404383	0.398628	0.889893
	H56	H	0.114023	0.590538	0.416588
	H57	H	0.883159	0.580880	0.586941
	H58	H	0.110520	0.403896	0.592548
	H59	H	0.882305	0.400229	0.414521
	H60	H	0.111709	0.400515	0.592938
	H61	H	0.883644	0.572063	0.592731
	H62	H	0.107444	0.570284	0.418602
	H63	H	0.879625	0.397152	0.410166
	H64	H	0.405824	0.584059	0.117437
	H65	H	0.586757	0.584530	0.887380
	H66	H	0.589914	0.390594	0.120221
	H67	H	0.407126	0.396445	0.889672
	H68	H	0.582727	0.100438	0.412501
	H69	H	0.590229	0.875303	0.589592
	H70	H	0.410811	0.101743	0.591607
	H71	H	0.402649	0.873669	0.412949
	H72	H	0.903824	0.604348	0.098548
	H73	H	0.086603	0.373259	0.099106
	H74	H	0.081036	0.601680	0.914904
	H75	H	0.905539	0.377601	0.923055
	H76	H	0.084118	0.902641	0.614277
	H77	H	0.096298	0.078891	0.386855
	H78	H	0.911682	0.082230	0.616515
	H79	H	0.917370	0.886418	0.388395
	H80	H	0.611725	0.074294	0.907417
	H81	H	0.381163	0.074779	0.096421
	H82	H	0.613962	0.886063	0.084037
	H83	H	0.388080	0.905325	0.920257
	H84	H	0.606159	0.908550	0.084880
	H85	H	0.380489	0.081690	0.091700
	H86	H	0.614854	0.084760	0.910138
	H87	H	0.380928	0.904033	0.900757
	H88	H	0.904935	0.079639	0.617739
	H89	H	0.083623	0.076917	0.391908
	H90	H	0.085758	0.893045	0.617895
	H91	H	0.896329	0.896182	0.384150
	H92	H	0.085355	0.602164	0.915738
	H93	H	0.083193	0.376772	0.094672
	H94	H	0.905009	0.603319	0.096207
	H95	H	0.899226	0.370758	0.908740
	H96	H	0.408109	0.103155	0.591142
	H97	H	0.584798	0.874766	0.594390
	H98	H	0.595749	0.103959	0.412341
	H99	H	0.409877	0.873504	0.404034
	H100	H	0.587328	0.405248	0.115071
	H101	H	0.591201	0.575266	0.888620
	H102	H	0.402719	0.579408	0.116919
	H103	H	0.404586	0.396256	0.887678
	H104	H	0.114633	0.577127	0.399547
	H105	H	0.879979	0.580487	0.597263
	H106	H	0.109953	0.401476	0.589909
	H107	H	0.880676	0.394696	0.415184
	H108	H	0.901918	0.603904	0.096450
	H109	H	0.089407	0.373909	0.093122
	H110	H	0.084489	0.603235	0.911971
	H111	H	0.915930	0.376717	0.909275
	H112	H	0.093410	0.899936	0.618044
	H113	H	0.087117	0.089003	0.386672
	H114	H	0.910209	0.075184	0.614468
	H115	H	0.913902	0.909404	0.393206
	H116	H	0.609416	0.078089	0.917871
	H117	H	0.383808	0.074411	0.088751
	H118	H	0.616897	0.898892	0.103877
	H119	H	0.379935	0.887538	0.913396
	C120	C	0.376677	-0.002737	0.623414
	C121	C	0.619120	0.981025	0.621896
	C122	C	0.620694	-0.002417	0.378084
	C123	C	0.377566	0.980934	0.380008
	C124	C	0.616704	0.366298	0.011235
	C125	C	0.617021	0.609466	0.994881
	C126	C	0.373729	0.611414	0.010858
	C127	C	0.373761	0.366230	0.994910
	C128	C	0.004750	0.609763	0.382021
	C129	C	0.988568	0.609766	0.624080
	C130	C	0.005005	0.368294	0.624262
	C131	C	0.988340	0.367604	0.381626
	C132	C	0.873479	0.497037	0.126328
	C133	C	0.117122	0.480843	0.125829
	C134	C	0.116362	0.497203	0.882555
	C135	C	0.874178	0.479963	0.882074
	C136	C	0.119232	0.868059	0.510860
	C137	C	0.120787	0.112520	0.493990
	C138	C	0.878149	0.109915	0.510587
	C139	C	0.875972	0.866959	0.494101
	C140	C	0.505619	0.109829	0.880284
	C141	C	0.488675	0.108527	0.122045
	C142	C	0.505564	0.867115	0.122791
	C143	C	0.489563	0.867497	0.880510
	C144	C	0.374517	0.877245	0.682005
	C145	C	0.622618	0.100322	0.682370
	C146	C	0.622448	0.877436	0.319274
	C147	C	0.377849	0.101616	0.322318
	C148	C	0.677331	0.365653	0.891360
	C149	C	0.673584	0.608884	0.115928
	C150	C	0.315571	0.610433	0.890479
	C151	C	0.317315	0.368182	0.116412
	C152	C	0.883099	0.667731	0.382656
	C153	C	0.110098	0.668659	0.624797
	C154	C	0.884379	0.307548	0.626195
	C155	C	0.111031	0.311755	0.381150
	C156	C	0.883972	0.364559	0.684147
	C157	C	0.109472	0.611747	0.683239
	C158	C	0.881768	0.608449	0.326973
	C159	C	0.110189	0.368467	0.323220
	C160	C	0.371366	0.670416	0.890956
	C161	C	0.617695	0.668613	0.114696
	C162	C	0.619192	0.308200	0.890765
	C163	C	0.372473	0.307309	0.114998
	C164	C	0.679375	0.877490	0.378168
	C165	C	0.678135	0.101431	0.622520
	C166	C	0.317697	0.876932	0.623400
	C167	C	0.320204	0.101974	0.380302
	C168	C	0.873078	0.376382	0.183988
	C169	C	0.116604	0.602073	0.182171
	C170	C	0.119973	0.377871	0.821843
	C171	C	0.870945	0.599316	0.822090
	C172	C	0.177039	0.868429	0.389842
	C173	C	0.179643	0.112616	0.613851
	C174	C	0.820399	0.110395	0.389762
	C175	C	0.815589	0.866440	0.613937
	C176	C	0.383754	0.167655	0.879306
	C177	C	0.609988	0.167764	0.122231
	C178	C	0.383428	0.809648	0.123740
	C179	C	0.610898	0.808828	0.879642
	C180	C	0.384375	0.865914	0.182365
	C181	C	0.611036	0.109463	0.178523
	C182	C	0.384612	0.111243	0.820819
	C183	C	0.611386	0.866886	0.822429
	C184	C	0.876669	0.169247	0.390703
	C185	C	0.123716	0.172919	0.613170
	C186	C	0.120690	0.808913	0.390763
	C187	C	0.872574	0.807874	0.614222
	C188	C	0.175935	0.376967	0.881363
	C189	C	0.174522	0.601970	0.124704
	C190	C	0.816794	0.375598	0.124853
	C191	C	0.815930	0.600464	0.882454
	C192	C	0.401971	0.080915	0.599116
	C193	C	0.593624	0.897556	0.597464
	C194	C	0.595977	0.081321	0.401757
	C195	C	0.401559	0.896867	0.403658
	C196	C	0.591431	0.390092	0.095062
	C197	C	0.593218	0.585561	0.910891
	C198	C	0.398422	0.587761	0.094488
	C199	C	0.398291	0.390090	0.910909
	C200	C	0.089734	0.586031	0.404796
	C201	C	0.904143	0.584935	0.599597
	C202	C	0.088915	0.394311	0.599044
	C203	C	0.903201	0.390542	0.406143
	C204	C	0.896721	0.581750	0.103629
	C205	C	0.093292	0.396510	0.102481
	C206	C	0.090944	0.580571	0.907175
	C207	C	0.899634	0.396590	0.906353
	C208	C	0.094810	0.891808	0.594813
	C209	C	0.096100	0.088540	0.410146
	C210	C	0.902097	0.085793	0.594317
	C211	C	0.901527	0.890661	0.410265
	C212	C	0.589914	0.085926	0.904715
	C213	C	0.403796	0.084139	0.098970
	C214	C	0.590433	0.890980	0.098177
	C215	C	0.405063	0.891874	0.904596
	Zn216	Zn	0.498709	-0.011029	0.751816
	Zn217	Zn	0.498230	-0.011641	0.250221
	Zn218	Zn	0.745691	0.487779	0.003923
	Zn219	Zn	0.245053	0.489160	0.003691
	Zn220	Zn	-0.002561	0.738589	0.502826
	Zn221	Zn	-0.002412	0.240292	0.503018
	Zn222	Zn	-0.004266	0.488856	0.753091
	Zn223	Zn	-0.004475	0.489380	0.253964
	Zn224	Zn	0.496494	0.739206	0.001612
	Zn225	Zn	0.495845	0.237323	0.002107
	Zn226	Zn	0.748654	-0.010449	0.501595
	Zn227	Zn	0.249057	-0.010524	0.501754
	N228	N	0.410506	0.953220	0.682181
	N229	N	0.586537	0.024420	0.681932
	N230	N	0.586680	0.953265	0.319108
	N231	N	0.412512	0.025181	0.321722
	N232	N	0.675744	0.401184	0.967113
	N233	N	0.673218	0.572628	0.040432
	N234	N	0.316887	0.574480	0.966109
	N235	N	0.318067	0.404102	0.040758
	N236	N	0.960527	0.668678	0.416193
	N237	N	0.033758	0.667829	0.589046
	N238	N	0.960666	0.309581	0.589760
	N239	N	0.034091	0.310829	0.416353
	N240	N	0.959946	0.401779	0.682884
	N241	N	0.032806	0.575706	0.682755
	N242	N	0.958469	0.573192	0.326415
	N243	N	0.032761	0.402541	0.323294
	N244	N	0.406782	0.671128	0.966762
	N245	N	0.583271	0.669080	0.038204
	N246	N	0.581697	0.308994	0.966013
	N247	N	0.406798	0.305941	0.038187
	N248	N	0.678466	0.953063	0.414029
	N249	N	0.675851	0.026406	0.585501
	N250	N	0.319048	0.952689	0.587696
	N251	N	0.319802	0.025848	0.415248
	N252	N	0.907622	0.452902	0.185037
	N253	N	0.081519	0.525641	0.182910
	N254	N	0.083704	0.453487	0.822233
	N255	N	0.906622	0.523385	0.821753
	N256	N	0.176270	0.904474	0.465473
	N257	N	0.178160	0.076253	0.538562
	N258	N	0.821179	0.074096	0.465205
	N259	N	0.817670	0.902443	0.538263
	N260	N	0.459800	0.166950	0.915725
	N261	N	0.532999	0.167284	0.087776
	N262	N	0.459844	0.810286	0.087407
	N263	N	0.533972	0.808925	0.914726
	N264	N	0.461385	0.901032	0.181899
	N265	N	0.534593	0.073109	0.178428
	N266	N	0.461421	0.076076	0.821084
	N267	N	0.534904	0.902520	0.822551
	N268	N	0.911895	0.169033	0.466702
	N269	N	0.087566	0.172778	0.537556
	N270	N	0.085682	0.808296	0.467179
	N271	N	0.909477	0.808142	0.538625
	N272	N	0.173792	0.452171	0.918275
	N273	N	0.174981	0.525632	0.090467
	N274	N	0.816883	0.451713	0.089811
	N275	N	0.817462	0.525041	0.918737
	O276	O	0.587352	0.467582	0.444033
	H277	H	0.585281	0.463319	0.454845
	H278	H	0.591523	0.470748	0.438714
	O279	O	0.475433	0.368540	0.625768
	H280	H	0.475374	0.366523	0.624252
	H281	H	0.486287	0.382742	0.630416
	O282	O	1.057399	-0.086533	1.156383
	H283	H	1.056337	-0.079305	1.153280
	H284	H	1.041862	-0.091823	1.165183
	O285	O	0.461205	0.583676	0.425401
	H286	H	0.458626	0.575701	0.422050
	H287	H	0.470634	0.575069	0.421955
	O288	O	1.083560	1.078218	0.802003
	H289	H	1.071538	1.067745	0.813423
	H290	H	1.068680	1.084188	0.800523
	O291	O	0.197438	1.143747	0.100205
	H292	H	0.200390	1.129361	0.090420
	H293	H	0.218673	1.159446	0.113705
	O294	O	0.391520	0.515853	0.569664
	H295	H	0.398612	0.517092	0.572573
	H296	H	0.383959	0.521237	0.583788
	O297	O	0.543500	0.675114	0.707333
	H298	H	0.579814	0.676542	0.700656
	H299	H	0.554908	0.700593	0.729448
	O300	O	0.549396	0.395094	0.606915
	H301	H	0.547499	0.383907	0.600763
	H302	H	0.542032	0.389016	0.606897
	O303	O	0.338667	0.455648	0.593472
	H304	H	0.338984	0.451769	0.611926
	H305	H	0.330246	0.448041	0.588075
	O306	O	0.507445	0.550600	0.394825
	H307	H	0.513885	0.549628	0.396368
	H308	H	0.508378	0.549276	0.385835
	O309	O	0.471102	0.309388	0.472294
	H310	H	0.467439	0.312220	0.469867
	H311	H	0.465367	0.316101	0.471265
	O312	O	0.085335	-0.092325	0.020826
	H313	H	0.084677	-0.083056	0.018685
	H314	H	0.085716	-0.077975	0.042935
	O315	O	0.672233	0.666738	0.636257
	H316	H	0.680426	0.665272	0.599436
	H317	H	0.683977	0.639626	0.634926
	O318	O	-0.173492	0.999458	1.032602
	H319	H	-0.187728	0.996475	1.025913
	H320	H	-0.166338	1.016939	1.024161
	O321	O	0.410987	0.389302	0.422147
	H322	H	0.402069	0.409104	0.415062
	H323	H	0.419927	0.395541	0.439996
	O324	O	0.151134	0.979286	-0.156872
	H325	H	0.143426	0.982034	-0.175442
	H326	H	0.147986	0.993804	-0.161342
	O327	O	0.504529	0.471496	0.631268
	H328	H	0.503224	0.467614	0.626683
	H329	H	0.492124	0.478300	0.634207
	O330	O	0.091135	0.183720	1.183089
	H331	H	0.114254	0.176597	1.182108
	H332	H	0.092639	0.195674	1.184350
	O333	O	-0.047089	-0.180995	1.142507
	H334	H	-0.046037	-0.189939	1.143246
	H335	H	-0.060518	-0.168598	1.140205
	O336	O	0.378625	0.529532	0.406326
	H337	H	0.363699	0.527985	0.417769
	H338	H	0.376818	0.510288	0.414278
	O339	O	0.924698	-0.053240	0.017805
	H340	H	0.913540	-0.037788	0.015950
	H341	H	0.936871	-0.047826	0.026268
	O342	O	-0.149316	0.126851	-0.110153
	H343	H	-0.158833	0.123390	-0.085781
	H344	H	-0.159478	0.090575	-0.103432
	O345	O	1.002810	0.072454	1.107250
	H346	H	1.008541	0.086920	1.112586
	H347	H	0.993979	0.074033	1.110286
	O348	O	0.957033	1.176498	-0.023905
	H349	H	0.976875	1.175290	-0.043702
	H350	H	0.972019	1.181888	-0.008753
	O351	O	0.671570	0.418280	0.426405
	H352	H	0.673222	0.433876	0.434505
	H353	H	0.675230	0.423269	0.434135
	O354	O	1.064074	0.052884	1.005714
	H355	H	1.066227	0.068665	1.005074
	H356	H	1.061541	0.056114	1.008181
	O357	O	0.444101	0.592592	0.391618
	H358	H	0.430687	0.593056	0.393927
	H359	H	0.437413	0.601611	0.381645
	O360	O	0.375558	0.330128	0.488702
	H361	H	0.371432	0.328557	0.506081
	H362	H	0.373717	0.318453	0.494275
	O363	O	0.041262	1.113293	1.153515
	H364	H	0.042980	1.105403	1.155699
	H365	H	0.033357	1.121440	1.151793
	O366	O	0.558321	0.609359	0.554718
	H367	H	0.576293	0.631305	0.551585
	H368	H	0.545024	0.620456	0.547767
	O369	O	0.154561	0.805940	-0.065385
	H370	H	0.167263	0.821666	-0.045247
	H371	H	0.171091	0.793833	-0.068885
	O372	O	0.621558	0.340350	0.313663
	H373	H	0.618055	0.354394	0.320725
	H374	H	0.615456	0.327420	0.305289
	O375	O	0.554166	0.517108	0.482471
	H376	H	0.560388	0.526813	0.490412
	H377	H	0.558942	0.527907	0.486979
	O378	O	0.828563	0.983912	-0.154024
	H379	H	0.832387	0.972051	-0.149816
	H380	H	0.836264	0.967717	-0.162471
	O381	O	1.087550	-0.150372	-0.151342
	H382	H	1.106603	-0.130754	-0.162361
	H383	H	1.092003	-0.155531	-0.124046
	O384	O	0.994578	0.817822	-0.174640
	H385	H	1.012315	0.821174	-0.157500
	H386	H	1.010495	0.795755	-0.182176
	O387	O	-0.134444	-0.163149	0.040279
	H388	H	-0.141074	-0.179668	0.026524
	H389	H	-0.125940	-0.167642	0.031790
	O390	O	-0.056418	1.169047	-0.180166
	H391	H	-0.054283	1.187543	-0.208355
	H392	H	-0.090746	1.155950	-0.172371
	O393	O	1.169644	1.033167	0.974222
	H394	H	1.166265	1.023661	0.955033
	H395	H	1.152773	1.039721	0.970206
	O396	O	0.621124	0.469514	0.692555
	H397	H	0.604232	0.459638	0.692449
	H398	H	0.639922	0.464175	0.713617
	O399	O	-0.125391	1.146867	0.985513
	H400	H	-0.121624	1.155383	0.993260
	H401	H	-0.116664	1.146429	1.010794
	O402	O	0.479907	0.557826	0.595826
	H403	H	0.473559	0.559191	0.610609
	H404	H	0.484374	0.557356	0.597483
	O405	O	1.123774	0.928012	0.082771
	H406	H	1.127741	0.921195	0.092513
	H407	H	1.124788	0.928205	0.091130
	O408	O	0.937749	0.874934	-0.016576
	H409	H	0.950601	0.872131	-0.010688
	H410	H	0.942015	0.870606	-0.013153
	O411	O	0.864695	-0.104412	1.172189
	H412	H	0.846613	-0.097763	1.179210
	H413	H	0.862852	-0.107706	1.152557
	O414	O	0.562654	0.659553	0.423239
	H415	H	0.536201	0.662773	0.421741
	H416	H	0.554326	0.648495	0.415223
	O417	O	0.304688	0.506502	0.502801
	H418	H	0.305298	0.490611	0.500378
	H419	H	0.306015	0.510142	0.515146
