data_Molecule from HDF5

_cell_length_a		16.247098
_cell_length_b		16.293164
_cell_length_c		16.288455
_cell_angle_alpha	89.930136
_cell_angle_beta	89.906932
_cell_angle_gamma	90.124079
_symmetry_space_group_name_H-M	'P 1'
_symmetry_Int_Tables_number		1

loop_
	_symmetry_equiv_pos_as_xyz
	x,y,z

loop_
	_atom_site_label
	_atom_site_type_symbol
	_atom_site_fract_x
	_atom_site_fract_y
	_atom_site_fract_z
	H0	H	0.404512	0.833089	0.705540
	H1	H	0.605850	0.159512	0.705908
	H2	H	0.605608	0.833398	0.275071
	H3	H	0.407622	0.159672	0.275734
	H4	H	0.721200	0.397648	0.828858
	H5	H	0.717449	0.594286	0.155149
	H6	H	0.289842	0.594262	0.827569
	H7	H	0.290882	0.398681	0.155382
	H8	H	0.841040	0.710996	0.393762
	H9	H	0.168835	0.711657	0.589702
	H10	H	0.840859	0.281794	0.591736
	H11	H	0.168055	0.283897	0.392143
	H12	H	0.841037	0.397956	0.706664
	H13	H	0.168847	0.595568	0.705497
	H14	H	0.840493	0.594899	0.277532
	H15	H	0.167602	0.399180	0.276509
	H16	H	0.405570	0.711101	0.827312
	H17	H	0.602929	0.711307	0.154503
	H18	H	0.604318	0.282028	0.827251
	H19	H	0.404344	0.280360	0.154615
	H20	H	0.719961	0.833670	0.391018
	H21	H	0.719460	0.160608	0.587778
	H22	H	0.289252	0.833416	0.589900
	H23	H	0.292656	0.160381	0.392506
	H24	H	0.904132	0.333481	0.206299
	H25	H	0.101777	0.660610	0.204082
	H26	H	0.104106	0.333433	0.775489
	H27	H	0.906556	0.660330	0.777726
	H28	H	0.217547	0.899624	0.327000
	H29	H	0.220207	0.094966	0.654432
	H30	H	0.791395	0.096464	0.326568
	H31	H	0.789257	0.898460	0.653780
	H32	H	0.340048	0.210473	0.892027
	H33	H	0.668452	0.210911	0.089022
	H34	H	0.340364	0.781995	0.088644
	H35	H	0.668484	0.782233	0.891271
	H36	H	0.341394	0.894878	0.206998
	H37	H	0.669169	0.093703	0.202774
	H38	H	0.340456	0.094391	0.775606
	H39	H	0.668241	0.897404	0.774785
	H40	H	0.905590	0.213810	0.327987
	H41	H	0.104445	0.212948	0.654387
	H42	H	0.104637	0.781888	0.328320
	H43	H	0.905705	0.782616	0.654761
	H44	H	0.219194	0.332582	0.892817
	H45	H	0.219584	0.659454	0.090371
	H46	H	0.788988	0.333548	0.090188
	H47	H	0.790372	0.660323	0.893398
	H48	H	0.411287	0.115701	0.593109
	H49	H	0.592014	0.882076	0.582624
	H50	H	0.593998	0.114129	0.387451
	H51	H	0.400468	0.875866	0.395248
	H52	H	0.599437	0.399801	0.109505
	H53	H	0.595193	0.583521	0.876880
	H54	H	0.413736	0.598217	0.109088
	H55	H	0.417454	0.401088	0.875707
	H56	H	0.122257	0.597114	0.402804
	H57	H	0.892139	0.580741	0.578218
	H58	H	0.119929	0.407869	0.583519
	H59	H	0.888966	0.401916	0.406562
	H60	H	0.122565	0.404486	0.587122
	H61	H	0.884681	0.588467	0.596139
	H62	H	0.119187	0.583539	0.398701
	H63	H	0.888664	0.412352	0.398139
	H64	H	0.402395	0.588900	0.109571
	H65	H	0.593030	0.594446	0.874155
	H66	H	0.596624	0.407626	0.106062
	H67	H	0.407630	0.400094	0.872599
	H68	H	0.593545	0.110246	0.404041
	H69	H	0.599830	0.881220	0.578407
	H70	H	0.423452	0.108205	0.579754
	H71	H	0.418092	0.878908	0.388333
	H72	H	0.910375	0.612685	0.082753
	H73	H	0.100443	0.378377	0.085681
	H74	H	0.099149	0.609524	0.908625
	H75	H	0.911306	0.380597	0.900588
	H76	H	0.099291	0.903102	0.608051
	H77	H	0.088038	0.085638	0.379190
	H78	H	0.905706	0.086569	0.607486
	H79	H	0.902990	0.909469	0.372830
	H80	H	0.622803	0.095897	0.897330
	H81	H	0.390963	0.083529	0.079628
	H82	H	0.624913	0.904103	0.093953
	H83	H	0.386482	0.902654	0.893162
	H84	H	0.623139	0.893978	0.077468
	H85	H	0.386510	0.087287	0.089824
	H86	H	0.617446	0.086273	0.903206
	H87	H	0.387451	0.899214	0.898915
	H88	H	0.917794	0.085279	0.603436
	H89	H	0.097190	0.103021	0.372034
	H90	H	0.097031	0.906841	0.606930
	H91	H	0.922298	0.910066	0.379823
	H92	H	0.106166	0.617277	0.893496
	H93	H	0.094693	0.379854	0.087706
	H94	H	0.909568	0.614932	0.086797
	H95	H	0.910238	0.380015	0.898715
	H96	H	0.404771	0.113056	0.575521
	H97	H	0.599501	0.878560	0.586642
	H98	H	0.607821	0.115795	0.396696
	H99	H	0.414358	0.882817	0.406651
	H100	H	0.590873	0.400409	0.106646
	H101	H	0.603502	0.590426	0.873113
	H102	H	0.415413	0.584332	0.105195
	H103	H	0.410574	0.409580	0.876675
	H104	H	0.124167	0.592666	0.389345
	H105	H	0.886124	0.599890	0.579970
	H106	H	0.121223	0.402189	0.581678
	H107	H	0.884826	0.400157	0.393514
	H108	H	0.913385	0.612993	0.085634
	H109	H	0.096204	0.380934	0.081971
	H110	H	0.088469	0.611199	0.893648
	H111	H	0.912846	0.380607	0.898745
	H112	H	0.094892	0.903719	0.607225
	H113	H	0.108381	0.085279	0.373483
	H114	H	0.913990	0.096219	0.608935
	H115	H	0.914258	0.892619	0.371540
	H116	H	0.622100	0.085314	0.891720
	H117	H	0.386493	0.094130	0.081051
	H118	H	0.616730	0.912316	0.077932
	H119	H	0.389177	0.905700	0.899020
	C120	C	0.383141	0.004846	0.612063
	C121	C	0.626528	0.988402	0.611848
	C122	C	0.627053	0.005061	0.367809
	C123	C	0.383228	0.987679	0.368339
	C124	C	0.625424	0.374212	-0.000291
	C125	C	0.625493	0.618140	0.982837
	C126	C	0.382349	0.618550	-0.000546
	C127	C	0.382884	0.374463	0.983204
	C128	C	0.013298	0.618724	0.369526
	C129	C	0.996288	0.618162	0.612982
	C130	C	0.013018	0.375609	0.613159
	C131	C	0.995471	0.376272	0.370535
	C132	C	0.882024	0.505536	0.113654
	C133	C	0.125542	0.487870	0.113048
	C134	C	0.126191	0.504661	0.869881
	C135	C	0.883108	0.488401	0.870430
	C136	C	0.125884	0.875787	0.499671
	C137	C	0.127103	0.119555	0.482446
	C138	C	0.883814	0.118692	0.498838
	C139	C	0.883563	0.875391	0.482586
	C140	C	0.512598	0.117949	0.868464
	C141	C	0.496276	0.117101	0.111658
	C142	C	0.513264	0.874543	0.111992
	C143	C	0.496201	0.874279	0.868305
	C144	C	0.384552	0.882067	0.667629
	C145	C	0.624868	0.111025	0.667196
	C146	C	0.624587	0.882151	0.313366
	C147	C	0.386751	0.110874	0.313364
	C148	C	0.682009	0.377368	0.876986
	C149	C	0.679961	0.615259	0.106231
	C150	C	0.327374	0.615363	0.876452
	C151	C	0.328016	0.377388	0.106318
	C152	C	0.889869	0.673542	0.372701
	C153	C	0.119705	0.673826	0.610498
	C154	C	0.889869	0.319725	0.611754
	C155	C	0.119160	0.322054	0.372650
	C156	C	0.889852	0.377142	0.669114
	C157	C	0.119717	0.616190	0.667876
	C158	C	0.889584	0.616183	0.315016
	C159	C	0.118929	0.378876	0.314600
	C160	C	0.385260	0.672997	0.876248
	C161	C	0.622932	0.673088	0.105787
	C162	C	0.623947	0.319745	0.876330
	C163	C	0.384211	0.318392	0.105729
	C164	C	0.681915	0.882210	0.370825
	C165	C	0.681854	0.111491	0.608859
	C166	C	0.327391	0.882074	0.610060
	C167	C	0.329378	0.111143	0.371219
	C168	C	0.884069	0.382542	0.168726
	C169	C	0.122726	0.611433	0.167073
	C170	C	0.123591	0.381724	0.814501
	C171	C	0.885753	0.611411	0.815221
	C172	C	0.180637	0.878750	0.376209
	C173	C	0.182202	0.116094	0.605565
	C174	C	0.829103	0.116672	0.375564
	C175	C	0.827489	0.877924	0.605235
	C176	C	0.389229	0.172921	0.871116
	C177	C	0.619707	0.172680	0.109052
	C178	C	0.389524	0.819698	0.109358
	C179	C	0.619326	0.819443	0.870604
	C180	C	0.390160	0.876017	0.167991
	C181	C	0.620015	0.114376	0.165601
	C182	C	0.389419	0.115335	0.813204
	C183	C	0.619469	0.877068	0.812951
	C184	C	0.885796	0.175247	0.376415
	C185	C	0.125106	0.174847	0.605605
	C186	C	0.124217	0.820316	0.376924
	C187	C	0.885260	0.820165	0.605620
	C188	C	0.181002	0.381395	0.872438
	C189	C	0.180964	0.610959	0.110332
	C190	C	0.826718	0.382583	0.110989
	C191	C	0.827757	0.611292	0.872568
	C192	C	0.406197	0.090395	0.589412
	C193	C	0.603809	0.902682	0.589211
	C194	C	0.605096	0.091318	0.389694
	C195	C	0.404533	0.901290	0.390281
	C196	C	0.602496	0.396165	0.085148
	C197	C	0.603730	0.595999	0.897037
	C198	C	0.404222	0.596916	0.085719
	C199	C	0.405339	0.396842	0.897287
	C200	C	0.099471	0.597419	0.390529
	C201	C	0.910069	0.596268	0.591006
	C202	C	0.098930	0.398130	0.590711
	C203	C	0.909634	0.398439	0.392789
	C204	C	0.904592	0.591505	0.091387
	C205	C	0.103544	0.401865	0.091396
	C206	C	0.104453	0.590490	0.892101
	C207	C	0.904938	0.402534	0.892764
	C208	C	0.103657	0.898122	0.585341
	C209	C	0.104641	0.097696	0.397022
	C210	C	0.905988	0.096144	0.584610
	C211	C	0.906341	0.897623	0.396760
	C212	C	0.598522	0.095666	0.890550
	C213	C	0.410385	0.094718	0.089857
	C214	C	0.599283	0.896886	0.089718
	C215	C	0.409962	0.896138	0.890655
	Zn216	Zn	0.504709	-0.003929	0.740006
	Zn217	Zn	0.505185	-0.004019	0.240140
	Zn218	Zn	0.753949	0.496881	-0.008439
	Zn219	Zn	0.254068	0.495983	-0.008129
	Zn220	Zn	0.004982	0.746578	0.491498
	Zn221	Zn	0.004600	0.247830	0.491650
	Zn222	Zn	0.004644	0.496796	0.741550
	Zn223	Zn	0.004101	0.496739	0.241484
	Zn224	Zn	0.504641	0.746676	-0.009313
	Zn225	Zn	0.504413	0.245581	-0.008923
	Zn226	Zn	0.754746	-0.002730	0.489784
	Zn227	Zn	0.255478	-0.003754	0.490400
	N228	N	0.418738	0.959544	0.668899
	N229	N	0.591487	0.033327	0.669242
	N230	N	0.591372	0.959729	0.311565
	N231	N	0.419691	0.033092	0.311668
	N232	N	0.683002	0.410538	0.954624
	N233	N	0.681753	0.581686	0.028678
	N234	N	0.325502	0.582084	0.954227
	N235	N	0.327072	0.411435	0.028971
	N236	N	0.967703	0.675288	0.405876
	N237	N	0.041871	0.675243	0.576967
	N238	N	0.967446	0.318701	0.577674
	N239	N	0.041716	0.320422	0.406626
	N240	N	0.967262	0.411369	0.669816
	N241	N	0.042097	0.582363	0.669634
	N242	N	0.967109	0.582591	0.313073
	N243	N	0.041012	0.411958	0.313110
	N244	N	0.418384	0.675220	0.953861
	N245	N	0.589842	0.674920	0.028148
	N246	N	0.589508	0.317814	0.953527
	N247	N	0.417643	0.316514	0.028098
	N248	N	0.683497	0.959757	0.404231
	N249	N	0.682835	0.034237	0.574883
	N250	N	0.326736	0.959225	0.576041
	N251	N	0.327077	0.033469	0.404532
	N252	N	0.917768	0.460157	0.170594
	N253	N	0.088773	0.534052	0.168736
	N254	N	0.090291	0.459403	0.812823
	N255	N	0.919285	0.534019	0.813630
	N256	N	0.181681	0.912647	0.453488
	N257	N	0.183813	0.082579	0.528032
	N258	N	0.827885	0.082006	0.452605
	N259	N	0.826261	0.911476	0.527676
	N260	N	0.466889	0.174845	0.904671
	N261	N	0.541748	0.174436	0.076208
	N262	N	0.466855	0.818771	0.075094
	N263	N	0.541645	0.817846	0.904371
	N264	N	0.468088	0.909340	0.169768
	N265	N	0.542383	0.080597	0.167368
	N266	N	0.467062	0.081803	0.811641
	N267	N	0.541811	0.910519	0.811476
	N268	N	0.919172	0.176410	0.454058
	N269	N	0.091380	0.176954	0.528300
	N270	N	0.090739	0.818392	0.454553
	N271	N	0.919315	0.818479	0.528273
	N272	N	0.182356	0.458644	0.906329
	N273	N	0.182843	0.533150	0.077600
	N274	N	0.825344	0.460112	0.077674
	N275	N	0.826173	0.533843	0.906303
	O276	O	0.987628	0.997774	-0.044704
	H277	H	0.983392	1.004170	-0.032387
	H278	H	0.994570	0.992907	-0.047113
	O279	O	0.502535	0.434591	0.493951
	H280	H	0.504761	0.433790	0.496617
	H281	H	0.494262	0.424418	0.493728
	O282	O	-0.025343	0.045302	-0.085013
	H283	H	-0.024497	0.051049	-0.084581
	H284	H	-0.024511	0.041654	-0.099256
	O285	O	0.525752	0.434237	0.517095
	H286	H	0.522599	0.444047	0.512149
	H287	H	0.533819	0.431236	0.513775
	O288	O	-0.031693	-0.059651	0.032779
	H289	H	-0.033501	-0.061353	0.029435
	H290	H	-0.030676	-0.070052	0.034775
	O291	O	0.101301	0.968757	0.042902
	H292	H	0.097835	0.960639	0.038949
	H293	H	0.091281	0.966444	0.052032
	O294	O	-0.033502	1.019836	-0.015441
	H295	H	-0.033087	1.023090	-0.018324
	H296	H	-0.027996	1.022185	-0.019604
	O297	O	0.529039	0.515724	0.560324
	H298	H	0.526427	0.513898	0.558339
	H299	H	0.526049	0.519015	0.565228
	O300	O	0.496147	0.513259	0.518050
	H301	H	0.494681	0.509227	0.515074
	H302	H	0.492086	0.513624	0.513552
	O303	O	0.991829	0.023338	1.064791
	H304	H	0.996519	0.016618	1.059054
	H305	H	0.987849	0.031474	1.069919
	O306	O	-0.006060	1.016308	0.902564
	H307	H	-0.010480	1.019492	0.903631
	H308	H	-0.005423	1.023859	0.904937
	O309	O	-0.019887	1.085892	0.965806
	H310	H	-0.022307	1.079690	0.972255
	H311	H	-0.023276	1.085231	0.971231
	O312	O	0.056739	-0.043815	0.976952
	H313	H	0.059820	-0.048109	0.976896
	H314	H	0.069093	-0.045412	0.973422
	O315	O	0.587692	0.501158	0.519278
	H316	H	0.584985	0.504358	0.517271
	H317	H	0.588988	0.508722	0.526156
	O318	O	0.048100	-0.033799	0.939451
	H319	H	0.056820	-0.019371	0.949616
	H320	H	0.050311	-0.033399	0.939294
	O321	O	-0.027385	-0.018847	1.104328
	H322	H	-0.029448	-0.016113	1.105580
	H323	H	-0.030878	-0.022792	1.093509
	O324	O	1.014622	-0.016541	0.982608
	H325	H	1.011085	-0.005983	0.984849
	H326	H	1.012556	-0.011476	0.973713
	O327	O	0.946470	1.059094	0.994831
	H328	H	0.951797	1.043953	0.998774
	H329	H	0.953172	1.064205	0.999532
	O330	O	0.017766	1.051517	0.996077
	H331	H	0.022305	1.054528	1.002647
	H332	H	0.015797	1.035313	0.983046
	O333	O	0.484072	0.512222	0.510373
	H334	H	0.479724	0.506259	0.501496
	H335	H	0.487175	0.508118	0.517893
	O336	O	0.532284	0.479497	0.514304
	H337	H	0.543439	0.477438	0.516171
	H338	H	0.529151	0.474729	0.512992
	O339	O	0.545049	0.428316	0.548405
	H340	H	0.551703	0.429157	0.556637
	H341	H	0.536203	0.417559	0.558836
	O342	O	0.665315	0.327006	0.353489
	H343	H	0.672813	0.331201	0.356254
	H344	H	0.659423	0.329750	0.355917
	O345	O	0.438976	0.431188	0.573646
	H346	H	0.442372	0.424770	0.579950
	H347	H	0.442225	0.435572	0.566349
