data_Molecule from HDF5

_cell_length_a		16.255939
_cell_length_b		16.392915
_cell_length_c		16.157156
_cell_angle_alpha	90.211812
_cell_angle_beta	90.232399
_cell_angle_gamma	89.912740
_symmetry_space_group_name_H-M	'P 1'
_symmetry_Int_Tables_number		1

loop_
	_symmetry_equiv_pos_as_xyz
	x,y,z

loop_
	_atom_site_label
	_atom_site_type_symbol
	_atom_site_fract_x
	_atom_site_fract_y
	_atom_site_fract_z
	H0	H	0.397136	0.842238	0.708291
	H1	H	0.594055	0.167588	0.711413
	H2	H	0.591554	0.842220	0.279426
	H3	H	0.393707	0.168151	0.277891
	H4	H	0.706550	0.405765	0.829388
	H5	H	0.707859	0.603976	0.158900
	H6	H	0.277725	0.606134	0.830703
	H7	H	0.280997	0.409409	0.159468
	H8	H	0.830594	0.723043	0.391897
	H9	H	0.156006	0.722862	0.597251
	H10	H	0.831191	0.289372	0.595647
	H11	H	0.155772	0.287017	0.391101
	H12	H	0.828597	0.410933	0.705207
	H13	H	0.156509	0.605617	0.710169
	H14	H	0.829625	0.602446	0.280671
	H15	H	0.157747	0.407084	0.279920
	H16	H	0.393124	0.721242	0.830936
	H17	H	0.595212	0.720785	0.158526
	H18	H	0.593829	0.289074	0.831150
	H19	H	0.392922	0.290922	0.158397
	H20	H	0.710531	0.843823	0.394131
	H21	H	0.710487	0.167700	0.596632
	H22	H	0.277856	0.843186	0.593102
	H23	H	0.276214	0.167847	0.392670
	H24	H	0.895061	0.343063	0.209319
	H25	H	0.091398	0.668774	0.210065
	H26	H	0.091701	0.343566	0.777950
	H27	H	0.894404	0.669631	0.780844
	H28	H	0.206055	0.906938	0.329668
	H29	H	0.208107	0.105081	0.658189
	H30	H	0.778082	0.104841	0.330036
	H31	H	0.783117	0.910127	0.659634
	H32	H	0.331276	0.223102	0.890979
	H33	H	0.657207	0.222205	0.097251
	H34	H	0.331930	0.788590	0.096197
	H35	H	0.657148	0.787983	0.893632
	H36	H	0.330289	0.908761	0.206380
	H37	H	0.657806	0.102575	0.209510
	H38	H	0.330097	0.103000	0.779715
	H39	H	0.659361	0.908142	0.782025
	H40	H	0.892660	0.221283	0.330155
	H41	H	0.094973	0.222415	0.657749
	H42	H	0.093147	0.789621	0.330902
	H43	H	0.893248	0.791715	0.657760
	H44	H	0.210692	0.343856	0.892793
	H45	H	0.209983	0.668373	0.095526
	H46	H	0.778450	0.343486	0.092155
	H47	H	0.776616	0.668211	0.895717
	H48	H	0.398547	0.121354	0.590306
	H49	H	0.586608	0.891154	0.584308
	H50	H	0.581937	0.118189	0.406455
	H51	H	0.392463	0.890046	0.404907
	H52	H	0.578917	0.419855	0.107858
	H53	H	0.585752	0.599014	0.876744
	H54	H	0.407396	0.606445	0.112814
	H55	H	0.408368	0.419300	0.881318
	H56	H	0.110191	0.597711	0.402921
	H57	H	0.873682	0.600829	0.597088
	H58	H	0.109083	0.413268	0.583006
	H59	H	0.880272	0.418429	0.404534
	H60	H	0.109973	0.414957	0.586048
	H61	H	0.874636	0.610368	0.580210
	H62	H	0.109587	0.601134	0.403314
	H63	H	0.875983	0.412985	0.396116
	H64	H	0.393691	0.598399	0.114385
	H65	H	0.584434	0.595869	0.877885
	H66	H	0.583837	0.404803	0.113838
	H67	H	0.404190	0.403928	0.875781
	H68	H	0.591000	0.122830	0.404407
	H69	H	0.592184	0.889065	0.586807
	H70	H	0.404811	0.119592	0.586885
	H71	H	0.399724	0.887886	0.392355
	H72	H	0.895271	0.623039	0.088384
	H73	H	0.081921	0.391398	0.089678
	H74	H	0.086229	0.623351	0.894734
	H75	H	0.895604	0.391210	0.907774
	H76	H	0.085455	0.920645	0.609301
	H77	H	0.085403	0.093755	0.378045
	H78	H	0.900534	0.097323	0.611608
	H79	H	0.895292	0.911282	0.373884
	H80	H	0.608844	0.094031	0.906178
	H81	H	0.377706	0.096192	0.087021
	H82	H	0.611605	0.905573	0.081617
	H83	H	0.377432	0.914406	0.895198
	H84	H	0.607882	0.919189	0.083337
	H85	H	0.376239	0.102759	0.087830
	H86	H	0.612488	0.099280	0.898909
	H87	H	0.376211	0.905929	0.904780
	H88	H	0.906096	0.099615	0.610277
	H89	H	0.080594	0.099173	0.377420
	H90	H	0.080543	0.910295	0.611575
	H91	H	0.902685	0.921001	0.379109
	H92	H	0.078072	0.617446	0.906340
	H93	H	0.088661	0.391863	0.081196
	H94	H	0.903087	0.621598	0.091427
	H95	H	0.894163	0.387196	0.892543
	H96	H	0.399058	0.120382	0.583063
	H97	H	0.587459	0.889826	0.590608
	H98	H	0.584572	0.122479	0.397524
	H99	H	0.406346	0.893148	0.404319
	H100	H	0.595461	0.417279	0.112827
	H101	H	0.582188	0.599072	0.877630
	H102	H	0.406446	0.590959	0.108370
	H103	H	0.391855	0.415982	0.875113
	H104	H	0.109322	0.598907	0.405425
	H105	H	0.880754	0.592129	0.581172
	H106	H	0.110470	0.411854	0.586616
	H107	H	0.877517	0.407785	0.405808
	H108	H	0.901544	0.619365	0.083116
	H109	H	0.092294	0.387507	0.091102
	H110	H	0.092354	0.621578	0.908838
	H111	H	0.907814	0.392697	0.898059
	H112	H	0.091451	0.912390	0.614001
	H113	H	0.087718	0.100114	0.376116
	H114	H	0.901866	0.103347	0.613353
	H115	H	0.907454	0.908791	0.376595
	H116	H	0.610267	0.103513	0.907201
	H117	H	0.378580	0.100609	0.081404
	H118	H	0.614353	0.911965	0.094853
	H119	H	0.381457	0.917261	0.907461
	C120	C	0.372275	0.013363	0.615878
	C121	C	0.617299	0.997027	0.617103
	C122	C	0.614831	0.013599	0.373414
	C123	C	0.370819	0.997603	0.371615
	C124	C	0.614754	0.384514	0.003030
	C125	C	0.614398	0.626533	0.985833
	C126	C	0.372432	0.627813	0.003516
	C127	C	0.372631	0.384916	0.985994
	C128	C	0.001881	0.628100	0.373758
	C129	C	0.984544	0.629072	0.615856
	C130	C	0.001720	0.385432	0.614663
	C131	C	0.985544	0.383909	0.372397
	C132	C	0.871321	0.514039	0.116470
	C133	C	0.115999	0.497704	0.116595
	C134	C	0.115065	0.513951	0.872608
	C135	C	0.870749	0.497794	0.871745
	C136	C	0.114649	0.884896	0.503087
	C137	C	0.114448	0.127515	0.485264
	C138	C	0.872490	0.128295	0.503137
	C139	C	0.873236	0.885486	0.485483
	C140	C	0.502496	0.127458	0.873159
	C141	C	0.485489	0.128187	0.115935
	C142	C	0.503081	0.883954	0.115398
	C143	C	0.486401	0.883916	0.873342
	C144	C	0.375510	0.891125	0.670979
	C145	C	0.614674	0.119029	0.673323
	C146	C	0.612405	0.891186	0.317245
	C147	C	0.373545	0.119687	0.316202
	C148	C	0.669156	0.386060	0.878853
	C149	C	0.670351	0.624404	0.109639
	C150	C	0.316476	0.625859	0.879729
	C151	C	0.317683	0.388029	0.110023
	C152	C	0.879304	0.684251	0.373401
	C153	C	0.107161	0.684797	0.616232
	C154	C	0.879489	0.328736	0.614230
	C155	C	0.107588	0.326374	0.372332
	C156	C	0.878213	0.389217	0.668822
	C157	C	0.107497	0.626366	0.672368
	C158	C	0.878604	0.624546	0.317807
	C159	C	0.108519	0.386065	0.316952
	C160	C	0.373403	0.683486	0.880128
	C161	C	0.614412	0.682565	0.109430
	C162	C	0.613517	0.327642	0.879947
	C163	C	0.373455	0.329101	0.109539
	C164	C	0.671651	0.891936	0.374278
	C165	C	0.672654	0.119184	0.616213
	C166	C	0.316491	0.891468	0.613460
	C167	C	0.315089	0.119532	0.373505
	C168	C	0.874331	0.391815	0.171563
	C169	C	0.112789	0.620013	0.172375
	C170	C	0.112693	0.392087	0.816089
	C171	C	0.873560	0.620612	0.817671
	C172	C	0.169181	0.886333	0.379125
	C173	C	0.170504	0.125840	0.609027
	C174	C	0.816197	0.125626	0.379137
	C175	C	0.819341	0.889274	0.609848
	C176	C	0.379828	0.183993	0.872442
	C177	C	0.608325	0.183864	0.116057
	C178	C	0.380371	0.827719	0.114703
	C179	C	0.608917	0.827341	0.874346
	C180	C	0.379356	0.887192	0.169798
	C181	C	0.608802	0.124258	0.171735
	C182	C	0.379413	0.124352	0.816637
	C183	C	0.609993	0.887143	0.818970
	C184	C	0.872970	0.183582	0.379286
	C185	C	0.114069	0.183909	0.608831
	C186	C	0.112869	0.828309	0.379889
	C187	C	0.874239	0.830284	0.608989
	C188	C	0.171904	0.392213	0.873185
	C189	C	0.171616	0.619786	0.115512
	C190	C	0.816170	0.392038	0.113443
	C191	C	0.814875	0.620111	0.874656
	C192	C	0.394434	0.098438	0.593383
	C193	C	0.595209	0.911963	0.593838
	C194	C	0.592256	0.099131	0.396152
	C195	C	0.393110	0.912340	0.394036
	C196	C	0.592489	0.407394	0.089261
	C197	C	0.590959	0.604277	0.899435
	C198	C	0.395585	0.605125	0.089556
	C199	C	0.394978	0.406696	0.899745
	C200	C	0.087620	0.605842	0.397195
	C201	C	0.898478	0.607210	0.592940
	C202	C	0.087607	0.407116	0.591975
	C203	C	0.899961	0.406428	0.395435
	C204	C	0.893554	0.599373	0.094256
	C205	C	0.094410	0.412358	0.093816
	C206	C	0.092304	0.598780	0.896345
	C207	C	0.892634	0.412499	0.893116
	C208	C	0.092395	0.907830	0.589319
	C209	C	0.091182	0.104709	0.399455
	C210	C	0.895862	0.106410	0.589205
	C211	C	0.895355	0.907292	0.398850
	C212	C	0.588312	0.105430	0.897045
	C213	C	0.399702	0.106269	0.092295
	C214	C	0.588930	0.905946	0.093350
	C215	C	0.400657	0.905975	0.895906
	Zn216	Zn	0.494942	0.005421	0.744841
	Zn217	Zn	0.493569	0.005403	0.243222
	Zn218	Zn	0.742037	0.505956	-0.006080
	Zn219	Zn	0.244942	0.505911	-0.005549
	Zn220	Zn	-0.006683	0.757373	0.494862
	Zn221	Zn	-0.006083	0.255951	0.494180
	Zn222	Zn	-0.007184	0.506588	0.743049
	Zn223	Zn	-0.006209	0.506201	0.245561
	Zn224	Zn	0.494316	0.754900	-0.005269
	Zn225	Zn	0.493759	0.256590	-0.005457
	Zn226	Zn	0.745455	0.006423	0.494528
	Zn227	Zn	0.242263	0.006277	0.493766
	N228	N	0.409365	0.967866	0.672368
	N229	N	0.580708	0.042210	0.673825
	N230	N	0.577752	0.967873	0.316691
	N231	N	0.407300	0.042728	0.314626
	N232	N	0.670214	0.420749	0.956608
	N233	N	0.670371	0.590208	0.031668
	N234	N	0.315501	0.592010	0.957492
	N235	N	0.316997	0.421814	0.032111
	N236	N	0.957069	0.686501	0.407598
	N237	N	0.029609	0.686930	0.582032
	N238	N	0.957287	0.326357	0.581083
	N239	N	0.030001	0.324866	0.406194
	N240	N	0.955258	0.423736	0.669034
	N241	N	0.030240	0.592228	0.672118
	N242	N	0.955723	0.590374	0.317933
	N243	N	0.031632	0.420955	0.316892
	N244	N	0.407548	0.684714	0.958142
	N245	N	0.580322	0.683929	0.031548
	N246	N	0.580463	0.326584	0.958049
	N247	N	0.406871	0.326872	0.031397
	N248	N	0.673244	0.969122	0.408206
	N249	N	0.674437	0.042313	0.581842
	N250	N	0.314144	0.968658	0.580030
	N251	N	0.313357	0.042648	0.407158
	N252	N	0.907879	0.468839	0.173441
	N253	N	0.078872	0.543145	0.173231
	N254	N	0.078223	0.468697	0.815666
	N255	N	0.907504	0.543739	0.815652
	N256	N	0.170299	0.921042	0.456681
	N257	N	0.170834	0.091404	0.531333
	N258	N	0.815582	0.092176	0.457106
	N259	N	0.818603	0.923100	0.532000
	N260	N	0.457328	0.186048	0.906930
	N261	N	0.530525	0.186209	0.081826
	N262	N	0.458107	0.825834	0.081447
	N263	N	0.531165	0.825188	0.907563
	N264	N	0.456559	0.921550	0.170456
	N265	N	0.531495	0.090550	0.171941
	N266	N	0.456674	0.089920	0.817249
	N267	N	0.532760	0.921392	0.818102
	N268	N	0.907287	0.185356	0.457290
	N269	N	0.079936	0.185000	0.530885
	N270	N	0.079768	0.827195	0.458106
	N271	N	0.907083	0.827946	0.530730
	N272	N	0.173613	0.469172	0.907518
	N273	N	0.173904	0.542667	0.081682
	N274	N	0.813981	0.469129	0.080206
	N275	N	0.812752	0.542796	0.907388
	O276	O	-0.013409	0.047200	-0.014795
	H277	H	-0.017984	0.045239	-0.023438
	H278	H	-0.020086	0.052124	-0.003334
	O279	O	0.518573	0.520243	0.607696
	H280	H	0.533677	0.521122	0.615964
	H281	H	0.516296	0.511732	0.604537
	O282	O	0.495909	0.391091	0.493983
	H283	H	0.489176	0.395307	0.498918
	H284	H	0.495684	0.388605	0.491340
	O285	O	-0.015631	1.000232	0.972404
	H286	H	-0.013712	1.004623	0.983120
	H287	H	-0.025510	0.991205	0.970410
	O288	O	0.440938	0.524947	0.417582
	H289	H	0.438173	0.512508	0.419763
	H290	H	0.441230	0.527872	0.404774
	O291	O	0.581186	0.513823	0.510618
	H292	H	0.584030	0.509058	0.509197
	H293	H	0.591432	0.520742	0.502754
	O294	O	1.051704	1.014099	0.964312
	H295	H	1.059533	1.026428	0.962790
	H296	H	1.036980	1.010909	0.965816
	O297	O	0.939965	-0.034463	0.983875
	H298	H	0.944267	-0.033818	0.984993
	H299	H	0.941531	-0.031463	0.979988
	O300	O	0.385809	0.404171	0.542940
	H301	H	0.385634	0.393198	0.537454
	H302	H	0.371856	0.405058	0.550694
	O303	O	1.054673	0.052409	-0.022472
	H304	H	1.048998	0.053697	-0.026711
	H305	H	1.051214	0.038471	-0.027183
	O306	O	0.121379	0.960540	0.986355
	H307	H	0.124325	0.961893	0.982650
	H308	H	0.116548	0.965162	0.981092
	O309	O	0.450378	0.638186	0.465052
	H310	H	0.455955	0.637205	0.477746
	H311	H	0.443181	0.645201	0.462025
	O312	O	1.007741	0.086500	0.994443
	H313	H	1.008942	0.083865	1.000060
	H314	H	1.010098	0.085271	1.006028
	O315	O	0.484589	0.492961	0.545582
	H316	H	0.490121	0.490885	0.538439
	H317	H	0.484205	0.494264	0.547732
	O318	O	0.382885	0.459551	0.562598
	H319	H	0.375314	0.459398	0.562112
	H320	H	0.379731	0.455684	0.559479
	O321	O	1.010901	0.962713	1.001600
	H322	H	1.018116	0.962707	0.998598
	H323	H	1.008023	0.963948	1.001867
	O324	O	1.031846	1.032650	1.012785
	H325	H	1.035348	1.026417	1.019683
	H326	H	1.044973	1.028594	1.016927
	O327	O	0.437406	0.478974	0.361275
	H328	H	0.443001	0.483642	0.354856
	H329	H	0.431243	0.490985	0.354262
	O330	O	0.928508	-0.036756	0.967992
	H331	H	0.927980	-0.034129	0.968744
	H332	H	0.923284	-0.036364	0.974002
	O333	O	0.946372	0.959980	0.006912
	H334	H	0.961841	0.966728	0.012240
	H335	H	0.955965	0.965515	0.001811
	O336	O	0.552826	0.382016	0.520167
	H337	H	0.560284	0.369127	0.514987
	H338	H	0.552332	0.384290	0.523688
	O339	O	0.612817	0.425157	0.422873
	H340	H	0.604422	0.434119	0.409775
	H341	H	0.620434	0.412446	0.423424
	O342	O	0.064441	0.995675	-0.019163
	H343	H	0.070980	0.980587	-0.021884
	H344	H	0.062899	1.001345	-0.020989
	O345	O	0.024186	-0.040323	-0.002724
	H346	H	0.020169	-0.040427	-0.012023
	H347	H	0.030281	-0.037625	-0.007087
	O348	O	0.561259	0.569570	0.542421
	H349	H	0.554770	0.574985	0.546974
	H350	H	0.573767	0.561897	0.530262
	O351	O	0.534109	0.426391	0.555529
	H352	H	0.528108	0.416279	0.557522
	H353	H	0.520329	0.429834	0.563785
	O354	O	0.469140	0.507887	0.465478
	H355	H	0.474375	0.513558	0.459795
	H356	H	0.482693	0.506381	0.473349
	O357	O	0.416115	0.519777	0.541976
	H358	H	0.418668	0.521771	0.538146
	H359	H	0.417576	0.518426	0.540726
	O360	O	0.439226	-0.370198	0.486097
	H361	H	0.443261	-0.352980	0.488682
	H362	H	0.431649	-0.370448	0.488751
	O363	O	0.500424	0.571104	0.439054
	H364	H	0.512621	0.561688	0.450206
	H365	H	0.495586	0.562430	0.448017
	O366	O	0.011327	0.025380	1.025296
	H367	H	0.014810	0.025625	1.034083
	H368	H	0.013166	0.023591	1.018638
	O369	O	0.499809	0.435836	0.392285
	H370	H	0.501574	0.443739	0.388041
	H371	H	0.492538	0.443166	0.395752
