data_Molecule from HDF5

_cell_length_a		16.249733
_cell_length_b		16.347633
_cell_length_c		16.221802
_cell_angle_alpha	89.992373
_cell_angle_beta	90.222646
_cell_angle_gamma	89.427926
_symmetry_space_group_name_H-M	'P 1'
_symmetry_Int_Tables_number		1

loop_
	_symmetry_equiv_pos_as_xyz
	x,y,z

loop_
	_atom_site_label
	_atom_site_type_symbol
	_atom_site_fract_x
	_atom_site_fract_y
	_atom_site_fract_z
	H0	H	0.398028	0.840853	0.709283
	H1	H	0.595205	0.166052	0.710067
	H2	H	0.596535	0.840954	0.278161
	H3	H	0.395135	0.167490	0.278968
	H4	H	0.709416	0.402602	0.830351
	H5	H	0.707030	0.600444	0.158017
	H6	H	0.276413	0.605844	0.830365
	H7	H	0.283473	0.407612	0.158177
	H8	H	0.831979	0.721495	0.394144
	H9	H	0.158469	0.717720	0.596279
	H10	H	0.831312	0.288958	0.593865
	H11	H	0.157354	0.284369	0.391866
	H12	H	0.831183	0.404481	0.709519
	H13	H	0.158445	0.598750	0.709919
	H14	H	0.830605	0.604385	0.279704
	H15	H	0.159054	0.403888	0.281310
	H16	H	0.390499	0.721896	0.829866
	H17	H	0.594240	0.719243	0.156901
	H18	H	0.594769	0.287495	0.830671
	H19	H	0.395436	0.289034	0.156879
	H20	H	0.713089	0.840713	0.394017
	H21	H	0.709880	0.166607	0.592775
	H22	H	0.283018	0.839985	0.592810
	H23	H	0.275664	0.165357	0.392310
	H24	H	0.900196	0.340087	0.208468
	H25	H	0.091433	0.667435	0.209330
	H26	H	0.095758	0.340000	0.780945
	H27	H	0.891804	0.665877	0.777526
	H28	H	0.208672	0.902469	0.328792
	H29	H	0.209871	0.100766	0.657570
	H30	H	0.779316	0.104242	0.329361
	H31	H	0.783273	0.907214	0.657493
	H32	H	0.332052	0.220993	0.892117
	H33	H	0.658239	0.218565	0.095774
	H34	H	0.330399	0.790459	0.091864
	H35	H	0.656600	0.783197	0.890589
	H36	H	0.331145	0.907356	0.207523
	H37	H	0.658836	0.100357	0.208034
	H38	H	0.332900	0.106377	0.776108
	H39	H	0.659924	0.904140	0.781554
	H40	H	0.893769	0.220804	0.330274
	H41	H	0.095438	0.218349	0.656864
	H42	H	0.094374	0.786480	0.330604
	H43	H	0.895554	0.789058	0.657588
	H44	H	0.212039	0.341169	0.896459
	H45	H	0.208143	0.667654	0.093466
	H46	H	0.781487	0.339906	0.094792
	H47	H	0.775617	0.665394	0.893925
	H48	H	0.403131	0.119347	0.586450
	H49	H	0.592121	0.890597	0.575872
	H50	H	0.588428	0.117748	0.404941
	H51	H	0.396240	0.887330	0.404634
	H52	H	0.578929	0.399018	0.111515
	H53	H	0.574846	0.599475	0.878722
	H54	H	0.403381	0.596508	0.109793
	H55	H	0.401250	0.414239	0.877219
	H56	H	0.111348	0.596703	0.404796
	H57	H	0.880227	0.599409	0.577155
	H58	H	0.112924	0.409962	0.593342
	H59	H	0.876799	0.407476	0.400848
	H60	H	0.111710	0.403438	0.583116
	H61	H	0.879933	0.589266	0.587535
	H62	H	0.110555	0.592987	0.402735
	H63	H	0.881290	0.414054	0.406570
	H64	H	0.404127	0.599531	0.110171
	H65	H	0.593046	0.599513	0.872574
	H66	H	0.601218	0.406601	0.116538
	H67	H	0.405774	0.412219	0.878078
	H68	H	0.591777	0.121768	0.398042
	H69	H	0.597535	0.884130	0.592195
	H70	H	0.403198	0.117924	0.582404
	H71	H	0.403505	0.885280	0.391515
	H72	H	0.903282	0.617422	0.086032
	H73	H	0.083883	0.392516	0.080104
	H74	H	0.078696	0.619934	0.893282
	H75	H	0.902657	0.388244	0.903963
	H76	H	0.096274	0.911246	0.612172
	H77	H	0.087534	0.100666	0.374286
	H78	H	0.908678	0.088679	0.605674
	H79	H	0.919194	0.907837	0.380396
	H80	H	0.614775	0.105398	0.902690
	H81	H	0.379571	0.099670	0.080927
	H82	H	0.612094	0.905170	0.084838
	H83	H	0.379898	0.915830	0.901181
	H84	H	0.609271	0.912168	0.080211
	H85	H	0.379102	0.094278	0.085884
	H86	H	0.608583	0.091256	0.909352
	H87	H	0.378592	0.913981	0.898092
	H88	H	0.908057	0.106099	0.611956
	H89	H	0.089468	0.088048	0.377665
	H90	H	0.085577	0.912147	0.608494
	H91	H	0.895058	0.900579	0.370936
	H92	H	0.082228	0.615171	0.911069
	H93	H	0.100894	0.386959	0.085002
	H94	H	0.895807	0.619675	0.084352
	H95	H	0.901965	0.386900	0.901395
	H96	H	0.399960	0.119324	0.583614
	H97	H	0.580315	0.890182	0.589849
	H98	H	0.583143	0.119255	0.397662
	H99	H	0.410820	0.890556	0.402914
	H100	H	0.583977	0.422233	0.106702
	H101	H	0.584792	0.583925	0.879970
	H102	H	0.400994	0.598447	0.110061
	H103	H	0.402139	0.409554	0.874687
	H104	H	0.111823	0.595496	0.400436
	H105	H	0.875461	0.602870	0.590390
	H106	H	0.108774	0.415144	0.583489
	H107	H	0.878021	0.415828	0.398052
	H108	H	0.899026	0.621187	0.091362
	H109	H	0.087113	0.385794	0.097575
	H110	H	0.095449	0.623240	0.899938
	H111	H	0.904852	0.388240	0.901108
	H112	H	0.089290	0.902884	0.612469
	H113	H	0.077659	0.094550	0.380507
	H114	H	0.893166	0.096284	0.613473
	H115	H	0.898935	0.925810	0.379679
	H116	H	0.612967	0.090835	0.893270
	H117	H	0.376465	0.100796	0.087914
	H118	H	0.610680	0.912943	0.088259
	H119	H	0.378487	0.911930	0.902753
	C120	C	0.374043	0.011695	0.614278
	C121	C	0.618165	0.995552	0.615105
	C122	C	0.617661	0.012045	0.371360
	C123	C	0.372915	0.995259	0.370702
	C124	C	0.616439	0.380767	0.002746
	C125	C	0.614112	0.623678	0.985214
	C126	C	0.372288	0.627128	0.001861
	C127	C	0.374590	0.383528	0.984995
	C128	C	0.003292	0.625174	0.373006
	C129	C	0.986396	0.624713	0.615544
	C130	C	0.003149	0.381492	0.615473
	C131	C	0.986487	0.382228	0.372448
	C132	C	0.872717	0.511527	0.116031
	C133	C	0.117810	0.495909	0.116590
	C134	C	0.116139	0.511986	0.873091
	C135	C	0.872185	0.495069	0.872393
	C136	C	0.117961	0.880174	0.502276
	C137	C	0.115657	0.123952	0.485168
	C138	C	0.873182	0.126251	0.502241
	C139	C	0.875407	0.883186	0.485367
	C140	C	0.503978	0.125828	0.871652
	C141	C	0.486091	0.125815	0.115124
	C142	C	0.502995	0.882104	0.113975
	C143	C	0.486910	0.882617	0.871434
	C144	C	0.377581	0.889393	0.670823
	C145	C	0.615399	0.117657	0.671370
	C146	C	0.616618	0.889754	0.315783
	C147	C	0.374403	0.118339	0.316010
	C148	C	0.671708	0.382611	0.879416
	C149	C	0.669759	0.621537	0.108801
	C150	C	0.314925	0.625567	0.879054
	C151	C	0.320505	0.386610	0.108811
	C152	C	0.880513	0.682449	0.374369
	C153	C	0.109555	0.679421	0.615398
	C154	C	0.880062	0.326878	0.613565
	C155	C	0.108777	0.323729	0.372847
	C156	C	0.879819	0.384287	0.671165
	C157	C	0.109544	0.620589	0.672072
	C158	C	0.879936	0.624129	0.317744
	C159	C	0.109702	0.382982	0.317757
	C160	C	0.371572	0.683346	0.878809
	C161	C	0.613569	0.680584	0.108079
	C162	C	0.614852	0.325206	0.879659
	C163	C	0.375888	0.327545	0.108162
	C164	C	0.674653	0.889548	0.373226
	C165	C	0.672514	0.117979	0.613079
	C166	C	0.320108	0.888957	0.612938
	C167	C	0.315077	0.117330	0.372246
	C168	C	0.877908	0.388998	0.171421
	C169	C	0.112975	0.618909	0.171472
	C170	C	0.115687	0.389119	0.818284
	C171	C	0.872774	0.617371	0.816393
	C172	C	0.172019	0.882061	0.378563
	C173	C	0.172091	0.121454	0.608429
	C174	C	0.817037	0.124601	0.378610
	C175	C	0.820212	0.885975	0.608542
	C176	C	0.381018	0.182394	0.872630
	C177	C	0.609445	0.180316	0.114438
	C178	C	0.379589	0.828094	0.112231
	C179	C	0.608696	0.823578	0.872096
	C180	C	0.379824	0.886184	0.169421
	C181	C	0.609846	0.121745	0.170590
	C182	C	0.381446	0.125373	0.814885
	C183	C	0.610214	0.883390	0.817389
	C184	C	0.874067	0.182224	0.378956
	C185	C	0.115209	0.179859	0.608281
	C186	C	0.115377	0.824166	0.379326
	C187	C	0.876109	0.827435	0.608625
	C188	C	0.173768	0.389816	0.875561
	C189	C	0.171537	0.618709	0.114532
	C190	C	0.819035	0.388884	0.114415
	C191	C	0.814685	0.617045	0.873884
	C192	C	0.395613	0.096640	0.591045
	C193	C	0.596258	0.910437	0.592590
	C194	C	0.594548	0.097475	0.393509
	C195	C	0.396573	0.909942	0.392983
	C196	C	0.594542	0.402783	0.088944
	C197	C	0.591051	0.601022	0.899408
	C198	C	0.395862	0.604777	0.087825
	C199	C	0.396633	0.405410	0.899051
	C200	C	0.089045	0.601837	0.395949
	C201	C	0.900778	0.603578	0.591965
	C202	C	0.088769	0.402950	0.593241
	C203	C	0.900829	0.405614	0.395140
	C204	C	0.893298	0.597283	0.093793
	C205	C	0.096759	0.410563	0.094269
	C206	C	0.092371	0.597427	0.894877
	C207	C	0.896312	0.409794	0.895448
	C208	C	0.096612	0.902313	0.588752
	C209	C	0.091906	0.101162	0.399538
	C210	C	0.896491	0.103565	0.588128
	C211	C	0.897909	0.904995	0.399257
	C212	C	0.589916	0.102623	0.895051
	C213	C	0.400612	0.104404	0.091716
	C214	C	0.588457	0.903577	0.091106
	C215	C	0.400998	0.906995	0.894000
	Zn216	Zn	0.495869	0.003857	0.743589
	Zn217	Zn	0.495163	0.003903	0.242804
	Zn218	Zn	0.743294	0.502285	-0.006023
	Zn219	Zn	0.246130	0.505019	-0.006084
	Zn220	Zn	-0.004785	0.754200	0.494239
	Zn221	Zn	-0.005493	0.253775	0.493727
	Zn222	Zn	-0.005501	0.502781	0.744085
	Zn223	Zn	-0.004729	0.503735	0.245010
	Zn224	Zn	0.493929	0.753628	-0.007913
	Zn225	Zn	0.495194	0.253888	-0.006263
	Zn226	Zn	0.746286	0.003975	0.492949
	Zn227	Zn	0.244523	0.002493	0.492835
	N228	N	0.410420	0.966785	0.671834
	N229	N	0.582369	0.040507	0.672744
	N230	N	0.581658	0.966946	0.314623
	N231	N	0.409725	0.041456	0.314934
	N232	N	0.673065	0.416359	0.957268
	N233	N	0.670433	0.586972	0.031438
	N234	N	0.315299	0.591304	0.956591
	N235	N	0.319733	0.420993	0.031428
	N236	N	0.958242	0.683217	0.408256
	N237	N	0.032051	0.682226	0.580881
	N238	N	0.957505	0.324915	0.579817
	N239	N	0.031124	0.323286	0.406466
	N240	N	0.957407	0.417356	0.672765
	N241	N	0.031990	0.587520	0.672410
	N242	N	0.957287	0.589238	0.316749
	N243	N	0.032753	0.418824	0.317446
	N244	N	0.406594	0.684402	0.956103
	N245	N	0.579711	0.682048	0.030130
	N246	N	0.581380	0.323887	0.957269
	N247	N	0.408718	0.325203	0.030159
	N248	N	0.675264	0.966478	0.407153
	N249	N	0.674411	0.041079	0.578746
	N250	N	0.317756	0.965675	0.578194
	N251	N	0.314104	0.039939	0.405532
	N252	N	0.910435	0.466322	0.172596
	N253	N	0.080648	0.541429	0.173208
	N254	N	0.080388	0.466127	0.816539
	N255	N	0.907796	0.540284	0.815314
	N256	N	0.173892	0.916181	0.456217
	N257	N	0.172595	0.087278	0.530789
	N258	N	0.816022	0.090646	0.456211
	N259	N	0.819591	0.919952	0.530952
	N260	N	0.458435	0.182785	0.907256
	N261	N	0.531597	0.183157	0.080594
	N262	N	0.457160	0.825400	0.078417
	N263	N	0.530763	0.823138	0.904863
	N264	N	0.457425	0.919193	0.170699
	N265	N	0.532467	0.088526	0.171105
	N266	N	0.459080	0.091017	0.813932
	N267	N	0.533274	0.919424	0.816824
	N268	N	0.907974	0.183611	0.456871
	N269	N	0.080878	0.181539	0.530695
	N270	N	0.082749	0.822706	0.457255
	N271	N	0.909702	0.825552	0.530842
	N272	N	0.174219	0.467068	0.908901
	N273	N	0.174496	0.541467	0.080965
	N274	N	0.815636	0.466161	0.080770
	N275	N	0.814297	0.539986	0.907961
	O276	O	0.053545	-0.046685	0.002425
	H277	H	0.060533	-0.046160	-0.008144
	H278	H	0.055394	-0.045911	0.000834
	O279	O	0.549047	0.573162	0.417763
	H280	H	0.551691	0.571280	0.407634
	H281	H	0.544827	0.571245	0.407252
	O282	O	0.468145	0.559267	0.501264
	H283	H	0.476972	0.550949	0.510575
	H284	H	0.465373	0.550693	0.491340
	O285	O	-0.043461	1.053366	0.970016
	H286	H	-0.055231	1.045935	0.969346
	H287	H	-0.035021	1.056930	0.978094
	O288	O	0.529593	0.493242	0.556431
	H289	H	0.530763	0.500458	0.559957
	H290	H	0.536352	0.488203	0.568900
	O291	O	0.496883	0.410170	0.494713
	H292	H	0.496930	0.414085	0.494828
	H293	H	0.489641	0.397381	0.508743
	O294	O	0.912479	0.967350	0.998659
	H295	H	0.912903	0.956338	1.004266
	H296	H	0.921298	0.967128	1.011008
	O297	O	0.950034	0.006609	0.880126
	H298	H	0.945717	0.006219	0.881164
	H299	H	0.951193	0.009554	0.877625
	O300	O	0.589299	0.489250	0.456871
	H301	H	0.587445	0.486821	0.443290
	H302	H	0.591043	0.486806	0.449683
	O303	O	1.050571	-0.012307	-0.050457
	H304	H	1.059275	-0.000769	-0.049928
	H305	H	1.051937	-0.018659	-0.038549
	O306	O	0.097848	1.047125	1.042782
	H307	H	0.093878	1.044757	1.033864
	H308	H	0.097652	1.041976	1.031868
	O309	O	0.472503	0.439150	0.599327
	H310	H	0.469463	0.445331	0.595528
	H311	H	0.470698	0.437814	0.597370
	O312	O	0.958331	0.002489	1.063421
	H313	H	0.953796	0.005443	1.050562
	H314	H	0.959725	0.008918	1.071017
	O315	O	0.381219	0.489408	0.476285
	H316	H	0.375866	0.506096	0.484080
	H317	H	0.383206	0.481479	0.459535
	O318	O	0.581773	0.525055	0.451054
	H319	H	0.577112	0.519387	0.449247
	H320	H	0.584408	0.524614	0.448943
	O321	O	0.932408	0.989358	1.058477
	H322	H	0.936472	0.998732	1.060538
	H323	H	0.928402	1.000145	1.046606
	O324	O	1.018522	1.046722	1.023993
	H325	H	1.008597	1.045739	1.025753
	H326	H	1.021494	1.041325	1.023956
	O327	O	0.509666	0.507652	0.474668
	H328	H	0.498268	0.510438	0.475362
	H329	H	0.505390	0.513160	0.478601
	O330	O	0.993599	-0.027011	0.934926
	H331	H	0.993862	-0.039299	0.922427
	H332	H	0.995304	-0.017733	0.929894
	O333	O	0.963517	1.051572	-0.009923
	H334	H	0.968717	1.059484	-0.002859
	H335	H	0.958852	1.059772	-0.019412
	O336	O	0.502567	0.652450	0.455520
	H337	H	0.490645	0.671743	0.449752
	H338	H	0.501398	0.645473	0.452830
	O339	O	0.494941	0.538063	0.637685
	H340	H	0.503089	0.546946	0.640822
	H341	H	0.495477	0.539724	0.638204
	O342	O	-0.024070	1.073805	-0.031781
	H343	H	-0.013947	1.073603	-0.031571
	H344	H	-0.035264	1.060887	-0.035014
	O345	O	-0.004633	-0.008444	0.014500
	H346	H	-0.011271	-0.000709	0.009071
	H347	H	-0.005952	-0.010564	0.012132
	O348	O	0.546233	0.392130	0.419870
	H349	H	0.556226	0.387297	0.412036
	H350	H	0.550534	0.390477	0.417106
	O351	O	0.462759	0.433516	0.581691
	H352	H	0.457786	0.442660	0.588194
	H353	H	0.459965	0.441189	0.587988
	O354	O	0.433580	0.465923	0.444855
	H355	H	0.431518	0.460899	0.450759
	H356	H	0.443685	0.463231	0.437827
	O357	O	0.450534	0.529155	0.398747
	H358	H	0.444414	0.529469	0.402194
	H359	H	0.452048	0.522926	0.398633
	O360	O	0.359208	-0.323844	0.415436
	H361	H	0.361207	-0.324972	0.408937
	H362	H	0.354457	-0.320478	0.417223
	O363	O	0.557347	0.457097	0.548856
	H364	H	0.568225	0.462097	0.545893
	H365	H	0.554133	0.462062	0.554756
	O366	O	0.012323	0.008183	1.009199
	H367	H	0.004759	0.010199	1.018805
	H368	H	0.016220	0.011490	1.011215
	O369	O	0.478731	0.496020	0.597421
	H370	H	0.480825	0.497180	0.599016
	H371	H	0.464576	0.503439	0.594709
