data_Molecule from HDF5

_cell_length_a		16.403574
_cell_length_b		16.370938
_cell_length_c		16.458382
_cell_angle_alpha	90.128054
_cell_angle_beta	89.870855
_cell_angle_gamma	90.118521
_symmetry_space_group_name_H-M	'P 1'
_symmetry_Int_Tables_number		1

loop_
	_symmetry_equiv_pos_as_xyz
	x,y,z

loop_
	_atom_site_label
	_atom_site_type_symbol
	_atom_site_fract_x
	_atom_site_fract_y
	_atom_site_fract_z
	H0	H	0.392713	0.842324	0.727590
	H1	H	0.605960	0.159392	0.727380
	H2	H	0.606696	0.841619	0.284240
	H3	H	0.397938	0.160740	0.287514
	H4	H	0.722777	0.394014	0.847584
	H5	H	0.722302	0.605768	0.163606
	H6	H	0.279678	0.605730	0.846236
	H7	H	0.281128	0.399210	0.165048
	H8	H	0.842647	0.721324	0.401400
	H9	H	0.160869	0.721692	0.609895
	H10	H	0.842299	0.281043	0.607846
	H11	H	0.162137	0.283791	0.402124
	H12	H	0.842059	0.395536	0.726138
	H13	H	0.159888	0.607393	0.727366
	H14	H	0.841852	0.605873	0.284455
	H15	H	0.160531	0.399098	0.285505
	H16	H	0.394212	0.724218	0.847793
	H17	H	0.605628	0.721014	0.164225
	H18	H	0.604529	0.279727	0.847300
	H19	H	0.397249	0.282411	0.165902
	H20	H	0.722399	0.842336	0.398249
	H21	H	0.722451	0.159253	0.610315
	H22	H	0.279270	0.842200	0.610917
	H23	H	0.284526	0.162225	0.405910
	H24	H	0.895446	0.341177	0.226463
	H25	H	0.103027	0.660704	0.223841
	H26	H	0.103332	0.340577	0.786231
	H27	H	0.894847	0.659633	0.785082
	H28	H	0.220763	0.898955	0.346419
	H29	H	0.220540	0.106028	0.665814
	H30	H	0.781100	0.105376	0.346305
	H31	H	0.775790	0.892105	0.661705
	H32	H	0.339781	0.218455	0.904363
	H33	H	0.660937	0.220799	0.109314
	H34	H	0.340863	0.781943	0.108783
	H35	H	0.659115	0.778552	0.899263
	H36	H	0.341138	0.899120	0.224977
	H37	H	0.660658	0.106615	0.226926
	H38	H	0.340790	0.105280	0.786155
	H39	H	0.658317	0.893123	0.781903
	H40	H	0.899921	0.218925	0.344803
	H41	H	0.103623	0.221112	0.664999
	H42	H	0.104110	0.781603	0.346551
	H43	H	0.893589	0.778466	0.662887
	H44	H	0.218304	0.339661	0.902144
	H45	H	0.218522	0.660588	0.107385
	H46	H	0.780569	0.339715	0.110077
	H47	H	0.779549	0.659899	0.901232
	H48	H	0.412428	0.114409	0.596221
	H49	H	0.587501	0.888040	0.592732
	H50	H	0.583791	0.110512	0.421160
	H51	H	0.411766	0.887560	0.415194
	H52	H	0.590895	0.415831	0.117567
	H53	H	0.590388	0.590389	0.891793
	H54	H	0.413629	0.593474	0.117692
	H55	H	0.406560	0.411704	0.892261
	H56	H	0.114425	0.586437	0.412592
	H57	H	0.884379	0.596997	0.601548
	H58	H	0.117087	0.410124	0.599717
	H59	H	0.885895	0.411204	0.409972
	H60	H	0.115260	0.409157	0.590487
	H61	H	0.890332	0.591130	0.584330
	H62	H	0.115789	0.594254	0.413843
	H63	H	0.886452	0.404267	0.417605
	H64	H	0.405508	0.591868	0.120335
	H65	H	0.589765	0.585394	0.894198
	H66	H	0.585541	0.409872	0.117982
	H67	H	0.413578	0.410052	0.893064
	H68	H	0.597624	0.116066	0.420899
	H69	H	0.588729	0.887762	0.592247
	H70	H	0.409752	0.115184	0.596064
	H71	H	0.410615	0.886504	0.416493
	H72	H	0.910481	0.613253	0.093879
	H73	H	0.090566	0.384170	0.100591
	H74	H	0.090983	0.615578	0.913974
	H75	H	0.918812	0.389205	0.913835
	H76	H	0.090870	0.913402	0.619108
	H77	H	0.092188	0.091692	0.392874
	H78	H	0.904549	0.089539	0.620287
	H79	H	0.902993	0.913167	0.389130
	H80	H	0.614890	0.093957	0.916130
	H81	H	0.388814	0.086177	0.097826
	H82	H	0.616957	0.905545	0.095356
	H83	H	0.392530	0.918051	0.925815
	H84	H	0.612976	0.913762	0.091573
	H85	H	0.384775	0.092130	0.102323
	H86	H	0.610832	0.087333	0.921033
	H87	H	0.386498	0.917186	0.908657
	H88	H	0.914464	0.083432	0.614963
	H89	H	0.094972	0.093529	0.390688
	H90	H	0.088541	0.911805	0.618051
	H91	H	0.917350	0.920113	0.397920
	H92	H	0.089625	0.614584	0.915597
	H93	H	0.085542	0.388027	0.093352
	H94	H	0.911501	0.614594	0.097137
	H95	H	0.909793	0.389011	0.922777
	H96	H	0.411186	0.115411	0.598534
	H97	H	0.588408	0.887837	0.594079
	H98	H	0.589112	0.117180	0.408423
	H99	H	0.410601	0.886008	0.414596
	H100	H	0.592991	0.408639	0.120641
	H101	H	0.585452	0.589005	0.894468
	H102	H	0.409745	0.585578	0.116468
	H103	H	0.409287	0.404978	0.889918
	H104	H	0.112458	0.589955	0.419303
	H105	H	0.890545	0.579242	0.599052
	H106	H	0.113212	0.417269	0.595305
	H107	H	0.888894	0.414546	0.419204
	H108	H	0.913858	0.612408	0.095373
	H109	H	0.094534	0.385371	0.092161
	H110	H	0.092163	0.614997	0.916063
	H111	H	0.907662	0.383111	0.911484
	H112	H	0.090765	0.910683	0.620053
	H113	H	0.095635	0.089794	0.391581
	H114	H	0.915657	0.096403	0.617980
	H115	H	0.918060	0.902560	0.391775
	H116	H	0.613651	0.085235	0.912209
	H117	H	0.387794	0.093636	0.094682
	H118	H	0.616133	0.913990	0.100584
	H119	H	0.385210	0.902279	0.919434
	C120	C	0.378920	0.009693	0.628258
	C121	C	0.621190	0.992479	0.626271
	C122	C	0.622554	0.009658	0.383942
	C123	C	0.380687	0.992872	0.385491
	C124	C	0.622265	0.378750	0.014353
	C125	C	0.621580	0.621244	0.997605
	C126	C	0.378241	0.622289	0.013557
	C127	C	0.378668	0.378548	0.997334
	C128	C	0.009295	0.621765	0.384039
	C129	C	0.993124	0.622329	0.627286
	C130	C	0.010061	0.379912	0.626636
	C131	C	0.992679	0.379517	0.383813
	C132	C	0.879239	0.508341	0.127329
	C133	C	0.121452	0.491770	0.126409
	C134	C	0.122200	0.509156	0.883455
	C135	C	0.879554	0.492267	0.884619
	C136	C	0.122623	0.879967	0.514296
	C137	C	0.124117	0.123166	0.497260
	C138	C	0.880250	0.121915	0.512961
	C139	C	0.879178	0.878724	0.496731
	C140	C	0.508280	0.121302	0.885011
	C141	C	0.492789	0.122533	0.128616
	C142	C	0.509539	0.879841	0.127356
	C143	C	0.492540	0.879181	0.884553
	C144	C	0.375447	0.890058	0.687953
	C145	C	0.624198	0.111781	0.687020
	C146	C	0.625042	0.889821	0.323607
	C147	C	0.379624	0.113124	0.327170
	C148	C	0.682415	0.376091	0.895175
	C149	C	0.681958	0.623863	0.116416
	C150	C	0.319345	0.624012	0.893889
	C151	C	0.320017	0.379238	0.117251
	C152	C	0.889882	0.681499	0.382415
	C153	C	0.112706	0.682457	0.628959
	C154	C	0.890003	0.320357	0.627217
	C155	C	0.113897	0.322594	0.383309
	C156	C	0.889960	0.377746	0.685812
	C157	C	0.112347	0.625412	0.687402
	C158	C	0.889585	0.623999	0.324433
	C159	C	0.112838	0.379562	0.324846
	C160	C	0.376338	0.683020	0.894767
	C161	C	0.624076	0.681616	0.116583
	C162	C	0.623614	0.319126	0.894857
	C163	C	0.377926	0.321178	0.117632
	C164	C	0.682231	0.889778	0.381164
	C165	C	0.681825	0.111894	0.628666
	C166	C	0.318662	0.890025	0.629768
	C167	C	0.323054	0.113842	0.386069
	C168	C	0.876974	0.388630	0.186719
	C169	C	0.121938	0.612669	0.184439
	C170	C	0.122702	0.388619	0.824969
	C171	C	0.877169	0.612036	0.825039
	C172	C	0.181572	0.879183	0.394195
	C173	C	0.181458	0.124670	0.617662
	C174	C	0.821190	0.123222	0.393739
	C175	C	0.817023	0.875205	0.614700
	C176	C	0.388022	0.179877	0.884922
	C177	C	0.612799	0.181675	0.128766
	C178	C	0.388885	0.821336	0.128132
	C179	C	0.611517	0.818680	0.881317
	C180	C	0.389105	0.879336	0.185974
	C181	C	0.612889	0.124678	0.187358
	C182	C	0.388468	0.123317	0.825998
	C183	C	0.610971	0.875675	0.822623
	C184	C	0.880280	0.180063	0.393065
	C185	C	0.123421	0.182159	0.617325
	C186	C	0.123477	0.821039	0.394253
	C187	C	0.875819	0.818425	0.615445
	C188	C	0.179887	0.388224	0.882852
	C189	C	0.179264	0.612611	0.126262
	C190	C	0.819812	0.388092	0.128540
	C191	C	0.819526	0.612048	0.882708
	C192	C	0.404048	0.093289	0.604000
	C193	C	0.595320	0.909432	0.600624
	C194	C	0.597564	0.092763	0.409539
	C195	C	0.404313	0.908822	0.408782
	C196	C	0.597198	0.404240	0.097363
	C197	C	0.595955	0.595580	0.914986
	C198	C	0.402671	0.597411	0.096490
	C199	C	0.402818	0.402037	0.913580
	C200	C	0.092658	0.597322	0.408343
	C201	C	0.910050	0.596614	0.602154
	C202	C	0.093587	0.404962	0.602364
	C203	C	0.908911	0.402979	0.408476
	C204	C	0.904420	0.591785	0.102472
	C205	C	0.097249	0.407658	0.102228
	C206	C	0.098060	0.593228	0.907884
	C207	C	0.904743	0.408991	0.909100
	C208	C	0.097546	0.904755	0.597260
	C209	C	0.101056	0.098688	0.413495
	C210	C	0.904674	0.097207	0.596375
	C211	C	0.905329	0.904534	0.414284
	C212	C	0.591530	0.095972	0.909362
	C213	C	0.408776	0.097590	0.104977
	C214	C	0.593374	0.903998	0.103000
	C215	C	0.409476	0.904995	0.910591
	Zn216	Zn	0.500117	0.000491	0.755646
	Zn217	Zn	0.501488	0.000955	0.256501
	Zn218	Zn	0.751116	0.500338	0.005750
	Zn219	Zn	0.249451	0.500380	0.004738
	Zn220	Zn	0.000979	0.750457	0.505566
	Zn221	Zn	0.002081	0.251198	0.504584
	Zn222	Zn	0.001234	0.501080	0.755661
	Zn223	Zn	0.000055	0.500550	0.255414
	Zn224	Zn	0.500620	0.750652	0.006089
	Zn225	Zn	0.500611	0.249897	0.006360
	Zn226	Zn	0.750642	0.000565	0.504909
	Zn227	Zn	0.251524	0.001538	0.506520
	N228	N	0.412401	0.965393	0.686815
	N229	N	0.587242	0.036428	0.685537
	N230	N	0.588772	0.965342	0.325039
	N231	N	0.414862	0.037089	0.326819
	N232	N	0.681788	0.412359	0.970620
	N233	N	0.680712	0.587164	0.041294
	N234	N	0.320443	0.586826	0.968596
	N235	N	0.320323	0.414297	0.041347
	N236	N	0.965183	0.680225	0.418942
	N237	N	0.037434	0.680783	0.592413
	N238	N	0.965626	0.321438	0.591264
	N239	N	0.038104	0.322178	0.418989
	N240	N	0.965584	0.414063	0.685482
	N241	N	0.036967	0.588755	0.686437
	N242	N	0.964851	0.587602	0.325323
	N243	N	0.036497	0.413972	0.325012
	N244	N	0.412309	0.682077	0.970040
	N245	N	0.587338	0.680123	0.041688
	N246	N	0.587039	0.320673	0.970000
	N247	N	0.413509	0.320667	0.042034
	N248	N	0.680911	0.965298	0.417863
	N249	N	0.680152	0.036719	0.591681
	N250	N	0.320455	0.965593	0.593625
	N251	N	0.323464	0.038034	0.421745
	N252	N	0.913022	0.464350	0.186169
	N253	N	0.086714	0.536363	0.184782
	N254	N	0.087745	0.464836	0.825230
	N255	N	0.913668	0.536425	0.825827
	N256	N	0.181013	0.914955	0.469740
	N257	N	0.181914	0.088777	0.542123
	N258	N	0.820872	0.088053	0.469472
	N259	N	0.819006	0.912109	0.539727
	N260	N	0.463586	0.178661	0.920998
	N261	N	0.537259	0.180257	0.092998
	N262	N	0.464804	0.821427	0.092517
	N263	N	0.536706	0.820745	0.919021
	N264	N	0.465221	0.914542	0.185826
	N265	N	0.536990	0.088563	0.187415
	N266	N	0.464214	0.087624	0.825798
	N267	N	0.535715	0.912468	0.824663
	N268	N	0.916355	0.179360	0.468436
	N269	N	0.088359	0.181249	0.541497
	N270	N	0.087790	0.821084	0.469996
	N271	N	0.913907	0.820785	0.541204
	N272	N	0.179981	0.464502	0.918144
	N273	N	0.179122	0.536498	0.091016
	N274	N	0.821046	0.463822	0.092343
	N275	N	0.820776	0.536570	0.918883
	O276	O	0.607128	0.440314	0.558839
	H277	H	0.605038	0.451493	0.535552
	H278	H	0.601239	0.442043	0.569173
	O279	O	0.484338	0.560713	0.446149
	H280	H	0.486063	0.564726	0.454707
	H281	H	0.466163	0.551248	0.456625
	O282	O	0.382101	0.631914	0.563676
	H283	H	0.384058	0.638575	0.571295
	H284	H	0.388061	0.616417	0.556309
	O285	O	1.024328	1.030953	-0.033931
	H286	H	1.027498	1.056106	-0.036699
	H287	H	1.014516	1.043563	-0.038679
	O288	O	0.679656	0.496799	0.716204
	H289	H	0.683581	0.495800	0.721952
	H290	H	0.684174	0.487094	0.737718
	O291	O	0.373382	0.419086	0.396658
	H292	H	0.379582	0.409453	0.396618
	H293	H	0.378699	0.433758	0.409050
	O294	O	1.042907	0.809404	0.950893
	H295	H	1.039248	0.807685	0.966780
	H296	H	1.042963	0.792685	0.940970
	O297	O	0.577473	0.430526	0.386695
	H298	H	0.568600	0.433777	0.397851
	H299	H	0.565781	0.429473	0.382693
	O300	O	0.544592	0.345207	0.575272
	H301	H	0.544595	0.359397	0.582836
	H302	H	0.520431	0.350648	0.579683
	O303	O	0.580925	0.456720	0.336054
	H304	H	0.593278	0.450569	0.319182
	H305	H	0.580954	0.444620	0.349571
	O306	O	0.297005	-0.264733	1.280981
	H307	H	0.284244	-0.260598	1.295932
	H308	H	0.285912	-0.259822	1.262727
	O309	O	1.205425	-0.104008	-0.086732
	H310	H	1.222486	-0.098819	-0.095078
	H311	H	1.208800	-0.094040	-0.074609
	O312	O	0.296181	0.606768	0.417548
	H313	H	0.299559	0.605795	0.427394
	H314	H	0.296935	0.606469	0.427213
	O315	O	0.034779	-0.108060	0.804079
	H316	H	0.051332	-0.118165	0.803880
	H317	H	0.027965	-0.111021	0.799192
	O318	O	0.051251	0.196204	0.206687
	H319	H	0.075843	0.185944	0.200865
	H320	H	0.057535	0.212797	0.211209
	O321	O	0.865108	-0.082253	-0.066333
	H322	H	0.872461	-0.094015	-0.065941
	H323	H	0.855390	-0.077593	-0.087068
	O324	O	1.005218	-0.091842	1.165995
	H325	H	0.982758	-0.110224	1.161216
	H326	H	0.992772	-0.075214	1.167221
	O327	O	0.655130	0.500457	0.464175
	H328	H	0.672923	0.486674	0.460764
	H329	H	0.638288	0.517744	0.458966
	O330	O	0.002601	0.842015	1.086004
	H331	H	-0.005401	0.844281	1.080329
	H332	H	-0.007790	0.840055	1.094393
	O333	O	-0.181331	0.979940	0.206803
	H334	H	-0.191921	1.000819	0.226883
	H335	H	-0.179117	1.003519	0.185032
	O336	O	1.026526	1.029445	-0.146135
	H337	H	1.026010	1.030764	-0.152655
	H338	H	1.025694	1.025654	-0.140579
	O339	O	-0.026902	1.125369	0.811571
	H340	H	-0.028578	1.125084	0.811302
	H341	H	-0.020945	1.131548	0.814931
	O342	O	0.706472	0.609914	0.546319
	H343	H	0.694092	0.624527	0.527182
	H344	H	0.706875	0.618143	0.543595
	O345	O	-0.022642	0.094247	1.178807
	H346	H	-0.030173	0.090502	1.166597
	H347	H	-0.012503	0.106126	1.194224
	O348	O	0.453447	0.692153	0.419847
	H349	H	0.429682	0.700434	0.405081
	H350	H	0.444424	0.697966	0.408029
	O351	O	0.983698	0.831351	0.163261
	H352	H	0.970304	0.834539	0.175322
	H353	H	0.961062	0.847631	0.170666
	O354	O	1.046087	1.185044	1.056787
	H355	H	1.045499	1.186010	1.051200
	H356	H	1.047230	1.187057	1.054185
	O357	O	-0.197344	0.203799	-0.019947
	H358	H	-0.203359	0.205587	-0.048864
	H359	H	-0.208335	0.218430	-0.036783
	O360	O	0.683758	0.669003	0.689767
	H361	H	0.685550	0.668637	0.665780
	H362	H	0.690117	0.645853	0.685629
	O363	O	1.248955	0.315009	0.230268
	H364	H	1.269689	0.320299	0.246473
	H365	H	1.255164	0.323205	0.235204
	O366	O	0.181123	-0.167081	0.835853
	H367	H	0.180477	-0.163622	0.864263
	H368	H	0.186049	-0.134076	0.838183
	O369	O	0.304017	0.299776	0.609484
	H370	H	0.304787	0.309802	0.600882
	H371	H	0.278219	0.288962	0.612818
	O372	O	0.624532	0.389646	0.320007
	H373	H	0.635494	0.386535	0.342452
	H374	H	0.613241	0.382101	0.317732
	O375	O	-0.032384	-0.035791	0.951522
	H376	H	-0.037556	-0.046303	0.955455
	H377	H	-0.023535	-0.051092	0.940892
	O378	O	0.068921	-0.108287	0.071725
	H379	H	0.048294	-0.110644	0.077100
	H380	H	0.073445	-0.098197	0.040380
	O381	O	0.107760	1.078329	-0.111244
	H382	H	0.104753	1.089883	-0.090772
	H383	H	0.088845	1.067576	-0.103992
	O384	O	0.264783	0.763059	0.762584
	H385	H	0.276448	0.786924	0.778368
	H386	H	0.260990	0.755656	0.744250
	O387	O	0.636906	0.313464	0.398339
	H388	H	0.666362	0.320120	0.413309
	H389	H	0.631177	0.300488	0.404131
	O390	O	0.817518	0.851855	0.119148
	H391	H	0.824656	0.865559	0.135905
	H392	H	0.810789	0.847802	0.117282
	O393	O	0.406551	0.698506	0.343212
	H394	H	0.386013	0.678732	0.342393
	H395	H	0.397472	0.716945	0.326122
	O396	O	0.607538	0.412123	0.543754
	H397	H	0.609350	0.415699	0.567947
	H398	H	0.613492	0.427142	0.531425
	O399	O	0.549352	0.382353	0.474136
	H400	H	0.543985	0.382221	0.469482
	H401	H	0.545270	0.391416	0.479750
	O402	O	0.816234	0.862137	0.008062
	H403	H	0.816053	0.865115	0.010170
	H404	H	0.814261	0.854181	0.009315
	O405	O	0.401335	0.429475	0.522224
	H406	H	0.409349	0.433510	0.520607
	H407	H	0.408621	0.428860	0.525771
	O408	O	0.446468	0.469128	0.702050
	H409	H	0.447092	0.462756	0.707705
	H410	H	0.451063	0.490763	0.702088
	O411	O	0.936085	1.020087	0.860426
	H412	H	0.937427	1.006510	0.850835
	H413	H	0.937668	1.016865	0.849739
	O414	O	0.459435	0.341980	0.666550
	H415	H	0.463914	0.327123	0.675633
	H416	H	0.423579	0.345429	0.649574
	O417	O	-0.181951	1.182089	0.820810
	H418	H	-0.185380	1.144943	0.817308
	H419	H	-0.167773	1.179670	0.804881
	O420	O	-0.136409	1.107304	1.037478
	H421	H	-0.153398	1.116394	1.025859
	H422	H	-0.139107	1.100254	1.017462
	O423	O	0.163879	1.065277	0.179472
	H424	H	0.144429	1.072419	0.192999
	H425	H	0.152093	1.053591	0.174113
	O426	O	0.477752	0.696428	0.668442
	H427	H	0.492757	0.688929	0.655973
	H428	H	0.483530	0.706805	0.669445
	O429	O	0.304325	0.424633	0.707014
	H430	H	0.314481	0.422174	0.724878
	H431	H	0.302718	0.435252	0.722873
	O432	O	0.368537	0.484019	0.413454
	H433	H	0.350995	0.486033	0.415256
	H434	H	0.376368	0.507117	0.395627
	O435	O	0.154473	0.157318	-0.010135
	H436	H	0.177700	0.158589	-0.002214
	H437	H	0.143429	0.151524	-0.002553
	O438	O	0.478964	0.530198	0.331912
	H439	H	0.488680	0.537370	0.329585
	H440	H	0.490535	0.521978	0.322068
	O441	O	0.612332	0.639690	0.488659
	H442	H	0.597319	0.631506	0.478339
	H443	H	0.615228	0.652667	0.495923
