data_Molecule from HDF5

_cell_length_a		16.239642
_cell_length_b		16.291379
_cell_length_c		16.410380
_cell_angle_alpha	89.695101
_cell_angle_beta	90.214092
_cell_angle_gamma	89.826892
_symmetry_space_group_name_H-M	'P 1'
_symmetry_Int_Tables_number		1

loop_
	_symmetry_equiv_pos_as_xyz
	x,y,z

loop_
	_atom_site_label
	_atom_site_type_symbol
	_atom_site_fract_x
	_atom_site_fract_y
	_atom_site_fract_z
	H0	H	0.398994	0.833730	0.715195
	H1	H	0.605524	0.156514	0.714873
	H2	H	0.603963	0.832758	0.278720
	H3	H	0.396833	0.157379	0.275643
	H4	H	0.717975	0.395001	0.832549
	H5	H	0.722984	0.595845	0.154516
	H6	H	0.283799	0.597426	0.833670
	H7	H	0.286169	0.394169	0.156180
	H8	H	0.838843	0.713736	0.391646
	H9	H	0.164737	0.708713	0.592823
	H10	H	0.838725	0.279682	0.595145
	H11	H	0.162808	0.276931	0.393536
	H12	H	0.840964	0.389876	0.714221
	H13	H	0.164432	0.595291	0.710748
	H14	H	0.839967	0.599501	0.274329
	H15	H	0.164607	0.394421	0.280389
	H16	H	0.398538	0.714942	0.834640
	H17	H	0.603627	0.710799	0.156554
	H18	H	0.605889	0.276460	0.834525
	H19	H	0.401915	0.277484	0.156025
	H20	H	0.717504	0.831941	0.398208
	H21	H	0.718430	0.157395	0.596627
	H22	H	0.287263	0.831526	0.594361
	H23	H	0.284301	0.158033	0.394703
	H24	H	0.898166	0.333973	0.214701
	H25	H	0.103740	0.657442	0.211307
	H26	H	0.106564	0.333253	0.777948
	H27	H	0.899037	0.656043	0.774289
	H28	H	0.218391	0.896221	0.333130
	H29	H	0.216498	0.094143	0.657718
	H30	H	0.780294	0.098804	0.335057
	H31	H	0.786755	0.894414	0.657306
	H32	H	0.339180	0.213265	0.894673
	H33	H	0.665653	0.209055	0.096142
	H34	H	0.338755	0.778171	0.096518
	H35	H	0.664847	0.779346	0.896631
	H36	H	0.337799	0.895375	0.210654
	H37	H	0.663402	0.096390	0.214382
	H38	H	0.338739	0.098203	0.778366
	H39	H	0.662655	0.890885	0.777263
	H40	H	0.897024	0.215067	0.334098
	H41	H	0.101558	0.211351	0.656457
	H42	H	0.101452	0.780070	0.332279
	H43	H	0.899460	0.774736	0.654467
	H44	H	0.218247	0.332344	0.896537
	H45	H	0.217036	0.658309	0.092400
	H46	H	0.785961	0.332360	0.095869
	H47	H	0.784867	0.657278	0.891734
	H48	H	0.400854	0.113425	0.588076
	H49	H	0.589815	0.880113	0.591549
	H50	H	0.583911	0.109153	0.398828
	H51	H	0.412894	0.884372	0.414529
	H52	H	0.604884	0.397702	0.113897
	H53	H	0.583801	0.592510	0.882244
	H54	H	0.409192	0.584178	0.108885
	H55	H	0.414574	0.410241	0.882075
	H56	H	0.119549	0.594765	0.403098
	H57	H	0.886472	0.580394	0.587745
	H58	H	0.120218	0.398251	0.589319
	H59	H	0.885062	0.405842	0.403107
	H60	H	0.116751	0.402733	0.581622
	H61	H	0.883892	0.589044	0.586337
	H62	H	0.114401	0.583314	0.407914
	H63	H	0.886019	0.406651	0.403610
	H64	H	0.412301	0.586913	0.109452
	H65	H	0.599382	0.592693	0.875871
	H66	H	0.595286	0.414763	0.105504
	H67	H	0.414882	0.398679	0.880091
	H68	H	0.588288	0.106883	0.411597
	H69	H	0.591129	0.881864	0.584953
	H70	H	0.415265	0.111248	0.594408
	H71	H	0.399086	0.875451	0.401379
	H72	H	0.917684	0.606571	0.080756
	H73	H	0.094699	0.376378	0.096114
	H74	H	0.091875	0.608188	0.910579
	H75	H	0.913524	0.381300	0.905948
	H76	H	0.098228	0.907075	0.610001
	H77	H	0.098468	0.089548	0.377434
	H78	H	0.902734	0.084856	0.611096
	H79	H	0.913092	0.911457	0.383051
	H80	H	0.617631	0.084416	0.902538
	H81	H	0.385642	0.088524	0.086901
	H82	H	0.617466	0.901377	0.086973
	H83	H	0.384283	0.899317	0.906806
	H84	H	0.615170	0.905587	0.086437
	H85	H	0.386051	0.086291	0.084870
	H86	H	0.617595	0.086944	0.904392
	H87	H	0.389279	0.910427	0.910659
	H88	H	0.916473	0.082294	0.606053
	H89	H	0.091704	0.078669	0.383477
	H90	H	0.086575	0.901739	0.606759
	H91	H	0.912793	0.899385	0.380168
	H92	H	0.098983	0.614193	0.897637
	H93	H	0.088720	0.382298	0.086091
	H94	H	0.907842	0.610015	0.081002
	H95	H	0.908554	0.378852	0.902958
	H96	H	0.412502	0.107295	0.579723
	H97	H	0.596377	0.878998	0.588609
	H98	H	0.596475	0.111822	0.402278
	H99	H	0.418131	0.880192	0.394761
	H100	H	0.584661	0.396870	0.108337
	H101	H	0.592808	0.579108	0.883152
	H102	H	0.408928	0.587784	0.110974
	H103	H	0.404823	0.404348	0.878926
	H104	H	0.118997	0.583692	0.396005
	H105	H	0.887500	0.584120	0.579594
	H106	H	0.116785	0.407199	0.589858
	H107	H	0.885318	0.406828	0.401845
	H108	H	0.913300	0.611417	0.089626
	H109	H	0.101240	0.378531	0.085275
	H110	H	0.083883	0.608664	0.897012
	H111	H	0.913585	0.378961	0.900344
	H112	H	0.096121	0.894178	0.612371
	H113	H	0.084767	0.091601	0.381658
	H114	H	0.912203	0.094658	0.611058
	H115	H	0.902067	0.906837	0.378760
	H116	H	0.617004	0.084163	0.905711
	H117	H	0.385652	0.085944	0.087196
	H118	H	0.617105	0.904148	0.090300
	H119	H	0.385251	0.908813	0.898622
	C120	C	0.380097	0.003282	0.616936
	C121	C	0.623056	0.986958	0.618261
	C122	C	0.621629	0.002799	0.374688
	C123	C	0.379387	0.987073	0.373168
	C124	C	0.624621	0.373335	0.002865
	C125	C	0.623675	0.617077	0.986567
	C126	C	0.379651	0.617186	0.003451
	C127	C	0.381381	0.373878	0.986703
	C128	C	0.010306	0.618144	0.371395
	C129	C	0.993455	0.614586	0.614275
	C130	C	0.010610	0.372744	0.616870
	C131	C	0.992753	0.375255	0.373744
	C132	C	0.881512	0.502865	0.114912
	C133	C	0.124048	0.486668	0.117206
	C134	C	0.122756	0.503037	0.873359
	C135	C	0.880641	0.486279	0.871764
	C136	C	0.123865	0.872335	0.502891
	C137	C	0.121761	0.116517	0.487287
	C138	C	0.878612	0.118147	0.503564
	C139	C	0.880199	0.874504	0.486992
	C140	C	0.510130	0.116540	0.874045
	C141	C	0.492987	0.116536	0.116967
	C142	C	0.509604	0.873283	0.117761
	C143	C	0.493237	0.874813	0.875370
	C144	C	0.380027	0.881753	0.675224
	C145	C	0.623574	0.108384	0.675404
	C146	C	0.622705	0.881096	0.317966
	C147	C	0.378493	0.108866	0.315136
	C148	C	0.680725	0.374366	0.881296
	C149	C	0.682817	0.615611	0.107104
	C150	C	0.322241	0.617360	0.882077
	C151	C	0.324179	0.373994	0.107782
	C152	C	0.887911	0.675541	0.371620
	C153	C	0.115917	0.670767	0.612992
	C154	C	0.887809	0.317175	0.615207
	C155	C	0.114654	0.316545	0.374557
	C156	C	0.889028	0.371859	0.674705
	C157	C	0.115698	0.614334	0.671632
	C158	C	0.888270	0.618759	0.313394
	C159	C	0.115431	0.374900	0.318165
	C160	C	0.379307	0.675859	0.882767
	C161	C	0.623787	0.672924	0.108022
	C162	C	0.624620	0.315488	0.882365
	C163	C	0.382244	0.316274	0.107753
	C164	C	0.679071	0.880596	0.377395
	C165	C	0.680199	0.108736	0.616822
	C166	C	0.324345	0.880674	0.615397
	C167	C	0.322426	0.109403	0.374501
	C168	C	0.880003	0.381868	0.174458
	C169	C	0.123246	0.608915	0.172847
	C170	C	0.124083	0.381441	0.817092
	C171	C	0.879891	0.607676	0.813529
	C172	C	0.180093	0.875535	0.381277
	C173	C	0.178431	0.114348	0.609022
	C174	C	0.819627	0.118157	0.382845
	C175	C	0.824519	0.874671	0.608730
	C176	C	0.387879	0.174587	0.874629
	C177	C	0.616100	0.171893	0.116522
	C178	C	0.387241	0.816655	0.116328
	C179	C	0.615653	0.817241	0.876445
	C180	C	0.386841	0.874639	0.173273
	C181	C	0.615032	0.115837	0.175256
	C182	C	0.387643	0.117310	0.816685
	C183	C	0.614712	0.872919	0.817189
	C184	C	0.877444	0.176271	0.382601
	C185	C	0.121266	0.172891	0.608355
	C186	C	0.122195	0.817343	0.381038
	C187	C	0.880671	0.815237	0.607252
	C188	C	0.180235	0.380987	0.875941
	C189	C	0.179652	0.609372	0.113824
	C190	C	0.824193	0.380999	0.115092
	C191	C	0.823344	0.608517	0.872133
	C192	C	0.402834	0.088389	0.593950
	C193	C	0.599334	0.902231	0.595259
	C194	C	0.596726	0.087346	0.397621
	C195	C	0.403350	0.902064	0.396720
	C196	C	0.601906	0.396383	0.087290
	C197	C	0.599299	0.594608	0.902292
	C198	C	0.403215	0.593251	0.087935
	C199	C	0.404607	0.397599	0.902228
	C200	C	0.095519	0.594171	0.395141
	C201	C	0.908100	0.591260	0.591258
	C202	C	0.095950	0.395965	0.593640
	C203	C	0.907797	0.399369	0.396467
	C204	C	0.905840	0.587344	0.090823
	C205	C	0.101524	0.401205	0.095442
	C206	C	0.098648	0.588142	0.895412
	C207	C	0.904777	0.401642	0.896055
	C208	C	0.100503	0.894362	0.587650
	C209	C	0.098381	0.093437	0.402788
	C210	C	0.903360	0.094266	0.587693
	C211	C	0.902870	0.898846	0.402726
	C212	C	0.595347	0.092202	0.897346
	C213	C	0.407846	0.093572	0.093106
	C214	C	0.594725	0.896914	0.094823
	C215	C	0.408323	0.899198	0.898606
	Zn216	Zn	0.501481	-0.004926	0.746195
	Zn217	Zn	0.500768	-0.004889	0.245016
	Zn218	Zn	0.752969	0.494469	-0.006489
	Zn219	Zn	0.251225	0.494926	-0.005423
	Zn220	Zn	0.001003	0.744383	0.493970
	Zn221	Zn	0.000854	0.246672	0.494768
	Zn222	Zn	0.002015	0.494145	0.743644
	Zn223	Zn	0.001731	0.495297	0.244759
	Zn224	Zn	0.501202	0.745852	-0.004101
	Zn225	Zn	0.503290	0.244715	-0.004649
	Zn226	Zn	0.750654	-0.004794	0.496124
	Zn227	Zn	0.251661	-0.004403	0.495357
	N228	N	0.413993	0.958990	0.676433
	N229	N	0.588661	0.031547	0.676432
	N230	N	0.587637	0.957969	0.316143
	N231	N	0.413256	0.031644	0.314401
	N232	N	0.680777	0.409750	0.957189
	N233	N	0.682808	0.581607	0.030602
	N234	N	0.322163	0.581651	0.958163
	N235	N	0.323628	0.409219	0.031495
	N236	N	0.964933	0.675343	0.406645
	N237	N	0.038803	0.671059	0.578170
	N238	N	0.964537	0.317564	0.579905
	N239	N	0.037271	0.316533	0.408371
	N240	N	0.966353	0.405745	0.675699
	N241	N	0.038410	0.580110	0.672579
	N242	N	0.965421	0.583785	0.313051
	N243	N	0.038675	0.410685	0.317458
	N244	N	0.414229	0.675762	0.959228
	N245	N	0.587771	0.673868	0.032086
	N246	N	0.590331	0.314707	0.958794
	N247	N	0.416914	0.316052	0.031426
	N248	N	0.678791	0.957412	0.411746
	N249	N	0.679907	0.032305	0.581978
	N250	N	0.324065	0.957327	0.580037
	N251	N	0.322828	0.032765	0.409948
	N252	N	0.915078	0.458528	0.174455
	N253	N	0.089583	0.531533	0.175063
	N254	N	0.089017	0.458393	0.815306
	N255	N	0.914800	0.530760	0.813174
	N256	N	0.181505	0.908684	0.458227
	N257	N	0.178894	0.079972	0.532455
	N258	N	0.820243	0.082789	0.459132
	N259	N	0.824170	0.910856	0.532926
	N260	N	0.465069	0.174359	0.909369
	N261	N	0.539324	0.172442	0.080862
	N262	N	0.464648	0.815443	0.082782
	N263	N	0.538933	0.818237	0.911725
	N264	N	0.463932	0.909063	0.174236
	N265	N	0.537461	0.082275	0.175815
	N266	N	0.464743	0.082117	0.816036
	N267	N	0.537552	0.907988	0.816340
	N268	N	0.913141	0.176619	0.458653
	N269	N	0.086824	0.174307	0.531748
	N270	N	0.088260	0.815176	0.457639
	N271	N	0.914557	0.815031	0.530596
	N272	N	0.179419	0.457701	0.910322
	N273	N	0.180210	0.532335	0.079888
	N274	N	0.824973	0.457305	0.078679
	N275	N	0.823768	0.531985	0.907720
	O276	O	0.074849	-0.075471	-0.013760
	H277	H	0.084121	-0.080935	-0.010004
	H278	H	0.070975	-0.068900	-0.028865
	O279	O	0.394390	0.440268	0.665416
	H280	H	0.395369	0.444789	0.669412
	H281	H	0.397612	0.440932	0.659063
	O282	O	0.946716	-0.048297	0.035953
	H283	H	0.942932	-0.041626	0.024997
	H284	H	0.946089	-0.038471	0.047236
	O285	O	-0.115357	0.994513	0.026125
	H286	H	-0.115893	0.983718	0.020025
	H287	H	-0.098782	0.995222	0.037075
	O288	O	0.453778	0.475741	0.609594
	H289	H	0.464376	0.479225	0.606422
	H290	H	0.458144	0.494976	0.613710
	O291	O	0.346535	0.665353	0.370607
	H292	H	0.337185	0.659075	0.378499
	H293	H	0.349066	0.659260	0.374933
	O294	O	1.158904	1.040550	0.938661
	H295	H	1.150113	1.041477	0.935063
	H296	H	1.157112	1.043209	0.935539
	O297	O	-0.079209	-0.000089	0.138706
	H298	H	-0.097070	0.001171	0.136677
	H299	H	-0.078379	-0.007321	0.128146
	O300	O	0.521326	0.514787	0.531906
	H301	H	0.531375	0.503893	0.524486
	H302	H	0.521078	0.510192	0.522509
	O303	O	0.168601	1.112686	1.136019
	H304	H	0.176579	1.099813	1.138089
	H305	H	0.169209	1.112987	1.135361
	O306	O	0.555054	0.564013	0.512252
	H307	H	0.554550	0.567046	0.506258
	H308	H	0.554991	0.562052	0.525761
	O309	O	1.026275	0.039239	0.144126
	H310	H	1.027550	0.040121	0.146424
	H311	H	1.032678	0.038588	0.144573
	O312	O	0.010953	-0.126227	1.127967
	H313	H	0.008459	-0.125098	1.131631
	H314	H	0.012488	-0.132268	1.129639
	O315	O	0.677926	0.490483	0.622910
	H316	H	0.674482	0.478826	0.618379
	H317	H	0.680987	0.493542	0.623046
	O318	O	0.427464	0.360531	0.523219
	H319	H	0.417923	0.360341	0.530101
	H320	H	0.445360	0.364618	0.535215
	O321	O	0.552499	0.649330	0.388502
	H322	H	0.535429	0.654634	0.388417
	H323	H	0.554047	0.663595	0.383369
	O324	O	0.614464	0.388444	0.428704
	H325	H	0.593956	0.384423	0.422730
	H326	H	0.616920	0.405282	0.431431
	O327	O	-0.031489	0.966019	0.923404
	H328	H	-0.043143	0.962509	0.905395
	H329	H	-0.032207	0.972803	0.919394
	O330	O	0.476698	0.578627	0.640880
	H331	H	0.487050	0.568021	0.633581
	H332	H	0.494530	0.583795	0.649743
	O333	O	0.039350	1.045240	0.890498
	H334	H	0.031128	1.035563	0.884184
	H335	H	0.035713	1.053816	0.892765
	O336	O	0.931420	0.878914	1.113727
	H337	H	0.921978	0.864516	1.123783
	H338	H	0.940315	0.870346	1.118869
	O339	O	0.404376	0.447528	0.396640
	H340	H	0.405109	0.440162	0.392968
	H341	H	0.412376	0.449512	0.412027
	O342	O	0.872605	0.078666	-0.104576
	H343	H	0.869339	0.080399	-0.091417
	H344	H	0.878852	0.074651	-0.097669
	O345	O	0.537712	0.623341	0.458919
	H346	H	0.541152	0.622996	0.451551
	H347	H	0.521020	0.620741	0.447042
	O348	O	0.860982	0.960450	0.912119
	H349	H	0.871685	0.975373	0.913020
	H350	H	0.846291	0.960025	0.903683
	O351	O	1.044615	0.969668	-0.100743
	H352	H	1.048781	0.970233	-0.089668
	H353	H	1.039811	0.975594	-0.096749
	O354	O	0.507645	0.472217	0.347152
	H355	H	0.496415	0.461285	0.342107
	H356	H	0.507184	0.483231	0.355277
	O357	O	0.437123	0.597940	0.515048
	H358	H	0.430575	0.603338	0.514069
	H359	H	0.442425	0.598406	0.521320
	O360	O	-0.023043	0.035969	-0.015113
	H361	H	-0.015121	0.050633	0.001948
	H362	H	-0.028518	0.026906	-0.023749
	O363	O	0.472267	0.365366	0.368785
	H364	H	0.466045	0.377698	0.370246
	H365	H	0.479082	0.359386	0.376825
	O366	O	0.392601	0.602356	0.453171
	H367	H	0.385694	0.619359	0.457470
	H368	H	0.396600	0.607181	0.440531
	O369	O	0.403063	0.462243	0.434962
	H370	H	0.390083	0.478600	0.430847
	H371	H	0.390091	0.449619	0.435176
	O372	O	0.500213	0.530309	0.610000
	H373	H	0.502378	0.521381	0.594964
	H374	H	0.514428	0.533196	0.606468
	O375	O	0.602967	0.383361	0.534562
	H376	H	0.591291	0.386156	0.509398
	H377	H	0.598823	0.371381	0.537782
	O378	O	0.631126	0.495169	0.357785
	H379	H	0.624171	0.497520	0.346068
	H380	H	0.634770	0.493876	0.351701
	O381	O	0.005189	1.083963	0.988603
	H382	H	0.002451	1.100799	0.987189
	H383	H	0.017935	1.081700	0.989903
	O384	O	0.046133	0.966218	-0.035537
	H385	H	0.046823	0.969011	-0.031069
	H386	H	0.057219	0.959635	-0.037111
	O387	O	1.120220	-0.161023	0.836913
	H388	H	1.118926	-0.147503	0.831083
	H389	H	1.128791	-0.155470	0.822011
	O390	O	-0.184631	1.004242	0.064927
	H391	H	-0.176337	0.996937	0.053769
	H392	H	-0.194401	1.004933	0.058833
	O393	O	0.898697	1.016598	-0.008498
	H394	H	0.898092	1.029669	-0.012788
	H395	H	0.903396	0.992488	-0.006340
	O396	O	0.586618	0.393490	0.435847
	H397	H	0.589079	0.385899	0.426091
	H398	H	0.589055	0.401632	0.425525
	O399	O	0.137903	0.938369	0.960618
	H400	H	0.125878	0.945177	0.950065
	H401	H	0.127839	0.934858	0.955641
	O402	O	1.099778	1.104490	1.091054
	H403	H	1.102845	1.110425	1.102272
	H404	H	1.094477	1.104582	1.088532
	O405	O	0.506849	0.476072	0.600240
	H406	H	0.493864	0.470691	0.612154
	H407	H	0.502871	0.467218	0.592876
