data_Molecule from HDF5

_cell_length_a		16.629073
_cell_length_b		16.598945
_cell_length_c		16.580843
_cell_angle_alpha	89.974298
_cell_angle_beta	90.102128
_cell_angle_gamma	89.755163
_symmetry_space_group_name_H-M	'P 1'
_symmetry_Int_Tables_number		1

loop_
	_symmetry_equiv_pos_as_xyz
	x,y,z

loop_
	_atom_site_label
	_atom_site_type_symbol
	_atom_site_fract_x
	_atom_site_fract_y
	_atom_site_fract_z
	H0	H	0.404340	0.870412	0.711249
	H1	H	0.612954	0.184107	0.713627
	H2	H	0.613051	0.870512	0.270579
	H3	H	0.402145	0.181495	0.269654
	H4	H	0.729754	0.418407	0.834380
	H5	H	0.728156	0.630340	0.145974
	H6	H	0.284964	0.631939	0.834959
	H7	H	0.290328	0.426505	0.148649
	H8	H	0.850563	0.747385	0.387573
	H9	H	0.162353	0.746816	0.596124
	H10	H	0.853293	0.301622	0.597927
	H11	H	0.163922	0.307321	0.387302
	H12	H	0.852882	0.416287	0.715585
	H13	H	0.162802	0.630642	0.712126
	H14	H	0.849910	0.631279	0.271387
	H15	H	0.163509	0.424816	0.271158
	H16	H	0.402314	0.747281	0.834830
	H17	H	0.612440	0.746893	0.145918
	H18	H	0.612421	0.304336	0.833385
	H19	H	0.407054	0.309676	0.148488
	H20	H	0.730252	0.871688	0.385973
	H21	H	0.728491	0.183755	0.596678
	H22	H	0.288226	0.869956	0.595008
	H23	H	0.284711	0.181071	0.384890
	H24	H	0.902837	0.370574	0.211084
	H25	H	0.106730	0.685048	0.207704
	H26	H	0.114036	0.371264	0.767724
	H27	H	0.899416	0.680268	0.766264
	H28	H	0.222853	0.925935	0.332436
	H29	H	0.226505	0.128324	0.647647
	H30	H	0.785150	0.132697	0.335686
	H31	H	0.784295	0.919587	0.645828
	H32	H	0.349914	0.246373	0.887968
	H33	H	0.663143	0.246507	0.095130
	H34	H	0.350940	0.808022	0.093791
	H35	H	0.662150	0.803488	0.885032
	H36	H	0.351382	0.922810	0.211017
	H37	H	0.662474	0.130544	0.212114
	H38	H	0.349094	0.127826	0.773140
	H39	H	0.662388	0.920729	0.768746
	H40	H	0.902769	0.247753	0.334654
	H41	H	0.109780	0.245772	0.647274
	H42	H	0.107953	0.809171	0.333174
	H43	H	0.900346	0.803593	0.645685
	H44	H	0.230275	0.371908	0.884765
	H45	H	0.224686	0.684360	0.093689
	H46	H	0.787832	0.369349	0.094842
	H47	H	0.783058	0.680554	0.882548
	H48	H	0.418952	0.138751	0.583364
	H49	H	0.596619	0.917117	0.577814
	H50	H	0.596732	0.137958	0.403783
	H51	H	0.419451	0.913607	0.398653
	H52	H	0.596006	0.435728	0.101319
	H53	H	0.595880	0.609129	0.879758
	H54	H	0.420950	0.622853	0.103846
	H55	H	0.424146	0.439697	0.880930
	H56	H	0.121624	0.620859	0.395103
	H57	H	0.897979	0.615437	0.574482
	H58	H	0.115110	0.436474	0.570511
	H59	H	0.892076	0.435318	0.394635
	H60	H	0.114924	0.446435	0.579689
	H61	H	0.896120	0.612142	0.580745
	H62	H	0.119477	0.618599	0.404015
	H63	H	0.896217	0.433632	0.406585
	H64	H	0.409439	0.616688	0.105740
	H65	H	0.590881	0.615970	0.879415
	H66	H	0.599192	0.435420	0.102200
	H67	H	0.416016	0.430620	0.876073
	H68	H	0.595649	0.139399	0.400211
	H69	H	0.598463	0.915825	0.581021
	H70	H	0.417670	0.137299	0.576873
	H71	H	0.415603	0.913038	0.403753
	H72	H	0.910671	0.639593	0.076346
	H73	H	0.101266	0.412943	0.082377
	H74	H	0.096955	0.640657	0.897275
	H75	H	0.919935	0.414899	0.903181
	H76	H	0.106364	0.934164	0.607042
	H77	H	0.092004	0.114796	0.380092
	H78	H	0.924637	0.113465	0.600334
	H79	H	0.919073	0.935314	0.378668
	H80	H	0.622484	0.118040	0.892504
	H81	H	0.394350	0.116534	0.082873
	H82	H	0.618912	0.934402	0.078148
	H83	H	0.394006	0.935118	0.897808
	H84	H	0.617669	0.939681	0.077182
	H85	H	0.394491	0.121128	0.078653
	H86	H	0.618647	0.122307	0.908759
	H87	H	0.396074	0.935852	0.904876
	H88	H	0.919475	0.117765	0.602500
	H89	H	0.098226	0.123158	0.375560
	H90	H	0.097003	0.943299	0.601701
	H91	H	0.915481	0.941324	0.379801
	H92	H	0.089865	0.636116	0.900683
	H93	H	0.095688	0.415198	0.082190
	H94	H	0.915934	0.640577	0.085087
	H95	H	0.920538	0.414824	0.902773
	H96	H	0.412582	0.140568	0.580621
	H97	H	0.594594	0.917631	0.581160
	H98	H	0.592725	0.137651	0.403232
	H99	H	0.413766	0.911201	0.397906
	H100	H	0.598069	0.438361	0.101824
	H101	H	0.598492	0.616745	0.876424
	H102	H	0.419657	0.610386	0.100110
	H103	H	0.411452	0.442695	0.877973
	H104	H	0.118273	0.612503	0.396877
	H105	H	0.893879	0.619197	0.580166
	H106	H	0.120071	0.433892	0.583008
	H107	H	0.898082	0.444535	0.401006
	H108	H	0.920325	0.636303	0.077349
	H109	H	0.098933	0.415812	0.077132
	H110	H	0.096854	0.637676	0.905632
	H111	H	0.920747	0.415796	0.902677
	H112	H	0.093256	0.929430	0.603616
	H113	H	0.103023	0.112593	0.377212
	H114	H	0.918349	0.111201	0.601579
	H115	H	0.922597	0.940771	0.381293
	H116	H	0.615377	0.106637	0.903001
	H117	H	0.396259	0.115713	0.077053
	H118	H	0.619852	0.938368	0.082923
	H119	H	0.396395	0.942059	0.900173
	C120	C	0.385995	0.035049	0.611481
	C121	C	0.628951	1.019838	0.612643
	C122	C	0.628242	0.035352	0.370043
	C123	C	0.385419	1.016557	0.368773
	C124	C	0.629526	0.403953	-0.001499
	C125	C	0.627758	0.646417	0.981643
	C126	C	0.384927	0.648476	-0.000088
	C127	C	0.386646	0.406603	0.982416
	C128	C	0.015720	0.648525	0.368580
	C129	C	0.998695	0.647500	0.611540
	C130	C	0.014794	0.405087	0.611284
	C131	C	0.998556	0.405849	0.368767
	C132	C	0.884843	0.535226	0.111499
	C133	C	0.127612	0.519126	0.110824
	C134	C	0.128002	0.535068	0.869362
	C135	C	0.885910	0.517312	0.868828
	C136	C	0.128749	0.905058	0.499635
	C137	C	0.129059	0.148248	0.481492
	C138	C	0.887510	0.147202	0.498989
	C139	C	0.886466	0.906221	0.482719
	C140	C	0.515045	0.147530	0.870015
	C141	C	0.498291	0.147959	0.111774
	C142	C	0.515749	0.905918	0.111224
	C143	C	0.498515	0.904830	0.868582
	C144	C	0.385521	0.917143	0.671114
	C145	C	0.631301	0.136993	0.673365
	C146	C	0.631028	0.917742	0.310382
	C147	C	0.383732	0.134747	0.309514
	C148	C	0.689265	0.400936	0.880994
	C149	C	0.688067	0.648612	0.099000
	C150	C	0.325278	0.650214	0.881747
	C151	C	0.329180	0.406732	0.101098
	C152	C	0.897659	0.707751	0.368312
	C153	C	0.115678	0.707180	0.614532
	C154	C	0.899178	0.342640	0.615618
	C155	C	0.116543	0.346752	0.367746
	C156	C	0.899105	0.399641	0.674027
	C157	C	0.115882	0.649175	0.671912
	C158	C	0.897286	0.649909	0.310603
	C159	C	0.116552	0.405069	0.310185
	C160	C	0.383304	0.707548	0.881774
	C161	C	0.630638	0.706754	0.098920
	C162	C	0.630907	0.344222	0.880749
	C163	C	0.387175	0.348803	0.101264
	C164	C	0.689184	0.918195	0.367857
	C165	C	0.688878	0.137006	0.615198
	C166	C	0.327755	0.917129	0.613420
	C167	C	0.325361	0.134224	0.366582
	C168	C	0.884423	0.417373	0.171142
	C169	C	0.126479	0.637760	0.168638
	C170	C	0.132054	0.417966	0.808433
	C171	C	0.881794	0.633934	0.807270
	C172	C	0.184711	0.905879	0.380285
	C173	C	0.187024	0.147956	0.600457
	C174	C	0.826004	0.150828	0.382064
	C175	C	0.825145	0.902282	0.599299
	C176	C	0.396801	0.206253	0.869220
	C177	C	0.616095	0.207030	0.114108
	C178	C	0.398064	0.847198	0.112515
	C179	C	0.615713	0.844094	0.866388
	C180	C	0.398306	0.904337	0.170937
	C181	C	0.615892	0.149307	0.172042
	C182	C	0.396456	0.147770	0.812008
	C183	C	0.615956	0.902496	0.809085
	C184	C	0.884644	0.207437	0.381424
	C185	C	0.129311	0.206155	0.600374
	C186	C	0.127568	0.848009	0.380531
	C187	C	0.882886	0.844412	0.599063
	C188	C	0.189878	0.418515	0.866308
	C189	C	0.185305	0.637413	0.112151
	C190	C	0.827231	0.416765	0.113047
	C191	C	0.824200	0.634104	0.865067
	C192	C	0.409745	0.117350	0.587100
	C193	C	0.603858	0.938203	0.587206
	C194	C	0.602507	0.117209	0.395387
	C195	C	0.409472	0.934152	0.393179
	C196	C	0.604923	0.429330	0.080525
	C197	C	0.602246	0.621201	0.899822
	C198	C	0.409657	0.623797	0.081912
	C199	C	0.410443	0.430522	0.899729
	C200	C	0.098299	0.624207	0.392111
	C201	C	0.917068	0.622706	0.585970
	C202	C	0.095622	0.431529	0.585035
	C203	C	0.916681	0.430758	0.393574
	C204	C	0.908607	0.617344	0.086719
	C205	C	0.104932	0.436266	0.087232
	C206	C	0.101928	0.617013	0.894150
	C207	C	0.912718	0.436238	0.895394
	C208	C	0.105692	0.928680	0.582713
	C209	C	0.104641	0.124013	0.399032
	C210	C	0.913649	0.121352	0.580408
	C211	C	0.911828	0.931946	0.401070
	C212	C	0.597464	0.122770	0.894360
	C213	C	0.416407	0.124430	0.086817
	C214	C	0.597540	0.930540	0.086451
	C215	C	0.416835	0.930344	0.893856
	Zn216	Zn	0.507165	0.027412	0.740562
	Zn217	Zn	0.507157	0.026462	0.240660
	Zn218	Zn	0.757066	0.525436	-0.010439
	Zn219	Zn	0.256632	0.527344	-0.008809
	Zn220	Zn	0.007668	0.776755	0.490763
	Zn221	Zn	0.007209	0.276646	0.490403
	Zn222	Zn	0.006919	0.525530	0.740109
	Zn223	Zn	0.006558	0.527153	0.239624
	Zn224	Zn	0.507127	0.776124	-0.009602
	Zn225	Zn	0.507235	0.276929	-0.009534
	Zn226	Zn	0.757695	0.027609	0.491386
	Zn227	Zn	0.257130	0.025762	0.490715
	N228	N	0.421291	0.991522	0.670067
	N229	N	0.594970	0.062876	0.672189
	N230	N	0.593868	0.991810	0.311481
	N231	N	0.420300	0.060488	0.310768
	N232	N	0.688594	0.437254	0.955274
	N233	N	0.686557	0.611910	0.024964
	N234	N	0.326045	0.614335	0.956316
	N235	N	0.328485	0.441797	0.026004
	N236	N	0.972460	0.707165	0.403545
	N237	N	0.041584	0.706497	0.577857
	N238	N	0.972150	0.345994	0.577357
	N239	N	0.042028	0.346884	0.403341
	N240	N	0.972026	0.437997	0.671242
	N241	N	0.041954	0.612829	0.670394
	N242	N	0.971819	0.613960	0.310418
	N243	N	0.041978	0.440904	0.310598
	N244	N	0.419787	0.706629	0.956045
	N245	N	0.593705	0.705508	0.024847
	N246	N	0.594447	0.345772	0.955019
	N247	N	0.422123	0.348625	0.026332
	N248	N	0.687608	0.992430	0.404253
	N249	N	0.687607	0.062909	0.578236
	N250	N	0.327878	0.991378	0.577041
	N251	N	0.325857	0.059704	0.402449
	N252	N	0.919397	0.492154	0.170519
	N253	N	0.091564	0.563090	0.168262
	N254	N	0.094317	0.491616	0.810008
	N255	N	0.919457	0.560338	0.809447
	N256	N	0.185837	0.940299	0.455514
	N257	N	0.187328	0.112837	0.525384
	N258	N	0.827804	0.113822	0.456084
	N259	N	0.827230	0.940059	0.525927
	N260	N	0.471863	0.206725	0.903983
	N261	N	0.542105	0.206648	0.077477
	N262	N	0.472108	0.847840	0.076104
	N263	N	0.541540	0.845250	0.902480
	N264	N	0.472545	0.940131	0.170248
	N265	N	0.541619	0.113472	0.170991
	N266	N	0.471205	0.112208	0.812239
	N267	N	0.541870	0.939330	0.810073
	N268	N	0.922150	0.205414	0.455114
	N269	N	0.094630	0.206767	0.525229
	N270	N	0.093654	0.847153	0.456009
	N271	N	0.920566	0.846871	0.525522
	N272	N	0.187702	0.492438	0.903266
	N273	N	0.186168	0.562597	0.076803
	N274	N	0.827187	0.491093	0.076646
	N275	N	0.826603	0.560396	0.902700
	O276	O	-0.080663	1.092530	-0.064824
	H277	H	-0.061925	1.090394	-0.062411
	H278	H	-0.067323	1.080546	-0.058609
	O279	O	0.132066	-0.002380	0.196846
	H280	H	0.130593	0.013453	0.207259
	H281	H	0.112344	-0.001578	0.189497
	O282	O	0.784245	0.242796	0.960752
	H283	H	0.763204	0.276653	0.957873
	H284	H	0.808261	0.248125	0.952642
	O285	O	0.228883	0.249038	1.020872
	H286	H	0.253135	0.276383	1.040115
	H287	H	0.228467	0.242438	1.053468
	O288	O	0.468127	0.510767	0.488933
	H289	H	0.469058	0.510272	0.493971
	H290	H	0.471676	0.510634	0.494456
	O291	O	-0.478821	0.306386	0.527185
	H292	H	-0.497355	0.311397	0.548255
	H293	H	-0.472992	0.306499	0.555925
	O294	O	1.017665	0.021047	0.768686
	H295	H	1.011730	0.017611	0.774265
	H296	H	1.019073	0.022361	0.761459
	O297	O	0.720341	0.703643	0.485922
	H298	H	0.730880	0.709682	0.481535
	H299	H	0.714735	0.685302	0.475689
	O300	O	-0.485345	-0.408657	0.649015
	H301	H	-0.484347	-0.417073	0.649036
	H302	H	-0.470433	-0.411938	0.644773
	O303	O	0.711940	0.735192	0.640240
	H304	H	0.705144	0.719560	0.617359
	H305	H	0.689222	0.743758	0.631648
	O306	O	0.271581	0.287695	0.724834
	H307	H	0.264079	0.293461	0.711467
	H308	H	0.247471	0.263237	0.725493
	O309	O	0.712814	0.327916	0.399494
	H310	H	0.719662	0.332044	0.391983
	H311	H	0.705312	0.316167	0.394671
	O312	O	0.577823	0.574632	0.277606
	H313	H	0.575276	0.566998	0.278047
	H314	H	0.563209	0.578316	0.272651
	O315	O	1.725760	0.496007	1.276268
	H316	H	1.737040	0.473623	1.261299
	H317	H	1.717947	0.509488	1.264252
	O318	O	0.581353	0.389898	0.549449
	H319	H	0.593540	0.400261	0.560179
	H320	H	0.577933	0.390494	0.558613
	O321	O	0.131756	1.215414	0.827271
	H322	H	0.128834	1.200693	0.845429
	H323	H	0.128280	1.214756	0.839582
	O324	O	1.164088	0.915503	0.050080
	H325	H	1.162391	0.916717	0.025093
	H326	H	1.155378	0.907448	0.044418
	O327	O	0.215277	0.236753	1.193625
	H328	H	0.231647	0.216165	1.212347
	H329	H	0.229754	0.238111	1.216950
	O330	O	0.476939	0.736707	0.276142
	H331	H	0.482398	0.757818	0.267719
	H332	H	0.473023	0.725138	0.284497
	O333	O	0.295343	0.442324	0.699585
	H334	H	0.269019	0.435188	0.725158
	H335	H	0.300013	0.448635	0.698729
	O336	O	0.317343	0.331537	0.301313
	H337	H	0.339446	0.343082	0.322559
	H338	H	0.331679	0.355271	0.321707
	O339	O	0.890576	-0.050580	0.981801
	H340	H	0.885761	-0.065081	0.970502
	H341	H	0.894336	-0.046949	0.970497
	O342	O	-0.207919	-0.005060	0.208049
	H343	H	-0.223828	-0.009318	0.215369
	H344	H	-0.215058	-0.009928	0.206514
	O345	O	-0.210800	1.054940	0.768214
	H346	H	-0.206858	1.038313	0.793246
	H347	H	-0.245401	1.054706	0.742156
	O348	O	1.023259	-0.150374	0.993043
	H349	H	1.036381	-0.154021	0.982565
	H350	H	1.026360	-0.150110	0.985335
	O351	O	0.293224	0.533792	0.484384
	H352	H	0.285625	0.550751	0.483840
	H353	H	0.290903	0.532403	0.483217
	O354	O	-0.214840	-0.194760	0.768539
	H355	H	-0.238308	-0.210226	0.746506
	H356	H	-0.209112	-0.205129	0.770519
	O357	O	0.489861	0.567174	0.634963
	H358	H	0.482538	0.563018	0.631872
	H359	H	0.506938	0.553588	0.641604
	O360	O	0.306524	-0.428570	1.283964
	H361	H	0.279112	-0.421783	1.271481
	H362	H	0.306539	-0.395953	1.289530
	O363	O	0.029964	-0.186236	-0.225059
	H364	H	0.027341	-0.204289	-0.244328
	H365	H	0.028482	-0.181081	-0.216374
	O366	O	0.294877	0.736170	0.279264
	H367	H	0.265721	0.767641	0.247486
	H368	H	0.321482	0.743965	0.295259
	O369	O	0.734324	0.548926	0.474186
	H370	H	0.738231	0.530039	0.476559
	H371	H	0.738749	0.535576	0.462983
	O372	O	0.708029	0.728981	0.292674
	H373	H	0.700328	0.707636	0.302343
	H374	H	0.697266	0.730282	0.300434
	O375	O	1.139291	0.089062	-0.174759
	H376	H	1.146116	0.093472	-0.180626
	H377	H	1.126852	0.073963	-0.178499
	O378	O	0.298036	0.576906	0.557410
	H379	H	0.310085	0.567210	0.568824
	H380	H	0.294807	0.589335	0.561351
	O381	O	0.687791	0.354566	0.663888
	H382	H	0.683965	0.359058	0.653203
	H383	H	0.705478	0.346253	0.672710
	O384	O	0.865077	0.163092	1.199275
	H385	H	0.862852	0.166538	1.192576
	H386	H	0.871071	0.159293	1.202389
	O387	O	0.772048	1.186254	0.138367
	H388	H	0.768333	1.211797	0.134522
	H389	H	0.777932	1.179298	0.144193
	O390	O	0.286483	0.745617	0.450350
	H391	H	0.291609	0.742247	0.436054
	H392	H	0.265673	0.767138	0.440064
	O393	O	0.469645	0.303659	0.711426
	H394	H	0.460633	0.278572	0.737637
	H395	H	0.429107	0.302458	0.711390
	O396	O	-0.034633	0.817912	1.206057
	H397	H	-0.034518	0.797634	1.226482
	H398	H	-0.039718	0.831703	1.200186
	O399	O	0.068622	0.126221	1.185636
	H400	H	0.069792	0.111646	1.177683
	H401	H	0.083830	0.102868	1.177471
	O402	O	0.226536	0.811874	0.772462
	H403	H	0.206680	0.819771	0.769263
	H404	H	0.238850	0.810947	0.770043
	O405	O	1.391507	-0.509705	1.493993
	H406	H	1.408614	-0.496396	1.491033
	H407	H	1.385787	-0.501837	1.501972
	O408	O	-0.432021	-0.246854	-0.578914
	H409	H	-0.432846	-0.262507	-0.578044
	H410	H	-0.432743	-0.228683	-0.577092
	O411	O	0.088696	0.074586	0.890170
	H412	H	0.086561	0.084937	0.907653
	H413	H	0.086702	0.079115	0.885732
	O414	O	0.585109	0.312511	0.276604
	H415	H	0.617900	0.303393	0.269481
	H416	H	0.567521	0.293039	0.259467
	O417	O	0.029711	0.045285	-0.017500
	H418	H	0.020774	0.049005	-0.023283
	H419	H	0.019459	0.036843	-0.022298
	O420	O	0.467044	0.753707	0.548528
	H421	H	0.476011	0.750886	0.552797
	H422	H	0.455624	0.748786	0.541425
	O423	O	0.219241	0.039676	0.981092
	H424	H	0.207156	0.043516	0.984602
	H425	H	0.223250	0.042527	0.987533
	O426	O	0.615243	0.395718	0.495394
	H427	H	0.631076	0.395285	0.514034
	H428	H	0.622659	0.381862	0.492811
	O429	O	0.892276	0.805831	0.961159
	H430	H	0.908228	0.807388	0.961681
	H431	H	0.854553	0.796440	0.964315
	O432	O	0.334847	0.686158	0.586158
	H433	H	0.331860	0.676366	0.562835
	H434	H	0.348529	0.689060	0.605870
	O435	O	0.010219	0.930559	-0.055384
	H436	H	0.015579	0.914050	-0.065129
	H437	H	0.010290	0.936624	-0.056896
	O438	O	0.192508	-0.159209	0.179729
	H439	H	0.171523	-0.141835	0.162928
	H440	H	0.173576	-0.138454	0.164341
	O441	O	0.141879	-0.830150	-0.043623
	H442	H	0.137098	-0.838496	-0.026959
	H443	H	0.165803	-0.826836	-0.022446
	O444	O	0.725848	0.553361	-0.293897
	H445	H	0.730596	0.563725	-0.290720
	H446	H	0.737319	0.561851	-0.289864
	O447	O	0.540373	0.740422	0.705376
	H448	H	0.534786	0.729294	0.694523
	H449	H	0.536099	0.760575	0.722326
	O450	O	-0.205294	1.011967	1.018649
	H451	H	-0.208391	1.033883	1.009016
	H452	H	-0.206215	1.004064	1.013478
	O453	O	0.517654	0.526135	0.479213
	H454	H	0.521735	0.528826	0.502882
	H455	H	0.513488	0.515073	0.471185
	O456	O	0.288253	0.310110	0.530576
	H457	H	0.284547	0.295572	0.512775
	H458	H	0.282439	0.305064	0.535895
	O459	O	0.989120	1.059682	0.207373
	H460	H	0.977212	1.060566	0.208212
	H461	H	0.975565	1.060900	0.198705
	O462	O	0.816423	0.223570	-0.209597
	H463	H	0.815556	0.179289	-0.217596
	H464	H	0.833682	0.226837	-0.182519
	O465	O	0.813645	-0.179475	0.182773
	H466	H	0.837468	-0.161907	0.192601
	H467	H	0.789433	-0.202691	0.188068
	O468	O	0.465165	0.473032	0.274330
	H469	H	0.449560	0.475618	0.273185
	H470	H	0.463736	0.462467	0.269594
	O471	O	0.978578	0.219680	0.789653
	H472	H	0.962446	0.202536	0.797863
	H473	H	0.991013	0.235597	0.786396
	O474	O	-0.163760	0.855244	-0.063744
	H475	H	-0.177838	0.851831	-0.057688
	H476	H	-0.163336	0.855022	-0.045396
	O477	O	1.226932	0.807267	1.956020
	H478	H	1.247251	0.786599	1.943949
	H479	H	1.222089	0.801624	1.940271
	O480	O	0.488159	0.396075	0.421382
	H481	H	0.477096	0.413530	0.414139
	H482	H	0.493254	0.388048	0.445938
	O483	O	0.551234	0.494467	0.681103
	H484	H	0.552361	0.461608	0.681794
	H485	H	0.551949	0.492470	0.675242
	O486	O	0.981243	0.151492	0.988815
	H487	H	0.989889	0.145256	0.993178
	H488	H	0.967058	0.147445	0.993895
	O489	O	1.044097	1.248955	0.204092
	H490	H	1.066547	1.261266	0.211244
	H491	H	1.062066	1.253129	0.220032
