data_Molecule from HDF5

_cell_length_a		16.129410
_cell_length_b		16.355250
_cell_length_c		16.350684
_cell_angle_alpha	89.922706
_cell_angle_beta	89.912001
_cell_angle_gamma	89.983233
_symmetry_space_group_name_H-M	'P 1'
_symmetry_Int_Tables_number		1

loop_
	_symmetry_equiv_pos_as_xyz
	x,y,z

loop_
	_atom_site_label
	_atom_site_type_symbol
	_atom_site_fract_x
	_atom_site_fract_y
	_atom_site_fract_z
	H0	H	0.401201	0.834748	0.714211
	H1	H	0.601606	0.159804	0.710460
	H2	H	0.602896	0.833645	0.279813
	H3	H	0.402457	0.159316	0.279372
	H4	H	0.716699	0.401766	0.830674
	H5	H	0.716547	0.593844	0.159954
	H6	H	0.291186	0.593803	0.831496
	H7	H	0.290420	0.400592	0.159465
	H8	H	0.838097	0.709086	0.396994
	H9	H	0.168625	0.708071	0.593115
	H10	H	0.838352	0.281309	0.595864
	H11	H	0.168112	0.281830	0.398028
	H12	H	0.838595	0.396020	0.712033
	H13	H	0.168683	0.592810	0.708812
	H14	H	0.838563	0.593604	0.281539
	H15	H	0.168246	0.396459	0.281161
	H16	H	0.403670	0.713898	0.833485
	H17	H	0.604923	0.713971	0.158369
	H18	H	0.603154	0.280877	0.831963
	H19	H	0.403860	0.281865	0.158073
	H20	H	0.716890	0.832532	0.398805
	H21	H	0.716083	0.160503	0.592076
	H22	H	0.289525	0.832261	0.593280
	H23	H	0.288744	0.160382	0.399327
	H24	H	0.902910	0.332871	0.210693
	H25	H	0.103815	0.658253	0.212845
	H26	H	0.103566	0.333155	0.782066
	H27	H	0.901126	0.658570	0.777692
	H28	H	0.216089	0.899498	0.333079
	H29	H	0.214935	0.091379	0.660460
	H30	H	0.791177	0.092100	0.332286
	H31	H	0.788374	0.898094	0.660148
	H32	H	0.337604	0.210876	0.897413
	H33	H	0.667964	0.209295	0.093039
	H34	H	0.338231	0.782035	0.095586
	H35	H	0.667672	0.782092	0.895753
	H36	H	0.338009	0.897447	0.210786
	H37	H	0.667034	0.094694	0.209113
	H38	H	0.337516	0.096503	0.782083
	H39	H	0.667468	0.898124	0.780698
	H40	H	0.902218	0.213185	0.334292
	H41	H	0.103891	0.211587	0.659345
	H42	H	0.104009	0.779706	0.333266
	H43	H	0.902856	0.778860	0.659135
	H44	H	0.217983	0.333819	0.898958
	H45	H	0.215299	0.661232	0.091884
	H46	H	0.789177	0.333100	0.092071
	H47	H	0.790354	0.661179	0.898921
	H48	H	0.413788	0.113253	0.596980
	H49	H	0.596436	0.880590	0.590853
	H50	H	0.589681	0.111415	0.397032
	H51	H	0.409547	0.883766	0.411147
	H52	H	0.600077	0.394092	0.114625
	H53	H	0.594263	0.589490	0.880734
	H54	H	0.411899	0.583118	0.109061
	H55	H	0.418096	0.405227	0.882076
	H56	H	0.117972	0.586723	0.408055
	H57	H	0.883243	0.593760	0.590793
	H58	H	0.118452	0.406636	0.587444
	H59	H	0.883607	0.401015	0.399243
	H60	H	0.121815	0.403086	0.592935
	H61	H	0.887854	0.586470	0.581641
	H62	H	0.121439	0.584256	0.398582
	H63	H	0.886849	0.401099	0.409904
	H64	H	0.415359	0.597192	0.112029
	H65	H	0.595077	0.593086	0.880417
	H66	H	0.600764	0.411666	0.109647
	H67	H	0.410247	0.394567	0.876906
	H68	H	0.596253	0.110956	0.408461
	H69	H	0.592299	0.881897	0.591460
	H70	H	0.412012	0.108739	0.581735
	H71	H	0.402632	0.877287	0.396805
	H72	H	0.912190	0.615050	0.098968
	H73	H	0.106132	0.377219	0.090183
	H74	H	0.092587	0.613134	0.895979
	H75	H	0.907767	0.382234	0.907484
	H76	H	0.091732	0.902330	0.611116
	H77	H	0.091709	0.094520	0.380955
	H78	H	0.909669	0.086820	0.611662
	H79	H	0.909565	0.895889	0.378751
	H80	H	0.617689	0.081479	0.902824
	H81	H	0.384751	0.089806	0.086105
	H82	H	0.623288	0.899297	0.091364
	H83	H	0.388448	0.910963	0.904864
	H84	H	0.618318	0.904060	0.081057
	H85	H	0.384503	0.088433	0.090268
	H86	H	0.623340	0.092822	0.895367
	H87	H	0.383230	0.902203	0.900408
	H88	H	0.913263	0.089694	0.611192
	H89	H	0.099151	0.090931	0.378512
	H90	H	0.095541	0.896393	0.613401
	H91	H	0.906342	0.905034	0.380575
	H92	H	0.093447	0.610594	0.905884
	H93	H	0.089402	0.380588	0.097597
	H94	H	0.918205	0.608766	0.085652
	H95	H	0.908767	0.380045	0.898166
	H96	H	0.399948	0.114997	0.589555
	H97	H	0.593970	0.881446	0.586915
	H98	H	0.601998	0.115544	0.398115
	H99	H	0.419609	0.882141	0.397094
	H100	H	0.585297	0.401847	0.107291
	H101	H	0.597837	0.590534	0.880181
	H102	H	0.401959	0.592235	0.115233
	H103	H	0.404179	0.407200	0.878549
	H104	H	0.122787	0.593389	0.402413
	H105	H	0.886385	0.581477	0.593795
	H106	H	0.121064	0.399598	0.586227
	H107	H	0.887934	0.410734	0.403303
	H108	H	0.902562	0.613643	0.086301
	H109	H	0.093130	0.384411	0.080261
	H110	H	0.101160	0.613804	0.901023
	H111	H	0.916399	0.382475	0.903332
	H112	H	0.098401	0.903106	0.612478
	H113	H	0.093049	0.085583	0.382439
	H114	H	0.909397	0.090843	0.613803
	H115	H	0.915665	0.902462	0.382808
	H116	H	0.619949	0.095125	0.908930
	H117	H	0.383898	0.092091	0.089204
	H118	H	0.619397	0.910499	0.091940
	H119	H	0.386514	0.901636	0.910591
	C120	C	0.380416	0.004655	0.618332
	C121	C	0.623507	0.988721	0.617590
	C122	C	0.624736	0.004535	0.373290
	C123	C	0.381120	0.988815	0.373640
	C124	C	0.625132	0.374632	0.003139
	C125	C	0.624685	0.618831	0.988010
	C126	C	0.381527	0.619012	0.003759
	C127	C	0.381785	0.374769	0.986979
	C128	C	0.011606	0.616591	0.374558
	C129	C	0.994709	0.615913	0.617126
	C130	C	0.011728	0.374292	0.618161
	C131	C	0.994913	0.374737	0.374992
	C132	C	0.881755	0.504381	0.117817
	C133	C	0.125034	0.488254	0.117887
	C134	C	0.124929	0.504959	0.873509
	C135	C	0.881612	0.489086	0.873892
	C136	C	0.124381	0.873125	0.504706
	C137	C	0.123817	0.117937	0.488409
	C138	C	0.881515	0.117973	0.504681
	C139	C	0.881028	0.872871	0.488181
	C140	C	0.511007	0.118455	0.873960
	C141	C	0.493780	0.118025	0.116836
	C142	C	0.511515	0.875301	0.117441
	C143	C	0.494742	0.876060	0.875340
	C144	C	0.381618	0.882886	0.675070
	C145	C	0.621490	0.111449	0.671951
	C146	C	0.623065	0.882286	0.317770
	C147	C	0.382680	0.110958	0.318172
	C148	C	0.680112	0.378999	0.879852
	C149	C	0.679756	0.615426	0.110791
	C150	C	0.327937	0.615276	0.880624
	C151	C	0.327153	0.378756	0.110125
	C152	C	0.887493	0.671586	0.376866
	C153	C	0.119416	0.670319	0.613800
	C154	C	0.887477	0.319363	0.616097
	C155	C	0.118922	0.319598	0.377271
	C156	C	0.887916	0.375961	0.674136
	C157	C	0.119257	0.613358	0.671321
	C158	C	0.887628	0.614246	0.319439
	C159	C	0.118879	0.376500	0.319212
	C160	C	0.384045	0.674859	0.881637
	C161	C	0.623932	0.674726	0.110225
	C162	C	0.623354	0.319450	0.880377
	C163	C	0.383561	0.319600	0.109645
	C164	C	0.679696	0.881635	0.377000
	C165	C	0.678730	0.111732	0.613741
	C166	C	0.326693	0.881346	0.614537
	C167	C	0.326032	0.111388	0.377455
	C168	C	0.883211	0.381615	0.172571
	C169	C	0.123322	0.610396	0.173832
	C170	C	0.123424	0.382140	0.819387
	C171	C	0.882482	0.610819	0.817355
	C172	C	0.179233	0.877524	0.381645
	C173	C	0.178240	0.113240	0.611471
	C174	C	0.827519	0.114122	0.381568
	C175	C	0.825814	0.876574	0.611238
	C176	C	0.386876	0.173258	0.877026
	C177	C	0.618331	0.172219	0.113868
	C178	C	0.387409	0.819901	0.115631
	C179	C	0.618558	0.820396	0.876088
	C180	C	0.387147	0.877410	0.172625
	C181	C	0.617868	0.115227	0.171382
	C182	C	0.386881	0.116396	0.819471
	C183	C	0.618471	0.878298	0.819126
	C184	C	0.882673	0.174505	0.382644
	C185	C	0.122505	0.172625	0.611115
	C186	C	0.122996	0.818393	0.381825
	C187	C	0.882522	0.817397	0.610720
	C188	C	0.180409	0.382370	0.877334
	C189	C	0.178945	0.611730	0.113840
	C190	C	0.826593	0.381786	0.113714
	C191	C	0.827106	0.611929	0.877340
	C192	C	0.402249	0.090137	0.596054
	C193	C	0.601054	0.903411	0.596080
	C194	C	0.602552	0.090339	0.394857
	C195	C	0.403831	0.903152	0.395373
	C196	C	0.602288	0.396127	0.088375
	C197	C	0.602297	0.597257	0.902517
	C198	C	0.403356	0.597235	0.089903
	C199	C	0.404351	0.395990	0.901413
	C200	C	0.098270	0.594612	0.396612
	C201	C	0.908151	0.593878	0.595118
	C202	C	0.098148	0.396650	0.595385
	C203	C	0.908545	0.397600	0.397419
	C204	C	0.904349	0.590237	0.096585
	C205	C	0.102723	0.402945	0.095945
	C206	C	0.102306	0.590411	0.894575
	C207	C	0.904525	0.403329	0.896377
	C208	C	0.102025	0.894305	0.590275
	C209	C	0.101403	0.096498	0.402774
	C210	C	0.904065	0.095655	0.590172
	C211	C	0.903719	0.894601	0.402886
	C212	C	0.597917	0.096291	0.895970
	C213	C	0.407011	0.096317	0.095094
	C214	C	0.597812	0.897940	0.094710
	C215	C	0.408421	0.898418	0.898360
	Zn216	Zn	0.502148	-0.002778	0.746770
	Zn217	Zn	0.502455	-0.003406	0.244076
	Zn218	Zn	0.753542	0.497557	-0.004301
	Zn219	Zn	0.253229	0.497240	-0.004782
	Zn220	Zn	0.002785	0.743931	0.496244
	Zn221	Zn	0.002970	0.246897	0.497082
	Zn222	Zn	0.003185	0.496183	0.745311
	Zn223	Zn	0.003192	0.495582	0.246570
	Zn224	Zn	0.503500	0.747831	-0.003707
	Zn225	Zn	0.503027	0.245394	-0.004715
	Zn226	Zn	0.752964	-0.003918	0.496510
	Zn227	Zn	0.252240	-0.003945	0.495983
	N228	N	0.414155	0.960505	0.677417
	N229	N	0.588089	0.034124	0.674484
	N230	N	0.589562	0.959831	0.315407
	N231	N	0.416124	0.033704	0.315759
	N232	N	0.681135	0.412740	0.956920
	N233	N	0.680391	0.581303	0.033920
	N234	N	0.326425	0.581339	0.957668
	N235	N	0.325842	0.412403	0.032898
	N236	N	0.965754	0.673277	0.410221
	N237	N	0.041069	0.672064	0.580881
	N238	N	0.965468	0.318181	0.582099
	N239	N	0.040844	0.318286	0.411032
	N240	N	0.966203	0.409364	0.675533
	N241	N	0.040888	0.580043	0.673355
	N242	N	0.965656	0.580715	0.318026
	N243	N	0.040658	0.410079	0.317807
	N244	N	0.416420	0.677353	0.959462
	N245	N	0.590691	0.677240	0.032883
	N246	N	0.590075	0.316496	0.957934
	N247	N	0.416872	0.317190	0.032250
	N248	N	0.680876	0.958607	0.410801
	N249	N	0.680177	0.034354	0.580502
	N250	N	0.325743	0.958135	0.579945
	N251	N	0.324864	0.034362	0.411248
	N252	N	0.916786	0.458928	0.175211
	N253	N	0.090596	0.532685	0.176256
	N254	N	0.089654	0.459357	0.816837
	N255	N	0.915704	0.533213	0.815351
	N256	N	0.180303	0.910861	0.458776
	N257	N	0.179062	0.079721	0.534288
	N258	N	0.826894	0.079494	0.458156
	N259	N	0.824837	0.910451	0.534158
	N260	N	0.465136	0.174624	0.910162
	N261	N	0.540028	0.174244	0.080807
	N262	N	0.465632	0.818437	0.081970
	N263	N	0.540767	0.819055	0.910523
	N264	N	0.465238	0.911078	0.173896
	N265	N	0.539405	0.082219	0.173199
	N266	N	0.465234	0.083073	0.817548
	N267	N	0.540419	0.912191	0.818579
	N268	N	0.915540	0.176887	0.460414
	N269	N	0.089512	0.175787	0.533543
	N270	N	0.089726	0.815412	0.459214
	N271	N	0.915934	0.814894	0.533341
	N272	N	0.181322	0.459526	0.910521
	N273	N	0.180373	0.534799	0.079861
	N274	N	0.825824	0.459012	0.080336
	N275	N	0.826711	0.535151	0.911804
	O276	O	1.006744	1.006754	-0.044747
	H277	H	1.009424	1.002723	-0.053445
	H278	H	1.005573	1.002741	-0.046934
	O279	O	0.507450	0.550110	0.434376
	H280	H	0.503581	0.554855	0.422597
	H281	H	0.510769	0.554618	0.435011
	O282	O	0.048732	0.005324	0.015149
	H283	H	0.037766	0.004375	0.017803
	H284	H	0.045927	0.014093	0.015450
	O285	O	0.505592	0.496751	0.508690
	H286	H	0.515555	0.505284	0.509453
	H287	H	0.498091	0.496987	0.509730
	O288	O	0.076000	0.003227	-0.075654
	H289	H	0.073768	0.006634	-0.077460
	H290	H	0.076242	-0.003356	-0.091209
	O291	O	0.045258	1.036947	0.045474
	H292	H	0.064875	1.039352	0.047765
	H293	H	0.037759	1.038919	0.047394
	O294	O	0.007001	1.011375	-0.069940
	H295	H	0.002885	1.004947	-0.066481
	H296	H	0.002924	1.011477	-0.069510
	O297	O	0.534467	0.452214	0.396416
	H298	H	0.533002	0.447688	0.393855
	H299	H	0.532135	0.447832	0.388893
	O300	O	0.459951	0.503150	0.457099
	H301	H	0.457994	0.517259	0.450440
	H302	H	0.460663	0.501302	0.462954
	O303	O	0.976480	-0.050033	1.080407
	H304	H	0.980756	-0.050099	1.084737
	H305	H	0.983177	-0.049544	1.079001
	O306	O	-0.052913	0.946359	1.043275
	H307	H	-0.050705	0.945772	1.048234
	H308	H	-0.053326	0.945952	1.046805
	O309	O	-0.012994	1.084096	1.062440
	H310	H	-0.018074	1.080375	1.064584
	H311	H	0.002556	1.089531	1.050729
	O312	O	-0.074858	0.027648	1.027731
	H313	H	-0.077231	0.026255	1.035211
	H314	H	-0.076484	0.021674	1.029687
	O315	O	0.551592	0.474478	0.532160
	H316	H	0.549637	0.474133	0.519295
	H317	H	0.541241	0.472832	0.540240
	O318	O	-0.038579	0.067727	0.957088
	H319	H	-0.042938	0.061214	0.956410
	H320	H	-0.043218	0.079808	0.950202
	O321	O	-0.088665	-0.026672	1.025080
	H322	H	-0.083962	-0.019665	1.021412
	H323	H	-0.093221	-0.016961	1.037292
	O324	O	0.942614	0.051042	0.982421
	H325	H	0.942639	0.046329	0.993113
	H326	H	0.949895	0.052359	0.972572
	O327	O	1.011723	0.993795	0.960622
	H328	H	1.020364	0.991376	0.959379
	H329	H	1.007057	0.995660	0.949322
	O330	O	0.416465	0.537199	0.520770
	H331	H	0.421274	0.534967	0.520402
	H332	H	0.421459	0.535438	0.521895
	O333	O	0.552931	0.523586	0.466345
	H334	H	0.547131	0.522141	0.452797
	H335	H	0.554936	0.519159	0.473702
	O336	O	0.572722	0.539083	0.493950
	H337	H	0.574651	0.537959	0.485867
	H338	H	0.571036	0.552614	0.500180
	O339	O	0.555589	0.489928	0.523186
	H340	H	0.552117	0.483679	0.515777
	H341	H	0.558106	0.484450	0.532814
	O342	O	0.553380	0.471151	0.418753
	H343	H	0.561099	0.474696	0.418370
	H344	H	0.567554	0.460250	0.413837
	O345	O	0.514939	0.522623	0.457954
	H346	H	0.521053	0.524358	0.454027
	H347	H	0.519875	0.514905	0.469664
