data_Molecule from HDF5

_cell_length_a		16.543777
_cell_length_b		16.483712
_cell_length_c		16.485723
_cell_angle_alpha	89.884797
_cell_angle_beta	90.185826
_cell_angle_gamma	89.895345
_symmetry_space_group_name_H-M	'P 1'
_symmetry_Int_Tables_number		1

loop_
	_symmetry_equiv_pos_as_xyz
	x,y,z

loop_
	_atom_site_label
	_atom_site_type_symbol
	_atom_site_fract_x
	_atom_site_fract_y
	_atom_site_fract_z
	H0	H	0.390377	0.844347	0.731505
	H1	H	0.601227	0.159248	0.731173
	H2	H	0.601764	0.843799	0.289137
	H3	H	0.388795	0.157058	0.282917
	H4	H	0.722682	0.390834	0.852054
	H5	H	0.723131	0.607290	0.164747
	H6	H	0.275415	0.608469	0.852098
	H7	H	0.278828	0.396107	0.167369
	H8	H	0.838508	0.722983	0.402838
	H9	H	0.154464	0.723454	0.614283
	H10	H	0.840314	0.279824	0.617769
	H11	H	0.151278	0.275292	0.401203
	H12	H	0.842839	0.393644	0.735684
	H13	H	0.155711	0.607920	0.731159
	H14	H	0.841066	0.607687	0.285045
	H15	H	0.152712	0.393429	0.287124
	H16	H	0.394557	0.722294	0.851351
	H17	H	0.605529	0.721798	0.166083
	H18	H	0.605814	0.276056	0.852427
	H19	H	0.396034	0.281199	0.167138
	H20	H	0.718992	0.844443	0.404191
	H21	H	0.719194	0.158648	0.617801
	H22	H	0.274267	0.845600	0.614676
	H23	H	0.272472	0.158035	0.398792
	H24	H	0.890476	0.344689	0.234040
	H25	H	0.102511	0.657425	0.230814
	H26	H	0.107897	0.345164	0.783924
	H27	H	0.891087	0.658048	0.786827
	H28	H	0.215914	0.898621	0.352123
	H29	H	0.222803	0.111635	0.665992
	H30	H	0.771722	0.110237	0.353984
	H31	H	0.775391	0.896301	0.667769
	H32	H	0.341177	0.225932	0.900332
	H33	H	0.653095	0.225369	0.117265
	H34	H	0.343305	0.777977	0.114302
	H35	H	0.654287	0.777413	0.901700
	H36	H	0.342264	0.895154	0.229938
	H37	H	0.652406	0.110110	0.234953
	H38	H	0.338986	0.107469	0.787204
	H39	H	0.653429	0.894298	0.785450
	H40	H	0.889263	0.225678	0.353266
	H41	H	0.104534	0.225763	0.666561
	H42	H	0.099269	0.781588	0.352599
	H43	H	0.891632	0.779614	0.667778
	H44	H	0.223662	0.344572	0.900627
	H45	H	0.218600	0.657884	0.114464
	H46	H	0.774341	0.343878	0.117470
	H47	H	0.773067	0.656410	0.899982
	H48	H	0.408451	0.113344	0.594813
	H49	H	0.583159	0.888797	0.601179
	H50	H	0.589291	0.112710	0.428366
	H51	H	0.403998	0.887521	0.419823
	H52	H	0.590691	0.416357	0.119429
	H53	H	0.589171	0.592637	0.894102
	H54	H	0.409239	0.583255	0.119836
	H55	H	0.407887	0.420424	0.898404
	H56	H	0.109215	0.597232	0.424169
	H57	H	0.885161	0.591601	0.600345
	H58	H	0.107659	0.418161	0.597953
	H59	H	0.883524	0.416667	0.414795
	H60	H	0.110291	0.411027	0.599448
	H61	H	0.885493	0.591607	0.597304
	H62	H	0.106631	0.587399	0.422881
	H63	H	0.884052	0.408574	0.426013
	H64	H	0.414545	0.594227	0.121650
	H65	H	0.587889	0.583592	0.896929
	H66	H	0.582802	0.416276	0.117278
	H67	H	0.416131	0.411444	0.897803
	H68	H	0.585740	0.116731	0.414391
	H69	H	0.582176	0.891780	0.594966
	H70	H	0.408848	0.114275	0.598982
	H71	H	0.408955	0.888605	0.417433
	H72	H	0.907309	0.612983	0.094005
	H73	H	0.088202	0.388684	0.095765
	H74	H	0.091581	0.614527	0.919212
	H75	H	0.912375	0.387756	0.917485
	H76	H	0.084724	0.915477	0.621217
	H77	H	0.086609	0.086731	0.398603
	H78	H	0.911637	0.091607	0.621705
	H79	H	0.905142	0.911245	0.396367
	H80	H	0.606903	0.088201	0.923536
	H81	H	0.386525	0.087950	0.095221
	H82	H	0.612668	0.912114	0.101077
	H83	H	0.385680	0.910613	0.921364
	H84	H	0.612151	0.909127	0.098305
	H85	H	0.385999	0.088356	0.096488
	H86	H	0.608110	0.085949	0.918699
	H87	H	0.387161	0.912677	0.922675
	H88	H	0.905085	0.092461	0.624350
	H89	H	0.079880	0.088959	0.400730
	H90	H	0.085347	0.911216	0.623662
	H91	H	0.904465	0.916914	0.398323
	H92	H	0.084248	0.612340	0.917990
	H93	H	0.089735	0.386490	0.099615
	H94	H	0.912846	0.612166	0.098343
	H95	H	0.916974	0.393358	0.925282
	H96	H	0.412111	0.113111	0.596271
	H97	H	0.588789	0.888670	0.596197
	H98	H	0.575565	0.110922	0.422927
	H99	H	0.407746	0.890891	0.422374
	H100	H	0.586152	0.409836	0.121306
	H101	H	0.580927	0.589935	0.897770
	H102	H	0.402685	0.592170	0.125052
	H103	H	0.404909	0.409467	0.893741
	H104	H	0.110446	0.591975	0.415321
	H105	H	0.886337	0.589100	0.598606
	H106	H	0.106858	0.412598	0.592392
	H107	H	0.889176	0.421051	0.426945
	H108	H	0.912712	0.608987	0.092258
	H109	H	0.085203	0.387702	0.099103
	H110	H	0.087148	0.611876	0.925030
	H111	H	0.907657	0.389041	0.926566
	H112	H	0.089032	0.914112	0.623487
	H113	H	0.084500	0.093365	0.397437
	H114	H	0.906736	0.086658	0.620629
	H115	H	0.910047	0.914350	0.399276
	H116	H	0.609381	0.091390	0.919825
	H117	H	0.386447	0.089599	0.095631
	H118	H	0.610422	0.913025	0.097415
	H119	H	0.386402	0.913378	0.920266
	C120	C	0.376114	0.010053	0.629864
	C121	C	0.617851	0.993319	0.631327
	C122	C	0.617170	0.009901	0.388992
	C123	C	0.374271	0.992980	0.386382
	C124	C	0.619970	0.379270	0.016324
	C125	C	0.619886	0.621352	0.999963
	C126	C	0.376906	0.622484	0.017843
	C127	C	0.377459	0.380558	1.000441
	C128	C	0.004956	0.623697	0.387688
	C129	C	0.989350	0.623228	0.631154
	C130	C	0.005531	0.380597	0.631559
	C131	C	0.988369	0.380585	0.389045
	C132	C	0.876916	0.508581	0.129646
	C133	C	0.119223	0.491854	0.130668
	C134	C	0.120897	0.509471	0.887276
	C135	C	0.877678	0.492598	0.888494
	C136	C	0.117368	0.881773	0.518347
	C137	C	0.118159	0.123847	0.502056
	C138	C	0.874528	0.123704	0.518815
	C139	C	0.874713	0.880777	0.501820
	C140	C	0.504670	0.122350	0.887663
	C141	C	0.489207	0.122084	0.129953
	C142	C	0.507950	0.879314	0.130612
	C143	C	0.489685	0.879541	0.887900
	C144	C	0.372498	0.891784	0.691016
	C145	C	0.620101	0.111770	0.691764
	C146	C	0.620413	0.891375	0.328616
	C147	C	0.370962	0.110477	0.324115
	C148	C	0.681892	0.374283	0.899148
	C149	C	0.682022	0.624745	0.117887
	C150	C	0.316359	0.625634	0.899163
	C151	C	0.318478	0.377864	0.119770
	C152	C	0.886505	0.683610	0.384692
	C153	C	0.107494	0.683662	0.633158
	C154	C	0.887764	0.319667	0.635543
	C155	C	0.104689	0.316892	0.384227
	C156	C	0.889145	0.376112	0.694518
	C157	C	0.107833	0.626117	0.691323
	C158	C	0.887550	0.626163	0.325948
	C159	C	0.105486	0.375736	0.327346
	C160	C	0.375508	0.682423	0.898736
	C161	C	0.623593	0.681812	0.118512
	C162	C	0.623574	0.316989	0.899272
	C163	C	0.376833	0.320723	0.119683
	C164	C	0.678281	0.891376	0.386221
	C165	C	0.678674	0.111394	0.635102
	C166	C	0.314755	0.892298	0.633103
	C167	C	0.312900	0.110813	0.381774
	C168	C	0.873070	0.391198	0.192578
	C169	C	0.121012	0.610418	0.190741
	C170	C	0.125219	0.392208	0.824915
	C171	C	0.873300	0.610582	0.826780
	C172	C	0.176160	0.879919	0.399323
	C173	C	0.181193	0.128548	0.619195
	C174	C	0.812667	0.127711	0.400843
	C175	C	0.815285	0.878061	0.620605
	C176	C	0.387721	0.184905	0.883444
	C177	C	0.606343	0.184074	0.134592
	C178	C	0.390352	0.818134	0.133270
	C179	C	0.607328	0.818066	0.883786
	C180	C	0.389671	0.876496	0.190591
	C181	C	0.605944	0.126912	0.193411
	C182	C	0.386707	0.125675	0.827036
	C183	C	0.606942	0.876547	0.826324
	C184	C	0.871197	0.185007	0.400601
	C185	C	0.122193	0.185263	0.619728
	C186	C	0.118454	0.821717	0.399681
	C187	C	0.873132	0.819958	0.620254
	C188	C	0.182847	0.391919	0.883197
	C189	C	0.178799	0.610521	0.132880
	C190	C	0.815258	0.390942	0.134537
	C191	C	0.814466	0.609700	0.883155
	C192	C	0.402253	0.092010	0.604053
	C193	C	0.592155	0.911144	0.604864
	C194	C	0.591180	0.091862	0.414586
	C195	C	0.399693	0.910520	0.412604
	C196	C	0.594081	0.406202	0.098232
	C197	C	0.593556	0.595907	0.917890
	C198	C	0.401747	0.597270	0.100449
	C199	C	0.402366	0.406236	0.918134
	C200	C	0.087245	0.599072	0.413323
	C201	C	0.907186	0.598009	0.606026
	C202	C	0.087049	0.406526	0.604433
	C203	C	0.906876	0.407648	0.415163
	C204	C	0.903494	0.590126	0.102625
	C205	C	0.094659	0.409186	0.105390
	C206	C	0.094963	0.591587	0.913370
	C207	C	0.904616	0.411294	0.915435
	C208	C	0.093214	0.906496	0.601183
	C209	C	0.091434	0.097283	0.420312
	C210	C	0.900421	0.097665	0.600983
	C211	C	0.899297	0.906665	0.419408
	C212	C	0.586783	0.095925	0.913430
	C213	C	0.407643	0.096139	0.103270
	C214	C	0.590256	0.904425	0.106128
	C215	C	0.407685	0.904833	0.914026
	Zn216	Zn	0.496533	0.001337	0.759263
	Zn217	Zn	0.497256	0.001126	0.258955
	Zn218	Zn	0.748455	0.500073	0.008288
	Zn219	Zn	0.248513	0.500688	0.009911
	Zn220	Zn	-0.003560	0.752204	0.509640
	Zn221	Zn	-0.004196	0.252103	0.510695
	Zn222	Zn	-0.001638	0.501605	0.759726
	Zn223	Zn	-0.002405	0.500793	0.259372
	Zn224	Zn	0.499349	0.750617	0.009170
	Zn225	Zn	0.497745	0.251397	0.008222
	Zn226	Zn	0.745769	0.002114	0.510258
	Zn227	Zn	0.246992	0.002542	0.509381
	N228	N	0.409936	0.966192	0.689241
	N229	N	0.583045	0.037101	0.689743
	N230	N	0.583409	0.966040	0.329963
	N231	N	0.408176	0.036046	0.326684
	N232	N	0.679591	0.412353	0.973141
	N233	N	0.679748	0.587868	0.043195
	N234	N	0.316701	0.589306	0.974337
	N235	N	0.318714	0.414386	0.044739
	N236	N	0.960629	0.682268	0.422472
	N237	N	0.032591	0.682675	0.597020
	N238	N	0.961471	0.322068	0.597027
	N239	N	0.030728	0.319699	0.421827
	N240	N	0.963477	0.412836	0.692218
	N241	N	0.033222	0.589446	0.690376
	N242	N	0.962141	0.589652	0.327681
	N243	N	0.032165	0.414822	0.330486
	N244	N	0.412229	0.680696	0.973540
	N245	N	0.585550	0.679801	0.044176
	N246	N	0.585935	0.319883	0.973325
	N247	N	0.412335	0.321970	0.044386
	N248	N	0.676691	0.966321	0.422815
	N249	N	0.677406	0.036814	0.598285
	N250	N	0.316821	0.966661	0.595956
	N251	N	0.315089	0.036614	0.420095
	N252	N	0.910567	0.465490	0.189815
	N253	N	0.084885	0.535515	0.189545
	N254	N	0.087433	0.466489	0.827316
	N255	N	0.911955	0.536799	0.829955
	N256	N	0.175589	0.916525	0.474065
	N257	N	0.178665	0.090985	0.544857
	N258	N	0.814443	0.090434	0.475516
	N259	N	0.816074	0.915057	0.545820
	N260	N	0.462294	0.182985	0.920457
	N261	N	0.532852	0.181200	0.095686
	N262	N	0.464918	0.819588	0.096900
	N263	N	0.533536	0.820041	0.921592
	N264	N	0.463945	0.913680	0.189303
	N265	N	0.531994	0.089159	0.190774
	N266	N	0.460619	0.087539	0.829657
	N267	N	0.532663	0.914070	0.828757
	N268	N	0.908950	0.182548	0.474811
	N269	N	0.083676	0.182439	0.545895
	N270	N	0.082575	0.822920	0.474728
	N271	N	0.909282	0.821568	0.545423
	N272	N	0.180305	0.466014	0.921187
	N273	N	0.177790	0.535724	0.096277
	N274	N	0.817610	0.464873	0.096142
	N275	N	0.816882	0.535364	0.920628
	O276	O	0.405683	0.604550	0.704348
	H277	H	0.415890	0.602729	0.683420
	H278	H	0.410476	0.606174	0.702286
	O279	O	0.613381	0.639253	0.440033
	H280	H	0.617113	0.646872	0.444824
	H281	H	0.603946	0.643474	0.447830
	O282	O	0.876640	1.122925	0.209755
	H283	H	0.875703	1.115977	0.220811
	H284	H	0.870391	1.103056	0.214885
	O285	O	0.513011	0.690806	0.342902
	H286	H	0.510678	0.704752	0.331495
	H287	H	0.535096	0.681015	0.342533
	O288	O	-0.217147	0.217294	-0.011367
	H289	H	-0.225834	0.205131	-0.029858
	H290	H	-0.244344	0.232077	-0.020967
	O291	O	0.945560	1.028219	0.052609
	H292	H	0.941191	1.043764	0.045128
	H293	H	0.945526	1.032970	0.055520
	O294	O	-0.183577	1.183966	-0.171072
	H295	H	-0.189723	1.156647	-0.158523
	H296	H	-0.136879	1.189516	-0.181940
	O297	O	0.303251	0.535688	0.540973
	H298	H	0.294026	0.570460	0.539099
	H299	H	0.304984	0.531805	0.572766
	O300	O	0.553818	0.511416	0.422519
	H301	H	0.540969	0.493524	0.423119
	H302	H	0.559741	0.503412	0.416300
	O303	O	0.282746	0.712469	0.485131
	H304	H	0.280122	0.723732	0.459215
	H305	H	0.276827	0.726677	0.459337
	O306	O	-0.225745	1.066031	1.067113
	H307	H	-0.214421	1.076710	1.065533
	H308	H	-0.222848	1.061407	1.071435
	O309	O	0.626595	0.702813	0.518982
	H310	H	0.635284	0.711286	0.516934
	H311	H	0.635301	0.702614	0.503964
	O312	O	0.535283	0.579766	0.340190
	H313	H	0.517240	0.581401	0.337198
	H314	H	0.543597	0.564200	0.338656
	O315	O	-0.286105	0.408302	0.367113
	H316	H	-0.261568	0.390061	0.359846
	H317	H	-0.293919	0.402142	0.347387
	O318	O	0.130661	0.988904	-0.195207
	H319	H	0.136737	0.989202	-0.195045
	H320	H	0.118273	1.015645	-0.194545
	O321	O	0.496187	0.292709	0.431156
	H322	H	0.480531	0.301769	0.454475
	H323	H	0.492184	0.288529	0.427045
	O324	O	1.464921	0.567618	1.674674
	H325	H	1.455689	0.563443	1.676609
	H326	H	1.477367	0.572273	1.665596
	O327	O	0.920454	-0.055843	0.817423
	H328	H	0.945512	-0.040944	0.819445
	H329	H	0.916009	-0.056026	0.805962
	O330	O	1.225227	-0.062535	0.065020
	H331	H	1.223431	-0.056836	0.036187
	H332	H	1.221671	-0.081897	0.049516
	O333	O	0.975805	0.771498	0.987237
	H334	H	0.970729	0.765461	0.980366
	H335	H	0.962564	0.781295	0.982982
	O336	O	1.205439	0.051898	1.190085
	H337	H	1.227452	0.041302	1.189022
	H338	H	1.207157	0.035502	1.187308
	O339	O	0.518324	0.359206	0.332535
	H340	H	0.517162	0.349653	0.337738
	H341	H	0.497785	0.358522	0.344751
	O342	O	1.045544	0.043930	-0.173631
	H343	H	1.038038	0.046556	-0.189638
	H344	H	1.037578	0.072211	-0.158813
	O345	O	-0.052522	0.217172	0.061305
	H346	H	-0.070042	0.213460	0.077376
	H347	H	-0.080880	0.225001	0.070940
	O348	O	1.182767	0.194293	1.192671
	H349	H	1.144204	0.206339	1.207899
	H350	H	1.185128	0.147864	1.201895
	O351	O	0.788244	0.720304	0.267205
	H352	H	0.797481	0.706199	0.263940
	H353	H	0.775335	0.702703	0.285456
	O354	O	0.441086	0.337218	0.477250
	H355	H	0.443417	0.341353	0.464040
	H356	H	0.435094	0.347292	0.479190
	O357	O	0.920268	1.056096	1.129598
	H358	H	0.925054	1.059793	1.123720
	H359	H	0.906791	1.036048	1.118181
	O360	O	0.571803	0.422275	0.672077
	H361	H	0.589634	0.421575	0.671844
	H362	H	0.571681	0.431957	0.654819
	O363	O	0.680116	0.320001	0.554359
	H364	H	0.680421	0.301982	0.552701
	H365	H	0.673088	0.314061	0.540046
	O366	O	0.807569	0.787741	0.016897
	H367	H	0.811389	0.800836	0.030385
	H368	H	0.792392	0.767466	0.026792
	O369	O	0.601419	0.527737	0.532408
	H370	H	0.604058	0.537955	0.534501
	H371	H	0.600516	0.521439	0.524125
	O372	O	0.476234	0.299320	0.713336
	H373	H	0.489420	0.283235	0.713771
	H374	H	0.492857	0.318259	0.728176
	O375	O	-0.023558	1.208672	0.798710
	H376	H	-0.011455	1.235091	0.808178
	H377	H	-0.012134	1.228977	0.808148
	O378	O	1.184902	0.060963	-0.065380
	H379	H	1.165669	0.063133	-0.058643
	H380	H	1.190610	0.097092	-0.059428
	O381	O	0.504742	0.495789	-0.499567
	H382	H	0.510623	0.492398	-0.503220
	H383	H	0.497976	0.498504	-0.495126
	O384	O	0.029291	-1.038676	1.186438
	H385	H	0.033752	-1.044828	1.170302
	H386	H	0.044683	-1.048154	1.181134
	O387	O	0.115088	0.858047	0.954213
	H388	H	0.128832	0.861422	0.927617
	H389	H	0.097870	0.869217	0.943636
	O390	O	0.215787	-0.215535	0.981775
	H391	H	0.236426	-0.238200	0.963617
	H392	H	0.209438	-0.218172	0.947048
	O393	O	1.028151	1.138453	0.160102
	H394	H	1.011814	1.133794	0.168694
	H395	H	1.019676	1.149134	0.165357
	O396	O	0.286398	0.481649	0.717458
	H397	H	0.278069	0.484005	0.731616
	H398	H	0.281935	0.449031	0.721551
	O399	O	0.290397	0.708188	0.311219
	H400	H	0.262175	0.740839	0.275492
	H401	H	0.329965	0.699152	0.302497
	O402	O	-0.212833	-0.108965	0.902473
	H403	H	-0.206772	-0.088934	0.923311
	H404	H	-0.216367	-0.112212	0.915039
	O405	O	-0.184553	-0.179824	0.187543
	H406	H	-0.191047	-0.172681	0.175711
	H407	H	-0.152451	-0.171364	0.200863
	O408	O	0.384910	0.328167	0.425353
	H409	H	0.380013	0.328400	0.433273
	H410	H	0.371554	0.349606	0.443104
	O411	O	0.291282	0.538837	0.298010
	H412	H	0.282165	0.546712	0.278741
	H413	H	0.276730	0.556063	0.299688
	O414	O	0.694746	0.694777	0.639540
	H415	H	0.680058	0.703719	0.641529
	H416	H	0.695911	0.696805	0.633777
	O417	O	0.380839	0.470486	0.352863
	H418	H	0.369918	0.459063	0.347218
	H419	H	0.382629	0.490601	0.383121
	O420	O	1.014194	0.863046	1.145136
	H421	H	1.025538	0.866923	1.140481
	H422	H	1.021507	0.865287	1.136443
	O423	O	-0.178651	0.990417	0.203162
	H424	H	-0.197761	0.982310	0.202016
	H425	H	-0.190881	0.986356	0.201286
	O426	O	1.190366	0.812023	1.198842
	H427	H	1.176623	0.831680	1.174874
	H428	H	1.167957	0.823014	1.177473
	O429	O	0.312873	0.321180	0.692221
	H430	H	0.365836	0.309891	0.701305
	H431	H	0.301121	0.330804	0.664863
	O432	O	0.214199	0.204695	0.019926
	H433	H	0.220004	0.200093	0.055528
	H434	H	0.231158	0.223505	0.040098
	O435	O	-0.218262	0.026451	-0.203830
	H436	H	-0.226007	0.011574	-0.208485
	H437	H	-0.222028	0.039575	-0.211562
	O438	O	1.191146	-0.193273	-0.182752
	H439	H	1.211929	-0.176502	-0.204360
	H440	H	1.166804	-0.173761	-0.192608
	O441	O	0.690366	0.313446	0.319009
	H442	H	0.678238	0.333745	0.321381
	H443	H	0.653981	0.319701	0.322086
	O444	O	0.025542	0.781369	0.790973
	H445	H	0.031317	0.748469	0.757335
	H446	H	0.030503	0.791887	0.802504
	O447	O	0.587325	0.702694	0.706663
	H448	H	0.589743	0.717796	0.721640
	H449	H	0.577941	0.680501	0.707206
	O450	O	0.281563	0.289139	0.532139
	H451	H	0.261237	0.281032	0.523151
	H452	H	0.270819	0.294022	0.543307
	O453	O	0.705567	0.524366	0.722185
	H454	H	0.716790	0.533259	0.729101
	H455	H	0.708086	0.522210	0.725965
	O456	O	1.066603	0.225505	-0.066801
	H457	H	1.056731	0.228563	-0.031187
	H458	H	1.089636	0.229924	-0.042471
	O459	O	0.474899	0.703030	0.600623
	H460	H	0.475657	0.708810	0.595696
	H461	H	0.467861	0.702919	0.605183
	O462	O	0.625939	0.451612	0.465509
	H463	H	0.612827	0.462597	0.480693
	H464	H	0.632285	0.454944	0.461230
	O465	O	1.000355	-0.048763	0.070825
	H466	H	0.993379	-0.056951	0.066018
	H467	H	1.004342	-0.046489	0.062417
