data_Molecule from HDF5

_cell_length_a		16.265648
_cell_length_b		16.347126
_cell_length_c		16.258327
_cell_angle_alpha	90.064657
_cell_angle_beta	89.836667
_cell_angle_gamma	90.021782
_symmetry_space_group_name_H-M	'P 1'
_symmetry_Int_Tables_number		1

loop_
	_symmetry_equiv_pos_as_xyz
	x,y,z

loop_
	_atom_site_label
	_atom_site_type_symbol
	_atom_site_fract_x
	_atom_site_fract_y
	_atom_site_fract_z
	H0	H	0.396827	0.838536	0.714677
	H1	H	0.595207	0.164653	0.714949
	H2	H	0.595521	0.839183	0.284024
	H3	H	0.398082	0.165031	0.285045
	H4	H	0.711368	0.401685	0.837126
	H5	H	0.709465	0.599560	0.163536
	H6	H	0.282414	0.597932	0.835603
	H7	H	0.281258	0.402234	0.163772
	H8	H	0.831672	0.715810	0.402450
	H9	H	0.159444	0.717701	0.600480
	H10	H	0.831845	0.286304	0.602454
	H11	H	0.158666	0.285348	0.399427
	H12	H	0.831186	0.404696	0.715102
	H13	H	0.159789	0.599736	0.714429
	H14	H	0.831601	0.599584	0.287357
	H15	H	0.158837	0.401679	0.284313
	H16	H	0.396289	0.715951	0.835876
	H17	H	0.595493	0.717070	0.162935
	H18	H	0.595936	0.286312	0.836550
	H19	H	0.394858	0.285530	0.163478
	H20	H	0.711850	0.839464	0.399196
	H21	H	0.710517	0.164720	0.597758
	H22	H	0.279932	0.838750	0.598708
	H23	H	0.280336	0.164867	0.400063
	H24	H	0.896330	0.338593	0.216551
	H25	H	0.094225	0.664931	0.215460
	H26	H	0.094071	0.338529	0.784451
	H27	H	0.896568	0.664753	0.787270
	H28	H	0.210141	0.902625	0.336125
	H29	H	0.210721	0.100837	0.663641
	H30	H	0.782863	0.099728	0.336194
	H31	H	0.780932	0.904280	0.663760
	H32	H	0.332595	0.215794	0.900837
	H33	H	0.659290	0.216938	0.098697
	H34	H	0.332372	0.786461	0.098410
	H35	H	0.659175	0.785170	0.898319
	H36	H	0.332114	0.902445	0.215002
	H37	H	0.660071	0.099139	0.212743
	H38	H	0.332527	0.099440	0.785802
	H39	H	0.660443	0.903255	0.784737
	H40	H	0.896289	0.217933	0.337609
	H41	H	0.096102	0.217587	0.663738
	H42	H	0.095938	0.785931	0.336699
	H43	H	0.895455	0.786963	0.663163
	H44	H	0.209961	0.337332	0.901564
	H45	H	0.212141	0.663763	0.100298
	H46	H	0.778991	0.338699	0.100768
	H47	H	0.780717	0.664172	0.903420
	H48	H	0.400434	0.116723	0.589185
	H49	H	0.595051	0.885345	0.588023
	H50	H	0.595167	0.119598	0.405817
	H51	H	0.402993	0.885843	0.404198
	H52	H	0.579498	0.406477	0.115188
	H53	H	0.582151	0.605214	0.882025
	H54	H	0.401080	0.590114	0.116148
	H55	H	0.406562	0.408273	0.885153
	H56	H	0.112779	0.594202	0.404433
	H57	H	0.877642	0.598708	0.594849
	H58	H	0.110677	0.407721	0.588250
	H59	H	0.880468	0.413351	0.409685
	H60	H	0.110554	0.414121	0.593407
	H61	H	0.880477	0.595122	0.590610
	H62	H	0.111830	0.597975	0.410516
	H63	H	0.878246	0.407900	0.406148
	H64	H	0.407687	0.594388	0.114712
	H65	H	0.600089	0.591528	0.880129
	H66	H	0.590968	0.404115	0.118729
	H67	H	0.401896	0.403396	0.882468
	H68	H	0.585488	0.118276	0.401399
	H69	H	0.589354	0.883910	0.599019
	H70	H	0.402397	0.118703	0.596217
	H71	H	0.406022	0.887430	0.407966
	H72	H	0.903851	0.612951	0.081494
	H73	H	0.092977	0.386264	0.087919
	H74	H	0.087379	0.613659	0.915425
	H75	H	0.887527	0.380338	0.906141
	H76	H	0.083894	0.911222	0.614667
	H77	H	0.088005	0.103563	0.381692
	H78	H	0.902899	0.106368	0.620231
	H79	H	0.908341	0.920485	0.388265
	H80	H	0.611632	0.098442	0.914440
	H81	H	0.380011	0.087101	0.097387
	H82	H	0.611841	0.911544	0.092735
	H83	H	0.377208	0.899410	0.905642
	H84	H	0.613171	0.906127	0.092562
	H85	H	0.376787	0.101679	0.094804
	H86	H	0.610251	0.087084	0.906201
	H87	H	0.382980	0.910624	0.914322
	H88	H	0.892621	0.088696	0.618382
	H89	H	0.095620	0.089884	0.383631
	H90	H	0.088129	0.903900	0.617505
	H91	H	0.912175	0.896867	0.382294
	H92	H	0.097601	0.620264	0.907176
	H93	H	0.090120	0.383336	0.099975
	H94	H	0.889604	0.621692	0.097472
	H95	H	0.912560	0.385265	0.895188
	H96	H	0.407379	0.115213	0.591686
	H97	H	0.582765	0.888502	0.589262
	H98	H	0.586864	0.115183	0.411758
	H99	H	0.401550	0.886571	0.408476
	H100	H	0.588777	0.415553	0.114573
	H101	H	0.580720	0.583693	0.889031
	H102	H	0.401476	0.597770	0.117561
	H103	H	0.399671	0.410042	0.882968
	H104	H	0.110162	0.590808	0.410482
	H105	H	0.879623	0.593462	0.596785
	H106	H	0.113007	0.406618	0.595902
	H107	H	0.880313	0.406726	0.412770
	H108	H	0.911237	0.616766	0.102835
	H109	H	0.081038	0.388260	0.092632
	H110	H	0.084300	0.617208	0.902163
	H111	H	0.907744	0.391491	0.922128
	H112	H	0.092277	0.911372	0.616900
	H113	H	0.080480	0.090601	0.387301
	H114	H	0.912430	0.089609	0.612273
	H115	H	0.890333	0.906887	0.379683
	H116	H	0.615649	0.098509	0.900815
	H117	H	0.382439	0.093121	0.084065
	H118	H	0.610720	0.908762	0.088564
	H119	H	0.379753	0.913215	0.899724
	C120	C	0.374008	0.009850	0.621550
	C121	C	0.617524	0.993516	0.620942
	C122	C	0.618198	0.010253	0.377290
	C123	C	0.374203	0.993894	0.377756
	C124	C	0.616393	0.379732	0.008542
	C125	C	0.616943	0.622558	0.991473
	C126	C	0.374645	0.622381	0.008001
	C127	C	0.373974	0.378683	0.991613
	C128	C	0.003649	0.623042	0.379654
	C129	C	0.987435	0.624175	0.622842
	C130	C	0.003137	0.380724	0.622150
	C131	C	0.987398	0.380169	0.379588
	C132	C	0.872739	0.509723	0.122850
	C133	C	0.117133	0.493525	0.122244
	C134	C	0.117639	0.509085	0.879054
	C135	C	0.873745	0.493046	0.879498
	C136	C	0.117195	0.879955	0.508221
	C137	C	0.117335	0.123742	0.492052
	C138	C	0.874028	0.124013	0.509014
	C139	C	0.874386	0.880207	0.491403
	C140	C	0.504567	0.123123	0.878309
	C141	C	0.487656	0.123154	0.121169
	C142	C	0.504185	0.879725	0.121017
	C143	C	0.487980	0.879358	0.877423
	C144	C	0.376057	0.887345	0.677009
	C145	C	0.615001	0.116067	0.676489
	C146	C	0.616013	0.888060	0.321583
	C147	C	0.376929	0.116414	0.322511
	C148	C	0.672922	0.381767	0.885699
	C149	C	0.671782	0.620381	0.114769
	C150	C	0.319298	0.619682	0.884723
	C151	C	0.318731	0.381485	0.114868
	C152	C	0.880715	0.678291	0.381995
	C153	C	0.110363	0.679591	0.620501
	C154	C	0.880624	0.324583	0.621526
	C155	C	0.110020	0.324218	0.380540
	C156	C	0.880190	0.383569	0.677705
	C157	C	0.110574	0.620887	0.677355
	C158	C	0.880413	0.620460	0.324836
	C159	C	0.110199	0.381877	0.323112
	C160	C	0.376145	0.678089	0.885004
	C161	C	0.615271	0.678793	0.114243
	C162	C	0.615616	0.324243	0.885352
	C163	C	0.375488	0.323653	0.114737
	C164	C	0.673526	0.887976	0.379385
	C165	C	0.672510	0.116174	0.618403
	C166	C	0.317986	0.887307	0.619294
	C167	C	0.318378	0.116099	0.379618
	C168	C	0.875520	0.387130	0.178425
	C169	C	0.114910	0.616137	0.177580
	C170	C	0.114766	0.386948	0.822879
	C171	C	0.876262	0.616030	0.825094
	C172	C	0.172109	0.882649	0.384946
	C173	C	0.172860	0.121425	0.614887
	C174	C	0.819789	0.121030	0.385399
	C175	C	0.818917	0.883552	0.614777
	C176	C	0.381538	0.178133	0.880263
	C177	C	0.610602	0.178742	0.118954
	C178	C	0.381242	0.824210	0.119301
	C179	C	0.610680	0.823704	0.878992
	C180	C	0.381113	0.881876	0.177111
	C181	C	0.611048	0.120229	0.175582
	C182	C	0.381479	0.120173	0.823196
	C183	C	0.611337	0.882156	0.822392
	C184	C	0.876306	0.179547	0.386180
	C185	C	0.115922	0.179444	0.614889
	C186	C	0.115922	0.823832	0.385503
	C187	C	0.875606	0.825201	0.614624
	C188	C	0.172476	0.386374	0.881073
	C189	C	0.173187	0.615744	0.120043
	C190	C	0.817461	0.387074	0.120809
	C191	C	0.818351	0.615684	0.882460
	C192	C	0.396650	0.094965	0.598974
	C193	C	0.595589	0.907995	0.598586
	C194	C	0.595602	0.095726	0.399845
	C195	C	0.396813	0.908639	0.400243
	C196	C	0.593189	0.402023	0.094288
	C197	C	0.594453	0.599957	0.905855
	C198	C	0.396820	0.600535	0.093823
	C199	C	0.396240	0.400784	0.905628
	C200	C	0.089394	0.600744	0.401791
	C201	C	0.901447	0.602270	0.600556
	C202	C	0.089282	0.403159	0.599175
	C203	C	0.901785	0.402774	0.402767
	C204	C	0.895070	0.594814	0.100541
	C205	C	0.094572	0.408136	0.099948
	C206	C	0.095987	0.594874	0.901620
	C207	C	0.895966	0.407884	0.901500
	C208	C	0.094686	0.902426	0.594190
	C209	C	0.094532	0.101329	0.406237
	C210	C	0.896135	0.101407	0.594858
	C211	C	0.896994	0.901789	0.405637
	C212	C	0.590374	0.101120	0.900540
	C213	C	0.401945	0.100596	0.098739
	C214	C	0.589826	0.902329	0.098040
	C215	C	0.402033	0.901317	0.899970
	Zn216	Zn	0.496562	0.001329	0.750254
	Zn217	Zn	0.496281	0.002058	0.249205
	Zn218	Zn	0.744665	0.500658	0.000442
	Zn219	Zn	0.246533	0.500969	0.000440
	Zn220	Zn	-0.004090	0.752261	0.500423
	Zn221	Zn	-0.004339	0.251980	0.501351
	Zn222	Zn	-0.004815	0.502029	0.750796
	Zn223	Zn	-0.004884	0.501739	0.250991
	Zn224	Zn	0.495886	0.750920	-0.000406
	Zn225	Zn	0.495528	0.251388	0.000080
	Zn226	Zn	0.746452	0.001936	0.499352
	Zn227	Zn	0.245171	0.002099	0.499698
	N228	N	0.410175	0.964237	0.678522
	N229	N	0.581663	0.038601	0.678343
	N230	N	0.582129	0.965156	0.320434
	N231	N	0.411044	0.039490	0.321315
	N232	N	0.673579	0.415432	0.963277
	N233	N	0.672799	0.586027	0.037572
	N234	N	0.318340	0.585674	0.962082
	N235	N	0.317677	0.415187	0.037434
	N236	N	0.958299	0.679919	0.415457
	N237	N	0.032566	0.681811	0.587537
	N238	N	0.958225	0.322985	0.587600
	N239	N	0.032674	0.322890	0.414864
	N240	N	0.957505	0.417851	0.678051
	N241	N	0.033006	0.587435	0.679113
	N242	N	0.957777	0.586712	0.323239
	N243	N	0.032897	0.416090	0.322397
	N244	N	0.409824	0.679869	0.962557
	N245	N	0.581941	0.680286	0.036517
	N246	N	0.581041	0.322997	0.962568
	N247	N	0.409181	0.321933	0.037056
	N248	N	0.675079	0.965081	0.413200
	N249	N	0.674038	0.039168	0.584469
	N250	N	0.316578	0.964488	0.585502
	N251	N	0.316775	0.038991	0.413466
	N252	N	0.909217	0.464245	0.179694
	N253	N	0.080489	0.539223	0.178755
	N254	N	0.081444	0.464249	0.821602
	N255	N	0.910026	0.538836	0.823100
	N256	N	0.172837	0.916859	0.462243
	N257	N	0.173862	0.087564	0.537506
	N258	N	0.818300	0.087221	0.462859
	N259	N	0.818126	0.917298	0.537269
	N260	N	0.459015	0.180093	0.913886
	N261	N	0.532971	0.180573	0.085828
	N262	N	0.458748	0.822560	0.085499
	N263	N	0.533012	0.822025	0.912839
	N264	N	0.458676	0.915726	0.178332
	N265	N	0.533564	0.086445	0.177040
	N266	N	0.459003	0.086561	0.822046
	N267	N	0.533974	0.915800	0.821245
	N268	N	0.909262	0.181392	0.463999
	N269	N	0.081904	0.180729	0.537599
	N270	N	0.082626	0.822051	0.463390
	N271	N	0.909472	0.823129	0.537087
	N272	N	0.174254	0.463464	0.915242
	N273	N	0.174814	0.538384	0.086614
	N274	N	0.815455	0.464128	0.087128
	N275	N	0.816841	0.538443	0.915658
	O276	O	0.553636	0.541899	0.533862
	H277	H	0.552202	0.540296	0.536885
	H278	H	0.556391	0.540993	0.533859
	O279	O	0.463245	0.491481	0.510420
	H280	H	0.466873	0.493526	0.520082
	H281	H	0.456973	0.481929	0.511359
	O282	O	0.451681	0.469191	0.466205
	H283	H	0.444347	0.458106	0.467812
	H284	H	0.446094	0.474888	0.460352
	O285	O	0.027169	1.000164	1.033052
	H286	H	0.028901	0.999711	1.041452
	H287	H	0.020774	1.003503	1.032664
	O288	O	0.469977	0.503462	0.464003
	H289	H	0.471177	0.514357	0.467370
	H290	H	0.474217	0.504526	0.466315
	O291	O	0.008338	0.057914	1.003126
	H292	H	0.008575	0.061547	1.000631
	H293	H	0.005808	0.058047	1.007269
	O294	O	0.522378	0.510505	0.504126
	H295	H	0.530169	0.517577	0.495200
	H296	H	0.536553	0.507002	0.502264
	O297	O	0.528478	0.480377	0.545459
	H298	H	0.531413	0.476919	0.537965
	H299	H	0.520518	0.475738	0.538142
	O300	O	0.446329	0.503088	0.461775
	H301	H	0.449694	0.501347	0.461814
	H302	H	0.446134	0.511976	0.466516
	O303	O	0.451620	0.534311	0.448748
	H304	H	0.455140	0.538368	0.460928
	H305	H	0.449747	0.536191	0.447296
	O306	O	1.014506	-0.023105	1.017488
	H307	H	1.005340	-0.029876	1.020281
	H308	H	1.014368	-0.026458	1.025836
	O309	O	0.481481	0.501339	0.587154
	H310	H	0.485977	0.507334	0.587337
	H311	H	0.479085	0.499757	0.591801
	O312	O	0.469929	0.498368	0.550663
	H313	H	0.464051	0.485635	0.550823
	H314	H	0.466061	0.495812	0.553198
	O315	O	1.029736	0.021223	0.994218
	H316	H	1.040230	0.018603	0.985274
	H317	H	1.032939	0.025929	0.987154
	O318	O	-0.006171	-0.011511	-0.055147
	H319	H	-0.005776	-0.016731	-0.056449
	H320	H	-0.012049	-0.010184	-0.051160
	O321	O	0.516366	0.503911	0.471851
	H322	H	0.514846	0.504392	0.470949
	H323	H	0.516692	0.505236	0.470333
	O324	O	1.028265	-0.008688	-0.055674
	H325	H	1.044214	-0.002905	-0.064431
	H326	H	1.029321	-0.009138	-0.068979
	O327	O	1.003297	0.971217	-0.044489
	H328	H	0.994772	0.972014	-0.040423
	H329	H	1.007609	0.968003	-0.039827
	O330	O	0.686953	0.598129	0.311608
	H331	H	0.685461	0.592562	0.322026
	H332	H	0.682796	0.588650	0.306996
	O333	O	0.565151	0.492889	0.478743
	H334	H	0.563422	0.495044	0.472727
	H335	H	0.567438	0.492627	0.474751
