data_Molecule from HDF5

_cell_length_a		16.294045
_cell_length_b		16.304840
_cell_length_c		16.343109
_cell_angle_alpha	89.931203
_cell_angle_beta	89.972471
_cell_angle_gamma	90.137486
_symmetry_space_group_name_H-M	'P 1'
_symmetry_Int_Tables_number		1

loop_
	_symmetry_equiv_pos_as_xyz
	x,y,z

loop_
	_atom_site_label
	_atom_site_type_symbol
	_atom_site_fract_x
	_atom_site_fract_y
	_atom_site_fract_z
	H0	H	0.405864	0.830260	0.706757
	H1	H	0.601958	0.157175	0.706233
	H2	H	0.602278	0.830124	0.278138
	H3	H	0.406910	0.157698	0.277969
	H4	H	0.717323	0.397785	0.828793
	H5	H	0.719741	0.591961	0.156553
	H6	H	0.291172	0.590846	0.828417
	H7	H	0.288371	0.394075	0.155636
	H8	H	0.840127	0.706985	0.394819
	H9	H	0.167816	0.709937	0.589403
	H10	H	0.841686	0.279883	0.589745
	H11	H	0.168972	0.281335	0.395057
	H12	H	0.840908	0.396647	0.705379
	H13	H	0.168403	0.593299	0.706076
	H14	H	0.841210	0.592677	0.277285
	H15	H	0.168568	0.397239	0.278509
	H16	H	0.407142	0.708091	0.828785
	H17	H	0.601757	0.707951	0.156430
	H18	H	0.602394	0.279682	0.829229
	H19	H	0.406915	0.279167	0.155821
	H20	H	0.718547	0.830330	0.394841
	H21	H	0.718129	0.157683	0.589838
	H22	H	0.290472	0.830014	0.589577
	H23	H	0.292049	0.158477	0.396400
	H24	H	0.904451	0.330785	0.208932
	H25	H	0.104081	0.657446	0.206684
	H26	H	0.103217	0.330310	0.777231
	H27	H	0.907381	0.657545	0.777912
	H28	H	0.218154	0.897408	0.328792
	H29	H	0.217557	0.091000	0.656831
	H30	H	0.790458	0.091270	0.329176
	H31	H	0.789042	0.894338	0.655561
	H32	H	0.341178	0.208451	0.893879
	H33	H	0.668190	0.206960	0.089701
	H34	H	0.340605	0.779567	0.091114
	H35	H	0.667969	0.781007	0.895397
	H36	H	0.340558	0.895259	0.207493
	H37	H	0.667542	0.092094	0.206495
	H38	H	0.340518	0.091592	0.777965
	H39	H	0.667880	0.895476	0.778033
	H40	H	0.906727	0.208537	0.329446
	H41	H	0.102989	0.208554	0.655755
	H42	H	0.103020	0.779402	0.329403
	H43	H	0.905352	0.777995	0.655157
	H44	H	0.218525	0.329938	0.894133
	H45	H	0.219787	0.657266	0.089961
	H46	H	0.790425	0.329515	0.090607
	H47	H	0.791982	0.657603	0.895431
	H48	H	0.417180	0.110218	0.587919
	H49	H	0.597454	0.875409	0.591978
	H50	H	0.608212	0.109946	0.408908
	H51	H	0.411805	0.878269	0.399577
	H52	H	0.594935	0.397376	0.108119
	H53	H	0.599441	0.582137	0.878468
	H54	H	0.421699	0.585020	0.104323
	H55	H	0.403809	0.404597	0.876226
	H56	H	0.120471	0.591540	0.402541
	H57	H	0.890213	0.581630	0.587771
	H58	H	0.124996	0.391373	0.585949
	H59	H	0.888984	0.398657	0.401477
	H60	H	0.117367	0.405497	0.576697
	H61	H	0.886170	0.589634	0.589088
	H62	H	0.118665	0.582881	0.398769
	H63	H	0.889719	0.403424	0.399999
	H64	H	0.408339	0.595148	0.111641
	H65	H	0.594187	0.591447	0.877136
	H66	H	0.602607	0.398189	0.109742
	H67	H	0.418406	0.404735	0.880493
	H68	H	0.600438	0.114755	0.385132
	H69	H	0.591768	0.879364	0.584600
	H70	H	0.409776	0.108838	0.580175
	H71	H	0.408152	0.877729	0.399457
	H72	H	0.914112	0.606288	0.076741
	H73	H	0.097650	0.377440	0.087972
	H74	H	0.097345	0.610440	0.898484
	H75	H	0.914237	0.378836	0.899522
	H76	H	0.091451	0.903475	0.605879
	H77	H	0.100805	0.093054	0.374710
	H78	H	0.921046	0.083126	0.604804
	H79	H	0.918151	0.898920	0.378244
	H80	H	0.622664	0.087967	0.891406
	H81	H	0.384304	0.091774	0.092369
	H82	H	0.620324	0.902923	0.087300
	H83	H	0.391478	0.907393	0.903933
	H84	H	0.620808	0.898771	0.086433
	H85	H	0.389046	0.089763	0.077793
	H86	H	0.620953	0.092163	0.903241
	H87	H	0.385613	0.902433	0.891158
	H88	H	0.910008	0.097927	0.611925
	H89	H	0.102362	0.083195	0.376425
	H90	H	0.097262	0.893810	0.610412
	H91	H	0.906788	0.896627	0.374719
	H92	H	0.097877	0.609951	0.899003
	H93	H	0.093595	0.379156	0.085519
	H94	H	0.903166	0.612235	0.087584
	H95	H	0.907374	0.376475	0.900075
	H96	H	0.407165	0.112427	0.589520
	H97	H	0.601730	0.877065	0.582503
	H98	H	0.583998	0.104949	0.402386
	H99	H	0.410830	0.876819	0.397449
	H100	H	0.598019	0.403972	0.107716
	H101	H	0.603949	0.590821	0.874960
	H102	H	0.404681	0.577516	0.106983
	H103	H	0.412259	0.392010	0.874670
	H104	H	0.123221	0.589950	0.393432
	H105	H	0.890085	0.587444	0.581249
	H106	H	0.122833	0.407309	0.594133
	H107	H	0.887174	0.400091	0.397220
	H108	H	0.918639	0.609402	0.092367
	H109	H	0.097865	0.378138	0.083108
	H110	H	0.098349	0.609168	0.898018
	H111	H	0.911094	0.375860	0.893757
	H112	H	0.103208	0.904113	0.609068
	H113	H	0.092946	0.087394	0.378685
	H114	H	0.902308	0.079734	0.609494
	H115	H	0.909392	0.907273	0.377742
	H116	H	0.618364	0.080547	0.900973
	H117	H	0.389729	0.078751	0.087846
	H118	H	0.619380	0.901488	0.083490
	H119	H	0.386843	0.893087	0.902649
	C120	C	0.382668	0.002029	0.614288
	C121	C	0.625542	0.985579	0.614246
	C122	C	0.625781	0.002060	0.370615
	C123	C	0.382367	0.985948	0.370722
	C124	C	0.626467	0.371909	0.000745
	C125	C	0.627348	0.616246	0.984793
	C126	C	0.383439	0.614733	-0.000004
	C127	C	0.382474	0.371397	0.984366
	C128	C	0.012493	0.615901	0.370198
	C129	C	0.996640	0.615259	0.613634
	C130	C	0.013447	0.372712	0.613717
	C131	C	0.996635	0.372439	0.370700
	C132	C	0.883443	0.501378	0.113647
	C133	C	0.125841	0.485653	0.113652
	C134	C	0.126175	0.501661	0.870471
	C135	C	0.883119	0.485625	0.870087
	C136	C	0.125922	0.872650	0.500547
	C137	C	0.126666	0.115600	0.484538
	C138	C	0.882817	0.115364	0.500912
	C139	C	0.882557	0.871942	0.484408
	C140	C	0.512807	0.115345	0.870260
	C141	C	0.495948	0.114751	0.113755
	C142	C	0.512283	0.872250	0.114203
	C143	C	0.495975	0.872574	0.871029
	C144	C	0.385393	0.879085	0.668996
	C145	C	0.622860	0.108381	0.668435
	C146	C	0.622678	0.878778	0.316138
	C147	C	0.386091	0.108995	0.316044
	C148	C	0.680272	0.376007	0.877520
	C149	C	0.681571	0.612732	0.107730
	C150	C	0.328802	0.611885	0.877184
	C151	C	0.326952	0.374179	0.107069
	C152	C	0.889055	0.669544	0.373957
	C153	C	0.119513	0.671096	0.609948
	C154	C	0.890127	0.317912	0.610736
	C155	C	0.119832	0.317963	0.373584
	C156	C	0.890013	0.375597	0.668165
	C157	C	0.119759	0.613530	0.668061
	C158	C	0.889564	0.612547	0.315675
	C159	C	0.119768	0.375863	0.315924
	C160	C	0.386625	0.669818	0.877204
	C161	C	0.622934	0.670257	0.107749
	C162	C	0.622911	0.317666	0.877827
	C163	C	0.385456	0.316916	0.107261
	C164	C	0.680398	0.878942	0.373931
	C165	C	0.680454	0.108688	0.610573
	C166	C	0.327904	0.879048	0.611038
	C167	C	0.328935	0.109308	0.374670
	C168	C	0.885117	0.378909	0.169646
	C169	C	0.124162	0.608739	0.168632
	C170	C	0.123622	0.378830	0.815496
	C171	C	0.886654	0.608775	0.815937
	C172	C	0.180652	0.876188	0.377693
	C173	C	0.180614	0.112258	0.607663
	C174	C	0.828254	0.112171	0.377991
	C175	C	0.827289	0.873984	0.607015
	C176	C	0.389455	0.169880	0.873243
	C177	C	0.619183	0.169679	0.110710
	C178	C	0.389533	0.817087	0.111858
	C179	C	0.619249	0.818495	0.874302
	C180	C	0.389312	0.874744	0.169376
	C181	C	0.619102	0.112370	0.168418
	C182	C	0.389572	0.112452	0.815245
	C183	C	0.619047	0.875290	0.816061
	C184	C	0.885971	0.170395	0.378079
	C185	C	0.123520	0.170601	0.607244
	C186	C	0.123428	0.817738	0.377923
	C187	C	0.884904	0.816097	0.606666
	C188	C	0.180649	0.378760	0.873680
	C189	C	0.181685	0.608673	0.110714
	C190	C	0.828026	0.378385	0.111349
	C191	C	0.829264	0.608712	0.874226
	C192	C	0.404951	0.088235	0.592280
	C193	C	0.603621	0.899344	0.592678
	C194	C	0.603983	0.087732	0.392154
	C195	C	0.403848	0.899794	0.392388
	C196	C	0.604877	0.393304	0.086358
	C197	C	0.605753	0.594491	0.898844
	C198	C	0.405273	0.592561	0.085582
	C199	C	0.404845	0.393777	0.899246
	C200	C	0.098635	0.594426	0.391897
	C201	C	0.910933	0.592848	0.592272
	C202	C	0.099351	0.394680	0.592015
	C203	C	0.910642	0.394251	0.392896
	C204	C	0.905471	0.587128	0.091764
	C205	C	0.103036	0.400292	0.092099
	C206	C	0.104364	0.587552	0.892113
	C207	C	0.904634	0.399292	0.891444
	C208	C	0.103911	0.894180	0.586313
	C209	C	0.104979	0.094187	0.398827
	C210	C	0.904722	0.093352	0.586563
	C211	C	0.904812	0.894413	0.398984
	C212	C	0.598387	0.093488	0.892143
	C213	C	0.409948	0.093139	0.092262
	C214	C	0.598081	0.894627	0.092221
	C215	C	0.410185	0.894400	0.892884
	Zn216	Zn	0.504330	-0.006479	0.742665
	Zn217	Zn	0.504041	-0.006262	0.242355
	Zn218	Zn	0.755293	0.493356	-0.007366
	Zn219	Zn	0.254287	0.493813	-0.007734
	Zn220	Zn	0.004228	0.743761	0.491759
	Zn221	Zn	0.005096	0.244223	0.492544
	Zn222	Zn	0.005185	0.493902	0.742122
	Zn223	Zn	0.004450	0.494075	0.242431
	Zn224	Zn	0.504321	0.744407	-0.007516
	Zn225	Zn	0.504323	0.242888	-0.007508
	Zn226	Zn	0.754023	-0.006267	0.492808
	Zn227	Zn	0.254565	-0.005909	0.492731
	N228	N	0.418615	0.956851	0.671105
	N229	N	0.589479	0.030924	0.670722
	N230	N	0.589409	0.956369	0.313750
	N231	N	0.418549	0.031077	0.313464
	N232	N	0.682204	0.409396	0.954705
	N233	N	0.684140	0.579645	0.030343
	N234	N	0.326889	0.578255	0.954290
	N235	N	0.324971	0.407300	0.029594
	N236	N	0.966626	0.671729	0.407067
	N237	N	0.041986	0.672033	0.576807
	N238	N	0.967716	0.315962	0.577721
	N239	N	0.042211	0.315805	0.406921
	N240	N	0.967678	0.409129	0.670083
	N241	N	0.042411	0.579512	0.670494
	N242	N	0.967446	0.580221	0.313097
	N243	N	0.042345	0.409056	0.314158
	N244	N	0.420030	0.671524	0.954590
	N245	N	0.590193	0.672705	0.030125
	N246	N	0.590065	0.314975	0.955439
	N247	N	0.419497	0.315229	0.030330
	N248	N	0.682328	0.956276	0.407177
	N249	N	0.682272	0.030976	0.577664
	N250	N	0.326236	0.956409	0.577679
	N251	N	0.326995	0.031782	0.407943
	N252	N	0.918810	0.456317	0.171286
	N253	N	0.090371	0.531260	0.171011
	N254	N	0.090298	0.456221	0.813465
	N255	N	0.919321	0.531128	0.813314
	N256	N	0.182244	0.909478	0.455116
	N257	N	0.182630	0.078911	0.530458
	N258	N	0.826334	0.078713	0.455307
	N259	N	0.825967	0.908113	0.530043
	N260	N	0.466878	0.172014	0.906651
	N261	N	0.541664	0.171215	0.077328
	N262	N	0.466847	0.815478	0.078295
	N263	N	0.541891	0.816851	0.907982
	N264	N	0.466736	0.908605	0.170773
	N265	N	0.541626	0.078957	0.170510
	N266	N	0.467111	0.079079	0.813607
	N267	N	0.541382	0.908178	0.813949
	N268	N	0.919301	0.172356	0.455429
	N269	N	0.090487	0.172673	0.529702
	N270	N	0.089937	0.815513	0.455149
	N271	N	0.918692	0.814753	0.529413
	N272	N	0.182345	0.456189	0.907099
	N273	N	0.182735	0.531505	0.076977
	N274	N	0.826873	0.455588	0.077322
	N275	N	0.827003	0.530985	0.907109
	O276	O	0.962935	-0.018645	1.046380
	H277	H	0.962322	-0.012055	1.044346
	H278	H	0.969888	-0.017325	1.045118
	O279	O	-0.030066	0.973909	1.070439
	H280	H	-0.026099	0.962033	1.073008
	H281	H	-0.034551	0.970918	1.070853
	O282	O	0.924485	0.962786	0.094626
	H283	H	0.913400	0.955239	0.091468
	H284	H	0.927448	0.967598	0.095778
	O285	O	-0.031577	0.969769	1.089347
	H286	H	-0.035542	0.980486	1.089162
	H287	H	-0.033680	0.967537	1.104176
