data_Molecule from HDF5

_cell_length_a		16.669816
_cell_length_b		16.698042
_cell_length_c		16.605673
_cell_angle_alpha	89.923456
_cell_angle_beta	89.963375
_cell_angle_gamma	89.948002
_symmetry_space_group_name_H-M	'P 1'
_symmetry_Int_Tables_number		1

loop_
	_symmetry_equiv_pos_as_xyz
	x,y,z

loop_
	_atom_site_label
	_atom_site_type_symbol
	_atom_site_fract_x
	_atom_site_fract_y
	_atom_site_fract_z
	H0	H	0.367273	0.818492	0.695695
	H1	H	0.576188	0.128967	0.696570
	H2	H	0.574020	0.819269	0.255219
	H3	H	0.369131	0.130814	0.257906
	H4	H	0.692046	0.368978	0.819069
	H5	H	0.694068	0.581782	0.128254
	H6	H	0.249343	0.579918	0.820574
	H7	H	0.252087	0.370102	0.131943
	H8	H	0.814123	0.693255	0.372780
	H9	H	0.127089	0.693555	0.579253
	H10	H	0.818205	0.248735	0.585395
	H11	H	0.125237	0.252706	0.370402
	H12	H	0.816830	0.367042	0.699242
	H13	H	0.126301	0.577943	0.694841
	H14	H	0.813150	0.573758	0.259871
	H15	H	0.126137	0.370361	0.255994
	H16	H	0.363422	0.697949	0.821334
	H17	H	0.578255	0.696816	0.128951
	H18	H	0.576153	0.253584	0.818891
	H19	H	0.367814	0.254521	0.131232
	H20	H	0.690456	0.819078	0.369975
	H21	H	0.694246	0.127505	0.581766
	H22	H	0.251742	0.817480	0.579207
	H23	H	0.250949	0.128893	0.371843
	H24	H	0.864210	0.319412	0.196743
	H25	H	0.072248	0.629259	0.195250
	H26	H	0.080607	0.322602	0.750645
	H27	H	0.865229	0.628450	0.752725
	H28	H	0.187735	0.872890	0.317906
	H29	H	0.193583	0.080384	0.629836
	H30	H	0.748434	0.081386	0.321176
	H31	H	0.749353	0.867777	0.630309
	H32	H	0.316915	0.196341	0.869125
	H33	H	0.625805	0.195220	0.080153
	H34	H	0.315207	0.755479	0.078755
	H35	H	0.621935	0.747332	0.863982
	H36	H	0.314193	0.873609	0.193043
	H37	H	0.625706	0.077759	0.194960
	H38	H	0.315633	0.078729	0.754527
	H39	H	0.622148	0.862738	0.747802
	H40	H	0.861979	0.198418	0.322572
	H41	H	0.078846	0.197238	0.629013
	H42	H	0.071623	0.757536	0.317165
	H43	H	0.866382	0.753541	0.630783
	H44	H	0.192695	0.320321	0.870206
	H45	H	0.192415	0.627436	0.081907
	H46	H	0.749572	0.319181	0.079434
	H47	H	0.745307	0.626532	0.864523
	H48	H	0.376831	0.088400	0.570528
	H49	H	0.552898	0.867270	0.560224
	H50	H	0.564728	0.086951	0.386372
	H51	H	0.381403	0.861416	0.381778
	H52	H	0.559537	0.378535	0.088188
	H53	H	0.558804	0.560685	0.863620
	H54	H	0.380900	0.563299	0.087290
	H55	H	0.379278	0.379846	0.861321
	H56	H	0.083902	0.565930	0.383114
	H57	H	0.862480	0.562138	0.557193
	H58	H	0.083728	0.375570	0.561483
	H59	H	0.860292	0.386372	0.389052
	H60	H	0.075900	0.390894	0.554422
	H61	H	0.859873	0.558495	0.568690
	H62	H	0.083934	0.566496	0.383881
	H63	H	0.858528	0.385257	0.386620
	H64	H	0.382369	0.563515	0.086677
	H65	H	0.555275	0.558429	0.866125
	H66	H	0.566260	0.387374	0.087218
	H67	H	0.377305	0.390125	0.862855
	H68	H	0.559004	0.086123	0.381708
	H69	H	0.563212	0.863678	0.558222
	H70	H	0.389898	0.081245	0.564686
	H71	H	0.379676	0.862871	0.387031
	H72	H	0.879306	0.585080	0.065528
	H73	H	0.057340	0.362292	0.069410
	H74	H	0.057821	0.583906	0.888259
	H75	H	0.885264	0.363288	0.884971
	H76	H	0.063634	0.889347	0.587141
	H77	H	0.060320	0.060139	0.364811
	H78	H	0.886764	0.057961	0.583688
	H79	H	0.875668	0.885588	0.361020
	H80	H	0.581688	0.065405	0.888344
	H81	H	0.356962	0.065738	0.069059
	H82	H	0.583572	0.885342	0.067876
	H83	H	0.361533	0.884862	0.891963
	H84	H	0.583231	0.881326	0.063110
	H85	H	0.357889	0.069400	0.063111
	H86	H	0.580550	0.060673	0.886381
	H87	H	0.363387	0.892359	0.889944
	H88	H	0.885218	0.062169	0.586409
	H89	H	0.056432	0.061547	0.365538
	H90	H	0.054422	0.879616	0.586141
	H91	H	0.884256	0.886196	0.364933
	H92	H	0.061106	0.584502	0.888820
	H93	H	0.061364	0.362801	0.061582
	H94	H	0.881481	0.586144	0.066881
	H95	H	0.884954	0.366652	0.891153
	H96	H	0.377250	0.083311	0.555816
	H97	H	0.558869	0.862208	0.568241
	H98	H	0.558410	0.083411	0.388330
	H99	H	0.375871	0.860833	0.383487
	H100	H	0.555585	0.387803	0.083706
	H101	H	0.554979	0.562880	0.864161
	H102	H	0.381612	0.564897	0.087582
	H103	H	0.386221	0.385933	0.865449
	H104	H	0.082561	0.565807	0.383708
	H105	H	0.857282	0.569714	0.565172
	H106	H	0.081559	0.391150	0.571928
	H107	H	0.859063	0.383510	0.389526
	H108	H	0.881637	0.584070	0.064457
	H109	H	0.066085	0.360179	0.068595
	H110	H	0.059229	0.585599	0.885955
	H111	H	0.879451	0.363342	0.888996
	H112	H	0.066496	0.877272	0.591524
	H113	H	0.058890	0.064081	0.363488
	H114	H	0.881868	0.058336	0.585993
	H115	H	0.881177	0.878131	0.361165
	H116	H	0.583310	0.063824	0.883768
	H117	H	0.360071	0.063211	0.063729
	H118	H	0.580665	0.886865	0.062255
	H119	H	0.359242	0.887847	0.884854
	C120	C	0.349575	-0.018122	0.596143
	C121	C	0.591653	0.965905	0.596065
	C122	C	0.592360	-0.016902	0.353380
	C123	C	0.348674	0.965155	0.353392
	C124	C	0.592299	0.352661	-0.016672
	C125	C	0.590356	0.594190	0.966518
	C126	C	0.349019	0.596127	-0.015549
	C127	C	0.350540	0.353987	0.966766
	C128	C	-0.020611	0.596007	0.353672
	C129	C	0.962713	0.594883	0.595454
	C130	C	-0.020946	0.352500	0.597144
	C131	C	0.961811	0.352952	0.355692
	C132	C	0.848575	0.482469	0.097095
	C133	C	0.092272	0.464673	0.097910
	C134	C	0.092442	0.482883	0.854528
	C135	C	0.850028	0.465865	0.854260
	C136	C	0.091732	0.852230	0.483800
	C137	C	0.091953	0.094565	0.466643
	C138	C	0.850187	0.094090	0.483910
	C139	C	0.849332	0.852304	0.465997
	C140	C	0.479589	0.095606	0.853493
	C141	C	0.461561	0.096838	0.096536
	C142	C	0.479531	0.853079	0.096156
	C143	C	0.462093	0.853377	0.854178
	C144	C	0.348239	0.865109	0.655971
	C145	C	0.594765	0.082153	0.656567
	C146	C	0.593089	0.866216	0.294277
	C147	C	0.349352	0.083227	0.296448
	C148	C	0.652085	0.350823	0.865993
	C149	C	0.653108	0.598911	0.082180
	C150	C	0.288901	0.598517	0.867602
	C151	C	0.291864	0.352208	0.084654
	C152	C	0.861194	0.653540	0.353767
	C153	C	0.079898	0.653924	0.597494
	C154	C	0.863966	0.290178	0.602222
	C155	C	0.078710	0.292846	0.352453
	C156	C	0.863196	0.349089	0.658582
	C157	C	0.079786	0.596154	0.654793
	C158	C	0.860600	0.594407	0.297713
	C159	C	0.079075	0.351428	0.295703
	C160	C	0.345683	0.656966	0.867741
	C161	C	0.595364	0.656278	0.082280
	C162	C	0.594522	0.293377	0.865805
	C163	C	0.349249	0.294471	0.084171
	C164	C	0.650960	0.865934	0.351581
	C165	C	0.653225	0.081596	0.599527
	C166	C	0.291012	0.864548	0.597920
	C167	C	0.290644	0.082429	0.353124
	C168	C	0.846435	0.365947	0.156435
	C169	C	0.092299	0.582292	0.156150
	C170	C	0.096755	0.367945	0.792593
	C171	C	0.846803	0.581836	0.792755
	C172	C	0.149019	0.853274	0.365266
	C173	C	0.153369	0.098203	0.583101
	C174	C	0.788443	0.098821	0.367993
	C175	C	0.789540	0.849984	0.583485
	C176	C	0.363139	0.156075	0.850662
	C177	C	0.578889	0.155470	0.098467
	C178	C	0.361939	0.794656	0.097566
	C179	C	0.576485	0.789314	0.847871
	C180	C	0.361408	0.853286	0.154181
	C181	C	0.578929	0.097030	0.155500
	C182	C	0.362575	0.097475	0.794079
	C183	C	0.576660	0.846774	0.790140
	C184	C	0.845347	0.156842	0.368497
	C185	C	0.096099	0.156142	0.582949
	C186	C	0.091342	0.795808	0.364832
	C187	C	0.847977	0.793269	0.583910
	C188	C	0.152863	0.366849	0.851674
	C189	C	0.151602	0.581415	0.099811
	C190	C	0.789253	0.365905	0.098249
	C191	C	0.787560	0.581071	0.848664
	C192	C	0.374292	0.063329	0.570851
	C193	C	0.565638	0.885300	0.569871
	C194	C	0.567714	0.064519	0.378414
	C195	C	0.372311	0.882996	0.377162
	C196	C	0.567485	0.377560	0.065141
	C197	C	0.563868	0.567835	0.885677
	C198	C	0.374460	0.571011	0.066020
	C199	C	0.374358	0.378341	0.884452
	C200	C	0.061899	0.572856	0.376894
	C201	C	0.880961	0.570409	0.570818
	C202	C	0.059612	0.378665	0.570331
	C203	C	0.880604	0.377876	0.381170
	C204	C	0.873570	0.563935	0.072277
	C205	C	0.068251	0.383152	0.073650
	C206	C	0.066646	0.563595	0.880312
	C207	C	0.875772	0.385441	0.880774
	C208	C	0.068240	0.875303	0.566764
	C209	C	0.065858	0.069129	0.385796
	C210	C	0.876926	0.067214	0.564316
	C211	C	0.873409	0.876449	0.383871
	C212	C	0.560699	0.070370	0.878810
	C213	C	0.379548	0.073051	0.072113
	C214	C	0.561172	0.877432	0.071641
	C215	C	0.382194	0.880816	0.881280
	Zn216	Zn	0.470775	-0.025879	0.725350
	Zn217	Zn	0.470285	-0.025722	0.224967
	Zn218	Zn	0.720177	0.474250	-0.025565
	Zn219	Zn	0.220876	0.473900	-0.024201
	Zn220	Zn	-0.028951	0.724074	0.475205
	Zn221	Zn	-0.029133	0.223341	0.475923
	Zn222	Zn	-0.028756	0.474316	0.725341
	Zn223	Zn	-0.030114	0.473224	0.226112
	Zn224	Zn	0.470764	0.724551	-0.025108
	Zn225	Zn	0.470824	0.224462	-0.025920
	Zn226	Zn	0.721034	-0.026497	0.475030
	Zn227	Zn	0.220358	-0.026517	0.475561
	N228	N	0.384014	0.939143	0.655047
	N229	N	0.557214	0.009141	0.654661
	N230	N	0.557427	0.940267	0.295024
	N231	N	0.384592	0.009082	0.296239
	N232	N	0.650957	0.386953	0.940143
	N233	N	0.650299	0.560957	0.008952
	N234	N	0.290680	0.561471	0.941410
	N235	N	0.292418	0.388526	0.010477
	N236	N	0.936300	0.654936	0.387557
	N237	N	0.005939	0.653415	0.561268
	N238	N	0.937165	0.292007	0.564747
	N239	N	0.004660	0.293292	0.388737
	N240	N	0.936105	0.387049	0.655770
	N241	N	0.005816	0.560135	0.653743
	N242	N	0.935177	0.559417	0.297238
	N243	N	0.005186	0.387849	0.297105
	N244	N	0.382350	0.655903	0.941648
	N245	N	0.556861	0.653548	0.009364
	N246	N	0.558116	0.294201	0.939912
	N247	N	0.385157	0.295352	0.009752
	N248	N	0.650961	0.939876	0.387641
	N249	N	0.651581	0.008170	0.562644
	N250	N	0.291548	0.938313	0.561411
	N251	N	0.289976	0.007820	0.387839
	N252	N	0.882728	0.439665	0.155870
	N253	N	0.056259	0.508524	0.155469
	N254	N	0.059826	0.441077	0.794122
	N255	N	0.884911	0.509078	0.795915
	N256	N	0.149687	0.887442	0.440475
	N257	N	0.151002	0.060490	0.509889
	N258	N	0.791389	0.060350	0.440898
	N259	N	0.790099	0.885945	0.509146
	N260	N	0.437088	0.155337	0.886814
	N261	N	0.504713	0.155767	0.062640
	N262	N	0.436536	0.794078	0.062522
	N263	N	0.504373	0.793611	0.887487
	N264	N	0.435663	0.888690	0.153887
	N265	N	0.504803	0.061381	0.154738
	N266	N	0.436156	0.060728	0.795389
	N267	N	0.504611	0.886231	0.794041
	N268	N	0.883214	0.154254	0.441708
	N269	N	0.058453	0.154124	0.509600
	N270	N	0.056577	0.794883	0.439848
	N271	N	0.884339	0.794175	0.509692
	N272	N	0.150446	0.439585	0.889497
	N273	N	0.151939	0.507212	0.064405
	N274	N	0.790317	0.439555	0.061938
	N275	N	0.789360	0.508002	0.886356
	O276	O	-0.165712	0.831099	-0.225452
	H277	H	-0.173424	0.851056	-0.229282
	H278	H	-0.189437	0.825760	-0.234800
	O279	O	0.416394	0.696947	0.515201
	H280	H	0.416382	0.694155	0.530083
	H281	H	0.405032	0.696570	0.489658
	O282	O	0.832417	-0.089831	1.116129
	H283	H	0.827533	-0.103465	1.133770
	H284	H	0.831806	-0.088145	1.117343
	O285	O	0.370194	0.335643	0.493790
	H286	H	0.389616	0.342618	0.488364
	H287	H	0.357833	0.323732	0.490110
	O288	O	0.653470	0.673329	0.677325
	H289	H	0.641559	0.667761	0.650774
	H290	H	0.639068	0.666139	0.671730
	O291	O	0.886790	0.873148	0.748964
	H292	H	0.898858	0.875483	0.773802
	H293	H	0.880743	0.870128	0.744488
	O294	O	1.026097	0.012582	0.814622
	H295	H	1.035941	0.010379	0.814487
	H296	H	1.027212	0.012309	0.807085
	O297	O	1.009084	1.154428	0.192761
	H298	H	1.028810	1.165084	0.207425
	H299	H	1.030015	1.162089	0.184378
	O300	O	-0.069296	-0.250085	1.198320
	H301	H	-0.054369	-0.232199	1.211373
	H302	H	-0.064390	-0.272381	1.212914
	O303	O	0.484360	0.258707	0.578117
	H304	H	0.477727	0.253910	0.588506
	H305	H	0.484940	0.256833	0.576714
	O306	O	0.478808	0.665927	0.439195
	H307	H	0.466966	0.661814	0.444058
	H308	H	0.470525	0.665907	0.418636
	O309	O	0.252336	0.448183	0.461251
	H310	H	0.252690	0.446140	0.454724
	H311	H	0.253550	0.445912	0.447816
	O312	O	0.442886	0.442953	0.643795
	H313	H	0.437571	0.449706	0.643524
	H314	H	0.438770	0.445260	0.636096
	O315	O	1.426274	1.535581	1.519156
	H316	H	1.416003	1.536787	1.522017
	H317	H	1.424743	1.526974	1.526172
	O318	O	0.487758	0.483944	0.505609
	H319	H	0.486759	0.489699	0.506391
	H320	H	0.476555	0.472623	0.516787
	O321	O	0.005108	0.750853	0.759533
	H322	H	0.005668	0.763584	0.753069
	H323	H	-0.004051	0.741398	0.737403
	O324	O	1.000385	1.046416	-0.031405
	H325	H	0.985028	1.039736	-0.039612
	H326	H	1.006812	1.055849	-0.038463
	O327	O	-0.153415	-0.251914	0.961085
	H328	H	-0.174593	-0.241460	0.951442
	H329	H	-0.158551	-0.265826	0.941867
	O330	O	0.330735	0.499032	0.679276
	H331	H	0.328449	0.492344	0.679164
	H332	H	0.323089	0.487374	0.678535
	O333	O	0.586987	0.574126	0.321155
	H334	H	0.596258	0.576653	0.308575
	H335	H	0.586236	0.557732	0.315853
	O336	O	0.495330	0.258120	0.512132
	H337	H	0.493688	0.244476	0.520661
	H338	H	0.492509	0.265533	0.525960
	O339	O	1.164330	-0.222274	1.165244
	H340	H	1.142098	-0.214311	1.138317
	H341	H	1.151198	-0.194876	1.149190
	O342	O	0.688467	0.504614	-0.309170
	H343	H	0.680029	0.516006	-0.299055
	H344	H	0.704241	0.502963	-0.295259
	O345	O	-0.030336	0.927219	1.195925
	H346	H	-0.040264	0.940347	1.186051
	H347	H	-0.039686	0.940881	1.184760
	O348	O	0.687098	0.442547	0.255263
	H349	H	0.708533	0.442320	0.233441
	H350	H	0.689206	0.410781	0.265345
	O351	O	0.741907	1.205893	0.207548
	H352	H	0.749704	1.205545	0.197837
	H353	H	0.761699	1.182382	0.178282
	O354	O	0.174836	-0.234273	0.763856
	H355	H	0.157799	-0.242547	0.751457
	H356	H	0.178152	-0.234729	0.810250
	O357	O	1.200504	0.206481	1.201383
	H358	H	1.202783	0.187691	1.188735
	H359	H	1.228034	0.229386	1.237366
	O360	O	1.038007	1.041711	1.172901
	H361	H	1.051070	1.045227	1.191960
	H362	H	1.033875	1.062075	1.169706
	O363	O	0.121713	-0.025021	0.079327
	H364	H	0.115303	-0.041093	0.071331
	H365	H	0.110345	-0.031614	0.080083
	O366	O	0.652717	0.647741	0.393610
	H367	H	0.639511	0.638526	0.386140
	H368	H	0.652203	0.645905	0.400573
	O369	O	0.503700	0.681249	0.650569
	H370	H	0.496221	0.687820	0.658598
	H371	H	0.494159	0.682017	0.653075
	O372	O	1.049650	0.926960	0.047178
	H373	H	1.063531	0.941344	0.048524
	H374	H	1.036942	0.932179	0.043600
	O375	O	1.350939	0.275547	0.346020
	H376	H	1.368686	0.280177	0.367695
	H377	H	1.373486	0.285325	0.343136
	O378	O	0.245256	0.695514	0.437065
	H379	H	0.247060	0.692882	0.419313
	H380	H	0.223403	0.720063	0.425436
	O381	O	0.165023	0.755698	0.956568
	H382	H	0.153262	0.778534	0.962670
	H383	H	0.183352	0.729771	0.960480
	O384	O	1.009676	-0.152731	0.895685
	H385	H	1.010171	-0.155038	0.885799
	H386	H	0.997724	-0.162422	0.895059
	O387	O	1.466940	0.481569	0.265333
	H388	H	1.483833	0.478322	0.283937
	H389	H	1.464015	0.478901	0.262221
	O390	O	0.261072	0.682923	0.268429
	H391	H	0.229958	0.714983	0.234244
	H392	H	0.292650	0.684779	0.277035
	O393	O	0.678619	0.264987	0.339352
	H394	H	0.692265	0.243031	0.313527
	H395	H	0.659605	0.254719	0.328703
	O396	O	0.017043	1.153411	0.952504
	H397	H	0.025652	1.161784	0.959990
	H398	H	0.001028	1.148203	0.933761
	O399	O	-0.258090	0.045459	1.018230
	H400	H	-0.249783	0.031500	1.027747
	H401	H	-0.263749	0.046463	1.006228
	O402	O	0.625072	0.429474	0.598666
	H403	H	0.626312	0.442235	0.596319
	H404	H	0.621958	0.429989	0.602103
	O405	O	0.883802	0.011207	0.884706
	H406	H	0.883483	0.003877	0.883697
	H407	H	0.903397	0.016381	0.883289
	O408	O	-0.241706	0.185707	-0.232262
	H409	H	-0.246313	0.196987	-0.238948
	H410	H	-0.249265	0.183346	-0.223831
	O411	O	0.980028	1.206056	0.828673
	H412	H	0.956906	1.197388	0.833542
	H413	H	0.970337	1.218910	0.807444
	O414	O	0.743636	-0.001317	0.754406
	H415	H	0.731007	0.023440	0.738342
	H416	H	0.749408	0.005043	0.736973
	O417	O	0.695383	0.310810	0.475995
	H418	H	0.708865	0.302729	0.466021
	H419	H	0.696629	0.295533	0.465125
	O420	O	0.630597	0.626140	0.518213
	H421	H	0.625740	0.632669	0.515129
	H422	H	0.632718	0.635836	0.513575
	O423	O	0.200724	0.042857	0.915775
	H424	H	0.192485	0.031503	0.912168
	H425	H	0.198910	0.056696	0.904150
	O426	O	0.253919	0.394465	0.540696
	H427	H	0.254216	0.409180	0.538151
	H428	H	0.244535	0.396046	0.530583
	O429	O	1.100314	0.842037	0.976293
	H430	H	1.083343	0.851075	0.981505
	H431	H	1.102070	0.861244	0.955676
	O432	O	0.190684	0.942302	0.750769
	H433	H	0.191995	0.910190	0.758081
	H434	H	0.218845	0.937972	0.728373
	O435	O	1.166663	1.172003	0.783072
	H436	H	1.130036	1.176238	0.798402
	H437	H	1.182620	1.173483	0.778030
	O438	O	0.334499	-0.568139	0.274905
	H439	H	0.330932	-0.555315	0.271523
	H440	H	0.334196	-0.547597	0.263499
	O441	O	-0.343293	0.287483	-0.348675
	H442	H	-0.350930	0.298935	-0.359694
	H443	H	-0.358106	0.304515	-0.364466
	O444	O	0.613173	0.495367	0.454822
	H445	H	0.627767	0.494005	0.452574
	H446	H	0.614708	0.491365	0.462241
	O447	O	-0.278477	1.721874	0.224243
	H448	H	-0.251048	1.697489	0.230990
	H449	H	-0.289427	1.728217	0.223689
	O450	O	-0.709958	0.519899	1.262024
	H451	H	-0.712769	0.545627	1.252948
	H452	H	-0.715302	0.531140	1.257147
	O453	O	0.532972	0.448827	0.477320
	H454	H	0.538005	0.441268	0.478503
	H455	H	0.533750	0.470926	0.489129
	O456	O	0.761882	-0.235367	1.005466
	H457	H	0.770841	-0.242883	1.023205
	H458	H	0.761744	-0.221560	1.002386
	O459	O	0.946044	1.105657	-0.228507
	H460	H	0.938513	1.102723	-0.233299
	H461	H	0.953640	1.118937	-0.228870
	O462	O	0.511142	0.257393	0.259424
	H463	H	0.511026	0.252333	0.245247
	H464	H	0.503989	0.264001	0.249411
	O465	O	1.189462	0.197396	0.012223
	H466	H	1.200534	0.211682	0.008664
	H467	H	1.193906	0.192173	0.026874
	O468	O	0.288667	0.660683	0.662863
	H469	H	0.274611	0.673270	0.663306
	H470	H	0.302431	0.636916	0.655470
	O471	O	0.733839	0.923785	0.910068
	H472	H	0.727993	0.922652	0.908578
	H473	H	0.732652	0.934391	0.883068
	O474	O	0.254618	0.293920	0.690742
	H475	H	0.239504	0.281807	0.693951
	H476	H	0.271942	0.310814	0.685726
	O477	O	1.027783	0.751334	1.028147
	H478	H	1.024500	0.747319	1.015551
	H479	H	1.003813	0.754857	1.020904
	O480	O	0.356660	0.330429	0.689592
	H481	H	0.340890	0.332599	0.694733
	H482	H	0.359949	0.333007	0.684721
	O483	O	0.431784	0.700283	0.251617
	H484	H	0.430627	0.699640	0.243334
	H485	H	0.437356	0.706390	0.226850
	O486	O	0.926747	0.173266	1.165336
	H487	H	0.939396	0.177459	1.169886
	H488	H	0.952863	0.163041	1.158758
	O489	O	0.747174	0.946625	0.197335
	H490	H	0.743264	0.916057	0.193130
	H491	H	0.724555	0.946820	0.213131
	O492	O	-0.249203	0.192549	-0.053723
	H493	H	-0.250165	0.188816	-0.048472
	H494	H	-0.263375	0.210431	-0.056613
	O495	O	0.091151	0.950477	1.101111
	H496	H	0.100649	0.956372	1.097101
	H497	H	0.071779	0.938823	1.101584
	O498	O	0.908825	1.189983	1.018955
	H499	H	0.928782	1.188845	1.044337
	H500	H	0.901198	1.194210	1.009403
	O501	O	0.319113	0.322006	0.410826
	H502	H	0.325529	0.334094	0.413768
	H503	H	0.334130	0.320310	0.420926
