data_Molecule from HDF5

_cell_length_a		16.225849
_cell_length_b		16.454083
_cell_length_c		16.380731
_cell_angle_alpha	89.874191
_cell_angle_beta	89.955970
_cell_angle_gamma	89.880388
_symmetry_space_group_name_H-M	'P 1'
_symmetry_Int_Tables_number		1

loop_
	_symmetry_equiv_pos_as_xyz
	x,y,z

loop_
	_atom_site_label
	_atom_site_type_symbol
	_atom_site_fract_x
	_atom_site_fract_y
	_atom_site_fract_z
	H0	H	0.399477	0.834563	0.724510
	H1	H	0.606010	0.153628	0.726932
	H2	H	0.607418	0.833897	0.287010
	H3	H	0.399401	0.154154	0.285391
	H4	H	0.717157	0.392247	0.843643
	H5	H	0.715458	0.591856	0.167585
	H6	H	0.283303	0.592698	0.844613
	H7	H	0.281409	0.389718	0.166192
	H8	H	0.838386	0.714168	0.403818
	H9	H	0.162977	0.710859	0.607770
	H10	H	0.838397	0.277993	0.608272
	H11	H	0.162604	0.278480	0.402455
	H12	H	0.836815	0.393245	0.722156
	H13	H	0.162031	0.595198	0.723554
	H14	H	0.837367	0.599279	0.288383
	H15	H	0.161707	0.393654	0.286601
	H16	H	0.393857	0.715101	0.847260
	H17	H	0.606581	0.713335	0.164922
	H18	H	0.604247	0.273186	0.844992
	H19	H	0.396503	0.272373	0.165564
	H20	H	0.721062	0.833795	0.407184
	H21	H	0.717752	0.156407	0.606343
	H22	H	0.283657	0.834151	0.607710
	H23	H	0.283418	0.155153	0.403067
	H24	H	0.892589	0.336022	0.229684
	H25	H	0.105353	0.653742	0.226260
	H26	H	0.104203	0.334913	0.784828
	H27	H	0.892539	0.653398	0.784510
	H28	H	0.219684	0.892464	0.344468
	H29	H	0.220235	0.096720	0.666786
	H30	H	0.782580	0.099194	0.345096
	H31	H	0.786601	0.897272	0.667672
	H32	H	0.339302	0.212604	0.901393
	H33	H	0.663052	0.209991	0.106535
	H34	H	0.339886	0.773028	0.112336
	H35	H	0.662432	0.773657	0.901025
	H36	H	0.340706	0.888631	0.227341
	H37	H	0.664257	0.094164	0.221058
	H38	H	0.339464	0.097634	0.785947
	H39	H	0.663607	0.892455	0.788649
	H40	H	0.894950	0.217937	0.346333
	H41	H	0.106294	0.215733	0.665528
	H42	H	0.109284	0.771788	0.347202
	H43	H	0.895194	0.774680	0.665186
	H44	H	0.219678	0.333189	0.902461
	H45	H	0.222651	0.652152	0.111244
	H46	H	0.783234	0.332386	0.106620
	H47	H	0.778890	0.653416	0.903540
	H48	H	0.410808	0.107585	0.590845
	H49	H	0.598125	0.879682	0.599845
	H50	H	0.597088	0.112556	0.404994
	H51	H	0.406424	0.880483	0.419083
	H52	H	0.587711	0.397483	0.119625
	H53	H	0.589681	0.576918	0.893817
	H54	H	0.404836	0.583325	0.122903
	H55	H	0.407766	0.404131	0.892085
	H56	H	0.115433	0.589288	0.418679
	H57	H	0.882351	0.590101	0.598243
	H58	H	0.115447	0.403377	0.594002
	H59	H	0.891607	0.418201	0.424053
	H60	H	0.114385	0.408099	0.595461
	H61	H	0.885014	0.587659	0.591911
	H62	H	0.112481	0.578687	0.418107
	H63	H	0.880988	0.407513	0.403627
	H64	H	0.414323	0.577773	0.116611
	H65	H	0.581871	0.586567	0.893522
	H66	H	0.594374	0.398609	0.121090
	H67	H	0.414173	0.403672	0.892873
	H68	H	0.580631	0.104436	0.411511
	H69	H	0.589164	0.881099	0.600900
	H70	H	0.408233	0.109955	0.599399
	H71	H	0.412242	0.879236	0.408921
	H72	H	0.906122	0.609262	0.099802
	H73	H	0.088282	0.381477	0.094663
	H74	H	0.091218	0.606959	0.914820
	H75	H	0.910155	0.380393	0.914973
	H76	H	0.089999	0.909412	0.617178
	H77	H	0.082682	0.080856	0.396802
	H78	H	0.913252	0.094813	0.621754
	H79	H	0.907891	0.904636	0.390193
	H80	H	0.613583	0.085789	0.924081
	H81	H	0.389322	0.080789	0.086265
	H82	H	0.613196	0.908701	0.092922
	H83	H	0.387114	0.905898	0.916229
	H84	H	0.618780	0.901079	0.102046
	H85	H	0.385675	0.075763	0.102343
	H86	H	0.614893	0.075793	0.911084
	H87	H	0.386144	0.903675	0.916043
	H88	H	0.903586	0.085808	0.621407
	H89	H	0.088573	0.097796	0.389285
	H90	H	0.086775	0.898539	0.619649
	H91	H	0.915243	0.910913	0.393949
	H92	H	0.086792	0.605999	0.914665
	H93	H	0.088108	0.380712	0.096801
	H94	H	0.910343	0.606798	0.096861
	H95	H	0.907772	0.379557	0.914172
	H96	H	0.416861	0.107219	0.597544
	H97	H	0.593831	0.882027	0.592483
	H98	H	0.596053	0.106385	0.423136
	H99	H	0.417935	0.883499	0.418583
	H100	H	0.590424	0.403823	0.118725
	H101	H	0.594021	0.587965	0.889051
	H102	H	0.415768	0.589120	0.121427
	H103	H	0.410742	0.398339	0.890199
	H104	H	0.116760	0.583953	0.410051
	H105	H	0.884606	0.582984	0.597699
	H106	H	0.116141	0.404836	0.598831
	H107	H	0.883458	0.394220	0.425028
	H108	H	0.905111	0.607399	0.094949
	H109	H	0.086543	0.382589	0.096698
	H110	H	0.089058	0.606126	0.918375
	H111	H	0.909506	0.379702	0.912159
	H112	H	0.097400	0.901967	0.621683
	H113	H	0.101487	0.082688	0.389707
	H114	H	0.915643	0.082530	0.617188
	H115	H	0.917517	0.901451	0.391812
	H116	H	0.620219	0.090768	0.910569
	H117	H	0.382137	0.091566	0.097390
	H118	H	0.616690	0.896285	0.090410
	H119	H	0.386498	0.904244	0.918258
	C120	C	0.380304	0.002675	0.626984
	C121	C	0.623637	0.986857	0.627544
	C122	C	0.623545	0.002147	0.383832
	C123	C	0.380355	0.986066	0.383262
	C124	C	0.621803	0.370177	0.013567
	C125	C	0.620698	0.614146	0.997850
	C126	C	0.379059	0.614557	0.014660
	C127	C	0.379152	0.370817	0.997451
	C128	C	0.008378	0.616373	0.384669
	C129	C	0.991214	0.616560	0.626988
	C130	C	0.008279	0.374247	0.627113
	C131	C	0.991910	0.375132	0.385225
	C132	C	0.876508	0.502114	0.128248
	C133	C	0.120331	0.486484	0.127151
	C134	C	0.121237	0.501509	0.884214
	C135	C	0.876979	0.485570	0.883284
	C136	C	0.123571	0.872113	0.513960
	C137	C	0.122585	0.117270	0.497791
	C138	C	0.879108	0.119015	0.514281
	C139	C	0.881531	0.875137	0.497774
	C140	C	0.509831	0.115273	0.883713
	C141	C	0.492982	0.113230	0.125518
	C142	C	0.509863	0.870936	0.127721
	C143	C	0.493111	0.873004	0.885114
	C144	C	0.379772	0.882484	0.685435
	C145	C	0.624296	0.106267	0.686653
	C146	C	0.625590	0.881801	0.326665
	C147	C	0.379844	0.106069	0.324312
	C148	C	0.679065	0.371832	0.892163
	C149	C	0.678150	0.612994	0.118805
	C150	C	0.321017	0.613919	0.893321
	C151	C	0.320568	0.370311	0.118204
	C152	C	0.886663	0.674923	0.384587
	C153	C	0.114054	0.672654	0.627018
	C154	C	0.886940	0.316339	0.627508
	C155	C	0.113760	0.317153	0.383540
	C156	C	0.886034	0.374101	0.684040
	C157	C	0.113547	0.615144	0.684718
	C158	C	0.886219	0.617725	0.327143
	C159	C	0.113348	0.374618	0.326049
	C160	C	0.376491	0.674259	0.894533
	C161	C	0.623308	0.673029	0.117700
	C162	C	0.622344	0.313038	0.892670
	C163	C	0.377870	0.311963	0.117799
	C164	C	0.682131	0.881669	0.386254
	C165	C	0.679963	0.107822	0.626533
	C166	C	0.322241	0.882386	0.627311
	C167	C	0.322314	0.106813	0.383110
	C168	C	0.875131	0.382954	0.188376
	C169	C	0.123438	0.605769	0.186627
	C170	C	0.122853	0.382113	0.824681
	C171	C	0.874547	0.605561	0.824494
	C172	C	0.181542	0.872517	0.393087
	C173	C	0.181403	0.116699	0.618322
	C174	C	0.820746	0.119067	0.393564
	C175	C	0.823800	0.876423	0.618913
	C176	C	0.387761	0.173340	0.882489
	C177	C	0.614718	0.171223	0.125714
	C178	C	0.388463	0.812545	0.129926
	C179	C	0.614033	0.813520	0.883242
	C180	C	0.388700	0.870138	0.187431
	C181	C	0.615381	0.113522	0.182659
	C182	C	0.387966	0.116377	0.824926
	C183	C	0.614800	0.872553	0.827153
	C184	C	0.876884	0.178172	0.394167
	C185	C	0.124743	0.175963	0.617738
	C186	C	0.126402	0.812489	0.394435
	C187	C	0.878458	0.815722	0.617737
	C188	C	0.180346	0.381441	0.883371
	C189	C	0.181879	0.605053	0.129176
	C190	C	0.820322	0.381080	0.127474
	C191	C	0.817880	0.605643	0.883645
	C192	C	0.404736	0.086380	0.602987
	C193	C	0.600393	0.902523	0.604395
	C194	C	0.598453	0.086020	0.406606
	C195	C	0.404925	0.902719	0.408278
	C196	C	0.597875	0.393394	0.097943
	C197	C	0.595723	0.590601	0.913837
	C198	C	0.404139	0.590350	0.098300
	C199	C	0.403738	0.395037	0.913664
	C200	C	0.092920	0.591505	0.408605
	C201	C	0.906164	0.593598	0.603053
	C202	C	0.093287	0.398411	0.603096
	C203	C	0.907302	0.399478	0.410288
	C204	C	0.900183	0.585983	0.104147
	C205	C	0.094916	0.403225	0.102958
	C206	C	0.096106	0.584777	0.908750
	C207	C	0.902061	0.401805	0.906916
	C208	C	0.098636	0.896219	0.597881
	C209	C	0.098040	0.093938	0.413901
	C210	C	0.903778	0.094898	0.598225
	C211	C	0.906426	0.898799	0.413766
	C212	C	0.594380	0.091235	0.908076
	C213	C	0.408049	0.089602	0.101983
	C214	C	0.594304	0.895141	0.102612
	C215	C	0.408644	0.897627	0.909736
	Zn216	Zn	0.501535	-0.005763	0.756271
	Zn217	Zn	0.502633	-0.006564	0.254091
	Zn218	Zn	0.748816	0.493104	0.005656
	Zn219	Zn	0.250434	0.492676	0.006420
	Zn220	Zn	0.001056	0.744492	0.505387
	Zn221	Zn	0.000854	0.246824	0.505715
	Zn222	Zn	-0.000714	0.494797	0.754758
	Zn223	Zn	-0.001115	0.495421	0.256846
	Zn224	Zn	0.500757	0.743544	0.005818
	Zn225	Zn	0.500223	0.241731	0.005393
	Zn226	Zn	0.752583	-0.004195	0.505329
	Zn227	Zn	0.251001	-0.005432	0.505582
	N228	N	0.415101	0.958304	0.685354
	N229	N	0.590021	0.030015	0.687402
	N230	N	0.590087	0.957775	0.325131
	N231	N	0.415100	0.030057	0.324442
	N232	N	0.678688	0.406834	0.968285
	N233	N	0.676539	0.577006	0.043177
	N234	N	0.322394	0.577700	0.969078
	N235	N	0.321047	0.406141	0.042393
	N236	N	0.963713	0.674216	0.419453
	N237	N	0.037001	0.673848	0.592172
	N238	N	0.964076	0.316441	0.592734
	N239	N	0.037196	0.317411	0.419586
	N240	N	0.962640	0.409531	0.684002
	N241	N	0.036073	0.581334	0.685111
	N242	N	0.962831	0.582025	0.326922
	N243	N	0.036414	0.409777	0.326987
	N244	N	0.411450	0.675074	0.970968
	N245	N	0.588223	0.673777	0.041303
	N246	N	0.587630	0.311800	0.969210
	N247	N	0.413386	0.312228	0.041767
	N248	N	0.681071	0.957673	0.420883
	N249	N	0.679666	0.032369	0.590519
	N250	N	0.322545	0.958110	0.591564
	N251	N	0.322287	0.031139	0.419036
	N252	N	0.909469	0.459210	0.188869
	N253	N	0.085693	0.531168	0.185399
	N254	N	0.086714	0.457826	0.824957
	N255	N	0.910491	0.529871	0.824027
	N256	N	0.180014	0.909051	0.468638
	N257	N	0.179944	0.080578	0.542748
	N258	N	0.822083	0.082870	0.469128
	N259	N	0.825875	0.912966	0.543306
	N260	N	0.464533	0.173089	0.918130
	N261	N	0.537589	0.171356	0.091116
	N262	N	0.464732	0.812952	0.093419
	N263	N	0.537241	0.813678	0.918725
	N264	N	0.465182	0.905801	0.186133
	N265	N	0.538779	0.078015	0.182502
	N266	N	0.464728	0.081020	0.825549
	N267	N	0.538718	0.909046	0.828343
	N268	N	0.912388	0.178306	0.470452
	N269	N	0.088879	0.176514	0.541798
	N270	N	0.090975	0.812303	0.470652
	N271	N	0.913646	0.814751	0.541516
	N272	N	0.179376	0.456604	0.919740
	N273	N	0.179965	0.529835	0.092749
	N274	N	0.820980	0.456330	0.090873
	N275	N	0.819219	0.530085	0.919399
	O276	O	0.120932	-0.003483	0.093332
	H277	H	0.109353	-0.009637	0.101246
	H278	H	0.135308	-0.000903	0.099715
	O279	O	0.433982	0.492145	0.560161
	H280	H	0.447428	0.490942	0.572542
	H281	H	0.427809	0.499738	0.566847
	O282	O	0.935584	0.016746	0.870459
	H283	H	0.941364	0.026839	0.860255
	H284	H	0.927578	0.018163	0.871445
	O285	O	0.587663	0.528268	0.461022
	H286	H	0.589284	0.510344	0.456169
	H287	H	0.588817	0.526724	0.464149
	O288	O	1.044259	1.183330	1.070071
	H289	H	1.052591	1.181984	1.069637
	H290	H	1.075089	1.185481	1.068232
	O291	O	0.057900	1.169775	0.022937
	H292	H	0.053526	1.186595	0.022293
	H293	H	0.079013	1.170348	0.006373
	O294	O	0.358835	0.342207	0.539945
	H295	H	0.346099	0.332087	0.537279
	H296	H	0.362983	0.354110	0.562065
	O297	O	0.536244	0.506948	0.634590
	H298	H	0.532156	0.500270	0.616409
	H299	H	0.555587	0.514982	0.638108
	O300	O	0.558400	0.356928	0.525923
	H301	H	0.561398	0.357013	0.525511
	H302	H	0.562208	0.363363	0.528004
	O303	O	0.474585	0.449538	0.486187
	H304	H	0.472074	0.450099	0.478316
	H305	H	0.477310	0.456536	0.485801
	O306	O	0.496619	0.615333	0.356560
	H307	H	0.505870	0.621798	0.356021
	H308	H	0.490838	0.611127	0.348142
	O309	O	0.389721	0.516623	0.388030
	H310	H	0.378135	0.528809	0.383015
	H311	H	0.368114	0.522650	0.388753
	O312	O	-0.179753	-0.122627	0.163176
	H313	H	-0.171715	-0.098282	0.167609
	H314	H	-0.187020	-0.130177	0.145465
	O315	O	0.560843	0.498715	0.483319
	H316	H	0.559387	0.503827	0.469759
	H317	H	0.558002	0.495077	0.474586
	O318	O	-0.079314	1.030284	1.129730
	H319	H	-0.080621	1.025081	1.130547
	H320	H	-0.067825	1.019231	1.131112
	O321	O	0.565414	0.600499	0.470576
	H322	H	0.559070	0.596927	0.460302
	H323	H	0.559467	0.595588	0.467204
	O324	O	-0.119836	1.068919	0.038129
	H325	H	-0.117424	1.079170	0.043586
	H326	H	-0.118963	1.072438	0.054720
	O327	O	0.503677	0.548721	0.502880
	H328	H	0.508760	0.546314	0.496740
	H329	H	0.501425	0.553927	0.508867
	O330	O	0.138683	0.037142	0.940377
	H331	H	0.143450	0.037296	0.937281
	H332	H	0.119036	0.048372	0.943033
	O333	O	-0.180339	-0.120579	0.981276
	H334	H	-0.181824	-0.124706	0.974259
	H335	H	-0.175868	-0.124972	0.981955
	O336	O	0.364079	0.425791	0.567157
	H337	H	0.356208	0.443485	0.558420
	H338	H	0.367517	0.419757	0.574446
	O339	O	0.885067	0.052771	0.114099
	H340	H	0.892894	0.051761	0.114189
	H341	H	0.900034	0.057032	0.105891
	O342	O	0.162192	0.151304	0.198401
	H343	H	0.169358	0.147509	0.197147
	H344	H	0.159159	0.135413	0.201131
	O345	O	1.070693	0.010275	0.878100
	H346	H	1.068317	0.002214	0.888393
	H347	H	1.081420	0.023213	0.878777
	O348	O	1.019050	0.979603	0.051784
	H349	H	1.020969	0.975296	0.063083
	H350	H	1.015375	0.977047	0.035815
	O351	O	0.396459	0.368766	0.637265
	H352	H	0.391611	0.364812	0.628654
	H353	H	0.414342	0.356754	0.652725
	O354	O	0.924230	-0.131834	0.934212
	H355	H	0.902610	-0.120877	0.941773
	H356	H	0.928746	-0.136546	0.942703
	O357	O	0.605880	0.524445	0.526974
	H358	H	0.612889	0.528801	0.530296
	H359	H	0.607755	0.509983	0.526350
	O360	O	0.458977	0.597114	0.474225
	H361	H	0.468056	0.591061	0.479575
	H362	H	0.458280	0.607436	0.477047
	O363	O	-0.018590	1.061655	0.949042
	H364	H	-0.014854	1.058662	0.942247
	H365	H	-0.011970	1.065567	0.937954
	O366	O	0.517819	0.567360	0.597108
	H367	H	0.533002	0.570491	0.589713
	H368	H	0.533061	0.563487	0.607901
	O369	O	0.178654	0.838396	0.043413
	H370	H	0.172718	0.843542	0.049943
	H371	H	0.197482	0.818551	0.036851
	O372	O	0.548340	0.454657	0.439128
	H373	H	0.554987	0.448453	0.454251
	H374	H	0.546511	0.469406	0.441522
	O375	O	0.566401	0.452556	0.425008
	H376	H	0.555114	0.453812	0.424928
	H377	H	0.554254	0.460078	0.427196
	O378	O	0.952356	1.021838	-0.172437
	H379	H	0.952153	1.032204	-0.168499
	H380	H	0.941501	1.015574	-0.175138
	O381	O	0.871366	-0.059586	-0.124655
	H382	H	0.872666	-0.060480	-0.112437
	H383	H	0.868924	-0.045458	-0.129474
	O384	O	1.075017	0.790880	-0.194796
	H385	H	1.086991	0.780819	-0.198424
	H386	H	1.070730	0.778939	-0.192011
	O387	O	0.121268	-0.005450	0.139518
	H388	H	0.125326	-0.015444	0.141578
	H389	H	0.123530	-0.004518	0.137879
	O390	O	-0.157369	1.001290	-0.005265
	H391	H	-0.153197	0.994671	-0.007284
	H392	H	-0.156612	1.002032	-0.012854
	O393	O	1.089374	1.072377	0.996235
	H394	H	1.075503	1.075336	1.006236
	H395	H	1.087984	1.081290	1.002478
	O396	O	0.448312	0.438066	0.511749
	H397	H	0.438554	0.434598	0.511921
	H398	H	0.454097	0.431193	0.523499
	O399	O	0.202449	0.898209	0.829741
	H400	H	0.191572	0.893833	0.840469
	H401	H	0.210319	0.916788	0.820263
	O402	O	0.582510	0.559533	0.498354
	H403	H	0.575965	0.571333	0.495263
	H404	H	0.596390	0.552903	0.505714
	O405	O	1.013908	1.039400	0.104454
	H406	H	1.016252	1.044007	0.101684
	H407	H	1.005382	1.027214	0.092301
	O408	O	1.024303	0.808213	0.052620
	H409	H	1.024199	0.808836	0.053463
	H410	H	1.016617	0.802320	0.058161
	O411	O	0.964990	-0.161900	1.107000
	H412	H	0.961911	-0.176000	1.105649
	H413	H	0.939429	-0.170258	1.118923
	O414	O	0.551635	0.504114	0.435380
	H415	H	0.559997	0.498035	0.434325
	H416	H	0.540673	0.497525	0.435102
	O417	O	0.429796	0.449266	0.528746
	H418	H	0.439601	0.457243	0.548235
	H419	H	0.429481	0.446067	0.513739
