data_Molecule from HDF5

_cell_length_a		16.315451
_cell_length_b		16.278877
_cell_length_c		16.297892
_cell_angle_alpha	89.905522
_cell_angle_beta	90.110747
_cell_angle_gamma	90.153938
_symmetry_space_group_name_H-M	'P 1'
_symmetry_Int_Tables_number		1

loop_
	_symmetry_equiv_pos_as_xyz
	x,y,z

loop_
	_atom_site_label
	_atom_site_type_symbol
	_atom_site_fract_x
	_atom_site_fract_y
	_atom_site_fract_z
	H0	H	0.402868	0.836482	0.718171
	H1	H	0.601093	0.163697	0.720035
	H2	H	0.598505	0.837285	0.290833
	H3	H	0.402114	0.163927	0.287891
	H4	H	0.717009	0.401228	0.840881
	H5	H	0.717865	0.599227	0.167258
	H6	H	0.287626	0.597943	0.841025
	H7	H	0.288107	0.401831	0.168582
	H8	H	0.838319	0.715453	0.405097
	H9	H	0.165517	0.716520	0.602823
	H10	H	0.838613	0.286146	0.603704
	H11	H	0.165538	0.287883	0.406955
	H12	H	0.838659	0.403068	0.718566
	H13	H	0.165680	0.599703	0.719103
	H14	H	0.839626	0.600727	0.288011
	H15	H	0.165764	0.404074	0.290867
	H16	H	0.404892	0.713162	0.839884
	H17	H	0.601365	0.714307	0.168014
	H18	H	0.598578	0.287777	0.839984
	H19	H	0.403308	0.284206	0.167420
	H20	H	0.715688	0.837654	0.405606
	H21	H	0.717247	0.163652	0.604691
	H22	H	0.286329	0.837496	0.602067
	H23	H	0.287938	0.165501	0.405971
	H24	H	0.904654	0.337890	0.218492
	H25	H	0.101810	0.665401	0.218776
	H26	H	0.100453	0.337682	0.790277
	H27	H	0.903735	0.664883	0.789359
	H28	H	0.214101	0.904768	0.340104
	H29	H	0.217173	0.100937	0.667765
	H30	H	0.786581	0.100688	0.340372
	H31	H	0.785432	0.901151	0.667373
	H32	H	0.339002	0.215073	0.904740
	H33	H	0.665502	0.214997	0.103369
	H34	H	0.338755	0.785272	0.101618
	H35	H	0.665672	0.786808	0.907032
	H36	H	0.337087	0.902092	0.216724
	H37	H	0.664299	0.099977	0.219863
	H38	H	0.338725	0.097833	0.789030
	H39	H	0.664983	0.900795	0.789092
	H40	H	0.903579	0.216566	0.341090
	H41	H	0.099732	0.215028	0.668418
	H42	H	0.098581	0.787742	0.340434
	H43	H	0.902310	0.785726	0.667751
	H44	H	0.214756	0.336613	0.907551
	H45	H	0.218992	0.663924	0.103967
	H46	H	0.788644	0.337142	0.102602
	H47	H	0.787125	0.664464	0.904729
	H48	H	0.404605	0.122651	0.612197
	H49	H	0.595064	0.886959	0.588449
	H50	H	0.601753	0.120380	0.411292
	H51	H	0.404987	0.881731	0.405799
	H52	H	0.588361	0.411766	0.116247
	H53	H	0.592783	0.591456	0.889706
	H54	H	0.411743	0.603375	0.122585
	H55	H	0.411033	0.411679	0.890035
	H56	H	0.116860	0.593671	0.414226
	H57	H	0.884346	0.589756	0.607480
	H58	H	0.120725	0.396653	0.596494
	H59	H	0.883902	0.401005	0.410426
	H60	H	0.114121	0.414634	0.589824
	H61	H	0.883610	0.604903	0.596170
	H62	H	0.118438	0.594000	0.409278
	H63	H	0.889007	0.411106	0.418551
	H64	H	0.399561	0.589463	0.122314
	H65	H	0.594421	0.596483	0.887361
	H66	H	0.595558	0.399250	0.122974
	H67	H	0.409811	0.402211	0.887568
	H68	H	0.587319	0.117217	0.404530
	H69	H	0.600045	0.880425	0.601398
	H70	H	0.425207	0.111702	0.595087
	H71	H	0.410846	0.886339	0.411069
	H72	H	0.906125	0.619561	0.099485
	H73	H	0.089968	0.385114	0.100901
	H74	H	0.091258	0.617028	0.909088
	H75	H	0.920910	0.387781	0.911140
	H76	H	0.090606	0.912571	0.617958
	H77	H	0.098365	0.089310	0.388631
	H78	H	0.912054	0.089472	0.617349
	H79	H	0.912180	0.907673	0.389163
	H80	H	0.619557	0.095923	0.909736
	H81	H	0.386549	0.092442	0.093896
	H82	H	0.616501	0.907758	0.095376
	H83	H	0.387253	0.903731	0.918638
	H84	H	0.617947	0.910398	0.100430
	H85	H	0.385242	0.091275	0.098177
	H86	H	0.617167	0.094781	0.914254
	H87	H	0.386801	0.914126	0.909167
	H88	H	0.910818	0.099277	0.621437
	H89	H	0.088081	0.096530	0.389699
	H90	H	0.092811	0.902758	0.622065
	H91	H	0.905053	0.904471	0.386339
	H92	H	0.095714	0.615948	0.917252
	H93	H	0.095984	0.385642	0.093952
	H94	H	0.912917	0.616859	0.098662
	H95	H	0.903061	0.386670	0.921074
	H96	H	0.398616	0.116519	0.584792
	H97	H	0.585669	0.885522	0.599863
	H98	H	0.590051	0.113527	0.419922
	H99	H	0.402920	0.884856	0.413853
	H100	H	0.603084	0.412751	0.121359
	H101	H	0.597694	0.592590	0.887912
	H102	H	0.417010	0.586721	0.116996
	H103	H	0.401980	0.408062	0.886594
	H104	H	0.118684	0.597701	0.412233
	H105	H	0.889675	0.588292	0.589563
	H106	H	0.119633	0.412355	0.609048
	H107	H	0.885841	0.413499	0.405028
	H108	H	0.908075	0.617222	0.092598
	H109	H	0.099230	0.383187	0.102422
	H110	H	0.100017	0.619626	0.909377
	H111	H	0.903611	0.380112	0.901413
	H112	H	0.100722	0.910276	0.621418
	H113	H	0.098349	0.101242	0.385510
	H114	H	0.902928	0.092620	0.621892
	H115	H	0.905117	0.912611	0.388884
	H116	H	0.617842	0.090994	0.910323
	H117	H	0.385069	0.095082	0.096289
	H118	H	0.619100	0.903500	0.099717
	H119	H	0.383258	0.901571	0.905790
	C120	C	0.380479	0.009001	0.625635
	C121	C	0.622834	0.992178	0.625982
	C122	C	0.621891	0.009083	0.383121
	C123	C	0.378765	0.992682	0.382060
	C124	C	0.624110	0.378886	0.012244
	C125	C	0.624117	0.622007	0.995909
	C126	C	0.380880	0.621649	0.012430
	C127	C	0.379839	0.378570	0.996206
	C128	C	0.010223	0.623442	0.382832
	C129	C	0.994136	0.622898	0.625908
	C130	C	0.010207	0.379781	0.626375
	C131	C	0.993788	0.380199	0.383113
	C132	C	0.881212	0.509679	0.125526
	C133	C	0.124072	0.492857	0.126820
	C134	C	0.123295	0.509219	0.883702
	C135	C	0.880484	0.492965	0.882566
	C136	C	0.122568	0.880372	0.512332
	C137	C	0.123354	0.123357	0.496102
	C138	C	0.879993	0.123174	0.512210
	C139	C	0.878878	0.879409	0.495986
	C140	C	0.510154	0.121476	0.882882
	C141	C	0.493561	0.121980	0.125692
	C142	C	0.509701	0.878650	0.126395
	C143	C	0.493861	0.878534	0.883033
	C144	C	0.382624	0.885475	0.680394
	C145	C	0.621029	0.114935	0.681716
	C146	C	0.619289	0.886307	0.328213
	C147	C	0.381974	0.115765	0.326829
	C148	C	0.679195	0.380963	0.889642
	C149	C	0.679616	0.619508	0.118650
	C150	C	0.325628	0.618932	0.889598
	C151	C	0.325657	0.381288	0.119451
	C152	C	0.887131	0.677883	0.384807
	C153	C	0.116893	0.678358	0.623272
	C154	C	0.887190	0.324370	0.623644
	C155	C	0.116988	0.325772	0.386320
	C156	C	0.887386	0.382241	0.681119
	C157	C	0.117034	0.620298	0.680976
	C158	C	0.887833	0.620845	0.326656
	C159	C	0.117129	0.383785	0.328912
	C160	C	0.384017	0.676145	0.889079
	C161	C	0.621628	0.676675	0.119067
	C162	C	0.620328	0.324542	0.889094
	C163	C	0.383038	0.323132	0.119065
	C164	C	0.677511	0.886480	0.385095
	C165	C	0.678683	0.115091	0.624384
	C166	C	0.324932	0.885760	0.622499
	C167	C	0.325187	0.116366	0.385200
	C168	C	0.883951	0.386772	0.180765
	C169	C	0.122251	0.616292	0.181251
	C170	C	0.120596	0.386276	0.828580
	C171	C	0.883245	0.616009	0.827414
	C172	C	0.176817	0.883563	0.389054
	C173	C	0.179054	0.121145	0.619010
	C174	C	0.824593	0.120953	0.389371
	C175	C	0.823825	0.881357	0.618857
	C176	C	0.387353	0.176585	0.884781
	C177	C	0.616221	0.177628	0.123932
	C178	C	0.387106	0.823379	0.122734
	C179	C	0.616850	0.824129	0.886230
	C180	C	0.386485	0.881371	0.179984
	C181	C	0.615906	0.119971	0.181362
	C182	C	0.387461	0.118897	0.827074
	C183	C	0.616450	0.880572	0.827633
	C184	C	0.882722	0.178388	0.389582
	C185	C	0.120491	0.177600	0.619476
	C186	C	0.119335	0.825558	0.389191
	C187	C	0.881991	0.823969	0.618950
	C188	C	0.177203	0.385694	0.887076
	C189	C	0.180111	0.615716	0.123997
	C190	C	0.826290	0.386437	0.123204
	C191	C	0.825296	0.615917	0.884496
	C192	C	0.402919	0.094751	0.603779
	C193	C	0.600117	0.906546	0.603314
	C194	C	0.599793	0.094953	0.405380
	C195	C	0.400116	0.906624	0.403755
	C196	C	0.602167	0.401194	0.098088
	C197	C	0.601401	0.599947	0.910370
	C198	C	0.403094	0.599692	0.098451
	C199	C	0.401356	0.400723	0.910324
	C200	C	0.095934	0.601720	0.405419
	C201	C	0.908138	0.600876	0.604047
	C202	C	0.096017	0.401520	0.604718
	C203	C	0.908302	0.402080	0.404966
	C204	C	0.902711	0.595752	0.103336
	C205	C	0.101621	0.406992	0.105351
	C206	C	0.102017	0.595320	0.905466
	C207	C	0.902480	0.406916	0.904862
	C208	C	0.100932	0.901972	0.598149
	C209	C	0.101594	0.101900	0.410177
	C210	C	0.902165	0.100446	0.598086
	C211	C	0.900764	0.901660	0.410170
	C212	C	0.595951	0.100073	0.905015
	C213	C	0.407906	0.099636	0.102918
	C214	C	0.595645	0.900817	0.105001
	C215	C	0.408003	0.899950	0.904861
	Zn216	Zn	0.501991	-0.000063	0.754764
	Zn217	Zn	0.501006	0.000601	0.254311
	Zn218	Zn	0.752689	0.500717	0.003609
	Zn219	Zn	0.251635	0.500671	0.004728
	Zn220	Zn	0.001513	0.751357	0.504351
	Zn221	Zn	0.001746	0.251519	0.504818
	Zn222	Zn	0.002292	0.501274	0.754874
	Zn223	Zn	0.002733	0.501981	0.254738
	Zn224	Zn	0.502454	0.750161	0.004605
	Zn225	Zn	0.502159	0.250625	0.004028
	Zn226	Zn	0.751034	0.001230	0.504057
	Zn227	Zn	0.251671	0.001874	0.504478
	N228	N	0.416642	0.962931	0.682224
	N229	N	0.587288	0.037459	0.682916
	N230	N	0.585251	0.963440	0.327094
	N231	N	0.414433	0.037817	0.324732
	N232	N	0.681546	0.413974	0.967175
	N233	N	0.681254	0.586194	0.041168
	N234	N	0.323565	0.586004	0.967186
	N235	N	0.323571	0.415034	0.041957
	N236	N	0.964147	0.679292	0.419318
	N237	N	0.039577	0.679913	0.589799
	N238	N	0.964718	0.322479	0.590589
	N239	N	0.039522	0.323496	0.419372
	N240	N	0.964791	0.415831	0.683026
	N241	N	0.039525	0.586729	0.682825
	N242	N	0.965383	0.588054	0.325048
	N243	N	0.039626	0.416833	0.326741
	N244	N	0.417603	0.677994	0.966714
	N245	N	0.587718	0.678388	0.041716
	N246	N	0.586733	0.323181	0.966550
	N247	N	0.415847	0.321205	0.041470
	N248	N	0.679029	0.964009	0.418693
	N249	N	0.680132	0.037720	0.590460
	N250	N	0.323401	0.963534	0.589270
	N251	N	0.323167	0.038828	0.418835
	N252	N	0.917330	0.464444	0.182465
	N253	N	0.088230	0.539017	0.183121
	N254	N	0.087614	0.464030	0.826526
	N255	N	0.916791	0.538586	0.825949
	N256	N	0.178948	0.916905	0.466532
	N257	N	0.180963	0.087987	0.541401
	N258	N	0.822640	0.087348	0.466999
	N259	N	0.821747	0.914912	0.541492
	N260	N	0.464747	0.178691	0.918440
	N261	N	0.539093	0.178647	0.089531
	N262	N	0.464598	0.821639	0.090013
	N263	N	0.539616	0.822804	0.920142
	N264	N	0.463839	0.915087	0.182304
	N265	N	0.538483	0.086424	0.182832
	N266	N	0.464777	0.085432	0.825896
	N267	N	0.538875	0.913497	0.825379
	N268	N	0.916153	0.179859	0.467000
	N269	N	0.086341	0.178979	0.542118
	N270	N	0.086256	0.823466	0.466825
	N271	N	0.915453	0.822626	0.541482
	N272	N	0.179268	0.463287	0.920306
	N273	N	0.181445	0.537937	0.090887
	N274	N	0.824547	0.463874	0.089403
	N275	N	0.823612	0.538336	0.918016
	O276	O	0.571777	0.478411	-0.481719
	H277	H	0.580162	0.487088	-0.477853
	H278	H	0.580135	0.480836	-0.474082
	O279	O	-0.012121	-0.009948	-0.016745
	H280	H	0.002238	-0.013549	-0.015138
	H281	H	-0.015952	-0.018526	-0.024362
	O282	O	0.002974	-0.021872	0.963632
	H283	H	0.002762	-0.014579	0.967305
	H284	H	0.008841	-0.026189	0.964922
	O285	O	0.536625	0.470921	0.467262
	H286	H	0.532357	0.467465	0.465574
	H287	H	0.538129	0.466098	0.460246
	O288	O	0.521153	0.535722	0.496751
	H289	H	0.524405	0.552975	0.499164
	H290	H	0.521793	0.538249	0.491675
	O291	O	0.591816	0.473049	0.509776
	H292	H	0.596553	0.470152	0.502980
	H293	H	0.592582	0.474140	0.498822
	O294	O	0.016227	-0.027545	-0.063421
	H295	H	0.015068	-0.018197	-0.068764
	H296	H	0.012694	-0.029517	-0.057729
	O297	O	0.511878	0.502042	0.502991
	H298	H	0.516122	0.503864	0.513130
	H299	H	0.517385	0.508006	0.504285
	O300	O	0.014084	1.007690	1.038802
	H301	H	0.013458	1.004393	1.038889
	H302	H	0.019605	1.009093	1.044579
	O303	O	0.515433	0.471663	0.450254
	H304	H	0.516205	0.472642	0.451289
	H305	H	0.512611	0.470692	0.451754
	O306	O	0.025830	0.007879	0.985927
	H307	H	0.029918	-0.002935	0.984298
	H308	H	0.022250	0.010208	0.990393
	O309	O	1.006264	0.967848	1.008426
	H310	H	1.003361	0.974808	0.998607
	H311	H	1.000812	0.970733	0.999653
	O312	O	0.527003	0.510604	0.446216
	H313	H	0.522290	0.508514	0.442729
	H314	H	0.516545	0.515031	0.442989
	O315	O	0.504018	0.574150	0.526225
	H316	H	0.496907	0.563837	0.534865
	H317	H	0.507523	0.562116	0.523960
	O318	O	-0.003349	1.001792	0.002244
	H319	H	-0.013269	0.994844	-0.009402
	H320	H	0.001343	1.007307	0.014760
	O321	O	1.053865	1.058236	-0.051168
	H322	H	1.060069	1.066394	-0.044736
	H323	H	1.052008	1.056731	-0.049599
