data_Molecule from HDF5

_cell_length_a		16.262597
_cell_length_b		16.299652
_cell_length_c		16.277607
_cell_angle_alpha	90.344723
_cell_angle_beta	89.765912
_cell_angle_gamma	90.055694
_symmetry_space_group_name_H-M	'P 1'
_symmetry_Int_Tables_number		1

loop_
	_symmetry_equiv_pos_as_xyz
	x,y,z

loop_
	_atom_site_label
	_atom_site_type_symbol
	_atom_site_fract_x
	_atom_site_fract_y
	_atom_site_fract_z
	H0	H	0.397744	0.850729	0.716462
	H1	H	0.600389	0.175941	0.718767
	H2	H	0.600124	0.850709	0.283619
	H3	H	0.402419	0.176756	0.288060
	H4	H	0.716213	0.412394	0.838101
	H5	H	0.714499	0.613730	0.164753
	H6	H	0.285169	0.610796	0.837736
	H7	H	0.283889	0.415247	0.164573
	H8	H	0.837023	0.728176	0.401843
	H9	H	0.163783	0.730674	0.601194
	H10	H	0.837653	0.297078	0.600736
	H11	H	0.163804	0.298692	0.399107
	H12	H	0.837282	0.412661	0.716365
	H13	H	0.163845	0.613716	0.715764
	H14	H	0.836998	0.612071	0.287114
	H15	H	0.163192	0.413676	0.282888
	H16	H	0.398409	0.728753	0.838845
	H17	H	0.600265	0.730820	0.163947
	H18	H	0.601613	0.294752	0.838983
	H19	H	0.400202	0.299520	0.165414
	H20	H	0.716019	0.850601	0.399460
	H21	H	0.715445	0.177107	0.600775
	H22	H	0.282624	0.851271	0.599866
	H23	H	0.288087	0.177356	0.404229
	H24	H	0.899335	0.350117	0.216405
	H25	H	0.097967	0.676560	0.215079
	H26	H	0.101683	0.350886	0.781946
	H27	H	0.898659	0.676414	0.785751
	H28	H	0.214691	0.915545	0.336821
	H29	H	0.215155	0.115323	0.663703
	H30	H	0.785462	0.112828	0.336687
	H31	H	0.784291	0.914993	0.663348
	H32	H	0.336265	0.226365	0.904792
	H33	H	0.662444	0.229745	0.102322
	H34	H	0.336117	0.799639	0.099851
	H35	H	0.663474	0.796247	0.899357
	H36	H	0.336474	0.914996	0.216790
	H37	H	0.663695	0.112729	0.215363
	H38	H	0.335969	0.112188	0.787499
	H39	H	0.662317	0.911005	0.782021
	H40	H	0.901753	0.228211	0.336360
	H41	H	0.100074	0.231633	0.662982
	H42	H	0.100955	0.797262	0.337716
	H43	H	0.898257	0.798338	0.663133
	H44	H	0.215393	0.349576	0.900008
	H45	H	0.215286	0.675926	0.101236
	H46	H	0.784908	0.349255	0.099147
	H47	H	0.783456	0.675711	0.901539
	H48	H	0.422699	0.123511	0.586994
	H49	H	0.601809	0.896350	0.588391
	H50	H	0.595838	0.129793	0.411379
	H51	H	0.410702	0.896768	0.404642
	H52	H	0.585530	0.419803	0.116897
	H53	H	0.597702	0.605430	0.882885
	H54	H	0.401629	0.608541	0.119607
	H55	H	0.399449	0.412375	0.880378
	H56	H	0.118461	0.609851	0.406281
	H57	H	0.882987	0.606564	0.595531
	H58	H	0.120838	0.416258	0.596674
	H59	H	0.883745	0.418754	0.408752
	H60	H	0.114886	0.420457	0.583361
	H61	H	0.885366	0.607442	0.591198
	H62	H	0.116043	0.606205	0.411128
	H63	H	0.884130	0.421300	0.408915
	H64	H	0.407463	0.600625	0.115780
	H65	H	0.590172	0.596511	0.888420
	H66	H	0.596987	0.416876	0.120680
	H67	H	0.406810	0.429029	0.887576
	H68	H	0.594649	0.131300	0.403964
	H69	H	0.588316	0.896100	0.601235
	H70	H	0.393926	0.131097	0.585638
	H71	H	0.408179	0.897891	0.412183
	H72	H	0.913019	0.625793	0.090502
	H73	H	0.091782	0.395884	0.094509
	H74	H	0.094616	0.628327	0.913326
	H75	H	0.904857	0.396706	0.908001
	H76	H	0.094298	0.910436	0.621029
	H77	H	0.098005	0.105673	0.382499
	H78	H	0.906157	0.104914	0.615587
	H79	H	0.911832	0.916275	0.383517
	H80	H	0.615651	0.096293	0.902467
	H81	H	0.379956	0.111507	0.098540
	H82	H	0.616379	0.920958	0.092477
	H83	H	0.382290	0.916778	0.907970
	H84	H	0.616794	0.920801	0.092848
	H85	H	0.384945	0.106235	0.089216
	H86	H	0.619372	0.113125	0.907418
	H87	H	0.385070	0.919929	0.911836
	H88	H	0.910608	0.104049	0.614355
	H89	H	0.092176	0.103688	0.384520
	H90	H	0.101078	0.932536	0.616590
	H91	H	0.904416	0.919768	0.382958
	H92	H	0.093760	0.630093	0.906589
	H93	H	0.089309	0.398345	0.090462
	H94	H	0.899007	0.630318	0.090764
	H95	H	0.910409	0.396888	0.904572
	H96	H	0.408762	0.134099	0.610964
	H97	H	0.585612	0.902441	0.583676
	H98	H	0.589625	0.128492	0.408756
	H99	H	0.402195	0.895313	0.406073
	H100	H	0.593873	0.426775	0.115789
	H101	H	0.585954	0.608233	0.886002
	H102	H	0.411445	0.609839	0.117415
	H103	H	0.417721	0.413109	0.886391
	H104	H	0.116227	0.603013	0.405089
	H105	H	0.885726	0.603338	0.593224
	H106	H	0.114297	0.430126	0.595135
	H107	H	0.883802	0.420651	0.407298
	H108	H	0.907912	0.630957	0.103474
	H109	H	0.094460	0.396796	0.090207
	H110	H	0.088177	0.626448	0.910236
	H111	H	0.910026	0.398770	0.911040
	H112	H	0.079021	0.926068	0.611790
	H113	H	0.093194	0.110191	0.383264
	H114	H	0.909103	0.108891	0.615967
	H115	H	0.910205	0.924104	0.385914
	H116	H	0.611860	0.101663	0.919239
	H117	H	0.383505	0.100413	0.099196
	H118	H	0.616602	0.920986	0.092644
	H119	H	0.384739	0.922257	0.906679
	C120	C	0.378272	0.021944	0.622696
	C121	C	0.621910	1.005589	0.621987
	C122	C	0.622472	0.022086	0.378550
	C123	C	0.379295	1.005017	0.379877
	C124	C	0.621892	0.390816	0.010020
	C125	C	0.621281	0.634434	0.993136
	C126	C	0.378350	0.634390	0.009600
	C127	C	0.378593	0.390850	0.992998
	C128	C	0.008846	0.634898	0.379331
	C129	C	0.992564	0.635641	0.622608
	C130	C	0.008968	0.391957	0.621519
	C131	C	0.991869	0.391810	0.378809
	C132	C	0.877606	0.521389	0.123151
	C133	C	0.120989	0.504584	0.121781
	C134	C	0.122142	0.521002	0.878978
	C135	C	0.878617	0.505022	0.878903
	C136	C	0.121356	0.893031	0.508908
	C137	C	0.122942	0.136275	0.491539
	C138	C	0.879538	0.134922	0.507998
	C139	C	0.878761	0.891532	0.491752
	C140	C	0.507944	0.133127	0.880806
	C141	C	0.491128	0.134965	0.124023
	C142	C	0.508512	0.892239	0.122088
	C143	C	0.491574	0.890203	0.878816
	C144	C	0.378646	0.899424	0.678163
	C145	C	0.620320	0.127588	0.679553
	C146	C	0.620279	0.899250	0.322214
	C147	C	0.382354	0.128115	0.325947
	C148	C	0.678195	0.391723	0.887008
	C149	C	0.677013	0.633693	0.115718
	C150	C	0.323124	0.631341	0.886502
	C151	C	0.322259	0.394435	0.115952
	C152	C	0.885985	0.690466	0.381501
	C153	C	0.115106	0.692207	0.621055
	C154	C	0.886327	0.335389	0.620642
	C155	C	0.114911	0.336321	0.379312
	C156	C	0.886214	0.392799	0.678227
	C157	C	0.115099	0.634073	0.678269
	C158	C	0.885917	0.632601	0.324452
	C159	C	0.114621	0.393585	0.321669
	C160	C	0.379573	0.689884	0.887113
	C161	C	0.619919	0.691725	0.115362
	C162	C	0.621384	0.333316	0.887548
	C163	C	0.380125	0.337087	0.116450
	C164	C	0.678026	0.899225	0.379440
	C165	C	0.677450	0.128192	0.620709
	C166	C	0.321287	0.899686	0.620334
	C167	C	0.325286	0.128344	0.383348
	C168	C	0.878947	0.398716	0.178502
	C169	C	0.118609	0.627484	0.177704
	C170	C	0.120983	0.399128	0.821211
	C171	C	0.879433	0.627287	0.823579
	C172	C	0.177425	0.894544	0.385857
	C173	C	0.177662	0.135108	0.614704
	C174	C	0.824016	0.132701	0.385220
	C175	C	0.821963	0.894146	0.614423
	C176	C	0.385141	0.188819	0.883650
	C177	C	0.613797	0.191156	0.122193
	C178	C	0.385298	0.836917	0.120589
	C179	C	0.614435	0.834250	0.879846
	C180	C	0.385218	0.894527	0.178265
	C181	C	0.614305	0.132980	0.178498
	C182	C	0.384930	0.131910	0.825498
	C183	C	0.613895	0.891136	0.821220
	C184	C	0.881747	0.190316	0.385175
	C185	C	0.120227	0.192601	0.614446
	C186	C	0.120390	0.836244	0.386220
	C187	C	0.879111	0.836321	0.614497
	C188	C	0.177924	0.398533	0.879725
	C189	C	0.177159	0.627253	0.120975
	C190	C	0.821982	0.398487	0.120154
	C191	C	0.821754	0.627103	0.881178
	C192	C	0.401584	0.107408	0.600989
	C193	C	0.598835	0.920307	0.598172
	C194	C	0.599942	0.107807	0.401550
	C195	C	0.400790	0.919082	0.401335
	C196	C	0.598700	0.414287	0.095438
	C197	C	0.598133	0.610428	0.907702
	C198	C	0.400511	0.612812	0.095306
	C199	C	0.401276	0.412015	0.907121
	C200	C	0.094752	0.612796	0.401148
	C201	C	0.906920	0.612605	0.600030
	C202	C	0.094414	0.415263	0.598315
	C203	C	0.906045	0.413956	0.401663
	C204	C	0.899963	0.606777	0.101379
	C205	C	0.098308	0.418996	0.098454
	C206	C	0.098968	0.606288	0.903012
	C207	C	0.901584	0.419541	0.901210
	C208	C	0.098380	0.916295	0.594481
	C209	C	0.100972	0.113349	0.405559
	C210	C	0.902060	0.112443	0.593380
	C211	C	0.902095	0.913600	0.406296
	C212	C	0.593475	0.110357	0.902985
	C213	C	0.405160	0.112639	0.101964
	C214	C	0.594313	0.914328	0.099486
	C215	C	0.406064	0.913019	0.901990
	Zn216	Zn	0.499963	0.012823	0.751042
	Zn217	Zn	0.500539	0.013598	0.251247
	Zn218	Zn	0.749766	0.513176	0.000959
	Zn219	Zn	0.250253	0.512660	0.000881
	Zn220	Zn	0.000520	0.763474	0.500655
	Zn221	Zn	0.001145	0.263911	0.499773
	Zn222	Zn	0.000336	0.513464	0.750153
	Zn223	Zn	0.000033	0.513084	0.250922
	Zn224	Zn	0.500131	0.762714	0.001142
	Zn225	Zn	0.499933	0.262054	0.002252
	Zn226	Zn	0.750766	0.013596	0.499605
	Zn227	Zn	0.250391	0.014487	0.500533
	N228	N	0.413480	0.976482	0.679883
	N229	N	0.586528	0.050282	0.680399
	N230	N	0.586641	0.976701	0.321477
	N231	N	0.415140	0.050298	0.323467
	N232	N	0.678904	0.426516	0.964082
	N233	N	0.677606	0.598471	0.038683
	N234	N	0.322021	0.597698	0.963816
	N235	N	0.321272	0.427047	0.038172
	N236	N	0.963487	0.691833	0.415039
	N237	N	0.037595	0.693330	0.587385
	N238	N	0.963715	0.334629	0.586206
	N239	N	0.037754	0.335055	0.414180
	N240	N	0.963394	0.427402	0.678913
	N241	N	0.037831	0.599746	0.679462
	N242	N	0.963278	0.598729	0.322893
	N243	N	0.037161	0.427458	0.321369
	N244	N	0.413033	0.692022	0.964544
	N245	N	0.586253	0.692427	0.037921
	N246	N	0.587165	0.332496	0.965146
	N247	N	0.414602	0.334724	0.039136
	N248	N	0.679442	0.976619	0.413692
	N249	N	0.678548	0.051136	0.585733
	N250	N	0.321064	0.976711	0.586596
	N251	N	0.323463	0.050974	0.416443
	N252	N	0.912486	0.476033	0.180750
	N253	N	0.084359	0.550185	0.178116
	N254	N	0.086970	0.476358	0.820692
	N255	N	0.914131	0.550328	0.822131
	N256	N	0.177884	0.929469	0.462928
	N257	N	0.179103	0.100520	0.537380
	N258	N	0.822374	0.099096	0.462615
	N259	N	0.821482	0.927847	0.537178
	N260	N	0.462555	0.189696	0.917306
	N261	N	0.536112	0.192558	0.088998
	N262	N	0.462768	0.835381	0.086281
	N263	N	0.537287	0.833570	0.914720
	N264	N	0.462870	0.928175	0.179349
	N265	N	0.537027	0.098807	0.179714
	N266	N	0.462262	0.097637	0.823664
	N267	N	0.536382	0.925187	0.820364
	N268	N	0.915625	0.191793	0.462434
	N269	N	0.087047	0.193505	0.536868
	N270	N	0.086460	0.834994	0.463773
	N271	N	0.913580	0.834495	0.537326
	N272	N	0.178641	0.475388	0.914963
	N273	N	0.178825	0.549848	0.086925
	N274	N	0.821170	0.475823	0.086265
	N275	N	0.821283	0.549988	0.914995
	O276	O	-0.036165	0.046732	-0.077880
	H277	H	-0.033171	0.036143	-0.073935
	H278	H	-0.034423	0.045421	-0.086617
	O279	O	0.545529	0.487279	0.530435
	H280	H	0.539540	0.490647	0.525705
	H281	H	0.537080	0.496190	0.528336
	O282	O	0.545497	0.516862	0.474093
	H283	H	0.553735	0.517509	0.488945
	H284	H	0.547594	0.519976	0.482432
	O285	O	1.019660	-0.005585	0.944938
	H286	H	1.014284	-0.018435	0.953413
	H287	H	1.029593	-0.009227	0.931874
	O288	O	0.941230	0.033582	-0.030588
	H289	H	0.935915	0.040964	-0.018559
	H290	H	0.940951	0.041080	-0.024468
	O291	O	0.545979	0.547797	0.591187
	H292	H	0.535655	0.545663	0.589240
	H293	H	0.547401	0.549596	0.593859
	O294	O	0.984177	-0.033806	1.006321
	H295	H	0.973775	-0.030479	1.013506
	H296	H	0.993483	-0.042421	1.005306
	O297	O	0.018818	-0.046463	0.045072
	H298	H	0.030964	-0.041974	0.049852
	H299	H	0.025856	-0.047516	0.030957
	O300	O	1.021046	0.008307	0.045697
	H301	H	1.018061	0.015397	0.046128
	H302	H	1.018518	0.002954	0.049723
	O303	O	0.542332	0.585483	0.539418
	H304	H	0.545949	0.578065	0.525115
	H305	H	0.543923	0.573367	0.536530
	O306	O	0.926561	0.008898	0.049020
	H307	H	0.929744	0.013856	0.053676
	H308	H	0.926238	0.012988	0.041469
	O309	O	0.041193	0.031982	0.960012
	H310	H	0.038425	0.019324	0.954533
	H311	H	0.044278	0.031648	0.959368
	O312	O	1.027344	0.937889	0.917587
	H313	H	1.027649	0.935384	0.909914
	H314	H	1.020172	0.931222	0.908353
	O315	O	0.543184	0.558312	0.579440
	H316	H	0.548026	0.543751	0.581663
	H317	H	0.552064	0.565536	0.593317
	O318	O	-0.040893	-0.038524	-0.121100
	H319	H	-0.047555	-0.037365	-0.118825
	H320	H	-0.051310	-0.028653	-0.114252
	O321	O	-0.051326	1.025912	0.952839
	H322	H	-0.044184	1.029829	0.956909
	H323	H	-0.055272	1.034049	0.946826
	O324	O	0.569476	0.478068	0.493835
	H325	H	0.572355	0.471973	0.500990
	H326	H	0.567294	0.485617	0.490062
	O327	O	0.476156	0.491292	0.469662
	H328	H	0.483667	0.496159	0.480517
	H329	H	0.481027	0.486207	0.471050
	O330	O	0.525960	0.554995	0.505506
	H331	H	0.527989	0.557631	0.505830
	H332	H	0.521793	0.552507	0.512804
	O333	O	0.525546	0.494989	0.543975
	H334	H	0.520827	0.496518	0.547881
	H335	H	0.531794	0.497070	0.542869
	O336	O	0.502739	0.555516	0.527343
	H337	H	0.494282	0.557340	0.524486
	H338	H	0.511272	0.568657	0.515827
	O339	O	1.010897	1.075256	-0.016150
	H340	H	1.023565	1.075177	-0.017501
	H341	H	1.003822	1.091421	-0.009911
	O342	O	0.597866	0.482022	0.464339
	H343	H	0.602057	0.483663	0.459756
	H344	H	0.606936	0.486232	0.462970
	O345	O	1.018686	0.146845	1.007477
	H346	H	1.026897	0.142335	1.016534
	H347	H	1.019755	0.148165	1.018737
	O348	O	0.031496	-0.070138	-0.146085
	H349	H	0.022336	-0.069985	-0.146809
	H350	H	0.025734	-0.071113	-0.154530
	O351	O	0.067515	1.001398	1.024410
	H352	H	0.071400	1.001306	1.019038
	H353	H	0.061736	1.001118	1.019408
	O354	O	0.498460	0.481654	0.498877
	H355	H	0.502007	0.481527	0.495650
	H356	H	0.505674	0.476782	0.499629
	O357	O	-0.074836	0.954468	1.051401
	H358	H	-0.073446	0.948744	1.041915
	H359	H	-0.075516	0.953958	1.050060
