data_Molecule from HDF5

_cell_length_a		16.230014
_cell_length_b		16.508749
_cell_length_c		16.144380
_cell_angle_alpha	89.903549
_cell_angle_beta	90.117560
_cell_angle_gamma	90.027493
_symmetry_space_group_name_H-M	'P 1'
_symmetry_Int_Tables_number		1

loop_
	_symmetry_equiv_pos_as_xyz
	x,y,z

loop_
	_atom_site_label
	_atom_site_type_symbol
	_atom_site_fract_x
	_atom_site_fract_y
	_atom_site_fract_z
	H0	H	0.401141	0.833031	0.715200
	H1	H	0.597216	0.157340	0.714318
	H2	H	0.596557	0.833505	0.283848
	H3	H	0.399501	0.157077	0.283414
	H4	H	0.712373	0.399435	0.834526
	H5	H	0.713552	0.592752	0.164256
	H6	H	0.287471	0.592320	0.834107
	H7	H	0.289220	0.400155	0.164989
	H8	H	0.836700	0.711489	0.396688
	H9	H	0.161787	0.712696	0.602440
	H10	H	0.836626	0.277581	0.601234
	H11	H	0.162652	0.278096	0.398346
	H12	H	0.834357	0.398202	0.712199
	H13	H	0.164821	0.589749	0.710884
	H14	H	0.835040	0.590898	0.286127
	H15	H	0.164420	0.399387	0.287934
	H16	H	0.398640	0.711805	0.836268
	H17	H	0.602415	0.712352	0.163044
	H18	H	0.601524	0.279685	0.835606
	H19	H	0.397763	0.279480	0.162410
	H20	H	0.715799	0.834195	0.399090
	H21	H	0.715917	0.156312	0.598891
	H22	H	0.283862	0.832883	0.598110
	H23	H	0.282387	0.156060	0.399966
	H24	H	0.901708	0.333279	0.214945
	H25	H	0.097621	0.657088	0.214996
	H26	H	0.097025	0.333114	0.786602
	H27	H	0.901033	0.656650	0.783010
	H28	H	0.210811	0.899413	0.334238
	H29	H	0.212483	0.092399	0.664984
	H30	H	0.785815	0.092997	0.334270
	H31	H	0.786313	0.897223	0.664153
	H32	H	0.336632	0.212882	0.896580
	H33	H	0.662507	0.213088	0.102162
	H34	H	0.337396	0.777997	0.102106
	H35	H	0.661511	0.778129	0.897242
	H36	H	0.334391	0.900609	0.209762
	H37	H	0.663828	0.092278	0.212711
	H38	H	0.333869	0.090968	0.788056
	H39	H	0.664356	0.901047	0.789323
	H40	H	0.897369	0.211706	0.336168
	H41	H	0.102164	0.212172	0.662685
	H42	H	0.100541	0.779286	0.335264
	H43	H	0.897640	0.777934	0.662792
	H44	H	0.215590	0.333933	0.901937
	H45	H	0.215574	0.657693	0.098447
	H46	H	0.782271	0.334815	0.101015
	H47	H	0.783661	0.656878	0.899216
	H48	H	0.401680	0.110607	0.592827
	H49	H	0.602551	0.877137	0.593411
	H50	H	0.598415	0.110065	0.409976
	H51	H	0.403114	0.879521	0.404276
	H52	H	0.597147	0.407598	0.118260
	H53	H	0.590300	0.587664	0.883003
	H54	H	0.409613	0.592572	0.118598
	H55	H	0.414706	0.407857	0.885518
	H56	H	0.117218	0.584092	0.401006
	H57	H	0.882701	0.589671	0.590576
	H58	H	0.115769	0.402026	0.592668
	H59	H	0.879857	0.397962	0.401763
	H60	H	0.116555	0.399160	0.592005
	H61	H	0.883171	0.588735	0.588174
	H62	H	0.119016	0.598639	0.409057
	H63	H	0.884347	0.398222	0.416436
	H64	H	0.403878	0.588949	0.118999
	H65	H	0.588561	0.589150	0.883209
	H66	H	0.583375	0.406680	0.113252
	H67	H	0.410157	0.393600	0.879530
	H68	H	0.590495	0.110525	0.400483
	H69	H	0.587247	0.879230	0.602544
	H70	H	0.405915	0.110144	0.596004
	H71	H	0.406818	0.880878	0.404195
	H72	H	0.915453	0.605838	0.084948
	H73	H	0.094833	0.382323	0.090486
	H74	H	0.085700	0.606455	0.911813
	H75	H	0.900919	0.380170	0.909117
	H76	H	0.085669	0.893130	0.617874
	H77	H	0.087369	0.085519	0.384228
	H78	H	0.907648	0.078779	0.614757
	H79	H	0.907039	0.904599	0.382460
	H80	H	0.615889	0.091713	0.909664
	H81	H	0.384529	0.091638	0.080537
	H82	H	0.616824	0.905984	0.095824
	H83	H	0.380238	0.903159	0.899727
	H84	H	0.619007	0.896272	0.090432
	H85	H	0.384673	0.081930	0.092303
	H86	H	0.614525	0.088160	0.909455
	H87	H	0.380082	0.893062	0.911226
	H88	H	0.916212	0.091067	0.614974
	H89	H	0.088707	0.091381	0.382213
	H90	H	0.100262	0.902832	0.619682
	H91	H	0.909875	0.900844	0.381899
	H92	H	0.105570	0.612346	0.909602
	H93	H	0.098506	0.378687	0.095129
	H94	H	0.896977	0.611912	0.087492
	H95	H	0.906996	0.380424	0.901867
	H96	H	0.406243	0.108691	0.590518
	H97	H	0.589130	0.884967	0.585081
	H98	H	0.586678	0.106778	0.411019
	H99	H	0.404813	0.881175	0.407599
	H100	H	0.590659	0.395992	0.117824
	H101	H	0.590223	0.589372	0.882448
	H102	H	0.408997	0.586886	0.116074
	H103	H	0.399268	0.406109	0.879535
	H104	H	0.112979	0.585146	0.417430
	H105	H	0.882944	0.586807	0.590525
	H106	H	0.115406	0.401133	0.589880
	H107	H	0.885473	0.409977	0.408348
	H108	H	0.909424	0.611468	0.103511
	H109	H	0.092375	0.380575	0.096584
	H110	H	0.092810	0.613204	0.893242
	H111	H	0.909635	0.383426	0.910745
	H112	H	0.085641	0.909520	0.612965
	H113	H	0.092661	0.086979	0.381750
	H114	H	0.902108	0.091384	0.619805
	H115	H	0.905453	0.899925	0.381200
	H116	H	0.616726	0.089516	0.906130
	H117	H	0.379693	0.095734	0.094805
	H118	H	0.613523	0.904828	0.084830
	H119	H	0.386003	0.907221	0.913492
	C120	C	0.376487	0.003015	0.621780
	C121	C	0.621885	0.987099	0.622364
	C122	C	0.620974	0.003044	0.377302
	C123	C	0.376125	0.986824	0.376300
	C124	C	0.619884	0.374924	0.007783
	C125	C	0.619987	0.617172	0.991076
	C126	C	0.378530	0.617346	0.008575
	C127	C	0.379076	0.374741	0.990458
	C128	C	0.008112	0.617167	0.378621
	C129	C	0.991196	0.616258	0.619561
	C130	C	0.007802	0.372397	0.621098
	C131	C	0.991177	0.373265	0.378913
	C132	C	0.878090	0.503248	0.121475
	C133	C	0.123022	0.487484	0.122417
	C134	C	0.122486	0.503761	0.877323
	C135	C	0.877100	0.487730	0.877436
	C136	C	0.119325	0.873924	0.507788
	C137	C	0.119747	0.116196	0.491249
	C138	C	0.878552	0.116355	0.508039
	C139	C	0.878009	0.873292	0.490628
	C140	C	0.507501	0.117620	0.878635
	C141	C	0.490922	0.118104	0.120114
	C142	C	0.508125	0.874064	0.120053
	C143	C	0.490491	0.873273	0.878660
	C144	C	0.379881	0.881380	0.677292
	C145	C	0.618312	0.108686	0.676974
	C146	C	0.617726	0.881929	0.321709
	C147	C	0.378655	0.108389	0.320870
	C148	C	0.675294	0.377989	0.883783
	C149	C	0.676012	0.614131	0.115087
	C150	C	0.324281	0.613827	0.883885
	C151	C	0.325084	0.378430	0.115248
	C152	C	0.885418	0.673079	0.377671
	C153	C	0.113913	0.672738	0.620301
	C154	C	0.884917	0.316578	0.620426
	C155	C	0.114084	0.317022	0.379489
	C156	C	0.884027	0.376277	0.675789
	C157	C	0.115257	0.612009	0.674411
	C158	C	0.884378	0.612775	0.323170
	C159	C	0.115097	0.377273	0.324563
	C160	C	0.379818	0.672950	0.884942
	C161	C	0.620929	0.673431	0.114401
	C162	C	0.619659	0.319010	0.884246
	C163	C	0.379352	0.318691	0.113897
	C164	C	0.677067	0.882242	0.378866
	C165	C	0.677537	0.108248	0.619676
	C166	C	0.321414	0.881366	0.619334
	C167	C	0.320655	0.108181	0.379054
	C168	C	0.880850	0.381877	0.177109
	C169	C	0.119446	0.609001	0.177458
	C170	C	0.118434	0.381630	0.823477
	C171	C	0.879963	0.608684	0.821339
	C172	C	0.173739	0.877871	0.383455
	C173	C	0.175585	0.113384	0.615259
	C174	C	0.822912	0.113947	0.383797
	C175	C	0.823515	0.876401	0.614787
	C176	C	0.385140	0.173713	0.878249
	C177	C	0.613761	0.174164	0.120557
	C178	C	0.385438	0.817813	0.120274
	C179	C	0.613345	0.817731	0.879312
	C180	C	0.384017	0.878643	0.173879
	C181	C	0.614512	0.114406	0.175710
	C182	C	0.383624	0.113250	0.823977
	C183	C	0.614593	0.878248	0.824959
	C184	C	0.878295	0.173110	0.384954
	C185	C	0.120333	0.172611	0.614376
	C186	C	0.118948	0.818196	0.384199
	C187	C	0.878651	0.816923	0.613958
	C188	C	0.177567	0.382069	0.880749
	C189	C	0.177550	0.609334	0.119116
	C190	C	0.821434	0.382488	0.120405
	C191	C	0.821470	0.608656	0.879123
	C192	C	0.398147	0.087782	0.599591
	C193	C	0.599647	0.902356	0.600137
	C194	C	0.598396	0.087512	0.400314
	C195	C	0.398401	0.902265	0.398786
	C196	C	0.597220	0.396940	0.093982
	C197	C	0.596585	0.595080	0.905043
	C198	C	0.400871	0.595845	0.095378
	C199	C	0.401364	0.396339	0.904063
	C200	C	0.094206	0.595573	0.402071
	C201	C	0.905148	0.594724	0.596515
	C202	C	0.093742	0.394348	0.598283
	C203	C	0.905437	0.395418	0.402016
	C204	C	0.900609	0.587967	0.098666
	C205	C	0.101633	0.402543	0.100468
	C206	C	0.101140	0.588664	0.898592
	C207	C	0.899324	0.403058	0.900456
	C208	C	0.097141	0.895588	0.594555
	C209	C	0.096235	0.094262	0.405082
	C210	C	0.901742	0.093642	0.594185
	C211	C	0.900846	0.895275	0.404224
	C212	C	0.593738	0.095974	0.901632
	C213	C	0.405179	0.096259	0.096315
	C214	C	0.594074	0.895865	0.097009
	C215	C	0.404341	0.894642	0.901528
	Zn216	Zn	0.499089	-0.004699	0.751193
	Zn217	Zn	0.498998	-0.003927	0.247012
	Zn218	Zn	0.747745	0.496000	-0.000188
	Zn219	Zn	0.252046	0.495722	-0.000530
	Zn220	Zn	-0.000653	0.745477	0.499226
	Zn221	Zn	-0.000856	0.244275	0.499628
	Zn222	Zn	-0.000381	0.495159	0.748139
	Zn223	Zn	0.000333	0.495099	0.251412
	Zn224	Zn	0.499589	0.745086	0.000276
	Zn225	Zn	0.499287	0.246703	-0.000962
	Zn226	Zn	0.750908	-0.004895	0.499043
	Zn227	Zn	0.247080	-0.005146	0.499530
	N228	N	0.413419	0.957907	0.678956
	N229	N	0.584443	0.032236	0.678628
	N230	N	0.583553	0.958209	0.320721
	N231	N	0.412672	0.032082	0.319241
	N232	N	0.675584	0.412055	0.961501
	N233	N	0.675640	0.579941	0.037404
	N234	N	0.323474	0.579865	0.961694
	N235	N	0.324845	0.412773	0.037500
	N236	N	0.963136	0.675699	0.411516
	N237	N	0.035802	0.675506	0.587025
	N238	N	0.962855	0.313959	0.587337
	N239	N	0.036007	0.314458	0.412632
	N240	N	0.961571	0.410258	0.676346
	N241	N	0.038082	0.577546	0.674000
	N242	N	0.961757	0.578473	0.323802
	N243	N	0.037924	0.411489	0.324218
	N244	N	0.412751	0.675160	0.963473
	N245	N	0.586664	0.675289	0.036409
	N246	N	0.586037	0.316865	0.962314
	N247	N	0.412042	0.316232	0.035513
	N248	N	0.679033	0.958614	0.412659
	N249	N	0.679773	0.031628	0.586301
	N250	N	0.319113	0.957994	0.585622
	N251	N	0.318841	0.031684	0.412905
	N252	N	0.915254	0.458082	0.177943
	N253	N	0.086001	0.532519	0.179176
	N254	N	0.084876	0.458188	0.821218
	N255	N	0.913885	0.532491	0.820396
	N256	N	0.174137	0.911717	0.461173
	N257	N	0.175119	0.078834	0.537715
	N258	N	0.823038	0.079142	0.461270
	N259	N	0.823229	0.910954	0.537134
	N260	N	0.463262	0.176759	0.911188
	N261	N	0.535805	0.176575	0.086790
	N262	N	0.463516	0.814994	0.087545
	N263	N	0.535056	0.814382	0.911781
	N264	N	0.461381	0.912886	0.174012
	N265	N	0.537362	0.079908	0.175200
	N266	N	0.460901	0.078957	0.824029
	N267	N	0.537286	0.912277	0.824743
	N268	N	0.912177	0.174410	0.463058
	N269	N	0.086297	0.174441	0.536341
	N270	N	0.085785	0.815711	0.462675
	N271	N	0.911919	0.814977	0.535767
	N272	N	0.180173	0.458775	0.913557
	N273	N	0.179955	0.532673	0.085613
	N274	N	0.819696	0.458891	0.086308
	N275	N	0.819606	0.532216	0.913411
	O276	O	1.012632	0.999649	-0.014782
	H277	H	1.005095	0.998013	-0.031500
	H278	H	1.012374	0.999965	-0.018082
	O279	O	-0.014185	0.050077	0.028582
	H280	H	-0.017288	0.047091	0.035010
	H281	H	-0.016419	0.040041	0.026965
	O282	O	0.042723	0.048219	1.005015
	H283	H	0.044184	0.053559	1.001223
	H284	H	0.034927	0.053412	0.991415
	O285	O	0.533606	0.511188	0.580090
	H286	H	0.522786	0.500217	0.581956
	H287	H	0.532655	0.513702	0.583799
	O288	O	0.508760	0.504730	0.554102
	H289	H	0.505919	0.499301	0.539423
	H290	H	0.515374	0.510589	0.555162
	O291	O	0.512225	0.508061	0.514641
	H292	H	0.513787	0.511838	0.513078
	H293	H	0.515442	0.509889	0.519632
	O294	O	-0.048288	0.042862	-0.017280
	H295	H	-0.053708	0.048365	-0.014891
	H296	H	-0.037639	0.042344	-0.010845
	O297	O	0.597578	0.555745	0.479086
	H298	H	0.597573	0.546975	0.495440
	H299	H	0.607925	0.563579	0.473674
	O300	O	0.056821	1.041919	0.940100
	H301	H	0.053324	1.041832	0.947990
	H302	H	0.054231	1.041172	0.935485
	O303	O	0.528684	0.436289	0.529414
	H304	H	0.516850	0.439303	0.526745
	H305	H	0.526895	0.429445	0.525926
	O306	O	-0.074442	0.012747	0.976271
	H307	H	-0.072154	0.009625	0.982309
	H308	H	-0.080227	0.021815	0.972784
	O309	O	1.012096	1.031911	1.025340
	H310	H	1.016121	1.027450	1.020038
	H311	H	1.015082	1.035242	1.025305
	O312	O	0.560421	0.479980	0.544327
	H313	H	0.552721	0.486238	0.552410
	H314	H	0.557279	0.476229	0.546017
	O315	O	0.518390	0.520559	0.422464
	H316	H	0.524657	0.524562	0.423595
	H317	H	0.526554	0.528477	0.425512
	O318	O	0.013255	1.055624	0.031262
	H319	H	0.024458	1.048753	0.035272
	H320	H	0.023425	1.062383	0.038097
	O321	O	0.992839	1.043910	-0.071394
	H322	H	0.985331	1.045475	-0.077578
	H323	H	0.980977	1.052762	-0.073123
