data_Molecule from HDF5

_cell_length_a		16.227536
_cell_length_b		16.175980
_cell_length_c		16.429578
_cell_angle_alpha	90.187951
_cell_angle_beta	89.837122
_cell_angle_gamma	89.879076
_symmetry_space_group_name_H-M	'P 1'
_symmetry_Int_Tables_number		1

loop_
	_symmetry_equiv_pos_as_xyz
	x,y,z

loop_
	_atom_site_label
	_atom_site_type_symbol
	_atom_site_fract_x
	_atom_site_fract_y
	_atom_site_fract_z
	H0	H	0.393486	0.839396	0.713183
	H1	H	0.594656	0.167323	0.711660
	H2	H	0.596967	0.840869	0.276550
	H3	H	0.391012	0.166656	0.280376
	H4	H	0.710139	0.405005	0.832805
	H5	H	0.709270	0.604571	0.157497
	H6	H	0.278050	0.605069	0.832538
	H7	H	0.277546	0.406703	0.156869
	H8	H	0.828413	0.714310	0.400427
	H9	H	0.157993	0.716145	0.592306
	H10	H	0.828867	0.291231	0.591457
	H11	H	0.156774	0.286693	0.393707
	H12	H	0.831637	0.401257	0.713740
	H13	H	0.157142	0.605779	0.711711
	H14	H	0.830784	0.605215	0.278593
	H15	H	0.155292	0.398068	0.274466
	H16	H	0.396343	0.720284	0.832307
	H17	H	0.592383	0.720097	0.157597
	H18	H	0.592934	0.288318	0.833295
	H19	H	0.394204	0.290813	0.157731
	H20	H	0.707153	0.837236	0.396862
	H21	H	0.708543	0.167116	0.594542
	H22	H	0.281255	0.837060	0.593881
	H23	H	0.277151	0.165887	0.398231
	H24	H	0.891625	0.340064	0.210365
	H25	H	0.093968	0.666907	0.212191
	H26	H	0.096296	0.340354	0.778288
	H27	H	0.894830	0.668651	0.780220
	H28	H	0.212624	0.899358	0.334542
	H29	H	0.208619	0.101498	0.658198
	H30	H	0.777608	0.100837	0.333502
	H31	H	0.777612	0.903007	0.657795
	H32	H	0.329173	0.217338	0.900192
	H33	H	0.658604	0.219457	0.093952
	H34	H	0.329982	0.792151	0.092754
	H35	H	0.658848	0.790591	0.897976
	H36	H	0.332185	0.902800	0.212365
	H37	H	0.658288	0.106082	0.212998
	H38	H	0.331349	0.107057	0.780566
	H39	H	0.656827	0.901190	0.777693
	H40	H	0.894071	0.217623	0.332890
	H41	H	0.093905	0.220821	0.656471
	H42	H	0.092140	0.786687	0.332370
	H43	H	0.896418	0.788249	0.658505
	H44	H	0.209581	0.340340	0.896132
	H45	H	0.205649	0.669232	0.093075
	H46	H	0.780579	0.339509	0.091790
	H47	H	0.781303	0.669829	0.898064
	H48	H	0.405168	0.121950	0.599827
	H49	H	0.589649	0.883615	0.595444
	H50	H	0.583107	0.118437	0.405856
	H51	H	0.399157	0.886022	0.408076
	H52	H	0.592495	0.412901	0.111649
	H53	H	0.588634	0.595657	0.879687
	H54	H	0.403550	0.602860	0.109315
	H55	H	0.409340	0.419794	0.885081
	H56	H	0.109790	0.590028	0.398741
	H57	H	0.875927	0.599542	0.587089
	H58	H	0.109335	0.414537	0.584834
	H59	H	0.876636	0.406904	0.403831
	H60	H	0.111403	0.412212	0.590351
	H61	H	0.878790	0.590098	0.587370
	H62	H	0.111894	0.596302	0.400432
	H63	H	0.879479	0.415869	0.404265
	H64	H	0.394947	0.598578	0.111638
	H65	H	0.586497	0.596475	0.880894
	H66	H	0.584786	0.416667	0.108725
	H67	H	0.405781	0.400431	0.877888
	H68	H	0.589415	0.120606	0.405821
	H69	H	0.577135	0.887890	0.588820
	H70	H	0.409425	0.113962	0.580885
	H71	H	0.403205	0.883973	0.395202
	H72	H	0.910440	0.619228	0.091087
	H73	H	0.083577	0.386840	0.089185
	H74	H	0.086450	0.620822	0.905033
	H75	H	0.889132	0.385179	0.907711
	H76	H	0.088033	0.904451	0.611530
	H77	H	0.085128	0.092994	0.381541
	H78	H	0.902030	0.096944	0.610163
	H79	H	0.901264	0.906461	0.379820
	H80	H	0.610051	0.090140	0.900999
	H81	H	0.378917	0.097727	0.088474
	H82	H	0.612836	0.913174	0.090535
	H83	H	0.378429	0.913775	0.903224
	H84	H	0.612196	0.910792	0.087453
	H85	H	0.378858	0.095248	0.090503
	H86	H	0.612192	0.098641	0.899432
	H87	H	0.377294	0.913349	0.902864
	H88	H	0.899585	0.096545	0.609964
	H89	H	0.086940	0.092994	0.381499
	H90	H	0.089966	0.911253	0.611198
	H91	H	0.898262	0.907145	0.379755
	H92	H	0.088199	0.623041	0.898247
	H93	H	0.083012	0.388976	0.082561
	H94	H	0.900561	0.619164	0.081063
	H95	H	0.906115	0.384385	0.888049
	H96	H	0.390336	0.121346	0.586245
	H97	H	0.589633	0.887097	0.582004
	H98	H	0.585835	0.119926	0.400603
	H99	H	0.411521	0.888955	0.404528
	H100	H	0.585534	0.407493	0.110692
	H101	H	0.587316	0.598813	0.879847
	H102	H	0.402103	0.592897	0.107734
	H103	H	0.390357	0.414809	0.877475
	H104	H	0.109007	0.592783	0.405305
	H105	H	0.875084	0.594120	0.595339
	H106	H	0.110621	0.408795	0.585118
	H107	H	0.875534	0.412801	0.396173
	H108	H	0.897217	0.623961	0.093531
	H109	H	0.089353	0.385989	0.084824
	H110	H	0.081746	0.621435	0.899875
	H111	H	0.914070	0.393699	0.911148
	H112	H	0.083106	0.909267	0.609504
	H113	H	0.086099	0.091553	0.381177
	H114	H	0.901116	0.094383	0.610363
	H115	H	0.900402	0.909389	0.380622
	H116	H	0.609508	0.096555	0.907569
	H117	H	0.377233	0.098116	0.091678
	H118	H	0.610134	0.914169	0.087533
	H119	H	0.377561	0.913071	0.903723
	C120	C	0.372334	0.011058	0.618188
	C121	C	0.614898	0.994621	0.617512
	C122	C	0.615435	0.011310	0.374749
	C123	C	0.373421	0.994146	0.374309
	C124	C	0.616668	0.382683	0.003593
	C125	C	0.616150	0.626367	0.986937
	C126	C	0.372087	0.627025	0.002581
	C127	C	0.372178	0.383260	0.987060
	C128	C	0.002189	0.623417	0.373293
	C129	C	0.985319	0.623712	0.617081
	C130	C	0.002257	0.382497	0.615943
	C131	C	0.984958	0.381016	0.371609
	C132	C	0.872937	0.512234	0.116850
	C133	C	0.114587	0.495541	0.115763
	C134	C	0.115832	0.513321	0.872250
	C135	C	0.873853	0.496156	0.873832
	C136	C	0.116124	0.878915	0.503655
	C137	C	0.115601	0.123611	0.487607
	C138	C	0.871830	0.124273	0.503322
	C139	C	0.871069	0.879215	0.487181
	C140	C	0.502255	0.124843	0.874860
	C141	C	0.486373	0.126577	0.118682
	C142	C	0.503265	0.883310	0.117120
	C143	C	0.485828	0.883186	0.874135
	C144	C	0.374328	0.887839	0.674058
	C145	C	0.614098	0.118143	0.673243
	C146	C	0.615417	0.888734	0.316797
	C147	C	0.372371	0.117598	0.318814
	C148	C	0.672230	0.384522	0.881449
	C149	C	0.671364	0.624726	0.109128
	C150	C	0.316185	0.625597	0.880950
	C151	C	0.315757	0.386168	0.108614
	C152	C	0.878091	0.677689	0.378199
	C153	C	0.108871	0.679207	0.613475
	C154	C	0.878510	0.327919	0.613035
	C155	C	0.107631	0.324003	0.373132
	C156	C	0.879795	0.382723	0.673782
	C157	C	0.108557	0.623992	0.672549
	C158	C	0.879142	0.623422	0.317832
	C159	C	0.106795	0.379568	0.313717
	C160	C	0.375126	0.682660	0.880743
	C161	C	0.613353	0.682265	0.109183
	C162	C	0.613734	0.326684	0.881521
	C163	C	0.374128	0.328653	0.109233
	C164	C	0.670236	0.887038	0.376610
	C165	C	0.670733	0.118035	0.615072
	C166	C	0.318556	0.886514	0.614985
	C167	C	0.315852	0.117213	0.377438
	C168	C	0.872707	0.389146	0.172180
	C169	C	0.113465	0.618145	0.173321
	C170	C	0.115728	0.389509	0.816514
	C171	C	0.875198	0.619628	0.818454
	C172	C	0.173179	0.880065	0.382216
	C173	C	0.171075	0.122210	0.609441
	C174	C	0.815762	0.121494	0.381743
	C175	C	0.816283	0.882680	0.609585
	C176	C	0.378597	0.180142	0.878866
	C177	C	0.609660	0.182063	0.115368
	C178	C	0.379725	0.828518	0.113992
	C179	C	0.609377	0.827645	0.876646
	C180	C	0.380742	0.883822	0.173482
	C181	C	0.609357	0.125549	0.174404
	C182	C	0.379751	0.125276	0.819058
	C183	C	0.608464	0.882918	0.817206
	C184	C	0.873715	0.179522	0.381228
	C185	C	0.114109	0.181591	0.608565
	C186	C	0.113376	0.823965	0.381201
	C187	C	0.874900	0.825293	0.609733
	C188	C	0.171877	0.389354	0.875159
	C189	C	0.168765	0.619529	0.113823
	C190	C	0.817604	0.388847	0.113072
	C191	C	0.819056	0.620509	0.877311
	C192	C	0.394909	0.096926	0.595416
	C193	C	0.592111	0.908546	0.595269
	C194	C	0.592710	0.097425	0.397428
	C195	C	0.397566	0.908572	0.396197
	C196	C	0.594445	0.405781	0.088414
	C197	C	0.593994	0.603752	0.902118
	C198	C	0.393824	0.604618	0.087504
	C199	C	0.395118	0.405115	0.901955
	C200	C	0.087982	0.599917	0.395150
	C201	C	0.899137	0.601030	0.596166
	C202	C	0.088035	0.405112	0.593548
	C203	C	0.899224	0.404894	0.394807
	C204	C	0.896017	0.598577	0.095101
	C205	C	0.091803	0.409578	0.092458
	C206	C	0.092370	0.599384	0.894543
	C207	C	0.896419	0.410046	0.895921
	C208	C	0.093747	0.901838	0.588755
	C209	C	0.092893	0.099424	0.403258
	C210	C	0.894359	0.102336	0.588117
	C211	C	0.893364	0.901259	0.401887
	C212	C	0.588406	0.101880	0.896335
	C213	C	0.400578	0.103768	0.096723
	C214	C	0.589713	0.906051	0.095017
	C215	C	0.399912	0.906356	0.896650
	Zn216	Zn	0.493867	0.004117	0.745890
	Zn217	Zn	0.494761	0.004064	0.246007
	Zn218	Zn	0.745735	0.504942	-0.004872
	Zn219	Zn	0.242788	0.505291	-0.005738
	Zn220	Zn	-0.005989	0.750591	0.495042
	Zn221	Zn	-0.006571	0.254099	0.494384
	Zn222	Zn	-0.005172	0.503821	0.744787
	Zn223	Zn	-0.006427	0.502934	0.244488
	Zn224	Zn	0.494406	0.755665	-0.004503
	Zn225	Zn	0.494075	0.253739	-0.004294
	Zn226	Zn	0.742710	0.002156	0.495693
	Zn227	Zn	0.245259	0.000738	0.496138
	N228	N	0.407067	0.966425	0.676162
	N229	N	0.580153	0.040432	0.674923
	N230	N	0.582154	0.966916	0.315372
	N231	N	0.407478	0.040142	0.316618
	N232	N	0.674097	0.418544	0.958326
	N233	N	0.673463	0.590669	0.032214
	N234	N	0.314167	0.591719	0.957524
	N235	N	0.314816	0.419667	0.031716
	N236	N	0.955541	0.677849	0.411903
	N237	N	0.031326	0.679285	0.579690
	N238	N	0.955689	0.327480	0.578045
	N239	N	0.030682	0.325051	0.408540
	N240	N	0.957817	0.415824	0.675796
	N241	N	0.030763	0.590464	0.674923
	N242	N	0.957285	0.590265	0.314752
	N243	N	0.029377	0.414198	0.312752
	N244	N	0.409107	0.683656	0.957431
	N245	N	0.579609	0.683244	0.032486
	N246	N	0.580048	0.325370	0.958381
	N247	N	0.408402	0.326588	0.032587
	N248	N	0.670219	0.964270	0.412119
	N249	N	0.671527	0.040132	0.581193
	N250	N	0.317255	0.963852	0.580772
	N251	N	0.316494	0.039669	0.411448
	N252	N	0.906379	0.466975	0.174603
	N253	N	0.080471	0.539771	0.174661
	N254	N	0.081659	0.467470	0.814686
	N255	N	0.908510	0.541328	0.816195
	N256	N	0.175026	0.913440	0.459477
	N257	N	0.172123	0.086798	0.533182
	N258	N	0.814596	0.087838	0.458509
	N259	N	0.813642	0.915292	0.532395
	N260	N	0.456061	0.180138	0.912836
	N261	N	0.532291	0.182756	0.081475
	N262	N	0.457250	0.828148	0.079726
	N263	N	0.532163	0.827669	0.911318
	N264	N	0.458660	0.917281	0.175244
	N265	N	0.531565	0.091852	0.176586
	N266	N	0.457469	0.091414	0.816701
	N267	N	0.530614	0.916785	0.815552
	N268	N	0.907789	0.181503	0.457793
	N269	N	0.080373	0.182704	0.531915
	N270	N	0.078803	0.823365	0.457632
	N271	N	0.908162	0.823002	0.532633
	N272	N	0.172081	0.467244	0.909147
	N273	N	0.169584	0.542287	0.078638
	N274	N	0.817447	0.466621	0.079404
	N275	N	0.817892	0.542730	0.911016
	O276	O	-0.070300	0.067359	-0.109120
	H277	H	-0.071575	0.083283	-0.120589
	H278	H	-0.080484	0.070712	-0.103333
	O279	O	0.453986	0.460779	0.446917
	H280	H	0.451310	0.467434	0.454064
	H281	H	0.464260	0.461627	0.445240
	O282	O	0.432465	0.449062	0.552359
	H283	H	0.426919	0.446940	0.547165
	H284	H	0.432469	0.447838	0.545612
	O285	O	-0.074453	1.150275	0.953440
	H286	H	-0.076693	1.147492	0.956104
	H287	H	-0.067096	1.150557	0.958476
	O288	O	0.452248	0.475232	0.505283
	H289	H	0.459912	0.475910	0.506014
	H290	H	0.448840	0.472590	0.493587
	O291	O	0.445276	0.461959	0.460140
	H292	H	0.448491	0.450674	0.451585
	H293	H	0.438587	0.466618	0.448352
	O294	O	0.909024	1.046989	1.007228
	H295	H	0.910077	1.030744	1.012589
	H296	H	0.904019	1.043159	1.022503
	O297	O	1.034475	-0.041345	0.962645
	H298	H	1.032058	-0.040127	0.962635
	H299	H	1.054162	-0.039585	0.958215
	O300	O	0.566301	0.612939	0.476624
	H301	H	0.572317	0.610528	0.495761
	H302	H	0.562268	0.621390	0.477629
	O303	O	1.036773	0.033301	0.048704
	H304	H	1.032818	0.045329	0.052709
	H305	H	1.039615	0.029641	0.050592
	O306	O	0.053734	1.019565	1.015937
	H307	H	0.056793	1.015233	1.007412
	H308	H	0.060488	1.018509	1.010911
	O309	O	0.431474	0.470161	0.402273
	H310	H	0.422793	0.473183	0.397041
	H311	H	0.438102	0.477371	0.410119
	O312	O	1.061799	0.039178	0.997167
	H313	H	1.058929	0.034843	0.986620
	H314	H	1.066909	0.036546	1.002524
	O315	O	0.458321	0.501732	0.501786
	H316	H	0.461661	0.503716	0.492402
	H317	H	0.459175	0.501140	0.504094
	O318	O	0.481156	0.423855	0.569500
	H319	H	0.465811	0.415895	0.574164
	H320	H	0.480932	0.409609	0.564073
	O321	O	1.086036	1.009078	0.988181
	H322	H	1.081471	1.005783	0.983908
	H323	H	1.081557	1.012398	0.979881
	O324	O	0.985539	1.007120	0.967691
	H325	H	0.975684	0.989354	0.966881
	H326	H	0.992790	0.999875	0.970292
	O327	O	0.524249	0.533050	0.432010
	H328	H	0.507508	0.540725	0.441068
	H329	H	0.525822	0.539962	0.432100
	O330	O	0.943972	0.104928	0.936664
	H331	H	0.934356	0.116383	0.922682
	H332	H	0.931282	0.113261	0.941313
	O333	O	1.077791	0.987869	-0.032016
	H334	H	1.093411	0.975870	-0.029590
	H335	H	1.076045	0.995187	-0.045080
	O336	O	0.487823	0.459557	0.485308
	H337	H	0.499040	0.456486	0.484049
	H338	H	0.482482	0.472534	0.482830
	O339	O	0.548335	0.497189	0.443876
	H340	H	0.566110	0.500224	0.454930
	H341	H	0.556229	0.488445	0.433106
	O342	O	0.041047	0.953149	0.014310
	H343	H	0.037599	0.953237	0.015330
	H344	H	0.043003	0.952843	0.011624
	O345	O	-0.088569	0.053950	-0.021946
	H346	H	-0.087366	0.062958	-0.023321
	H347	H	-0.090840	0.065398	-0.012763
	O348	O	0.582528	0.413133	0.356669
	H349	H	0.600252	0.409927	0.337765
	H350	H	0.582526	0.417668	0.353515
	O351	O	0.436264	0.432671	0.583798
	H352	H	0.430010	0.431173	0.578808
	H353	H	0.422489	0.425990	0.578987
	O354	O	0.524186	0.507790	0.579294
	H355	H	0.508399	0.507357	0.579570
	H356	H	0.518609	0.507161	0.581156
	O357	O	0.396295	0.494117	0.454864
	H358	H	0.393570	0.491122	0.457384
	H359	H	0.402775	0.492239	0.444561
	O360	O	0.527916	-0.495200	0.579565
	H361	H	0.531116	-0.501374	0.590254
	H362	H	0.519714	-0.505614	0.574561
	O363	O	0.525531	0.557978	0.506569
	H364	H	0.525518	0.559403	0.519849
	H365	H	0.536450	0.549646	0.495599
	O366	O	0.011030	0.023200	0.965953
	H367	H	0.009357	0.029779	0.967752
	H368	H	0.008421	0.024339	0.973970
	O369	O	0.591752	0.595521	0.552502
	H370	H	0.600713	0.597621	0.559927
	H371	H	0.596531	0.598310	0.565547
