data_Molecule from HDF5

_cell_length_a		16.569129
_cell_length_b		16.355754
_cell_length_c		16.346915
_cell_angle_alpha	89.718713
_cell_angle_beta	89.874386
_cell_angle_gamma	90.073138
_symmetry_space_group_name_H-M	'P 1'
_symmetry_Int_Tables_number		1

loop_
	_symmetry_equiv_pos_as_xyz
	x,y,z

loop_
	_atom_site_label
	_atom_site_type_symbol
	_atom_site_fract_x
	_atom_site_fract_y
	_atom_site_fract_z
	H0	H	0.393180	0.841246	0.735721
	H1	H	0.601900	0.159889	0.727083
	H2	H	0.606583	0.839974	0.287608
	H3	H	0.395672	0.157985	0.289686
	H4	H	0.724221	0.394119	0.854378
	H5	H	0.723278	0.607708	0.169915
	H6	H	0.276319	0.611674	0.854993
	H7	H	0.278491	0.391049	0.169946
	H8	H	0.841311	0.719758	0.405961
	H9	H	0.156204	0.723199	0.619257
	H10	H	0.841971	0.277534	0.618578
	H11	H	0.156229	0.275261	0.404532
	H12	H	0.843148	0.392813	0.736307
	H13	H	0.158329	0.605302	0.733691
	H14	H	0.842490	0.604757	0.289121
	H15	H	0.156963	0.393800	0.290462
	H16	H	0.396698	0.721066	0.852499
	H17	H	0.606154	0.721008	0.170784
	H18	H	0.605284	0.282178	0.850933
	H19	H	0.398170	0.279408	0.171213
	H20	H	0.723729	0.840691	0.400792
	H21	H	0.722710	0.156366	0.617300
	H22	H	0.275230	0.841349	0.621739
	H23	H	0.274499	0.155745	0.400456
	H24	H	0.897702	0.339580	0.230814
	H25	H	0.105105	0.659008	0.232869
	H26	H	0.102967	0.339391	0.795304
	H27	H	0.898111	0.659324	0.791432
	H28	H	0.221649	0.890697	0.352633
	H29	H	0.220000	0.104136	0.669332
	H30	H	0.779652	0.103942	0.351390
	H31	H	0.774569	0.888946	0.668801
	H32	H	0.342516	0.222149	0.908150
	H33	H	0.659494	0.219530	0.114248
	H34	H	0.344436	0.773740	0.120473
	H35	H	0.657099	0.778528	0.903584
	H36	H	0.343174	0.890845	0.235062
	H37	H	0.657167	0.105630	0.233175
	H38	H	0.341686	0.105642	0.791136
	H39	H	0.656096	0.894992	0.787358
	H40	H	0.896770	0.218978	0.351562
	H41	H	0.101715	0.216700	0.671223
	H42	H	0.102549	0.778660	0.351185
	H43	H	0.893845	0.776656	0.671002
	H44	H	0.222242	0.341459	0.908257
	H45	H	0.224947	0.656735	0.120988
	H46	H	0.778017	0.341487	0.120183
	H47	H	0.779255	0.658278	0.903982
	H48	H	0.406939	0.112002	0.594443
	H49	H	0.587740	0.887171	0.595108
	H50	H	0.596141	0.114023	0.421129
	H51	H	0.412243	0.887061	0.427000
	H52	H	0.586936	0.408555	0.125396
	H53	H	0.591691	0.588075	0.897018
	H54	H	0.412784	0.590484	0.126610
	H55	H	0.409131	0.413856	0.897740
	H56	H	0.109535	0.590290	0.432031
	H57	H	0.893601	0.577843	0.594652
	H58	H	0.111382	0.406117	0.596751
	H59	H	0.885950	0.407854	0.418944
	H60	H	0.110925	0.413632	0.604499
	H61	H	0.885023	0.583499	0.613365
	H62	H	0.108606	0.578877	0.420556
	H63	H	0.887189	0.406836	0.426159
	H64	H	0.408596	0.582270	0.124564
	H65	H	0.590565	0.586937	0.899245
	H66	H	0.592977	0.407394	0.127590
	H67	H	0.412702	0.412161	0.898231
	H68	H	0.583633	0.110871	0.417057
	H69	H	0.589056	0.883641	0.600844
	H70	H	0.406714	0.114425	0.600999
	H71	H	0.407830	0.884967	0.425329
	H72	H	0.910253	0.613111	0.097721
	H73	H	0.087455	0.386599	0.102055
	H74	H	0.083771	0.610807	0.925022
	H75	H	0.910348	0.386918	0.928491
	H76	H	0.084363	0.903770	0.625445
	H77	H	0.087367	0.093844	0.394695
	H78	H	0.911232	0.085010	0.623771
	H79	H	0.916626	0.908875	0.399663
	H80	H	0.614435	0.090945	0.914428
	H81	H	0.390828	0.085887	0.097456
	H82	H	0.610306	0.912113	0.097399
	H83	H	0.388620	0.909452	0.926244
	H84	H	0.610822	0.912690	0.099865
	H85	H	0.387046	0.087742	0.104501
	H86	H	0.613595	0.094739	0.919987
	H87	H	0.389968	0.915074	0.925407
	H88	H	0.908393	0.088870	0.626958
	H89	H	0.093537	0.081438	0.396997
	H90	H	0.094778	0.912261	0.625836
	H91	H	0.906130	0.906007	0.395025
	H92	H	0.093894	0.612409	0.929047
	H93	H	0.090997	0.386898	0.096945
	H94	H	0.910353	0.614050	0.101008
	H95	H	0.910540	0.385667	0.924517
	H96	H	0.412018	0.112203	0.598671
	H97	H	0.582766	0.886319	0.599750
	H98	H	0.587109	0.108163	0.429781
	H99	H	0.411450	0.885797	0.422455
	H100	H	0.591055	0.413839	0.125949
	H101	H	0.589804	0.589066	0.898131
	H102	H	0.417506	0.583433	0.122279
	H103	H	0.409502	0.409953	0.895661
	H104	H	0.114930	0.593395	0.417158
	H105	H	0.886674	0.597650	0.597159
	H106	H	0.115240	0.403796	0.606469
	H107	H	0.889077	0.413309	0.422663
	H108	H	0.913103	0.612697	0.099609
	H109	H	0.092671	0.384861	0.102461
	H110	H	0.091938	0.616401	0.918920
	H111	H	0.914247	0.387430	0.926775
	H112	H	0.083282	0.915983	0.621027
	H113	H	0.080469	0.083529	0.401162
	H114	H	0.905444	0.083659	0.625235
	H115	H	0.907818	0.917020	0.399428
	H116	H	0.611612	0.088361	0.920303
	H117	H	0.387220	0.093063	0.099030
	H118	H	0.611727	0.910364	0.098629
	H119	H	0.388003	0.911389	0.921012
	C120	C	0.376240	0.008073	0.632197
	C121	C	0.619533	0.990702	0.631032
	C122	C	0.622167	0.006770	0.388746
	C123	C	0.377980	0.990309	0.390667
	C124	C	0.622751	0.378503	0.020874
	C125	C	0.622683	0.621106	1.003252
	C126	C	0.379901	0.620349	0.020101
	C127	C	0.379230	0.379039	1.002806
	C128	C	0.007428	0.620329	0.390077
	C129	C	0.992102	0.620029	0.634020
	C130	C	0.008398	0.376304	0.635020
	C131	C	0.991164	0.376564	0.389931
	C132	C	0.879026	0.508236	0.132811
	C133	C	0.122527	0.490734	0.133686
	C134	C	0.122079	0.508315	0.892015
	C135	C	0.879635	0.491325	0.891913
	C136	C	0.119939	0.877149	0.519269
	C137	C	0.119515	0.118932	0.502690
	C138	C	0.877538	0.119069	0.519767
	C139	C	0.877503	0.877097	0.502778
	C140	C	0.508458	0.123210	0.887836
	C141	C	0.492459	0.120869	0.132193
	C142	C	0.508263	0.877349	0.132803
	C143	C	0.491532	0.879182	0.889922
	C144	C	0.374264	0.888852	0.694774
	C145	C	0.621281	0.111102	0.689135
	C146	C	0.624773	0.887771	0.327455
	C147	C	0.376430	0.109968	0.329274
	C148	C	0.683591	0.376377	0.901502
	C149	C	0.682992	0.624839	0.122579
	C150	C	0.317723	0.626615	0.901892
	C151	C	0.318927	0.374409	0.122365
	C152	C	0.889077	0.680307	0.387723
	C153	C	0.109329	0.682408	0.636980
	C154	C	0.889568	0.317058	0.637322
	C155	C	0.109111	0.315777	0.386891
	C156	C	0.890365	0.374414	0.696131
	C157	C	0.110542	0.623212	0.693903
	C158	C	0.889523	0.623147	0.329339
	C159	C	0.109657	0.374956	0.329991
	C160	C	0.377623	0.681668	0.900853
	C161	C	0.624549	0.681541	0.122510
	C162	C	0.624285	0.320613	0.899805
	C163	C	0.378410	0.318787	0.123108
	C164	C	0.683359	0.888074	0.383879
	C165	C	0.681533	0.109279	0.634388
	C166	C	0.315459	0.888842	0.638087
	C167	C	0.316431	0.108886	0.384928
	C168	C	0.878240	0.387757	0.192161
	C169	C	0.123816	0.610782	0.193402
	C170	C	0.122708	0.387591	0.833758
	C171	C	0.878806	0.611290	0.830973
	C172	C	0.180910	0.873075	0.400116
	C173	C	0.179867	0.121921	0.621880
	C174	C	0.819025	0.121980	0.399618
	C175	C	0.815956	0.872379	0.621842
	C176	C	0.389718	0.182273	0.888531
	C177	C	0.611336	0.180284	0.133411
	C178	C	0.391059	0.814767	0.137407
	C179	C	0.609722	0.818751	0.886150
	C180	C	0.390343	0.873375	0.194375
	C181	C	0.610416	0.123388	0.192738
	C182	C	0.389232	0.124357	0.830279
	C183	C	0.609278	0.876933	0.828012
	C184	C	0.877527	0.179185	0.399599
	C185	C	0.120779	0.177651	0.622984
	C186	C	0.121528	0.817256	0.399428
	C187	C	0.875239	0.816432	0.622972
	C188	C	0.181916	0.388803	0.889909
	C189	C	0.183848	0.609713	0.138010
	C190	C	0.818847	0.388932	0.136690
	C191	C	0.819695	0.610740	0.887227
	C192	C	0.401289	0.091046	0.605596
	C193	C	0.593872	0.907542	0.605831
	C194	C	0.596416	0.089447	0.415076
	C195	C	0.403353	0.907573	0.417326
	C196	C	0.597529	0.402846	0.104267
	C197	C	0.597896	0.595266	0.919787
	C198	C	0.405679	0.593068	0.102857
	C199	C	0.403369	0.404746	0.918982
	C200	C	0.089626	0.595004	0.415792
	C201	C	0.910000	0.593980	0.608888
	C202	C	0.090974	0.400902	0.609771
	C203	C	0.909093	0.401941	0.415346
	C204	C	0.904222	0.591665	0.106861
	C205	C	0.097556	0.407827	0.108039
	C206	C	0.097236	0.591466	0.917011
	C207	C	0.904596	0.408210	0.918695
	C208	C	0.094823	0.903253	0.602395
	C209	C	0.094361	0.093501	0.419203
	C210	C	0.901647	0.093215	0.603568
	C211	C	0.902872	0.903062	0.419834
	C212	C	0.591601	0.098541	0.911436
	C213	C	0.409760	0.095951	0.107538
	C214	C	0.589845	0.904051	0.106396
	C215	C	0.410003	0.904728	0.916372
	Zn216	Zn	0.498729	0.000588	0.759587
	Zn217	Zn	0.499773	-0.001524	0.261849
	Zn218	Zn	0.750570	0.500032	0.012416
	Zn219	Zn	0.251219	0.499989	0.012524
	Zn220	Zn	-0.001166	0.748832	0.511535
	Zn221	Zn	-0.001028	0.247974	0.512416
	Zn222	Zn	0.000982	0.498845	0.763931
	Zn223	Zn	-0.000205	0.499043	0.261067
	Zn224	Zn	0.500841	0.748886	0.011484
	Zn225	Zn	0.501272	0.251122	0.011381
	Zn226	Zn	0.748669	-0.002515	0.511155
	Zn227	Zn	0.248066	-0.001745	0.510885
	N228	N	0.411340	0.964009	0.691365
	N229	N	0.583332	0.036340	0.687255
	N230	N	0.587286	0.962647	0.330342
	N231	N	0.414109	0.035053	0.332565
	N232	N	0.682837	0.411458	0.977805
	N233	N	0.682010	0.588136	0.047212
	N234	N	0.318852	0.589310	0.977521
	N235	N	0.319444	0.411095	0.046557
	N236	N	0.963467	0.678679	0.424895
	N237	N	0.034722	0.680462	0.600325
	N238	N	0.963908	0.318033	0.599978
	N239	N	0.034407	0.316683	0.423449
	N240	N	0.965376	0.410305	0.695006
	N241	N	0.036594	0.585199	0.692288
	N242	N	0.964075	0.586488	0.330850
	N243	N	0.035252	0.412023	0.331573
	N244	N	0.415615	0.677791	0.975315
	N245	N	0.587845	0.679353	0.047203
	N246	N	0.587088	0.321661	0.975085
	N247	N	0.415416	0.321567	0.047877
	N248	N	0.681748	0.963114	0.421360
	N249	N	0.680530	0.033290	0.598953
	N250	N	0.316490	0.963965	0.600071
	N251	N	0.317237	0.033506	0.422072
	N252	N	0.915009	0.462922	0.189838
	N253	N	0.086448	0.535705	0.191090
	N254	N	0.086217	0.463020	0.834884
	N255	N	0.915428	0.535986	0.833779
	N256	N	0.180134	0.909412	0.475700
	N257	N	0.179183	0.086194	0.545951
	N258	N	0.818731	0.085465	0.475494
	N259	N	0.817104	0.909156	0.546190
	N260	N	0.464997	0.181729	0.923396
	N261	N	0.536812	0.178675	0.096439
	N262	N	0.465428	0.817073	0.099952
	N263	N	0.535751	0.820129	0.924209
	N264	N	0.464327	0.911285	0.191972
	N265	N	0.535612	0.087152	0.192181
	N266	N	0.464089	0.088329	0.829807
	N267	N	0.534889	0.913967	0.830175
	N268	N	0.912958	0.177553	0.475570
	N269	N	0.084083	0.176141	0.547598
	N270	N	0.084635	0.819378	0.474839
	N271	N	0.912832	0.819157	0.547994
	N272	N	0.181870	0.464865	0.925039
	N273	N	0.183111	0.534265	0.101501
	N274	N	0.818920	0.465098	0.100788
	N275	N	0.820255	0.535178	0.924413
	O276	O	0.468676	0.299586	0.488660
	H277	H	0.470755	0.307300	0.510587
	H278	H	0.452581	0.285863	0.508348
	O279	O	0.479706	0.710595	0.299721
	H280	H	0.484046	0.725747	0.290596
	H281	H	0.457422	0.712899	0.293396
	O282	O	0.540465	0.538344	0.325469
	H283	H	0.520812	0.539792	0.334948
	H284	H	0.525815	0.541645	0.324039
	O285	O	1.008664	1.129828	-0.121723
	H286	H	1.001180	1.131776	-0.141125
	H287	H	1.024616	1.133097	-0.110395
	O288	O	0.474892	0.309561	0.342420
	H289	H	0.472408	0.310920	0.329174
	H290	H	0.450554	0.310336	0.376858
	O291	O	0.543842	0.399300	0.501605
	H292	H	0.546631	0.385534	0.493715
	H293	H	0.545302	0.421136	0.496889
	O294	O	0.843637	1.086415	0.804303
	H295	H	0.826708	1.095150	0.784513
	H296	H	0.830625	1.067479	0.828927
	O297	O	0.532509	0.507613	0.465379
	H298	H	0.537323	0.498802	0.468663
	H299	H	0.537595	0.512958	0.477408
	O300	O	0.707213	0.307618	0.484856
	H301	H	0.721910	0.292264	0.460248
	H302	H	0.712067	0.308799	0.458522
	O303	O	0.279012	0.479283	0.716667
	H304	H	0.252737	0.480073	0.753022
	H305	H	0.305321	0.476162	0.718052
	O306	O	0.125632	0.173447	1.114955
	H307	H	0.134733	0.165707	1.095289
	H308	H	0.101910	0.177563	1.122698
	O309	O	0.820209	-0.199713	0.102799
	H310	H	0.812074	-0.203922	0.106063
	H311	H	0.803702	-0.198662	0.116318
	O312	O	0.293200	0.517976	0.310259
	H313	H	0.291185	0.500465	0.310332
	H314	H	0.283105	0.516463	0.305208
	O315	O	0.314401	0.326186	0.682712
	H316	H	0.318194	0.345078	0.700038
	H317	H	0.330149	0.328293	0.681839
	O318	O	0.175528	-0.010218	0.204026
	H319	H	0.189680	0.012670	0.209696
	H320	H	0.173217	0.002055	0.208883
	O321	O	0.909095	-0.047503	0.031639
	H322	H	0.911506	-0.063653	0.034969
	H323	H	0.909974	-0.057803	0.054215
	O324	O	0.906227	0.114070	0.812570
	H325	H	0.896587	0.092770	0.813850
	H326	H	0.893332	0.116649	0.815545
	O327	O	0.663146	0.316166	0.343095
	H328	H	0.624866	0.315031	0.334714
	H329	H	0.673594	0.345819	0.335231
	O330	O	-0.017648	0.871819	1.016500
	H331	H	-0.025469	0.867697	1.006292
	H332	H	-0.015002	0.870943	1.024055
	O333	O	0.190150	0.810432	-0.128243
	H334	H	0.203255	0.815919	-0.108659
	H335	H	0.175746	0.816147	-0.109123
	O336	O	1.076190	0.872171	0.162814
	H337	H	1.077440	0.854357	0.172867
	H338	H	1.065596	0.883576	0.173170
	O339	O	-0.031305	1.107197	0.851664
	H340	H	-0.035434	1.107624	0.846616
	H341	H	-0.058702	1.103578	0.854171
	O342	O	0.385376	0.549574	0.556898
	H343	H	0.381523	0.546060	0.546751
	H344	H	0.389027	0.537439	0.580199
	O345	O	-0.014534	-0.100602	1.177798
	H346	H	-0.019633	-0.101608	1.182379
	H347	H	0.002373	-0.113665	1.178314
	O348	O	0.626945	0.438702	0.649718
	H349	H	0.642694	0.424120	0.633334
	H350	H	0.632872	0.438988	0.631663
	O351	O	0.926223	0.829237	0.004398
	H352	H	0.931271	0.820374	-0.014152
	H353	H	0.916329	0.821581	0.002206
	O354	O	1.180797	1.146770	0.900327
	H355	H	1.187479	1.156645	0.923955
	H356	H	1.163497	1.131228	0.886349
	O357	O	0.206909	-0.054962	-0.189402
	H358	H	0.214396	-0.047109	-0.199548
	H359	H	0.211831	-0.051847	-0.192162
	O360	O	0.683437	0.684891	0.696158
	H361	H	0.685529	0.668620	0.701965
	H362	H	0.662728	0.667598	0.708833
	O363	O	0.965654	0.141286	0.187651
	H364	H	0.958219	0.138763	0.191013
	H365	H	0.947867	0.140302	0.198824
	O366	O	0.022265	-0.207458	0.805813
	H367	H	0.039864	-0.196869	0.796891
	H368	H	0.037097	-0.219804	0.783774
	O369	O	0.482172	0.685922	0.529486
	H370	H	0.508459	0.686270	0.510332
	H371	H	0.445540	0.682876	0.509920
	O372	O	0.473030	0.353192	0.717420
	H373	H	0.459109	0.375845	0.710061
	H374	H	0.473111	0.340276	0.721694
	O375	O	0.045342	-0.099050	0.886084
	H376	H	0.041658	-0.103922	0.888149
	H377	H	0.047727	-0.074823	0.891130
	O378	O	0.067626	0.049951	0.086251
	H379	H	0.072290	0.060910	0.074537
	H380	H	0.068338	0.034399	0.087715
	O381	O	0.125741	1.145749	0.073910
	H382	H	0.112330	1.125750	0.075895
	H383	H	0.129656	1.157876	0.082762
	O384	O	0.503299	0.689543	0.699574
	H385	H	0.501987	0.694846	0.670072
	H386	H	0.501429	0.714252	0.707848
	O387	O	0.650155	0.536552	0.706831
	H388	H	0.653225	0.526319	0.681703
	H389	H	0.654095	0.514216	0.713513
	O390	O	0.958708	1.040521	0.217638
	H391	H	0.958839	1.036297	0.211988
	H392	H	0.940137	1.052681	0.221018
	O393	O	0.638274	0.603822	0.471773
	H394	H	0.648194	0.606810	0.470607
	H395	H	0.637608	0.616282	0.453548
	O396	O	0.492041	0.371229	0.607492
	H397	H	0.491950	0.360937	0.634677
	H398	H	0.503029	0.394376	0.611399
	O399	O	0.685967	0.481808	0.500456
	H400	H	0.692718	0.473804	0.489821
	H401	H	0.674072	0.501858	0.486097
	O402	O	0.873619	0.944909	0.125660
	H403	H	0.890569	0.947692	0.108243
	H404	H	0.856997	0.951085	0.134222
	O405	O	0.285503	0.711017	0.484208
	H406	H	0.286630	0.685589	0.486691
	H407	H	0.250172	0.738529	0.482183
	O408	O	0.394544	0.442249	0.366874
	H409	H	0.400623	0.440045	0.370391
	H410	H	0.392773	0.433502	0.384624
	O411	O	1.202885	0.997049	1.004028
	H412	H	1.198315	0.993323	1.003899
	H413	H	1.192144	1.002239	1.002998
	O414	O	0.706081	0.479939	0.321855
	H415	H	0.729973	0.487111	0.301655
	H416	H	0.672018	0.496167	0.322523
	O417	O	-0.176737	0.842884	1.083968
	H418	H	-0.185442	0.869603	1.091700
	H419	H	-0.142841	0.835477	1.086214
	O420	O	-0.136866	1.102272	0.969022
	H421	H	-0.132924	1.110586	0.983979
	H422	H	-0.124548	1.112403	0.961934
	O423	O	-0.077844	1.145453	0.028657
	H424	H	-0.071155	1.141921	0.028128
	H425	H	-0.067391	1.138916	0.039710
	O426	O	0.319870	0.676982	0.325323
	H427	H	0.332784	0.677746	0.335530
	H428	H	0.307594	0.646084	0.331946
	O429	O	0.711389	0.711972	0.534278
	H430	H	0.699181	0.702474	0.567065
	H431	H	0.738433	0.744672	0.543725
	O432	O	0.290699	0.285739	0.538697
	H433	H	0.291176	0.300362	0.568923
	H434	H	0.273214	0.262134	0.559779
	O435	O	-0.131125	0.065820	0.017042
	H436	H	-0.126586	0.069164	0.013493
	H437	H	-0.119245	0.079252	0.012090
	O438	O	0.317400	0.512585	0.493480
	H439	H	0.321464	0.489968	0.500213
	H440	H	0.323514	0.507461	0.509417
	O441	O	0.412296	0.567990	0.719617
	H442	H	0.419407	0.597107	0.717612
	H443	H	0.428276	0.559649	0.719607
