data_Molecule from HDF5

_cell_length_a		16.310371
_cell_length_b		16.376127
_cell_length_c		16.276604
_cell_angle_alpha	90.023483
_cell_angle_beta	89.991528
_cell_angle_gamma	90.012173
_symmetry_space_group_name_H-M	'P 1'
_symmetry_Int_Tables_number		1

loop_
	_symmetry_equiv_pos_as_xyz
	x,y,z

loop_
	_atom_site_label
	_atom_site_type_symbol
	_atom_site_fract_x
	_atom_site_fract_y
	_atom_site_fract_z
	H0	H	0.402563	0.836908	0.714506
	H1	H	0.597495	0.163483	0.714398
	H2	H	0.597048	0.836407	0.286951
	H3	H	0.403044	0.162806	0.285838
	H4	H	0.713855	0.403657	0.835919
	H5	H	0.712592	0.596986	0.164197
	H6	H	0.285769	0.597748	0.836540
	H7	H	0.286604	0.402410	0.164167
	H8	H	0.836381	0.715417	0.400781
	H9	H	0.163068	0.715973	0.598392
	H10	H	0.837182	0.284387	0.599372
	H11	H	0.162634	0.284269	0.400128
	H12	H	0.836348	0.402924	0.713463
	H13	H	0.163517	0.597803	0.712613
	H14	H	0.836213	0.597675	0.286047
	H15	H	0.163805	0.403067	0.286920
	H16	H	0.401109	0.714709	0.836600
	H17	H	0.598304	0.714148	0.163853
	H18	H	0.598921	0.285689	0.836426
	H19	H	0.401592	0.284784	0.163039
	H20	H	0.715170	0.837001	0.402083
	H21	H	0.714809	0.162943	0.597935
	H22	H	0.284319	0.837290	0.599355
	H23	H	0.284677	0.162864	0.400705
	H24	H	0.902261	0.336790	0.214493
	H25	H	0.097213	0.663389	0.214388
	H26	H	0.098092	0.337152	0.785144
	H27	H	0.902747	0.662854	0.785180
	H28	H	0.212559	0.902686	0.335795
	H29	H	0.214075	0.097998	0.663977
	H30	H	0.785463	0.098035	0.336530
	H31	H	0.786087	0.902192	0.664012
	H32	H	0.336796	0.213705	0.901575
	H33	H	0.663604	0.214378	0.097762
	H34	H	0.337171	0.784617	0.098424
	H35	H	0.663429	0.784344	0.900580
	H36	H	0.336536	0.902915	0.213181
	H37	H	0.664951	0.096135	0.212451
	H38	H	0.336505	0.097144	0.785708
	H39	H	0.663695	0.903211	0.786485
	H40	H	0.901118	0.214507	0.336427
	H41	H	0.099890	0.216053	0.663263
	H42	H	0.097049	0.786154	0.336080
	H43	H	0.900039	0.784284	0.663221
	H44	H	0.215210	0.337421	0.901441
	H45	H	0.215206	0.662441	0.098919
	H46	H	0.784910	0.337435	0.098516
	H47	H	0.785218	0.663137	0.901320
	H48	H	0.401055	0.115043	0.588878
	H49	H	0.600125	0.882892	0.591330
	H50	H	0.595615	0.112484	0.417838
	H51	H	0.413489	0.885020	0.404375
	H52	H	0.592297	0.404443	0.117120
	H53	H	0.593198	0.596983	0.882358
	H54	H	0.405530	0.594953	0.117282
	H55	H	0.406063	0.400344	0.881111
	H56	H	0.117708	0.595570	0.402862
	H57	H	0.881524	0.597104	0.594553
	H58	H	0.118853	0.404727	0.598181
	H59	H	0.886284	0.407412	0.414745
	H60	H	0.115790	0.402318	0.586490
	H61	H	0.885348	0.594009	0.589169
	H62	H	0.115715	0.597235	0.410070
	H63	H	0.884498	0.413525	0.403553
	H64	H	0.406796	0.589932	0.116117
	H65	H	0.596291	0.591815	0.882806
	H66	H	0.594828	0.406818	0.117169
	H67	H	0.401730	0.410871	0.883366
	H68	H	0.602511	0.120131	0.400689
	H69	H	0.591912	0.883425	0.600132
	H70	H	0.406995	0.117576	0.599347
	H71	H	0.404162	0.885812	0.414684
	H72	H	0.903468	0.616402	0.093162
	H73	H	0.097950	0.383774	0.090025
	H74	H	0.085427	0.612527	0.908924
	H75	H	0.917933	0.388037	0.909253
	H76	H	0.089121	0.905813	0.615603
	H77	H	0.083700	0.100358	0.384623
	H78	H	0.898928	0.095505	0.619560
	H79	H	0.905588	0.911673	0.384625
	H80	H	0.614597	0.090173	0.908797
	H81	H	0.380770	0.099307	0.098518
	H82	H	0.618493	0.908196	0.099469
	H83	H	0.383894	0.910745	0.901085
	H84	H	0.617953	0.899535	0.091048
	H85	H	0.385687	0.095212	0.084682
	H86	H	0.617750	0.093091	0.902670
	H87	H	0.381816	0.898495	0.906452
	H88	H	0.908844	0.084074	0.613346
	H89	H	0.101863	0.096034	0.379526
	H90	H	0.095064	0.903612	0.617921
	H91	H	0.911762	0.905550	0.385312
	H92	H	0.098938	0.616033	0.913368
	H93	H	0.093409	0.382460	0.099183
	H94	H	0.906865	0.616445	0.095964
	H95	H	0.898826	0.385100	0.915610
	H96	H	0.412307	0.112530	0.590117
	H97	H	0.589449	0.886865	0.589178
	H98	H	0.583612	0.113922	0.401931
	H99	H	0.400318	0.881786	0.402184
	H100	H	0.592126	0.407657	0.115521
	H101	H	0.589898	0.592262	0.884456
	H102	H	0.409914	0.593530	0.115323
	H103	H	0.412785	0.408754	0.885678
	H104	H	0.114976	0.590134	0.407344
	H105	H	0.884529	0.590427	0.595086
	H106	H	0.113436	0.413546	0.591236
	H107	H	0.881303	0.400612	0.404659
	H108	H	0.907378	0.614987	0.091796
	H109	H	0.088262	0.386927	0.091096
	H110	H	0.095170	0.618420	0.899839
	H111	H	0.903714	0.380851	0.896395
	H112	H	0.094515	0.909742	0.616330
	H113	H	0.091050	0.082617	0.387660
	H114	H	0.914219	0.099014	0.615988
	H115	H	0.904542	0.903559	0.381618
	H116	H	0.616799	0.097237	0.908431
	H117	H	0.385607	0.085312	0.096130
	H118	H	0.613633	0.910725	0.088128
	H119	H	0.386879	0.908625	0.914241
	C120	C	0.378474	0.007751	0.621539
	C121	C	0.622030	0.991954	0.621708
	C122	C	0.621831	0.007954	0.378627
	C123	C	0.378086	0.991704	0.378561
	C124	C	0.621653	0.378485	0.008324
	C125	C	0.621409	0.621711	0.991587
	C126	C	0.378830	0.620947	0.008345
	C127	C	0.378407	0.378486	0.991630
	C128	C	0.008157	0.622419	0.378084
	C129	C	0.991800	0.622292	0.621306
	C130	C	0.008255	0.378534	0.620703
	C131	C	0.991681	0.378653	0.378609
	C132	C	0.877926	0.508190	0.121971
	C133	C	0.121765	0.492034	0.122048
	C134	C	0.121742	0.508317	0.878602
	C135	C	0.878504	0.492030	0.878353
	C136	C	0.121276	0.878332	0.508116
	C137	C	0.121189	0.121646	0.492123
	C138	C	0.878758	0.121035	0.508195
	C139	C	0.878583	0.878535	0.491720
	C140	C	0.508134	0.121389	0.878503
	C141	C	0.492204	0.121542	0.121634
	C142	C	0.508616	0.878186	0.121315
	C143	C	0.492178	0.878049	0.878649
	C144	C	0.381682	0.885266	0.676672
	C145	C	0.618755	0.114637	0.676720
	C146	C	0.618589	0.885280	0.323968
	C147	C	0.381721	0.114263	0.323489
	C148	C	0.676357	0.382001	0.884943
	C149	C	0.675619	0.618306	0.115130
	C150	C	0.323989	0.618385	0.885160
	C151	C	0.323913	0.381455	0.115017
	C152	C	0.885108	0.677356	0.380595
	C153	C	0.114454	0.677497	0.618617
	C154	C	0.885505	0.322907	0.619148
	C155	C	0.114377	0.322917	0.380168
	C156	C	0.885410	0.381398	0.676003
	C157	C	0.114797	0.619128	0.675763
	C158	C	0.885157	0.618915	0.323494
	C159	C	0.114882	0.381767	0.323953
	C160	C	0.381093	0.676544	0.885465
	C161	C	0.618917	0.676600	0.114825
	C162	C	0.619087	0.323788	0.885035
	C163	C	0.381221	0.323306	0.114722
	C164	C	0.677001	0.885373	0.381379
	C165	C	0.676902	0.114524	0.618926
	C166	C	0.322762	0.885713	0.619695
	C167	C	0.323026	0.114392	0.380578
	C168	C	0.880892	0.385700	0.177015
	C169	C	0.118563	0.614434	0.176899
	C170	C	0.119227	0.385730	0.823087
	C171	C	0.881440	0.614387	0.822777
	C172	C	0.175165	0.882137	0.384620
	C173	C	0.176125	0.118535	0.615114
	C174	C	0.823525	0.118480	0.385031
	C175	C	0.823699	0.881343	0.615166
	C176	C	0.385388	0.176013	0.881241
	C177	C	0.615090	0.176447	0.118594
	C178	C	0.385731	0.823056	0.119047
	C179	C	0.614854	0.823176	0.880820
	C180	C	0.385451	0.881735	0.175870
	C181	C	0.615443	0.117850	0.175626
	C182	C	0.385387	0.118160	0.823672
	C183	C	0.615120	0.882059	0.823920
	C184	C	0.880971	0.176314	0.385072
	C185	C	0.119325	0.177328	0.614650
	C186	C	0.118250	0.823692	0.384995
	C187	C	0.880539	0.823039	0.614723
	C188	C	0.177088	0.385824	0.880913
	C189	C	0.177204	0.614049	0.119723
	C190	C	0.822922	0.385740	0.119205
	C191	C	0.823326	0.614489	0.880731
	C192	C	0.400426	0.093006	0.599365
	C193	C	0.600340	0.906306	0.599846
	C194	C	0.600291	0.093436	0.400547
	C195	C	0.399659	0.906276	0.400677
	C196	C	0.599568	0.399900	0.094433
	C197	C	0.599727	0.600049	0.905458
	C198	C	0.400850	0.598972	0.094260
	C199	C	0.400491	0.400210	0.905473
	C200	C	0.094080	0.600663	0.400278
	C201	C	0.905859	0.600424	0.599322
	C202	C	0.093900	0.400371	0.598510
	C203	C	0.906089	0.400631	0.400957
	C204	C	0.899473	0.593864	0.100074
	C205	C	0.099617	0.406379	0.099898
	C206	C	0.099555	0.593436	0.900792
	C207	C	0.900415	0.406862	0.900520
	C208	C	0.099297	0.900145	0.594597
	C209	C	0.098794	0.099452	0.406028
	C210	C	0.900751	0.099309	0.594142
	C211	C	0.900654	0.900602	0.405845
	C212	C	0.594197	0.099864	0.900275
	C213	C	0.406191	0.099726	0.099517
	C214	C	0.594682	0.899691	0.099409
	C215	C	0.406166	0.899416	0.900740
	Zn216	Zn	0.500192	0.000034	0.750241
	Zn217	Zn	0.500461	-0.000279	0.249715
	Zn218	Zn	0.749287	0.500358	0.000225
	Zn219	Zn	0.250107	0.500089	0.000240
	Zn220	Zn	-0.000443	0.750535	0.499793
	Zn221	Zn	-0.000468	0.250119	0.499620
	Zn222	Zn	0.000448	0.500032	0.749435
	Zn223	Zn	-0.000369	0.499827	0.250720
	Zn224	Zn	0.500062	0.749216	0.000305
	Zn225	Zn	0.499916	0.250167	-0.000227
	Zn226	Zn	0.750723	-0.000067	0.500300
	Zn227	Zn	0.249288	-0.000098	0.499901
	N228	N	0.415417	0.962199	0.678003
	N229	N	0.585524	0.037437	0.678616
	N230	N	0.585134	0.962342	0.322182
	N231	N	0.415111	0.037106	0.322006
	N232	N	0.677764	0.415502	0.962438
	N233	N	0.676984	0.584721	0.037532
	N234	N	0.322390	0.584653	0.962430
	N235	N	0.322136	0.414906	0.037502
	N236	N	0.962735	0.679705	0.413703
	N237	N	0.036972	0.679455	0.585498
	N238	N	0.962858	0.321068	0.585497
	N239	N	0.036891	0.320948	0.413664
	N240	N	0.962557	0.415308	0.677073
	N241	N	0.037587	0.585292	0.677248
	N242	N	0.962390	0.585300	0.322276
	N243	N	0.037628	0.415501	0.322725
	N244	N	0.414565	0.678142	0.963036
	N245	N	0.585896	0.678659	0.037091
	N246	N	0.585947	0.321440	0.962698
	N247	N	0.414276	0.321304	0.036989
	N248	N	0.678988	0.962530	0.414746
	N249	N	0.678951	0.037332	0.585652
	N250	N	0.320540	0.962777	0.586330
	N251	N	0.320632	0.037203	0.414103
	N252	N	0.914302	0.462759	0.178731
	N253	N	0.084738	0.537523	0.178374
	N254	N	0.085530	0.462685	0.821463
	N255	N	0.914932	0.537385	0.821203
	N256	N	0.176923	0.915330	0.462338
	N257	N	0.177102	0.084577	0.537882
	N258	N	0.822078	0.084888	0.462394
	N259	N	0.822512	0.915153	0.537874
	N260	N	0.462893	0.177923	0.914602
	N261	N	0.537364	0.178895	0.085848
	N262	N	0.463187	0.820929	0.085643
	N263	N	0.537326	0.820487	0.913802
	N264	N	0.462731	0.915459	0.177120
	N265	N	0.538002	0.084423	0.177466
	N266	N	0.462668	0.084741	0.822102
	N267	N	0.537909	0.915749	0.822832
	N268	N	0.914758	0.177890	0.462497
	N269	N	0.085927	0.179312	0.537042
	N270	N	0.085613	0.821307	0.462722
	N271	N	0.914026	0.821415	0.537117
	N272	N	0.178752	0.462829	0.914563
	N273	N	0.179149	0.536896	0.086463
	N274	N	0.820856	0.462950	0.085757
	N275	N	0.821441	0.537522	0.914671
