data_Molecule from HDF5

_cell_length_a		16.455435
_cell_length_b		16.294771
_cell_length_c		16.292427
_cell_angle_alpha	89.917791
_cell_angle_beta	90.187537
_cell_angle_gamma	90.030508
_symmetry_space_group_name_H-M	'P 1'
_symmetry_Int_Tables_number		1

loop_
	_symmetry_equiv_pos_as_xyz
	x,y,z

loop_
	_atom_site_label
	_atom_site_type_symbol
	_atom_site_fract_x
	_atom_site_fract_y
	_atom_site_fract_z
	H0	H	0.408073	0.837672	0.733601
	H1	H	0.608198	0.162897	0.736354
	H2	H	0.605448	0.839068	0.302141
	H3	H	0.402402	0.163208	0.300155
	H4	H	0.724267	0.398261	0.855550
	H5	H	0.727274	0.606073	0.177416
	H6	H	0.286468	0.607094	0.856307
	H7	H	0.285806	0.397978	0.177383
	H8	H	0.845606	0.718945	0.413070
	H9	H	0.165908	0.719096	0.619081
	H10	H	0.846457	0.281755	0.618229
	H11	H	0.166886	0.281676	0.415199
	H12	H	0.845426	0.398917	0.733952
	H13	H	0.165267	0.604065	0.736322
	H14	H	0.845212	0.602164	0.298144
	H15	H	0.166576	0.397734	0.298516
	H16	H	0.404939	0.719784	0.856116
	H17	H	0.609192	0.718074	0.180256
	H18	H	0.604834	0.285388	0.854410
	H19	H	0.404466	0.284746	0.178753
	H20	H	0.723967	0.839630	0.415093
	H21	H	0.726965	0.161573	0.623617
	H22	H	0.287282	0.839700	0.623543
	H23	H	0.285681	0.161971	0.415224
	H24	H	0.905652	0.338217	0.232323
	H25	H	0.107130	0.662054	0.235031
	H26	H	0.103814	0.338559	0.802131
	H27	H	0.903245	0.663388	0.798346
	H28	H	0.225633	0.896310	0.357775
	H29	H	0.224797	0.103431	0.679247
	H30	H	0.786164	0.103032	0.358345
	H31	H	0.787859	0.894540	0.679155
	H32	H	0.345876	0.221916	0.911206
	H33	H	0.665329	0.220292	0.119653
	H34	H	0.347354	0.779763	0.123307
	H35	H	0.667822	0.784415	0.918713
	H36	H	0.345401	0.899304	0.235812
	H37	H	0.665444	0.104308	0.237725
	H38	H	0.346019	0.104356	0.796812
	H39	H	0.666903	0.898365	0.800145
	H40	H	0.904062	0.217143	0.356701
	H41	H	0.109104	0.218706	0.679565
	H42	H	0.104290	0.786554	0.353964
	H43	H	0.906313	0.782060	0.678982
	H44	H	0.225527	0.341798	0.911455
	H45	H	0.225212	0.662119	0.121158
	H46	H	0.787737	0.340052	0.119037
	H47	H	0.787853	0.663775	0.913476
	H48	H	0.411473	0.115238	0.603290
	H49	H	0.608157	0.883324	0.608599
	H50	H	0.594650	0.115971	0.427239
	H51	H	0.420140	0.886763	0.422175
	H52	H	0.597030	0.406328	0.133467
	H53	H	0.595902	0.590345	0.903100
	H54	H	0.421682	0.586856	0.129066
	H55	H	0.420225	0.413254	0.903242
	H56	H	0.118642	0.582937	0.420920
	H57	H	0.889516	0.584702	0.618349
	H58	H	0.120733	0.415211	0.616213
	H59	H	0.892180	0.406494	0.425180
	H60	H	0.123308	0.401465	0.609454
	H61	H	0.888467	0.604100	0.604765
	H62	H	0.123795	0.599627	0.419495
	H63	H	0.892918	0.409292	0.426533
	H64	H	0.414474	0.597651	0.134387
	H65	H	0.594315	0.593191	0.903038
	H66	H	0.602032	0.414274	0.132236
	H67	H	0.412946	0.406793	0.899608
	H68	H	0.596272	0.113888	0.432963
	H69	H	0.592917	0.884139	0.618864
	H70	H	0.413650	0.117234	0.612472
	H71	H	0.416399	0.889096	0.435475
	H72	H	0.910997	0.617663	0.107451
	H73	H	0.096148	0.384279	0.112795
	H74	H	0.104582	0.619098	0.927002
	H75	H	0.918919	0.386011	0.919044
	H76	H	0.101272	0.910797	0.633784
	H77	H	0.100186	0.090693	0.401720
	H78	H	0.916358	0.094053	0.635228
	H79	H	0.912135	0.915659	0.403485
	H80	H	0.620777	0.092833	0.922824
	H81	H	0.392556	0.087793	0.109425
	H82	H	0.621767	0.908020	0.112400
	H83	H	0.392684	0.908359	0.928767
	H84	H	0.619605	0.909350	0.108591
	H85	H	0.389270	0.096002	0.112489
	H86	H	0.618142	0.096838	0.932505
	H87	H	0.394038	0.911520	0.927343
	H88	H	0.912858	0.088296	0.634207
	H89	H	0.096211	0.085304	0.405374
	H90	H	0.093815	0.912423	0.631142
	H91	H	0.918587	0.909417	0.404109
	H92	H	0.092016	0.618898	0.918781
	H93	H	0.091691	0.388357	0.103288
	H94	H	0.918683	0.615461	0.110150
	H95	H	0.915839	0.389947	0.934407
	H96	H	0.420504	0.113429	0.605940
	H97	H	0.592296	0.890120	0.601435
	H98	H	0.599675	0.116459	0.428740
	H99	H	0.407217	0.884173	0.426894
	H100	H	0.593529	0.414235	0.129526
	H101	H	0.597487	0.593618	0.902126
	H102	H	0.408293	0.585390	0.133107
	H103	H	0.411013	0.416261	0.901970
	H104	H	0.117307	0.593680	0.434863
	H105	H	0.897894	0.583645	0.595157
	H106	H	0.117101	0.413126	0.601125
	H107	H	0.892560	0.408984	0.423578
	H108	H	0.916391	0.614806	0.102143
	H109	H	0.102409	0.385184	0.103331
	H110	H	0.091825	0.613227	0.932981
	H111	H	0.904598	0.382886	0.925459
	H112	H	0.095467	0.905101	0.633824
	H113	H	0.093175	0.092267	0.403138
	H114	H	0.919185	0.088710	0.632063
	H115	H	0.910481	0.907802	0.400838
	H116	H	0.616303	0.086588	0.930695
	H117	H	0.392326	0.095198	0.104312
	H118	H	0.619755	0.912331	0.112344
	H119	H	0.391355	0.908633	0.925150
	C120	C	0.385388	0.008630	0.638957
	C121	C	0.628667	0.992299	0.640806
	C122	C	0.626918	0.008970	0.398272
	C123	C	0.383596	0.993038	0.397039
	C124	C	0.627115	0.380820	0.024867
	C125	C	0.627193	0.622535	1.009417
	C126	C	0.384213	0.623017	0.026366
	C127	C	0.383718	0.380718	1.008250
	C128	C	0.014011	0.622221	0.394544
	C129	C	0.997200	0.622476	0.637597
	C130	C	0.014655	0.378923	0.639114
	C131	C	0.998446	0.377812	0.394861
	C132	C	0.884763	0.509476	0.137557
	C133	C	0.127208	0.492666	0.137565
	C134	C	0.126420	0.510098	0.895557
	C135	C	0.883118	0.493401	0.895185
	C136	C	0.126945	0.879205	0.525876
	C137	C	0.127360	0.120895	0.509717
	C138	C	0.884757	0.121284	0.527436
	C139	C	0.883991	0.878869	0.509280
	C140	C	0.513147	0.122847	0.896338
	C141	C	0.496794	0.123710	0.139786
	C142	C	0.514812	0.878681	0.141273
	C143	C	0.498804	0.879598	0.897496
	C144	C	0.387125	0.886735	0.696332
	C145	C	0.628415	0.114139	0.698159
	C146	C	0.625768	0.887780	0.340407
	C147	C	0.383198	0.114408	0.338937
	C148	C	0.684496	0.379998	0.903607
	C149	C	0.686840	0.623597	0.130177
	C150	C	0.325666	0.625475	0.904806
	C151	C	0.325400	0.379361	0.129261
	C152	C	0.893722	0.679861	0.394239
	C153	C	0.117816	0.680186	0.638337
	C154	C	0.894230	0.320720	0.638243
	C155	C	0.118685	0.320251	0.395300
	C156	C	0.893635	0.379219	0.695608
	C157	C	0.117371	0.623151	0.696921
	C158	C	0.893223	0.621689	0.336926
	C159	C	0.118499	0.378239	0.337303
	C160	C	0.384825	0.681430	0.904675
	C161	C	0.628049	0.679520	0.131504
	C162	C	0.625652	0.323209	0.903263
	C163	C	0.384316	0.323054	0.130073
	C164	C	0.684715	0.887864	0.396717
	C165	C	0.687368	0.113395	0.642069
	C166	C	0.327430	0.887453	0.640967
	C167	C	0.325396	0.114027	0.396582
	C168	C	0.885497	0.387270	0.194538
	C169	C	0.126838	0.613999	0.195952
	C170	C	0.124615	0.387834	0.839240
	C171	C	0.883762	0.614868	0.837068
	C172	C	0.185730	0.878052	0.405329
	C173	C	0.185616	0.122028	0.631253
	C174	C	0.825771	0.121974	0.406405
	C175	C	0.826750	0.876366	0.630654
	C176	C	0.393578	0.181734	0.893732
	C177	C	0.617596	0.181297	0.139627
	C178	C	0.394917	0.819656	0.141943
	C179	C	0.619549	0.822669	0.898678
	C180	C	0.393832	0.879234	0.197858
	C181	C	0.617407	0.123695	0.198304
	C182	C	0.393535	0.123305	0.836700
	C183	C	0.619090	0.879529	0.839621
	C184	C	0.884474	0.178684	0.405511
	C185	C	0.127981	0.179196	0.631324
	C186	C	0.125448	0.823346	0.403433
	C187	C	0.885827	0.820461	0.630629
	C188	C	0.185051	0.389187	0.893919
	C189	C	0.185683	0.613830	0.139544
	C190	C	0.827005	0.388094	0.137913
	C191	C	0.826172	0.615137	0.894411
	C192	C	0.408528	0.093369	0.614357
	C193	C	0.604749	0.907760	0.616722
	C194	C	0.603615	0.093581	0.422672
	C195	C	0.407660	0.908533	0.421311
	C196	C	0.604135	0.404721	0.109899
	C197	C	0.602946	0.599006	0.924987
	C198	C	0.408084	0.597508	0.110369
	C199	C	0.407846	0.405146	0.923597
	C200	C	0.098082	0.598968	0.418321
	C201	C	0.913608	0.597927	0.613171
	C202	C	0.098517	0.402937	0.615631
	C203	C	0.914172	0.401568	0.418417
	C204	C	0.908293	0.594075	0.113507
	C205	C	0.103745	0.408006	0.113300
	C206	C	0.103001	0.595053	0.919468
	C207	C	0.906214	0.408353	0.919437
	C208	C	0.103670	0.902737	0.610882
	C209	C	0.103365	0.096607	0.425508
	C210	C	0.909020	0.097286	0.611884
	C211	C	0.906858	0.903837	0.424733
	C212	C	0.596677	0.098887	0.921503
	C213	C	0.413103	0.100003	0.115763
	C214	C	0.598655	0.902866	0.117915
	C215	C	0.414559	0.903017	0.920284
	Zn216	Zn	0.506033	0.001135	0.767750
	Zn217	Zn	0.505449	0.001613	0.269190
	Zn218	Zn	0.755931	0.502044	0.016578
	Zn219	Zn	0.255389	0.501973	0.016007
	Zn220	Zn	0.005939	0.751273	0.516363
	Zn221	Zn	0.007234	0.249439	0.517487
	Zn222	Zn	0.004772	0.501558	0.767576
	Zn223	Zn	0.005771	0.500151	0.265962
	Zn224	Zn	0.506294	0.750329	0.018560
	Zn225	Zn	0.505375	0.252337	0.017172
	Zn226	Zn	0.756057	-0.000026	0.519344
	Zn227	Zn	0.255610	0.000067	0.518747
	N228	N	0.422531	0.963200	0.695058
	N229	N	0.592779	0.037760	0.697740
	N230	N	0.590484	0.964297	0.341281
	N231	N	0.418801	0.038139	0.339240
	N232	N	0.685772	0.414687	0.980367
	N233	N	0.686541	0.588875	0.053321
	N234	N	0.325052	0.589781	0.981338
	N235	N	0.325062	0.414244	0.052458
	N236	N	0.969667	0.680305	0.429428
	N237	N	0.042286	0.679793	0.602258
	N238	N	0.970472	0.320444	0.603812
	N239	N	0.042893	0.319969	0.430248
	N240	N	0.969455	0.414483	0.696429
	N241	N	0.041309	0.587927	0.696751
	N242	N	0.969003	0.586317	0.336950
	N243	N	0.042348	0.413219	0.336971
	N244	N	0.420422	0.680142	0.981136
	N245	N	0.591527	0.678786	0.055666
	N246	N	0.590596	0.323739	0.979886
	N247	N	0.419741	0.323556	0.053580
	N248	N	0.685314	0.964243	0.432318
	N249	N	0.687733	0.036522	0.607391
	N250	N	0.325971	0.964348	0.606267
	N251	N	0.325373	0.037307	0.431803
	N252	N	0.920853	0.463731	0.194292
	N253	N	0.091294	0.537668	0.194802
	N254	N	0.088878	0.464207	0.840077
	N255	N	0.918249	0.538057	0.837383
	N256	N	0.186758	0.911978	0.482608
	N257	N	0.185400	0.086569	0.554821
	N258	N	0.825787	0.087110	0.483218
	N259	N	0.825485	0.912075	0.554258
	N260	N	0.468980	0.181441	0.930365
	N261	N	0.541683	0.181467	0.103997
	N262	N	0.471025	0.818988	0.107597
	N263	N	0.543844	0.822656	0.933922
	N264	N	0.469397	0.915077	0.197717
	N265	N	0.541289	0.088875	0.198738
	N266	N	0.468978	0.087333	0.838356
	N267	N	0.542907	0.914237	0.838643
	N268	N	0.920603	0.178367	0.481744
	N269	N	0.092541	0.178823	0.554756
	N270	N	0.089927	0.823793	0.479538
	N271	N	0.920622	0.821888	0.554129
	N272	N	0.186228	0.466255	0.928023
	N273	N	0.186114	0.537273	0.104010
	N274	N	0.826298	0.465161	0.103366
	N275	N	0.825650	0.538399	0.929610
	O276	O	-0.091575	-0.118267	0.064808
	H277	H	-0.099139	-0.110854	0.060731
	H278	H	-0.082828	-0.119323	0.070807
	O279	O	0.671203	0.603432	0.671270
	H280	H	0.679566	0.612962	0.671634
	H281	H	0.669052	0.626437	0.663095
	O282	O	0.612773	-0.494060	0.472865
	H283	H	0.609181	-0.501606	0.466121
	H284	H	0.596760	-0.484245	0.473617
	O285	O	0.578116	0.498558	0.514841
	H286	H	0.572565	0.513011	0.516102
	H287	H	0.588147	0.488525	0.511595
	O288	O	0.811622	1.120456	0.951741
	H289	H	0.818102	1.124190	0.948101
	H290	H	0.798515	1.130761	0.940964
	O291	O	0.051662	0.846672	-0.060101
	H292	H	0.045587	0.846702	-0.070783
	H293	H	0.049216	0.843094	-0.068734
	O294	O	0.401021	0.391954	0.414212
	H295	H	0.409633	0.384141	0.401320
	H296	H	0.429845	0.385563	0.420152
	O297	O	0.530273	0.392442	0.386226
	H298	H	0.522304	0.395723	0.406025
	H299	H	0.558322	0.377153	0.384878
	O300	O	0.951877	0.095133	0.011236
	H301	H	0.951038	0.093321	0.015654
	H302	H	0.954713	0.115060	0.024266
	O303	O	0.565189	0.601136	0.555206
	H304	H	0.561989	0.601039	0.553731
	H305	H	0.556183	0.611970	0.538994
	O306	O	0.624030	0.509908	0.439184
	H307	H	0.613720	0.506896	0.444384
	H308	H	0.605338	0.502044	0.432678
	O309	O	0.598336	0.347844	0.562712
	H310	H	0.597362	0.369202	0.565407
	H311	H	0.588651	0.347582	0.571563
	O312	O	-0.045257	-0.100198	0.153318
	H313	H	-0.034321	-0.095564	0.155426
	H314	H	-0.034579	-0.101819	0.149758
	O315	O	0.825065	0.148284	0.909992
	H316	H	0.850819	0.152019	0.914127
	H317	H	0.821889	0.152292	0.917558
	O318	O	-0.149920	1.084919	0.827896
	H319	H	-0.153117	1.103706	0.827219
	H320	H	-0.162960	1.099076	0.829230
	O321	O	0.538411	0.607177	0.505891
	H322	H	0.540675	0.603475	0.474956
	H323	H	0.534790	0.620535	0.498611
	O324	O	0.096687	0.842336	-0.124866
	H325	H	0.099102	0.834968	-0.132088
	H326	H	0.068971	0.854930	-0.123670
	O327	O	-0.099911	0.025111	0.149390
	H328	H	-0.095111	0.033820	0.154773
	H329	H	-0.095765	0.022919	0.151373
	O330	O	0.140071	0.052057	1.191781
	H331	H	0.143826	0.061546	1.199629
	H332	H	0.146011	0.031238	1.178786
	O333	O	0.155356	0.174617	1.093261
	H334	H	0.150908	0.167089	1.097714
	H335	H	0.158160	0.167306	1.109996
	O336	O	0.359083	0.465599	0.625049
	H337	H	0.372584	0.447762	0.642414
	H338	H	0.351606	0.470039	0.624628
	O339	O	0.943472	-0.057205	-0.102164
	H340	H	0.940810	-0.036116	-0.111586
	H341	H	0.934378	-0.056178	-0.104174
	O342	O	-0.631288	-0.475663	0.362827
	H343	H	-0.618389	-0.483352	0.363257
	H344	H	-0.639596	-0.485773	0.346875
	O345	O	0.422000	0.604459	0.348390
	H346	H	0.420117	0.582196	0.348212
	H347	H	0.425722	0.603164	0.336333
	O348	O	1.166998	1.159882	0.149985
	H349	H	1.160603	1.161983	0.164951
	H350	H	1.174679	1.159435	0.166732
	O351	O	0.363719	0.785617	0.384772
	H352	H	0.354243	0.799529	0.374100
	H353	H	0.374244	0.782394	0.379179
	O354	O	0.993742	0.138712	0.893436
	H355	H	0.998535	0.138939	0.888423
	H356	H	0.999884	0.135366	0.887417
	O357	O	0.625423	0.637501	0.524246
	H358	H	0.613445	0.644465	0.520537
	H359	H	0.610310	0.644092	0.512497
	O360	O	0.493197	0.389441	0.562610
	H361	H	0.496021	0.402631	0.566643
	H362	H	0.483697	0.390009	0.574231
	O363	O	0.189531	0.894732	1.035237
	H364	H	0.202540	0.891586	1.038064
	H365	H	0.192255	0.894133	1.013729
	O366	O	0.383615	0.476564	0.599267
	H367	H	0.384161	0.478214	0.614276
	H368	H	0.391513	0.471290	0.597103
	O369	O	-0.458950	1.353210	-0.632722
	H370	H	-0.457204	1.356509	-0.614055
	H371	H	-0.451645	1.350158	-0.634644
	O372	O	0.519113	0.498842	0.466133
	H373	H	0.522206	0.507158	0.452856
	H374	H	0.516094	0.501955	0.459027
	O375	O	0.468614	0.475186	0.659406
	H376	H	0.479920	0.473474	0.662821
	H377	H	0.479363	0.471924	0.661044
	O378	O	1.453775	0.653755	-0.589704
	H379	H	1.448099	0.664400	-0.606115
	H380	H	1.443988	0.646029	-0.580546
	O381	O	1.053450	0.019366	0.121792
	H382	H	1.049426	0.025778	0.113407
	H383	H	1.054443	0.013553	0.130100
	O384	O	0.932389	0.920899	0.127060
	H385	H	0.923162	0.920834	0.131588
	H386	H	0.924287	0.924204	0.126067
	O387	O	-0.096341	-0.037851	-0.023584
	H388	H	-0.101196	-0.027354	-0.018443
	H389	H	-0.104532	-0.052170	-0.031428
	O390	O	0.031303	0.968549	-0.050605
	H391	H	0.027494	0.964588	-0.029853
	H392	H	0.037011	0.975665	-0.057902
	O393	O	0.956140	0.992496	1.079343
	H394	H	0.953479	0.987408	1.069210
	H395	H	0.960279	0.993662	1.074072
	O396	O	0.372322	0.462209	0.632914
	H397	H	0.357238	0.469238	0.639022
	H398	H	0.373650	0.459925	0.632418
	O399	O	0.187660	0.881284	0.897671
	H400	H	0.185987	0.881984	0.886695
	H401	H	0.185450	0.873439	0.885949
	O402	O	0.571550	0.433419	0.590166
	H403	H	0.594007	0.442895	0.595872
	H404	H	0.579563	0.438281	0.584590
	O405	O	1.110911	1.093552	-0.124252
	H406	H	1.125260	1.092507	-0.114960
	H407	H	1.113594	1.074966	-0.129607
	O408	O	0.963826	1.070738	0.031261
	H409	H	0.970312	1.078255	0.043888
	H410	H	0.958450	1.070424	0.026790
	O411	O	1.021183	-0.043645	1.178893
	H412	H	1.025799	-0.046512	1.164724
	H413	H	1.020179	-0.047435	1.175514
	O414	O	0.610845	0.605235	0.516730
	H415	H	0.611256	0.608322	0.513136
	H416	H	0.600156	0.600268	0.492160
	O417	O	0.503441	0.403063	0.511202
	H418	H	0.512337	0.408078	0.519147
	H419	H	0.504319	0.393777	0.514496
