data_Molecule from HDF5

_cell_length_a		16.397853
_cell_length_b		16.388937
_cell_length_c		16.448399
_cell_angle_alpha	90.040527
_cell_angle_beta	89.926889
_cell_angle_gamma	89.923330
_symmetry_space_group_name_H-M	'P 1'
_symmetry_Int_Tables_number		1

loop_
	_symmetry_equiv_pos_as_xyz
	x,y,z

loop_
	_atom_site_label
	_atom_site_type_symbol
	_atom_site_fract_x
	_atom_site_fract_y
	_atom_site_fract_z
	H0	H	0.382089	0.841188	0.723534
	H1	H	0.596173	0.157292	0.725168
	H2	H	0.594017	0.837646	0.283825
	H3	H	0.386901	0.157943	0.281012
	H4	H	0.711606	0.395103	0.842934
	H5	H	0.707743	0.603681	0.161906
	H6	H	0.268021	0.602535	0.843262
	H7	H	0.270065	0.395052	0.161042
	H8	H	0.831886	0.723878	0.398110
	H9	H	0.149818	0.720835	0.607067
	H10	H	0.830565	0.280159	0.607381
	H11	H	0.151047	0.285671	0.403290
	H12	H	0.830414	0.395585	0.723819
	H13	H	0.148867	0.604630	0.723970
	H14	H	0.832067	0.609871	0.281282
	H15	H	0.149371	0.399346	0.284245
	H16	H	0.383613	0.719702	0.842915
	H17	H	0.592447	0.720512	0.160915
	H18	H	0.594381	0.279376	0.841873
	H19	H	0.387285	0.279563	0.160495
	H20	H	0.713854	0.840816	0.397057
	H21	H	0.712036	0.158632	0.610207
	H22	H	0.268150	0.840925	0.605713
	H23	H	0.272526	0.159777	0.399576
	H24	H	0.889595	0.341945	0.221016
	H25	H	0.097483	0.659806	0.224887
	H26	H	0.095499	0.342324	0.780313
	H27	H	0.883549	0.660174	0.782480
	H28	H	0.208218	0.899251	0.341882
	H29	H	0.213136	0.106387	0.660279
	H30	H	0.769123	0.106001	0.345055
	H31	H	0.764640	0.890873	0.659269
	H32	H	0.331402	0.221973	0.895184
	H33	H	0.649019	0.216702	0.105105
	H34	H	0.329378	0.779970	0.103964
	H35	H	0.647961	0.775818	0.893821
	H36	H	0.330381	0.891952	0.223389
	H37	H	0.648032	0.100823	0.221861
	H38	H	0.330520	0.105380	0.779811
	H39	H	0.646633	0.889344	0.776182
	H40	H	0.890444	0.218634	0.343265
	H41	H	0.096539	0.221344	0.661432
	H42	H	0.099052	0.777283	0.344929
	H43	H	0.882071	0.776610	0.659837
	H44	H	0.209308	0.340435	0.897835
	H45	H	0.214199	0.658143	0.108836
	H46	H	0.772140	0.341518	0.106097
	H47	H	0.766783	0.659687	0.897961
	H48	H	0.403610	0.113961	0.597034
	H49	H	0.571693	0.888310	0.591627
	H50	H	0.577493	0.109647	0.416967
	H51	H	0.401083	0.886529	0.415140
	H52	H	0.581511	0.413972	0.113448
	H53	H	0.576677	0.592244	0.887762
	H54	H	0.406822	0.585552	0.111446
	H55	H	0.400960	0.405612	0.886660
	H56	H	0.100770	0.588686	0.420383
	H57	H	0.877549	0.587513	0.593097
	H58	H	0.102703	0.407984	0.587842
	H59	H	0.874598	0.416089	0.406193
	H60	H	0.101261	0.417539	0.592760
	H61	H	0.876231	0.591726	0.591747
	H62	H	0.102859	0.583994	0.409045
	H63	H	0.872561	0.402531	0.410163
	H64	H	0.401089	0.594724	0.116660
	H65	H	0.583036	0.584666	0.888337
	H66	H	0.574662	0.403516	0.115209
	H67	H	0.395287	0.411230	0.887930
	H68	H	0.584145	0.115166	0.410197
	H69	H	0.576600	0.891072	0.581973
	H70	H	0.406539	0.109545	0.586870
	H71	H	0.393236	0.882380	0.412150
	H72	H	0.898353	0.615202	0.088265
	H73	H	0.078707	0.387765	0.091890
	H74	H	0.079083	0.611975	0.919648
	H75	H	0.904322	0.388763	0.915062
	H76	H	0.081958	0.910581	0.616483
	H77	H	0.082731	0.100053	0.386063
	H78	H	0.902613	0.092690	0.617617
	H79	H	0.901255	0.911236	0.389551
	H80	H	0.601351	0.085229	0.912834
	H81	H	0.372903	0.089821	0.097822
	H82	H	0.605930	0.909964	0.099193
	H83	H	0.374695	0.906359	0.909775
	H84	H	0.604578	0.900961	0.086883
	H85	H	0.375144	0.092929	0.086491
	H86	H	0.603316	0.086952	0.910653
	H87	H	0.379105	0.909910	0.918193
	H88	H	0.897653	0.090099	0.617012
	H89	H	0.086673	0.089360	0.387556
	H90	H	0.079443	0.917135	0.613957
	H91	H	0.902291	0.919014	0.393027
	H92	H	0.080627	0.614888	0.911964
	H93	H	0.079765	0.386526	0.095199
	H94	H	0.897354	0.617028	0.095041
	H95	H	0.896485	0.387150	0.915988
	H96	H	0.396295	0.113939	0.588624
	H97	H	0.582434	0.885270	0.589256
	H98	H	0.574499	0.111688	0.406411
	H99	H	0.400693	0.883049	0.406611
	H100	H	0.586805	0.403883	0.118377
	H101	H	0.574059	0.583573	0.892473
	H102	H	0.395716	0.584125	0.114511
	H103	H	0.402875	0.412612	0.889751
	H104	H	0.106790	0.595527	0.411639
	H105	H	0.878654	0.588544	0.589214
	H106	H	0.105581	0.409014	0.598419
	H107	H	0.877628	0.412508	0.419179
	H108	H	0.903641	0.614800	0.092955
	H109	H	0.076629	0.387565	0.094235
	H110	H	0.072657	0.611758	0.913961
	H111	H	0.900428	0.385866	0.908511
	H112	H	0.075199	0.910988	0.613601
	H113	H	0.076251	0.092163	0.390237
	H114	H	0.902079	0.087522	0.615185
	H115	H	0.908831	0.914076	0.392867
	H116	H	0.602513	0.087976	0.913881
	H117	H	0.377743	0.081658	0.090354
	H118	H	0.599257	0.915461	0.086867
	H119	H	0.377086	0.916238	0.910428
	C120	C	0.368341	0.007916	0.623097
	C121	C	0.610521	0.992082	0.622494
	C122	C	0.611427	0.006799	0.380132
	C123	C	0.368167	0.990100	0.380054
	C124	C	0.612240	0.376509	0.010054
	C125	C	0.609735	0.619891	0.994233
	C126	C	0.367772	0.620585	0.009909
	C127	C	0.368117	0.377578	0.993004
	C128	C	-0.000999	0.623158	0.381347
	C129	C	0.981988	0.621809	0.623986
	C130	C	-0.001486	0.378806	0.625234
	C131	C	0.981346	0.380579	0.382144
	C132	C	0.868818	0.510014	0.124092
	C133	C	0.111643	0.492189	0.125145
	C134	C	0.109828	0.508195	0.882390
	C135	C	0.867589	0.492058	0.881066
	C136	C	0.111327	0.880317	0.510254
	C137	C	0.113630	0.124317	0.493253
	C138	C	0.869215	0.122134	0.511798
	C139	C	0.869608	0.880252	0.495012
	C140	C	0.498196	0.119848	0.879869
	C141	C	0.480819	0.119106	0.122898
	C142	C	0.497741	0.876716	0.122797
	C143	C	0.481240	0.877173	0.879343
	C144	C	0.364564	0.888771	0.683341
	C145	C	0.613757	0.110237	0.684639
	C146	C	0.613694	0.886327	0.321907
	C147	C	0.367785	0.110344	0.320989
	C148	C	0.671733	0.376151	0.890756
	C149	C	0.668564	0.622030	0.114145
	C150	C	0.307841	0.621769	0.890660
	C151	C	0.309731	0.376523	0.113043
	C152	C	0.879778	0.684147	0.379353
	C153	C	0.101794	0.681243	0.626023
	C154	C	0.878431	0.319499	0.626362
	C155	C	0.102538	0.323858	0.383035
	C156	C	0.878379	0.376787	0.684483
	C157	C	0.101564	0.623476	0.684056
	C158	C	0.879631	0.627403	0.321222
	C159	C	0.101732	0.380349	0.323856
	C160	C	0.365449	0.679977	0.890499
	C161	C	0.611117	0.680274	0.113279
	C162	C	0.613247	0.318385	0.890024
	C163	C	0.367962	0.318899	0.113051
	C164	C	0.673107	0.887891	0.378571
	C165	C	0.671495	0.110973	0.626988
	C166	C	0.307860	0.888648	0.624693
	C167	C	0.311155	0.111358	0.380033
	C168	C	0.869525	0.389653	0.182093
	C169	C	0.115270	0.611895	0.184857
	C170	C	0.112873	0.389393	0.821079
	C171	C	0.865140	0.612236	0.821774
	C172	C	0.169957	0.879412	0.390147
	C173	C	0.173272	0.125149	0.612777
	C174	C	0.809470	0.124520	0.392314
	C175	C	0.806348	0.874758	0.612373
	C176	C	0.378445	0.181022	0.877369
	C177	C	0.600955	0.177661	0.124107
	C178	C	0.377461	0.818447	0.123666
	C179	C	0.600202	0.815853	0.876074
	C180	C	0.378190	0.874248	0.183104
	C181	C	0.600691	0.119744	0.181890
	C182	C	0.378136	0.122987	0.820065
	C183	C	0.599861	0.872632	0.817469
	C184	C	0.869588	0.180203	0.391478
	C185	C	0.115030	0.182449	0.613342
	C186	C	0.115375	0.818873	0.391673
	C187	C	0.864767	0.817367	0.612617
	C188	C	0.169948	0.388617	0.879302
	C189	C	0.173649	0.610780	0.127289
	C190	C	0.811335	0.389612	0.124794
	C191	C	0.806815	0.611840	0.879123
	C192	C	0.394585	0.090902	0.597965
	C193	C	0.584370	0.909411	0.595379
	C194	C	0.586030	0.090406	0.404257
	C195	C	0.391713	0.906137	0.404050
	C196	C	0.587978	0.400177	0.093904
	C197	C	0.584879	0.594274	0.911190
	C198	C	0.393567	0.595416	0.092694
	C199	C	0.392601	0.402470	0.909764
	C200	C	0.081835	0.596989	0.406392
	C201	C	0.898979	0.596688	0.598704
	C202	C	0.081520	0.404318	0.600475
	C203	C	0.897015	0.403769	0.405190
	C204	C	0.892850	0.594053	0.099239
	C205	C	0.085798	0.408856	0.100605
	C206	C	0.084628	0.591202	0.907947
	C207	C	0.893108	0.409045	0.906022
	C208	C	0.085897	0.905566	0.593005
	C209	C	0.088943	0.100673	0.409635
	C210	C	0.893596	0.097198	0.594852
	C211	C	0.896561	0.907236	0.413173
	C212	C	0.580670	0.094161	0.904965
	C213	C	0.397067	0.095092	0.098508
	C214	C	0.581390	0.901653	0.098181
	C215	C	0.398505	0.903252	0.905078
	Zn216	Zn	0.489986	-0.001419	0.751374
	Zn217	Zn	0.489336	-0.002765	0.251635
	Zn218	Zn	0.739766	0.500471	0.002985
	Zn219	Zn	0.239199	0.498954	0.002034
	Zn220	Zn	-0.008756	0.751025	0.502588
	Zn221	Zn	-0.009746	0.251111	0.503192
	Zn222	Zn	-0.010803	0.500617	0.752824
	Zn223	Zn	-0.010789	0.502393	0.253421
	Zn224	Zn	0.489057	0.749271	0.000923
	Zn225	Zn	0.489528	0.248174	0.001219
	Zn226	Zn	0.739748	0.000702	0.502371
	Zn227	Zn	0.239706	0.000546	0.501762
	N228	N	0.401364	0.964037	0.682587
	N229	N	0.576432	0.035267	0.681606
	N230	N	0.576046	0.961326	0.322894
	N231	N	0.402519	0.033998	0.321014
	N232	N	0.671326	0.411513	0.966507
	N233	N	0.667756	0.585057	0.039009
	N234	N	0.309150	0.585742	0.965963
	N235	N	0.309594	0.411974	0.037385
	N236	N	0.955017	0.681615	0.415900
	N237	N	0.026580	0.680324	0.589503
	N238	N	0.954274	0.320145	0.590588
	N239	N	0.026881	0.324013	0.418756
	N240	N	0.954031	0.412714	0.684156
	N241	N	0.025977	0.587390	0.683078
	N242	N	0.954885	0.590408	0.321976
	N243	N	0.025325	0.415156	0.323207
	N244	N	0.402058	0.679219	0.965570
	N245	N	0.575501	0.678997	0.037638
	N246	N	0.577002	0.318520	0.965353
	N247	N	0.403556	0.319357	0.037390
	N248	N	0.671938	0.964042	0.413836
	N249	N	0.669532	0.036257	0.589005
	N250	N	0.309988	0.963943	0.588075
	N251	N	0.311311	0.035781	0.415975
	N252	N	0.904229	0.465874	0.181757
	N253	N	0.077339	0.537185	0.183664
	N254	N	0.075957	0.464620	0.822903
	N255	N	0.902257	0.536918	0.822828
	N256	N	0.167397	0.917079	0.464745
	N257	N	0.172532	0.089709	0.536996
	N258	N	0.808913	0.089214	0.468080
	N259	N	0.809387	0.913372	0.538273
	N260	N	0.453746	0.179268	0.913920
	N261	N	0.525371	0.177386	0.088063
	N262	N	0.452637	0.819982	0.086935
	N263	N	0.525376	0.818458	0.913615
	N264	N	0.454394	0.909651	0.182812
	N265	N	0.524850	0.084273	0.181473
	N266	N	0.453162	0.085352	0.821644
	N267	N	0.524764	0.909863	0.819059
	N268	N	0.905590	0.179024	0.466859
	N269	N	0.078671	0.182023	0.538146
	N270	N	0.079433	0.819369	0.467197
	N271	N	0.903524	0.820669	0.538669
	N272	N	0.168027	0.463380	0.916907
	N273	N	0.171368	0.535442	0.090879
	N274	N	0.810864	0.465628	0.089447
	N275	N	0.808019	0.536127	0.915139
	O276	O	0.452011	0.451664	0.553101
	H277	H	0.434383	0.440693	0.552234
	H278	H	0.442339	0.464297	0.537381
	O279	O	0.424393	0.630957	0.383307
	H280	H	0.430536	0.634594	0.393065
	H281	H	0.439247	0.635943	0.383974
	O282	O	0.553082	0.425695	0.464765
	H283	H	0.553734	0.424888	0.455086
	H284	H	0.562708	0.431481	0.461308
	O285	O	0.944473	0.861244	-0.127463
	H286	H	0.945822	0.853367	-0.123348
	H287	H	0.947459	0.854962	-0.137078
	O288	O	0.392895	0.444229	0.650663
	H289	H	0.404060	0.454268	0.651974
	H290	H	0.384656	0.440054	0.650085
	O291	O	0.775879	0.191467	0.951409
	H292	H	0.776113	0.197138	0.923674
	H293	H	0.756150	0.204882	0.923672
	O294	O	0.816804	1.141901	0.839649
	H295	H	0.844519	1.141261	0.830483
	H296	H	0.819954	1.110723	0.823929
	O297	O	0.373195	0.682599	0.401961
	H298	H	0.397292	0.686502	0.390609
	H299	H	0.364921	0.687765	0.412142
	O300	O	0.349698	0.678467	0.547626
	H301	H	0.356499	0.678933	0.552875
	H302	H	0.349864	0.668554	0.551367
	O303	O	0.504463	0.526426	0.601189
	H304	H	0.495512	0.551291	0.587688
	H305	H	0.515166	0.522818	0.608690
	O306	O	0.374672	-0.690064	1.687671
	H307	H	0.379995	-0.682978	1.659391
	H308	H	0.376737	-0.667516	1.684992
	O309	O	1.103578	0.103797	-0.147624
	H310	H	1.119138	0.126959	-0.156834
	H311	H	1.106971	0.116463	-0.133836
	O312	O	0.297455	0.333031	0.583623
	H313	H	0.318979	0.335021	0.576179
	H314	H	0.299086	0.323317	0.576889
	O315	O	0.039206	-0.214798	0.784036
	H316	H	0.068653	-0.230733	0.770076
	H317	H	0.057506	-0.227840	0.773644
	O318	O	0.175279	0.209006	0.024827
	H319	H	0.170118	0.208547	0.057781
	H320	H	0.197046	0.223796	0.033243
	O321	O	0.875772	0.189580	0.190796
	H322	H	0.881454	0.182070	0.175642
	H323	H	0.883470	0.161879	0.181778
	O324	O	0.808130	-0.180643	1.185080
	H325	H	0.829358	-0.191562	1.167788
	H326	H	0.794667	-0.165423	1.161256
	O327	O	0.485917	0.664692	0.459682
	H328	H	0.500831	0.664114	0.462362
	H329	H	0.487946	0.656476	0.446930
	O330	O	-0.191365	1.005788	1.030639
	H331	H	-0.185268	1.033618	1.021199
	H332	H	-0.194525	1.010102	1.065064
	O333	O	-0.055827	1.044751	-0.204514
	H334	H	-0.043608	1.025645	-0.218265
	H335	H	-0.034652	1.043786	-0.209201
	O336	O	1.195147	0.986005	-0.207169
	H337	H	1.219194	0.981730	-0.218869
	H338	H	1.201768	0.997132	-0.196603
	O339	O	-0.220290	0.791850	1.024543
	H340	H	-0.224979	0.816499	0.999628
	H341	H	-0.232544	0.775059	1.015759
	O342	O	0.632634	0.308064	0.302616
	H343	H	0.611101	0.308555	0.311250
	H344	H	0.651565	0.284147	0.278861
	O345	O	0.132491	0.207409	1.096922
	H346	H	0.141216	0.229219	1.119474
	H347	H	0.116278	0.202383	1.104529
	O348	O	0.463307	0.619926	0.648347
	H349	H	0.464098	0.628356	0.648643
	H350	H	0.458856	0.622141	0.639933
	O351	O	1.695909	1.328990	-0.532246
	H352	H	1.702437	1.323840	-0.535254
	H353	H	1.697785	1.320578	-0.536847
	O354	O	1.195786	0.792025	0.926732
	H355	H	1.195819	0.781509	0.935177
	H356	H	1.204670	0.779080	0.942169
	O357	O	-0.136373	-0.038745	-0.040356
	H358	H	-0.138194	-0.031067	-0.057857
	H359	H	-0.137620	-0.028872	-0.026120
	O360	O	0.540972	0.440415	0.475081
	H361	H	0.538738	0.437898	0.464811
	H362	H	0.551753	0.443996	0.477376
	O363	O	1.527024	0.496483	0.685235
	H364	H	1.540656	0.499933	0.680992
	H365	H	1.509998	0.505485	0.685240
	O366	O	0.091653	-0.045111	1.106744
	H367	H	0.102643	-0.047359	1.104254
	H368	H	0.085520	-0.036530	1.111200
	O369	O	1.091468	0.817810	0.890344
	H370	H	1.099846	0.821323	0.921536
	H371	H	1.104539	0.840583	0.874300
	O372	O	0.468209	0.364624	0.350294
	H373	H	0.473305	0.362610	0.344213
	H374	H	0.460174	0.362816	0.339540
	O375	O	-0.068905	0.055079	1.145075
	H376	H	-0.073378	0.065169	1.136297
	H377	H	-0.061240	0.038003	1.136755
	O378	O	-0.212816	-0.019573	0.213770
	H379	H	-0.191644	-0.034565	0.215256
	H380	H	-0.227495	-0.023714	0.242130
	O381	O	0.113358	0.811450	0.029131
	H382	H	0.091012	0.817672	0.016736
	H383	H	0.103069	0.811696	0.059791
	O384	O	-0.073196	1.194510	1.025483
	H385	H	-0.064493	1.184735	0.999204
	H386	H	-0.096569	1.201787	1.004299
	O387	O	0.658256	0.546955	0.581711
	H388	H	0.648159	0.525408	0.579355
	H389	H	0.678952	0.537235	0.600634
	O390	O	0.813768	1.011853	-0.200289
	H391	H	0.824251	0.992439	-0.202905
	H392	H	0.820126	1.002743	-0.221891
	O393	O	0.412822	0.426908	0.354756
	H394	H	0.423822	0.437907	0.354676
	H395	H	0.425299	0.429957	0.366375
	O396	O	0.968793	-0.207513	0.214452
	H397	H	0.952690	-0.210757	0.211113
	H398	H	0.978937	-0.224520	0.230953
	O399	O	0.592198	0.391643	0.622403
	H400	H	0.579040	0.380678	0.623595
	H401	H	0.584811	0.377875	0.634460
	O402	O	1.196815	1.109095	0.209092
	H403	H	1.211032	1.096352	0.222821
	H404	H	1.173594	1.128822	0.216356
	O405	O	0.423469	0.545780	0.634716
	H406	H	0.435510	0.539456	0.640908
	H407	H	0.431000	0.554467	0.651844
	O408	O	0.649284	0.653242	0.569127
	H409	H	0.670785	0.625821	0.572560
	H410	H	0.660503	0.648292	0.551530
	O411	O	1.035472	0.985016	1.026950
	H412	H	1.052911	0.958006	1.013946
	H413	H	1.023977	0.973905	1.031602
	O414	O	0.472317	0.369191	0.488382
	H415	H	0.476030	0.367653	0.508595
	H416	H	0.464261	0.370775	0.489257
	O417	O	-0.009583	1.168364	0.872248
	H418	H	0.000146	1.179502	0.854527
	H419	H	-0.005338	1.176181	0.885080
	O420	O	0.169778	1.030951	0.992878
	H421	H	0.165952	1.022212	1.001440
	H422	H	0.178643	1.054777	1.006055
	O423	O	0.002942	0.952432	0.150009
	H424	H	0.011533	0.930746	0.137464
	H425	H	0.008896	0.961383	0.139910
	O426	O	0.470508	0.451032	0.446990
	H427	H	0.453654	0.449057	0.444074
	H428	H	0.472268	0.439372	0.437189
	O429	O	0.561538	0.590406	0.404381
	H430	H	0.562372	0.572747	0.395909
	H431	H	0.569511	0.585813	0.391532
	O432	O	0.692281	0.439644	0.305545
	H433	H	0.710056	0.431501	0.298768
	H434	H	0.685111	0.406833	0.305192
	O435	O	0.071775	0.085798	0.094718
	H436	H	0.051481	0.088252	0.077885
	H437	H	0.058662	0.064359	0.085176
	O438	O	0.422064	0.598935	0.327539
	H439	H	0.438871	0.598098	0.333019
	H440	H	0.428624	0.603908	0.325923
	O441	O	0.354744	0.523082	0.461789
	H442	H	0.342598	0.531668	0.465500
	H443	H	0.352089	0.532545	0.448490
