data_Molecule from HDF5

_cell_length_a		16.397264
_cell_length_b		16.455757
_cell_length_c		16.179926
_cell_angle_alpha	90.041378
_cell_angle_beta	90.111752
_cell_angle_gamma	90.259014
_symmetry_space_group_name_H-M	'P 1'
_symmetry_Int_Tables_number		1

loop_
	_symmetry_equiv_pos_as_xyz
	x,y,z

loop_
	_atom_site_label
	_atom_site_type_symbol
	_atom_site_fract_x
	_atom_site_fract_y
	_atom_site_fract_z
	H0	H	0.398706	0.828436	0.718873
	H1	H	0.597686	0.151516	0.719530
	H2	H	0.596355	0.829637	0.285233
	H3	H	0.395826	0.152237	0.285605
	H4	H	0.713624	0.391857	0.839373
	H5	H	0.716631	0.592532	0.165709
	H6	H	0.283101	0.592455	0.839951
	H7	H	0.282507	0.390370	0.166446
	H8	H	0.836907	0.707152	0.399023
	H9	H	0.157685	0.710752	0.606072
	H10	H	0.837699	0.269911	0.607827
	H11	H	0.157941	0.269164	0.398095
	H12	H	0.836303	0.391616	0.718892
	H13	H	0.160884	0.591188	0.717443
	H14	H	0.837025	0.588191	0.285403
	H15	H	0.160870	0.390767	0.287206
	H16	H	0.399095	0.707161	0.840118
	H17	H	0.604869	0.710613	0.165589
	H18	H	0.599215	0.274413	0.840134
	H19	H	0.395104	0.272212	0.165218
	H20	H	0.715308	0.830010	0.399080
	H21	H	0.718985	0.148798	0.607945
	H22	H	0.278388	0.828923	0.605815
	H23	H	0.276300	0.149791	0.399895
	H24	H	0.897921	0.330368	0.219252
	H25	H	0.101313	0.651882	0.221506
	H26	H	0.098649	0.329399	0.785852
	H27	H	0.898466	0.651867	0.784131
	H28	H	0.215281	0.886612	0.341191
	H29	H	0.214141	0.090788	0.666629
	H30	H	0.779542	0.090724	0.340706
	H31	H	0.780672	0.888151	0.666700
	H32	H	0.338505	0.210683	0.897574
	H33	H	0.657520	0.212888	0.109336
	H34	H	0.338798	0.770329	0.106744
	H35	H	0.657958	0.771194	0.897408
	H36	H	0.336055	0.891060	0.217864
	H37	H	0.659008	0.093657	0.221584
	H38	H	0.335755	0.088299	0.787232
	H39	H	0.660355	0.891655	0.786078
	H40	H	0.893360	0.208311	0.341188
	H41	H	0.100841	0.208920	0.665169
	H42	H	0.098466	0.773378	0.340298
	H43	H	0.894015	0.771048	0.665464
	H44	H	0.219417	0.331656	0.897935
	H45	H	0.220041	0.651348	0.107246
	H46	H	0.777271	0.332701	0.108187
	H47	H	0.777453	0.650584	0.895594
	H48	H	0.404820	0.103000	0.589287
	H49	H	0.585084	0.878046	0.590900
	H50	H	0.586581	0.102297	0.414694
	H51	H	0.409499	0.880328	0.417635
	H52	H	0.587099	0.387699	0.122231
	H53	H	0.584519	0.578610	0.890434
	H54	H	0.410538	0.576215	0.117091
	H55	H	0.411012	0.400380	0.888557
	H56	H	0.114040	0.586847	0.412961
	H57	H	0.886147	0.577666	0.589885
	H58	H	0.112671	0.393627	0.589026
	H59	H	0.883806	0.393538	0.414512
	H60	H	0.110483	0.403426	0.590565
	H61	H	0.882816	0.580462	0.598315
	H62	H	0.110851	0.581988	0.417220
	H63	H	0.887639	0.402409	0.415472
	H64	H	0.413513	0.586064	0.119252
	H65	H	0.587615	0.587713	0.886264
	H66	H	0.601306	0.408262	0.120445
	H67	H	0.409022	0.398467	0.887327
	H68	H	0.592142	0.104109	0.416356
	H69	H	0.592767	0.875060	0.591642
	H70	H	0.402843	0.105149	0.595846
	H71	H	0.397621	0.875135	0.412849
	H72	H	0.916447	0.601715	0.093141
	H73	H	0.088020	0.378031	0.095814
	H74	H	0.087916	0.604080	0.908963
	H75	H	0.906537	0.376094	0.907695
	H76	H	0.084638	0.904334	0.616650
	H77	H	0.096914	0.075995	0.385719
	H78	H	0.906204	0.081474	0.620015
	H79	H	0.899085	0.893567	0.383478
	H80	H	0.610989	0.083790	0.916860
	H81	H	0.388994	0.078643	0.081688
	H82	H	0.614968	0.894917	0.096933
	H83	H	0.384924	0.893684	0.917952
	H84	H	0.611271	0.899483	0.086491
	H85	H	0.383287	0.073932	0.101048
	H86	H	0.612157	0.080442	0.910106
	H87	H	0.385939	0.903896	0.912753
	H88	H	0.907372	0.076789	0.617567
	H89	H	0.080174	0.071536	0.392677
	H90	H	0.083778	0.895122	0.619407
	H91	H	0.904726	0.907005	0.390315
	H92	H	0.091704	0.602907	0.917378
	H93	H	0.090863	0.379196	0.088963
	H94	H	0.904449	0.604052	0.085259
	H95	H	0.910709	0.380308	0.915585
	H96	H	0.409131	0.102506	0.595307
	H97	H	0.587705	0.875081	0.598249
	H98	H	0.589855	0.105105	0.410657
	H99	H	0.408777	0.876154	0.404809
	H100	H	0.577367	0.408794	0.112251
	H101	H	0.594310	0.580085	0.886468
	H102	H	0.403896	0.583755	0.121285
	H103	H	0.408424	0.401903	0.887322
	H104	H	0.113026	0.580751	0.410163
	H105	H	0.882654	0.585840	0.591119
	H106	H	0.113942	0.397352	0.598622
	H107	H	0.883259	0.399085	0.406916
	H108	H	0.905149	0.608486	0.099455
	H109	H	0.094891	0.374892	0.094212
	H110	H	0.096955	0.606182	0.910107
	H111	H	0.901343	0.377748	0.915278
	H112	H	0.092292	0.899310	0.620784
	H113	H	0.082694	0.088640	0.385891
	H114	H	0.910902	0.080583	0.617910
	H115	H	0.914119	0.894642	0.388511
	H116	H	0.614238	0.087234	0.911693
	H117	H	0.380400	0.092899	0.093767
	H118	H	0.611638	0.906387	0.096736
	H119	H	0.381576	0.894659	0.906986
	C120	C	0.375634	-0.002367	0.624493
	C121	C	0.619795	0.981515	0.625255
	C122	C	0.619013	-0.001838	0.382121
	C123	C	0.375044	0.982860	0.381274
	C124	C	0.619278	0.370767	0.011128
	C125	C	0.620523	0.613063	0.994721
	C126	C	0.379014	0.612062	0.011846
	C127	C	0.378391	0.369760	0.994830
	C128	C	0.006598	0.612495	0.381406
	C129	C	0.990017	0.612002	0.623964
	C130	C	0.006305	0.368419	0.624084
	C131	C	0.990816	0.368184	0.381372
	C132	C	0.877701	0.499379	0.123766
	C133	C	0.121774	0.483118	0.124518
	C134	C	0.121892	0.498947	0.880906
	C135	C	0.876828	0.483722	0.881305
	C136	C	0.117766	0.868972	0.511734
	C137	C	0.117903	0.110345	0.494998
	C138	C	0.876877	0.110302	0.511361
	C139	C	0.875498	0.867814	0.495011
	C140	C	0.506315	0.112954	0.881424
	C141	C	0.489659	0.113401	0.124794
	C142	C	0.506622	0.869311	0.124556
	C143	C	0.490147	0.868450	0.881541
	C144	C	0.377740	0.876440	0.680893
	C145	C	0.618836	0.102780	0.682092
	C146	C	0.617121	0.877943	0.323651
	C147	C	0.375805	0.103682	0.323851
	C148	C	0.675814	0.371721	0.888523
	C149	C	0.678733	0.612758	0.116912
	C150	C	0.321641	0.611994	0.888907
	C151	C	0.320755	0.370493	0.117377
	C152	C	0.885339	0.668887	0.379878
	C153	C	0.110389	0.670547	0.624654
	C154	C	0.885756	0.309831	0.626088
	C155	C	0.110456	0.309577	0.380188
	C156	C	0.885024	0.370430	0.681240
	C157	C	0.111998	0.610997	0.680097
	C158	C	0.885275	0.609583	0.323611
	C159	C	0.111949	0.370167	0.324962
	C160	C	0.379372	0.669078	0.888943
	C161	C	0.622066	0.670790	0.116889
	C162	C	0.618814	0.313270	0.888971
	C163	C	0.376879	0.311821	0.116922
	C164	C	0.676287	0.877979	0.380467
	C165	C	0.678767	0.101466	0.626232
	C166	C	0.318147	0.877037	0.624331
	C167	C	0.316317	0.102564	0.380717
	C168	C	0.878214	0.378671	0.181192
	C169	C	0.121348	0.603700	0.182833
	C170	C	0.119682	0.377949	0.823885
	C171	C	0.878201	0.603853	0.822794
	C172	C	0.175785	0.868336	0.389680
	C173	C	0.176046	0.110845	0.617508
	C174	C	0.818493	0.110215	0.389329
	C175	C	0.818866	0.868220	0.617576
	C176	C	0.386078	0.170937	0.879608
	C177	C	0.609904	0.172589	0.126897
	C178	C	0.386403	0.810476	0.125107
	C179	C	0.610689	0.810615	0.879517
	C180	C	0.385141	0.870333	0.180677
	C181	C	0.610515	0.113530	0.183176
	C182	C	0.384658	0.110409	0.824397
	C183	C	0.611722	0.870605	0.824006
	C184	C	0.874913	0.168927	0.389642
	C185	C	0.119507	0.169311	0.616850
	C186	C	0.117870	0.811587	0.389328
	C187	C	0.874999	0.809733	0.616873
	C188	C	0.179845	0.379011	0.879830
	C189	C	0.180110	0.603652	0.125535
	C190	C	0.817824	0.379993	0.125968
	C191	C	0.818137	0.603133	0.878683
	C192	C	0.398851	0.081673	0.600670
	C193	C	0.595563	0.897826	0.600839
	C194	C	0.596055	0.082065	0.406817
	C195	C	0.398361	0.899024	0.404887
	C196	C	0.595571	0.394710	0.096334
	C197	C	0.596176	0.589029	0.909670
	C198	C	0.402555	0.588826	0.096977
	C199	C	0.402413	0.393430	0.909901
	C200	C	0.090851	0.589935	0.406232
	C201	C	0.905821	0.588258	0.599985
	C202	C	0.090666	0.391378	0.599742
	C203	C	0.906565	0.391476	0.405562
	C204	C	0.901828	0.583011	0.099429
	C205	C	0.098089	0.399191	0.100197
	C206	C	0.098828	0.582797	0.905079
	C207	C	0.899671	0.399939	0.905853
	C208	C	0.093678	0.892620	0.596955
	C209	C	0.093578	0.086045	0.410360
	C210	C	0.901079	0.086466	0.596436
	C211	C	0.899174	0.891486	0.409612
	C212	C	0.590491	0.090340	0.905554
	C213	C	0.405845	0.088872	0.099471
	C214	C	0.590883	0.893307	0.100478
	C215	C	0.406083	0.891094	0.905430
	Zn216	Zn	0.497646	-0.009834	0.753694
	Zn217	Zn	0.497696	-0.008581	0.252568
	Zn218	Zn	0.747848	0.491973	0.002977
	Zn219	Zn	0.251078	0.491226	0.002951
	Zn220	Zn	-0.002963	0.740958	0.502929
	Zn221	Zn	-0.002574	0.238844	0.502927
	Zn222	Zn	-0.000986	0.490681	0.752409
	Zn223	Zn	-0.000762	0.490940	0.252899
	Zn224	Zn	0.499527	0.740463	0.003503
	Zn225	Zn	0.498665	0.241627	0.003573
	Zn226	Zn	0.748671	-0.010632	0.503631
	Zn227	Zn	0.245775	-0.010653	0.503544
	N228	N	0.412905	0.952490	0.681118
	N229	N	0.582754	0.027231	0.681553
	N230	N	0.582273	0.953699	0.324631
	N231	N	0.411642	0.028249	0.324149
	N232	N	0.676224	0.406732	0.965761
	N233	N	0.677841	0.577578	0.039896
	N234	N	0.321205	0.577221	0.966065
	N235	N	0.321500	0.405722	0.040366
	N236	N	0.961831	0.670990	0.414993
	N237	N	0.033566	0.671460	0.590651
	N238	N	0.962206	0.308536	0.591190
	N239	N	0.033960	0.308324	0.414618
	N240	N	0.961023	0.405903	0.680260
	N241	N	0.036018	0.575145	0.679838
	N242	N	0.961607	0.575565	0.324367
	N243	N	0.036270	0.405759	0.325450
	N244	N	0.414284	0.669358	0.966259
	N245	N	0.586909	0.671370	0.039790
	N246	N	0.584465	0.312648	0.966272
	N247	N	0.411766	0.310967	0.039764
	N248	N	0.677736	0.953876	0.416082
	N249	N	0.679643	0.024929	0.591929
	N250	N	0.316974	0.953374	0.590120
	N251	N	0.315771	0.026574	0.415743
	N252	N	0.914840	0.453889	0.179829
	N253	N	0.085556	0.527900	0.182142
	N254	N	0.084329	0.453517	0.824281
	N255	N	0.914009	0.528655	0.824382
	N256	N	0.175754	0.903228	0.466856
	N257	N	0.175351	0.074935	0.540756
	N258	N	0.819379	0.074721	0.466247
	N259	N	0.818970	0.903466	0.540523
	N260	N	0.462716	0.172592	0.914491
	N261	N	0.533548	0.172586	0.091354
	N262	N	0.463221	0.809673	0.091005
	N263	N	0.534429	0.809220	0.914534
	N264	N	0.460918	0.906383	0.180283
	N265	N	0.534797	0.077470	0.181934
	N266	N	0.460347	0.075065	0.825359
	N267	N	0.535879	0.905872	0.825119
	N268	N	0.910648	0.168918	0.466416
	N269	N	0.084241	0.169333	0.539696
	N270	N	0.082313	0.811881	0.466336
	N271	N	0.909412	0.809309	0.539464
	N272	N	0.181315	0.455375	0.914411
	N273	N	0.180646	0.527661	0.090126
	N274	N	0.817564	0.455916	0.090672
	N275	N	0.817054	0.527263	0.914343
	O276	O	0.326793	0.528219	0.555600
	H277	H	0.316746	0.522976	0.567087
	H278	H	0.327858	0.514531	0.545849
	O279	O	0.621959	0.440712	0.449927
	H280	H	0.628576	0.457077	0.459674
	H281	H	0.601022	0.445527	0.441752
	O282	O	0.920653	-0.174092	0.916278
	H283	H	0.913935	-0.185575	0.908662
	H284	H	0.912421	-0.162697	0.925179
	O285	O	0.538903	0.447600	0.382494
	H286	H	0.527302	0.447323	0.383654
	H287	H	0.545964	0.440010	0.387395
	O288	O	0.951781	0.882479	1.085002
	H289	H	0.967081	0.888126	1.083155
	H290	H	0.951952	0.863873	1.089386
	O291	O	-0.005654	0.864369	-0.083123
	H292	H	-0.005991	0.863968	-0.092144
	H293	H	-0.001163	0.880528	-0.081148
	O294	O	0.447836	0.450973	0.357842
	H295	H	0.438986	0.438617	0.351024
	H296	H	0.458482	0.460003	0.355631
	O297	O	0.458168	0.543350	0.523921
	H298	H	0.465453	0.550393	0.521830
	H299	H	0.455457	0.529360	0.489268
	O300	O	0.456644	0.553953	0.555872
	H301	H	0.452042	0.550874	0.552024
	H302	H	0.450490	0.554470	0.570267
	O303	O	0.464044	0.510754	0.410984
	H304	H	0.453755	0.503932	0.412742
	H305	H	0.462374	0.504947	0.410217
	O306	O	0.419972	0.319606	0.475420
	H307	H	0.422096	0.307938	0.479944
	H308	H	0.416481	0.335954	0.468577
	O309	O	0.393941	0.439119	0.346215
	H310	H	0.398904	0.436964	0.347744
	H311	H	0.389009	0.444529	0.345651
	O312	O	0.108405	-0.031448	0.049453
	H313	H	0.099959	-0.027021	0.040425
	H314	H	0.115149	-0.032943	0.039595
	O315	O	0.381499	0.532714	0.510151
	H316	H	0.381467	0.523610	0.521608
	H317	H	0.377871	0.527524	0.519731
	O318	O	-0.095427	0.890109	1.073520
	H319	H	-0.099780	0.875172	1.061147
	H320	H	-0.091751	0.888759	1.075860
	O321	O	0.417926	0.560502	0.541986
	H322	H	0.407860	0.556434	0.537550
	H323	H	0.425503	0.569449	0.544509
	O324	O	-0.101811	1.104756	-0.007570
	H325	H	-0.084338	1.093591	-0.001741
	H326	H	-0.116799	1.096252	0.008385
	O327	O	0.680884	0.304832	0.463506
	H328	H	0.695178	0.287838	0.465971
	H329	H	0.681581	0.309030	0.449370
	O330	O	0.076443	0.107193	1.097310
	H331	H	0.089366	0.120252	1.105273
	H332	H	0.058103	0.101308	1.093047
	O333	O	-0.100268	0.136434	0.909585
	H334	H	-0.099551	0.138538	0.928119
	H335	H	-0.113448	0.149806	0.895441
	O336	O	0.520377	0.517601	0.502530
	H337	H	0.522673	0.532023	0.501659
	H338	H	0.521459	0.517501	0.510655
	O339	O	1.004276	0.090341	0.154881
	H340	H	1.014828	0.083927	0.161493
	H341	H	1.003291	0.069846	0.144201
	O342	O	-0.041081	0.133447	-0.038196
	H343	H	-0.048571	0.125736	-0.050879
	H344	H	-0.045928	0.130696	-0.025566
	O345	O	0.822198	-0.082835	1.033889
	H346	H	0.814652	-0.074277	1.034650
	H347	H	0.820554	-0.082547	1.044080
	O348	O	0.883474	1.141626	-0.015705
	H349	H	0.902462	1.147863	0.001670
	H350	H	0.881446	1.137042	-0.011593
	O351	O	0.521190	0.397353	0.469652
	H352	H	0.512957	0.386931	0.468864
	H353	H	0.525465	0.396817	0.459635
	O354	O	1.061344	-0.058023	0.916567
	H355	H	1.059952	-0.060368	0.909102
	H356	H	1.046657	-0.058551	0.909762
	O357	O	0.444078	0.502418	0.614103
	H358	H	0.443162	0.502177	0.620276
	H359	H	0.452345	0.498480	0.598405
	O360	O	0.448768	0.459531	0.677123
	H361	H	0.449629	0.454319	0.682076
	H362	H	0.442583	0.459728	0.669922
	O363	O	0.078298	1.061142	1.103227
	H364	H	0.075344	1.050329	1.090739
	H365	H	0.075680	1.075618	1.106877
	O366	O	0.584333	0.557367	0.570702
	H367	H	0.572158	0.567575	0.570342
	H368	H	0.591144	0.555087	0.568631
	O369	O	0.093675	0.984987	-0.001353
	H370	H	0.093560	1.002911	0.006697
	H371	H	0.105808	0.994119	0.000214
	O372	O	0.534821	0.520315	0.337695
	H373	H	0.520204	0.538678	0.336016
	H374	H	0.537493	0.512517	0.351130
	O375	O	0.584950	0.311895	0.655865
	H376	H	0.599212	0.314084	0.660239
	H377	H	0.585984	0.313668	0.648339
	O378	O	0.826452	1.011931	0.119243
	H379	H	0.818257	0.988280	0.123435
	H380	H	0.834203	0.999275	0.118602
	O381	O	1.005940	-0.033824	-0.080919
	H382	H	1.016676	-0.026249	-0.079641
	H383	H	1.004806	-0.039257	-0.071968
	O384	O	1.024716	0.885200	0.143993
	H385	H	1.032107	0.897548	0.139595
	H386	H	1.030085	0.883070	0.139780
	O387	O	0.045189	-0.017030	-0.026019
	H388	H	0.048015	-0.020087	-0.046514
	H389	H	0.051640	-0.013795	-0.038321
	O390	O	-0.037959	1.191451	-0.141623
	H391	H	-0.061346	1.187679	-0.123810
	H392	H	-0.045172	1.201600	-0.159454
	O393	O	1.087700	0.859369	0.943276
	H394	H	1.083481	0.861471	0.947599
	H395	H	1.075234	0.848494	0.946682
	O396	O	0.601535	0.619648	0.551275
	H397	H	0.606172	0.614993	0.555708
	H398	H	0.584606	0.623826	0.554357
	O399	O	0.080422	1.176625	1.058363
	H400	H	0.068081	1.176989	1.072863
	H401	H	0.062796	1.183834	1.062766
	O402	O	0.588320	0.645066	0.562414
	H403	H	0.589919	0.651239	0.581638
	H404	H	0.593893	0.632433	0.557962
	O405	O	1.153642	0.839910	-0.180581
	H406	H	1.149662	0.827670	-0.174038
	H407	H	1.173353	0.848961	-0.184750
	O408	O	0.922416	0.892270	-0.009915
	H409	H	0.923401	0.891146	-0.022689
	H410	H	0.924795	0.891124	-0.002201
	O411	O	1.119618	-0.001629	1.053779
	H412	H	1.134446	0.000508	1.048604
	H413	H	1.105728	-0.000104	1.043102
	O414	O	0.597878	0.525627	0.527586
	H415	H	0.592732	0.525928	0.521146
	H416	H	0.596917	0.524548	0.527839
	O417	O	0.509826	0.435518	0.560448
	H418	H	0.518767	0.444978	0.562649
	H419	H	0.513984	0.442316	0.552362
