data_Molecule from HDF5

_cell_length_a		16.726598
_cell_length_b		16.653426
_cell_length_c		16.574949
_cell_angle_alpha	90.131083
_cell_angle_beta	90.014996
_cell_angle_gamma	89.801733
_symmetry_space_group_name_H-M	'P 1'
_symmetry_Int_Tables_number		1

loop_
	_symmetry_equiv_pos_as_xyz
	x,y,z

loop_
	_atom_site_label
	_atom_site_type_symbol
	_atom_site_fract_x
	_atom_site_fract_y
	_atom_site_fract_z
	H0	H	0.373591	0.829823	0.709271
	H1	H	0.579164	0.142178	0.712828
	H2	H	0.584775	0.833365	0.267094
	H3	H	0.368525	0.140609	0.269307
	H4	H	0.701386	0.374690	0.839999
	H5	H	0.697605	0.594598	0.147353
	H6	H	0.256568	0.587176	0.834669
	H7	H	0.253943	0.381119	0.147226
	H8	H	0.822628	0.712888	0.383152
	H9	H	0.123864	0.715932	0.605956
	H10	H	0.820647	0.267054	0.596092
	H11	H	0.128006	0.263462	0.384086
	H12	H	0.820582	0.382838	0.712282
	H13	H	0.126124	0.597015	0.718826
	H14	H	0.821983	0.596439	0.267184
	H15	H	0.129322	0.381226	0.269877
	H16	H	0.373908	0.701620	0.834001
	H17	H	0.582215	0.710017	0.146109
	H18	H	0.583569	0.261354	0.837373
	H19	H	0.369502	0.264081	0.146192
	H20	H	0.701678	0.834385	0.381735
	H21	H	0.697165	0.140765	0.599607
	H22	H	0.253821	0.832405	0.597862
	H23	H	0.250441	0.139596	0.382900
	H24	H	0.866913	0.333322	0.217242
	H25	H	0.079502	0.642085	0.213353
	H26	H	0.082568	0.333367	0.767282
	H27	H	0.864716	0.638186	0.767635
	H28	H	0.201139	0.875036	0.340190
	H29	H	0.197799	0.094641	0.645701
	H30	H	0.753625	0.092156	0.336205
	H31	H	0.749551	0.876654	0.644354
	H32	H	0.320248	0.208033	0.885403
	H33	H	0.625896	0.212498	0.102111
	H34	H	0.321129	0.764132	0.098693
	H35	H	0.627921	0.761252	0.883306
	H36	H	0.322109	0.878761	0.215909
	H37	H	0.627111	0.095967	0.217339
	H38	H	0.319366	0.090369	0.770892
	H39	H	0.629183	0.879299	0.769899
	H40	H	0.870060	0.206509	0.335294
	H41	H	0.080472	0.209731	0.646140
	H42	H	0.084251	0.761563	0.339338
	H43	H	0.865400	0.761146	0.643485
	H44	H	0.199169	0.333444	0.882446
	H45	H	0.196096	0.640859	0.098450
	H46	H	0.746268	0.335953	0.106881
	H47	H	0.747898	0.637545	0.882204
	H48	H	0.383621	0.097695	0.576856
	H49	H	0.565243	0.874098	0.581926
	H50	H	0.563696	0.096340	0.409668
	H51	H	0.383764	0.873680	0.402484
	H52	H	0.560935	0.400751	0.103117
	H53	H	0.557755	0.573394	0.882430
	H54	H	0.385799	0.573154	0.103703
	H55	H	0.388628	0.402970	0.882270
	H56	H	0.085141	0.571862	0.400128
	H57	H	0.864928	0.573489	0.579875
	H58	H	0.087552	0.392740	0.579188
	H59	H	0.865446	0.399933	0.406960
	H60	H	0.083751	0.401613	0.574838
	H61	H	0.865910	0.575859	0.575292
	H62	H	0.086044	0.579185	0.404540
	H63	H	0.863085	0.400725	0.399851
	H64	H	0.387084	0.579132	0.104936
	H65	H	0.565950	0.576084	0.878351
	H66	H	0.559863	0.401397	0.100377
	H67	H	0.389638	0.392961	0.879174
	H68	H	0.564841	0.098723	0.402354
	H69	H	0.561807	0.876187	0.579477
	H70	H	0.381957	0.099039	0.584127
	H71	H	0.392406	0.876931	0.401042
	H72	H	0.887940	0.594931	0.078325
	H73	H	0.066929	0.374054	0.082214
	H74	H	0.064727	0.598704	0.903785
	H75	H	0.887169	0.376085	0.907928
	H76	H	0.063902	0.901871	0.604576
	H77	H	0.062384	0.073078	0.380089
	H78	H	0.889110	0.074681	0.602122
	H79	H	0.891895	0.898813	0.381636
	H80	H	0.586186	0.074446	0.900972
	H81	H	0.365008	0.069295	0.082804
	H82	H	0.586049	0.902506	0.087147
	H83	H	0.365208	0.897952	0.902202
	H84	H	0.587854	0.888444	0.076879
	H85	H	0.363339	0.078104	0.079165
	H86	H	0.585230	0.075518	0.905594
	H87	H	0.361036	0.894687	0.895700
	H88	H	0.885633	0.081404	0.605880
	H89	H	0.063300	0.076410	0.379343
	H90	H	0.061179	0.904911	0.601248
	H91	H	0.886013	0.900611	0.380688
	H92	H	0.061903	0.597815	0.904514
	H93	H	0.062887	0.374920	0.082030
	H94	H	0.885929	0.595936	0.076590
	H95	H	0.890742	0.375706	0.903818
	H96	H	0.389144	0.097611	0.582214
	H97	H	0.565798	0.875308	0.577311
	H98	H	0.558019	0.095726	0.403839
	H99	H	0.388413	0.877846	0.409501
	H100	H	0.559002	0.399167	0.101250
	H101	H	0.565092	0.567252	0.881876
	H102	H	0.381478	0.576560	0.106565
	H103	H	0.381010	0.398117	0.877638
	H104	H	0.082816	0.571679	0.408224
	H105	H	0.867207	0.571103	0.576143
	H106	H	0.086354	0.401426	0.585040
	H107	H	0.862426	0.393534	0.403076
	H108	H	0.886200	0.596364	0.079161
	H109	H	0.065531	0.375354	0.078831
	H110	H	0.064068	0.597621	0.906314
	H111	H	0.892236	0.378271	0.908481
	H112	H	0.059471	0.899810	0.602136
	H113	H	0.065387	0.073536	0.378922
	H114	H	0.881153	0.074456	0.604894
	H115	H	0.890144	0.904646	0.382767
	H116	H	0.583510	0.071674	0.903775
	H117	H	0.367908	0.071458	0.073795
	H118	H	0.580059	0.902592	0.070507
	H119	H	0.361984	0.890957	0.902728
	C120	C	0.353588	-0.004634	0.612949
	C121	C	0.596581	0.977801	0.612938
	C122	C	0.596450	-0.004564	0.370821
	C123	C	0.353956	0.977890	0.370482
	C124	C	0.595199	0.364826	0.000281
	C125	C	0.596005	0.606581	0.983239
	C126	C	0.353730	0.606673	0.000815
	C127	C	0.353652	0.365286	0.982347
	C128	C	-0.016322	0.608738	0.370434
	C129	C	0.965739	0.608539	0.613375
	C130	C	-0.016198	0.366288	0.612419
	C131	C	0.965843	0.365476	0.370051
	C132	C	0.853220	0.494621	0.113224
	C133	C	0.096672	0.477503	0.113646
	C134	C	0.096557	0.495871	0.870714
	C135	C	0.854261	0.477433	0.871917
	C136	C	0.095785	0.866369	0.501198
	C137	C	0.096093	0.107624	0.482226
	C138	C	0.853568	0.108220	0.500527
	C139	C	0.854453	0.866645	0.482833
	C140	C	0.483127	0.106776	0.870328
	C141	C	0.466499	0.107317	0.112902
	C142	C	0.483441	0.864586	0.112083
	C143	C	0.465632	0.862988	0.868663
	C144	C	0.353545	0.877300	0.670870
	C145	C	0.598257	0.094897	0.673569
	C146	C	0.601619	0.879883	0.307996
	C147	C	0.350232	0.094043	0.309470
	C148	C	0.659182	0.358581	0.885471
	C149	C	0.657228	0.611528	0.100081
	C150	C	0.295897	0.606463	0.882022
	C151	C	0.293918	0.362681	0.100199
	C152	C	0.868523	0.671427	0.365937
	C153	C	0.079286	0.672914	0.621304
	C154	C	0.867367	0.306937	0.614467
	C155	C	0.081936	0.304246	0.366305
	C156	C	0.867239	0.364674	0.672271
	C157	C	0.079886	0.614171	0.677788
	C158	C	0.868256	0.613545	0.308109
	C159	C	0.082605	0.363181	0.309910
	C160	C	0.354143	0.663112	0.881406
	C161	C	0.599613	0.668933	0.099700
	C162	C	0.600876	0.301948	0.884472
	C163	C	0.351131	0.304585	0.099787
	C164	C	0.659680	0.880146	0.365136
	C165	C	0.656816	0.094380	0.617037
	C166	C	0.294331	0.878390	0.615203
	C167	C	0.291721	0.093517	0.366103
	C168	C	0.849137	0.379551	0.176499
	C169	C	0.098151	0.595031	0.173378
	C170	C	0.100540	0.379785	0.808151
	C171	C	0.847992	0.592393	0.808863
	C172	C	0.159153	0.859465	0.385892
	C173	C	0.156783	0.111871	0.599306
	C174	C	0.793832	0.110085	0.382874
	C175	C	0.791028	0.860441	0.598078
	C176	C	0.366663	0.167465	0.867350
	C177	C	0.580505	0.170802	0.118614
	C178	C	0.367765	0.803800	0.116455
	C179	C	0.581729	0.802507	0.866024
	C180	C	0.368122	0.861326	0.174347
	C181	C	0.581140	0.112807	0.175988
	C182	C	0.366366	0.108915	0.810304
	C183	C	0.582307	0.861205	0.809306
	C184	C	0.851961	0.166798	0.382477
	C185	C	0.098695	0.169130	0.599287
	C186	C	0.101094	0.802772	0.385726
	C187	C	0.848613	0.803076	0.598000
	C188	C	0.158500	0.379857	0.865345
	C189	C	0.156019	0.594527	0.116186
	C190	C	0.789321	0.380752	0.121344
	C191	C	0.789729	0.591668	0.865697
	C192	C	0.377749	0.077014	0.588218
	C193	C	0.571627	0.896313	0.586973
	C194	C	0.569772	0.075991	0.397810
	C195	C	0.380704	0.897084	0.396898
	C196	C	0.567586	0.392479	0.080644
	C197	C	0.570195	0.579929	0.902080
	C198	C	0.377906	0.583209	0.083362
	C199	C	0.379037	0.390786	0.900878
	C200	C	0.063927	0.582085	0.396944
	C201	C	0.886542	0.581296	0.584931
	C202	C	0.064945	0.391370	0.586855
	C203	C	0.884860	0.390924	0.395840
	C204	C	0.879323	0.574796	0.085707
	C205	C	0.072088	0.396084	0.088289
	C206	C	0.070722	0.577000	0.897181
	C207	C	0.882288	0.397575	0.899175
	C208	C	0.068938	0.894270	0.581704
	C209	C	0.070959	0.081610	0.400738
	C210	C	0.878235	0.083701	0.582771
	C211	C	0.881715	0.893703	0.402522
	C212	C	0.563877	0.081298	0.896290
	C213	C	0.386363	0.080555	0.086112
	C214	C	0.563728	0.890375	0.085646
	C215	C	0.383954	0.887466	0.893261
	Zn216	Zn	0.475143	-0.014054	0.740788
	Zn217	Zn	0.475149	-0.013991	0.241731
	Zn218	Zn	0.724059	0.485028	-0.007581
	Zn219	Zn	0.224874	0.486308	-0.007724
	Zn220	Zn	-0.024429	0.737480	0.492288
	Zn221	Zn	-0.025225	0.236362	0.491080
	Zn222	Zn	-0.025108	0.487225	0.742383
	Zn223	Zn	-0.025032	0.486918	0.241476
	Zn224	Zn	0.474356	0.734908	-0.008661
	Zn225	Zn	0.474547	0.236385	-0.008718
	Zn226	Zn	0.725314	-0.012774	0.491654
	Zn227	Zn	0.225082	-0.013795	0.491936
	N228	N	0.389676	0.950947	0.669706
	N229	N	0.561581	0.021190	0.671297
	N230	N	0.562739	0.952548	0.311404
	N231	N	0.388379	0.021015	0.312033
	N232	N	0.655931	0.396952	0.958695
	N233	N	0.655396	0.573541	0.026453
	N234	N	0.295144	0.572471	0.957401
	N235	N	0.295043	0.399516	0.026153
	N236	N	0.941478	0.668572	0.403935
	N237	N	0.007386	0.669630	0.581939
	N238	N	0.941030	0.307598	0.577847
	N239	N	0.008255	0.305430	0.402987
	N240	N	0.940900	0.400744	0.671279
	N241	N	0.008256	0.574765	0.673060
	N242	N	0.940918	0.575162	0.310654
	N243	N	0.009288	0.400308	0.311737
	N244	N	0.389348	0.663656	0.956237
	N245	N	0.562281	0.666246	0.025946
	N246	N	0.561773	0.305684	0.957065
	N247	N	0.387503	0.305990	0.025614
	N248	N	0.656605	0.953050	0.403620
	N249	N	0.656180	0.020449	0.580206
	N250	N	0.294160	0.952928	0.579732
	N251	N	0.293705	0.019996	0.403267
	N252	N	0.888312	0.451504	0.171760
	N253	N	0.061926	0.521278	0.171980
	N254	N	0.062634	0.453063	0.811206
	N255	N	0.887458	0.520203	0.812451
	N256	N	0.155900	0.898515	0.458773
	N257	N	0.155375	0.074177	0.525549
	N258	N	0.794408	0.074427	0.457608
	N259	N	0.794506	0.899385	0.525612
	N260	N	0.440287	0.166591	0.903865
	N261	N	0.508115	0.167483	0.079936
	N262	N	0.440498	0.805609	0.078390
	N263	N	0.507972	0.803198	0.902219
	N264	N	0.441145	0.898565	0.172033
	N265	N	0.509148	0.073834	0.172535
	N266	N	0.439917	0.072077	0.811704
	N267	N	0.508949	0.898200	0.810704
	N268	N	0.888228	0.165923	0.456741
	N269	N	0.061649	0.166781	0.525441
	N270	N	0.062051	0.807034	0.458434
	N271	N	0.887666	0.806708	0.525288
	N272	N	0.156075	0.452978	0.903577
	N273	N	0.155324	0.520445	0.079587
	N274	N	0.791709	0.453297	0.082521
	N275	N	0.793472	0.519075	0.904440
	O276	O	0.185844	0.771670	-0.049201
	H277	H	0.214124	0.753694	-0.044803
	H278	H	0.167596	0.771106	-0.061536
	O279	O	0.352988	0.626274	0.388539
	H280	H	0.354685	0.633033	0.383634
	H281	H	0.343867	0.601268	0.382957
	O282	O	1.028039	0.222171	0.936508
	H283	H	1.021066	0.219441	0.959694
	H284	H	1.029616	0.226560	0.953502
	O285	O	0.415981	0.482600	0.484399
	H286	H	0.415137	0.492665	0.495151
	H287	H	0.414648	0.491634	0.485406
	O288	O	0.626981	0.695002	0.348837
	H289	H	0.632656	0.708363	0.340025
	H290	H	0.625656	0.679158	0.348075
	O291	O	0.512185	0.703643	0.710007
	H292	H	0.554125	0.702771	0.713225
	H293	H	0.510722	0.718503	0.736755
	O294	O	0.984236	-0.230533	0.770305
	H295	H	1.006120	-0.241166	0.770655
	H296	H	0.999371	-0.246826	0.758743
	O297	O	0.751234	0.761954	0.019228
	H298	H	0.767143	0.752805	0.006515
	H299	H	0.727528	0.742085	0.022736
	O300	O	-0.262077	-0.071582	0.944721
	H301	H	-0.255625	-0.086173	0.951001
	H302	H	-0.261334	-0.083158	0.931904
	O303	O	0.407558	0.311256	0.392886
	H304	H	0.410743	0.309632	0.401783
	H305	H	0.399962	0.328411	0.407309
	O306	O	0.659571	0.303971	0.675762
	H307	H	0.680839	0.279805	0.691712
	H308	H	0.672850	0.311296	0.666266
	O309	O	0.250999	0.268274	0.519352
	H310	H	0.223075	0.243057	0.529557
	H311	H	0.265366	0.271460	0.534229
	O312	O	0.684861	0.519470	0.427736
	H313	H	0.685354	0.516490	0.425677
	H314	H	0.685145	0.512750	0.413541
	O315	O	0.923402	0.985916	0.946590
	H316	H	0.937351	0.984747	0.955269
	H317	H	0.929088	0.988029	0.935396
	O318	O	0.505228	0.281360	0.283771
	H319	H	0.488805	0.279660	0.294705
	H320	H	0.497496	0.270915	0.276604
	O321	O	-0.018961	0.900523	0.795513
	H322	H	-0.012803	0.887331	0.789691
	H323	H	0.005482	0.889100	0.781054
	O324	O	0.765502	0.951381	0.199899
	H325	H	0.769482	0.974624	0.201979
	H326	H	0.746541	0.953078	0.207319
	O327	O	0.151594	0.165441	0.811985
	H328	H	0.153056	0.153341	0.820906
	H329	H	0.134614	0.165126	0.834170
	O330	O	0.706735	0.425629	0.549255
	H331	H	0.704168	0.399604	0.545741
	H332	H	0.702484	0.431227	0.539852
	O333	O	0.681319	0.686563	0.530575
	H334	H	0.682191	0.687993	0.519736
	H335	H	0.686028	0.695568	0.521531
	O336	O	0.698886	0.263083	0.464304
	H337	H	0.727725	0.237133	0.456555
	H338	H	0.678162	0.263542	0.453703
	O339	O	1.193486	0.013596	1.210905
	H340	H	1.178035	0.025537	1.213985
	H341	H	1.208272	0.013666	1.232444
	O342	O	0.444283	0.547594	-0.662261
	H343	H	0.449600	0.548083	-0.660175
	H344	H	0.447717	0.556791	-0.653820
	O345	O	0.099421	0.870036	1.196866
	H346	H	0.094031	0.881102	1.181170
	H347	H	0.077330	0.876871	1.197972
	O348	O	0.287450	0.294212	0.300669
	H349	H	0.315875	0.304935	0.316096
	H350	H	0.293758	0.319108	0.324571
	O351	O	0.913736	1.049388	0.215083
	H352	H	0.908068	1.053600	0.216542
	H353	H	0.925624	1.068888	0.215001
	O354	O	-0.097265	-0.248694	0.961258
	H355	H	-0.077435	-0.241808	0.965984
	H356	H	-0.098897	-0.251272	0.961649
	O357	O	0.811363	0.099564	0.891130
	H358	H	0.806694	0.078124	0.893050
	H359	H	0.833700	0.087104	0.894712
	O360	O	0.683024	0.691061	0.695288
	H361	H	0.697365	0.680337	0.692015
	H362	H	0.680708	0.675277	0.668842
	O363	O	-0.202285	0.159238	0.155172
	H364	H	-0.209179	0.161177	0.142641
	H365	H	-0.188462	0.141717	0.134866
	O366	O	0.407077	0.551621	0.629680
	H367	H	0.406639	0.548397	0.630560
	H368	H	0.414882	0.547175	0.622869
	O369	O	0.556184	0.592810	0.403375
	H370	H	0.549497	0.599324	0.394604
	H371	H	0.552570	0.584115	0.408731
	O372	O	1.198186	0.900943	0.030348
	H373	H	1.198181	0.883901	0.045198
	H374	H	1.195778	0.898280	0.041648
	O375	O	1.175697	0.193567	0.196575
	H376	H	1.209352	0.215926	0.226251
	H377	H	1.185799	0.179010	0.164591
	O378	O	0.644550	0.500095	0.705697
	H379	H	0.649137	0.493061	0.706544
	H380	H	0.647103	0.494658	0.701032
	O381	O	0.190814	0.774071	0.784815
	H382	H	0.213929	0.750383	0.783741
	H383	H	0.203071	0.779383	0.779580
	O384	O	0.753809	-0.005551	0.780942
	H385	H	0.773968	-0.011715	0.785328
	H386	H	0.731559	-0.005047	0.752126
	O387	O	1.446676	0.270610	0.712042
	H388	H	1.448275	0.266039	0.720031
	H389	H	1.437402	0.260017	0.723291
	O390	O	0.431610	0.681593	0.485163
	H391	H	0.434714	0.679988	0.466048
	H392	H	0.456060	0.690325	0.483788
	O393	O	0.247891	0.484297	0.585597
	H394	H	0.237676	0.479509	0.588962
	H395	H	0.258239	0.481371	0.585789
	O396	O	0.273531	1.283702	0.693021
	H397	H	0.273700	1.313238	0.685266
	H398	H	0.270000	1.261894	0.708341
	O399	O	-0.050462	-0.232288	1.213290
	H400	H	-0.064774	-0.252224	1.225411
	H401	H	-0.066090	-0.235568	1.215603
	O402	O	0.429647	0.405318	0.417954
	H403	H	0.422992	0.397208	0.426013
	H404	H	0.433097	0.423943	0.428408
	O405	O	0.753761	0.215609	0.981796
	H406	H	0.740523	0.221912	0.956503
	H407	H	0.745854	0.220225	0.960269
	O408	O	-0.255259	0.047525	0.058071
	H409	H	-0.264936	0.062145	0.045242
	H410	H	-0.252921	0.027684	0.041883
	O411	O	1.086426	1.044881	0.866205
	H412	H	1.080110	1.035872	0.872413
	H413	H	1.084455	1.030321	0.863459
	O414	O	1.187620	-0.030192	0.782508
	H415	H	1.190487	-0.030862	0.765205
	H416	H	1.196181	-0.045116	0.783247
	O417	O	0.692883	0.465032	0.274349
	H418	H	0.712097	0.449778	0.254069
	H419	H	0.694018	0.440609	0.279729
	O420	O	0.251671	0.690313	0.471945
	H421	H	0.259395	0.706023	0.458261
	H422	H	0.247568	0.707840	0.456381
	O423	O	0.144689	0.061993	1.008580
	H424	H	0.140569	0.063491	1.001549
	H425	H	0.140600	0.048377	1.023749
	O426	O	0.534046	0.261288	0.541016
	H427	H	0.543975	0.260832	0.542980
	H428	H	0.531022	0.275582	0.557992
	O429	O	0.978425	0.917578	1.108479
	H430	H	0.972392	0.898906	1.110584
	H431	H	0.960150	0.933320	1.106586
	O432	O	0.283340	0.674671	0.680661
	H433	H	0.291311	0.656567	0.655212
	H434	H	0.311592	0.662384	0.664322
	O435	O	0.781988	0.792619	0.798781
	H436	H	0.790790	0.789946	0.801604
	H437	H	0.782672	0.788616	0.789042
	O438	O	0.204055	-0.247874	0.223150
	H439	H	0.218074	-0.240313	0.234523
	H440	H	0.191058	-0.214927	0.204087
	O441	O	-0.235243	0.204609	-0.230914
	H442	H	-0.206877	0.187262	-0.224220
	H443	H	-0.219408	0.181277	-0.213522
	O444	O	0.320349	0.470249	0.696143
	H445	H	0.318193	0.464760	0.704798
	H446	H	0.319221	0.474693	0.692024
	O447	O	-0.495258	1.463342	0.722692
	H448	H	-0.484101	1.453173	0.723697
	H449	H	-0.488388	1.449937	0.715068
	O450	O	0.033659	0.752389	1.045357
	H451	H	0.034662	0.760422	1.068660
	H452	H	0.033450	0.760786	1.046604
	O453	O	0.688508	0.277845	0.290426
	H454	H	0.706214	0.260978	0.282666
	H455	H	0.645227	0.280265	0.291399
	O456	O	0.463053	-0.527967	0.553444
	H457	H	0.453203	-0.507510	0.548552
	H458	H	0.472435	-0.512878	0.560455
	O459	O	0.958638	1.201702	0.149562
	H460	H	0.966636	1.208022	0.159962
	H461	H	0.981549	1.206221	0.159398
	O462	O	0.549455	0.571834	0.439014
	H463	H	0.558472	0.559004	0.449220
	H464	H	0.561159	0.590144	0.433844
	O465	O	1.044370	-0.027877	0.049580
	H466	H	1.031800	-0.022759	0.049189
	H467	H	1.047453	-0.026078	0.032188
	O468	O	0.254163	0.514317	0.275390
	H469	H	0.241654	0.519641	0.277432
	H470	H	0.245388	0.514755	0.267491
	O471	O	0.967729	0.997730	0.786569
	H472	H	0.958903	0.994140	0.785304
	H473	H	0.976191	0.986254	0.788372
	O474	O	0.409361	0.528210	0.507427
	H475	H	0.410957	0.533516	0.519948
	H476	H	0.414118	0.519885	0.520525
	O477	O	0.780064	0.785334	1.190895
	H478	H	0.782083	0.783651	1.151042
	H479	H	0.782141	0.818039	1.200041
	O480	O	0.529849	0.460123	0.393276
	H481	H	0.525605	0.457191	0.395587
	H482	H	0.541774	0.447579	0.398058
	O483	O	0.445212	0.703215	0.282585
	H484	H	0.451978	0.706925	0.262732
	H485	H	0.445124	0.696702	0.275985
	O486	O	1.069947	-0.054553	0.888768
	H487	H	1.077986	-0.061267	0.897567
	H488	H	1.064564	-0.047360	0.879728
	O489	O	1.183433	1.205629	0.011247
	H490	H	1.195351	1.196600	0.008503
	H491	H	1.199940	1.211175	0.015288
	O492	O	-0.015096	0.004473	0.038613
	H493	H	-0.021034	0.021351	0.041815
	H494	H	-0.004476	0.007193	0.024926
	O495	O	-0.028577	1.222638	1.117728
	H496	H	-0.037463	1.235548	1.148651
	H497	H	-0.016962	1.223522	1.124867
	O498	O	0.940689	1.207149	0.776477
	H499	H	0.952097	1.215339	0.763877
	H500	H	0.958870	1.214130	0.787675
	O501	O	0.320452	0.475747	0.392733
	H502	H	0.324274	0.471461	0.393682
	H503	H	0.323048	0.477854	0.401133
