data_Molecule from HDF5

_cell_length_a		16.357807
_cell_length_b		16.219039
_cell_length_c		16.382971
_cell_angle_alpha	90.213229
_cell_angle_beta	89.737773
_cell_angle_gamma	89.936133
_symmetry_space_group_name_H-M	'P 1'
_symmetry_Int_Tables_number		1

loop_
	_symmetry_equiv_pos_as_xyz
	x,y,z

loop_
	_atom_site_label
	_atom_site_type_symbol
	_atom_site_fract_x
	_atom_site_fract_y
	_atom_site_fract_z
	H0	H	0.404706	0.844068	0.715439
	H1	H	0.600940	0.173008	0.715686
	H2	H	0.602475	0.844537	0.285809
	H3	H	0.404938	0.172648	0.289699
	H4	H	0.720373	0.408021	0.839905
	H5	H	0.718510	0.609842	0.164830
	H6	H	0.287204	0.608272	0.840500
	H7	H	0.285079	0.409399	0.163914
	H8	H	0.838929	0.722430	0.406956
	H9	H	0.166361	0.721751	0.596450
	H10	H	0.839703	0.295224	0.599639
	H11	H	0.166076	0.294788	0.403844
	H12	H	0.840292	0.408685	0.717997
	H13	H	0.165236	0.609475	0.717040
	H14	H	0.839254	0.608663	0.287081
	H15	H	0.165304	0.408530	0.284725
	H16	H	0.406055	0.722076	0.839368
	H17	H	0.598250	0.723685	0.165640
	H18	H	0.600436	0.294856	0.838661
	H19	H	0.403919	0.295392	0.164948
	H20	H	0.717821	0.844069	0.402329
	H21	H	0.717145	0.172706	0.600853
	H22	H	0.288630	0.843980	0.599385
	H23	H	0.290011	0.172918	0.405426
	H24	H	0.903911	0.344406	0.215384
	H25	H	0.100786	0.672491	0.216803
	H26	H	0.102457	0.345385	0.785466
	H27	H	0.905112	0.673524	0.789573
	H28	H	0.220211	0.907601	0.339493
	H29	H	0.217891	0.108737	0.664288
	H30	H	0.787815	0.108232	0.339873
	H31	H	0.786521	0.909899	0.664663
	H32	H	0.339001	0.222817	0.905852
	H33	H	0.666272	0.223046	0.098176
	H34	H	0.339040	0.796163	0.099863
	H35	H	0.665602	0.794312	0.903494
	H36	H	0.340527	0.910341	0.218772
	H37	H	0.665544	0.109586	0.217981
	H38	H	0.340637	0.109454	0.786597
	H39	H	0.665457	0.908776	0.785583
	H40	H	0.906561	0.222321	0.338671
	H41	H	0.099700	0.223849	0.664708
	H42	H	0.100839	0.794103	0.338412
	H43	H	0.905173	0.795931	0.665893
	H44	H	0.217586	0.345131	0.901676
	H45	H	0.215832	0.673075	0.100082
	H46	H	0.787921	0.345029	0.100948
	H47	H	0.788574	0.672782	0.905310
	H48	H	0.405959	0.124658	0.591510
	H49	H	0.592683	0.892726	0.595277
	H50	H	0.591856	0.121984	0.414608
	H51	H	0.409691	0.892328	0.412728
	H52	H	0.592517	0.420314	0.115992
	H53	H	0.587700	0.603013	0.889490
	H54	H	0.410225	0.595500	0.115905
	H55	H	0.403775	0.419175	0.885796
	H56	H	0.118100	0.594972	0.400530
	H57	H	0.888356	0.597075	0.596904
	H58	H	0.119877	0.413948	0.597607
	H59	H	0.883282	0.411780	0.401554
	H60	H	0.117857	0.415006	0.589020
	H61	H	0.884676	0.603785	0.601103
	H62	H	0.120640	0.609692	0.406629
	H63	H	0.888580	0.412035	0.416229
	H64	H	0.413060	0.608188	0.118955
	H65	H	0.602902	0.608204	0.883041
	H66	H	0.593841	0.412556	0.117508
	H67	H	0.415120	0.420774	0.889189
	H68	H	0.602873	0.126370	0.411358
	H69	H	0.596367	0.892615	0.590636
	H70	H	0.408607	0.127501	0.600498
	H71	H	0.409551	0.890731	0.406469
	H72	H	0.901425	0.627138	0.091804
	H73	H	0.098426	0.391612	0.088642
	H74	H	0.095812	0.624792	0.913509
	H75	H	0.909450	0.390302	0.904272
	H76	H	0.099099	0.912241	0.618496
	H77	H	0.100080	0.106310	0.383507
	H78	H	0.902968	0.097039	0.618306
	H79	H	0.906799	0.917411	0.386995
	H80	H	0.616292	0.092187	0.905740
	H81	H	0.388372	0.103051	0.089803
	H82	H	0.619751	0.918888	0.101402
	H83	H	0.385979	0.917542	0.902105
	H84	H	0.619080	0.909824	0.090538
	H85	H	0.388674	0.095503	0.099359
	H86	H	0.622115	0.107579	0.901014
	H87	H	0.385317	0.910446	0.909460
	H88	H	0.915421	0.100515	0.614846
	H89	H	0.101255	0.096306	0.386835
	H90	H	0.098193	0.920254	0.616464
	H91	H	0.912656	0.916543	0.387652
	H92	H	0.099291	0.627313	0.906596
	H93	H	0.096792	0.391095	0.098469
	H94	H	0.912479	0.627105	0.104377
	H95	H	0.917141	0.394024	0.909767
	H96	H	0.414634	0.123289	0.594666
	H97	H	0.598310	0.890284	0.595848
	H98	H	0.594013	0.126418	0.402584
	H99	H	0.414780	0.892356	0.409385
	H100	H	0.600014	0.418053	0.118277
	H101	H	0.601342	0.592095	0.888839
	H102	H	0.400704	0.603726	0.119769
	H103	H	0.411509	0.410069	0.884549
	H104	H	0.115058	0.597324	0.415778
	H105	H	0.886910	0.604487	0.592675
	H106	H	0.117610	0.421964	0.595016
	H107	H	0.889142	0.424683	0.407158
	H108	H	0.917227	0.621705	0.089675
	H109	H	0.089385	0.393946	0.092647
	H110	H	0.090798	0.625363	0.906098
	H111	H	0.908161	0.392848	0.913783
	H112	H	0.091189	0.914878	0.616174
	H113	H	0.091622	0.101537	0.388200
	H114	H	0.906698	0.109374	0.620846
	H115	H	0.909131	0.912093	0.385175
	H116	H	0.616485	0.105497	0.916698
	H117	H	0.384975	0.106603	0.101086
	H118	H	0.615060	0.923764	0.089223
	H119	H	0.389640	0.919497	0.911526
	C120	C	0.381444	0.016689	0.623320
	C121	C	0.623715	1.000438	0.622620
	C122	C	0.624838	0.016456	0.379903
	C123	C	0.382527	1.000185	0.381571
	C124	C	0.624252	0.387358	0.010064
	C125	C	0.624932	0.630562	0.994501
	C126	C	0.380149	0.630881	0.010672
	C127	C	0.381030	0.387981	0.993870
	C128	C	0.010143	0.629905	0.379894
	C129	C	0.994473	0.630649	0.624218
	C130	C	0.010886	0.387896	0.623138
	C131	C	0.994676	0.387342	0.379489
	C132	C	0.881696	0.516842	0.123619
	C133	C	0.123449	0.500427	0.122587
	C134	C	0.124326	0.517483	0.879558
	C135	C	0.882389	0.500671	0.881324
	C136	C	0.125042	0.886793	0.509771
	C137	C	0.125214	0.130356	0.493722
	C138	C	0.880845	0.130555	0.510400
	C139	C	0.881125	0.887167	0.494212
	C140	C	0.510671	0.130696	0.879957
	C141	C	0.494657	0.131127	0.124546
	C142	C	0.510678	0.888219	0.122953
	C143	C	0.494803	0.887102	0.879459
	C144	C	0.384159	0.893068	0.677735
	C145	C	0.621070	0.124091	0.677619
	C146	C	0.622883	0.893557	0.323720
	C147	C	0.384816	0.123765	0.327417
	C148	C	0.681364	0.388504	0.888154
	C149	C	0.679732	0.629370	0.116691
	C150	C	0.324998	0.628892	0.888755
	C151	C	0.324130	0.389673	0.115713
	C152	C	0.887520	0.684951	0.384717
	C153	C	0.117535	0.684771	0.618820
	C154	C	0.888300	0.332927	0.620356
	C155	C	0.117374	0.332271	0.382524
	C156	C	0.888690	0.389226	0.679323
	C157	C	0.117028	0.628856	0.678416
	C158	C	0.887985	0.628594	0.324991
	C159	C	0.116889	0.388683	0.323429
	C160	C	0.384322	0.685106	0.888009
	C161	C	0.620499	0.686374	0.116866
	C162	C	0.622118	0.331967	0.887373
	C163	C	0.383389	0.333325	0.116465
	C164	C	0.679874	0.893158	0.381952
	C165	C	0.678816	0.123906	0.620389
	C166	C	0.326285	0.893116	0.620396
	C167	C	0.327404	0.123708	0.384701
	C168	C	0.883382	0.393563	0.178260
	C169	C	0.120864	0.623909	0.178202
	C170	C	0.122275	0.394255	0.823899
	C171	C	0.884444	0.624373	0.826896
	C172	C	0.181174	0.888474	0.387721
	C173	C	0.179596	0.128490	0.616042
	C174	C	0.826145	0.128082	0.388020
	C175	C	0.825406	0.889594	0.616564
	C176	C	0.387964	0.185313	0.884667
	C177	C	0.617192	0.186253	0.120556
	C178	C	0.387697	0.833830	0.120605
	C179	C	0.617138	0.832173	0.882437
	C180	C	0.388601	0.890317	0.179615
	C181	C	0.616792	0.129544	0.179710
	C182	C	0.388608	0.128878	0.825293
	C183	C	0.616881	0.888774	0.823621
	C184	C	0.884993	0.184820	0.387433
	C185	C	0.120904	0.185712	0.616254
	C186	C	0.122035	0.831848	0.387092
	C187	C	0.884340	0.833011	0.617054
	C188	C	0.179833	0.394199	0.881236
	C189	C	0.178045	0.624101	0.120331
	C190	C	0.826124	0.393718	0.120925
	C191	C	0.826976	0.624280	0.884546
	C192	C	0.403212	0.102826	0.601917
	C193	C	0.602158	0.914060	0.600483
	C194	C	0.602743	0.102810	0.402733
	C195	C	0.404792	0.914075	0.403090
	C196	C	0.601923	0.410312	0.095212
	C197	C	0.603480	0.607633	0.909255
	C198	C	0.401789	0.609010	0.096226
	C199	C	0.403553	0.409989	0.908644
	C200	C	0.095801	0.607290	0.401258
	C201	C	0.908850	0.608426	0.603082
	C202	C	0.096240	0.410361	0.600466
	C203	C	0.909111	0.409553	0.401831
	C204	C	0.903784	0.603024	0.101700
	C205	C	0.101334	0.414409	0.099960
	C206	C	0.102023	0.603670	0.902184
	C207	C	0.904852	0.414515	0.902922
	C208	C	0.102705	0.909405	0.595199
	C209	C	0.103950	0.107936	0.408278
	C210	C	0.902024	0.108734	0.595833
	C211	C	0.903122	0.908948	0.408682
	C212	C	0.596390	0.108232	0.901492
	C213	C	0.409126	0.108475	0.102993
	C214	C	0.595807	0.910719	0.100230
	C215	C	0.409027	0.909387	0.901468
	Zn216	Zn	0.502995	0.008817	0.750961
	Zn217	Zn	0.503125	0.009128	0.253063
	Zn218	Zn	0.754089	0.508735	0.002673
	Zn219	Zn	0.251911	0.508951	0.001602
	Zn220	Zn	0.002434	0.758799	0.501800
	Zn221	Zn	0.002638	0.259097	0.501719
	Zn222	Zn	0.002756	0.509133	0.752430
	Zn223	Zn	0.002641	0.508372	0.250852
	Zn224	Zn	0.502085	0.759016	0.002044
	Zn225	Zn	0.502293	0.259140	0.002080
	Zn226	Zn	0.752230	0.008401	0.502028
	Zn227	Zn	0.253699	0.008480	0.501935
	N228	N	0.417383	0.971002	0.680041
	N229	N	0.587530	0.046353	0.678960
	N230	N	0.589394	0.971461	0.322602
	N231	N	0.418464	0.046080	0.325453
	N232	N	0.682907	0.422380	0.965384
	N233	N	0.682575	0.595394	0.039741
	N234	N	0.322647	0.595670	0.965822
	N235	N	0.322561	0.422914	0.038513
	N236	N	0.964478	0.685717	0.418086
	N237	N	0.040324	0.686117	0.585807
	N238	N	0.965249	0.331953	0.585936
	N239	N	0.040466	0.331410	0.416821
	N240	N	0.965837	0.422813	0.681027
	N241	N	0.039424	0.596155	0.681969
	N242	N	0.965252	0.594865	0.322314
	N243	N	0.039559	0.422030	0.321421
	N244	N	0.417405	0.686761	0.964997
	N245	N	0.587093	0.687008	0.039829
	N246	N	0.587434	0.331064	0.963970
	N247	N	0.417886	0.332046	0.039831
	N248	N	0.681209	0.970781	0.416075
	N249	N	0.680466	0.045975	0.586834
	N250	N	0.324484	0.970931	0.587431
	N251	N	0.325915	0.045798	0.417691
	N252	N	0.917171	0.471138	0.179896
	N253	N	0.087854	0.545920	0.179680
	N254	N	0.088695	0.472095	0.822682
	N255	N	0.918147	0.546577	0.824885
	N256	N	0.183038	0.921845	0.464986
	N257	N	0.182322	0.094876	0.538911
	N258	N	0.823283	0.095126	0.465359
	N259	N	0.823238	0.922409	0.539310
	N260	N	0.465113	0.186399	0.918096
	N261	N	0.540275	0.187309	0.087046
	N262	N	0.464549	0.832413	0.086171
	N263	N	0.540196	0.830931	0.916433
	N264	N	0.465959	0.923550	0.181251
	N265	N	0.539555	0.096081	0.182253
	N266	N	0.465783	0.095575	0.822544
	N267	N	0.539497	0.922129	0.821520
	N268	N	0.918092	0.186608	0.464375
	N269	N	0.087730	0.187059	0.539234
	N270	N	0.087894	0.830505	0.464027
	N271	N	0.918292	0.831448	0.539884
	N272	N	0.180878	0.471761	0.915463
	N273	N	0.179595	0.546452	0.086134
	N274	N	0.825091	0.471487	0.087645
	N275	N	0.825428	0.546419	0.917659
	O276	O	0.050169	-0.089346	0.989027
	H277	H	0.054790	-0.089305	0.984149
	H278	H	0.049422	-0.088786	0.990668
	O279	O	0.623564	0.276528	0.428108
	H280	H	0.617217	0.273297	0.429424
	H281	H	0.626210	0.272715	0.424859
	O282	O	0.518397	0.481490	0.529113
	H283	H	0.526616	0.486145	0.534598
	H284	H	0.519434	0.482347	0.533075
	O285	O	0.500955	0.461054	0.518739
	H286	H	0.504773	0.457805	0.528412
	H287	H	0.503480	0.464358	0.522059
	O288	O	0.491886	0.517414	0.537809
	H289	H	0.489909	0.519686	0.532408
	H290	H	0.489080	0.522522	0.539046
	O291	O	-0.499275	0.462034	0.508800
	H292	H	-0.491850	0.453958	0.501808
	H293	H	-0.509979	0.458853	0.508622
	O294	O	0.513626	0.433260	0.518143
	H295	H	0.519279	0.435715	0.515777
	H296	H	0.505036	0.432485	0.519389
	O297	O	1.041903	-0.080168	-0.023974
	H298	H	1.037435	-0.078006	-0.021295
	H299	H	1.045141	-0.081162	-0.023760
