data_Molecule from HDF5

_cell_length_a		16.256332
_cell_length_b		16.237727
_cell_length_c		16.323887
_cell_angle_alpha	89.951967
_cell_angle_beta	89.878381
_cell_angle_gamma	89.981897
_symmetry_space_group_name_H-M	'P 1'
_symmetry_Int_Tables_number		1

loop_
	_symmetry_equiv_pos_as_xyz
	x,y,z

loop_
	_atom_site_label
	_atom_site_type_symbol
	_atom_site_fract_x
	_atom_site_fract_y
	_atom_site_fract_z
	H0	H	0.393049	0.837672	0.705261
	H1	H	0.593745	0.164766	0.706708
	H2	H	0.591405	0.837137	0.275653
	H3	H	0.392965	0.164238	0.274600
	H4	H	0.705644	0.401651	0.826548
	H5	H	0.705689	0.600376	0.152456
	H6	H	0.275109	0.601491	0.826494
	H7	H	0.273378	0.401666	0.152289
	H8	H	0.828708	0.719306	0.390142
	H9	H	0.157170	0.713289	0.585795
	H10	H	0.828949	0.286457	0.588447
	H11	H	0.155448	0.288511	0.387879
	H12	H	0.828707	0.399827	0.705512
	H13	H	0.153890	0.603001	0.706766
	H14	H	0.827412	0.602761	0.274163
	H15	H	0.153538	0.401602	0.270710
	H16	H	0.390143	0.718507	0.827150
	H17	H	0.587257	0.714007	0.154487
	H18	H	0.589712	0.285354	0.826443
	H19	H	0.388733	0.284458	0.152558
	H20	H	0.707859	0.837841	0.390468
	H21	H	0.707132	0.165934	0.588282
	H22	H	0.276278	0.838028	0.590737
	H23	H	0.279303	0.165884	0.391735
	H24	H	0.888112	0.338408	0.206905
	H25	H	0.089248	0.665250	0.202871
	H26	H	0.090642	0.338673	0.773077
	H27	H	0.890246	0.665710	0.773786
	H28	H	0.208623	0.903398	0.327282
	H29	H	0.207812	0.102607	0.652539
	H30	H	0.777080	0.100795	0.326808
	H31	H	0.777091	0.901487	0.653183
	H32	H	0.326786	0.214851	0.891234
	H33	H	0.654307	0.216886	0.088907
	H34	H	0.326741	0.788201	0.089302
	H35	H	0.654241	0.785254	0.890994
	H36	H	0.328984	0.900167	0.207121
	H37	H	0.655429	0.100772	0.204262
	H38	H	0.328293	0.101702	0.773176
	H39	H	0.655199	0.900728	0.775086
	H40	H	0.894467	0.216560	0.325423
	H41	H	0.091682	0.218901	0.652089
	H42	H	0.093015	0.787385	0.326009
	H43	H	0.893740	0.785769	0.652364
	H44	H	0.207058	0.338734	0.888118
	H45	H	0.205831	0.664760	0.088509
	H46	H	0.775414	0.336810	0.087904
	H47	H	0.776064	0.665679	0.892088
	H48	H	0.391740	0.120506	0.584144
	H49	H	0.589890	0.884136	0.581286
	H50	H	0.584011	0.114670	0.406946
	H51	H	0.403139	0.883580	0.391531
	H52	H	0.587924	0.407967	0.106860
	H53	H	0.584551	0.589391	0.874668
	H54	H	0.394617	0.585583	0.104296
	H55	H	0.397618	0.411235	0.875092
	H56	H	0.105012	0.586806	0.397818
	H57	H	0.876813	0.590950	0.582750
	H58	H	0.106591	0.418764	0.584327
	H59	H	0.871517	0.410247	0.386266
	H60	H	0.111333	0.405440	0.587254
	H61	H	0.874261	0.598087	0.582043
	H62	H	0.110530	0.594597	0.386872
	H63	H	0.873741	0.400138	0.403433
	H64	H	0.404314	0.597140	0.103898
	H65	H	0.577462	0.595564	0.874819
	H66	H	0.580383	0.413901	0.103355
	H67	H	0.401387	0.408878	0.874991
	H68	H	0.594866	0.122113	0.393846
	H69	H	0.582529	0.885082	0.587110
	H70	H	0.406883	0.118217	0.589633
	H71	H	0.403217	0.887336	0.403459
	H72	H	0.897579	0.616418	0.078614
	H73	H	0.082128	0.385246	0.079327
	H74	H	0.094846	0.622408	0.897723
	H75	H	0.888318	0.383111	0.901344
	H76	H	0.077637	0.909978	0.603339
	H77	H	0.082734	0.105214	0.371214
	H78	H	0.893577	0.095315	0.606949
	H79	H	0.900944	0.907012	0.372734
	H80	H	0.609173	0.097543	0.898363
	H81	H	0.371911	0.096666	0.090949
	H82	H	0.609926	0.908484	0.089176
	H83	H	0.372828	0.912418	0.891070
	H84	H	0.609409	0.901571	0.081065
	H85	H	0.375670	0.096740	0.075918
	H86	H	0.605478	0.090718	0.902235
	H87	H	0.372833	0.903334	0.898417
	H88	H	0.903035	0.089230	0.602663
	H89	H	0.096788	0.092222	0.371620
	H90	H	0.086448	0.900931	0.608696
	H91	H	0.897317	0.912710	0.373163
	H92	H	0.075161	0.619658	0.884500
	H93	H	0.080487	0.385099	0.081299
	H94	H	0.892940	0.619509	0.083265
	H95	H	0.900047	0.382814	0.884844
	H96	H	0.403278	0.114715	0.574350
	H97	H	0.581761	0.887387	0.578120
	H98	H	0.577342	0.117399	0.390074
	H99	H	0.393306	0.881743	0.398053
	H100	H	0.578781	0.403843	0.105814
	H101	H	0.585820	0.598209	0.871817
	H102	H	0.389988	0.599432	0.108621
	H103	H	0.397167	0.407032	0.873064
	H104	H	0.108303	0.600534	0.399855
	H105	H	0.876828	0.594110	0.576711
	H106	H	0.106571	0.408499	0.573477
	H107	H	0.879096	0.419212	0.403024
	H108	H	0.899745	0.618085	0.085091
	H109	H	0.079592	0.386691	0.079478
	H110	H	0.075051	0.612804	0.907726
	H111	H	0.907718	0.389804	0.901978
	H112	H	0.090184	0.913842	0.605765
	H113	H	0.078985	0.088114	0.377919
	H114	H	0.904739	0.100173	0.605843
	H115	H	0.903471	0.912156	0.375987
	H116	H	0.606853	0.089882	0.894156
	H117	H	0.377437	0.083928	0.084152
	H118	H	0.605841	0.912100	0.079445
	H119	H	0.377300	0.913837	0.901457
	C120	C	0.371043	0.009837	0.611694
	C121	C	0.614253	0.993521	0.611480
	C122	C	0.613851	0.009773	0.368234
	C123	C	0.371073	0.992691	0.368893
	C124	C	0.611767	0.379193	-0.002298
	C125	C	0.611134	0.622662	0.981967
	C126	C	0.367885	0.623673	-0.002053
	C127	C	0.368365	0.379690	0.981565
	C128	C	0.000101	0.624534	0.366298
	C129	C	0.983595	0.623124	0.610150
	C130	C	0.000175	0.380901	0.610836
	C131	C	0.982909	0.380950	0.367388
	C132	C	0.867999	0.509810	0.111490
	C133	C	0.110462	0.493381	0.109387
	C134	C	0.112020	0.510620	0.866922
	C135	C	0.868670	0.493052	0.866989
	C136	C	0.114762	0.879769	0.498261
	C137	C	0.114749	0.124464	0.481047
	C138	C	0.871283	0.123913	0.497626
	C139	C	0.871332	0.880410	0.481560
	C140	C	0.499364	0.122312	0.868507
	C141	C	0.482811	0.122720	0.112438
	C142	C	0.500019	0.879488	0.111985
	C143	C	0.482880	0.880145	0.868436
	C144	C	0.373130	0.886580	0.667080
	C145	C	0.612843	0.116186	0.667778
	C146	C	0.611957	0.886436	0.313123
	C147	C	0.373139	0.115732	0.313166
	C148	C	0.667138	0.381661	0.875085
	C149	C	0.667031	0.620230	0.104184
	C150	C	0.313036	0.622016	0.875157
	C151	C	0.311557	0.381423	0.103781
	C152	C	0.877206	0.680898	0.369447
	C153	C	0.107381	0.677077	0.607295
	C154	C	0.877671	0.324659	0.608513
	C155	C	0.106342	0.326243	0.368421
	C156	C	0.877563	0.381079	0.666903
	C157	C	0.105788	0.621996	0.667373
	C158	C	0.876757	0.623155	0.311720
	C159	C	0.105161	0.382315	0.309909
	C160	C	0.370281	0.680312	0.875782
	C161	C	0.608447	0.677236	0.104990
	C162	C	0.609739	0.323499	0.875200
	C163	C	0.369120	0.323228	0.103830
	C164	C	0.669786	0.886740	0.370373
	C165	C	0.669436	0.116814	0.608801
	C166	C	0.315065	0.886727	0.609982
	C167	C	0.316394	0.116452	0.371288
	C168	C	0.868851	0.386811	0.167869
	C169	C	0.109234	0.616340	0.165090
	C170	C	0.110629	0.387442	0.811116
	C171	C	0.870015	0.616434	0.811567
	C172	C	0.170541	0.882644	0.375748
	C173	C	0.169298	0.122080	0.604023
	C174	C	0.815196	0.121557	0.375215
	C175	C	0.815093	0.881639	0.604209
	C176	C	0.376073	0.177814	0.870199
	C177	C	0.605555	0.178775	0.109446
	C178	C	0.376023	0.825665	0.109540
	C179	C	0.605898	0.823914	0.871128
	C180	C	0.377148	0.881195	0.168184
	C181	C	0.605960	0.121244	0.167202
	C182	C	0.376797	0.121340	0.811829
	C183	C	0.606344	0.881496	0.813344
	C184	C	0.873501	0.179012	0.374567
	C185	C	0.112070	0.180315	0.603736
	C186	C	0.113151	0.824786	0.375431
	C187	C	0.873119	0.824126	0.603979
	C188	C	0.168494	0.387551	0.868389
	C189	C	0.167160	0.616214	0.108091
	C190	C	0.812894	0.386068	0.108641
	C191	C	0.813532	0.616684	0.870590
	C192	C	0.393738	0.095713	0.589136
	C193	C	0.591483	0.907664	0.588902
	C194	C	0.591855	0.095844	0.390475
	C195	C	0.393228	0.906572	0.391019
	C196	C	0.588976	0.401775	0.083181
	C197	C	0.589023	0.600685	0.896042
	C198	C	0.389764	0.600687	0.083568
	C199	C	0.391866	0.402400	0.896376
	C200	C	0.085810	0.600827	0.388297
	C201	C	0.897911	0.600938	0.587206
	C202	C	0.085939	0.404036	0.588356
	C203	C	0.896978	0.403318	0.390764
	C204	C	0.890335	0.595743	0.089060
	C205	C	0.087526	0.407969	0.086726
	C206	C	0.088737	0.596024	0.890001
	C207	C	0.891911	0.407506	0.889366
	C208	C	0.091579	0.901843	0.583820
	C209	C	0.092662	0.101844	0.395718
	C210	C	0.893835	0.101553	0.582960
	C211	C	0.894070	0.903613	0.396258
	C212	C	0.584870	0.099468	0.891412
	C213	C	0.397156	0.099407	0.090183
	C214	C	0.586017	0.901107	0.089786
	C215	C	0.396896	0.903166	0.890309
	Zn216	Zn	0.492030	0.001765	0.739992
	Zn217	Zn	0.491929	0.000558	0.240302
	Zn218	Zn	0.740415	0.500997	-0.010471
	Zn219	Zn	0.239520	0.501563	-0.011157
	Zn220	Zn	-0.006958	0.751786	0.489162
	Zn221	Zn	-0.007192	0.253533	0.488520
	Zn222	Zn	-0.008986	0.502045	0.738800
	Zn223	Zn	-0.009842	0.501563	0.239125
	Zn224	Zn	0.489991	0.752042	-0.009184
	Zn225	Zn	0.489904	0.250404	-0.010238
	Zn226	Zn	0.742625	0.001960	0.489774
	Zn227	Zn	0.242827	0.001956	0.490328
	N228	N	0.407077	0.964002	0.668283
	N229	N	0.579489	0.038303	0.669665
	N230	N	0.577990	0.963995	0.311595
	N231	N	0.406532	0.037848	0.311767
	N232	N	0.668614	0.415399	0.952295
	N233	N	0.668841	0.587167	0.026541
	N234	N	0.311478	0.587500	0.952050
	N235	N	0.311134	0.415946	0.026607
	N236	N	0.955026	0.681734	0.402666
	N237	N	0.030435	0.677831	0.572418
	N238	N	0.955040	0.324366	0.574388
	N239	N	0.029400	0.325506	0.403504
	N240	N	0.954674	0.415635	0.668105
	N241	N	0.027825	0.588955	0.668889
	N242	N	0.954020	0.588797	0.309838
	N243	N	0.027276	0.415529	0.309158
	N244	N	0.403656	0.681320	0.953287
	N245	N	0.574498	0.678909	0.027824
	N246	N	0.575868	0.321945	0.952534
	N247	N	0.403785	0.322081	0.027007
	N248	N	0.671260	0.964468	0.403809
	N249	N	0.670200	0.039493	0.574477
	N250	N	0.313712	0.964455	0.576304
	N251	N	0.315016	0.038952	0.405275
	N252	N	0.902380	0.464638	0.169768
	N253	N	0.074775	0.539102	0.166039
	N254	N	0.076139	0.464804	0.810331
	N255	N	0.903723	0.538702	0.809321
	N256	N	0.171599	0.916265	0.453042
	N257	N	0.171439	0.088388	0.526694
	N258	N	0.813629	0.088162	0.452643
	N259	N	0.813558	0.915611	0.526895
	N260	N	0.453185	0.178505	0.904831
	N261	N	0.527844	0.180073	0.076118
	N262	N	0.453438	0.824428	0.075182
	N263	N	0.528102	0.822811	0.904654
	N264	N	0.455043	0.914062	0.169883
	N265	N	0.528555	0.087074	0.168986
	N266	N	0.454450	0.087599	0.810646
	N267	N	0.528897	0.915633	0.811585
	N268	N	0.907995	0.180433	0.451494
	N269	N	0.078826	0.182095	0.526313
	N270	N	0.079244	0.822863	0.452680
	N271	N	0.907390	0.823455	0.526836
	N272	N	0.169514	0.465040	0.902375
	N273	N	0.168108	0.538685	0.074175
	N274	N	0.812071	0.463707	0.074523
	N275	N	0.812502	0.539105	0.904513
	O276	O	-0.034604	-0.038310	0.095582
	H277	H	-0.032776	-0.049772	0.099018
	H278	H	-0.032386	-0.047683	0.082826
	O279	O	0.532118	0.438528	0.544848
	H280	H	0.541105	0.437496	0.536224
	H281	H	0.547386	0.440994	0.552697
	O282	O	0.438985	0.530449	0.521611
	H283	H	0.434762	0.531701	0.505558
	H284	H	0.454492	0.535007	0.526596
	O285	O	0.039480	0.962955	1.050153
	H286	H	0.032283	0.967703	1.047687
	H287	H	0.040786	0.963951	1.058015
	O288	O	0.517964	0.623276	0.505989
	H289	H	0.513040	0.641929	0.510456
	H290	H	0.513104	0.612163	0.496745
	O291	O	0.948358	0.988007	1.035959
	H292	H	0.943705	0.982706	1.043095
	H293	H	0.944956	0.993754	1.028847
	O294	O	0.992277	0.955092	1.025672
	H295	H	0.991454	0.957348	1.023335
	H296	H	0.989661	0.958657	1.023780
	O297	O	0.923497	0.021739	1.037304
	H298	H	0.930347	0.024447	1.032313
	H299	H	0.920130	0.030844	1.024673
	O300	O	0.538623	0.543691	0.574230
	H301	H	0.542851	0.550828	0.578988
	H302	H	0.532959	0.541926	0.571531
	O303	O	0.944378	0.042856	-0.114361
	H304	H	0.955508	0.040381	-0.111162
	H305	H	0.942450	0.053277	-0.107556
	O306	O	0.064850	1.148762	0.987389
	H307	H	0.077802	1.139943	0.993973
	H308	H	0.070249	1.159748	0.990705
	O309	O	0.600695	0.504511	0.560220
	H310	H	0.604503	0.515360	0.567370
	H311	H	0.612110	0.507573	0.567069
	O312	O	0.880145	-0.058052	0.987651
	H313	H	0.876870	-0.051332	0.998803
	H314	H	0.867122	-0.057459	0.988492
	O315	O	0.518848	0.419064	0.408358
	H316	H	0.523561	0.416613	0.395103
	H317	H	0.519646	0.418600	0.403315
	O318	O	0.523263	0.570702	0.465212
	H319	H	0.520818	0.563947	0.463762
	H320	H	0.517554	0.581027	0.468951
	O321	O	1.024064	1.064156	1.069383
	H322	H	1.023171	1.055604	1.059182
	H323	H	1.024253	1.076354	1.071222
	O324	O	1.011368	0.964515	0.958896
	H325	H	1.013480	0.959834	0.963851
	H326	H	1.019803	0.968797	0.963130
	O327	O	0.472094	0.452327	0.347773
	H328	H	0.464883	0.446619	0.361865
	H329	H	0.474154	0.446772	0.330898
	O330	O	1.007937	-0.038182	1.090796
	H331	H	1.000663	-0.040135	1.101751
	H332	H	1.003474	-0.018775	1.100784
	O333	O	0.993271	0.963861	-0.021054
	H334	H	0.981838	0.954990	-0.022470
	H335	H	1.002529	0.947817	-0.007554
	O336	O	0.473849	0.440891	0.503521
	H337	H	0.458836	0.437555	0.506896
	H338	H	0.473314	0.436251	0.505252
	O339	O	0.390153	0.455386	0.476388
	H340	H	0.393785	0.448267	0.488251
	H341	H	0.392121	0.456268	0.478160
	O342	O	-0.122648	1.098906	-0.086920
	H343	H	-0.112309	1.099789	-0.100774
	H344	H	-0.130421	1.092564	-0.094810
	O345	O	0.039136	0.045241	-0.013904
	H346	H	0.027505	0.044273	-0.005466
	H347	H	0.038763	0.031924	-0.018638
	O348	O	0.560497	0.549048	0.454381
	H349	H	0.553822	0.540563	0.451365
	H350	H	0.575464	0.542470	0.450723
	O351	O	0.383428	0.480885	0.611746
	H352	H	0.399506	0.492509	0.618541
	H353	H	0.371222	0.482874	0.603726
	O354	O	0.627655	0.600242	0.445085
	H355	H	0.633140	0.597037	0.441190
	H356	H	0.614565	0.603796	0.463722
	O357	O	0.480368	0.401048	0.421988
	H358	H	0.470397	0.400506	0.423313
	H359	H	0.480158	0.383506	0.430913
	O360	O	0.468230	-0.443885	0.525917
	H361	H	0.466993	-0.451497	0.514477
	H362	H	0.461257	-0.450223	0.521453
	O363	O	0.549782	0.529959	0.525965
	H364	H	0.563758	0.542385	0.539903
	H365	H	0.538884	0.530590	0.528192
	O366	O	0.019857	-0.005560	0.943150
	H367	H	0.022499	-0.004846	0.939273
	H368	H	0.017314	0.001544	0.931793
	O369	O	0.478656	0.367078	0.516570
	H370	H	0.492693	0.359299	0.516791
	H371	H	0.470202	0.379990	0.511245
