data_Molecule from HDF5

_cell_length_a		16.682713
_cell_length_b		16.798532
_cell_length_c		16.694287
_cell_angle_alpha	90.138008
_cell_angle_beta	89.789938
_cell_angle_gamma	90.089858
_symmetry_space_group_name_H-M	'P 1'
_symmetry_Int_Tables_number		1

loop_
	_symmetry_equiv_pos_as_xyz
	x,y,z

loop_
	_atom_site_label
	_atom_site_type_symbol
	_atom_site_fract_x
	_atom_site_fract_y
	_atom_site_fract_z
	H0	H	0.388231	0.844024	0.714335
	H1	H	0.606386	0.145849	0.725204
	H2	H	0.608011	0.849452	0.265914
	H3	H	0.383422	0.147428	0.267588
	H4	H	0.719189	0.387001	0.842408
	H5	H	0.712319	0.601591	0.148470
	H6	H	0.266904	0.608178	0.844088
	H7	H	0.264079	0.385242	0.143457
	H8	H	0.844848	0.729019	0.378787
	H9	H	0.144175	0.726155	0.605090
	H10	H	0.841793	0.273852	0.604537
	H11	H	0.145127	0.274330	0.385213
	H12	H	0.839538	0.393689	0.715875
	H13	H	0.143065	0.610203	0.720018
	H14	H	0.843704	0.611542	0.266581
	H15	H	0.145724	0.390600	0.270328
	H16	H	0.381901	0.724040	0.844524
	H17	H	0.598495	0.718561	0.147991
	H18	H	0.606109	0.268753	0.843695
	H19	H	0.378560	0.269498	0.143456
	H20	H	0.720990	0.848746	0.384097
	H21	H	0.722850	0.145915	0.610623
	H22	H	0.271641	0.845237	0.598433
	H23	H	0.268952	0.149241	0.384541
	H24	H	0.882968	0.347493	0.220111
	H25	H	0.104334	0.647785	0.220462
	H26	H	0.105853	0.349746	0.764498
	H27	H	0.887331	0.650867	0.772609
	H28	H	0.214964	0.893568	0.340293
	H29	H	0.214060	0.104422	0.649339
	H30	H	0.768138	0.108292	0.344078
	H31	H	0.767444	0.889434	0.646388
	H32	H	0.343500	0.223523	0.882964
	H33	H	0.643999	0.224515	0.105393
	H34	H	0.341144	0.773944	0.104161
	H35	H	0.646613	0.775129	0.887175
	H36	H	0.341519	0.889990	0.218097
	H37	H	0.644635	0.107571	0.218821
	H38	H	0.339773	0.103131	0.773138
	H39	H	0.645834	0.890696	0.771864
	H40	H	0.883443	0.224157	0.343753
	H41	H	0.101164	0.222139	0.648145
	H42	H	0.100971	0.775894	0.341540
	H43	H	0.884174	0.774968	0.646141
	H44	H	0.223844	0.351021	0.877351
	H45	H	0.217652	0.648777	0.101404
	H46	H	0.767457	0.347352	0.104975
	H47	H	0.771022	0.651020	0.889266
	H48	H	0.405836	0.106573	0.581579
	H49	H	0.584239	0.889994	0.575079
	H50	H	0.581593	0.105891	0.412386
	H51	H	0.407037	0.890748	0.409982
	H52	H	0.572818	0.411113	0.100112
	H53	H	0.583103	0.586532	0.882300
	H54	H	0.409754	0.583139	0.102084
	H55	H	0.416506	0.410246	0.887129
	H56	H	0.104044	0.588609	0.407632
	H57	H	0.884228	0.584824	0.580508
	H58	H	0.100338	0.412684	0.574013
	H59	H	0.883035	0.410129	0.407428
	H60	H	0.103406	0.416427	0.583747
	H61	H	0.882340	0.587689	0.583412
	H62	H	0.100360	0.585600	0.412615
	H63	H	0.884235	0.410835	0.410480
	H64	H	0.404722	0.588906	0.105969
	H65	H	0.581814	0.585921	0.883513
	H66	H	0.580249	0.403649	0.105391
	H67	H	0.406058	0.409050	0.882565
	H68	H	0.577777	0.107486	0.406407
	H69	H	0.578261	0.887632	0.585642
	H70	H	0.398896	0.110696	0.585200
	H71	H	0.402074	0.887569	0.406889
	H72	H	0.906384	0.607012	0.084173
	H73	H	0.076186	0.390207	0.078804
	H74	H	0.078806	0.605132	0.910132
	H75	H	0.906216	0.387447	0.902517
	H76	H	0.083423	0.916758	0.604243
	H77	H	0.080530	0.082209	0.385596
	H78	H	0.909438	0.089540	0.604674
	H79	H	0.907642	0.909562	0.383787
	H80	H	0.603059	0.083711	0.909188
	H81	H	0.382525	0.088428	0.076613
	H82	H	0.602213	0.912848	0.077919
	H83	H	0.382663	0.910594	0.907346
	H84	H	0.606544	0.909698	0.086658
	H85	H	0.388312	0.077455	0.076572
	H86	H	0.601370	0.082135	0.911425
	H87	H	0.380164	0.906670	0.904002
	H88	H	0.903882	0.085305	0.605444
	H89	H	0.077257	0.090875	0.384324
	H90	H	0.075402	0.909228	0.604057
	H91	H	0.904958	0.916614	0.384502
	H92	H	0.078019	0.606301	0.908042
	H93	H	0.078754	0.388480	0.078568
	H94	H	0.905796	0.606899	0.079622
	H95	H	0.907323	0.389008	0.906838
	H96	H	0.406246	0.109626	0.589414
	H97	H	0.572934	0.893875	0.577035
	H98	H	0.574665	0.103300	0.412020
	H99	H	0.407633	0.888327	0.404210
	H100	H	0.583655	0.415313	0.103261
	H101	H	0.581845	0.587394	0.882310
	H102	H	0.402215	0.580869	0.104714
	H103	H	0.408644	0.418262	0.887603
	H104	H	0.101511	0.582141	0.406989
	H105	H	0.883427	0.588850	0.579424
	H106	H	0.105801	0.406061	0.580879
	H107	H	0.883654	0.413616	0.408184
	H108	H	0.902429	0.609100	0.082110
	H109	H	0.077345	0.388830	0.081370
	H110	H	0.076505	0.604992	0.909400
	H111	H	0.903177	0.388317	0.905978
	H112	H	0.085551	0.907017	0.608336
	H113	H	0.086167	0.088647	0.381941
	H114	H	0.910142	0.082677	0.602751
	H115	H	0.911622	0.914380	0.388187
	H116	H	0.602297	0.080317	0.908454
	H117	H	0.382596	0.081171	0.086765
	H118	H	0.605608	0.903502	0.078499
	H119	H	0.381464	0.905318	0.909069
	C120	C	0.371345	0.006933	0.616522
	C121	C	0.614444	0.989398	0.616064
	C122	C	0.614469	0.006391	0.374060
	C123	C	0.371983	0.989108	0.373049
	C124	C	0.614295	0.375484	0.002771
	C125	C	0.613721	0.618002	0.985412
	C126	C	0.371599	0.618583	0.003846
	C127	C	0.372703	0.376764	0.985236
	C128	C	0.001957	0.620578	0.373154
	C129	C	0.984011	0.621174	0.615412
	C130	C	0.001887	0.378470	0.614643
	C131	C	0.984315	0.377459	0.373697
	C132	C	0.871569	0.506639	0.116106
	C133	C	0.113350	0.488867	0.114391
	C134	C	0.114481	0.506989	0.872097
	C135	C	0.871771	0.489172	0.872876
	C136	C	0.114222	0.878049	0.503487
	C137	C	0.114713	0.120388	0.485741
	C138	C	0.872968	0.119514	0.503739
	C139	C	0.872887	0.878547	0.485959
	C140	C	0.501913	0.116718	0.874830
	C141	C	0.484524	0.118183	0.115182
	C142	C	0.503311	0.875815	0.115410
	C143	C	0.483260	0.874466	0.873150
	C144	C	0.369513	0.890465	0.674740
	C145	C	0.621960	0.101193	0.682310
	C146	C	0.622865	0.894148	0.308566
	C147	C	0.366586	0.102345	0.309426
	C148	C	0.677972	0.369831	0.888345
	C149	C	0.672312	0.619394	0.102115
	C150	C	0.308622	0.624418	0.889479
	C151	C	0.306396	0.369494	0.097988
	C152	C	0.889700	0.686268	0.364435
	C153	C	0.098367	0.684244	0.621303
	C154	C	0.887270	0.315897	0.620605
	C155	C	0.099385	0.315573	0.368425
	C156	C	0.886051	0.375411	0.676001
	C157	C	0.097987	0.626948	0.678695
	C158	C	0.889342	0.627890	0.308026
	C159	C	0.099543	0.373193	0.311242
	C160	C	0.365481	0.682273	0.889977
	C161	C	0.615849	0.677658	0.101816
	C162	C	0.621699	0.311066	0.889224
	C163	C	0.363419	0.311720	0.098051
	C164	C	0.679116	0.893823	0.367242
	C165	C	0.680255	0.101157	0.625381
	C166	C	0.311673	0.891001	0.617240
	C167	C	0.309722	0.103228	0.367848
	C168	C	0.866380	0.393105	0.178899
	C169	C	0.120174	0.602637	0.178239
	C170	C	0.121896	0.394769	0.806407
	C171	C	0.868894	0.604969	0.812925
	C172	C	0.174901	0.875424	0.386937
	C173	C	0.174957	0.123397	0.601882
	C174	C	0.809805	0.124747	0.389479
	C175	C	0.809456	0.872976	0.600647
	C176	C	0.388357	0.180819	0.867894
	C177	C	0.598107	0.182547	0.121549
	C178	C	0.387760	0.814186	0.120813
	C179	C	0.599633	0.814617	0.869063
	C180	C	0.387795	0.872250	0.177543
	C181	C	0.598861	0.124582	0.178213
	C182	C	0.386725	0.121278	0.812765
	C183	C	0.599321	0.872124	0.811813
	C184	C	0.866989	0.182475	0.389413
	C185	C	0.118348	0.181675	0.601612
	C186	C	0.118303	0.816996	0.387463
	C187	C	0.867170	0.815766	0.600253
	C188	C	0.180188	0.395330	0.863066
	C189	C	0.176680	0.603014	0.119313
	C190	C	0.808789	0.392860	0.121506
	C191	C	0.811171	0.604750	0.870751
	C192	C	0.396466	0.087935	0.592430
	C193	C	0.586358	0.911000	0.587396
	C194	C	0.585928	0.084940	0.402449
	C195	C	0.398290	0.909521	0.399511
	C196	C	0.586821	0.402471	0.082297
	C197	C	0.589146	0.593438	0.903853
	C198	C	0.398291	0.592097	0.083485
	C199	C	0.402289	0.404754	0.906327
	C200	C	0.081363	0.592991	0.401193
	C201	C	0.904105	0.594656	0.588591
	C202	C	0.082393	0.404515	0.587370
	C203	C	0.904461	0.403968	0.401098
	C204	C	0.897607	0.586605	0.089482
	C205	C	0.085348	0.409823	0.087253
	C206	C	0.085745	0.585180	0.901161
	C207	C	0.897953	0.409187	0.897938
	C208	C	0.088620	0.903607	0.584463
	C209	C	0.088621	0.094486	0.404962
	C210	C	0.900072	0.093151	0.583426
	C211	C	0.900287	0.905922	0.406113
	C212	C	0.581535	0.089585	0.902088
	C213	C	0.405081	0.090149	0.087790
	C214	C	0.583654	0.901539	0.088763
	C215	C	0.402456	0.899928	0.899556
	Zn216	Zn	0.493065	-0.003581	0.745483
	Zn217	Zn	0.494372	-0.002572	0.244109
	Zn218	Zn	0.742587	0.497132	-0.005571
	Zn219	Zn	0.243247	0.497087	-0.006501
	Zn220	Zn	-0.006592	0.749410	0.494186
	Zn221	Zn	-0.006302	0.248734	0.494873
	Zn222	Zn	-0.006432	0.499228	0.743448
	Zn223	Zn	-0.006897	0.498093	0.245241
	Zn224	Zn	0.493316	0.746732	-0.005250
	Zn225	Zn	0.492901	0.246838	-0.005559
	Zn226	Zn	0.743656	-0.001108	0.495051
	Zn227	Zn	0.242701	-0.000952	0.494548
	N228	N	0.405800	0.963692	0.674738
	N229	N	0.581275	0.030643	0.676620
	N230	N	0.582981	0.965386	0.312768
	N231	N	0.405023	0.030338	0.312535
	N232	N	0.673779	0.409267	0.960109
	N233	N	0.671370	0.583110	0.028427
	N234	N	0.312064	0.585462	0.961290
	N235	N	0.312002	0.409418	0.026596
	N236	N	0.960910	0.681570	0.404797
	N237	N	0.026404	0.680865	0.582438
	N238	N	0.960507	0.317566	0.582982
	N239	N	0.026487	0.317665	0.406505
	N240	N	0.958603	0.413640	0.672461
	N241	N	0.025817	0.588096	0.675259
	N242	N	0.960137	0.587069	0.313481
	N243	N	0.026910	0.411039	0.314277
	N244	N	0.404021	0.679155	0.962183
	N245	N	0.579914	0.676892	0.028076
	N246	N	0.582715	0.314352	0.961472
	N247	N	0.404379	0.316170	0.026814
	N248	N	0.674138	0.964806	0.407385
	N249	N	0.675539	0.030654	0.584452
	N250	N	0.312490	0.964681	0.581901
	N251	N	0.312975	0.031686	0.407000
	N252	N	0.904620	0.465181	0.175947
	N253	N	0.081434	0.530636	0.175575
	N254	N	0.081415	0.465555	0.811848
	N255	N	0.905738	0.532090	0.813678
	N256	N	0.172771	0.912634	0.460171
	N257	N	0.173040	0.085903	0.528798
	N258	N	0.813165	0.086252	0.461676
	N259	N	0.812728	0.911348	0.528221
	N260	N	0.461045	0.178264	0.905675
	N261	N	0.525764	0.178956	0.083121
	N262	N	0.460606	0.816005	0.082727
	N263	N	0.526183	0.815625	0.906413
	N264	N	0.460775	0.909896	0.174585
	N265	N	0.527058	0.084998	0.174506
	N266	N	0.458696	0.082042	0.816453
	N267	N	0.525673	0.908425	0.813837
	N268	N	0.905675	0.179606	0.461543
	N269	N	0.081446	0.179957	0.528135
	N270	N	0.081426	0.818380	0.460992
	N271	N	0.905915	0.819031	0.527838
	N272	N	0.175378	0.466015	0.903669
	N273	N	0.172600	0.531299	0.080184
	N274	N	0.811741	0.464717	0.082939
	N275	N	0.812573	0.531549	0.907209
	O276	O	-0.056447	0.764704	-0.016566
	H277	H	-0.039616	0.761667	-0.018214
	H278	H	-0.082448	0.763620	-0.014093
	O279	O	0.260494	0.450635	0.429593
	H280	H	0.265956	0.449639	0.427798
	H281	H	0.262010	0.449143	0.435071
	O282	O	0.955422	0.220050	0.780750
	H283	H	0.964442	0.231740	0.763221
	H284	H	0.967470	0.199735	0.767572
	O285	O	0.501413	0.332604	0.724141
	H286	H	0.501424	0.326634	0.727193
	H287	H	0.516797	0.332397	0.713327
	O288	O	0.300217	0.688188	0.690823
	H289	H	0.327497	0.678946	0.676427
	H290	H	0.307746	0.660514	0.673654
	O291	O	0.274254	0.277699	0.502552
	H292	H	0.273315	0.283407	0.508711
	H293	H	0.276772	0.262013	0.504628
	O294	O	0.770589	0.222344	0.979795
	H295	H	0.767294	0.221452	0.956133
	H296	H	0.751123	0.233168	0.959964
	O297	O	0.705410	0.704635	0.510815
	H298	H	0.721724	0.723532	0.514501
	H299	H	0.696629	0.705949	0.517067
	O300	O	0.068170	0.065158	0.780965
	H301	H	0.079116	0.057663	0.776362
	H302	H	0.099491	0.058811	0.774798
	O303	O	0.560996	0.739136	0.442481
	H304	H	0.560849	0.741948	0.429754
	H305	H	0.556490	0.728829	0.427164
	O306	O	0.716433	0.266893	0.482446
	H307	H	0.744321	0.241316	0.464181
	H308	H	0.711842	0.278114	0.458653
	O309	O	0.432417	0.640460	0.638876
	H310	H	0.436974	0.651497	0.622674
	H311	H	0.419232	0.635108	0.636861
	O312	O	0.515052	0.716635	0.723712
	H313	H	0.518540	0.728746	0.728212
	H314	H	0.514548	0.724560	0.730805
	O315	O	0.856862	0.903812	0.981591
	H316	H	0.836460	0.910215	0.960936
	H317	H	0.857651	0.888912	0.992729
	O318	O	0.686739	0.692751	0.303177
	H319	H	0.657405	0.691588	0.326245
	H320	H	0.677371	0.657137	0.310469
	O321	O	0.203274	0.793404	0.784444
	H322	H	0.234422	0.757974	0.754689
	H323	H	0.181917	0.784064	0.813438
	O324	O	1.122544	0.799000	0.192519
	H325	H	1.108803	0.827275	0.179223
	H326	H	1.098277	0.796961	0.188551
	O327	O	-0.041359	0.233459	1.006298
	H328	H	-0.047591	0.239314	1.004555
	H329	H	-0.036899	0.239873	0.994309
	O330	O	0.403337	0.404618	0.553729
	H331	H	0.418260	0.414385	0.559593
	H332	H	0.401002	0.401575	0.549224
	O333	O	0.464835	0.423924	0.724784
	H334	H	0.479851	0.435984	0.733255
	H335	H	0.464293	0.422747	0.731884
	O336	O	0.729524	0.258355	0.261879
	H337	H	0.707341	0.256468	0.256052
	H338	H	0.758880	0.231838	0.238455
	O339	O	0.795059	0.011832	0.791315
	H340	H	0.789788	-0.006439	0.781996
	H341	H	0.804931	0.007754	0.784280
	O342	O	0.051234	-0.054053	0.205388
	H343	H	0.064902	-0.053787	0.212262
	H344	H	0.043022	-0.044785	0.200367
	O345	O	0.054763	0.760613	1.058232
	H346	H	0.047389	0.765646	1.050943
	H347	H	0.064231	0.758549	1.054673
	O348	O	0.566672	0.434351	0.413363
	H349	H	0.579708	0.429647	0.409748
	H350	H	0.553663	0.431510	0.405147
	O351	O	0.471689	0.730544	0.274936
	H352	H	0.467357	0.750801	0.245201
	H353	H	0.471442	0.705441	0.268691
	O354	O	0.223236	-0.060603	1.077340
	H355	H	0.207762	-0.044362	1.071126
	H356	H	0.229357	-0.055955	1.055393
	O357	O	0.435035	0.620944	0.489253
	H358	H	0.425519	0.616215	0.480466
	H359	H	0.438417	0.618661	0.487622
	O360	O	0.278616	0.269280	0.717794
	H361	H	0.292345	0.293069	0.702734
	H362	H	0.301193	0.278005	0.693941
	O363	O	-0.018228	0.065371	-0.029137
	H364	H	-0.008737	0.082788	-0.039015
	H365	H	-0.014223	0.062204	-0.020397
	O366	O	0.710510	0.521745	0.419050
	H367	H	0.713355	0.527223	0.419877
	H368	H	0.710677	0.533342	0.405188
	O369	O	1.050975	0.132382	0.107963
	H370	H	1.018138	0.135695	0.107035
	H371	H	1.053736	0.125888	0.094813
	O372	O	0.771034	0.771155	0.023286
	H373	H	0.771981	0.778879	0.058231
	H374	H	0.744833	0.742977	0.032672
	O375	O	0.943734	0.067059	0.222004
	H376	H	0.928600	0.071816	0.220461
	H377	H	0.943315	0.051660	0.213363
	O378	O	0.530837	0.569576	0.265121
	H379	H	0.530100	0.553102	0.269508
	H380	H	0.535705	0.559746	0.267957
	O381	O	0.024927	0.781277	0.784136
	H382	H	0.030412	0.774337	0.779496
	H383	H	0.031693	0.775985	0.783545
	O384	O	0.945243	-0.145332	1.176599
	H385	H	0.954480	-0.138646	1.160142
	H386	H	0.943375	-0.136433	1.177589
	O387	O	0.794510	0.980031	0.212542
	H388	H	0.778538	0.965387	0.208007
	H389	H	0.778818	0.975028	0.207100
	O390	O	0.538290	0.451898	0.423615
	H391	H	0.523371	0.452267	0.428687
	H392	H	0.552953	0.448028	0.422810
	O393	O	0.705789	0.461061	0.578559
	H394	H	0.707815	0.447791	0.571512
	H395	H	0.709699	0.464324	0.563424
	O396	O	0.221262	0.964946	0.767856
	H397	H	0.237400	0.941379	0.753371
	H398	H	0.233485	0.935524	0.755081
	O399	O	-0.032115	0.038783	0.795844
	H400	H	-0.021845	0.028824	0.808521
	H401	H	-0.022401	0.029084	0.787556
	O402	O	0.525725	0.564711	0.470608
	H403	H	0.530017	0.550903	0.478240
	H404	H	0.525420	0.554548	0.470025
	O405	O	0.947805	-0.016418	0.954081
	H406	H	0.949709	-0.007164	0.956609
	H407	H	0.931682	-0.019187	0.952473
	O408	O	0.214081	0.219631	0.001155
	H409	H	0.212487	0.210741	0.012039
	H410	H	0.224036	0.237584	0.011276
	O411	O	0.708866	0.703892	0.705822
	H412	H	0.698379	0.691662	0.682041
	H413	H	0.678730	0.689235	0.696677
	O414	O	0.683224	0.306531	0.684722
	H415	H	0.702036	0.292033	0.698064
	H416	H	0.671899	0.314603	0.675111
	O417	O	0.510877	0.270627	0.283361
	H418	H	0.500439	0.296384	0.285687
	H419	H	0.510649	0.251813	0.253520
	O420	O	0.523732	0.485527	0.618628
	H421	H	0.527108	0.477698	0.620391
	H422	H	0.523643	0.474315	0.617372
	O423	O	0.140318	0.103683	1.052171
	H424	H	0.131661	0.105527	1.039181
	H425	H	0.141121	0.082140	1.041900
	O426	O	0.264018	0.726402	0.468449
	H427	H	0.255486	0.736134	0.446555
	H428	H	0.247255	0.735653	0.448373
	O429	O	0.801916	0.813407	0.805276
	H430	H	0.815450	0.796635	0.806215
	H431	H	0.797296	0.795394	0.779101
	O432	O	0.494611	0.477179	0.612635
	H433	H	0.503872	0.466480	0.613189
	H434	H	0.509614	0.477837	0.608226
	O435	O	0.200229	0.784456	0.020017
	H436	H	0.201561	0.784711	0.014715
	H437	H	0.204678	0.792650	0.028220
	O438	O	0.187904	0.042406	0.213795
	H439	H	0.191409	0.043161	0.226217
	H440	H	0.194246	0.041523	0.204072
	O441	O	0.026487	0.210083	0.205641
	H442	H	0.020151	0.223482	0.219802
	H443	H	0.029123	0.206505	0.209193
	O444	O	0.433364	0.255063	0.442041
	H445	H	0.446957	0.257134	0.423736
	H446	H	0.436192	0.246859	0.450841
	O447	O	0.222070	1.041177	0.926706
	H448	H	0.219469	1.036762	0.902064
	H449	H	0.225086	1.064880	0.905977
	O450	O	0.059767	0.872660	0.846476
	H451	H	0.065458	0.872730	0.843495
	H452	H	0.061449	0.865204	0.846519
	O453	O	0.307998	0.505680	0.560234
	H454	H	0.307007	0.494647	0.541957
	H455	H	0.318140	0.515518	0.564502
	O456	O	0.175349	0.191973	0.821839
	H457	H	0.206199	0.219859	0.787338
	H458	H	0.170136	0.201119	0.853290
	O459	O	0.798361	1.018063	0.044875
	H460	H	0.803390	1.016449	0.035865
	H461	H	0.791783	1.016709	0.033884
	O462	O	0.724652	0.482870	0.272009
	H463	H	0.726325	0.456869	0.268019
	H464	H	0.738659	0.467818	0.251019
	O465	O	0.924191	0.150162	-0.050173
	H466	H	0.942593	0.146005	-0.057997
	H467	H	0.927134	0.136695	-0.074491
	O468	O	0.270543	0.526083	0.271676
	H469	H	0.252314	0.524263	0.270695
	H470	H	0.253108	0.533200	0.266913
	O471	O	0.328812	0.470722	0.688980
	H472	H	0.318410	0.459559	0.683258
	H473	H	0.337753	0.473421	0.693476
	O474	O	0.280879	0.709141	0.287832
	H475	H	0.266469	0.717787	0.261998
	H476	H	0.297435	0.716624	0.282343
	O477	O	0.488288	0.417582	1.278765
	H478	H	0.466766	0.424973	1.277894
	H479	H	0.462197	0.402212	1.274586
	O480	O	0.546221	0.250668	0.559903
	H481	H	0.555763	0.247501	0.555611
	H482	H	0.567945	0.251522	0.558977
	O483	O	0.713240	0.529997	0.721824
	H484	H	0.730519	0.527359	0.716389
	H485	H	0.724002	0.530475	0.734479
	O486	O	0.786935	0.209170	0.781224
	H487	H	0.795119	0.196219	0.793035
	H488	H	0.811246	0.198161	0.777187
	O489	O	1.042594	0.926436	0.012224
	H490	H	1.033193	0.927284	0.013346
	H491	H	1.035117	0.912098	0.004588
	O492	O	0.340939	0.345955	0.283545
	H493	H	0.338292	0.349304	0.293000
	H494	H	0.315805	0.323332	0.278592
	O495	O	-0.159869	0.205978	1.147083
	H496	H	-0.144718	0.199283	1.139206
	H497	H	-0.163489	0.190186	1.132841
	O498	O	0.805328	0.940092	0.985361
	H499	H	0.804090	0.929728	0.964175
	H500	H	0.799195	0.926300	0.977608
	O501	O	0.655985	0.641530	0.524480
	H502	H	0.655481	0.631742	0.527426
	H503	H	0.638408	0.631654	0.511680
	O504	O	0.403514	0.488656	0.552325
	H505	H	0.408826	0.479316	0.545814
	H506	H	0.395369	0.482601	0.550121
	O507	O	0.373999	0.553993	0.410654
	H508	H	0.372070	0.563510	0.398132
	H509	H	0.366596	0.549661	0.428979
	O510	O	0.234105	0.233392	0.240114
	H511	H	0.220149	0.219014	0.245711
	H512	H	0.216916	0.207311	0.215968
	O513	O	0.778827	0.783677	0.194586
	H514	H	0.751417	0.754617	0.232139
	H515	H	0.820931	0.795258	0.199925
