data_Molecule from HDF5

_cell_length_a		16.640178
_cell_length_b		16.670550
_cell_length_c		16.507554
_cell_angle_alpha	89.999566
_cell_angle_beta	90.155077
_cell_angle_gamma	90.019501
_symmetry_space_group_name_H-M	'P 1'
_symmetry_Int_Tables_number		1

loop_
	_symmetry_equiv_pos_as_xyz
	x,y,z

loop_
	_atom_site_label
	_atom_site_type_symbol
	_atom_site_fract_x
	_atom_site_fract_y
	_atom_site_fract_z
	H0	H	0.396563	0.885024	0.716125
	H1	H	0.610335	0.193196	0.720242
	H2	H	0.604033	0.883494	0.276569
	H3	H	0.397016	0.195487	0.271938
	H4	H	0.722190	0.436073	0.836823
	H5	H	0.725558	0.646011	0.150750
	H6	H	0.280050	0.647796	0.839309
	H7	H	0.281651	0.435463	0.150883
	H8	H	0.846934	0.762265	0.387970
	H9	H	0.158124	0.761381	0.599864
	H10	H	0.847161	0.318304	0.600787
	H11	H	0.156610	0.316938	0.387617
	H12	H	0.846334	0.437039	0.714056
	H13	H	0.159321	0.643577	0.714223
	H14	H	0.845578	0.643488	0.273723
	H15	H	0.157823	0.435600	0.273504
	H16	H	0.395389	0.763073	0.839095
	H17	H	0.611579	0.763539	0.150346
	H18	H	0.605829	0.320563	0.837178
	H19	H	0.397820	0.319543	0.151457
	H20	H	0.723108	0.884583	0.390103
	H21	H	0.729289	0.191538	0.606664
	H22	H	0.279690	0.885136	0.599744
	H23	H	0.277161	0.193842	0.385592
	H24	H	0.896097	0.384995	0.216879
	H25	H	0.105624	0.695730	0.215652
	H26	H	0.107891	0.384864	0.773542
	H27	H	0.901046	0.697235	0.776006
	H28	H	0.219717	0.937376	0.336134
	H29	H	0.225822	0.147161	0.649564
	H30	H	0.780222	0.146187	0.337953
	H31	H	0.779910	0.934435	0.649785
	H32	H	0.347347	0.262909	0.886954
	H33	H	0.658071	0.263345	0.100793
	H34	H	0.349681	0.815942	0.103646
	H35	H	0.657305	0.818140	0.887925
	H36	H	0.346567	0.936904	0.214531
	H37	H	0.659305	0.145811	0.215752
	H38	H	0.347468	0.145865	0.771044
	H39	H	0.656740	0.935384	0.772525
	H40	H	0.894340	0.263305	0.339080
	H41	H	0.109397	0.261724	0.650781
	H42	H	0.104390	0.820349	0.337284
	H43	H	0.896274	0.818548	0.650101
	H44	H	0.225270	0.385598	0.889743
	H45	H	0.225296	0.694585	0.102727
	H46	H	0.780032	0.385133	0.100339
	H47	H	0.782522	0.696077	0.890004
	H48	H	0.420246	0.145899	0.574961
	H49	H	0.591239	0.929290	0.582440
	H50	H	0.593706	0.151819	0.406346
	H51	H	0.410412	0.927520	0.402199
	H52	H	0.583778	0.449179	0.105334
	H53	H	0.589046	0.631354	0.883048
	H54	H	0.412274	0.622337	0.106189
	H55	H	0.410168	0.450165	0.880552
	H56	H	0.117133	0.632295	0.398313
	H57	H	0.889535	0.629446	0.588227
	H58	H	0.113141	0.448915	0.580522
	H59	H	0.891582	0.451663	0.408704
	H60	H	0.113388	0.453256	0.584683
	H61	H	0.889642	0.634617	0.583287
	H62	H	0.113029	0.635738	0.413514
	H63	H	0.892245	0.453426	0.407001
	H64	H	0.422348	0.628836	0.104740
	H65	H	0.593424	0.630009	0.881508
	H66	H	0.598201	0.448145	0.109977
	H67	H	0.413732	0.455518	0.883875
	H68	H	0.592730	0.152595	0.404428
	H69	H	0.588306	0.930733	0.582002
	H70	H	0.405896	0.152436	0.577512
	H71	H	0.414282	0.929392	0.404876
	H72	H	0.914251	0.647994	0.077888
	H73	H	0.091232	0.428097	0.087735
	H74	H	0.092910	0.650657	0.910183
	H75	H	0.912880	0.426524	0.900054
	H76	H	0.089837	0.956786	0.603706
	H77	H	0.087211	0.129204	0.382752
	H78	H	0.918667	0.130205	0.605423
	H79	H	0.917131	0.950263	0.382696
	H80	H	0.612517	0.130627	0.911839
	H81	H	0.392598	0.130771	0.079035
	H82	H	0.615734	0.953081	0.090578
	H83	H	0.390840	0.952152	0.905723
	H84	H	0.615619	0.945361	0.082044
	H85	H	0.391823	0.127424	0.085241
	H86	H	0.612153	0.125571	0.906652
	H87	H	0.390503	0.949265	0.908172
	H88	H	0.912141	0.129388	0.607767
	H89	H	0.089958	0.129186	0.381986
	H90	H	0.087378	0.944863	0.606785
	H91	H	0.911112	0.949112	0.380242
	H92	H	0.095836	0.653573	0.902983
	H93	H	0.087821	0.431445	0.080495
	H94	H	0.907140	0.653685	0.084008
	H95	H	0.917439	0.430849	0.907445
	H96	H	0.417403	0.152211	0.589659
	H97	H	0.590754	0.931111	0.579625
	H98	H	0.591596	0.151500	0.406387
	H99	H	0.409636	0.929090	0.406821
	H100	H	0.592735	0.461068	0.103692
	H101	H	0.590519	0.627357	0.883866
	H102	H	0.412512	0.633539	0.109303
	H103	H	0.417284	0.449409	0.882377
	H104	H	0.109938	0.620897	0.407451
	H105	H	0.891865	0.627798	0.581131
	H106	H	0.115522	0.447759	0.585732
	H107	H	0.891526	0.451015	0.405868
	H108	H	0.916959	0.651636	0.087827
	H109	H	0.096128	0.428752	0.080263
	H110	H	0.088465	0.651129	0.903111
	H111	H	0.908111	0.428211	0.908429
	H112	H	0.098525	0.949573	0.609854
	H113	H	0.088519	0.126878	0.383402
	H114	H	0.915128	0.124021	0.605027
	H115	H	0.912494	0.955208	0.383409
	H116	H	0.615263	0.131610	0.904842
	H117	H	0.389275	0.134386	0.084696
	H118	H	0.611677	0.956054	0.079900
	H119	H	0.391699	0.952550	0.909388
	C120	C	0.380689	0.048447	0.614779
	C121	C	0.624023	1.031513	0.616276
	C122	C	0.623766	0.048685	0.373737
	C123	C	0.379750	1.031613	0.371909
	C124	C	0.623443	0.420274	0.002457
	C125	C	0.624116	0.661806	0.986085
	C126	C	0.382050	0.661603	0.003800
	C127	C	0.381445	0.419292	0.985593
	C128	C	0.010399	0.661719	0.373312
	C129	C	0.993758	0.661830	0.615996
	C130	C	0.010945	0.418513	0.615673
	C131	C	0.993907	0.418970	0.374097
	C132	C	0.880413	0.548599	0.115719
	C133	C	0.123804	0.531784	0.116037
	C134	C	0.124401	0.548876	0.873485
	C135	C	0.881551	0.531893	0.873228
	C136	C	0.122953	0.919072	0.502751
	C137	C	0.122857	0.161456	0.485466
	C138	C	0.881549	0.160912	0.503130
	C139	C	0.881102	0.919130	0.485627
	C140	C	0.511002	0.161768	0.873712
	C141	C	0.494239	0.162769	0.115834
	C142	C	0.511485	0.919316	0.116080
	C143	C	0.493690	0.919042	0.874239
	C144	C	0.378121	0.931735	0.675834
	C145	C	0.628157	0.146971	0.679061
	C146	C	0.623850	0.930711	0.315355
	C147	C	0.377773	0.148771	0.311727
	C148	C	0.682345	0.418168	0.884037
	C149	C	0.685319	0.664325	0.103560
	C150	C	0.320463	0.665384	0.886381
	C151	C	0.321809	0.417177	0.103902
	C152	C	0.893372	0.721534	0.370308
	C153	C	0.111419	0.721115	0.617842
	C154	C	0.893819	0.358803	0.618453
	C155	C	0.110236	0.357624	0.369985
	C156	C	0.893541	0.417646	0.675071
	C157	C	0.112122	0.662450	0.674692
	C158	C	0.892761	0.662952	0.313252
	C159	C	0.110968	0.416840	0.313505
	C160	C	0.378211	0.722612	0.886437
	C161	C	0.628521	0.722670	0.103596
	C162	C	0.624549	0.360709	0.884177
	C163	C	0.379447	0.359616	0.104197
	C164	C	0.682788	0.931172	0.372074
	C165	C	0.687292	0.146283	0.622627
	C166	C	0.319854	0.931822	0.618131
	C167	C	0.318573	0.147876	0.368175
	C168	C	0.878104	0.431538	0.176269
	C169	C	0.124746	0.649048	0.175865
	C170	C	0.126409	0.431628	0.813727
	C171	C	0.881423	0.649868	0.814944
	C172	C	0.180667	0.918137	0.383783
	C173	C	0.184764	0.164527	0.602828
	C174	C	0.820515	0.164101	0.385277
	C175	C	0.820574	0.916278	0.603149
	C176	C	0.394008	0.222417	0.869557
	C177	C	0.611409	0.223102	0.118958
	C178	C	0.395305	0.857681	0.120276
	C179	C	0.610590	0.858558	0.870384
	C180	C	0.393949	0.917528	0.175754
	C181	C	0.611799	0.164529	0.176110
	C182	C	0.393937	0.164176	0.812112
	C183	C	0.610409	0.916679	0.813025
	C184	C	0.877547	0.222250	0.385693
	C185	C	0.126921	0.221659	0.603347
	C186	C	0.123589	0.859875	0.384331
	C187	C	0.878159	0.858844	0.603351
	C188	C	0.184769	0.431983	0.871255
	C189	C	0.184030	0.648388	0.119575
	C190	C	0.820110	0.431712	0.118562
	C191	C	0.822689	0.649387	0.871728
	C192	C	0.406969	0.129308	0.588110
	C193	C	0.597550	0.951144	0.588977
	C194	C	0.599760	0.130781	0.398686
	C195	C	0.404318	0.950097	0.397313
	C196	C	0.598568	0.445502	0.085023
	C197	C	0.598325	0.636737	0.904087
	C198	C	0.408223	0.635509	0.085584
	C199	C	0.406583	0.444511	0.903549
	C200	C	0.092197	0.636728	0.398966
	C201	C	0.911755	0.637610	0.591141
	C202	C	0.092829	0.442825	0.590728
	C203	C	0.912922	0.444564	0.399967
	C204	C	0.905669	0.630011	0.090444
	C205	C	0.098837	0.450373	0.090238
	C206	C	0.099636	0.630522	0.898452
	C207	C	0.905774	0.449876	0.898035
	C208	C	0.098661	0.943547	0.585249
	C209	C	0.096244	0.135696	0.403865
	C210	C	0.907826	0.135144	0.584932
	C211	C	0.906385	0.944393	0.403431
	C212	C	0.592058	0.136400	0.900170
	C213	C	0.412440	0.137881	0.090337
	C214	C	0.593046	0.944333	0.091099
	C215	C	0.412167	0.944212	0.900253
	Zn216	Zn	0.502069	0.039821	0.744802
	Zn217	Zn	0.502835	0.040556	0.244365
	Zn218	Zn	0.752377	0.540075	-0.006195
	Zn219	Zn	0.253558	0.540876	-0.004863
	Zn220	Zn	0.001801	0.790499	0.494990
	Zn221	Zn	0.001964	0.289589	0.494839
	Zn222	Zn	0.002646	0.540279	0.744431
	Zn223	Zn	0.002059	0.539988	0.244740
	Zn224	Zn	0.503004	0.790120	-0.004641
	Zn225	Zn	0.502869	0.291237	-0.005957
	Zn226	Zn	0.753046	0.040212	0.495091
	Zn227	Zn	0.251075	0.040108	0.493723
	N228	N	0.415148	1.005428	0.673945
	N229	N	0.589320	0.074665	0.675170
	N230	N	0.588050	1.004985	0.316091
	N231	N	0.414950	0.075392	0.313729
	N232	N	0.681841	0.454280	0.958748
	N233	N	0.682830	0.627228	0.029493
	N234	N	0.322785	0.627927	0.960445
	N235	N	0.322712	0.453431	0.029233
	N236	N	0.967672	0.721034	0.406770
	N237	N	0.036720	0.721204	0.582218
	N238	N	0.968061	0.358741	0.582544
	N239	N	0.036428	0.358879	0.406970
	N240	N	0.967506	0.453997	0.673564
	N241	N	0.037946	0.626530	0.674011
	N242	N	0.966718	0.626361	0.314934
	N243	N	0.037554	0.454204	0.315501
	N244	N	0.415745	0.720707	0.960658
	N245	N	0.590989	0.721421	0.029449
	N246	N	0.588674	0.361807	0.959012
	N247	N	0.415740	0.360511	0.029517
	N248	N	0.683237	1.005936	0.407300
	N249	N	0.684780	0.073510	0.584055
	N250	N	0.320997	1.005599	0.581116
	N251	N	0.319361	0.073922	0.404633
	N252	N	0.914960	0.505243	0.174894
	N253	N	0.088024	0.575454	0.173946
	N254	N	0.089524	0.505331	0.814901
	N255	N	0.917146	0.575585	0.815508
	N256	N	0.180258	0.954338	0.458378
	N257	N	0.182403	0.127580	0.528429
	N258	N	0.822700	0.126720	0.459397
	N259	N	0.822415	0.953167	0.528879
	N260	N	0.467663	0.221131	0.907196
	N261	N	0.537277	0.222143	0.082264
	N262	N	0.469450	0.858578	0.083994
	N263	N	0.536880	0.859802	0.907641
	N264	N	0.467106	0.955358	0.173291
	N265	N	0.537762	0.127877	0.174688
	N266	N	0.467585	0.127013	0.814448
	N267	N	0.536553	0.953535	0.815104
	N268	N	0.914653	0.220467	0.460120
	N269	N	0.088970	0.219888	0.529475
	N270	N	0.088376	0.860273	0.459486
	N271	N	0.915002	0.860363	0.529135
	N272	N	0.183633	0.505884	0.907720
	N273	N	0.183652	0.574438	0.083051
	N274	N	0.821326	0.505582	0.081829
	N275	N	0.822578	0.574840	0.907151
	O276	O	0.067001	1.034071	0.165902
	H277	H	0.052735	1.032769	0.153232
	H278	H	0.047915	1.043204	0.176155
	O279	O	0.123274	0.226713	-0.127925
	H280	H	0.123567	0.213397	-0.097468
	H281	H	0.094269	0.221007	-0.139797
	O282	O	0.905897	0.092253	1.019345
	H283	H	0.901855	0.094097	1.036514
	H284	H	0.914391	0.098038	1.010383
	O285	O	-0.078101	0.036354	0.961378
	H286	H	-0.069749	0.031965	0.976774
	H287	H	-0.078988	0.042621	0.974639
	O288	O	0.534961	0.754978	0.711650
	H289	H	0.537601	0.764656	0.710287
	H290	H	0.529984	0.765060	0.720486
	O291	O	-0.280190	0.313577	0.470250
	H292	H	-0.275582	0.303449	0.449312
	H293	H	-0.267845	0.306289	0.452215
	O294	O	1.222178	-0.174471	0.976930
	H295	H	1.233426	-0.170167	0.972287
	H296	H	1.229238	-0.186926	0.956393
	O297	O	0.240709	0.281408	0.233986
	H298	H	0.254797	0.284263	0.262315
	H299	H	0.232084	0.272721	0.193205
	O300	O	-0.465590	-0.678203	0.278893
	H301	H	-0.481756	-0.685851	0.282350
	H302	H	-0.464313	-0.697296	0.271357
	O303	O	0.700439	0.341431	0.296708
	H304	H	0.674926	0.347776	0.299034
	H305	H	0.693144	0.379289	0.293221
	O306	O	0.148066	0.118131	1.145850
	H307	H	0.155094	0.110108	1.143117
	H308	H	0.157500	0.132242	1.178742
	O309	O	0.534865	0.499862	0.420456
	H310	H	0.529277	0.495958	0.413774
	H311	H	0.539720	0.506462	0.416803
	O312	O	0.569141	0.527588	0.605708
	H313	H	0.571867	0.526025	0.597748
	H314	H	0.581435	0.526856	0.607931
	O315	O	1.603254	0.485081	1.606148
	H316	H	1.580454	0.490409	1.603348
	H317	H	1.605490	0.492509	1.595757
	O318	O	0.577260	0.591805	0.292143
	H319	H	0.563903	0.593731	0.296957
	H320	H	0.578001	0.599393	0.279193
	O321	O	-0.027366	0.826484	0.931369
	H322	H	-0.015228	0.814543	0.941580
	H323	H	-0.040053	0.835632	0.935562
	O324	O	1.214716	1.050687	0.164600
	H325	H	1.218013	1.055407	0.167382
	H326	H	1.219015	1.053409	0.176130
	O327	O	0.067006	0.256955	1.103566
	H328	H	0.076647	0.244810	1.100500
	H329	H	0.073934	0.258429	1.096921
	O330	O	0.474550	0.426778	0.613886
	H331	H	0.465414	0.428940	0.619012
	H332	H	0.465325	0.428530	0.610831
	O333	O	0.329404	0.611164	0.495430
	H334	H	0.318555	0.616382	0.481217
	H335	H	0.334568	0.598172	0.497782
	O336	O	0.412342	0.508378	0.320656
	H337	H	0.408623	0.500681	0.317319
	H338	H	0.411289	0.506555	0.326518
	O339	O	0.856366	0.203209	1.099224
	H340	H	0.871355	0.208891	1.116724
	H341	H	0.851058	0.209446	1.102981
	O342	O	-0.209284	0.249838	0.021286
	H343	H	-0.208945	0.257050	0.043038
	H344	H	-0.221320	0.258687	0.018431
	O345	O	-0.188267	0.850262	0.805705
	H346	H	-0.179587	0.877126	0.823444
	H347	H	-0.164161	0.860024	0.823280
	O348	O	0.787841	0.007515	0.899225
	H349	H	0.778312	0.010595	0.881144
	H350	H	0.784692	0.027239	0.906420
	O351	O	0.733477	0.305915	0.730907
	H352	H	0.710754	0.331373	0.710289
	H353	H	0.726777	0.314113	0.743584
	O354	O	-0.572090	-0.414278	0.567989
	H355	H	-0.568755	-0.413724	0.565399
	H356	H	-0.590755	-0.411719	0.562514
	O357	O	0.290594	0.746019	0.475349
	H358	H	0.287612	0.747765	0.482756
	H359	H	0.282202	0.745208	0.479027
	O360	O	0.561132	-0.691232	1.541409
	H361	H	0.574007	-0.685792	1.540835
	H362	H	0.567454	-0.681813	1.523091
	O363	O	0.033408	-0.179131	-0.224782
	H364	H	0.050155	-0.181254	-0.228376
	H365	H	0.040280	-0.200149	-0.233129
	O366	O	0.340494	0.625571	0.275839
	H367	H	0.327848	0.644348	0.277389
	H368	H	0.320858	0.648309	0.253236
	O369	O	0.646964	0.651869	0.432195
	H370	H	0.651895	0.660507	0.448607
	H371	H	0.647053	0.649615	0.433783
	O372	O	0.949561	0.828685	0.201779
	H373	H	0.956237	0.830485	0.203109
	H374	H	0.956121	0.825248	0.213498
	O375	O	1.212937	0.020094	-0.202749
	H376	H	1.215277	0.033114	-0.217761
	H377	H	1.201352	0.036662	-0.222029
	O378	O	0.302404	0.349317	0.685243
	H379	H	0.293171	0.358025	0.697395
	H380	H	0.313999	0.360444	0.698217
	O381	O	1.104566	0.258670	1.134522
	H382	H	1.117887	0.263727	1.131320
	H383	H	1.125555	0.269039	1.138156
	O384	O	0.437912	0.713059	1.611647
	H385	H	0.452419	0.711039	1.596517
	H386	H	0.434083	0.715051	1.606397
	O387	O	0.793945	0.825180	0.018719
	H388	H	0.790729	0.820968	0.037010
	H389	H	0.780205	0.827925	0.019127
	O390	O	0.365893	0.596988	0.673900
	H391	H	0.353470	0.595919	0.677639
	H392	H	0.385093	0.605394	0.684216
	O393	O	0.923868	0.148279	0.881932
	H394	H	0.913104	0.141566	0.896761
	H395	H	0.907964	0.147828	0.866380
	O396	O	-0.009869	0.902809	1.043262
	H397	H	-0.018514	0.903626	1.048167
	H398	H	-0.020258	0.901218	1.033786
	O399	O	-0.223086	0.005366	1.216446
	H400	H	-0.236502	-0.011515	1.234246
	H401	H	-0.228358	-0.012408	1.228489
	O402	O	0.282235	0.516138	0.399303
	H403	H	0.279736	0.505597	0.390767
	H404	H	0.281636	0.492855	0.388936
	O405	O	1.544127	-0.319262	1.461957
	H406	H	1.561776	-0.313016	1.460661
	H407	H	1.534036	-0.328338	1.440339
	O408	O	-0.284294	-0.492870	-0.715400
	H409	H	-0.261804	-0.479098	-0.726884
	H410	H	-0.295953	-0.470580	-0.713287
	O411	O	-0.074426	-0.008792	0.774629
	H412	H	-0.064602	-0.020558	0.782338
	H413	H	-0.081297	-0.012640	0.760406
	O414	O	0.577011	0.333749	0.694628
	H415	H	0.570720	0.323578	0.681067
	H416	H	0.577545	0.344747	0.688760
	O417	O	-0.123264	0.080912	0.129036
	H418	H	-0.125877	0.080811	0.141370
	H419	H	-0.118614	0.089066	0.131457
	O420	O	0.680152	0.719493	0.307646
	H421	H	0.658506	0.710157	0.318085
	H422	H	0.671561	0.713169	0.323632
	O423	O	0.289304	-0.246843	1.301521
	H424	H	0.274029	-0.236251	1.325522
	H425	H	0.270091	-0.239255	1.285325
	O426	O	0.441885	0.311895	0.427805
	H427	H	0.424106	0.315679	0.441659
	H428	H	0.457188	0.313135	0.440549
	O429	O	0.707377	0.747351	0.696911
	H430	H	0.721010	0.745975	0.714158
	H431	H	0.698173	0.760913	0.716416
	O432	O	0.310675	0.354436	0.377392
	H433	H	0.330585	0.369888	0.388879
	H434	H	0.309914	0.357149	0.395604
	O435	O	-0.189045	0.838754	0.183469
	H436	H	-0.190395	0.818348	0.177742
	H437	H	-0.174981	0.843239	0.192709
	O438	O	0.190316	-0.149664	0.177730
	H439	H	0.165927	-0.138274	0.159823
	H440	H	0.178808	-0.126904	0.156952
	O441	O	0.141598	-1.109206	0.044431
	H442	H	0.139734	-1.102942	0.036905
	H443	H	0.146603	-1.108666	0.035890
	O444	O	0.504606	0.507629	-0.349638
	H445	H	0.501934	0.495166	-0.364316
	H446	H	0.518683	0.507197	-0.345306
	O447	O	0.720038	0.750456	0.521551
	H448	H	0.736775	0.773703	0.531959
	H449	H	0.713071	0.752977	0.555922
	O450	O	0.302380	0.649960	0.659842
	H451	H	0.305496	0.635993	0.656837
	H452	H	0.309983	0.650088	0.652831
	O453	O	0.468542	0.685699	0.343381
	H454	H	0.451786	0.683954	0.339634
	H455	H	0.454570	0.703731	0.335859
	O456	O	0.717751	0.577256	0.687727
	H457	H	0.729261	0.593368	0.700096
	H458	H	0.723808	0.578676	0.687443
	O459	O	0.857724	1.051513	-0.176408
	H460	H	0.860927	1.059895	-0.179253
	H461	H	0.855202	1.061530	-0.185808
	O462	O	1.072469	0.220532	-0.108632
	H463	H	1.055910	0.231170	-0.113205
	H464	H	1.082892	0.230252	-0.109793
	O465	O	1.019588	0.080942	-0.052480
	H466	H	1.024051	0.090192	-0.054475
	H467	H	1.028278	0.086760	-0.055909
	O468	O	0.186328	1.111711	-0.069489
	H469	H	0.188820	1.103230	-0.075039
	H470	H	0.187843	1.094887	-0.065784
	O471	O	0.981023	0.041290	1.210022
	H472	H	0.977124	0.056105	1.201913
	H473	H	0.960609	0.047096	1.211150
	O474	O	0.223820	1.261244	-0.075563
	H475	H	0.240189	1.260953	-0.095527
	H476	H	0.228168	1.270204	-0.087326
	O477	O	1.207196	0.836240	1.791359
	H478	H	1.220265	0.872690	1.794343
	H479	H	1.202210	0.824435	1.785170
	O480	O	0.324990	0.409960	0.515735
	H481	H	0.316797	0.403460	0.538531
	H482	H	0.316387	0.406885	0.518507
	O483	O	0.653546	0.567498	0.518792
	H484	H	0.664846	0.562505	0.525002
	H485	H	0.648897	0.560652	0.520062
	O486	O	0.978050	0.261038	0.773872
	H487	H	0.945038	0.272334	0.765106
	H488	H	0.958865	0.268281	0.759514
	O489	O	0.994260	1.083228	-0.151848
	H490	H	0.978865	1.077069	-0.158523
	H491	H	0.977411	1.086673	-0.139413
