data_Molecule from HDF5

_cell_length_a		16.330394
_cell_length_b		16.276090
_cell_length_c		16.276771
_cell_angle_alpha	89.993193
_cell_angle_beta	89.799240
_cell_angle_gamma	90.150987
_symmetry_space_group_name_H-M	'P 1'
_symmetry_Int_Tables_number		1

loop_
	_symmetry_equiv_pos_as_xyz
	x,y,z

loop_
	_atom_site_label
	_atom_site_type_symbol
	_atom_site_fract_x
	_atom_site_fract_y
	_atom_site_fract_z
	H0	H	0.399218	0.833052	0.709590
	H1	H	0.598591	0.159132	0.707869
	H2	H	0.598013	0.831985	0.277612
	H3	H	0.402318	0.159909	0.280048
	H4	H	0.715012	0.396089	0.831889
	H5	H	0.714594	0.599379	0.157171
	H6	H	0.284112	0.594722	0.830280
	H7	H	0.281436	0.396674	0.157149
	H8	H	0.838496	0.711884	0.394977
	H9	H	0.163088	0.710346	0.594756
	H10	H	0.837811	0.276113	0.598569
	H11	H	0.162986	0.280585	0.396366
	H12	H	0.836012	0.395384	0.711426
	H13	H	0.161539	0.594930	0.711781
	H14	H	0.835383	0.592441	0.283820
	H15	H	0.160570	0.392875	0.276183
	H16	H	0.397915	0.712599	0.831544
	H17	H	0.597441	0.713198	0.156853
	H18	H	0.596316	0.282997	0.829534
	H19	H	0.395862	0.279058	0.156726
	H20	H	0.714800	0.831581	0.392822
	H21	H	0.715415	0.157578	0.593416
	H22	H	0.284741	0.832342	0.593335
	H23	H	0.283677	0.158324	0.393187
	H24	H	0.894383	0.331867	0.212526
	H25	H	0.096604	0.658683	0.210664
	H26	H	0.098053	0.332831	0.779896
	H27	H	0.898533	0.658402	0.778340
	H28	H	0.217608	0.892770	0.332134
	H29	H	0.215820	0.093282	0.657602
	H30	H	0.784376	0.096826	0.332547
	H31	H	0.780675	0.891499	0.656500
	H32	H	0.336080	0.211718	0.891621
	H33	H	0.661094	0.214104	0.091589
	H34	H	0.335441	0.781250	0.094572
	H35	H	0.660103	0.777995	0.892351
	H36	H	0.336192	0.896336	0.211210
	H37	H	0.662120	0.098839	0.208710
	H38	H	0.335991	0.095673	0.777189
	H39	H	0.661764	0.894920	0.776874
	H40	H	0.899851	0.212991	0.333773
	H41	H	0.101266	0.210060	0.658338
	H42	H	0.100308	0.779526	0.331504
	H43	H	0.899210	0.778177	0.658259
	H44	H	0.215047	0.334112	0.892446
	H45	H	0.214476	0.658854	0.096488
	H46	H	0.778285	0.332809	0.096648
	H47	H	0.783672	0.659525	0.895143
	H48	H	0.407621	0.111933	0.586220
	H49	H	0.580551	0.878698	0.596070
	H50	H	0.588860	0.109733	0.401649
	H51	H	0.400361	0.875672	0.396268
	H52	H	0.586224	0.400073	0.110325
	H53	H	0.592653	0.593278	0.876769
	H54	H	0.406538	0.582682	0.107680
	H55	H	0.410042	0.394928	0.877003
	H56	H	0.115961	0.587979	0.401982
	H57	H	0.882286	0.581229	0.599172
	H58	H	0.120033	0.394434	0.596395
	H59	H	0.881882	0.399842	0.398756
	H60	H	0.112938	0.399899	0.576575
	H61	H	0.881045	0.599526	0.585387
	H62	H	0.115054	0.585833	0.401977
	H63	H	0.883812	0.397084	0.411067
	H64	H	0.409419	0.592932	0.110599
	H65	H	0.594294	0.582291	0.879132
	H66	H	0.591250	0.407799	0.110339
	H67	H	0.394154	0.403533	0.874171
	H68	H	0.596448	0.111011	0.405874
	H69	H	0.584631	0.884922	0.572436
	H70	H	0.408178	0.111786	0.585161
	H71	H	0.417393	0.881355	0.398262
	H72	H	0.913519	0.609260	0.092087
	H73	H	0.087759	0.381908	0.081657
	H74	H	0.091971	0.610302	0.909755
	H75	H	0.901203	0.379602	0.907975
	H76	H	0.089635	0.901304	0.610369
	H77	H	0.095277	0.081283	0.379246
	H78	H	0.918483	0.083363	0.607291
	H79	H	0.915413	0.895336	0.379378
	H80	H	0.616871	0.089605	0.892908
	H81	H	0.381842	0.092360	0.085170
	H82	H	0.616029	0.898433	0.086927
	H83	H	0.381271	0.900385	0.898967
	H84	H	0.611918	0.905042	0.077873
	H85	H	0.386108	0.083869	0.083335
	H86	H	0.614792	0.097308	0.904574
	H87	H	0.384317	0.904693	0.905557
	H88	H	0.903870	0.093290	0.614445
	H89	H	0.085265	0.087509	0.381404
	H90	H	0.094516	0.901079	0.611394
	H91	H	0.899404	0.900513	0.375447
	H92	H	0.094722	0.615027	0.899396
	H93	H	0.091930	0.379944	0.085273
	H94	H	0.904106	0.609333	0.080239
	H95	H	0.905276	0.378670	0.899293
	H96	H	0.406803	0.111999	0.585158
	H97	H	0.603812	0.874727	0.585559
	H98	H	0.595530	0.113045	0.397449
	H99	H	0.406190	0.882196	0.411830
	H100	H	0.582688	0.407790	0.106070
	H101	H	0.584686	0.586911	0.880838
	H102	H	0.399601	0.589437	0.113256
	H103	H	0.408867	0.412081	0.881766
	H104	H	0.116046	0.586661	0.400571
	H105	H	0.889395	0.579857	0.577520
	H106	H	0.112354	0.414319	0.591804
	H107	H	0.887150	0.408998	0.407173
	H108	H	0.899507	0.614403	0.093322
	H109	H	0.086611	0.380726	0.086870
	H110	H	0.084726	0.610903	0.901157
	H111	H	0.910899	0.382642	0.907138
	H112	H	0.092539	0.905066	0.609940
	H113	H	0.095168	0.093382	0.376785
	H114	H	0.901203	0.075146	0.609617
	H115	H	0.910222	0.911344	0.383191
	H116	H	0.611327	0.083198	0.904162
	H117	H	0.382997	0.085756	0.092183
	H118	H	0.613017	0.909739	0.088637
	H119	H	0.383669	0.907968	0.898683
	C120	C	0.378063	0.004121	0.614901
	C121	C	0.620129	0.986791	0.614630
	C122	C	0.622235	0.003479	0.371627
	C123	C	0.378633	0.987462	0.372575
	C124	C	0.617699	0.375620	0.001747
	C125	C	0.619485	0.617888	0.986513
	C126	C	0.376301	0.617560	0.002677
	C127	C	0.374710	0.373693	0.985258
	C128	C	0.008327	0.615976	0.373749
	C129	C	0.991337	0.616208	0.616564
	C130	C	0.007821	0.372673	0.618339
	C131	C	0.991399	0.372517	0.374700
	C132	C	0.874820	0.503317	0.117858
	C133	C	0.118920	0.487732	0.115589
	C134	C	0.119984	0.504615	0.873562
	C135	C	0.876727	0.487905	0.874311
	C136	C	0.122075	0.872961	0.503255
	C137	C	0.121570	0.116026	0.486578
	C138	C	0.878405	0.115485	0.503735
	C139	C	0.878149	0.872473	0.486850
	C140	C	0.506722	0.117878	0.871322
	C141	C	0.490709	0.118163	0.115385
	C142	C	0.506649	0.875092	0.114964
	C143	C	0.490220	0.874169	0.871421
	C144	C	0.379492	0.881562	0.671309
	C145	C	0.618956	0.109967	0.670180
	C146	C	0.619368	0.881057	0.315069
	C147	C	0.381573	0.110846	0.317691
	C148	C	0.675956	0.376494	0.880068
	C149	C	0.675935	0.617986	0.108560
	C150	C	0.321201	0.615331	0.879605
	C151	C	0.319021	0.375672	0.108139
	C152	C	0.886299	0.672584	0.375698
	C153	C	0.114185	0.672299	0.614956
	C154	C	0.886100	0.315255	0.617888
	C155	C	0.113796	0.317553	0.375719
	C156	C	0.885263	0.374273	0.674200
	C157	C	0.113453	0.614869	0.673134
	C158	C	0.884995	0.613558	0.319878
	C159	C	0.112537	0.373770	0.316054
	C160	C	0.377969	0.673685	0.879901
	C161	C	0.617633	0.674751	0.108455
	C162	C	0.617001	0.320208	0.878820
	C163	C	0.376038	0.317156	0.107885
	C164	C	0.677314	0.880726	0.372614
	C165	C	0.676911	0.109160	0.613081
	C166	C	0.322497	0.881262	0.613423
	C167	C	0.322443	0.109832	0.373857
	C168	C	0.874825	0.380730	0.174358
	C169	C	0.117272	0.609918	0.172690
	C170	C	0.118251	0.381946	0.817427
	C171	C	0.878654	0.609742	0.816954
	C172	C	0.178928	0.873567	0.380827
	C173	C	0.178128	0.113978	0.609029
	C174	C	0.822278	0.116264	0.381556
	C175	C	0.820346	0.872685	0.608424
	C176	C	0.384534	0.173050	0.872526
	C177	C	0.612769	0.175414	0.112499
	C178	C	0.384100	0.819211	0.114472
	C179	C	0.611921	0.816825	0.872719
	C180	C	0.384582	0.876714	0.172377
	C181	C	0.613255	0.117996	0.170734
	C182	C	0.384801	0.115452	0.815186
	C183	C	0.612727	0.875071	0.815276
	C184	C	0.879882	0.174101	0.382089
	C185	C	0.121064	0.171990	0.609406
	C186	C	0.120334	0.817336	0.380456
	C187	C	0.879437	0.816309	0.609306
	C188	C	0.176574	0.382593	0.873389
	C189	C	0.175976	0.609785	0.115724
	C190	C	0.816911	0.381445	0.116642
	C191	C	0.821390	0.610458	0.875010
	C192	C	0.400819	0.089693	0.592066
	C193	C	0.596472	0.901533	0.591470
	C194	C	0.600166	0.089040	0.394843
	C195	C	0.401202	0.901971	0.395422
	C196	C	0.593628	0.398485	0.086750
	C197	C	0.597066	0.594425	0.900996
	C198	C	0.398815	0.595024	0.088283
	C199	C	0.397701	0.396527	0.899848
	C200	C	0.093474	0.593412	0.395355
	C201	C	0.906316	0.593497	0.593732
	C202	C	0.092969	0.396014	0.595051
	C203	C	0.906352	0.395348	0.398691
	C204	C	0.898685	0.588685	0.095220
	C205	C	0.095338	0.402797	0.091704
	C206	C	0.097314	0.589979	0.896701
	C207	C	0.899082	0.402442	0.898092
	C208	C	0.099074	0.895797	0.588579
	C209	C	0.098704	0.093750	0.401394
	C210	C	0.901155	0.091143	0.588513
	C211	C	0.901610	0.895459	0.401406
	C212	C	0.592234	0.096156	0.893906
	C213	C	0.405647	0.094348	0.093320
	C214	C	0.591715	0.897713	0.091275
	C215	C	0.405067	0.897394	0.894364
	Zn216	Zn	0.499170	-0.004129	0.743197
	Zn217	Zn	0.499799	-0.003749	0.243820
	Zn218	Zn	0.747372	0.496307	-0.005079
	Zn219	Zn	0.247989	0.496535	-0.005838
	Zn220	Zn	0.000828	0.744838	0.494851
	Zn221	Zn	0.000502	0.243962	0.496677
	Zn222	Zn	-0.001001	0.495483	0.746147
	Zn223	Zn	-0.002283	0.494420	0.245260
	Zn224	Zn	0.497691	0.746099	-0.006018
	Zn225	Zn	0.497525	0.246105	-0.006968
	Zn226	Zn	0.749652	-0.005775	0.494402
	Zn227	Zn	0.249855	-0.004947	0.493661
	N228	N	0.413452	0.958986	0.672308
	N229	N	0.584229	0.032910	0.671191
	N230	N	0.586054	0.958495	0.314385
	N231	N	0.415690	0.033713	0.316734
	N232	N	0.676617	0.410188	0.957485
	N233	N	0.677229	0.583540	0.031416
	N234	N	0.320140	0.581284	0.957016
	N235	N	0.318282	0.409930	0.031112
	N236	N	0.963936	0.674503	0.408141
	N237	N	0.037397	0.673129	0.580293
	N238	N	0.963367	0.314174	0.583868
	N239	N	0.037190	0.316386	0.410944
	N240	N	0.961961	0.409280	0.674658
	N241	N	0.036309	0.581022	0.674425
	N242	N	0.961637	0.578950	0.318426
	N243	N	0.035104	0.406867	0.315048
	N244	N	0.411429	0.675227	0.957335
	N245	N	0.583477	0.674759	0.031376
	N246	N	0.581382	0.319594	0.955498
	N247	N	0.409793	0.315614	0.030165
	N248	N	0.679362	0.958014	0.406956
	N249	N	0.677673	0.031653	0.579311
	N250	N	0.321471	0.958410	0.579192
	N251	N	0.320577	0.032088	0.407255
	N252	N	0.910083	0.457606	0.175410
	N253	N	0.082234	0.532863	0.172721
	N254	N	0.083521	0.458827	0.817424
	N255	N	0.912277	0.532390	0.816376
	N256	N	0.180187	0.907431	0.458132
	N257	N	0.178317	0.079823	0.531783
	N258	N	0.821180	0.080640	0.458139
	N259	N	0.819463	0.907058	0.531266
	N260	N	0.461367	0.174814	0.906778
	N261	N	0.535450	0.175970	0.079003
	N262	N	0.460783	0.818227	0.079279
	N263	N	0.534606	0.816171	0.906905
	N264	N	0.461706	0.910844	0.172614
	N265	N	0.536346	0.083237	0.172625
	N266	N	0.461950	0.081882	0.814331
	N267	N	0.536190	0.909942	0.814429
	N268	N	0.914101	0.173874	0.459148
	N269	N	0.086568	0.173485	0.532503
	N270	N	0.085695	0.816714	0.457711
	N271	N	0.914645	0.816070	0.532478
	N272	N	0.177566	0.459722	0.907690
	N273	N	0.177247	0.532742	0.081159
	N274	N	0.816633	0.458795	0.082564
	N275	N	0.820171	0.533579	0.910101
	O276	O	1.055530	-0.126047	0.923940
	H277	H	1.060090	-0.129164	0.915762
	H278	H	1.048998	-0.120963	0.915695
	O279	O	0.507895	0.493781	0.432412
	H280	H	0.515530	0.483187	0.425334
	H281	H	0.509153	0.487203	0.430629
	O282	O	0.446890	0.524972	0.503519
	H283	H	0.437875	0.534123	0.494132
	H284	H	0.451265	0.528007	0.492395
	O285	O	0.562514	0.493113	0.546270
	H286	H	0.556045	0.499574	0.548474
	H287	H	0.564836	0.504184	0.542050
	O288	O	0.627654	0.429390	0.401834
	H289	H	0.624288	0.427192	0.409693
	H290	H	0.635636	0.421511	0.405349
	O291	O	0.048259	0.101269	1.144322
	H292	H	0.042722	0.105342	1.157543
	H293	H	0.047606	0.094394	1.158427
	O294	O	0.833872	0.870036	0.041603
	H295	H	0.829223	0.864281	0.035587
	H296	H	0.837231	0.870672	0.039108
	O297	O	0.879667	0.884802	0.098123
	H298	H	0.870324	0.881941	0.107783
	H299	H	0.881794	0.879194	0.089286
	O300	O	0.564016	0.497262	0.566975
	H301	H	0.546222	0.484989	0.561455
	H302	H	0.558941	0.488974	0.580792
	O303	O	0.543522	0.440862	0.463240
	H304	H	0.540409	0.443894	0.471316
	H305	H	0.558226	0.428062	0.466716
	O306	O	-0.097398	0.995766	1.030340
	H307	H	-0.083634	1.008315	1.035634
	H308	H	-0.090291	0.992345	1.024852
	O309	O	0.587279	0.516332	0.508161
	H310	H	0.589712	0.512602	0.502488
	H311	H	0.584918	0.515962	0.522774
	O312	O	1.005052	1.040067	1.016591
	H313	H	0.997489	1.033843	1.023377
	H314	H	1.002714	1.054195	1.018089
	O315	O	1.007939	1.083433	-0.154416
	H316	H	1.001121	1.097486	-0.162555
	H317	H	0.998104	1.077070	-0.147053
	O318	O	0.623811	0.612410	0.570234
	H319	H	0.627558	0.611150	0.577818
	H320	H	0.636746	0.619434	0.575575
	O321	O	0.436515	0.421478	0.392589
	H322	H	0.443515	0.423265	0.377618
	H323	H	0.445356	0.421807	0.392731
	O324	O	0.131080	1.012050	1.072216
	H325	H	0.140804	1.012803	1.073394
	H326	H	0.130623	1.014913	1.072135
	O327	O	0.007255	1.033535	0.913123
	H328	H	0.014625	1.048022	0.913241
	H329	H	0.005450	1.029398	0.920566
	O330	O	0.037121	0.112245	0.061692
	H331	H	0.034916	0.102303	0.044379
	H332	H	0.051833	0.093433	0.070801
	O333	O	0.582900	0.395746	0.532185
	H334	H	0.576981	0.399510	0.541110
	H335	H	0.574337	0.385056	0.530328
	O336	O	0.156435	-0.119354	-0.077255
	H337	H	0.154891	-0.114143	-0.084685
	H338	H	0.158374	-0.112369	-0.086560
	O339	O	0.050413	0.085678	0.094373
	H340	H	0.057257	0.088030	0.105324
	H341	H	0.056625	0.094365	0.106014
	O342	O	0.505794	0.582570	0.433166
	H343	H	0.493532	0.589794	0.433280
	H344	H	0.511612	0.585103	0.439231
	O345	O	-0.027910	1.083403	1.070633
	H346	H	-0.041860	1.074532	1.083693
	H347	H	-0.025962	1.083265	1.069010
	O348	O	0.529398	0.520430	0.469106
	H349	H	0.532073	0.525904	0.476931
	H350	H	0.536744	0.521934	0.469012
	O351	O	0.600603	0.494197	0.589595
	H352	H	0.596917	0.505294	0.594308
	H353	H	0.592509	0.485538	0.581257
	O354	O	0.022486	0.879517	0.003881
	H355	H	0.006732	0.867087	-0.002381
	H356	H	0.007049	0.888135	-0.000071
	O357	O	0.423751	0.608947	0.432271
	H358	H	0.420725	0.622258	0.429108
	H359	H	0.433043	0.611897	0.431514
	O360	O	0.952675	0.098917	0.905687
	H361	H	0.953267	0.104315	0.905393
	H362	H	0.948088	0.106065	0.901190
	O363	O	0.459520	0.517990	0.439115
	H364	H	0.463379	0.499054	0.417373
	H365	H	0.454695	0.513987	0.434643
	O366	O	0.455783	0.593745	0.582461
	H367	H	0.456574	0.593288	0.575748
	H368	H	0.445450	0.591736	0.599310
	O369	O	0.921139	-0.097019	-0.059220
	H370	H	0.927359	-0.098532	-0.072606
	H371	H	0.912764	-0.103756	-0.057161
	O372	O	0.413916	0.464273	0.560202
	H373	H	0.397792	0.461170	0.558632
	H374	H	0.417818	0.465530	0.556736
	O375	O	1.067917	-0.047798	1.064329
	H376	H	1.065910	-0.048488	1.065206
	H377	H	1.067828	-0.052030	1.055168
	O378	O	-0.140200	0.962632	-0.089200
	H379	H	-0.134437	0.969082	-0.086379
	H380	H	-0.143470	0.966586	-0.089164
	O381	O	-0.008077	0.940353	1.039438
	H382	H	-0.010204	0.938925	1.045274
	H383	H	-0.029417	0.954577	1.035946
	O384	O	0.974206	1.120470	0.068471
	H385	H	0.995606	1.109163	0.075324
	H386	H	0.979216	1.144703	0.079648
	O387	O	1.067559	0.031808	0.910004
	H388	H	1.071026	0.021984	0.913302
	H389	H	1.069187	0.031439	0.919078
	O390	O	1.078260	1.011663	0.001910
	H391	H	1.082515	1.021455	-0.009789
	H392	H	1.091540	1.013386	-0.001784
	O393	O	0.442369	0.517226	0.375849
	H394	H	0.458895	0.523659	0.378432
	H395	H	0.449733	0.530251	0.371284
