data_Molecule from HDF5

_cell_length_a		16.561075
_cell_length_b		16.579889
_cell_length_c		16.529985
_cell_angle_alpha	89.881642
_cell_angle_beta	89.806524
_cell_angle_gamma	90.109963
_symmetry_space_group_name_H-M	'P 1'
_symmetry_Int_Tables_number		1

loop_
	_symmetry_equiv_pos_as_xyz
	x,y,z

loop_
	_atom_site_label
	_atom_site_type_symbol
	_atom_site_fract_x
	_atom_site_fract_y
	_atom_site_fract_z
	H0	H	0.393593	0.858632	0.710394
	H1	H	0.603994	0.171135	0.706313
	H2	H	0.605842	0.859086	0.265560
	H3	H	0.397503	0.171230	0.266629
	H4	H	0.722113	0.410505	0.831201
	H5	H	0.720639	0.620591	0.143822
	H6	H	0.278729	0.620709	0.829351
	H7	H	0.281016	0.411862	0.145246
	H8	H	0.844046	0.737235	0.381298
	H9	H	0.155478	0.738986	0.593765
	H10	H	0.845672	0.290313	0.595691
	H11	H	0.156436	0.294205	0.381461
	H12	H	0.846267	0.405450	0.712943
	H13	H	0.156063	0.623065	0.709733
	H14	H	0.842326	0.618199	0.267633
	H15	H	0.155699	0.410120	0.264875
	H16	H	0.392026	0.739156	0.830163
	H17	H	0.605852	0.737096	0.142966
	H18	H	0.604720	0.296083	0.830301
	H19	H	0.396246	0.294496	0.144750
	H20	H	0.722097	0.859755	0.380904
	H21	H	0.721878	0.170729	0.590102
	H22	H	0.277057	0.858310	0.594772
	H23	H	0.281751	0.171175	0.385003
	H24	H	0.894356	0.357893	0.209211
	H25	H	0.105932	0.671577	0.208520
	H26	H	0.105173	0.359194	0.765797
	H27	H	0.893903	0.670082	0.763760
	H28	H	0.223441	0.908028	0.331080
	H29	H	0.220893	0.119586	0.642626
	H30	H	0.778798	0.121957	0.329412
	H31	H	0.772709	0.904417	0.639957
	H32	H	0.344848	0.236429	0.881762
	H33	H	0.657491	0.236690	0.092645
	H34	H	0.344203	0.791201	0.094891
	H35	H	0.656044	0.792486	0.878861
	H36	H	0.343593	0.908275	0.209615
	H37	H	0.657579	0.119978	0.207106
	H38	H	0.344233	0.119601	0.765828
	H39	H	0.656491	0.909521	0.764166
	H40	H	0.894982	0.237669	0.330404
	H41	H	0.105886	0.237231	0.641408
	H42	H	0.106557	0.792916	0.330210
	H43	H	0.889045	0.788700	0.640648
	H44	H	0.219472	0.358321	0.883602
	H45	H	0.223281	0.670955	0.093640
	H46	H	0.775889	0.359193	0.096066
	H47	H	0.776760	0.670348	0.880154
	H48	H	0.415047	0.125894	0.578514
	H49	H	0.588173	0.903188	0.572485
	H50	H	0.585448	0.122423	0.407113
	H51	H	0.410358	0.903242	0.400468
	H52	H	0.582948	0.428842	0.097456
	H53	H	0.587788	0.608709	0.872993
	H54	H	0.409280	0.603450	0.099232
	H55	H	0.409709	0.425914	0.874194
	H56	H	0.108838	0.599439	0.399509
	H57	H	0.890430	0.601707	0.569813
	H58	H	0.114100	0.426843	0.583500
	H59	H	0.885483	0.417662	0.399096
	H60	H	0.112738	0.420013	0.570818
	H61	H	0.889777	0.597810	0.578106
	H62	H	0.112874	0.603690	0.393013
	H63	H	0.889706	0.427399	0.405025
	H64	H	0.413415	0.600784	0.096749
	H65	H	0.593024	0.599333	0.874523
	H66	H	0.587301	0.418802	0.102585
	H67	H	0.411261	0.425134	0.874598
	H68	H	0.600729	0.131254	0.395648
	H69	H	0.587847	0.903215	0.575162
	H70	H	0.409139	0.124526	0.570382
	H71	H	0.408410	0.899654	0.396252
	H72	H	0.911540	0.629200	0.082765
	H73	H	0.091414	0.403638	0.074290
	H74	H	0.087310	0.625653	0.899742
	H75	H	0.915549	0.403086	0.897055
	H76	H	0.094307	0.928776	0.599571
	H77	H	0.088345	0.104950	0.374304
	H78	H	0.917227	0.103598	0.596094
	H79	H	0.907720	0.927554	0.373011
	H80	H	0.614910	0.105365	0.894337
	H81	H	0.388068	0.105228	0.075263
	H82	H	0.612436	0.923834	0.075666
	H83	H	0.389391	0.929752	0.896565
	H84	H	0.610646	0.926514	0.072524
	H85	H	0.389213	0.101414	0.075645
	H86	H	0.613127	0.107114	0.898369
	H87	H	0.387658	0.923169	0.899971
	H88	H	0.908514	0.105501	0.600183
	H89	H	0.092020	0.104982	0.372954
	H90	H	0.083161	0.930137	0.595022
	H91	H	0.915463	0.930963	0.376958
	H92	H	0.090644	0.627837	0.900240
	H93	H	0.090428	0.401594	0.078933
	H94	H	0.915818	0.623815	0.074606
	H95	H	0.913462	0.405634	0.904831
	H96	H	0.405934	0.129183	0.579285
	H97	H	0.585995	0.904156	0.573698
	H98	H	0.581616	0.127825	0.387463
	H99	H	0.414267	0.901915	0.396121
	H100	H	0.594221	0.428602	0.101281
	H101	H	0.582543	0.600611	0.878088
	H102	H	0.413808	0.606060	0.097749
	H103	H	0.409474	0.423868	0.873988
	H104	H	0.111875	0.607402	0.401131
	H105	H	0.886930	0.605616	0.576772
	H106	H	0.108636	0.433580	0.571944
	H107	H	0.887149	0.428999	0.393052
	H108	H	0.905736	0.627454	0.074015
	H109	H	0.086953	0.403944	0.076539
	H110	H	0.088721	0.627413	0.896927
	H111	H	0.907501	0.402390	0.899965
	H112	H	0.086084	0.919632	0.600067
	H113	H	0.089966	0.101523	0.373941
	H114	H	0.909657	0.096499	0.596304
	H115	H	0.915120	0.921462	0.374886
	H116	H	0.611935	0.103072	0.897430
	H117	H	0.388213	0.103692	0.079040
	H118	H	0.611393	0.927942	0.076361
	H119	H	0.391122	0.928823	0.903835
	C120	C	0.377630	0.023008	0.609215
	C121	C	0.620260	1.006438	0.606268
	C122	C	0.621747	0.023974	0.364597
	C123	C	0.379386	1.005609	0.365778
	C124	C	0.620881	0.394075	-0.003606
	C125	C	0.620592	0.635779	0.978457
	C126	C	0.378970	0.636492	-0.005303
	C127	C	0.378613	0.392873	0.978556
	C128	C	0.008023	0.635668	0.365688
	C129	C	0.991755	0.636345	0.608371
	C130	C	0.008928	0.393205	0.608844
	C131	C	0.991174	0.393086	0.366104
	C132	C	0.878000	0.523326	0.109812
	C133	C	0.121858	0.506509	0.108851
	C134	C	0.120986	0.523612	0.866473
	C135	C	0.879131	0.506714	0.866913
	C136	C	0.121070	0.893480	0.495206
	C137	C	0.121971	0.135942	0.477424
	C138	C	0.879334	0.135185	0.494179
	C139	C	0.878389	0.892918	0.477586
	C140	C	0.509620	0.136985	0.864867
	C141	C	0.492488	0.135762	0.108138
	C142	C	0.508463	0.892897	0.108432
	C143	C	0.492096	0.893974	0.866032
	C144	C	0.375146	0.905533	0.669943
	C145	C	0.622893	0.124202	0.666493
	C146	C	0.623860	0.906055	0.305158
	C147	C	0.378450	0.124164	0.306710
	C148	C	0.681784	0.392209	0.878372
	C149	C	0.680747	0.638662	0.096436
	C150	C	0.318553	0.639179	0.876649
	C151	C	0.320089	0.392571	0.097608
	C152	C	0.890605	0.696412	0.363231
	C153	C	0.108789	0.698272	0.611548
	C154	C	0.892218	0.331264	0.613105
	C155	C	0.109193	0.333962	0.363406
	C156	C	0.892586	0.388610	0.671486
	C157	C	0.108963	0.640348	0.669353
	C158	C	0.889630	0.637495	0.306582
	C159	C	0.108805	0.391574	0.305406
	C160	C	0.375120	0.698084	0.877025
	C161	C	0.623413	0.696658	0.096034
	C162	C	0.623067	0.335486	0.877692
	C163	C	0.377421	0.334219	0.097433
	C164	C	0.681718	0.906451	0.362363
	C165	C	0.681393	0.124014	0.608951
	C166	C	0.317371	0.905301	0.612319
	C167	C	0.320870	0.124086	0.365199
	C168	C	0.875778	0.405177	0.169751
	C169	C	0.124238	0.624389	0.168795
	C170	C	0.123197	0.405951	0.806373
	C171	C	0.876231	0.623770	0.805086
	C172	C	0.182500	0.890384	0.377653
	C173	C	0.181620	0.138281	0.595166
	C174	C	0.819016	0.139204	0.376607
	C175	C	0.814700	0.887846	0.593737
	C176	C	0.391528	0.196337	0.863256
	C177	C	0.610345	0.196182	0.110187
	C178	C	0.391216	0.832103	0.111865
	C179	C	0.609282	0.833005	0.861798
	C180	C	0.390931	0.890165	0.169513
	C181	C	0.610301	0.138106	0.167532
	C182	C	0.391491	0.138167	0.805645
	C183	C	0.609442	0.891031	0.804257
	C184	C	0.876693	0.196959	0.377083
	C185	C	0.124175	0.196303	0.595116
	C186	C	0.124425	0.833062	0.377359
	C187	C	0.872288	0.829889	0.593933
	C188	C	0.180003	0.405333	0.864974
	C189	C	0.182782	0.624050	0.111508
	C190	C	0.816934	0.405968	0.113200
	C191	C	0.817937	0.623770	0.862872
	C192	C	0.402721	0.104886	0.583348
	C193	C	0.594588	0.924792	0.581213
	C194	C	0.596582	0.105958	0.389690
	C195	C	0.403988	0.923088	0.390569
	C196	C	0.595400	0.418245	0.078805
	C197	C	0.595230	0.610130	0.896607
	C198	C	0.404663	0.610836	0.076478
	C199	C	0.403256	0.417628	0.895917
	C200	C	0.089842	0.610783	0.390723
	C201	C	0.910308	0.609465	0.582304
	C202	C	0.090603	0.419301	0.582737
	C203	C	0.908820	0.417597	0.391808
	C204	C	0.903609	0.605447	0.084245
	C205	C	0.096799	0.424495	0.083752
	C206	C	0.096181	0.605413	0.891719
	C207	C	0.904707	0.425209	0.893139
	C208	C	0.095154	0.918942	0.576811
	C209	C	0.097128	0.110829	0.395230
	C210	C	0.904573	0.109172	0.576277
	C211	C	0.905285	0.919270	0.396015
	C212	C	0.591782	0.112432	0.889662
	C213	C	0.409886	0.110742	0.083398
	C214	C	0.590321	0.918691	0.082240
	C215	C	0.410477	0.919896	0.892489
	Zn216	Zn	0.500040	0.014446	0.736839
	Zn217	Zn	0.500631	0.014793	0.236958
	Zn218	Zn	0.749872	0.514994	-0.011982
	Zn219	Zn	0.250577	0.515154	-0.013406
	Zn220	Zn	0.000011	0.764829	0.486602
	Zn221	Zn	0.000416	0.264035	0.486951
	Zn222	Zn	0.000453	0.514949	0.737205
	Zn223	Zn	-0.000504	0.515028	0.237101
	Zn224	Zn	0.500073	0.764693	-0.013961
	Zn225	Zn	0.500463	0.264446	-0.012407
	Zn226	Zn	0.750103	0.014830	0.485285
	Zn227	Zn	0.249967	0.013873	0.486901
	N228	N	0.411897	0.979714	0.668247
	N229	N	0.585711	0.050183	0.664922
	N230	N	0.587418	0.980332	0.306281
	N231	N	0.413756	0.049364	0.306937
	N232	N	0.680968	0.427522	0.953460
	N233	N	0.679352	0.601648	0.022291
	N234	N	0.320454	0.601763	0.950824
	N235	N	0.320358	0.428188	0.022549
	N236	N	0.965346	0.695774	0.398929
	N237	N	0.034680	0.696009	0.574542
	N238	N	0.965854	0.333859	0.574825
	N239	N	0.034818	0.334719	0.400296
	N240	N	0.966058	0.426707	0.668735
	N241	N	0.035022	0.602653	0.667629
	N242	N	0.963660	0.600474	0.307914
	N243	N	0.034147	0.427385	0.306701
	N244	N	0.411807	0.696687	0.951583
	N245	N	0.586915	0.695255	0.021507
	N246	N	0.586285	0.336089	0.952152
	N247	N	0.412683	0.333937	0.022138
	N248	N	0.680540	0.980787	0.398599
	N249	N	0.680135	0.049669	0.572564
	N250	N	0.318811	0.979498	0.575194
	N251	N	0.321174	0.049129	0.400952
	N252	N	0.913092	0.479252	0.167737
	N253	N	0.087102	0.550272	0.167466
	N254	N	0.087454	0.480562	0.806870
	N255	N	0.913587	0.549898	0.807488
	N256	N	0.180654	0.927110	0.451914
	N257	N	0.180227	0.101475	0.521038
	N258	N	0.820678	0.101449	0.450618
	N259	N	0.818533	0.926644	0.520314
	N260	N	0.466031	0.195870	0.899304
	N261	N	0.535840	0.194764	0.073790
	N262	N	0.465359	0.833582	0.074664
	N263	N	0.535137	0.834541	0.899087
	N264	N	0.465134	0.927610	0.167372
	N265	N	0.535934	0.101197	0.166256
	N266	N	0.466015	0.102193	0.806199
	N267	N	0.535504	0.928439	0.806840
	N268	N	0.913452	0.194787	0.451319
	N269	N	0.087612	0.194997	0.520757
	N270	N	0.086866	0.834781	0.451448
	N271	N	0.911656	0.833372	0.520878
	N272	N	0.178919	0.479544	0.901545
	N273	N	0.181577	0.549682	0.075001
	N274	N	0.818225	0.480559	0.076597
	N275	N	0.819696	0.549951	0.900622
	O276	O	0.874138	0.960496	0.003540
	H277	H	0.878701	0.977367	0.002376
	H278	H	0.881574	0.967262	0.026648
	O279	O	0.162740	0.031918	0.791686
	H280	H	0.185224	0.034489	0.778679
	H281	H	0.157627	0.030725	0.797746
	O282	O	0.513445	0.294686	0.454115
	H283	H	0.511053	0.289249	0.442319
	H284	H	0.517812	0.305446	0.449639
	O285	O	0.668001	0.707479	0.318394
	H286	H	0.651424	0.693478	0.329312
	H287	H	0.697600	0.729603	0.305280
	O288	O	1.507178	-0.292767	0.668283
	H289	H	1.503234	-0.287136	0.664727
	H290	H	1.503786	-0.283936	0.684367
	O291	O	0.663520	0.693317	0.664489
	H292	H	0.654045	0.702054	0.676261
	H293	H	0.664310	0.690064	0.668457
	O294	O	-0.208403	-0.065110	-0.092901
	H295	H	-0.195183	-0.064938	-0.103522
	H296	H	-0.198911	-0.042083	-0.087572
	O297	O	1.219758	0.043219	0.206331
	H298	H	1.229438	0.071099	0.219575
	H299	H	1.231569	0.067017	0.215511
	O300	O	0.472247	0.729298	0.276033
	H301	H	0.479619	0.739871	0.259043
	H302	H	0.483731	0.717738	0.268391
	O303	O	-0.660714	-0.555771	-0.515182
	H304	H	-0.655277	-0.545221	-0.506901
	H305	H	-0.671260	-0.556645	-0.507130
	O306	O	0.879541	0.059056	0.052164
	H307	H	0.891665	0.051409	0.045615
	H308	H	0.879237	0.048622	0.045579
	O309	O	0.515621	0.339128	0.293053
	H310	H	0.513542	0.345922	0.301544
	H311	H	0.534122	0.324163	0.277751
	O312	O	-0.108093	0.925903	0.782481
	H313	H	-0.088705	0.933510	0.783523
	H314	H	-0.099268	0.921427	0.788588
	O315	O	0.284983	0.539584	0.273578
	H316	H	0.272859	0.548931	0.275133
	H317	H	0.275757	0.540532	0.268322
	O318	O	0.706690	0.301309	0.401070
	H319	H	0.724780	0.308945	0.409800
	H320	H	0.717594	0.298798	0.411982
	O321	O	0.020284	0.800840	0.773957
	H322	H	0.014737	0.797028	0.764832
	H323	H	0.014041	0.784795	0.779921
	O324	O	0.864403	0.232917	0.894024
	H325	H	0.858340	0.227403	0.891568
	H326	H	0.838375	0.253700	0.879593
	O327	O	0.459183	0.460493	0.562125
	H328	H	0.449402	0.445759	0.568972
	H329	H	0.456644	0.479299	0.570804
	O330	O	1.292383	1.309983	-0.309082
	H331	H	1.290031	1.299099	-0.306938
	H332	H	1.289418	1.297118	-0.304451
	O333	O	0.869109	0.179540	0.825119
	H334	H	0.850191	0.193776	0.811151
	H335	H	0.859515	0.159407	0.818831
	O336	O	0.112577	0.986589	-0.037479
	H337	H	0.134930	0.996113	-0.032980
	H338	H	0.104675	1.005391	-0.028410
	O339	O	0.365359	0.632081	0.425896
	H340	H	0.345329	0.647888	0.411748
	H341	H	0.375994	0.624064	0.425079
	O342	O	-0.582786	0.656806	0.562683
	H343	H	-0.578551	0.665765	0.556497
	H344	H	-0.589360	0.660275	0.557537
	O345	O	0.729464	0.282031	0.718792
	H346	H	0.701532	0.300141	0.690782
	H347	H	0.721266	0.298614	0.733069
	O348	O	0.553966	0.496839	0.465207
	H349	H	0.552300	0.507776	0.456096
	H350	H	0.564013	0.493477	0.475293
	O351	O	0.032495	-0.117719	1.039905
	H352	H	0.029255	-0.119334	1.043582
	H353	H	0.049858	-0.117935	1.020151
	O354	O	1.076719	0.064475	0.916267
	H355	H	1.076627	0.053615	0.913212
	H356	H	1.086437	0.070721	0.910352
	O357	O	0.300570	0.349204	0.319957
	H358	H	0.317950	0.369745	0.333169
	H359	H	0.311100	0.364708	0.333732
	O360	O	0.714547	0.493528	0.637857
	H361	H	0.718606	0.505946	0.649201
	H362	H	0.714486	0.500228	0.641610
	O363	O	0.177040	0.833090	0.809393
	H364	H	0.135570	0.834856	0.809778
	H365	H	0.186781	0.841772	0.819538
	O366	O	0.718015	0.289785	1.262885
	H367	H	0.725774	0.275139	1.286377
	H368	H	0.729211	0.301965	1.251059
	O369	O	0.191204	0.204763	0.794628
	H370	H	0.167371	0.185162	0.800138
	H371	H	0.189459	0.195161	0.820130
	O372	O	-0.136214	1.030271	1.170359
	H373	H	-0.136813	1.015960	1.172494
	H374	H	-0.154306	1.022295	1.176250
	O375	O	1.216761	0.042919	-0.101961
	H376	H	1.219675	0.037554	-0.092255
	H377	H	1.223677	0.037659	-0.107445
	O378	O	0.286598	0.720748	0.451853
	H379	H	0.285767	0.734507	0.432284
	H380	H	0.274161	0.728401	0.437550
	O381	O	0.251509	0.760801	0.241674
	H382	H	0.240975	0.751724	0.235619
	H383	H	0.267366	0.779314	0.233638
	O384	O	0.368324	0.566495	0.590374
	H385	H	0.376575	0.577090	0.586252
	H386	H	0.361692	0.560730	0.595610
	O387	O	0.130877	1.170422	1.113154
	H388	H	0.149517	1.197772	1.136959
	H389	H	0.096188	1.174540	1.111121
	O390	O	-0.107413	1.226863	0.850204
	H391	H	-0.125769	1.245193	0.838737
	H392	H	-0.116081	1.235412	0.851982
	O393	O	1.012827	-0.196234	0.133933
	H394	H	1.014603	-0.204139	0.135422
	H395	H	1.026179	-0.205089	0.133140
	O396	O	0.582298	0.314260	0.571416
	H397	H	0.572030	0.315006	0.554138
	H398	H	0.585090	0.331025	0.558299
	O399	O	0.461928	0.302551	0.698048
	H400	H	0.459682	0.294517	0.698828
	H401	H	0.459556	0.289876	0.700698
	O402	O	1.035062	0.227460	1.200859
	H403	H	1.013452	0.224744	1.200221
	H404	H	1.019150	0.242414	1.205607
	O405	O	0.462803	0.468661	0.295975
	H406	H	0.464414	0.460323	0.310895
	H407	H	0.456686	0.482637	0.294516
	O408	O	0.784769	1.047780	0.766795
	H409	H	0.793603	1.048247	0.766635
	H410	H	0.770794	1.037053	0.747063
	O411	O	0.947638	0.853467	-0.061303
	H412	H	0.948241	0.855439	-0.047018
	H413	H	0.935062	0.849991	-0.063892
	O414	O	-0.186885	-0.203210	-0.004504
	H415	H	-0.207571	-0.216492	0.002750
	H416	H	-0.192169	-0.185364	-0.008697
	O417	O	-0.087296	0.182979	1.038230
	H418	H	-0.082540	0.177864	1.037370
	H419	H	-0.091683	0.185770	1.025807
	O420	O	0.867557	-0.085088	1.196638
	H421	H	0.872134	-0.079054	1.205741
	H422	H	0.876297	-0.075635	1.190823
	O423	O	1.551001	0.576917	0.295560
	H424	H	1.553056	0.572512	0.296136
	H425	H	1.558708	0.569071	0.302632
	O426	O	0.551339	0.676870	0.494894
	H427	H	0.546102	0.678984	0.487881
	H428	H	0.562235	0.671738	0.490881
	O429	O	1.219709	0.795762	-0.036240
	H430	H	1.249553	0.771688	-0.051171
	H431	H	1.225243	0.812406	-0.039419
	O432	O	1.197897	0.100467	1.004062
	H433	H	1.206622	0.103947	1.015853
	H434	H	1.201854	0.086243	1.006139
	O435	O	-0.209984	-0.201989	0.199743
	H436	H	-0.202147	-0.192551	0.171032
	H437	H	-0.188407	-0.193088	0.207754
	O438	O	0.533056	0.463519	0.658321
	H439	H	0.540995	0.475031	0.666634
	H440	H	0.530939	0.469319	0.657395
	O441	O	0.711650	0.590277	0.446710
	H442	H	0.706308	0.595811	0.432521
	H443	H	0.716885	0.598916	0.435818
	O444	O	0.284479	0.334492	0.500490
	H445	H	0.289285	0.331460	0.512295
	H446	H	0.274593	0.327024	0.508850
	O447	O	0.689112	0.401885	0.536006
	H448	H	0.689497	0.420543	0.546573
	H449	H	0.695538	0.418612	0.534598
	O450	O	1.543554	-0.310609	0.543724
	H451	H	1.550025	-0.299060	0.550424
	H452	H	1.528939	-0.315490	0.550567
	O453	O	1.034151	0.045466	0.821289
	H454	H	1.043343	0.065093	0.812386
	H455	H	1.021740	0.044789	0.816421
	O456	O	-0.070186	1.133435	0.998488
	H457	H	-0.067535	1.121667	0.991170
	H458	H	-0.056984	1.131933	1.003945
	O459	O	0.505454	0.579076	0.630014
	H460	H	0.508833	0.586143	0.630943
	H461	H	0.495151	0.567722	0.632523
	O462	O	0.583440	0.660512	0.496532
	H463	H	0.581556	0.659338	0.488272
	H464	H	0.576988	0.657447	0.497514
	O465	O	0.714319	0.488487	0.274137
	H466	H	0.723048	0.480079	0.266166
	H467	H	0.718974	0.488489	0.271364
	O468	O	0.212471	1.222380	0.083950
	H469	H	0.224665	1.243444	0.096562
	H470	H	0.204897	1.229785	0.102616
	O471	O	0.283972	0.479032	0.701190
	H472	H	0.267688	0.463332	0.708483
	H473	H	0.270428	0.465259	0.704489
	O474	O	0.974956	0.936453	0.159118
	H475	H	0.981737	0.944945	0.162063
	H476	H	0.985941	0.941693	0.172419
	O477	O	0.064323	-0.014057	1.109646
	H478	H	0.076589	-0.000244	1.115362
	H479	H	0.054631	-0.003959	1.102504
