data_Molecule from HDF5

_cell_length_a		16.459422
_cell_length_b		16.222475
_cell_length_c		16.489471
_cell_angle_alpha	90.072799
_cell_angle_beta	89.873363
_cell_angle_gamma	89.901301
_symmetry_space_group_name_H-M	'P 1'
_symmetry_Int_Tables_number		1

loop_
	_symmetry_equiv_pos_as_xyz
	x,y,z

loop_
	_atom_site_label
	_atom_site_type_symbol
	_atom_site_fract_x
	_atom_site_fract_y
	_atom_site_fract_z
	H0	H	0.390958	0.824656	0.715961
	H1	H	0.599732	0.145081	0.715662
	H2	H	0.599956	0.824861	0.274529
	H3	H	0.389203	0.145316	0.276976
	H4	H	0.716946	0.380524	0.838250
	H5	H	0.716922	0.594255	0.153754
	H6	H	0.272810	0.592921	0.837499
	H7	H	0.273942	0.381896	0.154543
	H8	H	0.834355	0.701890	0.395294
	H9	H	0.154669	0.701001	0.597245
	H10	H	0.833675	0.265798	0.597454
	H11	H	0.155270	0.265362	0.396060
	H12	H	0.836279	0.376921	0.719799
	H13	H	0.154161	0.586941	0.715716
	H14	H	0.836729	0.590758	0.273490
	H15	H	0.153560	0.377271	0.274796
	H16	H	0.393742	0.703630	0.835219
	H17	H	0.593428	0.703689	0.156189
	H18	H	0.599037	0.265250	0.836690
	H19	H	0.389270	0.264367	0.154498
	H20	H	0.713714	0.823246	0.390637
	H21	H	0.713920	0.145122	0.599103
	H22	H	0.277233	0.823043	0.600027
	H23	H	0.273892	0.143879	0.391067
	H24	H	0.888038	0.324017	0.216586
	H25	H	0.101909	0.643408	0.219393
	H26	H	0.102287	0.323247	0.776412
	H27	H	0.890880	0.644147	0.775672
	H28	H	0.220965	0.871998	0.339890
	H29	H	0.217094	0.091385	0.652538
	H30	H	0.770997	0.092101	0.338510
	H31	H	0.770195	0.875455	0.653007
	H32	H	0.336361	0.208558	0.889449
	H33	H	0.652658	0.207776	0.100744
	H34	H	0.333941	0.767836	0.097705
	H35	H	0.654248	0.766218	0.892560
	H36	H	0.337082	0.878494	0.218867
	H37	H	0.651149	0.095994	0.220430
	H38	H	0.338374	0.095940	0.769807
	H39	H	0.651902	0.876547	0.770889
	H40	H	0.889625	0.204739	0.337780
	H41	H	0.096606	0.202672	0.655171
	H42	H	0.100470	0.759847	0.338123
	H43	H	0.892214	0.764893	0.655875
	H44	H	0.218323	0.325897	0.889425
	H45	H	0.211907	0.646769	0.099106
	H46	H	0.770216	0.326230	0.104478
	H47	H	0.775205	0.646131	0.890408
	H48	H	0.403072	0.098483	0.578140
	H49	H	0.582165	0.868327	0.588711
	H50	H	0.583169	0.100287	0.405514
	H51	H	0.406705	0.869650	0.408397
	H52	H	0.585224	0.398453	0.108054
	H53	H	0.596129	0.570774	0.881615
	H54	H	0.407380	0.570461	0.105654
	H55	H	0.402301	0.403601	0.885450
	H56	H	0.109138	0.577338	0.406704
	H57	H	0.879374	0.577161	0.589030
	H58	H	0.106247	0.392998	0.583121
	H59	H	0.878494	0.390131	0.401374
	H60	H	0.107618	0.397074	0.591554
	H61	H	0.882902	0.571338	0.583343
	H62	H	0.103529	0.566331	0.412414
	H63	H	0.882993	0.393511	0.412410
	H64	H	0.405201	0.583774	0.110660
	H65	H	0.578201	0.568931	0.887446
	H66	H	0.582468	0.401171	0.107339
	H67	H	0.411776	0.397106	0.884864
	H68	H	0.582880	0.099044	0.407995
	H69	H	0.577854	0.872555	0.581390
	H70	H	0.403156	0.101511	0.587234
	H71	H	0.405653	0.868515	0.405069
	H72	H	0.904801	0.598186	0.084237
	H73	H	0.077225	0.371194	0.087836
	H74	H	0.082965	0.599007	0.910180
	H75	H	0.905021	0.369440	0.907335
	H76	H	0.081998	0.893633	0.608689
	H77	H	0.082049	0.075942	0.382066
	H78	H	0.904749	0.067756	0.606494
	H79	H	0.902708	0.889983	0.381041
	H80	H	0.604599	0.073480	0.913301
	H81	H	0.379795	0.077604	0.087339
	H82	H	0.607124	0.897572	0.085520
	H83	H	0.381234	0.899944	0.904298
	H84	H	0.607671	0.896098	0.087131
	H85	H	0.383603	0.072789	0.080553
	H86	H	0.606447	0.066802	0.902402
	H87	H	0.380566	0.895764	0.903883
	H88	H	0.906469	0.075601	0.608934
	H89	H	0.089277	0.069521	0.381594
	H90	H	0.087756	0.891530	0.610359
	H91	H	0.902141	0.898832	0.383887
	H92	H	0.086433	0.601324	0.904236
	H93	H	0.086539	0.372127	0.075774
	H94	H	0.908938	0.598790	0.086059
	H95	H	0.908176	0.370686	0.908407
	H96	H	0.411040	0.097956	0.583479
	H97	H	0.586947	0.870024	0.580728
	H98	H	0.586186	0.100339	0.407535
	H99	H	0.409036	0.869624	0.405958
	H100	H	0.581038	0.397374	0.108520
	H101	H	0.584199	0.585833	0.879681
	H102	H	0.394567	0.574524	0.110849
	H103	H	0.402209	0.393256	0.880804
	H104	H	0.108135	0.565942	0.400078
	H105	H	0.881330	0.568797	0.591472
	H106	H	0.109969	0.388301	0.590446
	H107	H	0.882570	0.401426	0.402587
	H108	H	0.908621	0.597034	0.082334
	H109	H	0.091082	0.366116	0.089085
	H110	H	0.079768	0.598590	0.903564
	H111	H	0.905779	0.370690	0.910604
	H112	H	0.086840	0.897378	0.608159
	H113	H	0.081023	0.067183	0.385665
	H114	H	0.899128	0.072268	0.610642
	H115	H	0.909523	0.893719	0.385049
	H116	H	0.609741	0.079288	0.902914
	H117	H	0.382663	0.068997	0.088915
	H118	H	0.608189	0.895822	0.084912
	H119	H	0.382583	0.897008	0.907183
	C120	C	0.373874	-0.006667	0.615840
	C121	C	0.614893	0.975787	0.615788
	C122	C	0.615840	-0.006383	0.374477
	C123	C	0.373601	0.975157	0.374695
	C124	C	0.615749	0.365493	0.003873
	C125	C	0.616780	0.607773	0.987771
	C126	C	0.372029	0.608166	0.003862
	C127	C	0.373032	0.364840	0.987973
	C128	C	0.002753	0.603840	0.374164
	C129	C	0.986657	0.603986	0.618221
	C130	C	0.002793	0.361215	0.619389
	C131	C	0.986543	0.362088	0.374467
	C132	C	0.873896	0.492986	0.117074
	C133	C	0.116299	0.475943	0.116909
	C134	C	0.116482	0.493492	0.874225
	C135	C	0.874165	0.475930	0.875849
	C136	C	0.117892	0.860718	0.504942
	C137	C	0.115652	0.104101	0.487467
	C138	C	0.871748	0.104971	0.504220
	C139	C	0.872829	0.862092	0.488064
	C140	C	0.502916	0.107328	0.873324
	C141	C	0.486207	0.106983	0.117660
	C142	C	0.503001	0.864094	0.117425
	C143	C	0.486238	0.864377	0.873295
	C144	C	0.372461	0.872770	0.676206
	C145	C	0.617874	0.097119	0.675540
	C146	C	0.617888	0.872750	0.314338
	C147	C	0.371166	0.096556	0.316076
	C148	C	0.676435	0.362468	0.885248
	C149	C	0.676328	0.611448	0.106617
	C150	C	0.313019	0.610764	0.884721
	C151	C	0.313115	0.362854	0.106914
	C152	C	0.882690	0.663079	0.374885
	C153	C	0.106836	0.662190	0.617199
	C154	C	0.882144	0.303988	0.618232
	C155	C	0.106918	0.304057	0.375636
	C156	C	0.883358	0.359088	0.679080
	C157	C	0.106374	0.605401	0.676290
	C158	C	0.883715	0.607843	0.314200
	C159	C	0.106071	0.359655	0.315297
	C160	C	0.373405	0.665904	0.883633
	C161	C	0.614868	0.665860	0.107944
	C162	C	0.617359	0.305325	0.884497
	C163	C	0.370821	0.304560	0.106859
	C164	C	0.674711	0.872056	0.372025
	C165	C	0.674657	0.096931	0.617602
	C166	C	0.315695	0.871858	0.618470
	C167	C	0.313223	0.095673	0.372676
	C168	C	0.870515	0.372293	0.177040
	C169	C	0.119055	0.596084	0.178107
	C170	C	0.119779	0.372092	0.815551
	C171	C	0.872090	0.596396	0.815401
	C172	C	0.179380	0.855934	0.386606
	C173	C	0.176691	0.108881	0.605567
	C174	C	0.811673	0.109111	0.385831
	C175	C	0.811688	0.858523	0.606270
	C176	C	0.384127	0.168571	0.871228
	C177	C	0.604939	0.168253	0.119811
	C178	C	0.382516	0.805892	0.117479
	C179	C	0.606308	0.805069	0.872963
	C180	C	0.384084	0.860973	0.178027
	C181	C	0.604044	0.112170	0.179314
	C182	C	0.385136	0.112326	0.811383
	C183	C	0.604900	0.860001	0.812219
	C184	C	0.870873	0.165452	0.385299
	C185	C	0.116237	0.163997	0.606946
	C186	C	0.119782	0.799619	0.385941
	C187	C	0.872296	0.803284	0.607738
	C188	C	0.177676	0.373343	0.872041
	C189	C	0.174083	0.597869	0.118468
	C190	C	0.811847	0.373598	0.120993
	C191	C	0.814641	0.597092	0.872699
	C192	C	0.398532	0.077415	0.590242
	C193	C	0.589540	0.892045	0.590878
	C194	C	0.591244	0.077827	0.399751
	C195	C	0.399242	0.891191	0.399465
	C196	C	0.590302	0.391542	0.086407
	C197	C	0.593098	0.582494	0.904431
	C198	C	0.395484	0.583442	0.087485
	C199	C	0.398149	0.390491	0.905181
	C200	C	0.085629	0.577482	0.399068
	C201	C	0.903037	0.579494	0.594661
	C202	C	0.086064	0.385594	0.595425
	C203	C	0.903116	0.387706	0.398460
	C204	C	0.900209	0.576460	0.091628
	C205	C	0.091987	0.391956	0.091647
	C206	C	0.090488	0.577574	0.898916
	C207	C	0.899204	0.392005	0.901493
	C208	C	0.092975	0.886823	0.587443
	C209	C	0.091158	0.078506	0.404854
	C210	C	0.896161	0.079331	0.587140
	C211	C	0.897543	0.886914	0.404871
	C212	C	0.585429	0.080789	0.898842
	C213	C	0.403782	0.080746	0.092606
	C214	C	0.585991	0.889422	0.092943
	C215	C	0.403206	0.889930	0.897898
	Zn216	Zn	0.495137	-0.014101	0.743904
	Zn217	Zn	0.494671	-0.014826	0.246785
	Zn218	Zn	0.746083	0.486308	-0.003276
	Zn219	Zn	0.243433	0.486254	-0.004244
	Zn220	Zn	-0.005433	0.733080	0.496570
	Zn221	Zn	-0.006075	0.232857	0.496121
	Zn222	Zn	-0.005148	0.482917	0.747819
	Zn223	Zn	-0.005158	0.483188	0.244658
	Zn224	Zn	0.494218	0.735882	-0.004445
	Zn225	Zn	0.494392	0.235615	-0.003964
	Zn226	Zn	0.743352	-0.016463	0.495533
	Zn227	Zn	0.245685	-0.016556	0.495668
	N228	N	0.407913	0.949358	0.674815
	N229	N	0.581833	0.020914	0.674652
	N230	N	0.582135	0.949317	0.315586
	N231	N	0.408079	0.020531	0.317177
	N232	N	0.675458	0.399109	0.960428
	N233	N	0.677648	0.576142	0.030767
	N234	N	0.311945	0.575620	0.960671
	N235	N	0.314394	0.399618	0.031837
	N236	N	0.957845	0.661005	0.411328
	N237	N	0.031317	0.661209	0.581743
	N238	N	0.957257	0.305191	0.581890
	N239	N	0.031441	0.305381	0.411446
	N240	N	0.959528	0.393869	0.680069
	N241	N	0.030569	0.570075	0.677150
	N242	N	0.959594	0.572157	0.313477
	N243	N	0.030053	0.394991	0.314508
	N244	N	0.409274	0.664380	0.958751
	N245	N	0.578985	0.663870	0.032904
	N246	N	0.580380	0.306941	0.959406
	N247	N	0.407222	0.305579	0.031842
	N248	N	0.673661	0.948181	0.408684
	N249	N	0.673061	0.020492	0.581118
	N250	N	0.316506	0.947792	0.581634
	N251	N	0.314486	0.019120	0.408252
	N252	N	0.908446	0.447726	0.174852
	N253	N	0.083647	0.519486	0.177184
	N254	N	0.082100	0.447740	0.816930
	N255	N	0.908507	0.520193	0.817290
	N256	N	0.178257	0.893444	0.461480
	N257	N	0.176464	0.072096	0.530395
	N258	N	0.812411	0.071895	0.460512
	N259	N	0.812085	0.894452	0.530886
	N260	N	0.458518	0.165642	0.908994
	N261	N	0.530710	0.165138	0.082142
	N262	N	0.457454	0.807578	0.080491
	N263	N	0.531583	0.807566	0.910271
	N264	N	0.459863	0.896249	0.178327
	N265	N	0.529136	0.074795	0.178406
	N266	N	0.459888	0.074788	0.812768
	N267	N	0.529259	0.896084	0.812215
	N268	N	0.907670	0.162853	0.460062
	N269	N	0.079017	0.161285	0.532540
	N270	N	0.081974	0.802577	0.460183
	N271	N	0.909688	0.805419	0.533138
	N272	N	0.175873	0.449941	0.907729
	N273	N	0.172453	0.522219	0.080871
	N274	N	0.813784	0.449600	0.084439
	N275	N	0.815806	0.521125	0.909673
	O276	O	0.534837	0.444909	0.461652
	H277	H	0.532647	0.448832	0.462325
	H278	H	0.528628	0.442606	0.456618
	O279	O	0.379392	0.448947	0.523294
	H280	H	0.365785	0.452794	0.527014
	H281	H	0.378641	0.459165	0.525078
	O282	O	0.444183	0.305187	0.397733
	H283	H	0.446549	0.283829	0.380158
	H284	H	0.470248	0.316727	0.403633
	O285	O	1.206260	-0.037852	-0.219539
	H286	H	1.224913	-0.039649	-0.234255
	H287	H	1.202636	-0.065613	-0.222594
	O288	O	0.581611	0.564532	0.617724
	H289	H	0.589086	0.565946	0.621021
	H290	H	0.582669	0.566925	0.628165
	O291	O	0.414726	0.555911	0.480481
	H292	H	0.422055	0.562948	0.462539
	H293	H	0.416880	0.578697	0.490684
	O294	O	0.677393	0.521417	0.470016
	H295	H	0.683992	0.515785	0.478929
	H296	H	0.671573	0.534083	0.465801
	O297	O	1.200033	0.962262	1.201904
	H298	H	1.213755	0.966741	1.238297
	H299	H	1.162550	0.947345	1.207688
	O300	O	-0.425275	0.493514	-0.405224
	H301	H	-0.438074	0.495369	-0.399945
	H302	H	-0.420594	0.510904	-0.406608
	O303	O	0.517072	0.500179	0.470822
	H304	H	0.505817	0.496643	0.487081
	H305	H	0.518656	0.482737	0.469496
	O306	O	0.952541	0.028624	0.167237
	H307	H	0.944578	0.045634	0.163250
	H308	H	0.948592	0.041384	0.174406
	O309	O	0.564082	0.526618	0.524875
	H310	H	0.575420	0.541532	0.537395
	H311	H	0.573099	0.509817	0.519058
	O312	O	0.782765	0.963911	0.208172
	H313	H	0.788907	0.994530	0.180518
	H314	H	0.745028	0.966908	0.232208
	O315	O	1.532598	1.366397	0.648708
	H316	H	1.521001	1.360266	0.650449
	H317	H	1.528897	1.369905	0.654864
	O318	O	0.434839	0.390727	0.507392
	H319	H	0.442431	0.401651	0.490725
	H320	H	0.435021	0.385534	0.516813
	O321	O	0.978191	-0.224059	1.208276
	H322	H	0.971767	-0.249394	1.236747
	H323	H	0.957136	-0.219819	1.178244
	O324	O	-0.105349	0.077041	0.906271
	H325	H	-0.105759	0.084881	0.915338
	H326	H	-0.092431	0.081763	0.899851
	O327	O	0.613959	0.402239	0.381550
	H328	H	0.619594	0.413620	0.400219
	H329	H	0.623451	0.407552	0.382937
	O330	O	0.525898	0.446774	0.450446
	H331	H	0.524608	0.450189	0.460303
	H332	H	0.528031	0.440569	0.430790
	O333	O	0.905276	0.825112	1.013734
	H334	H	0.910331	0.809744	0.998514
	H335	H	0.899224	0.833978	0.994787
	O336	O	0.389607	0.588942	0.545499
	H337	H	0.390008	0.596537	0.534682
	H338	H	0.382278	0.588651	0.560923
	O339	O	1.080712	0.012741	0.849195
	H340	H	1.079105	0.009263	0.850078
	H341	H	1.092425	-0.022532	0.844627
	O342	O	-0.214936	1.001249	0.790323
	H343	H	-0.203511	1.006736	0.789265
	H344	H	-0.229034	1.002026	0.775454
	O345	O	0.195977	0.822787	0.990366
	H346	H	0.202370	0.816889	1.007665
	H347	H	0.202871	0.818996	1.002881
	O348	O	0.489654	0.570613	0.562555
	H349	H	0.487968	0.575593	0.565535
	H350	H	0.497621	0.575268	0.558523
	O351	O	0.109534	-0.134078	0.036588
	H352	H	0.103473	-0.123518	0.045083
	H353	H	0.101691	-0.122468	0.061799
	O354	O	0.815888	0.801263	0.180834
	H355	H	0.831695	0.826834	0.191911
	H356	H	0.804846	0.821701	0.156899
	O357	O	0.001663	0.805860	-0.203966
	H358	H	0.009877	0.804356	-0.180853
	H359	H	-0.002422	0.806658	-0.215640
	O360	O	0.423750	0.480589	0.513507
	H361	H	0.427153	0.491897	0.516677
	H362	H	0.423513	0.479436	0.509663
	O363	O	0.476815	0.478970	0.373631
	H364	H	0.466105	0.475145	0.373535
	H365	H	0.474962	0.484496	0.366833
	O366	O	0.356965	0.521764	0.412316
	H367	H	0.366652	0.518912	0.408752
	H368	H	0.354973	0.527616	0.404807
	O369	O	0.054661	1.192215	0.215711
	H370	H	0.088948	1.194454	0.218255
	H371	H	0.065009	1.218162	0.236309
	O372	O	0.372252	0.637353	0.491904
	H373	H	0.378746	0.633465	0.491029
	H374	H	0.365003	0.641501	0.496593
	O375	O	0.506460	0.314166	0.576273
	H376	H	0.490992	0.311389	0.565406
	H377	H	0.521918	0.313717	0.571074
	O378	O	-0.155101	0.973989	-0.049263
	H379	H	-0.158475	1.001237	-0.057746
	H380	H	-0.139895	0.980474	-0.055797
	O381	O	1.023109	0.024173	0.948410
	H382	H	1.018780	0.026646	0.949734
	H383	H	1.029219	0.017084	0.950254
	O384	O	0.600849	0.524530	0.337455
	H385	H	0.597163	0.518548	0.344398
	H386	H	0.611786	0.521989	0.337538
	O387	O	0.975445	1.186388	0.030652
	H388	H	0.980201	1.172079	0.032438
	H389	H	0.982680	1.191415	0.037118
	O390	O	0.456102	0.514654	0.498007
	H391	H	0.447787	0.523265	0.494206
	H392	H	0.454138	0.509097	0.499243
	O393	O	1.196835	0.192213	1.019538
	H394	H	1.211903	0.172330	1.004847
	H395	H	1.212522	0.199543	1.020288
	O396	O	0.154330	1.128824	1.178048
	H397	H	0.160047	1.139370	1.140529
	H398	H	0.159550	1.090230	1.179853
	O399	O	0.012046	1.195022	0.864753
	H400	H	0.027844	1.190411	0.872195
	H401	H	0.018112	1.199235	0.873520
	O402	O	0.907682	-0.023811	0.860706
	H403	H	0.916261	-0.031195	0.858471
	H404	H	0.918811	-0.001875	0.862703
	O405	O	-0.135529	-0.216448	-0.024412
	H406	H	-0.149493	-0.230888	-0.031798
	H407	H	-0.139484	-0.209244	-0.004402
	O408	O	1.488267	1.557461	1.584359
	H409	H	1.488617	1.551004	1.589942
	H410	H	1.482756	1.550625	1.580482
	O411	O	0.883532	1.182218	-0.201677
	H412	H	0.895706	1.167956	-0.191075
	H413	H	0.906227	1.201176	-0.222063
	O414	O	-0.214080	0.195235	0.975588
	H415	H	-0.210441	0.207206	0.968481
	H416	H	-0.224392	0.208404	0.956092
	O417	O	0.051733	-0.073373	1.169617
	H418	H	0.028308	-0.109521	1.175293
	H419	H	0.020600	-0.048161	1.165384
	O420	O	-0.145445	1.078094	0.084283
	H421	H	-0.158068	1.082496	0.062788
	H422	H	-0.126410	1.094378	0.077501
	O423	O	0.942369	-0.131895	-0.064215
	H424	H	0.939419	-0.141082	-0.049968
	H425	H	0.942507	-0.114797	-0.048831
	O426	O	0.172597	-0.033537	0.974868
	H427	H	0.162093	-0.052443	0.980929
	H428	H	0.181118	-0.036978	0.977374
	O429	O	1.177544	0.796466	0.832351
	H430	H	1.145206	0.807230	0.824415
	H431	H	1.193192	0.778622	0.860047
