data_Molecule from HDF5

_cell_length_a		16.251361
_cell_length_b		16.329669
_cell_length_c		16.284511
_cell_angle_alpha	90.186534
_cell_angle_beta	89.838361
_cell_angle_gamma	90.008662
_symmetry_space_group_name_H-M	'P 1'
_symmetry_Int_Tables_number		1

loop_
	_symmetry_equiv_pos_as_xyz
	x,y,z

loop_
	_atom_site_label
	_atom_site_type_symbol
	_atom_site_fract_x
	_atom_site_fract_y
	_atom_site_fract_z
	H0	H	0.395736	0.835960	0.717784
	H1	H	0.593889	0.162247	0.720489
	H2	H	0.595010	0.836573	0.287657
	H3	H	0.396435	0.163002	0.289856
	H4	H	0.709597	0.399645	0.839305
	H5	H	0.709591	0.598801	0.166955
	H6	H	0.282285	0.596421	0.839018
	H7	H	0.279492	0.401969	0.166566
	H8	H	0.832083	0.716118	0.404875
	H9	H	0.158420	0.716195	0.603036
	H10	H	0.831554	0.285501	0.603566
	H11	H	0.158777	0.284882	0.402791
	H12	H	0.830710	0.402327	0.717433
	H13	H	0.159463	0.597612	0.716957
	H14	H	0.831521	0.600668	0.289483
	H15	H	0.159583	0.402790	0.289285
	H16	H	0.396286	0.713335	0.839214
	H17	H	0.595166	0.716896	0.165964
	H18	H	0.595298	0.282231	0.840750
	H19	H	0.393022	0.284263	0.166495
	H20	H	0.709892	0.836306	0.404112
	H21	H	0.709077	0.162902	0.602918
	H22	H	0.279481	0.837022	0.602328
	H23	H	0.281854	0.164170	0.407283
	H24	H	0.895737	0.337330	0.219035
	H25	H	0.093193	0.664324	0.216979
	H26	H	0.093071	0.336870	0.788256
	H27	H	0.895905	0.663339	0.789382
	H28	H	0.210103	0.900932	0.340558
	H29	H	0.208960	0.099240	0.667954
	H30	H	0.780161	0.099217	0.339865
	H31	H	0.779604	0.902164	0.666716
	H32	H	0.331198	0.213757	0.905832
	H33	H	0.658400	0.216370	0.103963
	H34	H	0.330969	0.785824	0.101447
	H35	H	0.658310	0.784215	0.901988
	H36	H	0.330869	0.901088	0.218590
	H37	H	0.658900	0.099043	0.218859
	H38	H	0.330978	0.097540	0.790238
	H39	H	0.657964	0.900357	0.787805
	H40	H	0.896316	0.214941	0.340027
	H41	H	0.093026	0.215041	0.667758
	H42	H	0.094640	0.784873	0.340737
	H43	H	0.894466	0.785926	0.666699
	H44	H	0.209339	0.336676	0.904161
	H45	H	0.209273	0.663703	0.100756
	H46	H	0.779790	0.336059	0.102293
	H47	H	0.781295	0.662899	0.905912
	H48	H	0.406009	0.110763	0.583888
	H49	H	0.587664	0.884563	0.594998
	H50	H	0.584559	0.115798	0.407035
	H51	H	0.397352	0.882665	0.408839
	H52	H	0.585972	0.405082	0.120116
	H53	H	0.589024	0.598670	0.884452
	H54	H	0.405012	0.592514	0.117738
	H55	H	0.403306	0.402323	0.886936
	H56	H	0.108017	0.585871	0.416533
	H57	H	0.876142	0.598778	0.601229
	H58	H	0.116699	0.395343	0.600937
	H59	H	0.880606	0.409845	0.416635
	H60	H	0.107401	0.407563	0.582937
	H61	H	0.880147	0.594768	0.588970
	H62	H	0.113808	0.592054	0.401878
	H63	H	0.878189	0.410819	0.406412
	H64	H	0.402177	0.595952	0.120591
	H65	H	0.593148	0.588635	0.887000
	H66	H	0.589128	0.410654	0.118750
	H67	H	0.398918	0.405398	0.885433
	H68	H	0.585626	0.113379	0.415226
	H69	H	0.588281	0.883298	0.595767
	H70	H	0.387442	0.120536	0.600411
	H71	H	0.406015	0.884273	0.406603
	H72	H	0.898188	0.616463	0.094970
	H73	H	0.083023	0.384642	0.098339
	H74	H	0.079234	0.613249	0.910153
	H75	H	0.901107	0.382208	0.904939
	H76	H	0.090284	0.914476	0.618946
	H77	H	0.097382	0.098399	0.383981
	H78	H	0.905263	0.092616	0.617919
	H79	H	0.903788	0.912492	0.388690
	H80	H	0.610107	0.089530	0.914318
	H81	H	0.377886	0.080953	0.110193
	H82	H	0.608419	0.915516	0.093934
	H83	H	0.378491	0.909294	0.909583
	H84	H	0.614315	0.905002	0.103888
	H85	H	0.372716	0.109218	0.099292
	H86	H	0.610523	0.089685	0.909942
	H87	H	0.376352	0.902743	0.909303
	H88	H	0.900969	0.097488	0.621039
	H89	H	0.089857	0.082246	0.390213
	H90	H	0.079914	0.906683	0.618921
	H91	H	0.908564	0.905178	0.388859
	H92	H	0.094694	0.615622	0.918368
	H93	H	0.089573	0.384904	0.090848
	H94	H	0.902799	0.615898	0.100673
	H95	H	0.906578	0.385512	0.910672
	H96	H	0.412129	0.115774	0.609995
	H97	H	0.586608	0.883739	0.596227
	H98	H	0.592556	0.116454	0.410566
	H99	H	0.403022	0.885639	0.415562
	H100	H	0.583123	0.410833	0.116879
	H101	H	0.582847	0.590884	0.889288
	H102	H	0.400234	0.591252	0.119295
	H103	H	0.403525	0.408400	0.887344
	H104	H	0.112613	0.602152	0.415241
	H105	H	0.880266	0.586009	0.599387
	H106	H	0.111098	0.418363	0.603179
	H107	H	0.876953	0.401828	0.411118
	H108	H	0.904659	0.613497	0.094197
	H109	H	0.092453	0.382995	0.099822
	H110	H	0.092566	0.620209	0.901027
	H111	H	0.899263	0.383209	0.912733
	H112	H	0.091245	0.902383	0.623284
	H113	H	0.078859	0.098078	0.388686
	H114	H	0.898617	0.090905	0.620045
	H115	H	0.899261	0.905260	0.385227
	H116	H	0.611996	0.093277	0.912420
	H117	H	0.385470	0.087418	0.080834
	H118	H	0.611172	0.901141	0.088613
	H119	H	0.379572	0.905047	0.914622
	C120	C	0.372741	0.008121	0.626203
	C121	C	0.616245	0.991443	0.625283
	C122	C	0.616994	0.007524	0.381617
	C123	C	0.373484	0.991798	0.382403
	C124	C	0.616087	0.378523	0.011124
	C125	C	0.617203	0.621957	0.994887
	C126	C	0.373852	0.621340	0.011259
	C127	C	0.373192	0.377751	0.994805
	C128	C	0.003586	0.622433	0.382361
	C129	C	0.986680	0.622076	0.625472
	C130	C	0.003458	0.378840	0.624512
	C131	C	0.987125	0.379112	0.382208
	C132	C	0.872716	0.508171	0.125758
	C133	C	0.117146	0.492095	0.125082
	C134	C	0.117074	0.508449	0.881245
	C135	C	0.873813	0.491684	0.881746
	C136	C	0.116696	0.878373	0.512409
	C137	C	0.116638	0.121848	0.495875
	C138	C	0.872943	0.122272	0.511947
	C139	C	0.873794	0.878933	0.495396
	C140	C	0.502888	0.120176	0.883530
	C141	C	0.486399	0.121970	0.126163
	C142	C	0.503148	0.878276	0.124608
	C143	C	0.486304	0.877432	0.881668
	C144	C	0.375265	0.884988	0.680311
	C145	C	0.614074	0.113760	0.681808
	C146	C	0.615368	0.885076	0.325572
	C147	C	0.376009	0.114572	0.327692
	C148	C	0.671704	0.379632	0.888148
	C149	C	0.672131	0.619534	0.117910
	C150	C	0.319520	0.617829	0.887901
	C151	C	0.317465	0.381180	0.117871
	C152	C	0.880750	0.678089	0.384385
	C153	C	0.109681	0.677758	0.623204
	C154	C	0.880301	0.323542	0.623331
	C155	C	0.109857	0.323321	0.383425
	C156	C	0.880000	0.381737	0.679970
	C157	C	0.110101	0.619161	0.679883
	C158	C	0.880660	0.620494	0.326972
	C159	C	0.110271	0.381743	0.326607
	C160	C	0.376484	0.675675	0.887983
	C161	C	0.615093	0.678073	0.117484
	C162	C	0.615141	0.321012	0.889108
	C163	C	0.373953	0.322684	0.117649
	C164	C	0.672774	0.885153	0.383485
	C165	C	0.671337	0.114152	0.623349
	C166	C	0.317647	0.885385	0.622812
	C167	C	0.319215	0.115027	0.386267
	C168	C	0.875246	0.385573	0.180839
	C169	C	0.113886	0.615159	0.179614
	C170	C	0.114045	0.385566	0.826108
	C171	C	0.876249	0.614646	0.827225
	C172	C	0.172286	0.880505	0.389500
	C173	C	0.171481	0.119734	0.618805
	C174	C	0.818080	0.119741	0.388731
	C175	C	0.817666	0.881551	0.617962
	C176	C	0.380013	0.175868	0.885303
	C177	C	0.609357	0.178530	0.124686
	C178	C	0.379916	0.823460	0.122292
	C179	C	0.609259	0.822070	0.882464
	C180	C	0.379853	0.880877	0.180204
	C181	C	0.609867	0.119921	0.181276
	C182	C	0.379973	0.118187	0.827817
	C183	C	0.609188	0.879854	0.825640
	C184	C	0.875793	0.177304	0.388803
	C185	C	0.113843	0.177154	0.618804
	C186	C	0.115076	0.822621	0.389646
	C187	C	0.874568	0.823432	0.617903
	C188	C	0.171512	0.385445	0.883954
	C189	C	0.171699	0.615093	0.121952
	C190	C	0.817282	0.385290	0.123178
	C191	C	0.819167	0.614517	0.885269
	C192	C	0.395085	0.093556	0.604515
	C193	C	0.593999	0.906023	0.602500
	C194	C	0.594135	0.093084	0.404237
	C195	C	0.395694	0.906360	0.403754
	C196	C	0.592862	0.401973	0.096549
	C197	C	0.594932	0.599346	0.909017
	C198	C	0.395970	0.599781	0.096981
	C199	C	0.395477	0.399141	0.908717
	C200	C	0.089355	0.599971	0.404721
	C201	C	0.900982	0.599758	0.603304
	C202	C	0.089526	0.400661	0.602128
	C203	C	0.900914	0.401184	0.404791
	C204	C	0.895160	0.593219	0.103290
	C205	C	0.094876	0.406328	0.102894
	C206	C	0.095300	0.594228	0.903510
	C207	C	0.895881	0.405985	0.903149
	C208	C	0.093748	0.901211	0.598397
	C209	C	0.094952	0.099415	0.409883
	C210	C	0.895131	0.100273	0.597481
	C211	C	0.896958	0.901246	0.409781
	C212	C	0.588650	0.097468	0.905830
	C213	C	0.400858	0.099197	0.103647
	C214	C	0.589012	0.900692	0.102244
	C215	C	0.400296	0.899515	0.904560
	Zn216	Zn	0.494390	-0.000725	0.754342
	Zn217	Zn	0.495127	-0.000357	0.253500
	Zn218	Zn	0.744948	0.499135	0.002777
	Zn219	Zn	0.245879	0.500032	0.003111
	Zn220	Zn	-0.005170	0.750268	0.504099
	Zn221	Zn	-0.005194	0.250179	0.503880
	Zn222	Zn	-0.004970	0.500177	0.753394
	Zn223	Zn	-0.004914	0.500471	0.254144
	Zn224	Zn	0.494855	0.749872	0.002943
	Zn225	Zn	0.494755	0.249465	0.004078
	Zn226	Zn	0.744961	-0.000071	0.503210
	Zn227	Zn	0.245021	-0.000097	0.504392
	N228	N	0.408873	0.962270	0.682580
	N229	N	0.580539	0.036510	0.683062
	N230	N	0.581520	0.962324	0.323958
	N231	N	0.408975	0.037004	0.324921
	N232	N	0.672302	0.414725	0.965215
	N233	N	0.673444	0.585401	0.040588
	N234	N	0.317691	0.584706	0.965383
	N235	N	0.316838	0.414645	0.040278
	N236	N	0.958114	0.679358	0.418212
	N237	N	0.031977	0.679437	0.589890
	N238	N	0.957843	0.321863	0.589479
	N239	N	0.032137	0.321584	0.417361
	N240	N	0.957676	0.415593	0.680963
	N241	N	0.032695	0.585157	0.681428
	N242	N	0.958238	0.586737	0.325404
	N243	N	0.032781	0.415589	0.325708
	N244	N	0.409861	0.677607	0.965567
	N245	N	0.581702	0.679679	0.039992
	N246	N	0.581372	0.320160	0.966586
	N247	N	0.407953	0.320771	0.040312
	N248	N	0.673619	0.962324	0.417546
	N249	N	0.672871	0.037159	0.588867
	N250	N	0.316094	0.962825	0.589888
	N251	N	0.317439	0.037687	0.419424
	N252	N	0.908758	0.462747	0.182864
	N253	N	0.080348	0.537721	0.181240
	N254	N	0.080957	0.463016	0.824276
	N255	N	0.909374	0.537177	0.824927
	N256	N	0.173312	0.914660	0.466995
	N257	N	0.173324	0.086056	0.541351
	N258	N	0.815940	0.086233	0.466235
	N259	N	0.817208	0.915424	0.540697
	N260	N	0.457356	0.177180	0.919165
	N261	N	0.531687	0.179902	0.091227
	N262	N	0.457523	0.821780	0.088505
	N263	N	0.531706	0.820431	0.916599
	N264	N	0.457623	0.914152	0.181889
	N265	N	0.532567	0.085528	0.182480
	N266	N	0.457474	0.084132	0.826707
	N267	N	0.531688	0.913513	0.825005
	N268	N	0.909042	0.178972	0.466295
	N269	N	0.080576	0.178765	0.541233
	N270	N	0.081372	0.821364	0.467151
	N271	N	0.908906	0.821976	0.540689
	N272	N	0.173362	0.462820	0.917762
	N273	N	0.173772	0.537582	0.088662
	N274	N	0.815700	0.462405	0.089302
	N275	N	0.817415	0.537131	0.918246
	O276	O	0.499227	0.446189	0.419551
	H277	H	0.504679	0.434798	0.416988
	H278	H	0.492451	0.457863	0.428385
	O279	O	0.484556	0.459576	0.494062
	H280	H	0.496509	0.449296	0.488014
	H281	H	0.486533	0.458647	0.498568
	O282	O	0.561632	0.422904	0.431371
	H283	H	0.558512	0.419224	0.436132
	H284	H	0.555074	0.426700	0.429942
	O285	O	-0.049983	0.979220	1.004074
	H286	H	-0.044895	0.977508	1.005853
	H287	H	-0.054985	0.976452	0.998016
	O288	O	0.451988	0.517686	0.473308
	H289	H	0.452657	0.519469	0.473866
	H290	H	0.452088	0.517229	0.473277
	O291	O	-0.051244	0.003321	1.044352
	H292	H	-0.058720	0.004483	1.041487
	H293	H	-0.061446	0.004874	1.043547
	O294	O	0.476960	0.517328	0.559102
	H295	H	0.473538	0.518317	0.558280
	H296	H	0.475102	0.522114	0.569923
	O297	O	0.571004	0.463393	0.494425
	H298	H	0.569499	0.459661	0.488424
	H299	H	0.573833	0.472952	0.494500
	O300	O	0.559749	0.439081	0.458180
	H301	H	0.557262	0.432364	0.452624
	H302	H	0.576286	0.431736	0.448353
	O303	O	0.510491	0.517342	0.505788
	H304	H	0.519256	0.524408	0.489181
	H305	H	0.506669	0.512955	0.510454
	O306	O	1.013531	0.053302	0.956612
	H307	H	1.012166	0.044597	0.954640
	H308	H	1.021928	0.041409	0.945042
	O309	O	0.559268	0.504641	0.408635
	H310	H	0.553402	0.503534	0.407168
	H311	H	0.553751	0.515015	0.411988
	O312	O	0.464033	0.530475	0.469364
	H313	H	0.460296	0.532278	0.459880
	H314	H	0.470559	0.520398	0.469817
	O315	O	0.908579	0.001846	1.050917
	H316	H	0.904660	0.003680	1.044736
	H317	H	0.905524	0.000685	1.050161
	O318	O	-0.017690	0.045339	0.007320
	H319	H	-0.018223	0.040817	0.003160
	H320	H	-0.013792	0.054535	0.003463
	O321	O	0.500807	0.515275	0.523600
	H322	H	0.502753	0.521293	0.523250
	H323	H	0.491626	0.526854	0.520732
	O324	O	1.007588	-0.029932	0.009722
	H325	H	0.999525	-0.030120	0.013420
	H326	H	1.004097	-0.023924	0.014328
	O327	O	0.964210	0.955654	0.008818
	H328	H	0.975762	0.958501	0.015083
	H329	H	0.965072	0.962633	0.022717
	O330	O	0.935784	0.982022	-0.044420
	H331	H	0.930579	0.976771	-0.047918
	H332	H	0.939858	0.978997	-0.027639
	O333	O	0.470470	0.553086	0.433907
	H334	H	0.466889	0.549253	0.429243
	H335	H	0.479944	0.546468	0.431680
