data_Molecule from HDF5

_cell_length_a		16.331007
_cell_length_b		16.273889
_cell_length_c		16.285768
_cell_angle_alpha	90.356625
_cell_angle_beta	90.529742
_cell_angle_gamma	90.071101
_symmetry_space_group_name_H-M	'P 1'
_symmetry_Int_Tables_number		1

loop_
	_symmetry_equiv_pos_as_xyz
	x,y,z

loop_
	_atom_site_label
	_atom_site_type_symbol
	_atom_site_fract_x
	_atom_site_fract_y
	_atom_site_fract_z
	H0	H	0.404582	0.831687	0.709218
	H1	H	0.602761	0.159362	0.712257
	H2	H	0.605991	0.833770	0.279020
	H3	H	0.401793	0.158854	0.279644
	H4	H	0.719345	0.392300	0.831820
	H5	H	0.725338	0.596646	0.157305
	H6	H	0.287539	0.592837	0.834103
	H7	H	0.288906	0.391355	0.157842
	H8	H	0.843099	0.712716	0.392960
	H9	H	0.166597	0.713712	0.599386
	H10	H	0.842494	0.280811	0.593377
	H11	H	0.166961	0.278231	0.396276
	H12	H	0.841363	0.398431	0.707008
	H13	H	0.166621	0.597796	0.715714
	H14	H	0.844054	0.598245	0.275702
	H15	H	0.167521	0.393023	0.280484
	H16	H	0.404607	0.707102	0.833236
	H17	H	0.611069	0.713053	0.157492
	H18	H	0.602052	0.277496	0.832702
	H19	H	0.404953	0.278225	0.158278
	H20	H	0.722588	0.834194	0.394952
	H21	H	0.721405	0.159357	0.600646
	H22	H	0.287556	0.833032	0.596338
	H23	H	0.286933	0.158266	0.396224
	H24	H	0.905019	0.333418	0.212031
	H25	H	0.108757	0.657476	0.215215
	H26	H	0.103108	0.332259	0.779904
	H27	H	0.904534	0.659400	0.781772
	H28	H	0.219905	0.891884	0.334726
	H29	H	0.221637	0.096863	0.659208
	H30	H	0.785569	0.097726	0.335907
	H31	H	0.791377	0.897153	0.660713
	H32	H	0.342361	0.209090	0.895123
	H33	H	0.667483	0.212434	0.099544
	H34	H	0.343867	0.776076	0.094322
	H35	H	0.667918	0.777456	0.895326
	H36	H	0.343291	0.892464	0.211880
	H37	H	0.666015	0.098078	0.216893
	H38	H	0.341957	0.092326	0.780639
	H39	H	0.667607	0.894385	0.779626
	H40	H	0.903007	0.210276	0.333288
	H41	H	0.105520	0.211777	0.658920
	H42	H	0.103478	0.778236	0.334549
	H43	H	0.905504	0.780921	0.659389
	H44	H	0.218211	0.330830	0.897909
	H45	H	0.224585	0.656212	0.099775
	H46	H	0.790505	0.332493	0.094808
	H47	H	0.787629	0.657119	0.894807
	H48	H	0.407976	0.113910	0.592199
	H49	H	0.595219	0.883389	0.579506
	H50	H	0.589647	0.112236	0.401013
	H51	H	0.418069	0.883848	0.409804
	H52	H	0.590276	0.409287	0.106518
	H53	H	0.599042	0.583865	0.880129
	H54	H	0.425958	0.578451	0.106795
	H55	H	0.403353	0.399974	0.877099
	H56	H	0.118150	0.586835	0.411831
	H57	H	0.891619	0.586851	0.580048
	H58	H	0.120925	0.409264	0.592664
	H59	H	0.888043	0.401509	0.399933
	H60	H	0.123237	0.399615	0.592678
	H61	H	0.888662	0.582505	0.595037
	H62	H	0.119815	0.583488	0.405159
	H63	H	0.891098	0.402105	0.408111
	H64	H	0.417997	0.598222	0.115466
	H65	H	0.594432	0.584030	0.881242
	H66	H	0.598667	0.394634	0.113331
	H67	H	0.413557	0.408296	0.882773
	H68	H	0.590944	0.107361	0.415180
	H69	H	0.606976	0.877174	0.588785
	H70	H	0.417008	0.110968	0.592046
	H71	H	0.403149	0.878748	0.406357
	H72	H	0.920879	0.612086	0.096484
	H73	H	0.099335	0.377674	0.090562
	H74	H	0.089726	0.610659	0.900606
	H75	H	0.916523	0.377050	0.890429
	H76	H	0.099537	0.904999	0.613053
	H77	H	0.096414	0.081441	0.381172
	H78	H	0.916436	0.091594	0.613100
	H79	H	0.912798	0.909810	0.383779
	H80	H	0.620357	0.090027	0.910374
	H81	H	0.390532	0.086406	0.085757
	H82	H	0.616816	0.907518	0.082248
	H83	H	0.388100	0.899373	0.898178
	H84	H	0.621556	0.908256	0.093869
	H85	H	0.389681	0.087049	0.087392
	H86	H	0.618176	0.081391	0.906367
	H87	H	0.389992	0.897555	0.904733
	H88	H	0.910808	0.091692	0.614279
	H89	H	0.090811	0.086607	0.381451
	H90	H	0.096733	0.908670	0.612335
	H91	H	0.915769	0.901417	0.381102
	H92	H	0.096105	0.607134	0.916018
	H93	H	0.093936	0.379319	0.089116
	H94	H	0.923013	0.606017	0.076844
	H95	H	0.917469	0.382850	0.909587
	H96	H	0.411585	0.110362	0.584477
	H97	H	0.592122	0.879545	0.594899
	H98	H	0.602868	0.113561	0.408636
	H99	H	0.414348	0.878447	0.394932
	H100	H	0.607885	0.410243	0.111942
	H101	H	0.596014	0.587581	0.879194
	H102	H	0.405069	0.579508	0.113574
	H103	H	0.416208	0.394793	0.879765
	H104	H	0.121091	0.590130	0.405854
	H105	H	0.886532	0.597217	0.589873
	H106	H	0.119161	0.403488	0.583960
	H107	H	0.891501	0.408558	0.402457
	H108	H	0.905469	0.613661	0.083366
	H109	H	0.097768	0.379443	0.085234
	H110	H	0.106490	0.614563	0.903691
	H111	H	0.900307	0.375444	0.901614
	H112	H	0.095184	0.904135	0.612388
	H113	H	0.097690	0.088417	0.378965
	H114	H	0.913138	0.087651	0.612763
	H115	H	0.907540	0.903817	0.380341
	H116	H	0.622482	0.087943	0.900926
	H117	H	0.388198	0.087613	0.086184
	H118	H	0.622162	0.897932	0.087335
	H119	H	0.390524	0.904519	0.902509
	C120	C	0.382983	0.003722	0.617645
	C121	C	0.627394	0.987541	0.618840
	C122	C	0.625369	0.004299	0.376939
	C123	C	0.381933	0.987345	0.373961
	C124	C	0.627258	0.373246	0.003320
	C125	C	0.628230	0.615994	0.986915
	C126	C	0.385208	0.614807	0.004790
	C127	C	0.383179	0.372270	0.987548
	C128	C	0.013050	0.617001	0.375932
	C129	C	0.996275	0.618498	0.618844
	C130	C	0.013554	0.374903	0.617364
	C131	C	0.996907	0.373734	0.374323
	C132	C	0.885420	0.503671	0.116098
	C133	C	0.127990	0.486021	0.119340
	C134	C	0.125844	0.503408	0.876116
	C135	C	0.882315	0.486374	0.872444
	C136	C	0.126317	0.873986	0.505471
	C137	C	0.125787	0.116656	0.487944
	C138	C	0.883035	0.118527	0.505830
	C139	C	0.883189	0.875372	0.488792
	C140	C	0.513242	0.115536	0.875433
	C141	C	0.496298	0.117657	0.118297
	C142	C	0.513696	0.873234	0.117021
	C143	C	0.496874	0.871718	0.872888
	C144	C	0.384813	0.880855	0.672167
	C145	C	0.624516	0.110266	0.675427
	C146	C	0.625287	0.882195	0.318599
	C147	C	0.382360	0.109700	0.317752
	C148	C	0.681992	0.373017	0.881010
	C149	C	0.686721	0.616244	0.108674
	C150	C	0.326556	0.612961	0.882777
	C151	C	0.327251	0.372622	0.109457
	C152	C	0.891733	0.674317	0.373947
	C153	C	0.118017	0.675538	0.619039
	C154	C	0.891055	0.319163	0.613829
	C155	C	0.118681	0.316539	0.376015
	C156	C	0.890442	0.377577	0.670438
	C157	C	0.118117	0.617906	0.676802
	C158	C	0.892104	0.616901	0.315960
	C159	C	0.118825	0.373934	0.318557
	C160	C	0.384845	0.669965	0.882152
	C161	C	0.629828	0.674212	0.108831
	C162	C	0.623688	0.315845	0.881223
	C163	C	0.385184	0.316201	0.109617
	C164	C	0.683070	0.882336	0.376546
	C165	C	0.683132	0.110403	0.619496
	C166	C	0.326647	0.881323	0.615676
	C167	C	0.324927	0.109525	0.375575
	C168	C	0.885855	0.381733	0.173039
	C169	C	0.128259	0.608452	0.176903
	C170	C	0.123541	0.380809	0.818754
	C171	C	0.884158	0.609897	0.818541
	C172	C	0.181912	0.872989	0.383427
	C173	C	0.183129	0.116306	0.610401
	C174	C	0.824784	0.117339	0.383884
	C175	C	0.828667	0.877159	0.611524
	C176	C	0.390759	0.170648	0.876121
	C177	C	0.618366	0.174311	0.118828
	C178	C	0.392198	0.814987	0.114975
	C179	C	0.619481	0.815876	0.875345
	C180	C	0.391895	0.873207	0.173198
	C181	C	0.617810	0.117505	0.177307
	C182	C	0.390648	0.112794	0.818962
	C183	C	0.619169	0.874010	0.817849
	C184	C	0.883458	0.173143	0.382748
	C185	C	0.125636	0.173812	0.610091
	C186	C	0.123744	0.816311	0.383485
	C187	C	0.885758	0.819506	0.611087
	C188	C	0.180714	0.379918	0.877354
	C189	C	0.185797	0.607955	0.119330
	C190	C	0.828805	0.381485	0.114931
	C191	C	0.826130	0.608935	0.874714
	C192	C	0.405524	0.089546	0.595858
	C193	C	0.604972	0.901959	0.594851
	C194	C	0.601360	0.089093	0.401201
	C195	C	0.405038	0.902337	0.396889
	C196	C	0.605383	0.397744	0.088642
	C197	C	0.603617	0.592050	0.902021
	C198	C	0.409412	0.592192	0.089913
	C199	C	0.404915	0.394464	0.901898
	C200	C	0.097834	0.593677	0.400553
	C201	C	0.910975	0.595596	0.595199
	C202	C	0.098962	0.397549	0.596072
	C203	C	0.912205	0.397200	0.396853
	C204	C	0.909394	0.588591	0.092454
	C205	C	0.103961	0.400955	0.095288
	C206	C	0.103817	0.588683	0.899706
	C207	C	0.904868	0.400683	0.894138
	C208	C	0.103571	0.898599	0.590606
	C209	C	0.101914	0.092526	0.402725
	C210	C	0.906654	0.096696	0.591212
	C211	C	0.905343	0.898213	0.403900
	C212	C	0.598291	0.093012	0.899102
	C213	C	0.411256	0.093924	0.093838
	C214	C	0.598371	0.897554	0.094325
	C215	C	0.411781	0.893825	0.895343
	Zn216	Zn	0.505252	-0.005440	0.745688
	Zn217	Zn	0.504548	-0.004189	0.246670
	Zn218	Zn	0.756357	0.494636	-0.005506
	Zn219	Zn	0.255572	0.493629	-0.003000
	Zn220	Zn	0.003741	0.746507	0.496845
	Zn221	Zn	0.005073	0.245630	0.496089
	Zn222	Zn	0.004374	0.496042	0.746677
	Zn223	Zn	0.005877	0.495450	0.246508
	Zn224	Zn	0.506519	0.743555	-0.004437
	Zn225	Zn	0.505054	0.245034	-0.003697
	Zn226	Zn	0.755106	-0.002935	0.498080
	Zn227	Zn	0.254235	-0.004414	0.496407
	N228	N	0.419294	0.958051	0.673527
	N229	N	0.590662	0.032708	0.675273
	N230	N	0.590066	0.958898	0.318889
	N231	N	0.417095	0.032812	0.316471
	N232	N	0.684320	0.407824	0.958129
	N233	N	0.685756	0.580774	0.032005
	N234	N	0.326518	0.579465	0.960179
	N235	N	0.325878	0.406898	0.032462
	N236	N	0.967698	0.674184	0.410893
	N237	N	0.041153	0.675948	0.583750
	N238	N	0.968610	0.317257	0.581710
	N239	N	0.041760	0.316051	0.409864
	N240	N	0.967643	0.411710	0.672936
	N241	N	0.041245	0.583283	0.676922
	N242	N	0.968668	0.581789	0.317255
	N243	N	0.042270	0.408672	0.317191
	N244	N	0.420653	0.671143	0.958840
	N245	N	0.593786	0.674057	0.032086
	N246	N	0.590405	0.315894	0.958465
	N247	N	0.419345	0.316103	0.032849
	N248	N	0.683502	0.959326	0.411905
	N249	N	0.685175	0.033022	0.585169
	N250	N	0.325548	0.958676	0.582481
	N251	N	0.324351	0.032486	0.409766
	N252	N	0.920590	0.458777	0.173598
	N253	N	0.093243	0.531617	0.177236
	N254	N	0.090083	0.458290	0.818029
	N255	N	0.918435	0.532762	0.817028
	N256	N	0.183722	0.908133	0.460433
	N257	N	0.183230	0.081377	0.533261
	N258	N	0.824345	0.084212	0.461278
	N259	N	0.827149	0.911477	0.534545
	N260	N	0.468029	0.172651	0.910441
	N261	N	0.541757	0.174315	0.082830
	N262	N	0.469056	0.814900	0.081135
	N263	N	0.542339	0.814066	0.908782
	N264	N	0.468476	0.908714	0.174589
	N265	N	0.540911	0.082803	0.176964
	N266	N	0.467801	0.079091	0.818403
	N267	N	0.542208	0.907825	0.816232
	N268	N	0.919160	0.174004	0.459582
	N269	N	0.090798	0.174124	0.532910
	N270	N	0.090007	0.816925	0.460538
	N271	N	0.918996	0.818188	0.533880
	N272	N	0.182259	0.457115	0.912480
	N273	N	0.185854	0.530821	0.084379
	N274	N	0.828527	0.458262	0.080100
	N275	N	0.824912	0.531286	0.907500
	O276	O	0.964218	-0.100024	1.085662
	H277	H	0.954453	-0.112846	1.101831
	H278	H	0.959341	-0.093395	1.079692
	O279	O	0.565114	0.545521	0.414808
	H280	H	0.567535	0.545344	0.405920
	H281	H	0.561702	0.542293	0.409485
	O282	O	0.533012	0.450968	0.361910
	H283	H	0.532796	0.459912	0.364584
	H284	H	0.529219	0.446408	0.360708
	O285	O	0.503774	0.659048	0.550051
	H286	H	0.502610	0.678237	0.562277
	H287	H	0.516539	0.649813	0.557095
	O288	O	0.342630	0.578108	0.526741
	H289	H	0.352100	0.583182	0.535457
	H290	H	0.341151	0.582464	0.533945
	O291	O	0.046510	-0.079769	0.948299
	H292	H	0.045046	-0.088846	0.953587
	H293	H	0.043822	-0.074942	0.936519
	O294	O	1.001212	1.001631	-0.033277
	H295	H	1.004041	1.000725	-0.046122
	H296	H	0.990557	0.999843	-0.023482
	O297	O	1.120230	0.898410	-0.074237
	H298	H	1.126449	0.903472	-0.071094
	H299	H	1.109329	0.904476	-0.063423
	O300	O	0.538218	0.559814	0.457460
	H301	H	0.538385	0.556976	0.457545
	H302	H	0.526727	0.565432	0.458981
	O303	O	0.605958	0.603736	0.539654
	H304	H	0.610428	0.606278	0.534952
	H305	H	0.603775	0.599716	0.544611
	O306	O	0.026192	1.034874	0.988417
	H307	H	0.029592	1.036952	0.993275
	H308	H	0.017503	1.043789	0.979507
	O309	O	0.553666	0.471514	0.523178
	H310	H	0.550281	0.478888	0.519543
	H311	H	0.551883	0.474738	0.523027
	O312	O	0.998384	1.007156	1.047304
	H313	H	1.001691	1.006874	1.038660
	H314	H	0.981406	1.006457	1.042869
	O315	O	0.962237	0.887139	0.129254
	H316	H	0.956231	0.889388	0.128448
	H317	H	0.951301	0.893128	0.130944
	O318	O	0.905234	0.111836	1.043009
	H319	H	0.910584	0.120132	1.052428
	H320	H	0.908007	0.108318	1.043049
	O321	O	0.544766	0.539503	0.574759
	H322	H	0.558415	0.529640	0.569908
	H323	H	0.559854	0.540081	0.566179
	O324	O	-0.121460	1.035243	0.943907
	H325	H	-0.124654	1.045966	0.943714
	H326	H	-0.113336	1.027626	0.954364
	O327	O	0.003916	1.164516	1.109522
	H328	H	0.018581	1.161700	1.116868
	H329	H	0.001528	1.171106	1.110599
	O330	O	-0.569490	-0.496858	-0.609017
	H331	H	-0.575302	-0.502488	-0.605156
	H332	H	-0.579062	-0.478460	-0.624776
	O333	O	0.475960	0.387796	0.540816
	H334	H	0.474022	0.386124	0.540724
	H335	H	0.471247	0.378003	0.542635
	O336	O	0.034063	-0.126297	-0.105346
	H337	H	0.045518	-0.129864	-0.118255
	H338	H	0.037102	-0.125097	-0.096463
	O339	O	0.064714	-0.005122	-0.072635
	H340	H	0.058303	-0.010843	-0.070883
	H341	H	0.074659	-0.012053	-0.069423
	O342	O	0.515922	0.442479	0.575990
	H343	H	0.516603	0.434867	0.579794
	H344	H	0.511571	0.443995	0.573447
	O345	O	-0.041833	0.962655	0.967511
	H346	H	-0.049385	0.964332	0.963692
	H347	H	-0.034313	0.966311	0.964067
	O348	O	0.522988	0.556366	0.488058
	H349	H	0.541195	0.549374	0.498776
	H350	H	0.505528	0.557426	0.487839
	O351	O	0.559522	0.482554	0.348276
	H352	H	0.565429	0.486427	0.370291
	H353	H	0.550304	0.479685	0.352096
	O354	O	-0.473404	1.494118	0.551358
	H355	H	-0.479891	1.498217	0.536613
	H356	H	-0.470791	1.491666	0.550657
	O357	O	0.390649	0.532820	0.473874
	H358	H	0.397582	0.548554	0.491631
	H359	H	0.387814	0.543789	0.468608
	O360	O	0.953802	0.155533	1.054382
	H361	H	0.944560	0.159232	1.057956
	H362	H	0.958858	0.152777	1.054260
	O363	O	0.467406	0.556929	0.476925
	H364	H	0.470320	0.550476	0.482022
	H365	H	0.472929	0.558338	0.480041
	O366	O	0.473551	0.433409	0.466725
	H367	H	0.461429	0.445041	0.465022
	H368	H	0.465331	0.429868	0.465292
	O369	O	1.091385	0.011199	0.108045
	H370	H	1.089190	0.023333	0.100425
	H371	H	1.091339	0.006459	0.117011
	O372	O	0.628110	0.468551	0.539459
	H373	H	0.634480	0.463057	0.521254
	H374	H	0.629698	0.470011	0.524920
	O375	O	0.996716	-0.069810	0.866634
	H376	H	1.008794	-0.070358	0.857235
	H377	H	0.998847	-0.056536	0.857713
	O378	O	0.085234	0.958599	0.026809
	H379	H	0.094372	0.956314	0.031227
	H380	H	0.090058	0.966841	0.034490
	O381	O	0.032751	1.047440	0.894617
	H382	H	0.035531	1.042258	0.885464
	H383	H	0.033693	1.030275	0.902332
	O384	O	0.578020	1.411371	-0.605044
	H385	H	0.569813	1.412424	-0.602871
	H386	H	0.583669	1.416481	-0.613862
	O387	O	0.931326	0.027398	1.082351
	H388	H	0.920593	0.032347	1.076462
	H389	H	0.927677	0.031767	1.070819
	O390	O	1.085746	0.964584	-0.013309
	H391	H	1.086313	0.969856	-0.024746
	H392	H	1.086588	0.962615	-0.005083
	O393	O	0.499506	0.546530	0.407434
	H394	H	0.490737	0.558267	0.402341
	H395	H	0.498018	0.547049	0.403772
