data_Molecule from HDF5

_cell_length_a		16.559769
_cell_length_b		16.424180
_cell_length_c		16.383665
_cell_angle_alpha	90.020122
_cell_angle_beta	90.118583
_cell_angle_gamma	90.005044
_symmetry_space_group_name_H-M	'P 1'
_symmetry_Int_Tables_number		1

loop_
	_symmetry_equiv_pos_as_xyz
	x,y,z

loop_
	_atom_site_label
	_atom_site_type_symbol
	_atom_site_fract_x
	_atom_site_fract_y
	_atom_site_fract_z
	H0	H	0.393478	0.845327	0.729362
	H1	H	0.607346	0.159021	0.727573
	H2	H	0.605773	0.842781	0.283308
	H3	H	0.395861	0.158423	0.282556
	H4	H	0.726750	0.391309	0.848870
	H5	H	0.723610	0.610301	0.161543
	H6	H	0.271341	0.613857	0.849256
	H7	H	0.277048	0.391284	0.160893
	H8	H	0.843315	0.724568	0.398203
	H9	H	0.153661	0.730278	0.617655
	H10	H	0.845528	0.274518	0.616541
	H11	H	0.156062	0.277648	0.397999
	H12	H	0.844708	0.391631	0.731527
	H13	H	0.152846	0.615305	0.735159
	H14	H	0.844723	0.610573	0.279754
	H15	H	0.157377	0.395828	0.283342
	H16	H	0.389399	0.727027	0.847690
	H17	H	0.609287	0.726477	0.160624
	H18	H	0.608569	0.278544	0.846264
	H19	H	0.397391	0.279571	0.162652
	H20	H	0.723092	0.843979	0.397540
	H21	H	0.728324	0.156291	0.618556
	H22	H	0.274655	0.845420	0.616824
	H23	H	0.277565	0.158453	0.396696
	H24	H	0.897829	0.341930	0.224342
	H25	H	0.108644	0.658931	0.229023
	H26	H	0.110058	0.346074	0.777916
	H27	H	0.890256	0.657923	0.779721
	H28	H	0.222290	0.894112	0.347078
	H29	H	0.228389	0.114094	0.660920
	H30	H	0.776590	0.110360	0.347921
	H31	H	0.775056	0.891163	0.661511
	H32	H	0.346384	0.228207	0.893719
	H33	H	0.656478	0.224653	0.112624
	H34	H	0.344823	0.775297	0.113441
	H35	H	0.653339	0.771691	0.890475
	H36	H	0.344615	0.892735	0.228403
	H37	H	0.656440	0.107783	0.228290
	H38	H	0.345051	0.110535	0.778921
	H39	H	0.655261	0.890316	0.777231
	H40	H	0.895437	0.222921	0.346995
	H41	H	0.108975	0.226322	0.662459
	H42	H	0.104050	0.781181	0.346295
	H43	H	0.891368	0.777044	0.661991
	H44	H	0.225867	0.345861	0.893764
	H45	H	0.228604	0.656856	0.118036
	H46	H	0.776481	0.345103	0.115290
	H47	H	0.773196	0.656897	0.893699
	H48	H	0.421493	0.109513	0.588582
	H49	H	0.588719	0.889030	0.590266
	H50	H	0.589336	0.115119	0.415738
	H51	H	0.413203	0.888512	0.417966
	H52	H	0.584493	0.409230	0.117225
	H53	H	0.587729	0.583252	0.892618
	H54	H	0.415070	0.589703	0.116223
	H55	H	0.411414	0.418001	0.892361
	H56	H	0.112068	0.594137	0.421061
	H57	H	0.889932	0.588313	0.590725
	H58	H	0.107203	0.419034	0.587812
	H59	H	0.888313	0.415833	0.413566
	H60	H	0.110895	0.417700	0.595490
	H61	H	0.889792	0.587687	0.591036
	H62	H	0.111046	0.586847	0.417246
	H63	H	0.887138	0.409761	0.414641
	H64	H	0.411755	0.584951	0.115590
	H65	H	0.584257	0.585156	0.894097
	H66	H	0.594864	0.410133	0.120341
	H67	H	0.415571	0.414190	0.891987
	H68	H	0.586810	0.113516	0.417529
	H69	H	0.587878	0.890018	0.589858
	H70	H	0.407146	0.111971	0.584195
	H71	H	0.409637	0.888407	0.419775
	H72	H	0.907174	0.615195	0.088459
	H73	H	0.087674	0.390865	0.089486
	H74	H	0.083061	0.611815	0.919954
	H75	H	0.910303	0.387075	0.913915
	H76	H	0.088560	0.920133	0.616510
	H77	H	0.085674	0.087144	0.394490
	H78	H	0.915772	0.086758	0.616323
	H79	H	0.913809	0.915623	0.393563
	H80	H	0.610032	0.086326	0.920780
	H81	H	0.388758	0.090043	0.090607
	H82	H	0.613200	0.912843	0.095973
	H83	H	0.389464	0.916931	0.915696
	H84	H	0.612698	0.910371	0.089925
	H85	H	0.388617	0.088311	0.092619
	H86	H	0.612725	0.086671	0.912662
	H87	H	0.390016	0.912923	0.920040
	H88	H	0.913258	0.090656	0.618428
	H89	H	0.088029	0.091948	0.391529
	H90	H	0.084174	0.914866	0.616299
	H91	H	0.911823	0.913020	0.391222
	H92	H	0.085143	0.610755	0.924975
	H93	H	0.092668	0.388499	0.093147
	H94	H	0.911009	0.616771	0.098359
	H95	H	0.921294	0.393156	0.919504
	H96	H	0.412095	0.117633	0.597707
	H97	H	0.588173	0.889623	0.589275
	H98	H	0.589900	0.113247	0.418680
	H99	H	0.410063	0.887600	0.415894
	H100	H	0.589350	0.418796	0.116010
	H101	H	0.586923	0.587234	0.891577
	H102	H	0.417529	0.585070	0.113550
	H103	H	0.410463	0.413044	0.890690
	H104	H	0.114491	0.593111	0.413346
	H105	H	0.889043	0.588282	0.590816
	H106	H	0.111230	0.411442	0.589254
	H107	H	0.889535	0.412989	0.418624
	H108	H	0.916974	0.611923	0.090937
	H109	H	0.087209	0.388751	0.096095
	H110	H	0.088364	0.613093	0.920387
	H111	H	0.909930	0.391110	0.926501
	H112	H	0.090603	0.913968	0.618737
	H113	H	0.091414	0.086894	0.393171
	H114	H	0.911381	0.085768	0.617951
	H115	H	0.910141	0.916317	0.393111
	H116	H	0.613547	0.093479	0.917648
	H117	H	0.388197	0.091164	0.092787
	H118	H	0.609892	0.916021	0.091183
	H119	H	0.393159	0.917858	0.920318
	C120	C	0.379412	0.009889	0.625637
	C121	C	0.622650	0.992872	0.625840
	C122	C	0.621859	0.009801	0.383695
	C123	C	0.378641	0.992316	0.383724
	C124	C	0.623223	0.379081	0.013557
	C125	C	0.620921	0.621219	0.995870
	C126	C	0.379210	0.622138	0.012194
	C127	C	0.379742	0.380534	0.995862
	C128	C	0.008855	0.624015	0.383353
	C129	C	0.991351	0.624046	0.627163
	C130	C	0.007631	0.380852	0.625729
	C131	C	0.991961	0.380019	0.383454
	C132	C	0.879356	0.510143	0.126256
	C133	C	0.123217	0.492974	0.127324
	C134	C	0.120965	0.509953	0.884406
	C135	C	0.878684	0.493053	0.884296
	C136	C	0.121269	0.881338	0.513600
	C137	C	0.122561	0.123216	0.496629
	C138	C	0.879595	0.122207	0.513826
	C139	C	0.878667	0.880539	0.496551
	C140	C	0.509462	0.123660	0.882261
	C141	C	0.491936	0.122473	0.125364
	C142	C	0.509023	0.878667	0.126239
	C143	C	0.491964	0.879697	0.882268
	C144	C	0.375466	0.892346	0.688596
	C145	C	0.626108	0.110953	0.687998
	C146	C	0.624405	0.890855	0.322812
	C147	C	0.376839	0.110946	0.322471
	C148	C	0.685800	0.374376	0.895787
	C149	C	0.683383	0.627471	0.114004
	C150	C	0.314259	0.629188	0.895475
	C151	C	0.318216	0.374896	0.113963
	C152	C	0.890892	0.684727	0.379908
	C153	C	0.107256	0.688623	0.634131
	C154	C	0.891722	0.316450	0.632178
	C155	C	0.109517	0.318691	0.380227
	C156	C	0.891468	0.375020	0.689760
	C157	C	0.106617	0.631306	0.692832
	C158	C	0.891510	0.627567	0.321035
	C159	C	0.110278	0.377644	0.323276
	C160	C	0.372911	0.685955	0.894703
	C161	C	0.625928	0.685107	0.113252
	C162	C	0.626639	0.318275	0.894433
	C163	C	0.378174	0.319334	0.114784
	C164	C	0.682840	0.891311	0.380097
	C165	C	0.686368	0.109754	0.633219
	C166	C	0.316328	0.892536	0.632262
	C167	C	0.318074	0.111061	0.379341
	C168	C	0.878138	0.390623	0.186232
	C169	C	0.127038	0.611237	0.189088
	C170	C	0.126847	0.393113	0.819463
	C171	C	0.873615	0.610897	0.821183
	C172	C	0.182367	0.876856	0.394873
	C173	C	0.186038	0.129890	0.614269
	C174	C	0.817429	0.127353	0.395372
	C175	C	0.816297	0.874802	0.614575
	C176	C	0.392707	0.186731	0.876829
	C177	C	0.609559	0.184082	0.129584
	C178	C	0.391782	0.816464	0.130232
	C179	C	0.607391	0.814275	0.875055
	C180	C	0.391428	0.874838	0.187917
	C181	C	0.609525	0.125780	0.187213
	C182	C	0.392314	0.128138	0.819483
	C183	C	0.608327	0.873269	0.818336
	C184	C	0.876441	0.183646	0.394760
	C185	C	0.126970	0.186287	0.614891
	C186	C	0.123507	0.820386	0.394457
	C187	C	0.874624	0.817984	0.614795
	C188	C	0.184513	0.392792	0.877512
	C189	C	0.186637	0.610139	0.133313
	C190	C	0.818088	0.391899	0.131006
	C191	C	0.814992	0.610286	0.877827
	C192	C	0.405937	0.091642	0.598037
	C193	C	0.595955	0.910825	0.597949
	C194	C	0.596166	0.092397	0.409874
	C195	C	0.403802	0.909789	0.410156
	C196	C	0.597042	0.405223	0.096198
	C197	C	0.594151	0.593151	0.914253
	C198	C	0.406927	0.594409	0.093629
	C199	C	0.405132	0.407334	0.913164
	C200	C	0.090986	0.598679	0.409675
	C201	C	0.910656	0.596197	0.598895
	C202	C	0.088704	0.408336	0.598598
	C203	C	0.909874	0.405640	0.408433
	C204	C	0.904627	0.593048	0.100176
	C205	C	0.096847	0.410988	0.100404
	C206	C	0.093336	0.590800	0.913288
	C207	C	0.906082	0.411587	0.912196
	C208	C	0.095145	0.908459	0.595951
	C209	C	0.095961	0.096183	0.414505
	C210	C	0.905847	0.095626	0.595962
	C211	C	0.904540	0.907259	0.414298
	C212	C	0.590879	0.096493	0.909360
	C213	C	0.410034	0.097095	0.099357
	C214	C	0.590502	0.905331	0.099930
	C215	C	0.411780	0.907929	0.910426
	Zn216	Zn	0.501182	0.001767	0.753974
	Zn217	Zn	0.500309	0.000646	0.254956
	Zn218	Zn	0.750598	0.501310	0.005283
	Zn219	Zn	0.250400	0.501120	0.004735
	Zn220	Zn	0.000104	0.752854	0.505052
	Zn221	Zn	0.000661	0.250844	0.505258
	Zn222	Zn	-0.000541	0.501737	0.755672
	Zn223	Zn	0.001007	0.501905	0.254707
	Zn224	Zn	0.500167	0.750744	0.003643
	Zn225	Zn	0.501229	0.251817	0.003779
	Zn226	Zn	0.750718	0.001653	0.504870
	Zn227	Zn	0.250031	0.001764	0.504979
	N228	N	0.413828	0.966218	0.684666
	N229	N	0.587135	0.037156	0.683416
	N230	N	0.587213	0.965617	0.324972
	N231	N	0.413751	0.036102	0.325129
	N232	N	0.683689	0.411411	0.970977
	N233	N	0.680378	0.588303	0.040111
	N234	N	0.317780	0.590393	0.969743
	N235	N	0.319290	0.412289	0.039067
	N236	N	0.964903	0.682664	0.417731
	N237	N	0.034454	0.684384	0.593996
	N238	N	0.965051	0.319904	0.593280
	N239	N	0.035007	0.320023	0.416771
	N240	N	0.964534	0.414659	0.685778
	N241	N	0.033660	0.591835	0.688492
	N242	N	0.966014	0.590482	0.322883
	N243	N	0.036159	0.415304	0.325083
	N244	N	0.412396	0.681709	0.968362
	N245	N	0.587736	0.681499	0.038766
	N246	N	0.588657	0.320791	0.968931
	N247	N	0.415441	0.322506	0.039921
	N248	N	0.681563	0.966464	0.416979
	N249	N	0.684584	0.034917	0.595584
	N250	N	0.318559	0.966973	0.593703
	N251	N	0.318982	0.036134	0.416675
	N252	N	0.915530	0.465469	0.183439
	N253	N	0.088368	0.537500	0.185509
	N254	N	0.088150	0.467067	0.823568
	N255	N	0.912510	0.536976	0.825122
	N256	N	0.181229	0.913869	0.470286
	N257	N	0.183589	0.091656	0.539792
	N258	N	0.819043	0.090098	0.470542
	N259	N	0.818860	0.913315	0.540273
	N260	N	0.466561	0.183967	0.914996
	N261	N	0.535348	0.182380	0.091871
	N262	N	0.466020	0.818494	0.092892
	N263	N	0.534095	0.818031	0.914070
	N264	N	0.465385	0.912586	0.185786
	N265	N	0.535523	0.088132	0.184801
	N266	N	0.466021	0.089497	0.822959
	N267	N	0.535615	0.913310	0.822672
	N268	N	0.914167	0.180902	0.469427
	N269	N	0.087822	0.181836	0.540909
	N270	N	0.086511	0.822876	0.469274
	N271	N	0.912960	0.821635	0.540406
	N272	N	0.181184	0.466533	0.916903
	N273	N	0.184638	0.535260	0.095662
	N274	N	0.818461	0.467335	0.094790
	N275	N	0.817956	0.535906	0.916358
	O276	O	-0.130589	0.798743	0.104917
	H277	H	-0.148407	0.784815	0.116591
	H278	H	-0.123912	0.829525	0.084669
	O279	O	1.215085	0.153710	0.987015
	H280	H	1.207371	0.154132	1.026275
	H281	H	1.239191	0.163280	0.997142
	O282	O	0.580322	0.514709	0.511600
	H283	H	0.587599	0.504827	0.501650
	H284	H	0.580044	0.502750	0.529303
	O285	O	0.946792	0.784678	-0.052177
	H286	H	0.911719	0.780433	-0.032277
	H287	H	0.951375	0.798314	-0.043788
	O288	O	0.700268	0.639797	0.495344
	H289	H	0.709996	0.644426	0.485546
	H290	H	0.711388	0.621529	0.486598
	O291	O	0.653945	0.300665	0.527697
	H292	H	0.640481	0.308739	0.559666
	H293	H	0.682624	0.286530	0.525668
	O294	O	-0.133278	0.071097	1.065881
	H295	H	-0.150815	0.076800	1.053327
	H296	H	-0.125188	0.069894	1.085576
	O297	O	0.389367	0.364584	0.397281
	H298	H	0.389353	0.359324	0.370453
	H299	H	0.422654	0.364731	0.405270
	O300	O	0.284325	0.484652	0.721437
	H301	H	0.248814	0.476167	0.745282
	H302	H	0.271918	0.508686	0.688912
	O303	O	0.502882	0.455786	0.452214
	H304	H	0.507518	0.472650	0.446647
	H305	H	0.508227	0.452211	0.463718
	O306	O	0.681839	0.321888	0.322739
	H307	H	0.647143	0.312448	0.321368
	H308	H	0.687003	0.306729	0.368098
	O309	O	0.276882	0.723144	0.489034
	H310	H	0.259862	0.740987	0.463992
	H311	H	0.272655	0.730254	0.454034
	O312	O	-0.063338	0.949615	0.787025
	H313	H	-0.049992	0.916846	0.803683
	H314	H	-0.029121	0.976717	0.792459
	O315	O	0.389708	0.446069	0.394350
	H316	H	0.389083	0.445769	0.406530
	H317	H	0.385365	0.451008	0.393511
	O318	O	1.018704	0.117306	-0.088619
	H319	H	1.024049	0.141527	-0.077929
	H320	H	1.005930	0.114850	-0.106542
	O321	O	-0.127023	0.139937	0.063541
	H322	H	-0.148144	0.154108	0.062686
	H323	H	-0.139189	0.137652	0.087677
	O324	O	0.497427	0.361475	0.296330
	H325	H	0.495199	0.360097	0.283358
	H326	H	0.499189	0.381081	0.294042
	O327	O	0.476901	0.706568	0.298834
	H328	H	0.483354	0.724334	0.279025
	H329	H	0.504337	0.699222	0.308118
	O330	O	0.017680	0.792437	-0.208175
	H331	H	-0.008092	0.796725	-0.175903
	H332	H	0.016575	0.756821	-0.238281
	O333	O	0.283955	0.434507	0.424984
	H334	H	0.288535	0.425796	0.447840
	H335	H	0.286208	0.424791	0.431765
	O336	O	0.174759	-0.016715	0.130846
	H337	H	0.170299	-0.027303	0.117608
	H338	H	0.193787	-0.031656	0.138333
	O339	O	0.066728	1.060623	0.784827
	H340	H	0.071661	1.064999	0.786250
	H341	H	0.089350	1.064906	0.798960
	O342	O	0.016544	0.787798	1.147235
	H343	H	0.034601	0.781798	1.114584
	H344	H	0.024465	0.762518	1.159414
	O345	O	0.989079	1.150779	0.202524
	H346	H	1.012412	1.147056	0.208470
	H347	H	0.978995	1.136374	0.211740
	O348	O	0.554625	0.596174	0.479155
	H349	H	0.534921	0.592492	0.500538
	H350	H	0.569826	0.595896	0.480597
	O351	O	-0.215295	1.018619	0.790096
	H352	H	-0.177504	0.998233	0.774541
	H353	H	-0.232524	1.017702	0.749114
	O354	O	-0.183666	0.824417	0.186666
	H355	H	-0.175100	0.815047	0.150604
	H356	H	-0.147709	0.812249	0.189734
	O357	O	-0.181142	0.179964	0.831767
	H358	H	-0.192952	0.126749	0.818300
	H359	H	-0.127194	0.188293	0.819810
	O360	O	0.581455	0.707252	0.420509
	H361	H	0.581792	0.700628	0.423649
	H362	H	0.581410	0.697523	0.433863
	O363	O	0.016826	0.205308	0.873036
	H364	H	0.010572	0.208858	0.863666
	H365	H	0.034550	0.207134	0.905863
	O366	O	0.663344	0.385929	0.553506
	H367	H	0.653611	0.399495	0.557496
	H368	H	0.665576	0.391270	0.572074
	O369	O	0.444743	0.557640	0.730922
	H370	H	0.435073	0.557110	0.717214
	H371	H	0.419838	0.548764	0.735097
	O372	O	1.135707	0.201526	1.206153
	H373	H	1.123092	0.179081	1.208442
	H374	H	1.144744	0.208970	1.212038
	O375	O	0.484136	0.288247	0.712178
	H376	H	0.480221	0.293696	0.731759
	H377	H	0.476833	0.287773	0.728326
	O378	O	1.219914	0.782548	0.986047
	H379	H	1.204923	0.797202	0.932817
	H380	H	1.259074	0.744103	0.979466
	O381	O	0.719572	0.506498	0.693689
	H382	H	0.746750	0.515314	0.725544
	H383	H	0.699439	0.535793	0.693822
	O384	O	0.518923	0.712465	0.712273
	H385	H	0.497009	0.695772	0.709553
	H386	H	0.514925	0.738554	0.734672
	O387	O	0.178686	-0.177772	0.831026
	H388	H	0.156438	-0.153571	0.819029
	H389	H	0.158754	-0.156295	0.817121
	O390	O	0.198945	-0.020699	0.117560
	H391	H	0.184606	-0.028081	0.107123
	H392	H	0.194368	-0.038028	0.104903
	O393	O	0.907312	0.950388	0.983635
	H394	H	0.904899	0.977805	0.982673
	H395	H	0.905245	0.968936	0.988334
	O396	O	1.156023	0.057811	0.204607
	H397	H	1.131530	0.071710	0.217693
	H398	H	1.155683	0.020787	0.206838
	O399	O	1.214503	0.134739	0.980797
	H400	H	1.194900	0.155389	0.989515
	H401	H	1.223681	0.143443	0.998253
	O402	O	0.876503	1.010518	1.204507
	H403	H	0.883529	0.995733	1.204413
	H404	H	0.853950	0.998741	1.215635
	O405	O	1.536178	0.704907	-0.451596
	H406	H	1.520048	0.715062	-0.461223
	H407	H	1.533388	0.703430	-0.469874
	O408	O	0.780101	-0.128360	-0.022119
	H409	H	0.779563	-0.089754	-0.034381
	H410	H	0.760299	-0.121239	-0.023414
	O411	O	1.005957	1.210565	0.001555
	H412	H	1.028002	1.216414	0.028097
	H413	H	0.971093	1.214456	0.017900
	O414	O	0.546413	0.477013	0.301097
	H415	H	0.543336	0.467885	0.289934
	H416	H	0.574792	0.477846	0.315965
	O417	O	0.291550	0.298755	0.516832
	H418	H	0.290921	0.283061	0.527276
	H419	H	0.309391	0.277591	0.504197
	O420	O	0.011215	-0.148146	0.026616
	H421	H	0.031818	-0.159337	0.014130
	H422	H	-0.005374	-0.142579	0.019225
	O423	O	0.588542	0.286203	0.479323
	H424	H	0.586157	0.294854	0.496420
	H425	H	0.619746	0.280073	0.478967
	O426	O	0.580948	0.449863	0.711926
	H427	H	0.564963	0.459530	0.709723
	H428	H	0.592633	0.478516	0.716110
	O429	O	0.372332	0.526971	0.338722
	H430	H	0.341401	0.536662	0.322889
	H431	H	0.381108	0.514588	0.364903
	O432	O	0.722355	0.476961	0.285178
	H433	H	0.722887	0.436172	0.284188
	H434	H	0.742944	0.459716	0.261217
	O435	O	0.319856	0.680752	0.334953
	H436	H	0.309216	0.628353	0.320134
	H437	H	0.372054	0.691128	0.321033
	O438	O	-0.090866	-0.032347	0.215062
	H439	H	-0.094493	-0.035728	0.219606
	H440	H	-0.081573	-0.047482	0.207902
	O441	O	0.782596	0.220820	-0.010982
	H442	H	0.780333	0.218658	-0.046422
	H443	H	0.760333	0.242853	-0.033840
	O444	O	0.212162	0.980241	0.793322
	H445	H	0.233547	0.991732	0.789358
	H446	H	0.220877	0.999783	0.802529
	O447	O	0.324508	0.325992	0.680227
	H448	H	0.341766	0.347329	0.693118
	H449	H	0.312545	0.336580	0.652454
	O450	O	0.679733	0.675099	0.682497
	H451	H	0.626568	0.688905	0.691849
	H452	H	0.689194	0.678314	0.639265
	O453	O	0.281258	0.571473	0.574537
	H454	H	0.285894	0.587427	0.562905
	H455	H	0.286246	0.585178	0.552258
