data_Molecule from HDF5

_cell_length_a		16.528914
_cell_length_b		16.659793
_cell_length_c		16.771058
_cell_angle_alpha	90.044569
_cell_angle_beta	90.004274
_cell_angle_gamma	89.793399
_symmetry_space_group_name_H-M	'P 1'
_symmetry_Int_Tables_number		1

loop_
	_symmetry_equiv_pos_as_xyz
	x,y,z

loop_
	_atom_site_label
	_atom_site_type_symbol
	_atom_site_fract_x
	_atom_site_fract_y
	_atom_site_fract_z
	H0	H	0.366790	0.832575	0.719174
	H1	H	0.581712	0.139791	0.720504
	H2	H	0.577016	0.831287	0.275983
	H3	H	0.364863	0.140485	0.273594
	H4	H	0.700681	0.376775	0.845499
	H5	H	0.696337	0.593489	0.149764
	H6	H	0.249137	0.592581	0.843338
	H7	H	0.253990	0.383538	0.151585
	H8	H	0.816823	0.708004	0.392428
	H9	H	0.130502	0.705330	0.599527
	H10	H	0.816032	0.269078	0.599770
	H11	H	0.127850	0.263855	0.390603
	H12	H	0.817179	0.383371	0.716936
	H13	H	0.129741	0.591067	0.716912
	H14	H	0.818009	0.594030	0.274902
	H15	H	0.128799	0.379776	0.276318
	H16	H	0.363016	0.711242	0.843709
	H17	H	0.580021	0.710759	0.149225
	H18	H	0.585130	0.259786	0.845436
	H19	H	0.369698	0.266601	0.151124
	H20	H	0.692180	0.830447	0.393500
	H21	H	0.692155	0.142663	0.599798
	H22	H	0.254035	0.830693	0.600240
	H23	H	0.251255	0.141619	0.391444
	H24	H	0.864003	0.334998	0.222278
	H25	H	0.077390	0.642517	0.216549
	H26	H	0.078297	0.331066	0.776384
	H27	H	0.864083	0.640292	0.773525
	H28	H	0.191641	0.885020	0.341342
	H29	H	0.198652	0.095454	0.649661
	H30	H	0.754171	0.089681	0.340160
	H31	H	0.749965	0.881885	0.649789
	H32	H	0.318573	0.209050	0.889797
	H33	H	0.629822	0.204366	0.099675
	H34	H	0.316600	0.765467	0.100520
	H35	H	0.628501	0.764514	0.892391
	H36	H	0.316596	0.880174	0.217169
	H37	H	0.629848	0.088214	0.214133
	H38	H	0.319514	0.095802	0.772151
	H39	H	0.628440	0.878799	0.775097
	H40	H	0.869472	0.207340	0.341355
	H41	H	0.080963	0.210445	0.651111
	H42	H	0.078747	0.765625	0.342894
	H43	H	0.866237	0.765144	0.650336
	H44	H	0.191370	0.329645	0.895621
	H45	H	0.189710	0.643748	0.097462
	H46	H	0.749842	0.334307	0.104577
	H47	H	0.750919	0.641422	0.892527
	H48	H	0.386234	0.098684	0.591165
	H49	H	0.555457	0.878852	0.583020
	H50	H	0.560468	0.096823	0.408342
	H51	H	0.384562	0.875011	0.405962
	H52	H	0.556090	0.395385	0.105115
	H53	H	0.557692	0.572649	0.889013
	H54	H	0.382186	0.574895	0.106309
	H55	H	0.384652	0.394674	0.885085
	H56	H	0.085986	0.577305	0.406840
	H57	H	0.860691	0.579097	0.585754
	H58	H	0.089493	0.394168	0.594124
	H59	H	0.858808	0.391938	0.409118
	H60	H	0.085700	0.391774	0.579087
	H61	H	0.863084	0.574659	0.583479
	H62	H	0.084754	0.575080	0.407884
	H63	H	0.864841	0.403169	0.415542
	H64	H	0.385850	0.576055	0.106064
	H65	H	0.559056	0.575228	0.887014
	H66	H	0.565629	0.392129	0.109121
	H67	H	0.382338	0.397378	0.884555
	H68	H	0.568320	0.101541	0.402964
	H69	H	0.566627	0.874740	0.580723
	H70	H	0.393021	0.093999	0.582145
	H71	H	0.384508	0.874421	0.404779
	H72	H	0.890405	0.596672	0.087320
	H73	H	0.057154	0.373186	0.097252
	H74	H	0.063243	0.597012	0.911152
	H75	H	0.884179	0.374942	0.907117
	H76	H	0.062699	0.898425	0.606848
	H77	H	0.057195	0.074618	0.389595
	H78	H	0.879808	0.080435	0.608533
	H79	H	0.881288	0.898047	0.385327
	H80	H	0.585835	0.072233	0.904761
	H81	H	0.357837	0.080722	0.087499
	H82	H	0.583637	0.899011	0.082382
	H83	H	0.362465	0.900822	0.908378
	H84	H	0.584049	0.899894	0.088215
	H85	H	0.361309	0.076557	0.079868
	H86	H	0.586146	0.075916	0.910888
	H87	H	0.360136	0.900178	0.905912
	H88	H	0.881284	0.074489	0.605159
	H89	H	0.061712	0.080282	0.386296
	H90	H	0.061450	0.894401	0.608068
	H91	H	0.886491	0.899199	0.387353
	H92	H	0.065015	0.601767	0.901629
	H93	H	0.057437	0.379023	0.079319
	H94	H	0.884785	0.596576	0.081901
	H95	H	0.890559	0.376569	0.904964
	H96	H	0.381465	0.097263	0.580069
	H97	H	0.561346	0.873412	0.591296
	H98	H	0.558623	0.099530	0.398523
	H99	H	0.385635	0.875158	0.405062
	H100	H	0.564362	0.402088	0.105353
	H101	H	0.561221	0.572473	0.887951
	H102	H	0.383423	0.578233	0.108002
	H103	H	0.385424	0.397551	0.886520
	H104	H	0.085695	0.575050	0.405936
	H105	H	0.861072	0.574474	0.588331
	H106	H	0.083493	0.406046	0.585551
	H107	H	0.860351	0.403809	0.402073
	H108	H	0.883369	0.599419	0.088657
	H109	H	0.073146	0.371824	0.087195
	H110	H	0.055049	0.596946	0.904209
	H111	H	0.888439	0.377878	0.911423
	H112	H	0.064625	0.895870	0.609146
	H113	H	0.064732	0.072895	0.387369
	H114	H	0.886759	0.079722	0.606844
	H115	H	0.885778	0.894065	0.385432
	H116	H	0.582856	0.069700	0.910418
	H117	H	0.360673	0.072144	0.088189
	H118	H	0.585708	0.894455	0.086185
	H119	H	0.360248	0.898138	0.907834
	C120	C	0.353423	-0.005377	0.617181
	C121	C	0.594212	0.978126	0.617366
	C122	C	0.594056	-0.004499	0.373352
	C123	C	0.351963	0.977760	0.374226
	C124	C	0.595955	0.363463	0.005372
	C125	C	0.593112	0.607183	0.988929
	C126	C	0.350637	0.608890	0.005082
	C127	C	0.352889	0.365573	0.987966
	C128	C	-0.018115	0.608250	0.375263
	C129	C	0.964925	0.607710	0.617680
	C130	C	-0.017909	0.366081	0.617384
	C131	C	0.964383	0.366492	0.376522
	C132	C	0.852134	0.496270	0.119163
	C133	C	0.094441	0.477888	0.118747
	C134	C	0.094022	0.495303	0.874895
	C135	C	0.852968	0.478373	0.875554
	C136	C	0.094912	0.865013	0.505429
	C137	C	0.094536	0.108661	0.489217
	C138	C	0.851418	0.108768	0.504097
	C139	C	0.851541	0.865322	0.487719
	C140	C	0.482469	0.106869	0.875387
	C141	C	0.464181	0.106946	0.116651
	C142	C	0.481038	0.865098	0.117399
	C143	C	0.464027	0.865823	0.875182
	C144	C	0.349558	0.878696	0.678220
	C145	C	0.598051	0.094104	0.678534
	C146	C	0.595357	0.877636	0.315756
	C147	C	0.347810	0.094210	0.314203
	C148	C	0.659192	0.359163	0.890974
	C149	C	0.655169	0.611152	0.103823
	C150	C	0.289595	0.611087	0.889162
	C151	C	0.293871	0.364879	0.104803
	C152	C	0.864110	0.668344	0.373594
	C153	C	0.083264	0.665902	0.618560
	C154	C	0.863472	0.308249	0.618471
	C155	C	0.081429	0.304855	0.373393
	C156	C	0.864129	0.364962	0.676743
	C157	C	0.083079	0.608990	0.676568
	C158	C	0.864606	0.611553	0.315325
	C159	C	0.081646	0.362498	0.316297
	C160	C	0.346453	0.669760	0.889487
	C161	C	0.597737	0.669688	0.103391
	C162	C	0.601829	0.300893	0.891249
	C163	C	0.351418	0.306562	0.104582
	C164	C	0.652463	0.877607	0.374091
	C165	C	0.653426	0.095223	0.618808
	C166	C	0.293338	0.877864	0.619114
	C167	C	0.291045	0.094546	0.372661
	C168	C	0.846982	0.380937	0.181216
	C169	C	0.095925	0.595432	0.177132
	C170	C	0.096516	0.377767	0.816392
	C171	C	0.847219	0.594000	0.814263
	C172	C	0.153061	0.865012	0.388515
	C173	C	0.156894	0.112425	0.604125
	C174	C	0.793448	0.108917	0.387037
	C175	C	0.790665	0.863631	0.603734
	C176	C	0.365599	0.169095	0.871523
	C177	C	0.582685	0.165096	0.118088
	C178	C	0.363386	0.805539	0.119227
	C179	C	0.581599	0.804558	0.873450
	C180	C	0.363532	0.862286	0.177206
	C181	C	0.582648	0.107287	0.174915
	C182	C	0.366049	0.112210	0.813461
	C183	C	0.581817	0.861730	0.815620
	C184	C	0.850873	0.167288	0.387464
	C185	C	0.098391	0.169866	0.604673
	C186	C	0.096720	0.805872	0.389175
	C187	C	0.848329	0.805455	0.604034
	C188	C	0.152730	0.377054	0.875543
	C189	C	0.151962	0.596063	0.117975
	C190	C	0.790466	0.380488	0.122587
	C191	C	0.791075	0.594634	0.873463
	C192	C	0.379536	0.075581	0.591723
	C193	C	0.568467	0.896935	0.592381
	C194	C	0.569419	0.077916	0.396473
	C195	C	0.377733	0.896145	0.398539
	C196	C	0.569506	0.389378	0.085658
	C197	C	0.566555	0.580887	0.908664
	C198	C	0.376529	0.583658	0.085806
	C199	C	0.377176	0.389664	0.906564
	C200	C	0.064272	0.583063	0.400001
	C201	C	0.882899	0.583082	0.593016
	C202	C	0.064638	0.390365	0.593228
	C203	C	0.882636	0.392437	0.401627
	C204	C	0.878638	0.576783	0.093203
	C205	C	0.069717	0.395935	0.094720
	C206	C	0.068607	0.577238	0.898855
	C207	C	0.879771	0.397527	0.900749
	C208	C	0.069965	0.889501	0.586822
	C209	C	0.068530	0.083039	0.408657
	C210	C	0.875664	0.085060	0.585697
	C211	C	0.877371	0.890040	0.407147
	C212	C	0.563553	0.080225	0.901168
	C213	C	0.381465	0.083253	0.092134
	C214	C	0.563207	0.890449	0.092490
	C215	C	0.382213	0.892347	0.900029
	Zn216	Zn	0.473952	-0.013603	0.746885
	Zn217	Zn	0.472259	-0.013949	0.244762
	Zn218	Zn	0.724073	0.486669	-0.003105
	Zn219	Zn	0.222459	0.486741	-0.003002
	Zn220	Zn	-0.026631	0.736036	0.497175
	Zn221	Zn	-0.027038	0.237729	0.496884
	Zn222	Zn	-0.026875	0.487064	0.745964
	Zn223	Zn	-0.026900	0.486998	0.247386
	Zn224	Zn	0.472045	0.737604	-0.004119
	Zn225	Zn	0.473859	0.235059	-0.003903
	Zn226	Zn	0.722390	-0.012838	0.495512
	Zn227	Zn	0.223849	-0.013184	0.496952
	N228	N	0.386188	0.952481	0.677298
	N229	N	0.562038	0.020075	0.678027
	N230	N	0.559931	0.952255	0.314786
	N231	N	0.384808	0.020396	0.314733
	N232	N	0.655889	0.397480	0.963210
	N233	N	0.652432	0.572730	0.031398
	N234	N	0.291987	0.573779	0.962046
	N235	N	0.294257	0.400712	0.031079
	N236	N	0.938339	0.666665	0.410090
	N237	N	0.008784	0.665375	0.582763
	N238	N	0.938088	0.308434	0.582515
	N239	N	0.007503	0.307184	0.410390
	N240	N	0.939092	0.399989	0.676499
	N241	N	0.008346	0.573478	0.676398
	N242	N	0.939101	0.575089	0.316088
	N243	N	0.007820	0.400262	0.318020
	N244	N	0.383809	0.668425	0.962447
	N245	N	0.559687	0.667164	0.030895
	N246	N	0.563297	0.303381	0.963376
	N247	N	0.387209	0.306482	0.030766
	N248	N	0.651816	0.952068	0.409072
	N249	N	0.651221	0.021933	0.581369
	N250	N	0.295428	0.951233	0.581901
	N251	N	0.293231	0.020997	0.409238
	N252	N	0.884443	0.454049	0.179394
	N253	N	0.061342	0.520636	0.178255
	N254	N	0.060878	0.452382	0.815609
	N255	N	0.884990	0.520548	0.815440
	N256	N	0.152340	0.900976	0.462019
	N257	N	0.154646	0.074980	0.531387
	N258	N	0.793383	0.073393	0.460800
	N259	N	0.792284	0.899922	0.530396
	N260	N	0.439145	0.166208	0.909378
	N261	N	0.507870	0.165133	0.082468
	N262	N	0.437591	0.807197	0.082678
	N263	N	0.507185	0.806949	0.909765
	N264	N	0.437858	0.898924	0.175995
	N265	N	0.507859	0.071803	0.174215
	N266	N	0.439912	0.074485	0.815480
	N267	N	0.507565	0.898911	0.816341
	N268	N	0.885970	0.167636	0.461504
	N269	N	0.060222	0.167598	0.531972
	N270	N	0.061439	0.805480	0.463235
	N271	N	0.885451	0.805937	0.530735
	N272	N	0.151701	0.451463	0.911007
	N273	N	0.151428	0.521706	0.082554
	N274	N	0.793417	0.453240	0.084573
	N275	N	0.794297	0.521585	0.910826
	O276	O	0.184342	0.778784	-0.015055
	H277	H	0.185667	0.790736	-0.016633
	H278	H	0.176969	0.769402	-0.030027
	O279	O	0.689502	0.483687	0.656490
	H280	H	0.687041	0.482600	0.667288
	H281	H	0.677141	0.464202	0.658530
	O282	O	1.176003	0.001727	1.209494
	H283	H	1.188065	0.004830	1.221872
	H284	H	1.181998	0.020332	1.213125
	O285	O	0.250617	0.422045	0.439670
	H286	H	0.261208	0.418694	0.444380
	H287	H	0.248820	0.401343	0.463331
	O288	O	0.752531	0.764304	0.222984
	H289	H	0.719420	0.733843	0.251102
	H290	H	0.750156	0.768481	0.193949
	O291	O	0.500685	0.707984	0.722686
	H292	H	0.514248	0.730899	0.746200
	H293	H	0.531812	0.711783	0.717320
	O294	O	0.976110	-0.220825	0.789462
	H295	H	0.991050	-0.227690	0.792337
	H296	H	0.983718	-0.216499	0.769963
	O297	O	0.798568	0.763415	0.008700
	H298	H	0.800971	0.759221	0.008965
	H299	H	0.793838	0.763529	0.000929
	O300	O	0.032396	0.209258	0.926785
	H301	H	0.055736	0.202274	0.947204
	H302	H	0.031253	0.204389	0.936766
	O303	O	0.380874	0.553183	0.514982
	H304	H	0.392535	0.552902	0.513077
	H305	H	0.377709	0.550225	0.523149
	O306	O	0.522952	0.338487	0.495832
	H307	H	0.537555	0.320831	0.483492
	H308	H	0.522034	0.333812	0.523919
	O309	O	0.256440	0.271682	0.521895
	H310	H	0.244331	0.244650	0.522285
	H311	H	0.260775	0.270857	0.550869
	O312	O	0.624808	0.505504	0.428187
	H313	H	0.631172	0.504985	0.438961
	H314	H	0.613535	0.480323	0.439499
	O315	O	0.969144	1.192856	1.064465
	H316	H	0.965573	1.193035	1.070620
	H317	H	0.979236	1.181349	1.073835
	O318	O	0.479435	0.264262	0.322257
	H319	H	0.470957	0.267613	0.336258
	H320	H	0.474143	0.263723	0.303062
	O321	O	-0.038895	0.984639	0.755339
	H322	H	-0.027917	0.993462	0.749737
	H323	H	-0.048051	0.991976	0.755301
	O324	O	0.751609	0.948597	0.224638
	H325	H	0.733861	0.941531	0.229440
	H326	H	0.735678	0.924869	0.234137
	O327	O	0.160730	0.157353	0.824165
	H328	H	0.151207	0.147989	0.831405
	H329	H	0.153740	0.141883	0.846856
	O330	O	0.693058	0.529613	0.425427
	H331	H	0.689170	0.527100	0.446061
	H332	H	0.694064	0.542585	0.440163
	O333	O	0.305628	0.669024	0.324919
	H334	H	0.323330	0.672667	0.337481
	H335	H	0.320701	0.644589	0.321482
	O336	O	0.693660	0.263996	0.465400
	H337	H	0.698741	0.265544	0.429253
	H338	H	0.709553	0.243155	0.454798
	O339	O	1.177119	-0.114724	0.964028
	H340	H	1.185510	-0.112124	0.990575
	H341	H	1.171448	-0.126472	0.960058
	O342	O	0.470666	0.502817	-0.268580
	H343	H	0.476086	0.499879	-0.267696
	H344	H	0.486158	0.514050	-0.274482
	O345	O	0.162583	0.795277	1.194942
	H346	H	0.185351	0.770900	1.206191
	H347	H	0.150360	0.801699	1.171803
	O348	O	0.220520	0.230716	0.240079
	H349	H	0.203519	0.226408	0.253202
	H350	H	0.245150	0.265878	0.264640
	O351	O	0.785791	1.179272	0.181111
	H352	H	0.786609	1.183846	0.189880
	H353	H	0.803630	1.165314	0.171992
	O354	O	-0.246745	-0.084094	0.947957
	H355	H	-0.235480	-0.073054	0.962076
	H356	H	-0.245246	-0.069433	0.952549
	O357	O	1.015783	0.039620	0.816321
	H358	H	1.013443	0.038596	0.818705
	H359	H	1.023820	0.044881	0.808770
	O360	O	0.671357	0.691791	0.697410
	H361	H	0.703821	0.710031	0.727638
	H362	H	0.667240	0.656524	0.689605
	O363	O	-0.056643	-0.231337	0.223172
	H364	H	-0.057352	-0.260301	0.246611
	H365	H	-0.093410	-0.231982	0.218433
	O366	O	0.481370	0.536454	0.362759
	H367	H	0.491332	0.537026	0.378083
	H368	H	0.493519	0.542402	0.369144
	O369	O	0.692966	0.707631	0.520583
	H370	H	0.695516	0.718049	0.540682
	H371	H	0.702297	0.721029	0.541819
	O372	O	1.045301	0.887296	-0.076896
	H373	H	1.033000	0.896335	-0.075576
	H374	H	1.039688	0.890289	-0.067342
	O375	O	1.143431	0.068287	0.110609
	H376	H	1.146751	0.068976	0.111732
	H377	H	1.144089	0.082291	0.127195
	O378	O	0.538499	0.412631	0.609343
	H379	H	0.529080	0.406049	0.596570
	H380	H	0.516222	0.410325	0.596622
	O381	O	0.251702	0.704429	0.716580
	H382	H	0.253806	0.711112	0.724205
	H383	H	0.253847	0.700144	0.707446
	O384	O	0.900227	0.023163	1.032917
	H385	H	0.902537	0.018796	1.042767
	H386	H	0.894490	0.010011	1.042047
	O387	O	1.424241	0.491241	0.645214
	H388	H	1.435634	0.479808	0.641934
	H389	H	1.433382	0.496345	0.648606
	O390	O	0.256148	0.553545	0.274335
	H391	H	0.243541	0.564407	0.291447
	H392	H	0.225385	0.544037	0.255532
	O393	O	0.459958	0.268069	0.720035
	H394	H	0.439282	0.256492	0.717929
	H395	H	0.438283	0.257858	0.730683
	O396	O	0.268061	1.279985	0.703671
	H397	H	0.253010	1.260546	0.715944
	H398	H	0.263421	1.326625	0.710379
	O399	O	0.029400	-0.080383	1.198565
	H400	H	0.041335	-0.086070	1.205132
	H401	H	0.031737	-0.097995	1.210269
	O402	O	0.478400	0.257178	0.502931
	H403	H	0.483165	0.254043	0.508561
	H404	H	0.488569	0.252939	0.512056
	O405	O	0.761049	0.186943	0.962328
	H406	H	0.755835	0.197641	0.943747
	H407	H	0.753610	0.208484	0.955940
	O408	O	-0.229937	0.194851	-0.214512
	H409	H	-0.243660	0.177623	-0.216659
	H410	H	-0.186989	0.192968	-0.216869
	O411	O	0.938408	1.029246	1.082512
	H412	H	0.935170	1.025739	1.079202
	H413	H	0.939448	1.036172	1.095115
	O414	O	0.754107	0.018078	0.773806
	H415	H	0.754709	0.013994	0.780274
	H416	H	0.730854	0.021025	0.764570
	O417	O	0.688635	0.458013	0.279314
	H418	H	0.707765	0.457091	0.275384
	H419	H	0.696424	0.467565	0.285484
	O420	O	0.475530	0.452970	0.481026
	H421	H	0.490276	0.455313	0.495059
	H422	H	0.465500	0.449852	0.497620
	O423	O	0.196434	0.201867	1.024562
	H424	H	0.203209	0.197514	1.033979
	H425	H	0.213076	0.218064	1.044816
	O426	O	0.431688	0.339656	0.566821
	H427	H	0.433715	0.346457	0.568717
	H428	H	0.438421	0.348756	0.581564
	O429	O	0.940227	1.023896	1.227434
	H430	H	0.937731	1.011941	1.230217
	H431	H	0.944015	1.010091	1.234492
	O432	O	0.276997	0.598805	0.603545
	H433	H	0.274765	0.624728	0.602721
	H434	H	0.287526	0.592427	0.595029
	O435	O	0.880034	0.988031	0.882286
	H436	H	0.896450	0.998172	0.877137
	H437	H	0.879614	0.989535	0.894750
	O438	O	0.255456	-0.288799	0.458515
	H439	H	0.242427	-0.290564	0.442209
	H440	H	0.238061	-0.275547	0.451443
	O441	O	-0.335597	0.293914	-0.307711
	H442	H	-0.351753	0.305317	-0.295065
	H443	H	-0.329197	0.281091	-0.306060
	O444	O	0.258965	0.448792	0.720432
	H445	H	0.254347	0.466462	0.733889
	H446	H	0.256683	0.467299	0.723894
	O447	O	-0.469746	1.718020	0.436222
	H448	H	-0.467578	1.710125	0.449062
	H449	H	-0.475339	1.725468	0.444597
	O450	O	-0.117823	0.949223	0.963650
	H451	H	-0.108801	0.953153	0.963229
	H452	H	-0.120796	0.957439	0.981696
	O453	O	0.678934	0.273914	0.283193
	H454	H	0.696599	0.287857	0.264677
	H455	H	0.633768	0.272983	0.281989
	O456	O	0.613680	-0.440656	0.639132
	H457	H	0.625679	-0.449155	0.634617
	H458	H	0.613682	-0.439884	0.644004
	O459	O	1.033741	0.770367	0.043032
	H460	H	1.001345	0.768506	0.043478
	H461	H	1.041928	0.769743	0.040530
	O462	O	0.476271	0.439330	0.376131
	H463	H	0.483869	0.429456	0.376486
	H464	H	0.483154	0.445460	0.376252
	O465	O	0.838364	-0.221616	-0.141265
	H466	H	0.841253	-0.204695	-0.132204
	H467	H	0.859655	-0.211469	-0.145377
	O468	O	0.285558	0.363313	0.306358
	H469	H	0.304084	0.380912	0.300160
	H470	H	0.285687	0.371660	0.330334
	O471	O	1.188774	0.964941	0.786952
	H472	H	1.202438	0.964969	0.787007
	H473	H	1.201977	0.969797	0.794616
	O474	O	0.428076	0.718550	0.553083
	H475	H	0.420260	0.716711	0.554749
	H476	H	0.416843	0.723283	0.565656
	O477	O	0.881075	0.866370	1.067795
	H478	H	0.878345	0.869401	1.068893
	H479	H	0.886718	0.874237	1.070855
	O480	O	0.422407	0.427885	0.267276
	H481	H	0.417296	0.441099	0.263268
	H482	H	0.422717	0.446461	0.278960
	O483	O	0.444269	0.698590	0.282564
	H484	H	0.447638	0.699210	0.278954
	H485	H	0.457176	0.702945	0.279996
	O486	O	1.081960	-0.183516	0.766821
	H487	H	1.085754	-0.158479	0.783929
	H488	H	1.092218	-0.185172	0.754500
	O489	O	0.792668	1.099516	0.050299
	H490	H	0.799100	1.108668	0.058117
	H491	H	0.774088	1.108933	0.060336
	O492	O	0.152971	0.032040	-0.014087
	H493	H	0.145736	0.043407	0.001234
	H494	H	0.154407	0.008525	0.002484
	O495	O	0.031511	1.181411	1.213864
	H496	H	0.037159	1.165473	1.221284
	H497	H	0.029770	1.185956	1.221721
	O498	O	0.935170	1.202551	0.780029
	H499	H	0.948473	1.219675	0.784564
	H500	H	0.945101	1.213977	0.780471
	O501	O	0.638411	0.660885	0.317128
	H502	H	0.629025	0.642075	0.335272
	H503	H	0.614480	0.648294	0.329077
