data_Molecule from HDF5

_cell_length_a		16.471356
_cell_length_b		16.458918
_cell_length_c		16.450428
_cell_angle_alpha	90.069751
_cell_angle_beta	90.062781
_cell_angle_gamma	90.035465
_symmetry_space_group_name_H-M	'P 1'
_symmetry_Int_Tables_number		1

loop_
	_symmetry_equiv_pos_as_xyz
	x,y,z

loop_
	_atom_site_label
	_atom_site_type_symbol
	_atom_site_fract_x
	_atom_site_fract_y
	_atom_site_fract_z
	H0	H	0.401615	0.846656	0.730826
	H1	H	0.618878	0.160993	0.730062
	H2	H	0.616435	0.845642	0.284723
	H3	H	0.405071	0.161222	0.282850
	H4	H	0.734581	0.395086	0.849197
	H5	H	0.733956	0.611543	0.163239
	H6	H	0.287600	0.611093	0.848481
	H7	H	0.289623	0.396802	0.164247
	H8	H	0.854756	0.727234	0.399300
	H9	H	0.169744	0.726743	0.613578
	H10	H	0.854623	0.281753	0.612735
	H11	H	0.169086	0.281611	0.398809
	H12	H	0.856374	0.395918	0.730640
	H13	H	0.168540	0.612673	0.730633
	H14	H	0.856150	0.613936	0.281127
	H15	H	0.169347	0.398929	0.284074
	H16	H	0.402694	0.727822	0.848650
	H17	H	0.618074	0.726670	0.163103
	H18	H	0.618888	0.279068	0.850045
	H19	H	0.405718	0.280987	0.164330
	H20	H	0.734934	0.847417	0.398693
	H21	H	0.738279	0.159049	0.617692
	H22	H	0.284712	0.848127	0.615967
	H23	H	0.290385	0.162105	0.399351
	H24	H	0.902906	0.347503	0.230185
	H25	H	0.118092	0.661873	0.228790
	H26	H	0.120669	0.348323	0.781508
	H27	H	0.901717	0.660862	0.782072
	H28	H	0.234701	0.895951	0.349251
	H29	H	0.236501	0.113693	0.661055
	H30	H	0.786949	0.112427	0.349568
	H31	H	0.787892	0.894628	0.662982
	H32	H	0.356822	0.229244	0.896488
	H33	H	0.668767	0.227066	0.116195
	H34	H	0.355019	0.779649	0.113239
	H35	H	0.667942	0.778527	0.896449
	H36	H	0.355498	0.894751	0.229437
	H37	H	0.668297	0.109670	0.230014
	H38	H	0.356440	0.112949	0.780252
	H39	H	0.667602	0.892762	0.779731
	H40	H	0.901645	0.228834	0.349624
	H41	H	0.118086	0.227928	0.662260
	H42	H	0.119843	0.779781	0.349539
	H43	H	0.904457	0.779981	0.663179
	H44	H	0.234672	0.347390	0.898572
	H45	H	0.236825	0.660271	0.115337
	H46	H	0.787633	0.346585	0.113273
	H47	H	0.784983	0.659721	0.896723
	H48	H	0.423733	0.114866	0.593704
	H49	H	0.598240	0.894787	0.587946
	H50	H	0.599357	0.116093	0.418685
	H51	H	0.424854	0.893329	0.420713
	H52	H	0.601149	0.412347	0.120445
	H53	H	0.597169	0.581912	0.897127
	H54	H	0.418672	0.589092	0.119137
	H55	H	0.423760	0.418872	0.896001
	H56	H	0.124364	0.593521	0.418999
	H57	H	0.899219	0.590221	0.598316
	H58	H	0.123369	0.417400	0.592627
	H59	H	0.899657	0.417252	0.416582
	H60	H	0.124103	0.417314	0.595266
	H61	H	0.899095	0.596071	0.593243
	H62	H	0.123361	0.590358	0.419527
	H63	H	0.898901	0.415091	0.418033
	H64	H	0.428939	0.587771	0.114891
	H65	H	0.590895	0.595177	0.894740
	H66	H	0.602606	0.419054	0.118001
	H67	H	0.426743	0.413215	0.894230
	H68	H	0.599516	0.116061	0.418573
	H69	H	0.603852	0.889648	0.593708
	H70	H	0.425284	0.115012	0.594089
	H71	H	0.418362	0.890008	0.418419
	H72	H	0.920270	0.613689	0.083490
	H73	H	0.102027	0.388241	0.099886
	H74	H	0.102287	0.616322	0.923891
	H75	H	0.925323	0.391478	0.913911
	H76	H	0.099448	0.912624	0.619749
	H77	H	0.106903	0.095232	0.389523
	H78	H	0.927793	0.100115	0.619394
	H79	H	0.920311	0.915117	0.393062
	H80	H	0.623709	0.092493	0.922594
	H81	H	0.397347	0.096011	0.095798
	H82	H	0.626667	0.912768	0.099451
	H83	H	0.400644	0.922937	0.912476
	H84	H	0.623764	0.911999	0.088434
	H85	H	0.400739	0.091213	0.090255
	H86	H	0.621759	0.086050	0.919737
	H87	H	0.397786	0.908651	0.917831
	H88	H	0.916842	0.088100	0.619645
	H89	H	0.099711	0.085320	0.395039
	H90	H	0.102032	0.920712	0.617881
	H91	H	0.924566	0.919853	0.395523
	H92	H	0.101334	0.618533	0.915242
	H93	H	0.094946	0.393584	0.094367
	H94	H	0.917457	0.620226	0.099413
	H95	H	0.927634	0.394275	0.921427
	H96	H	0.424952	0.114676	0.591887
	H97	H	0.595075	0.892344	0.596662
	H98	H	0.599252	0.115891	0.418498
	H99	H	0.424571	0.890144	0.413934
	H100	H	0.596080	0.415613	0.117198
	H101	H	0.605358	0.592714	0.891133
	H102	H	0.425591	0.597482	0.119515
	H103	H	0.420412	0.414004	0.892341
	H104	H	0.124568	0.591095	0.416956
	H105	H	0.902167	0.588734	0.590572
	H106	H	0.124445	0.415347	0.593513
	H107	H	0.900347	0.417558	0.419837
	H108	H	0.933315	0.613487	0.096075
	H109	H	0.104467	0.391637	0.090175
	H110	H	0.095000	0.614394	0.919523
	H111	H	0.919703	0.391248	0.920199
	H112	H	0.093760	0.918407	0.616374
	H113	H	0.093784	0.097228	0.393138
	H114	H	0.931495	0.085540	0.613079
	H115	H	0.926672	0.913586	0.394194
	H116	H	0.626010	0.090846	0.915448
	H117	H	0.399432	0.088584	0.097369
	H118	H	0.622262	0.921516	0.094638
	H119	H	0.404300	0.919456	0.927222
	C120	C	0.389685	0.011829	0.627973
	C121	C	0.632638	0.995566	0.627269
	C122	C	0.632325	0.012113	0.385450
	C123	C	0.389610	0.995376	0.384096
	C124	C	0.633408	0.381718	0.015008
	C125	C	0.631841	0.624185	0.997730
	C126	C	0.389909	0.625438	0.014158
	C127	C	0.390716	0.381947	0.998116
	C128	C	0.020250	0.625363	0.385095
	C129	C	1.003779	0.625492	0.627799
	C130	C	0.020414	0.383015	0.627452
	C131	C	1.003278	0.383182	0.384378
	C132	C	0.889913	0.512392	0.127104
	C133	C	0.133570	0.495354	0.127924
	C134	C	0.132747	0.512450	0.885850
	C135	C	0.889449	0.495488	0.884188
	C136	C	0.132392	0.883070	0.514610
	C137	C	0.133211	0.126021	0.496534
	C138	C	0.890591	0.125130	0.514491
	C139	C	0.890328	0.882162	0.497999
	C140	C	0.520793	0.124247	0.885029
	C141	C	0.503131	0.124441	0.127769
	C142	C	0.520302	0.881998	0.127365
	C143	C	0.503741	0.882039	0.884445
	C144	C	0.384544	0.894411	0.690456
	C145	C	0.636759	0.113584	0.689787
	C146	C	0.635282	0.893483	0.324359
	C147	C	0.387058	0.113799	0.323165
	C148	C	0.694161	0.377929	0.896530
	C149	C	0.693731	0.628675	0.115872
	C150	C	0.328064	0.628708	0.895917
	C151	C	0.329838	0.378819	0.116772
	C152	C	0.902365	0.686945	0.381510
	C153	C	0.122039	0.686812	0.631372
	C154	C	0.902380	0.321585	0.631003
	C155	C	0.121686	0.322172	0.381168
	C156	C	0.903106	0.378542	0.689735
	C157	C	0.121570	0.629788	0.689786
	C158	C	0.902655	0.630137	0.322732
	C159	C	0.121715	0.380274	0.323485
	C160	C	0.385758	0.686570	0.895765
	C161	C	0.636087	0.686242	0.115745
	C162	C	0.636693	0.319821	0.897054
	C163	C	0.387567	0.320966	0.116707
	C164	C	0.693989	0.894137	0.381401
	C165	C	0.696139	0.112700	0.633504
	C166	C	0.326538	0.894697	0.632680
	C167	C	0.329918	0.114263	0.381513
	C168	C	0.886001	0.394204	0.188995
	C169	C	0.136501	0.614172	0.189002
	C170	C	0.137402	0.395293	0.823067
	C171	C	0.884654	0.613374	0.822507
	C172	C	0.193941	0.878984	0.396379
	C173	C	0.195302	0.130535	0.614486
	C174	C	0.827646	0.129535	0.396782
	C175	C	0.828498	0.877626	0.615663
	C176	C	0.403499	0.187631	0.879713
	C177	C	0.621340	0.186200	0.132741
	C178	C	0.402309	0.820262	0.130856
	C179	C	0.620918	0.819140	0.879459
	C180	C	0.402332	0.877906	0.188728
	C181	C	0.621467	0.127661	0.189434
	C182	C	0.403183	0.129576	0.822046
	C183	C	0.620786	0.876295	0.821297
	C184	C	0.885019	0.187452	0.396575
	C185	C	0.136729	0.187708	0.614888
	C186	C	0.136776	0.820960	0.396641
	C187	C	0.886837	0.820413	0.615922
	C188	C	0.194490	0.394668	0.881375
	C189	C	0.195650	0.613347	0.132427
	C190	C	0.828214	0.394088	0.130931
	C191	C	0.826154	0.612631	0.879596
	C192	C	0.416761	0.093504	0.601034
	C193	C	0.606294	0.913502	0.600655
	C194	C	0.606688	0.094489	0.411181
	C195	C	0.415177	0.912779	0.410119
	C196	C	0.607464	0.408170	0.097092
	C197	C	0.605420	0.597818	0.915622
	C198	C	0.416571	0.598975	0.096255
	C199	C	0.416272	0.407851	0.915809
	C200	C	0.102702	0.599037	0.411138
	C201	C	0.921451	0.599261	0.601564
	C202	C	0.102537	0.409168	0.601426
	C203	C	0.920971	0.409190	0.410571
	C204	C	0.916090	0.594296	0.100696
	C205	C	0.107708	0.412783	0.102259
	C206	C	0.106887	0.594859	0.912147
	C207	C	0.916662	0.413608	0.910832
	C208	C	0.106136	0.909898	0.596698
	C209	C	0.107432	0.099961	0.414316
	C210	C	0.917635	0.098793	0.595991
	C211	C	0.916337	0.908480	0.415801
	C212	C	0.602348	0.097518	0.911740
	C213	C	0.420674	0.099161	0.101998
	C214	C	0.602667	0.908112	0.101601
	C215	C	0.422042	0.909332	0.911461
	Zn216	Zn	0.512278	0.003039	0.756243
	Zn217	Zn	0.511512	0.003299	0.256168
	Zn218	Zn	0.761062	0.503878	0.006024
	Zn219	Zn	0.261850	0.503770	0.006500
	Zn220	Zn	0.012440	0.754064	0.506325
	Zn221	Zn	0.011376	0.254061	0.505483
	Zn222	Zn	0.012265	0.504728	0.756380
	Zn223	Zn	0.011435	0.504580	0.255817
	Zn224	Zn	0.511727	0.753477	0.005565
	Zn225	Zn	0.512262	0.253069	0.007082
	Zn226	Zn	0.761789	0.003547	0.506342
	Zn227	Zn	0.261359	0.003936	0.505591
	N228	N	0.423460	0.968210	0.687434
	N229	N	0.597915	0.039664	0.685951
	N230	N	0.597611	0.967835	0.326715
	N231	N	0.423312	0.038602	0.324468
	N232	N	0.692384	0.415521	0.971007
	N233	N	0.691023	0.590336	0.041514
	N234	N	0.330429	0.591497	0.970761
	N235	N	0.331331	0.415878	0.042004
	N236	N	0.976602	0.684122	0.419410
	N237	N	0.047634	0.684256	0.593522
	N238	N	0.976463	0.324110	0.592958
	N239	N	0.046708	0.323348	0.417862
	N240	N	0.977647	0.415983	0.687673
	N241	N	0.046886	0.592560	0.687695
	N242	N	0.977113	0.592487	0.324939
	N243	N	0.046968	0.417129	0.325190
	N244	N	0.423378	0.684727	0.970358
	N245	N	0.598277	0.683486	0.041344
	N246	N	0.599880	0.321898	0.971874
	N247	N	0.424560	0.322593	0.041837
	N248	N	0.692340	0.968867	0.418633
	N249	N	0.693786	0.038394	0.595530
	N250	N	0.329341	0.968984	0.594747
	N251	N	0.331248	0.039393	0.418480
	N252	N	0.923502	0.468801	0.186833
	N253	N	0.098554	0.539678	0.186287
	N254	N	0.099642	0.469660	0.825868
	N255	N	0.923328	0.539270	0.825007
	N256	N	0.191557	0.917010	0.470950
	N257	N	0.193271	0.092999	0.539967
	N258	N	0.830759	0.091404	0.471120
	N259	N	0.830648	0.915456	0.541309
	N260	N	0.477487	0.184394	0.918481
	N261	N	0.546904	0.184137	0.094851
	N262	N	0.476557	0.822872	0.093281
	N263	N	0.546777	0.822423	0.917786
	N264	N	0.476803	0.915531	0.186782
	N265	N	0.547126	0.089832	0.186392
	N266	N	0.476969	0.090942	0.825114
	N267	N	0.546718	0.914710	0.824242
	N268	N	0.923528	0.184952	0.470583
	N269	N	0.098929	0.185044	0.540573
	N270	N	0.099285	0.823508	0.471096
	N271	N	0.924551	0.823035	0.541648
	N272	N	0.191665	0.468744	0.919912
	N273	N	0.193835	0.538661	0.095161
	N274	N	0.830575	0.468406	0.093162
	N275	N	0.828945	0.538219	0.917100
	O276	O	-0.193901	0.824140	0.027452
	H277	H	-0.197220	0.830576	0.026257
	H278	H	-0.213399	0.836140	0.020269
	O279	O	0.939175	0.182054	1.084720
	H280	H	0.937958	0.186726	1.105803
	H281	H	0.929390	0.186119	1.079529
	O282	O	0.695104	0.690029	0.618930
	H283	H	0.704344	0.697282	0.589582
	H284	H	0.710435	0.645263	0.618023
	O285	O	0.310790	1.698541	0.414774
	H286	H	0.317731	1.709615	0.411422
	H287	H	0.320618	1.694292	0.411501
	O288	O	0.580669	0.313809	0.482722
	H289	H	0.559015	0.326705	0.490335
	H290	H	0.586313	0.313693	0.480078
	O291	O	0.305718	0.334445	0.530754
	H292	H	0.299800	0.343007	0.544559
	H293	H	0.310331	0.322474	0.549167
	O294	O	0.229869	0.219277	1.027482
	H295	H	0.242728	0.226884	1.044141
	H296	H	0.245876	0.216988	1.018631
	O297	O	0.189640	0.183760	0.184900
	H298	H	0.202231	0.168313	0.159551
	H299	H	0.179541	0.157131	0.198156
	O300	O	0.490365	0.302320	0.715823
	H301	H	0.495607	0.302368	0.730097
	H302	H	0.495465	0.297106	0.725409
	O303	O	-0.048132	-0.206885	0.939691
	H304	H	-0.047895	-0.208490	0.950921
	H305	H	-0.062403	-0.208504	0.955030
	O306	O	0.849264	0.109659	0.112730
	H307	H	0.854856	0.119777	0.114005
	H308	H	0.852808	0.105148	0.112395
	O309	O	0.368291	0.428500	0.489447
	H310	H	0.378144	0.411190	0.500753
	H311	H	0.374630	0.444322	0.498836
	O312	O	0.353360	1.308981	0.654488
	H313	H	0.380163	1.300547	0.655144
	H314	H	0.335504	1.324983	0.670912
	O315	O	0.451565	0.522063	0.588728
	H316	H	0.454695	0.539816	0.585971
	H317	H	0.438576	0.535426	0.597298
	O318	O	1.117958	0.214600	-0.107942
	H319	H	1.125560	0.209206	-0.085331
	H320	H	1.102281	0.199985	-0.085400
	O321	O	0.096290	-0.084169	0.215746
	H322	H	0.086107	-0.092946	0.209041
	H323	H	0.084197	-0.090530	0.212245
	O324	O	0.735379	0.494517	0.485698
	H325	H	0.737664	0.480497	0.478181
	H326	H	0.744872	0.494395	0.502637
	O327	O	0.653916	0.359688	0.510168
	H328	H	0.658908	0.340986	0.510125
	H329	H	0.632502	0.348756	0.515465
	O330	O	0.230777	1.062300	-0.049924
	H331	H	0.227799	1.060337	-0.056128
	H332	H	0.219745	1.048418	-0.038897
	O333	O	0.504976	0.583431	0.441653
	H334	H	0.509278	0.571581	0.442009
	H335	H	0.501631	0.593068	0.437655
	O336	O	0.228099	-0.210380	-0.012385
	H337	H	0.253978	-0.245401	-0.011677
	H338	H	0.209209	-0.207556	-0.042158
	O339	O	0.033637	1.220552	1.223185
	H340	H	0.052232	1.228997	1.235849
	H341	H	0.039407	1.229320	1.232438
	O342	O	0.224154	1.023556	1.217374
	H343	H	0.221917	1.006287	1.231222
	H344	H	0.240560	1.008870	1.214145
	O345	O	0.794570	0.966333	-0.057082
	H346	H	0.811890	0.987898	-0.043135
	H347	H	0.782220	0.991125	-0.088770
	O348	O	0.306806	0.504774	0.573543
	H349	H	0.313538	0.500173	0.565255
	H350	H	0.297425	0.519719	0.571804
	O351	O	0.065594	0.791993	1.052658
	H352	H	0.062411	0.794925	1.061894
	H353	H	0.073951	0.795021	1.050145
	O354	O	-0.339784	0.712192	0.544083
	H355	H	-0.337337	0.724742	0.541785
	H356	H	-0.330676	0.715978	0.530527
	O357	O	-0.307806	0.412615	0.310626
	H358	H	-0.302916	0.396226	0.344204
	H359	H	-0.330172	0.400702	0.293528
	O360	O	0.554828	0.435735	0.667412
	H361	H	0.538234	0.448556	0.656928
	H362	H	0.535625	0.446318	0.660348
	O363	O	0.223742	-0.014655	0.795581
	H364	H	0.232990	-0.000381	0.793034
	H365	H	0.220414	-0.005691	0.775466
	O366	O	0.312414	0.460375	0.378523
	H367	H	0.310919	0.469731	0.374259
	H368	H	0.295378	0.459955	0.369585
	O369	O	0.477426	0.630145	0.530675
	H370	H	0.480866	0.638542	0.530060
	H371	H	0.471443	0.633973	0.539246
	O372	O	0.752525	-0.250545	1.222355
	H373	H	0.745712	-0.248349	1.213015
	H374	H	0.745651	-0.233593	1.205462
	O375	O	0.333844	0.489399	0.693670
	H376	H	0.312644	0.497966	0.694282
	H377	H	0.323336	0.495177	0.680854
	O378	O	0.996114	1.207225	0.801964
	H379	H	1.018656	1.215130	0.839294
	H380	H	1.002811	1.226257	0.780573
	O381	O	1.060184	0.021457	0.994476
	H382	H	1.067211	0.023563	0.987170
	H383	H	1.059289	0.028013	1.019739
	O384	O	0.381443	0.710552	0.537737
	H385	H	0.365387	0.718825	0.539862
	H386	H	0.403145	0.716181	0.550269
	O387	O	0.070571	0.052329	0.783037
	H388	H	0.065402	0.062197	0.786871
	H389	H	0.051994	0.037123	0.785108
	O390	O	-0.012869	-0.208169	0.215514
	H391	H	-0.008924	-0.236213	0.236822
	H392	H	-0.047242	-0.194475	0.203364
	O393	O	0.977021	1.043697	1.220904
	H394	H	0.996335	1.047637	1.216940
	H395	H	0.969759	1.053584	1.221653
	O396	O	0.797786	0.215757	-0.011835
	H397	H	0.787958	0.222028	-0.008850
	H398	H	0.787443	0.228191	-0.033006
	O399	O	0.805057	-0.041025	1.207241
	H400	H	0.782235	-0.043054	1.228952
	H401	H	0.813256	-0.019476	1.192119
	O402	O	1.223281	0.946592	1.063470
	H403	H	1.220410	0.955704	1.059392
	H404	H	1.225439	0.910139	1.054700
	O405	O	1.716842	0.533283	-0.289756
	H406	H	1.718740	0.525886	-0.282461
	H407	H	1.712148	0.519777	-0.269985
	O408	O	0.912060	0.033634	0.048437
	H409	H	0.930343	0.039670	0.053254
	H410	H	0.924392	0.054921	0.051612
	O411	O	0.830204	1.189577	-0.181377
	H412	H	0.854081	1.183534	-0.194771
	H413	H	0.845930	1.191705	-0.161169
	O414	O	-0.180708	1.011922	0.788516
	H415	H	-0.157691	1.014526	0.786383
	H416	H	-0.209473	1.014856	0.755738
	O417	O	0.543618	0.625109	0.383738
	H418	H	0.567014	0.622466	0.397574
	H419	H	0.524287	0.620287	0.383836
	O420	O	0.035275	-0.206643	-0.204482
	H421	H	0.047370	-0.216899	-0.210738
	H422	H	0.018521	-0.228377	-0.194057
	O423	O	0.634580	0.410990	0.418940
	H424	H	0.646051	0.412228	0.425314
	H425	H	0.614659	0.408592	0.421766
	O426	O	0.615818	0.585485	0.296499
	H427	H	0.620340	0.555751	0.312042
	H428	H	0.626839	0.588838	0.265461
	O429	O	0.602624	0.332856	0.540659
	H430	H	0.599691	0.322169	0.554463
	H431	H	0.576346	0.328867	0.528810
	O432	O	-0.081427	-0.067606	-0.187931
	H433	H	-0.084412	-0.071505	-0.188951
	H434	H	-0.080715	-0.081973	-0.178826
	O435	O	0.376084	0.644883	0.316919
	H436	H	0.400009	0.648445	0.328554
	H437	H	0.370730	0.635360	0.299424
	O438	O	-0.015502	0.005069	0.012049
	H439	H	-0.008934	0.020425	0.020589
	H440	H	-0.014572	-0.017378	0.000874
	O441	O	0.593710	0.686964	-0.287382
	H442	H	0.597118	0.713307	-0.265110
	H443	H	0.628860	0.664091	-0.298848
	O444	O	0.194000	0.824162	0.829722
	H445	H	0.204129	0.857949	0.838141
	H446	H	0.162472	0.833661	0.817075
	O447	O	0.546544	0.383031	0.458924
	H448	H	0.539205	0.385876	0.446231
	H449	H	0.549746	0.388148	0.456413
	O450	O	0.665051	0.622077	0.404538
	H451	H	0.671581	0.624554	0.395391
	H452	H	0.661411	0.598703	0.404274
	O453	O	0.453409	0.420063	0.332222
	H454	H	0.438704	0.447113	0.330466
	H455	H	0.448303	0.412493	0.330904
