data_Molecule from HDF5

_cell_length_a		16.251085
_cell_length_b		16.308677
_cell_length_c		16.284081
_cell_angle_alpha	90.170389
_cell_angle_beta	89.667784
_cell_angle_gamma	89.715301
_symmetry_space_group_name_H-M	'P 1'
_symmetry_Int_Tables_number		1

loop_
	_symmetry_equiv_pos_as_xyz
	x,y,z

loop_
	_atom_site_label
	_atom_site_type_symbol
	_atom_site_fract_x
	_atom_site_fract_y
	_atom_site_fract_z
	H0	H	0.402504	0.843006	0.714657
	H1	H	0.599092	0.169584	0.711613
	H2	H	0.602275	0.842990	0.281955
	H3	H	0.401192	0.169545	0.283663
	H4	H	0.716612	0.408450	0.834441
	H5	H	0.714125	0.604535	0.162367
	H6	H	0.287630	0.604281	0.833862
	H7	H	0.285525	0.408547	0.160981
	H8	H	0.837775	0.720512	0.401029
	H9	H	0.165044	0.719580	0.598074
	H10	H	0.837387	0.291764	0.598331
	H11	H	0.164647	0.289028	0.397278
	H12	H	0.837665	0.408601	0.713690
	H13	H	0.164945	0.602263	0.710929
	H14	H	0.836665	0.603475	0.285953
	H15	H	0.164541	0.404641	0.281686
	H16	H	0.402546	0.721664	0.834383
	H17	H	0.598958	0.721387	0.161427
	H18	H	0.603240	0.291124	0.834589
	H19	H	0.401181	0.291916	0.161089
	H20	H	0.717152	0.841781	0.397987
	H21	H	0.715518	0.169478	0.596478
	H22	H	0.286668	0.842214	0.598420
	H23	H	0.285592	0.168635	0.401357
	H24	H	0.903413	0.341632	0.211871
	H25	H	0.099647	0.668277	0.214564
	H26	H	0.102050	0.342423	0.781827
	H27	H	0.902480	0.668868	0.785406
	H28	H	0.218880	0.904939	0.335568
	H29	H	0.213055	0.103685	0.662290
	H30	H	0.789187	0.101744	0.334097
	H31	H	0.787142	0.909199	0.661700
	H32	H	0.338489	0.221756	0.899919
	H33	H	0.666077	0.221163	0.095715
	H34	H	0.338415	0.793043	0.097934
	H35	H	0.665262	0.789856	0.897128
	H36	H	0.339099	0.909468	0.213259
	H37	H	0.666617	0.104151	0.211176
	H38	H	0.338472	0.106784	0.783956
	H39	H	0.666743	0.907239	0.783440
	H40	H	0.902411	0.219572	0.334927
	H41	H	0.098850	0.220203	0.661468
	H42	H	0.103980	0.788295	0.335178
	H43	H	0.902421	0.792133	0.662049
	H44	H	0.218157	0.343298	0.898385
	H45	H	0.212810	0.670159	0.096123
	H46	H	0.787305	0.341881	0.095912
	H47	H	0.788070	0.669386	0.902748
	H48	H	0.407252	0.124994	0.601962
	H49	H	0.595262	0.889722	0.589591
	H50	H	0.593600	0.120090	0.407758
	H51	H	0.411566	0.887626	0.396073
	H52	H	0.600971	0.425377	0.112684
	H53	H	0.590139	0.600342	0.883155
	H54	H	0.402507	0.613269	0.119478
	H55	H	0.402452	0.422796	0.881824
	H56	H	0.115428	0.595144	0.410008
	H57	H	0.883529	0.602918	0.590065
	H58	H	0.117846	0.409864	0.587669
	H59	H	0.886105	0.407289	0.415468
	H60	H	0.117042	0.413971	0.588557
	H61	H	0.885451	0.596814	0.590797
	H62	H	0.118111	0.593235	0.400869
	H63	H	0.886953	0.422905	0.404017
	H64	H	0.398715	0.590129	0.114055
	H65	H	0.598203	0.603050	0.879421
	H66	H	0.579913	0.413026	0.110791
	H67	H	0.421830	0.415449	0.885328
	H68	H	0.599991	0.123338	0.405829
	H69	H	0.594560	0.889868	0.591223
	H70	H	0.415678	0.118103	0.587524
	H71	H	0.419666	0.894215	0.409848
	H72	H	0.900905	0.624876	0.096862
	H73	H	0.095216	0.390793	0.085429
	H74	H	0.099517	0.623390	0.903998
	H75	H	0.902773	0.385107	0.898289
	H76	H	0.087296	0.907220	0.614028
	H77	H	0.097904	0.099042	0.380983
	H78	H	0.902447	0.105097	0.617588
	H79	H	0.912976	0.923277	0.385694
	H80	H	0.615715	0.092516	0.906000
	H81	H	0.382995	0.103130	0.100748
	H82	H	0.620174	0.910985	0.088630
	H83	H	0.385405	0.915771	0.902216
	H84	H	0.618282	0.914110	0.088522
	H85	H	0.386150	0.106731	0.084120
	H86	H	0.621547	0.099632	0.897163
	H87	H	0.385421	0.911028	0.909000
	H88	H	0.904068	0.091828	0.613587
	H89	H	0.095013	0.091731	0.382921
	H90	H	0.099702	0.908925	0.617312
	H91	H	0.919058	0.901412	0.380758
	H92	H	0.089546	0.623270	0.899096
	H93	H	0.097818	0.387939	0.093393
	H94	H	0.912687	0.620919	0.097131
	H95	H	0.919007	0.390912	0.902911
	H96	H	0.398609	0.122111	0.587044
	H97	H	0.594055	0.890039	0.590307
	H98	H	0.594339	0.123349	0.400997
	H99	H	0.403029	0.889010	0.411103
	H100	H	0.600411	0.401321	0.120068
	H101	H	0.596966	0.593898	0.882422
	H102	H	0.419911	0.599541	0.109892
	H103	H	0.407247	0.402882	0.876879
	H104	H	0.119833	0.601877	0.404705
	H105	H	0.882720	0.600251	0.595723
	H106	H	0.118625	0.411469	0.592045
	H107	H	0.879600	0.405816	0.397223
	H108	H	0.906549	0.620074	0.086511
	H109	H	0.089270	0.390584	0.091839
	H110	H	0.091237	0.619132	0.909734
	H111	H	0.905707	0.391227	0.915012
	H112	H	0.092647	0.918377	0.612445
	H113	H	0.089645	0.098321	0.382749
	H114	H	0.914326	0.101161	0.614310
	H115	H	0.896806	0.908742	0.376822
	H116	H	0.619769	0.104933	0.909113
	H117	H	0.388753	0.089982	0.089461
	H118	H	0.619785	0.912348	0.091439
	H119	H	0.388253	0.919009	0.909023
	C120	C	0.378783	0.013858	0.621207
	C121	C	0.622954	0.997906	0.618868
	C122	C	0.624451	0.014155	0.375924
	C123	C	0.381389	0.997925	0.377309
	C124	C	0.623263	0.384434	0.006602
	C125	C	0.622935	0.627848	0.989899
	C126	C	0.378999	0.628875	0.006175
	C127	C	0.380505	0.384991	0.989326
	C128	C	0.009623	0.625923	0.377139
	C129	C	0.992518	0.627450	0.620125
	C130	C	0.009582	0.383991	0.619283
	C131	C	0.992478	0.382868	0.376185
	C132	C	0.878739	0.514010	0.120706
	C133	C	0.122276	0.497664	0.119205
	C134	C	0.123576	0.514271	0.875100
	C135	C	0.880086	0.496904	0.877107
	C136	C	0.123464	0.882592	0.506782
	C137	C	0.122178	0.125769	0.490064
	C138	C	0.878765	0.127645	0.506968
	C139	C	0.880581	0.883920	0.489545
	C140	C	0.510855	0.128231	0.876212
	C141	C	0.494191	0.128252	0.119574
	C142	C	0.510931	0.884758	0.119011
	C143	C	0.494122	0.885499	0.876969
	C144	C	0.381919	0.891558	0.676617
	C145	C	0.619858	0.120882	0.673878
	C146	C	0.622623	0.891491	0.320052
	C147	C	0.381751	0.120500	0.321736
	C148	C	0.679347	0.387096	0.883527
	C149	C	0.677148	0.625517	0.113140
	C150	C	0.325194	0.625217	0.882779
	C151	C	0.323853	0.387808	0.112183
	C152	C	0.886491	0.682249	0.380204
	C153	C	0.115844	0.681662	0.617805
	C154	C	0.886253	0.329789	0.617815
	C155	C	0.115495	0.326630	0.376894
	C156	C	0.886272	0.387634	0.675275
	C157	C	0.115964	0.623310	0.673985
	C158	C	0.885822	0.623654	0.323455
	C159	C	0.115542	0.384626	0.319777
	C160	C	0.382022	0.683764	0.883205
	C161	C	0.619675	0.683537	0.112889
	C162	C	0.622628	0.328968	0.883468
	C163	C	0.381263	0.329849	0.112234
	C164	C	0.679550	0.890936	0.377970
	C165	C	0.677553	0.120679	0.616297
	C166	C	0.324179	0.891253	0.618830
	C167	C	0.324199	0.120101	0.380234
	C168	C	0.881885	0.390659	0.174851
	C169	C	0.119634	0.620062	0.175746
	C170	C	0.122278	0.391359	0.819546
	C171	C	0.881915	0.619980	0.822578
	C172	C	0.180333	0.884605	0.384228
	C173	C	0.176032	0.123735	0.613219
	C174	C	0.825922	0.123207	0.383256
	C175	C	0.824901	0.887798	0.612859
	C176	C	0.387563	0.184129	0.879109
	C177	C	0.617380	0.183141	0.116244
	C178	C	0.387418	0.830752	0.117744
	C179	C	0.616975	0.828794	0.877656
	C180	C	0.387913	0.888522	0.175046
	C181	C	0.617676	0.125191	0.173801
	C182	C	0.387521	0.126736	0.821589
	C183	C	0.617549	0.887262	0.821251
	C184	C	0.881979	0.182078	0.383898
	C185	C	0.119261	0.181539	0.612899
	C186	C	0.123176	0.826615	0.384083
	C187	C	0.882573	0.830001	0.613179
	C188	C	0.179731	0.391697	0.877670
	C189	C	0.176273	0.620836	0.116993
	C190	C	0.824383	0.390874	0.117165
	C191	C	0.825414	0.620369	0.881323
	C192	C	0.400651	0.099728	0.598852
	C193	C	0.601002	0.911854	0.596873
	C194	C	0.602506	0.100034	0.398263
	C195	C	0.404557	0.912348	0.399277
	C196	C	0.600255	0.406560	0.092351
	C197	C	0.601421	0.605495	0.904002
	C198	C	0.400689	0.607322	0.092109
	C199	C	0.403525	0.407137	0.903801
	C200	C	0.095571	0.603322	0.398784
	C201	C	0.906220	0.606264	0.598618
	C202	C	0.095680	0.405443	0.596274
	C203	C	0.906545	0.405264	0.399118
	C204	C	0.900294	0.599751	0.099642
	C205	C	0.100708	0.412055	0.096518
	C206	C	0.100355	0.599853	0.897564
	C207	C	0.902546	0.411279	0.898935
	C208	C	0.100182	0.904997	0.592303
	C209	C	0.100601	0.103053	0.404435
	C210	C	0.900639	0.106158	0.592897
	C211	C	0.902978	0.904937	0.403390
	C212	C	0.596848	0.105655	0.897806
	C213	C	0.408242	0.106494	0.097853
	C214	C	0.597105	0.906001	0.096257
	C215	C	0.408486	0.908512	0.900013
	Zn216	Zn	0.501921	0.006253	0.748465
	Zn217	Zn	0.503098	0.006568	0.247660
	Zn218	Zn	0.751479	0.505724	-0.001146
	Zn219	Zn	0.251457	0.506677	-0.002238
	Zn220	Zn	0.001686	0.754751	0.498294
	Zn221	Zn	0.001083	0.254775	0.498373
	Zn222	Zn	0.001075	0.505633	0.747833
	Zn223	Zn	0.000733	0.505006	0.248413
	Zn224	Zn	0.501496	0.756756	-0.002407
	Zn225	Zn	0.502294	0.256297	-0.002241
	Zn226	Zn	0.751847	0.005306	0.497467
	Zn227	Zn	0.250988	0.005230	0.498806
	N228	N	0.415169	0.968891	0.678107
	N229	N	0.586559	0.043363	0.675670
	N230	N	0.589048	0.969005	0.318582
	N231	N	0.416647	0.043270	0.319699
	N232	N	0.679582	0.421274	0.960896
	N233	N	0.679209	0.591737	0.035775
	N234	N	0.323041	0.592043	0.960226
	N235	N	0.323173	0.421276	0.034844
	N236	N	0.964397	0.683812	0.412815
	N237	N	0.038123	0.684297	0.585078
	N238	N	0.963904	0.327454	0.583567
	N239	N	0.038044	0.325534	0.411436
	N240	N	0.963926	0.420528	0.676234
	N241	N	0.038123	0.590385	0.675760
	N242	N	0.963295	0.589270	0.321499
	N243	N	0.037942	0.418682	0.318869
	N244	N	0.414737	0.686258	0.961047
	N245	N	0.586691	0.685150	0.035305
	N246	N	0.588555	0.327104	0.961036
	N247	N	0.416053	0.328142	0.034996
	N248	N	0.680711	0.968215	0.411959
	N249	N	0.679374	0.043129	0.582670
	N250	N	0.322213	0.968436	0.585219
	N251	N	0.323991	0.042955	0.414068
	N252	N	0.914960	0.468191	0.177230
	N253	N	0.086779	0.542500	0.177247
	N254	N	0.088151	0.468723	0.818011
	N255	N	0.915435	0.542495	0.820113
	N256	N	0.180748	0.918862	0.461594
	N257	N	0.177865	0.089611	0.535796
	N258	N	0.823664	0.090143	0.460816
	N259	N	0.823814	0.920611	0.535151
	N260	N	0.465139	0.184956	0.912512
	N261	N	0.539556	0.185219	0.083354
	N262	N	0.465005	0.828276	0.083575
	N263	N	0.539333	0.827677	0.911679
	N264	N	0.465804	0.921294	0.175984
	N265	N	0.540134	0.092066	0.176108
	N266	N	0.465140	0.092749	0.819533
	N267	N	0.540137	0.921988	0.820713
	N268	N	0.914132	0.184771	0.461857
	N269	N	0.086356	0.182942	0.535325
	N270	N	0.088762	0.825071	0.461344
	N271	N	0.916382	0.827352	0.535471
	N272	N	0.180697	0.469058	0.911437
	N273	N	0.178051	0.543635	0.082574
	N274	N	0.822414	0.468375	0.084289
	N275	N	0.824002	0.542799	0.914515
	O276	O	0.087329	0.012003	0.028379
	H277	H	0.092252	0.019651	0.023644
	H278	H	0.096327	0.006215	0.039715
	O279	O	0.417409	0.591575	0.385597
	H280	H	0.417453	0.589203	0.384246
	H281	H	0.422363	0.593501	0.389362
	O282	O	0.468553	0.489361	0.445808
	H283	H	0.467853	0.492429	0.444842
	H284	H	0.459225	0.485851	0.442271
	O285	O	1.026805	-0.015689	1.052586
	H286	H	1.025885	-0.016216	1.060069
	H287	H	1.019348	-0.018817	1.056464
	O288	O	1.077528	-0.053617	-0.097188
	H289	H	1.083237	-0.051922	-0.097061
	H290	H	1.082299	-0.050258	-0.103705
	O291	O	0.536497	0.504155	0.572650
	H292	H	0.529326	0.510873	0.569689
	H293	H	0.529251	0.494340	0.574437
	O294	O	1.080602	-0.046906	0.992551
	H295	H	1.083972	-0.051770	0.986472
	H296	H	1.091632	-0.049170	0.992647
	O297	O	0.062981	-0.036249	-0.058210
	H298	H	0.052938	-0.045176	-0.063819
	H299	H	0.066141	-0.020948	-0.056430
	O300	O	0.510558	0.410533	0.497890
	H301	H	0.516019	0.403023	0.492079
	H302	H	0.505353	0.420418	0.497437
	O303	O	0.468792	0.359176	0.524824
	H304	H	0.469420	0.352687	0.521401
	H305	H	0.469420	0.359483	0.520997
	O306	O	1.064543	0.076888	-0.005804
	H307	H	1.071009	0.075379	0.001028
	H308	H	1.059489	0.080817	-0.003420
	O309	O	0.006766	0.057214	1.050048
	H310	H	0.008782	0.054929	1.053187
	H311	H	0.005413	0.052470	1.049815
	O312	O	1.102397	0.923368	0.985222
	H313	H	1.092163	0.920222	0.979390
	H314	H	1.119002	0.910992	0.980349
	O315	O	0.457660	0.567398	0.515544
	H316	H	0.456248	0.563654	0.521332
	H317	H	0.458048	0.565964	0.514768
	O318	O	0.480620	0.529672	0.555157
	H319	H	0.473366	0.538738	0.565485
	H320	H	0.483072	0.516726	0.554744
	O321	O	0.080345	0.955976	1.031713
	H322	H	0.073510	0.951186	1.038081
	H323	H	0.089781	0.953033	1.029814
	O324	O	0.432145	0.417028	0.432279
	H325	H	0.443736	0.406324	0.429968
	H326	H	0.439727	0.430371	0.429357
	O327	O	0.463711	0.600453	0.485048
	H328	H	0.459072	0.602422	0.483193
	H329	H	0.449891	0.613895	0.485700
	O330	O	0.532353	0.474077	0.468990
	H331	H	0.525123	0.470500	0.475238
	H332	H	0.534302	0.460967	0.470160
	O333	O	0.560561	0.447732	0.522097
	H334	H	0.563922	0.447647	0.517524
	H335	H	0.559213	0.446474	0.516585
	O336	O	0.504101	0.554718	0.485769
	H337	H	0.505569	0.553279	0.491907
	H338	H	0.513735	0.551083	0.476839
	O339	O	1.019508	0.993784	-0.093510
	H340	H	1.024276	1.001096	-0.092193
	H341	H	1.022998	1.000701	-0.098699
	O342	O	0.576654	0.490153	0.438483
	H343	H	0.570296	0.492357	0.425173
	H344	H	0.571867	0.499100	0.444429
	O345	O	0.523434	0.528131	0.527341
	H346	H	0.528356	0.534812	0.530583
	H347	H	0.521173	0.521014	0.523589
	O348	O	0.007081	0.031071	0.069419
	H349	H	-0.003401	0.033544	0.070933
	H350	H	-0.002974	0.048792	0.076441
	O351	O	-0.011689	1.036418	1.034776
	H352	H	-0.013458	1.035507	1.033684
	H353	H	-0.010061	1.034692	1.029655
	O354	O	0.510813	0.557029	0.423605
	H355	H	0.526613	0.558206	0.435310
	H356	H	0.514478	0.564147	0.414661
	O357	O	0.067858	0.985892	0.966120
	H358	H	0.062065	0.996874	0.973129
	H359	H	0.081109	0.977620	0.957976
