data_Molecule from HDF5

_cell_length_a		16.535604
_cell_length_b		16.572430
_cell_length_c		16.702479
_cell_angle_alpha	90.172494
_cell_angle_beta	90.137520
_cell_angle_gamma	90.035519
_symmetry_space_group_name_H-M	'P 1'
_symmetry_Int_Tables_number		1

loop_
	_symmetry_equiv_pos_as_xyz
	x,y,z

loop_
	_atom_site_label
	_atom_site_type_symbol
	_atom_site_fract_x
	_atom_site_fract_y
	_atom_site_fract_z
	H0	H	0.393295	0.869724	0.720967
	H1	H	0.608842	0.178261	0.719837
	H2	H	0.607709	0.867876	0.274685
	H3	H	0.401103	0.181644	0.279685
	H4	H	0.726147	0.416582	0.843632
	H5	H	0.723809	0.628492	0.152731
	H6	H	0.277014	0.631938	0.843487
	H7	H	0.282325	0.419448	0.151989
	H8	H	0.847161	0.745006	0.391417
	H9	H	0.158046	0.745397	0.603378
	H10	H	0.845627	0.303442	0.600242
	H11	H	0.162943	0.309902	0.399765
	H12	H	0.846636	0.416837	0.719600
	H13	H	0.157381	0.630794	0.720290
	H14	H	0.847544	0.629820	0.275046
	H15	H	0.161044	0.421791	0.279864
	H16	H	0.393580	0.748525	0.844291
	H17	H	0.608009	0.745903	0.151977
	H18	H	0.607239	0.302314	0.841889
	H19	H	0.397464	0.301960	0.150443
	H20	H	0.722924	0.867419	0.392817
	H21	H	0.723548	0.179794	0.601821
	H22	H	0.280437	0.867365	0.601012
	H23	H	0.287083	0.182542	0.397890
	H24	H	0.901444	0.366113	0.215060
	H25	H	0.110266	0.679671	0.220211
	H26	H	0.106778	0.367578	0.776529
	H27	H	0.897715	0.680464	0.777814
	H28	H	0.217542	0.923839	0.339067
	H29	H	0.217886	0.121892	0.655884
	H30	H	0.783806	0.125073	0.340630
	H31	H	0.780143	0.918026	0.651294
	H32	H	0.346364	0.242287	0.893267
	H33	H	0.660648	0.241852	0.098348
	H34	H	0.345454	0.804198	0.098802
	H35	H	0.659492	0.801248	0.891355
	H36	H	0.345067	0.920435	0.215305
	H37	H	0.660292	0.126462	0.216365
	H38	H	0.347228	0.128201	0.774863
	H39	H	0.658475	0.915093	0.773559
	H40	H	0.902006	0.241329	0.340288
	H41	H	0.100526	0.238189	0.656443
	H42	H	0.104548	0.803873	0.341622
	H43	H	0.896156	0.801022	0.651258
	H44	H	0.221567	0.366554	0.894256
	H45	H	0.222920	0.680858	0.100895
	H46	H	0.785319	0.366152	0.098418
	H47	H	0.783643	0.681627	0.896190
	H48	H	0.421891	0.131826	0.585810
	H49	H	0.590037	0.913894	0.578125
	H50	H	0.597763	0.137389	0.409553
	H51	H	0.413279	0.912050	0.406037
	H52	H	0.598061	0.428810	0.111312
	H53	H	0.591896	0.608775	0.887312
	H54	H	0.412762	0.617335	0.109169
	H55	H	0.409481	0.431067	0.882816
	H56	H	0.112951	0.611263	0.413619
	H57	H	0.889914	0.613356	0.584203
	H58	H	0.113925	0.434658	0.585428
	H59	H	0.890249	0.432497	0.404985
	H60	H	0.114807	0.437268	0.591185
	H61	H	0.891222	0.608358	0.584316
	H62	H	0.115144	0.607964	0.406570
	H63	H	0.889406	0.433424	0.404340
	H64	H	0.410691	0.607257	0.107276
	H65	H	0.589083	0.612722	0.886863
	H66	H	0.595094	0.438656	0.107674
	H67	H	0.412415	0.438696	0.886466
	H68	H	0.590346	0.137126	0.400570
	H69	H	0.596820	0.908757	0.588001
	H70	H	0.411135	0.133895	0.579923
	H71	H	0.406761	0.908386	0.404520
	H72	H	0.911379	0.639072	0.093309
	H73	H	0.094650	0.408395	0.094345
	H74	H	0.087354	0.634974	0.906777
	H75	H	0.915607	0.413152	0.907954
	H76	H	0.090547	0.935615	0.608312
	H77	H	0.094295	0.114751	0.385885
	H78	H	0.917907	0.116019	0.607550
	H79	H	0.914418	0.942116	0.388821
	H80	H	0.615142	0.111524	0.908937
	H81	H	0.388981	0.122987	0.082568
	H82	H	0.617006	0.934185	0.089890
	H83	H	0.391310	0.933886	0.908719
	H84	H	0.615410	0.931874	0.085140
	H85	H	0.393052	0.106542	0.085245
	H86	H	0.614981	0.110618	0.907907
	H87	H	0.393974	0.938163	0.912186
	H88	H	0.909804	0.118141	0.610483
	H89	H	0.094844	0.122125	0.383166
	H90	H	0.092230	0.931650	0.609588
	H91	H	0.920706	0.931547	0.387724
	H92	H	0.090824	0.634879	0.912692
	H93	H	0.087452	0.413938	0.087191
	H94	H	0.919934	0.635254	0.089116
	H95	H	0.913314	0.411736	0.909098
	H96	H	0.412320	0.137649	0.591516
	H97	H	0.584490	0.911762	0.589650
	H98	H	0.587331	0.132576	0.410660
	H99	H	0.412279	0.909258	0.399419
	H100	H	0.587855	0.430455	0.108096
	H101	H	0.593680	0.612986	0.885264
	H102	H	0.420009	0.611480	0.105026
	H103	H	0.417932	0.431928	0.885974
	H104	H	0.116602	0.615896	0.407948
	H105	H	0.889309	0.610858	0.588815
	H106	H	0.116250	0.431119	0.589979
	H107	H	0.889072	0.432519	0.404158
	H108	H	0.911514	0.635196	0.083920
	H109	H	0.097681	0.411440	0.084394
	H110	H	0.093525	0.636854	0.906648
	H111	H	0.914159	0.412295	0.906116
	H112	H	0.094694	0.935308	0.609614
	H113	H	0.100909	0.117469	0.382469
	H114	H	0.911636	0.109662	0.608479
	H115	H	0.909071	0.932358	0.383631
	H116	H	0.615621	0.111763	0.907855
	H117	H	0.386147	0.115654	0.097896
	H118	H	0.613773	0.936936	0.086680
	H119	H	0.392628	0.939770	0.905990
	C120	C	0.381860	0.031685	0.617601
	C121	C	0.623814	1.014458	0.618129
	C122	C	0.623329	0.031958	0.375478
	C123	C	0.380831	1.014860	0.374568
	C124	C	0.625121	0.401284	0.006156
	C125	C	0.624190	0.644678	0.988904
	C126	C	0.381163	0.645257	0.005324
	C127	C	0.381362	0.402005	0.987873
	C128	C	0.011744	0.644403	0.376579
	C129	C	0.993295	0.644295	0.618582
	C130	C	0.010978	0.402615	0.619423
	C131	C	0.994693	0.402502	0.375789
	C132	C	0.882657	0.532474	0.119035
	C133	C	0.125147	0.515433	0.119642
	C134	C	0.122965	0.532436	0.876494
	C135	C	0.881750	0.515701	0.876405
	C136	C	0.123623	0.903011	0.505504
	C137	C	0.125368	0.146584	0.488773
	C138	C	0.881864	0.145416	0.505588
	C139	C	0.881750	0.902477	0.488819
	C140	C	0.511670	0.143708	0.875689
	C141	C	0.494061	0.145316	0.118581
	C142	C	0.511158	0.902667	0.118121
	C143	C	0.495165	0.902946	0.875711
	C144	C	0.376882	0.915352	0.679225
	C145	C	0.627064	0.131717	0.679189
	C146	C	0.625606	0.914403	0.315558
	C147	C	0.381433	0.134121	0.318357
	C148	C	0.685736	0.398518	0.889812
	C149	C	0.684241	0.647205	0.105868
	C150	C	0.318579	0.649441	0.889720
	C151	C	0.321895	0.400535	0.104816
	C152	C	0.894211	0.704882	0.373474
	C153	C	0.110932	0.705351	0.621645
	C154	C	0.892807	0.342897	0.619763
	C155	C	0.114682	0.347042	0.378631
	C156	C	0.893079	0.399418	0.678778
	C157	C	0.110702	0.648347	0.679701
	C158	C	0.894480	0.647586	0.315599
	C159	C	0.113960	0.402686	0.319219
	C160	C	0.376581	0.707168	0.889740
	C161	C	0.626554	0.705384	0.105491
	C162	C	0.626847	0.341560	0.888975
	C163	C	0.379194	0.342075	0.104257
	C164	C	0.682869	0.914081	0.374094
	C165	C	0.683845	0.132372	0.620543
	C166	C	0.320652	0.914326	0.619908
	C167	C	0.324773	0.134531	0.377063
	C168	C	0.882350	0.413455	0.176010
	C169	C	0.127632	0.633072	0.179257
	C170	C	0.125134	0.414521	0.816551
	C171	C	0.879669	0.633761	0.817786
	C172	C	0.179658	0.903819	0.386743
	C173	C	0.179852	0.142653	0.608374
	C174	C	0.823247	0.145150	0.387576
	C175	C	0.820792	0.899914	0.604960
	C176	C	0.393512	0.202905	0.874221
	C177	C	0.613548	0.202777	0.118144
	C178	C	0.392682	0.843806	0.118209
	C179	C	0.612499	0.841470	0.872960
	C180	C	0.392697	0.901451	0.176216
	C181	C	0.613185	0.145844	0.176655
	C182	C	0.394075	0.146506	0.815277
	C183	C	0.612060	0.898236	0.814578
	C184	C	0.881869	0.202754	0.387254
	C185	C	0.121739	0.200589	0.608639
	C186	C	0.123557	0.844078	0.388002
	C187	C	0.877966	0.841241	0.604789
	C188	C	0.181932	0.413829	0.875298
	C189	C	0.183838	0.633529	0.120103
	C190	C	0.824890	0.413439	0.117929
	C191	C	0.822993	0.634272	0.876551
	C192	C	0.407760	0.113099	0.592592
	C193	C	0.597895	0.932735	0.592452
	C194	C	0.598786	0.114313	0.400025
	C195	C	0.404043	0.931590	0.397087
	C196	C	0.600714	0.425586	0.087735
	C197	C	0.598809	0.618837	0.907539
	C198	C	0.407272	0.619550	0.086015
	C199	C	0.406172	0.426644	0.906261
	C200	C	0.093759	0.619052	0.401938
	C201	C	0.911318	0.618224	0.592870
	C202	C	0.093602	0.427544	0.595683
	C203	C	0.911158	0.426018	0.398073
	C204	C	0.907301	0.614879	0.095628
	C205	C	0.100354	0.432740	0.095469
	C206	C	0.097922	0.614293	0.901408
	C207	C	0.906914	0.433653	0.900814
	C208	C	0.099600	0.927127	0.587595
	C209	C	0.103046	0.124735	0.405441
	C210	C	0.906138	0.121615	0.587354
	C211	C	0.907413	0.928000	0.407823
	C212	C	0.594045	0.118335	0.900943
	C213	C	0.411123	0.121837	0.095291
	C214	C	0.593849	0.927402	0.094195
	C215	C	0.413848	0.929451	0.901588
	Zn216	Zn	0.502900	0.022964	0.746857
	Zn217	Zn	0.502471	0.024229	0.246636
	Zn218	Zn	0.753588	0.523864	-0.002356
	Zn219	Zn	0.252551	0.523748	-0.003176
	Zn220	Zn	0.002550	0.772761	0.497459
	Zn221	Zn	0.003220	0.275033	0.497475
	Zn222	Zn	0.002083	0.524024	0.747501
	Zn223	Zn	0.003882	0.523794	0.247780
	Zn224	Zn	0.503103	0.773943	-0.003610
	Zn225	Zn	0.503240	0.272682	-0.003730
	Zn226	Zn	0.752037	0.023608	0.496857
	Zn227	Zn	0.253242	0.023743	0.497097
	N228	N	0.414390	0.989242	0.677898
	N229	N	0.590803	0.057119	0.678134
	N230	N	0.589342	0.988884	0.316284
	N231	N	0.415312	0.058461	0.316389
	N232	N	0.684805	0.435097	0.963569
	N233	N	0.682651	0.609937	0.032332
	N234	N	0.321191	0.611706	0.962609
	N235	N	0.322991	0.437012	0.031176
	N236	N	0.968143	0.703011	0.410755
	N237	N	0.036748	0.703188	0.584457
	N238	N	0.967312	0.344618	0.583661
	N239	N	0.039252	0.346493	0.412759
	N240	N	0.967615	0.435931	0.678648
	N241	N	0.036421	0.611341	0.678113
	N242	N	0.968738	0.610663	0.317228
	N243	N	0.038128	0.436256	0.317063
	N244	N	0.414770	0.704773	0.962628
	N245	N	0.589892	0.703974	0.031733
	N246	N	0.589952	0.342989	0.962347
	N247	N	0.415381	0.342720	0.030343
	N248	N	0.681638	0.988273	0.410637
	N249	N	0.682178	0.058282	0.583542
	N250	N	0.323685	0.987554	0.582084
	N251	N	0.323882	0.059176	0.411039
	N252	N	0.917342	0.488589	0.177197
	N253	N	0.091805	0.558351	0.179108
	N254	N	0.089285	0.489228	0.817137
	N255	N	0.915297	0.558906	0.817450
	N256	N	0.180178	0.939448	0.460985
	N257	N	0.182473	0.110151	0.532575
	N258	N	0.822567	0.110590	0.462218
	N259	N	0.822942	0.937367	0.531944
	N260	N	0.467835	0.201234	0.911116
	N261	N	0.538431	0.202731	0.082828
	N262	N	0.467674	0.844243	0.082911
	N263	N	0.538675	0.844087	0.910374
	N264	N	0.467496	0.937262	0.176308
	N265	N	0.537920	0.111001	0.177238
	N266	N	0.468802	0.110504	0.816130
	N267	N	0.538101	0.935653	0.816161
	N268	N	0.917483	0.203078	0.461578
	N269	N	0.088955	0.203371	0.533101
	N270	N	0.089647	0.843209	0.462922
	N271	N	0.915266	0.842865	0.531509
	N272	N	0.180709	0.488063	0.912085
	N273	N	0.182594	0.559144	0.083922
	N274	N	0.824565	0.488577	0.083563
	N275	N	0.823989	0.559686	0.912153
	O276	O	0.209403	1.233047	0.203699
	H277	H	0.217715	1.187822	0.202536
	H278	H	0.244985	1.262826	0.235233
	O279	O	0.183395	-0.027570	0.040746
	H280	H	0.184052	-0.031666	0.033516
	H281	H	0.185603	-0.031919	0.018030
	O282	O	1.004985	0.153363	1.002321
	H283	H	1.016533	0.152165	0.994207
	H284	H	1.000337	0.159370	1.017356
	O285	O	-0.152106	-0.078459	1.031695
	H286	H	-0.166129	-0.069281	1.024893
	H287	H	-0.144214	-0.091187	1.021881
	O288	O	0.711264	0.711461	0.506666
	H289	H	0.716575	0.705519	0.493543
	H290	H	0.713832	0.700096	0.499652
	O291	O	-0.510783	0.329243	0.525753
	H292	H	-0.501282	0.331794	0.529775
	H293	H	-0.508104	0.322718	0.523944
	O294	O	0.979292	-0.001070	0.770093
	H295	H	0.974267	0.004351	0.780884
	H296	H	0.975499	-0.029356	0.764892
	O297	O	0.522370	0.736303	0.416954
	H298	H	0.516407	0.726096	0.418199
	H299	H	0.506447	0.738122	0.438048
	O300	O	-0.292852	-0.464231	0.483516
	H301	H	-0.307889	-0.474488	0.479744
	H302	H	-0.278977	-0.493566	0.483289
	O303	O	0.503154	0.715130	0.539042
	H304	H	0.505655	0.717118	0.544796
	H305	H	0.504049	0.713955	0.545468
	O306	O	0.281838	0.496158	0.718603
	H307	H	0.278970	0.470333	0.720586
	H308	H	0.262172	0.471152	0.734378
	O309	O	0.699311	0.318843	0.449559
	H310	H	0.692887	0.328683	0.420631
	H311	H	0.731092	0.289977	0.450745
	O312	O	0.379787	0.459128	0.486385
	H313	H	0.374979	0.435883	0.490103
	H314	H	0.373869	0.463354	0.482608
	O315	O	1.721582	0.492927	1.274997
	H316	H	1.725978	0.476086	1.281039
	H317	H	1.741187	0.478357	1.260933
	O318	O	0.465850	0.620793	0.500705
	H319	H	0.459423	0.632856	0.498869
	H320	H	0.471114	0.609537	0.514335
	O321	O	0.136781	1.044237	0.821337
	H322	H	0.140189	1.022264	0.811464
	H323	H	0.136689	1.030596	0.821739
	O324	O	0.801147	0.987408	0.208449
	H325	H	0.813803	0.970695	0.209442
	H326	H	0.780322	0.977620	0.225732
	O327	O	0.092009	-0.054053	1.203404
	H328	H	0.087974	-0.059311	1.197696
	H329	H	0.104418	-0.050445	1.226395
	O330	O	0.446712	0.529918	0.552002
	H331	H	0.432848	0.516787	0.553705
	H332	H	0.444236	0.523607	0.556022
	O333	O	0.494872	0.568054	0.356905
	H334	H	0.500917	0.558331	0.355887
	H335	H	0.473377	0.563005	0.351745
	O336	O	0.316005	0.331832	0.300918
	H337	H	0.335115	0.351234	0.320383
	H338	H	0.334897	0.349700	0.317241
	O339	O	0.823224	-0.127505	0.830335
	H340	H	0.838433	-0.138473	0.828477
	H341	H	0.824763	-0.137423	0.834595
	O342	O	-0.203252	-0.182661	0.209219
	H343	H	-0.193298	-0.174768	0.186117
	H344	H	-0.236630	-0.215935	0.239047
	O345	O	-0.212423	1.055906	0.776424
	H346	H	-0.232217	1.046437	0.771838
	H347	H	-0.206448	1.033542	0.766061
	O348	O	1.216583	0.233563	1.026878
	H349	H	1.240508	0.255137	1.039507
	H350	H	1.198017	0.241232	1.047115
	O351	O	0.365985	0.557676	0.373598
	H352	H	0.358654	0.562643	0.365168
	H353	H	0.359953	0.573729	0.359341
	O354	O	-0.285889	-0.265633	0.709681
	H355	H	-0.287162	-0.266587	0.700494
	H356	H	-0.303059	-0.265942	0.681422
	O357	O	0.450384	0.583673	0.734206
	H358	H	0.442114	0.578271	0.739922
	H359	H	0.439648	0.581945	0.723276
	O360	O	0.323910	-0.268416	1.290887
	H361	H	0.335791	-0.260803	1.320453
	H362	H	0.319899	-0.245415	1.266761
	O363	O	0.031890	0.242737	0.186397
	H364	H	0.034738	0.267986	0.206835
	H365	H	0.071957	0.240198	0.190507
	O366	O	0.477752	0.741518	0.296410
	H367	H	0.487328	0.738527	0.302530
	H368	H	0.479767	0.753003	0.279572
	O369	O	0.706742	0.363951	0.357648
	H370	H	0.689513	0.366714	0.358572
	H371	H	0.712660	0.348914	0.342066
	O372	O	0.929486	0.988419	-0.122561
	H373	H	0.935168	0.978792	-0.133132
	H374	H	0.910819	0.989092	-0.114628
	O375	O	1.053190	0.079598	0.159431
	H376	H	1.053906	0.064184	0.164696
	H377	H	1.063763	0.070232	0.149991
	O378	O	0.311029	0.698165	0.679683
	H379	H	0.321594	0.678838	0.660677
	H380	H	0.324874	0.676867	0.666783
	O381	O	0.687402	0.343896	0.685695
	H382	H	0.714026	0.316176	0.709014
	H383	H	0.681486	0.364405	0.684414
	O384	O	0.865470	0.036635	1.099107
	H385	H	0.869192	0.043247	1.089894
	H386	H	0.869552	0.036827	1.104434
	O387	O	0.793678	1.253082	0.203374
	H388	H	0.800828	1.238899	0.199286
	H389	H	0.812239	1.232977	0.183759
	O390	O	0.280487	0.744314	0.460351
	H391	H	0.253971	0.760568	0.466463
	H392	H	0.288520	0.738916	0.462198
	O393	O	0.538158	0.321289	0.622379
	H394	H	0.554591	0.309782	0.595136
	H395	H	0.548806	0.316265	0.642238
	O396	O	-0.039795	0.951903	1.042267
	H397	H	-0.036314	0.972666	1.034068
	H398	H	-0.027792	0.952809	1.034864
	O399	O	-0.064833	0.186777	1.107851
	H400	H	-0.058598	0.169907	1.088159
	H401	H	-0.059824	0.190078	1.111080
	O402	O	0.222360	0.811197	0.776290
	H403	H	0.231727	0.792800	0.791606
	H404	H	0.245181	0.788237	0.770752
	O405	O	1.539796	-0.693389	1.275253
	H406	H	1.537162	-0.703450	1.282141
	H407	H	1.541443	-0.699626	1.262757
	O408	O	-0.296559	-0.425116	-0.292867
	H409	H	-0.292211	-0.416973	-0.292330
	H410	H	-0.285130	-0.410173	-0.296126
	O411	O	0.290317	0.314788	0.710401
	H412	H	0.344947	0.308321	0.717324
	H413	H	0.263250	0.279665	0.744261
	O414	O	0.369181	0.502487	0.362036
	H415	H	0.361907	0.513513	0.339460
	H416	H	0.365350	0.527069	0.364436
	O417	O	0.095586	-0.132173	0.037370
	H418	H	0.092420	-0.126309	0.037825
	H419	H	0.079581	-0.135027	0.045485
	O420	O	0.450861	0.456551	0.266974
	H421	H	0.452016	0.475573	0.263203
	H422	H	0.452744	0.450124	0.264661
	O423	O	0.026207	-0.189083	0.778147
	H424	H	0.047425	-0.198295	0.778678
	H425	H	0.049184	-0.202101	0.766588
	O426	O	0.479640	0.333707	0.455990
	H427	H	0.477939	0.337514	0.470464
	H428	H	0.484219	0.331563	0.467183
	O429	O	0.793599	0.842450	1.006806
	H430	H	0.794826	0.835143	1.004718
	H431	H	0.798229	0.834925	1.024089
	O432	O	0.286888	0.551525	0.517347
	H433	H	0.282921	0.554892	0.499168
	H434	H	0.294879	0.527978	0.516872
	O435	O	-0.005127	1.191271	-0.035962
	H436	H	-0.012515	1.193360	-0.037967
	H437	H	0.008946	1.199638	-0.032427
	O438	O	0.005234	-0.131261	0.091766
	H439	H	-0.000154	-0.139237	0.104144
	H440	H	-0.012040	-0.127173	0.095946
	O441	O	0.192028	-0.792566	-0.190315
	H442	H	0.170989	-0.816541	-0.183553
	H443	H	0.176269	-0.808138	-0.167297
	O444	O	0.713489	0.551747	-0.410586
	H445	H	0.723899	0.551235	-0.406176
	H446	H	0.708834	0.537674	-0.417337
	O447	O	0.521000	0.742441	0.716812
	H448	H	0.532817	0.732605	0.720391
	H449	H	0.527339	0.749909	0.740819
	O450	O	0.212120	1.007059	0.865229
	H451	H	0.220424	0.995846	0.851440
	H452	H	0.222639	1.006796	0.873432
	O453	O	0.455180	0.405257	0.646893
	H454	H	0.465577	0.407446	0.645915
	H455	H	0.459821	0.396195	0.658121
	O456	O	0.276573	0.295933	0.543806
	H457	H	0.252402	0.273616	0.557952
	H458	H	0.269162	0.291951	0.582057
	O459	O	1.197462	0.823402	-0.020151
	H460	H	1.189945	0.810816	-0.010576
	H461	H	1.193927	0.810349	-0.005722
	O462	O	0.788935	0.234276	-0.219359
	H463	H	0.803053	0.237269	-0.179990
	H464	H	0.782348	0.187521	-0.224394
	O465	O	0.898973	0.049710	0.007254
	H466	H	0.896405	0.051195	0.000613
	H467	H	0.893875	0.050313	0.018265
	O468	O	0.692335	0.714193	0.304097
	H469	H	0.681303	0.695213	0.333598
	H470	H	0.670647	0.695325	0.315516
	O471	O	0.970388	0.235758	0.799854
	H472	H	0.959030	0.253559	0.784258
	H473	H	0.956792	0.227816	0.798308
	O474	O	0.191136	0.827011	0.181748
	H475	H	0.166882	0.838460	0.182654
	H476	H	0.187896	0.832740	0.174634
	O477	O	0.825411	1.213590	1.965853
	H478	H	0.819972	1.224943	1.976757
	H479	H	0.819557	1.208589	1.976552
	O480	O	0.633670	0.559158	0.345423
	H481	H	0.646044	0.549891	0.347472
	H482	H	0.631431	0.553577	0.357650
	O483	O	0.556308	0.461460	0.731168
	H484	H	0.571434	0.460010	0.730671
	H485	H	0.560411	0.481080	0.739043
	O486	O	1.056806	-0.119347	1.083708
	H487	H	1.051128	-0.111053	1.085802
	H488	H	1.045868	-0.105692	1.091374
	O489	O	1.143894	1.108272	0.043477
	H490	H	1.137798	1.128789	0.061310
	H491	H	1.162820	1.107952	0.031368
