data_Molecule from HDF5

_cell_length_a		16.234825
_cell_length_b		16.234377
_cell_length_c		16.510343
_cell_angle_alpha	89.922127
_cell_angle_beta	90.024714
_cell_angle_gamma	89.390141
_symmetry_space_group_name_H-M	'P 1'
_symmetry_Int_Tables_number		1

loop_
	_symmetry_equiv_pos_as_xyz
	x,y,z

loop_
	_atom_site_label
	_atom_site_type_symbol
	_atom_site_fract_x
	_atom_site_fract_y
	_atom_site_fract_z
	H0	H	0.405443	0.842435	0.739452
	H1	H	0.611752	0.164153	0.735968
	H2	H	0.616118	0.841775	0.297686
	H3	H	0.403357	0.164160	0.300485
	H4	H	0.729385	0.398895	0.856045
	H5	H	0.725642	0.601003	0.177063
	H6	H	0.289035	0.608514	0.857483
	H7	H	0.294512	0.404232	0.177571
	H8	H	0.846735	0.719854	0.414161
	H9	H	0.171951	0.713195	0.616300
	H10	H	0.844638	0.286494	0.616789
	H11	H	0.172220	0.283069	0.419648
	H12	H	0.847891	0.395474	0.738836
	H13	H	0.169756	0.602962	0.736092
	H14	H	0.847159	0.605146	0.296880
	H15	H	0.171132	0.393732	0.298515
	H16	H	0.407609	0.722926	0.857566
	H17	H	0.608949	0.717672	0.178256
	H18	H	0.612369	0.283641	0.855902
	H19	H	0.408876	0.286410	0.176508
	H20	H	0.724454	0.838040	0.418895
	H21	H	0.724090	0.163514	0.617566
	H22	H	0.298406	0.836678	0.616585
	H23	H	0.289648	0.163055	0.419301
	H24	H	0.907178	0.338624	0.234215
	H25	H	0.111791	0.661461	0.237431
	H26	H	0.115976	0.338431	0.799642
	H27	H	0.901822	0.661714	0.795140
	H28	H	0.229641	0.895002	0.357931
	H29	H	0.224505	0.099462	0.677999
	H30	H	0.789190	0.102095	0.357289
	H31	H	0.790541	0.898219	0.678352
	H32	H	0.346227	0.222022	0.917948
	H33	H	0.673560	0.215449	0.114711
	H34	H	0.346605	0.789265	0.118741
	H35	H	0.672095	0.784270	0.916660
	H36	H	0.348135	0.901668	0.235879
	H37	H	0.671249	0.106271	0.237402
	H38	H	0.347303	0.111951	0.797272
	H39	H	0.669800	0.896543	0.796943
	H40	H	0.903731	0.219981	0.357287
	H41	H	0.107972	0.215935	0.677500
	H42	H	0.109204	0.782607	0.356161
	H43	H	0.906669	0.779441	0.677171
	H44	H	0.228983	0.339692	0.917898
	H45	H	0.219686	0.665884	0.115946
	H46	H	0.795850	0.338311	0.113778
	H47	H	0.792209	0.665204	0.915827
	H48	H	0.414048	0.116521	0.604466
	H49	H	0.596909	0.888534	0.604454
	H50	H	0.601816	0.119444	0.426776
	H51	H	0.415315	0.885375	0.430969
	H52	H	0.615338	0.412352	0.132263
	H53	H	0.594402	0.598413	0.903453
	H54	H	0.413799	0.595052	0.132078
	H55	H	0.424896	0.414814	0.904705
	H56	H	0.123705	0.587255	0.425180
	H57	H	0.894930	0.586216	0.606126
	H58	H	0.126002	0.411059	0.616829
	H59	H	0.893272	0.412673	0.422921
	H60	H	0.126731	0.399484	0.607621
	H61	H	0.893880	0.588674	0.608038
	H62	H	0.123915	0.587158	0.425190
	H63	H	0.891407	0.409784	0.421889
	H64	H	0.416939	0.596958	0.131102
	H65	H	0.604936	0.598661	0.900250
	H66	H	0.594776	0.419318	0.124506
	H67	H	0.417643	0.410609	0.901714
	H68	H	0.594177	0.118412	0.422194
	H69	H	0.601617	0.884612	0.611547
	H70	H	0.412029	0.120047	0.610306
	H71	H	0.419044	0.881836	0.417088
	H72	H	0.923132	0.614356	0.105717
	H73	H	0.110437	0.381629	0.109607
	H74	H	0.099969	0.618045	0.922687
	H75	H	0.917229	0.386414	0.928762
	H76	H	0.094968	0.910644	0.627942
	H77	H	0.098293	0.086925	0.404794
	H78	H	0.918967	0.096277	0.631107
	H79	H	0.917556	0.918032	0.407720
	H80	H	0.623857	0.087816	0.921772
	H81	H	0.388528	0.104646	0.117577
	H82	H	0.625351	0.912808	0.110612
	H83	H	0.396540	0.918267	0.931115
	H84	H	0.626293	0.909956	0.109747
	H85	H	0.397023	0.097270	0.097351
	H86	H	0.625791	0.094519	0.923777
	H87	H	0.393224	0.917930	0.922607
	H88	H	0.911565	0.091834	0.632572
	H89	H	0.096591	0.091347	0.403973
	H90	H	0.099626	0.895848	0.634049
	H91	H	0.924742	0.906534	0.406369
	H92	H	0.093560	0.617536	0.921263
	H93	H	0.096287	0.384439	0.114444
	H94	H	0.913668	0.617929	0.105699
	H95	H	0.921624	0.385031	0.922355
	H96	H	0.418631	0.117590	0.610081
	H97	H	0.592709	0.887272	0.612388
	H98	H	0.595373	0.115287	0.430787
	H99	H	0.428944	0.889006	0.426047
	H100	H	0.598375	0.398163	0.131999
	H101	H	0.601345	0.588506	0.903876
	H102	H	0.413298	0.598556	0.132286
	H103	H	0.417100	0.419287	0.904394
	H104	H	0.124295	0.587008	0.425314
	H105	H	0.894215	0.588777	0.604744
	H106	H	0.120535	0.411722	0.603109
	H107	H	0.893039	0.410352	0.424542
	H108	H	0.919310	0.617989	0.113888
	H109	H	0.100038	0.388244	0.100081
	H110	H	0.096283	0.616003	0.927032
	H111	H	0.925375	0.388266	0.929084
	H112	H	0.111131	0.908574	0.632873
	H113	H	0.101246	0.090269	0.402529
	H114	H	0.918468	0.087853	0.628537
	H115	H	0.911898	0.906758	0.402396
	H116	H	0.621854	0.090263	0.928712
	H117	H	0.396241	0.082439	0.114747
	H118	H	0.625712	0.912049	0.107263
	H119	H	0.393488	0.910476	0.927776
	C120	C	0.386346	0.010843	0.639273
	C121	C	0.628329	0.993734	0.639172
	C122	C	0.629479	0.010645	0.396622
	C123	C	0.388205	0.992466	0.395955
	C124	C	0.633215	0.379450	0.024065
	C125	C	0.630205	0.623897	1.008463
	C126	C	0.384780	0.627631	0.026026
	C127	C	0.389400	0.383873	1.008764
	C128	C	0.017284	0.620021	0.394637
	C129	C	1.000864	0.619029	0.636897
	C130	C	0.017051	0.378083	0.639165
	C131	C	1.000112	0.378650	0.394334
	C132	C	0.888402	0.509370	0.137699
	C133	C	0.130064	0.492689	0.138120
	C134	C	0.130093	0.509961	0.894630
	C135	C	0.888689	0.493455	0.895443
	C136	C	0.132319	0.875165	0.525839
	C137	C	0.128633	0.119714	0.509519
	C138	C	0.884968	0.122769	0.525279
	C139	C	0.886959	0.878631	0.510409
	C140	C	0.516913	0.123989	0.895182
	C141	C	0.501174	0.124659	0.139321
	C142	C	0.518382	0.882257	0.139258
	C143	C	0.501456	0.883027	0.896615
	C144	C	0.386865	0.889683	0.698766
	C145	C	0.629813	0.115549	0.696592
	C146	C	0.633048	0.889389	0.338001
	C147	C	0.385123	0.115229	0.339201
	C148	C	0.690635	0.379683	0.904010
	C149	C	0.686865	0.621355	0.129419
	C150	C	0.327616	0.627566	0.905621
	C151	C	0.332668	0.384544	0.129364
	C152	C	0.895261	0.680147	0.394686
	C153	C	0.122937	0.675659	0.636069
	C154	C	0.894031	0.322891	0.637870
	C155	C	0.123100	0.321049	0.397982
	C156	C	0.895869	0.377133	0.698509
	C157	C	0.121835	0.620941	0.695897
	C158	C	0.895622	0.623193	0.336326
	C159	C	0.122400	0.376074	0.337712
	C160	C	0.386505	0.684686	0.905406
	C161	C	0.628675	0.679108	0.130126
	C162	C	0.632624	0.321937	0.903915
	C163	C	0.389481	0.325479	0.128728
	C164	C	0.687374	0.887761	0.397897
	C165	C	0.685890	0.115388	0.637836
	C166	C	0.333941	0.886659	0.637520
	C167	C	0.328412	0.114539	0.397979
	C168	C	0.888468	0.387156	0.194639
	C169	C	0.129528	0.613891	0.197036
	C170	C	0.133583	0.387472	0.838458
	C171	C	0.884946	0.614100	0.835471
	C172	C	0.190229	0.875979	0.405788
	C173	C	0.185463	0.118766	0.629988
	C174	C	0.827592	0.122258	0.405139
	C175	C	0.829277	0.878541	0.630376
	C176	C	0.395007	0.183388	0.897294
	C177	C	0.624062	0.179448	0.136679
	C178	C	0.395973	0.826466	0.138345
	C179	C	0.623071	0.823304	0.896707
	C180	C	0.396622	0.882977	0.196710
	C181	C	0.622883	0.124858	0.197379
	C182	C	0.395463	0.128519	0.837280
	C183	C	0.621975	0.879369	0.837152
	C184	C	0.884793	0.180690	0.405204
	C185	C	0.127593	0.177031	0.629711
	C186	C	0.130492	0.819688	0.404820
	C187	C	0.887249	0.819513	0.629890
	C188	C	0.190036	0.388101	0.896971
	C189	C	0.183446	0.616340	0.136625
	C190	C	0.833146	0.386813	0.134711
	C191	C	0.830419	0.615914	0.895805
	C192	C	0.408604	0.096089	0.615447
	C193	C	0.604029	0.908854	0.616315
	C194	C	0.604387	0.095605	0.419934
	C195	C	0.413733	0.907701	0.418129
	C196	C	0.609826	0.403074	0.107756
	C197	C	0.607208	0.601726	0.924573
	C198	C	0.407970	0.604049	0.109933
	C199	C	0.412950	0.408019	0.925134
	C200	C	0.102005	0.594634	0.418586
	C201	C	0.916293	0.594971	0.612989
	C202	C	0.101991	0.400875	0.616067
	C203	C	0.914764	0.403563	0.416703
	C204	C	0.911779	0.594845	0.115113
	C205	C	0.108633	0.407095	0.114806
	C206	C	0.104231	0.594947	0.917227
	C207	C	0.914119	0.408432	0.919863
	C208	C	0.108806	0.898063	0.609944
	C209	C	0.105471	0.096352	0.425421
	C210	C	0.909267	0.098874	0.609092
	C211	C	0.911129	0.903295	0.427094
	C212	C	0.601834	0.098314	0.918152
	C213	C	0.416091	0.101516	0.116433
	C214	C	0.603736	0.905009	0.115950
	C215	C	0.416566	0.908322	0.920358
	Zn216	Zn	0.507588	0.003581	0.766895
	Zn217	Zn	0.510082	0.003374	0.267694
	Zn218	Zn	0.760610	0.502500	0.015792
	Zn219	Zn	0.257640	0.503591	0.017141
	Zn220	Zn	0.008749	0.747481	0.516639
	Zn221	Zn	0.007658	0.251075	0.516546
	Zn222	Zn	0.008997	0.499865	0.766666
	Zn223	Zn	0.009148	0.499767	0.265879
	Zn224	Zn	0.509310	0.754189	0.018040
	Zn225	Zn	0.510152	0.252549	0.016444
	Zn226	Zn	0.756258	0.000543	0.517842
	Zn227	Zn	0.259672	-0.001073	0.517700
	N228	N	0.418704	0.967812	0.699884
	N229	N	0.594886	0.038758	0.697522
	N230	N	0.597958	0.966838	0.336859
	N231	N	0.421476	0.038348	0.337509
	N232	N	0.690886	0.414950	0.979640
	N233	N	0.688011	0.587852	0.053093
	N234	N	0.326215	0.593051	0.981670
	N235	N	0.332566	0.420217	0.053701
	N236	N	0.971903	0.678434	0.430321
	N237	N	0.046691	0.674605	0.599945
	N238	N	0.970320	0.322976	0.601762
	N239	N	0.045892	0.322335	0.432405
	N240	N	0.973513	0.410365	0.699719
	N241	N	0.045128	0.586057	0.696152
	N242	N	0.972367	0.586637	0.336268
	N243	N	0.044871	0.411002	0.335353
	N244	N	0.421265	0.684905	0.981256
	N245	N	0.594214	0.680974	0.053913
	N246	N	0.597589	0.321622	0.979510
	N247	N	0.424377	0.325081	0.052902
	N248	N	0.685293	0.964117	0.433676
	N249	N	0.685258	0.038585	0.602989
	N250	N	0.333264	0.963048	0.601469
	N251	N	0.329984	0.037361	0.432388
	N252	N	0.921979	0.464433	0.196439
	N253	N	0.097293	0.535887	0.198094
	N254	N	0.096881	0.464324	0.836808
	N255	N	0.920402	0.536795	0.835286
	N256	N	0.191743	0.909368	0.482292
	N257	N	0.186108	0.083714	0.554151
	N258	N	0.827582	0.087032	0.480906
	N259	N	0.829252	0.914705	0.554949
	N260	N	0.471711	0.180744	0.932524
	N261	N	0.547437	0.179522	0.101188
	N262	N	0.472733	0.826084	0.103016
	N263	N	0.546987	0.825417	0.932949
	N264	N	0.473740	0.916874	0.197492
	N265	N	0.545172	0.091920	0.199513
	N266	N	0.472343	0.092487	0.835743
	N267	N	0.545143	0.915854	0.837030
	N268	N	0.919732	0.181206	0.481001
	N269	N	0.092684	0.177557	0.553785
	N270	N	0.095375	0.818861	0.480583
	N271	N	0.922524	0.819646	0.554343
	N272	N	0.188118	0.465302	0.931062
	N273	N	0.183881	0.540058	0.100515
	N274	N	0.833012	0.463952	0.100065
	N275	N	0.832355	0.539611	0.931979
	O276	O	-0.096614	-0.117910	0.172066
	H277	H	-0.094278	-0.123881	0.183291
	H278	H	-0.102682	-0.116556	0.162407
	O279	O	0.585061	0.574228	0.507191
	H280	H	0.580566	0.572941	0.502102
	H281	H	0.570035	0.580775	0.526147
	O282	O	0.382192	-0.448475	0.345609
	H283	H	0.371156	-0.469605	0.346135
	H284	H	0.391444	-0.460368	0.348920
	O285	O	0.455071	0.489657	0.534903
	H286	H	0.449142	0.493585	0.529660
	H287	H	0.447229	0.487263	0.525822
	O288	O	0.996396	1.069132	0.980269
	H289	H	0.987900	1.071274	0.983276
	H290	H	1.001519	1.038824	0.976378
	O291	O	0.189012	0.849433	-0.122125
	H292	H	0.164504	0.844632	-0.121684
	H293	H	0.195731	0.851518	-0.135087
	O294	O	0.505640	0.330764	0.323384
	H295	H	0.525184	0.322071	0.324219
	H296	H	0.529647	0.326588	0.307982
	O297	O	0.424962	0.381310	0.532313
	H298	H	0.429158	0.390706	0.536321
	H299	H	0.427305	0.376589	0.514979
	O300	O	0.922050	0.121427	-0.161867
	H301	H	0.929821	0.128369	-0.168208
	H302	H	0.929517	0.137740	-0.139119
	O303	O	0.659179	0.384793	0.512106
	H304	H	0.652380	0.393842	0.507686
	H305	H	0.664991	0.372354	0.502048
	O306	O	0.656569	0.610439	0.506372
	H307	H	0.658146	0.609038	0.514721
	H308	H	0.650896	0.620848	0.514934
	O309	O	0.461459	0.410630	0.510852
	H310	H	0.450082	0.424778	0.504574
	H311	H	0.451658	0.421051	0.505637
	O312	O	-0.068158	-0.096898	0.139588
	H313	H	-0.067252	-0.099629	0.145036
	H314	H	-0.073371	-0.097118	0.142495
	O315	O	1.085827	0.043715	1.132860
	H316	H	1.095424	0.038611	1.130540
	H317	H	1.080577	0.024730	1.134162
	O318	O	0.010562	1.139180	1.041903
	H319	H	0.036368	1.131837	1.031889
	H320	H	0.002231	1.153696	1.045441
	O321	O	0.575724	0.574502	0.603434
	H322	H	0.583252	0.562756	0.592389
	H323	H	0.582238	0.561951	0.603716
	O324	O	-0.003142	0.850384	-0.061304
	H325	H	-0.004870	0.848392	-0.069041
	H326	H	-0.014755	0.866881	-0.062424
	O327	O	-0.060116	0.094721	0.005203
	H328	H	-0.045881	0.086922	0.029696
	H329	H	-0.075862	0.114591	0.008346
	O330	O	0.138376	-0.063539	1.097480
	H331	H	0.152912	-0.071599	1.088457
	H332	H	0.133862	-0.054253	1.089392
	O333	O	0.056134	-0.019110	0.816629
	H334	H	0.058580	-0.009729	0.807043
	H335	H	0.042012	-0.046939	0.819291
	O336	O	0.346234	0.616480	0.554353
	H337	H	0.350273	0.623443	0.542053
	H338	H	0.338851	0.612840	0.551815
	O339	O	1.111375	-0.044345	-0.092107
	H340	H	1.116196	-0.045932	-0.081357
	H341	H	1.093013	-0.056436	-0.099671
	O342	O	-0.646880	-0.391695	0.354539
	H343	H	-0.647886	-0.391358	0.348727
	H344	H	-0.648576	-0.407990	0.350177
	O345	O	0.492770	0.662707	0.376090
	H346	H	0.466589	0.652560	0.371563
	H347	H	0.478307	0.664540	0.385897
	O348	O	1.196018	1.154417	0.204362
	H349	H	1.201892	1.133018	0.196965
	H350	H	1.213252	1.157991	0.180614
	O351	O	0.185461	1.114230	-0.000591
	H352	H	0.187931	1.092220	-0.018668
	H353	H	0.188133	1.108825	-0.018363
	O354	O	0.861219	0.010265	1.061108
	H355	H	0.881361	0.008609	1.050564
	H356	H	0.856450	0.020024	1.069435
	O357	O	0.666979	0.357294	0.380145
	H358	H	0.685305	0.374304	0.375381
	H359	H	0.679632	0.360137	0.366509
	O360	O	0.389516	0.627393	0.479841
	H361	H	0.397610	0.643483	0.481259
	H362	H	0.392707	0.626020	0.460209
	O363	O	0.081743	1.015799	1.076592
	H364	H	0.078090	1.002674	1.067721
	H365	H	0.066320	1.002705	1.072871
	O366	O	0.440273	0.498094	0.654073
	H367	H	0.433126	0.486032	0.658662
	H368	H	0.424457	0.486723	0.658777
	O369	O	-0.394637	1.563785	-0.365470
	H370	H	-0.408377	1.546856	-0.356795
	H371	H	-0.379711	1.563365	-0.356598
	O372	O	0.371080	0.332979	0.576196
	H373	H	0.381473	0.326411	0.557362
	H374	H	0.378467	0.331371	0.564383
	O375	O	0.497270	0.352670	0.666865
	H376	H	0.499958	0.333326	0.663180
	H377	H	0.476172	0.352821	0.672584
	O378	O	1.475635	0.472639	-0.453947
	H379	H	1.483336	0.494672	-0.458302
	H380	H	1.479667	0.464862	-0.440672
	O381	O	0.859041	-0.006590	-0.101153
	H382	H	0.851989	0.007230	-0.110584
	H383	H	0.849132	0.008763	-0.095851
	O384	O	0.898103	1.136839	0.066072
	H385	H	0.909280	1.155906	0.085883
	H386	H	0.923103	1.144503	0.060244
	O387	O	-0.257597	-0.272821	0.216042
	H388	H	-0.266623	-0.275254	0.226242
	H389	H	-0.261889	-0.273185	0.214143
	O390	O	-0.074541	0.915896	-0.100925
	H391	H	-0.087347	0.924157	-0.094007
	H392	H	-0.077533	0.928072	-0.101354
	O393	O	0.995929	1.120247	0.911699
	H394	H	0.997512	1.129560	0.913611
	H395	H	1.001417	1.121530	0.907816
	O396	O	0.515894	0.568439	0.648281
	H397	H	0.524110	0.570466	0.654647
	H398	H	0.508719	0.556503	0.659073
	O399	O	-0.070025	0.966203	1.131782
	H400	H	-0.067001	0.964202	1.124615
	H401	H	-0.072333	0.956666	1.128670
	O402	O	0.672693	0.425779	0.421588
	H403	H	0.666880	0.439876	0.420732
	H404	H	0.688322	0.441440	0.417273
	O405	O	1.183887	0.835065	0.006645
	H406	H	1.171342	0.837374	-0.003756
	H407	H	1.196213	0.833975	0.001059
	O408	O	1.124108	1.038350	0.045789
	H409	H	1.122727	1.028757	0.040424
	H410	H	1.128552	1.032803	0.039538
	O411	O	0.901097	0.052114	1.190911
	H412	H	0.908011	0.053749	1.192888
	H413	H	0.893632	0.044411	1.195529
	O414	O	0.580356	0.579257	0.683358
	H415	H	0.580812	0.566246	0.677944
	H416	H	0.583259	0.579003	0.692438
	O417	O	0.535589	0.460431	0.541344
	H418	H	0.527970	0.454660	0.543732
	H419	H	0.544834	0.460983	0.533388
