data_Molecule from HDF5

_cell_length_a		16.313592
_cell_length_b		16.331701
_cell_length_c		16.323240
_cell_angle_alpha	90.168819
_cell_angle_beta	89.839110
_cell_angle_gamma	89.990893
_symmetry_space_group_name_H-M	'P 1'
_symmetry_Int_Tables_number		1

loop_
	_symmetry_equiv_pos_as_xyz
	x,y,z

loop_
	_atom_site_label
	_atom_site_type_symbol
	_atom_site_fract_x
	_atom_site_fract_y
	_atom_site_fract_z
	H0	H	0.402572	0.831141	0.710556
	H1	H	0.598668	0.157625	0.712115
	H2	H	0.599457	0.831153	0.281772
	H3	H	0.402709	0.157679	0.281757
	H4	H	0.716550	0.396005	0.833491
	H5	H	0.714641	0.591860	0.160281
	H6	H	0.287803	0.591563	0.832355
	H7	H	0.287320	0.397533	0.159631
	H8	H	0.837130	0.708617	0.398931
	H9	H	0.164824	0.710028	0.594788
	H10	H	0.837098	0.280697	0.594534
	H11	H	0.164532	0.280113	0.397240
	H12	H	0.837355	0.397734	0.710046
	H13	H	0.164976	0.592658	0.709826
	H14	H	0.837589	0.591006	0.283661
	H15	H	0.164714	0.397732	0.283022
	H16	H	0.404012	0.709418	0.832607
	H17	H	0.597705	0.707861	0.159796
	H18	H	0.599857	0.280045	0.833295
	H19	H	0.402304	0.280017	0.159133
	H20	H	0.716513	0.832126	0.397847
	H21	H	0.715485	0.157956	0.595925
	H22	H	0.285420	0.831751	0.595359
	H23	H	0.286898	0.158239	0.398827
	H24	H	0.902403	0.331681	0.210681
	H25	H	0.099934	0.657890	0.211180
	H26	H	0.100772	0.331814	0.779750
	H27	H	0.903319	0.658204	0.782476
	H28	H	0.216185	0.895753	0.333417
	H29	H	0.214676	0.093466	0.659894
	H30	H	0.786261	0.092836	0.333303
	H31	H	0.785545	0.898272	0.659403
	H32	H	0.337612	0.208580	0.899093
	H33	H	0.664349	0.209076	0.095303
	H34	H	0.338231	0.778827	0.095821
	H35	H	0.665554	0.780220	0.897838
	H36	H	0.337548	0.896863	0.210225
	H37	H	0.664082	0.092741	0.211438
	H38	H	0.337885	0.092537	0.782571
	H39	H	0.664670	0.895157	0.780208
	H40	H	0.903374	0.208033	0.332449
	H41	H	0.097447	0.209015	0.659826
	H42	H	0.098918	0.780568	0.333081
	H43	H	0.900482	0.780722	0.659610
	H44	H	0.215934	0.330932	0.897521
	H45	H	0.215597	0.657826	0.094496
	H46	H	0.786899	0.331595	0.094085
	H47	H	0.787073	0.657816	0.898857
	H48	H	0.411057	0.107279	0.585975
	H49	H	0.605862	0.872795	0.596516
	H50	H	0.590026	0.109909	0.403089
	H51	H	0.415664	0.879248	0.396591
	H52	H	0.596052	0.397750	0.114719
	H53	H	0.596041	0.582333	0.880849
	H54	H	0.403886	0.592283	0.114639
	H55	H	0.410787	0.402286	0.880830
	H56	H	0.114103	0.585783	0.409880
	H57	H	0.884576	0.585225	0.595005
	H58	H	0.118139	0.400291	0.590946
	H59	H	0.882386	0.396882	0.400443
	H60	H	0.116553	0.399370	0.585595
	H61	H	0.883257	0.594133	0.590405
	H62	H	0.117791	0.584193	0.397013
	H63	H	0.885634	0.400889	0.407631
	H64	H	0.407185	0.581127	0.110719
	H65	H	0.591361	0.589899	0.880287
	H66	H	0.597174	0.404808	0.112394
	H67	H	0.409545	0.398005	0.879485
	H68	H	0.596062	0.110103	0.406825
	H69	H	0.579015	0.881163	0.595771
	H70	H	0.401254	0.112262	0.589616
	H71	H	0.409126	0.881866	0.413024
	H72	H	0.913174	0.610621	0.094820
	H73	H	0.093917	0.377699	0.092757
	H74	H	0.094869	0.613791	0.893848
	H75	H	0.906780	0.379041	0.906238
	H76	H	0.090349	0.906448	0.610233
	H77	H	0.089839	0.088147	0.381513
	H78	H	0.907930	0.090352	0.612467
	H79	H	0.900647	0.903591	0.379415
	H80	H	0.616305	0.090905	0.911711
	H81	H	0.387165	0.088321	0.081872
	H82	H	0.615741	0.904737	0.086546
	H83	H	0.385320	0.896063	0.908597
	H84	H	0.619122	0.901436	0.094319
	H85	H	0.385369	0.080954	0.093076
	H86	H	0.615475	0.078883	0.901381
	H87	H	0.389726	0.907743	0.907144
	H88	H	0.905803	0.088345	0.612692
	H89	H	0.096454	0.091331	0.378249
	H90	H	0.090928	0.899051	0.612332
	H91	H	0.913012	0.905442	0.383029
	H92	H	0.085853	0.606670	0.906924
	H93	H	0.092337	0.379343	0.087439
	H94	H	0.908503	0.608924	0.084218
	H95	H	0.905774	0.377113	0.899530
	H96	H	0.409922	0.112073	0.596339
	H97	H	0.594978	0.883462	0.573024
	H98	H	0.596036	0.111994	0.399783
	H99	H	0.398305	0.875389	0.399909
	H100	H	0.590830	0.401739	0.111588
	H101	H	0.600388	0.590066	0.878333
	H102	H	0.414513	0.590217	0.110190
	H103	H	0.406450	0.401204	0.879738
	H104	H	0.119365	0.596069	0.403271
	H105	H	0.886895	0.586934	0.585267
	H106	H	0.116000	0.404064	0.588236
	H107	H	0.885212	0.405225	0.400413
	H108	H	0.901949	0.613853	0.093091
	H109	H	0.097686	0.377652	0.088019
	H110	H	0.102476	0.610182	0.908863
	H111	H	0.912349	0.379945	0.901212
	H112	H	0.096783	0.904123	0.612794
	H113	H	0.096449	0.083660	0.381377
	H114	H	0.908433	0.087795	0.611879
	H115	H	0.909114	0.894289	0.378230
	H116	H	0.620831	0.092851	0.896463
	H117	H	0.381977	0.093628	0.093173
	H118	H	0.618666	0.895830	0.087189
	H119	H	0.384383	0.901800	0.897967
	C120	C	0.378836	0.002740	0.618917
	C121	C	0.621935	0.986768	0.617381
	C122	C	0.622668	0.002885	0.374770
	C123	C	0.379473	0.986597	0.375008
	C124	C	0.623156	0.372688	0.004932
	C125	C	0.623454	0.615499	0.988075
	C126	C	0.380009	0.616214	0.004030
	C127	C	0.380096	0.373113	0.988112
	C128	C	0.009147	0.616240	0.375148
	C129	C	0.993035	0.617149	0.618209
	C130	C	0.008998	0.373237	0.617209
	C131	C	0.992659	0.373086	0.374768
	C132	C	0.879523	0.503260	0.118498
	C133	C	0.122507	0.486429	0.117458
	C134	C	0.122960	0.502505	0.874261
	C135	C	0.880313	0.486691	0.874809
	C136	C	0.121825	0.873880	0.504543
	C137	C	0.122506	0.116553	0.487955
	C138	C	0.879238	0.116669	0.504312
	C139	C	0.879019	0.873421	0.488163
	C140	C	0.509370	0.115787	0.875149
	C141	C	0.492953	0.115996	0.117952
	C142	C	0.509614	0.872434	0.117810
	C143	C	0.494056	0.872989	0.875237
	C144	C	0.381477	0.880030	0.673373
	C145	C	0.619186	0.109184	0.673557
	C146	C	0.620016	0.879920	0.319819
	C147	C	0.382186	0.109214	0.319996
	C148	C	0.678744	0.375049	0.882207
	C149	C	0.677015	0.612418	0.111486
	C150	C	0.325442	0.612769	0.881110
	C151	C	0.324713	0.376287	0.110786
	C152	C	0.885947	0.670714	0.378185
	C153	C	0.115917	0.672246	0.615307
	C154	C	0.885970	0.318961	0.614572
	C155	C	0.115607	0.318110	0.377093
	C156	C	0.886047	0.376848	0.672034
	C157	C	0.116137	0.613762	0.672270
	C158	C	0.886384	0.612669	0.320638
	C159	C	0.115684	0.376018	0.319871
	C160	C	0.383276	0.670991	0.881073
	C161	C	0.619454	0.670327	0.111163
	C162	C	0.620947	0.317275	0.882212
	C163	C	0.382397	0.318518	0.110778
	C164	C	0.677953	0.880358	0.377410
	C165	C	0.677050	0.109519	0.615880
	C166	C	0.323702	0.880170	0.615718
	C167	C	0.324982	0.109587	0.378499
	C168	C	0.882421	0.380247	0.172704
	C169	C	0.120221	0.609211	0.173076
	C170	C	0.120816	0.380014	0.818705
	C171	C	0.882912	0.609390	0.820222
	C172	C	0.177769	0.875699	0.381750
	C173	C	0.177095	0.114142	0.611011
	C174	C	0.824794	0.113111	0.381543
	C175	C	0.823353	0.877014	0.610847
	C176	C	0.386455	0.170623	0.878284
	C177	C	0.615498	0.171326	0.115983
	C178	C	0.386706	0.817450	0.115591
	C179	C	0.616678	0.817903	0.877140
	C180	C	0.386468	0.875911	0.172596
	C181	C	0.615507	0.113358	0.173440
	C182	C	0.386533	0.113038	0.820546
	C183	C	0.616178	0.875042	0.818686
	C184	C	0.882598	0.170671	0.381381
	C185	C	0.118824	0.171477	0.611051
	C186	C	0.119328	0.818626	0.381546
	C187	C	0.880665	0.818979	0.610996
	C188	C	0.178149	0.379657	0.876992
	C189	C	0.177630	0.609285	0.115105
	C190	C	0.824802	0.380186	0.114963
	C191	C	0.825372	0.609432	0.878353
	C192	C	0.400835	0.088504	0.597153
	C193	C	0.599878	0.901163	0.594814
	C194	C	0.600487	0.088649	0.396782
	C195	C	0.401349	0.900839	0.396697
	C196	C	0.601053	0.394937	0.090807
	C197	C	0.602242	0.593879	0.902084
	C198	C	0.401986	0.594370	0.089542
	C199	C	0.402231	0.394263	0.902185
	C200	C	0.095095	0.594989	0.396900
	C201	C	0.907084	0.595430	0.596646
	C202	C	0.094786	0.394878	0.595001
	C203	C	0.906592	0.394641	0.396625
	C204	C	0.901472	0.588950	0.096965
	C205	C	0.100863	0.400645	0.095805
	C206	C	0.100963	0.588082	0.896731
	C207	C	0.902047	0.400928	0.896068
	C208	C	0.099414	0.896534	0.589799
	C209	C	0.100681	0.094160	0.402397
	C210	C	0.900982	0.095177	0.590371
	C211	C	0.901209	0.894790	0.402409
	C212	C	0.595381	0.093988	0.896745
	C213	C	0.407239	0.094170	0.095910
	C214	C	0.595593	0.894233	0.095777
	C215	C	0.408416	0.895310	0.897979
	Zn216	Zn	0.500886	-0.005868	0.746566
	Zn217	Zn	0.500949	-0.005738	0.246081
	Zn218	Zn	0.751611	0.494405	-0.003304
	Zn219	Zn	0.251172	0.494788	-0.003947
	Zn220	Zn	0.000677	0.744953	0.496576
	Zn221	Zn	0.000658	0.244648	0.495982
	Zn222	Zn	0.001618	0.494868	0.745807
	Zn223	Zn	0.001520	0.494484	0.246112
	Zn224	Zn	0.502031	0.744316	-0.003878
	Zn225	Zn	0.501428	0.244287	-0.003573
	Zn226	Zn	0.750904	-0.004445	0.496330
	Zn227	Zn	0.250953	-0.004952	0.496511
	N228	N	0.415116	0.957237	0.675266
	N229	N	0.585607	0.031903	0.674514
	N230	N	0.586232	0.957092	0.318312
	N231	N	0.415358	0.031751	0.317729
	N232	N	0.680134	0.408788	0.959480
	N233	N	0.679807	0.579388	0.033886
	N234	N	0.323329	0.579582	0.958535
	N235	N	0.323183	0.409563	0.033413
	N236	N	0.963211	0.672764	0.411653
	N237	N	0.038214	0.674510	0.582661
	N238	N	0.963278	0.316645	0.581180
	N239	N	0.037992	0.316108	0.410417
	N240	N	0.963601	0.410159	0.673585
	N241	N	0.038879	0.580239	0.674089
	N242	N	0.963905	0.579433	0.318803
	N243	N	0.038473	0.409803	0.318482
	N244	N	0.416347	0.673230	0.958438
	N245	N	0.586722	0.672215	0.033623
	N246	N	0.586961	0.315940	0.959524
	N247	N	0.416105	0.316456	0.033583
	N248	N	0.679828	0.957782	0.410762
	N249	N	0.678659	0.032447	0.581516
	N250	N	0.321844	0.957488	0.582674
	N251	N	0.323381	0.032370	0.411991
	N252	N	0.915401	0.457775	0.175266
	N253	N	0.086469	0.531917	0.174470
	N254	N	0.087294	0.457258	0.816878
	N255	N	0.916302	0.532087	0.817972
	N256	N	0.179402	0.909371	0.459034
	N257	N	0.179202	0.080557	0.533702
	N258	N	0.822555	0.080388	0.459115
	N259	N	0.822277	0.910315	0.533658
	N260	N	0.463852	0.172361	0.911559
	N261	N	0.538414	0.172997	0.082244
	N262	N	0.464241	0.815211	0.082305
	N263	N	0.539656	0.816679	0.911642
	N264	N	0.463969	0.909376	0.174023
	N265	N	0.538299	0.079457	0.174680
	N266	N	0.463948	0.079636	0.818498
	N267	N	0.538826	0.908595	0.817552
	N268	N	0.915805	0.172732	0.458639
	N269	N	0.085650	0.173206	0.533614
	N270	N	0.085470	0.817087	0.458894
	N271	N	0.914467	0.816470	0.533713
	N272	N	0.179488	0.456890	0.910883
	N273	N	0.179179	0.532176	0.081258
	N274	N	0.822938	0.457520	0.081881
	N275	N	0.823378	0.532006	0.911387
	O276	O	1.082987	-0.041585	0.918665
	H277	H	1.082823	-0.045368	0.918707
	H278	H	1.088082	-0.049408	0.912996
	O279	O	0.092840	0.950083	0.940638
	H280	H	0.101732	0.960540	0.943582
	H281	H	0.096019	0.954952	0.942174
	O282	O	1.068581	0.911235	-0.083999
	H283	H	1.064506	0.906928	-0.092432
	H284	H	1.065844	0.912941	-0.079914
	O285	O	0.093415	0.938813	0.924794
	H286	H	0.084292	0.940278	0.918349
	H287	H	0.099328	0.922511	0.923457
