data_Molecule from HDF5

_cell_length_a		16.342540
_cell_length_b		16.329028
_cell_length_c		16.303063
_cell_angle_alpha	89.925705
_cell_angle_beta	89.899587
_cell_angle_gamma	89.960316
_symmetry_space_group_name_H-M	'P 1'
_symmetry_Int_Tables_number		1

loop_
	_symmetry_equiv_pos_as_xyz
	x,y,z

loop_
	_atom_site_label
	_atom_site_type_symbol
	_atom_site_fract_x
	_atom_site_fract_y
	_atom_site_fract_z
	H0	H	0.405763	0.826850	0.708563
	H1	H	0.601155	0.153890	0.708433
	H2	H	0.602141	0.827369	0.280044
	H3	H	0.406407	0.154036	0.280307
	H4	H	0.718314	0.393105	0.830506
	H5	H	0.716866	0.588806	0.157843
	H6	H	0.289437	0.589905	0.830793
	H7	H	0.289967	0.394043	0.157505
	H8	H	0.840691	0.706149	0.395932
	H9	H	0.166382	0.705280	0.592026
	H10	H	0.840655	0.277052	0.591356
	H11	H	0.167318	0.276071	0.394892
	H12	H	0.840553	0.392923	0.708654
	H13	H	0.166883	0.588028	0.707666
	H14	H	0.839990	0.588026	0.280916
	H15	H	0.166876	0.393326	0.279472
	H16	H	0.405725	0.705573	0.830600
	H17	H	0.602123	0.706480	0.156985
	H18	H	0.601503	0.276768	0.830496
	H19	H	0.406129	0.277361	0.157674
	H20	H	0.719884	0.827956	0.395049
	H21	H	0.718783	0.153656	0.593488
	H22	H	0.287897	0.827320	0.594118
	H23	H	0.288550	0.153836	0.395995
	H24	H	0.906041	0.327283	0.207903
	H25	H	0.101629	0.654499	0.208772
	H26	H	0.101278	0.327493	0.781736
	H27	H	0.906965	0.654571	0.779415
	H28	H	0.218320	0.892191	0.331307
	H29	H	0.217526	0.088028	0.657815
	H30	H	0.790374	0.088471	0.330824
	H31	H	0.787798	0.891606	0.657154
	H32	H	0.340020	0.205792	0.896074
	H33	H	0.666743	0.206202	0.093507
	H34	H	0.340411	0.776597	0.093202
	H35	H	0.666157	0.775849	0.894965
	H36	H	0.340852	0.892141	0.210181
	H37	H	0.667107	0.088460	0.208724
	H38	H	0.340013	0.088773	0.779800
	H39	H	0.666890	0.892632	0.779414
	H40	H	0.905540	0.205242	0.330545
	H41	H	0.101020	0.204263	0.658117
	H42	H	0.103070	0.775926	0.331333
	H43	H	0.904196	0.775262	0.657426
	H44	H	0.218463	0.328124	0.896112
	H45	H	0.217422	0.654640	0.091524
	H46	H	0.788495	0.328050	0.092509
	H47	H	0.789059	0.654590	0.894688
	H48	H	0.405086	0.109319	0.593862
	H49	H	0.591019	0.876269	0.588423
	H50	H	0.594811	0.105729	0.400527
	H51	H	0.401388	0.872200	0.401876
	H52	H	0.600082	0.401774	0.109683
	H53	H	0.600106	0.586463	0.876637
	H54	H	0.414264	0.581713	0.108260
	H55	H	0.411763	0.393264	0.876100
	H56	H	0.118387	0.578634	0.398661
	H57	H	0.890891	0.576742	0.580406
	H58	H	0.118832	0.394384	0.581608
	H59	H	0.884210	0.381020	0.404081
	H60	H	0.118960	0.403241	0.589918
	H61	H	0.885797	0.581278	0.597590
	H62	H	0.121546	0.587886	0.397803
	H63	H	0.893629	0.405840	0.412636
	H64	H	0.410816	0.588739	0.111223
	H65	H	0.596712	0.579312	0.879138
	H66	H	0.592200	0.398393	0.108181
	H67	H	0.405829	0.399667	0.876372
	H68	H	0.597878	0.105928	0.403838
	H69	H	0.599602	0.875496	0.581761
	H70	H	0.418541	0.103941	0.588085
	H71	H	0.416219	0.873940	0.393578
	H72	H	0.909889	0.608920	0.091613
	H73	H	0.092807	0.378418	0.078791
	H74	H	0.095063	0.605283	0.905048
	H75	H	0.908126	0.375396	0.901697
	H76	H	0.105241	0.890842	0.615454
	H77	H	0.101337	0.083481	0.376827
	H78	H	0.906905	0.086290	0.612055
	H79	H	0.913535	0.897350	0.378518
	H80	H	0.618973	0.087895	0.903700
	H81	H	0.390526	0.079303	0.084657
	H82	H	0.620433	0.895418	0.088363
	H83	H	0.390754	0.904719	0.903500
	H84	H	0.619080	0.897045	0.083323
	H85	H	0.386788	0.083784	0.093658
	H86	H	0.617220	0.079295	0.903490
	H87	H	0.384642	0.896625	0.893791
	H88	H	0.910229	0.079431	0.608573
	H89	H	0.094554	0.079301	0.380582
	H90	H	0.098409	0.909767	0.607676
	H91	H	0.909262	0.897356	0.377651
	H92	H	0.102303	0.608793	0.900809
	H93	H	0.107027	0.372951	0.085815
	H94	H	0.913910	0.605209	0.085659
	H95	H	0.911569	0.375219	0.899702
	H96	H	0.405866	0.104797	0.578694
	H97	H	0.600245	0.872022	0.592383
	H98	H	0.598890	0.107412	0.399324
	H99	H	0.414583	0.878034	0.410321
	H100	H	0.598667	0.394300	0.112063
	H101	H	0.592100	0.586145	0.878866
	H102	H	0.406592	0.581791	0.110789
	H103	H	0.414054	0.401490	0.879799
	H104	H	0.117869	0.584637	0.407038
	H105	H	0.885890	0.594024	0.584235
	H106	H	0.122855	0.392078	0.592845
	H107	H	0.884848	0.402697	0.386634
	H108	H	0.906448	0.607608	0.084850
	H109	H	0.092788	0.374150	0.095408
	H110	H	0.094327	0.607613	0.896616
	H111	H	0.911930	0.376419	0.903701
	H112	H	0.084750	0.893226	0.608837
	H113	H	0.093792	0.087780	0.377607
	H114	H	0.914759	0.086053	0.610308
	H115	H	0.911039	0.901285	0.379531
	H116	H	0.619582	0.083499	0.896483
	H117	H	0.387061	0.089898	0.084709
	H118	H	0.618600	0.900463	0.087623
	H119	H	0.387369	0.891754	0.906254
	C120	C	0.381517	-0.001752	0.615789
	C121	C	0.625086	0.982505	0.615749
	C122	C	0.625761	-0.001195	0.372566
	C123	C	0.382360	0.982542	0.373108
	C124	C	0.625379	0.369500	0.002120
	C125	C	0.624897	0.612663	0.985985
	C126	C	0.381986	0.612857	0.002485
	C127	C	0.382366	0.369860	0.985631
	C128	C	0.011575	0.612489	0.372577
	C129	C	0.995358	0.612042	0.615641
	C130	C	0.012371	0.368635	0.616304
	C131	C	0.995721	0.368962	0.372436
	C132	C	0.881919	0.499287	0.115562
	C133	C	0.125327	0.483029	0.115383
	C134	C	0.125843	0.499418	0.872433
	C135	C	0.882188	0.483374	0.872797
	C136	C	0.125065	0.869319	0.502814
	C137	C	0.124920	0.111791	0.486303
	C138	C	0.882436	0.112354	0.502561
	C139	C	0.882472	0.869713	0.486169
	C140	C	0.511099	0.112280	0.872623
	C141	C	0.495784	0.112423	0.116122
	C142	C	0.511762	0.869068	0.115674
	C143	C	0.495543	0.869397	0.872393
	C144	C	0.384767	0.875705	0.671074
	C145	C	0.622309	0.105208	0.670701
	C146	C	0.623183	0.876226	0.317524
	C147	C	0.385334	0.105277	0.318128
	C148	C	0.680573	0.372195	0.879258
	C149	C	0.679816	0.610262	0.108914
	C150	C	0.327248	0.610513	0.879425
	C151	C	0.327416	0.372761	0.108604
	C152	C	0.889105	0.667785	0.375295
	C153	C	0.117822	0.667267	0.612896
	C154	C	0.889497	0.314229	0.613187
	C155	C	0.118465	0.314016	0.374710
	C156	C	0.889385	0.372116	0.670917
	C157	C	0.118145	0.608847	0.670000
	C158	C	0.888834	0.609331	0.318174
	C159	C	0.118265	0.372273	0.317193
	C160	C	0.384897	0.667938	0.879452
	C161	C	0.622456	0.668226	0.108529
	C162	C	0.622723	0.314368	0.879331
	C163	C	0.384856	0.314722	0.108802
	C164	C	0.680936	0.876254	0.375278
	C165	C	0.680307	0.105207	0.613261
	C166	C	0.326349	0.875865	0.613979
	C167	C	0.326683	0.105031	0.375361
	C168	C	0.884785	0.376221	0.170475
	C169	C	0.122090	0.605680	0.170741
	C170	C	0.122560	0.376470	0.818507
	C171	C	0.885556	0.605966	0.817144
	C172	C	0.180426	0.871604	0.379982
	C173	C	0.179791	0.108992	0.609261
	C174	C	0.827629	0.109632	0.379671
	C175	C	0.826459	0.871446	0.608704
	C176	C	0.388603	0.167619	0.875543
	C177	C	0.618111	0.167964	0.113657
	C178	C	0.388939	0.814689	0.113515
	C179	C	0.617845	0.814127	0.874782
	C180	C	0.389404	0.871806	0.171807
	C181	C	0.618499	0.109585	0.171055
	C182	C	0.388722	0.109775	0.817519
	C183	C	0.617984	0.871975	0.817153
	C184	C	0.885217	0.167377	0.379439
	C185	C	0.122320	0.167057	0.609196
	C186	C	0.122922	0.814124	0.379872
	C187	C	0.884543	0.813843	0.608902
	C188	C	0.180917	0.376850	0.875483
	C189	C	0.180204	0.605864	0.113141
	C190	C	0.826774	0.376470	0.112867
	C191	C	0.827186	0.605927	0.874514
	C192	C	0.403564	0.083890	0.593512
	C193	C	0.603338	0.896823	0.593997
	C194	C	0.603537	0.084336	0.394707
	C195	C	0.404367	0.896832	0.395496
	C196	C	0.603435	0.391651	0.087959
	C197	C	0.602895	0.590592	0.900306
	C198	C	0.404282	0.590708	0.087944
	C199	C	0.404220	0.391534	0.899744
	C200	C	0.097076	0.590327	0.394707
	C201	C	0.909654	0.590387	0.593667
	C202	C	0.098189	0.390053	0.594521
	C203	C	0.909741	0.390428	0.394474
	C204	C	0.903720	0.585027	0.093881
	C205	C	0.103903	0.397327	0.093174
	C206	C	0.103637	0.585132	0.894205
	C207	C	0.904152	0.397835	0.895202
	C208	C	0.102634	0.891460	0.588577
	C209	C	0.102993	0.089971	0.400595
	C210	C	0.904129	0.090189	0.588224
	C211	C	0.904958	0.891955	0.400713
	C212	C	0.596537	0.090130	0.894615
	C213	C	0.410246	0.090635	0.094155
	C214	C	0.597319	0.891151	0.093154
	C215	C	0.409676	0.891304	0.894723
	Zn216	Zn	0.503476	-0.009439	0.743962
	Zn217	Zn	0.504085	-0.009367	0.244260
	Zn218	Zn	0.753288	0.491645	-0.005784
	Zn219	Zn	0.254043	0.491557	-0.006010
	Zn220	Zn	0.004047	0.741035	0.494105
	Zn221	Zn	0.003973	0.240519	0.493963
	Zn222	Zn	0.003952	0.490763	0.744782
	Zn223	Zn	0.003562	0.490651	0.244086
	Zn224	Zn	0.503049	0.741075	-0.005820
	Zn225	Zn	0.503470	0.241218	-0.006040
	Zn226	Zn	0.753820	-0.008969	0.494331
	Zn227	Zn	0.253215	-0.009778	0.494594
	N228	N	0.418420	0.952797	0.672167
	N229	N	0.588835	0.028051	0.672414
	N230	N	0.589439	0.953341	0.316005
	N231	N	0.418991	0.028158	0.316580
	N232	N	0.682276	0.405754	0.956625
	N233	N	0.681137	0.576242	0.031900
	N234	N	0.325238	0.576907	0.956847
	N235	N	0.325782	0.406325	0.031273
	N236	N	0.966313	0.669752	0.408439
	N237	N	0.040498	0.669237	0.579703
	N238	N	0.966687	0.312004	0.579845
	N239	N	0.041202	0.311926	0.408373
	N240	N	0.966871	0.404929	0.673131
	N241	N	0.041027	0.575153	0.671734
	N242	N	0.966004	0.575477	0.316488
	N243	N	0.040963	0.405469	0.315775
	N244	N	0.418266	0.669434	0.956653
	N245	N	0.588936	0.669826	0.031170
	N246	N	0.589010	0.312763	0.956680
	N247	N	0.418633	0.313300	0.031518
	N248	N	0.682856	0.953559	0.408392
	N249	N	0.682233	0.027823	0.579869
	N250	N	0.324194	0.953103	0.580387
	N251	N	0.324794	0.027507	0.408915
	N252	N	0.918443	0.453292	0.172106
	N253	N	0.088854	0.528279	0.172207
	N254	N	0.089105	0.453651	0.816715
	N255	N	0.918901	0.528658	0.815729
	N256	N	0.181891	0.905079	0.457313
	N257	N	0.181618	0.075587	0.531965
	N258	N	0.825935	0.076194	0.456997
	N259	N	0.825421	0.905732	0.531716
	N260	N	0.465745	0.169316	0.908964
	N261	N	0.540830	0.169928	0.080290
	N262	N	0.465742	0.813214	0.079135
	N263	N	0.540606	0.812468	0.908337
	N264	N	0.466848	0.904885	0.173344
	N265	N	0.541616	0.075486	0.172277
	N266	N	0.465824	0.075814	0.815940
	N267	N	0.540933	0.905869	0.816054
	N268	N	0.918420	0.169477	0.456968
	N269	N	0.088879	0.168707	0.531749
	N270	N	0.089191	0.812649	0.457266
	N271	N	0.918725	0.812690	0.531679
	N272	N	0.183074	0.454454	0.908272
	N273	N	0.182258	0.528775	0.079438
	N274	N	0.824601	0.453990	0.079670
	N275	N	0.825047	0.528788	0.908272
	O276	O	0.992541	0.108226	1.014060
	H277	H	0.994253	0.099338	1.013809
	H278	H	0.992994	0.110900	1.003438
	O279	O	-0.005093	1.083407	1.024781
	H280	H	-0.002945	1.088331	1.031883
	H281	H	0.000281	1.093020	1.028793
	O282	O	0.985744	1.063772	-0.030475
	H283	H	0.972630	1.062009	-0.031766
	H284	H	0.982403	1.073846	-0.028245
	O285	O	-0.019403	1.076847	1.013486
	H286	H	-0.018223	1.082404	1.020435
	H287	H	-0.021105	1.065517	1.004928
