data_Molecule from HDF5

_cell_length_a		16.242434
_cell_length_b		16.365654
_cell_length_c		16.222236
_cell_angle_alpha	90.186785
_cell_angle_beta	90.179135
_cell_angle_gamma	90.105368
_symmetry_space_group_name_H-M	'P 1'
_symmetry_Int_Tables_number		1

loop_
	_symmetry_equiv_pos_as_xyz
	x,y,z

loop_
	_atom_site_label
	_atom_site_type_symbol
	_atom_site_fract_x
	_atom_site_fract_y
	_atom_site_fract_z
	H0	H	0.404712	0.835243	0.710291
	H1	H	0.602554	0.161821	0.711802
	H2	H	0.600247	0.835875	0.280852
	H3	H	0.403666	0.162184	0.282402
	H4	H	0.714686	0.401395	0.831830
	H5	H	0.717145	0.597755	0.161002
	H6	H	0.288386	0.595238	0.833543
	H7	H	0.290516	0.400202	0.161585
	H8	H	0.838618	0.711623	0.397756
	H9	H	0.165292	0.715189	0.598925
	H10	H	0.838840	0.283218	0.595748
	H11	H	0.166622	0.283433	0.398379
	H12	H	0.837901	0.401746	0.708466
	H13	H	0.166490	0.597945	0.712584
	H14	H	0.838957	0.595061	0.282004
	H15	H	0.167671	0.401023	0.284264
	H16	H	0.402184	0.711901	0.832968
	H17	H	0.604106	0.716170	0.159115
	H18	H	0.602338	0.282606	0.833184
	H19	H	0.403691	0.283568	0.160103
	H20	H	0.716628	0.835193	0.396491
	H21	H	0.719785	0.160993	0.596347
	H22	H	0.286210	0.835296	0.595649
	H23	H	0.287346	0.161278	0.398563
	H24	H	0.905428	0.334790	0.209690
	H25	H	0.102642	0.660894	0.212981
	H26	H	0.099435	0.334930	0.782366
	H27	H	0.904503	0.661227	0.782138
	H28	H	0.214406	0.899698	0.331223
	H29	H	0.216713	0.096613	0.661415
	H30	H	0.790034	0.093786	0.331744
	H31	H	0.787917	0.899448	0.660589
	H32	H	0.339396	0.213824	0.895600
	H33	H	0.666114	0.213522	0.096117
	H34	H	0.339722	0.782741	0.095327
	H35	H	0.665767	0.782295	0.895447
	H36	H	0.338238	0.901519	0.208220
	H37	H	0.666313	0.097854	0.210919
	H38	H	0.338468	0.095218	0.782419
	H39	H	0.667114	0.900453	0.782491
	H40	H	0.901147	0.213280	0.333089
	H41	H	0.103043	0.214360	0.660301
	H42	H	0.101513	0.781305	0.333246
	H43	H	0.903011	0.783597	0.661124
	H44	H	0.217292	0.334795	0.897704
	H45	H	0.219687	0.660458	0.098466
	H46	H	0.787081	0.335801	0.095182
	H47	H	0.788974	0.662197	0.899257
	H48	H	0.405798	0.114415	0.587910
	H49	H	0.605344	0.880376	0.586897
	H50	H	0.588717	0.114096	0.398894
	H51	H	0.408274	0.882451	0.403634
	H52	H	0.594584	0.404298	0.113930
	H53	H	0.606780	0.587488	0.877370
	H54	H	0.414048	0.590872	0.113224
	H55	H	0.410787	0.406406	0.880084
	H56	H	0.117667	0.587633	0.408353
	H57	H	0.883957	0.593825	0.594356
	H58	H	0.119754	0.399146	0.584568
	H59	H	0.887961	0.403532	0.409924
	H60	H	0.116166	0.412155	0.586858
	H61	H	0.885959	0.594954	0.586016
	H62	H	0.119794	0.590607	0.403008
	H63	H	0.887553	0.410581	0.400493
	H64	H	0.411830	0.595144	0.115040
	H65	H	0.586826	0.584142	0.884237
	H66	H	0.597662	0.404332	0.114678
	H67	H	0.411205	0.403839	0.879744
	H68	H	0.596546	0.110919	0.412820
	H69	H	0.591464	0.881309	0.598521
	H70	H	0.409834	0.115028	0.593219
	H71	H	0.407585	0.882277	0.401315
	H72	H	0.909802	0.615816	0.095248
	H73	H	0.091225	0.381161	0.096909
	H74	H	0.085972	0.609805	0.907464
	H75	H	0.905544	0.380829	0.899535
	H76	H	0.100851	0.904080	0.615669
	H77	H	0.098786	0.094112	0.377258
	H78	H	0.918141	0.080313	0.608275
	H79	H	0.915282	0.906426	0.382429
	H80	H	0.618072	0.092099	0.908416
	H81	H	0.383595	0.099179	0.085998
	H82	H	0.619766	0.904611	0.089623
	H83	H	0.390424	0.912909	0.909876
	H84	H	0.618916	0.906439	0.085305
	H85	H	0.387905	0.087159	0.084841
	H86	H	0.618776	0.088196	0.902351
	H87	H	0.383948	0.906430	0.891831
	H88	H	0.918422	0.103883	0.615137
	H89	H	0.095376	0.085733	0.381774
	H90	H	0.093646	0.912236	0.610374
	H91	H	0.910728	0.897332	0.378762
	H92	H	0.102727	0.613276	0.912577
	H93	H	0.093345	0.386419	0.081789
	H94	H	0.914471	0.612111	0.088879
	H95	H	0.912537	0.383264	0.901637
	H96	H	0.412381	0.111723	0.587491
	H97	H	0.589722	0.887268	0.581383
	H98	H	0.604375	0.117559	0.400680
	H99	H	0.410084	0.883021	0.401791
	H100	H	0.595718	0.407424	0.112910
	H101	H	0.592438	0.602954	0.876573
	H102	H	0.409295	0.590831	0.114392
	H103	H	0.408729	0.404043	0.879505
	H104	H	0.119377	0.593666	0.408419
	H105	H	0.887361	0.586763	0.589261
	H106	H	0.121824	0.404553	0.597184
	H107	H	0.883239	0.399232	0.399423
	H108	H	0.906077	0.614935	0.087110
	H109	H	0.105315	0.379335	0.090176
	H110	H	0.097697	0.616242	0.895962
	H111	H	0.907267	0.383600	0.906896
	H112	H	0.089713	0.901229	0.613146
	H113	H	0.089429	0.093468	0.380665
	H114	H	0.897415	0.090639	0.616885
	H115	H	0.904935	0.906684	0.378859
	H116	H	0.621546	0.095510	0.902446
	H117	H	0.383668	0.090877	0.095794
	H118	H	0.618933	0.909379	0.088421
	H119	H	0.384014	0.894394	0.907852
	C120	C	0.380640	0.006209	0.617842
	C121	C	0.625179	0.990452	0.618427
	C122	C	0.624440	0.006681	0.374722
	C123	C	0.380178	0.990484	0.374238
	C124	C	0.624425	0.376960	0.005244
	C125	C	0.624576	0.620603	0.987876
	C126	C	0.382191	0.619827	0.005763
	C127	C	0.381912	0.376835	0.988350
	C128	C	0.010901	0.619375	0.376493
	C129	C	0.993931	0.620628	0.619147
	C130	C	0.011087	0.376982	0.618025
	C131	C	0.994573	0.376130	0.374989
	C132	C	0.881458	0.506682	0.118487
	C133	C	0.125683	0.489583	0.119540
	C134	C	0.124522	0.506134	0.875482
	C135	C	0.880051	0.490073	0.874398
	C136	C	0.123432	0.876506	0.504701
	C137	C	0.123860	0.119795	0.488545
	C138	C	0.881628	0.119309	0.505069
	C139	C	0.881370	0.875767	0.488393
	C140	C	0.511330	0.120260	0.875021
	C141	C	0.493620	0.120717	0.118039
	C142	C	0.511124	0.877947	0.116720
	C143	C	0.494176	0.876089	0.874172
	C144	C	0.383816	0.883613	0.672285
	C145	C	0.623032	0.112930	0.673894
	C146	C	0.621123	0.884319	0.318724
	C147	C	0.383039	0.113194	0.319843
	C148	C	0.678032	0.380066	0.881265
	C149	C	0.679420	0.618206	0.111745
	C150	C	0.326094	0.616367	0.882404
	C151	C	0.327565	0.379827	0.112157
	C152	C	0.887629	0.673947	0.377436
	C153	C	0.116791	0.676601	0.618403
	C154	C	0.887774	0.321279	0.615824
	C155	C	0.117949	0.321170	0.377856
	C156	C	0.887232	0.380270	0.671880
	C157	C	0.117143	0.618621	0.675152
	C158	C	0.887712	0.615953	0.320262
	C159	C	0.118475	0.379676	0.321264
	C160	C	0.382934	0.674161	0.882012
	C161	C	0.623392	0.677133	0.110671
	C162	C	0.621925	0.321154	0.881912
	C163	C	0.383826	0.321816	0.111582
	C164	C	0.678963	0.883988	0.376283
	C165	C	0.681305	0.112634	0.616415
	C166	C	0.324994	0.883694	0.615231
	C167	C	0.325015	0.112828	0.377496
	C168	C	0.884310	0.383730	0.172549
	C169	C	0.123174	0.612130	0.175350
	C170	C	0.121249	0.383619	0.819934
	C171	C	0.883804	0.612817	0.820219
	C172	C	0.177540	0.878836	0.380801
	C173	C	0.179088	0.117129	0.612014
	C174	C	0.826898	0.115393	0.381057
	C175	C	0.825936	0.879082	0.611810
	C176	C	0.387872	0.175272	0.876371
	C177	C	0.617172	0.175740	0.116283
	C178	C	0.388428	0.821434	0.115005
	C179	C	0.617138	0.820694	0.875581
	C180	C	0.387575	0.880519	0.171350
	C181	C	0.617251	0.118288	0.173250
	C182	C	0.387572	0.116681	0.819739
	C183	C	0.617883	0.879678	0.819773
	C184	C	0.882288	0.174630	0.381710
	C185	C	0.122611	0.175647	0.611601
	C186	C	0.121343	0.820150	0.381717
	C187	C	0.882759	0.821063	0.611965
	C188	C	0.179700	0.383778	0.877331
	C189	C	0.181224	0.612026	0.118245
	C190	C	0.825696	0.384205	0.115508
	C191	C	0.826119	0.613266	0.878107
	C192	C	0.402846	0.091849	0.596087
	C193	C	0.602136	0.905119	0.595762
	C194	C	0.602944	0.092187	0.397392
	C195	C	0.402245	0.904745	0.395739
	C196	C	0.602543	0.398921	0.091540
	C197	C	0.601995	0.598062	0.901618
	C198	C	0.405222	0.598729	0.091963
	C199	C	0.403701	0.398395	0.902076
	C200	C	0.096672	0.597201	0.399757
	C201	C	0.907962	0.598308	0.596427
	C202	C	0.097155	0.399046	0.596066
	C203	C	0.908669	0.397874	0.396922
	C204	C	0.903590	0.592232	0.096910
	C205	C	0.103227	0.404278	0.096414
	C206	C	0.102165	0.591052	0.898647
	C207	C	0.901950	0.404646	0.896149
	C208	C	0.101176	0.899257	0.590818
	C209	C	0.101057	0.097598	0.402158
	C210	C	0.904596	0.097926	0.591010
	C211	C	0.903712	0.897129	0.402428
	C212	C	0.597066	0.098376	0.897767
	C213	C	0.407404	0.098912	0.095453
	C214	C	0.597103	0.900258	0.094356
	C215	C	0.408314	0.898173	0.896470
	Zn216	Zn	0.503304	-0.001413	0.746919
	Zn217	Zn	0.502655	-0.000528	0.245987
	Zn218	Zn	0.752033	0.498658	-0.003168
	Zn219	Zn	0.254523	0.498207	-0.002284
	Zn220	Zn	0.002598	0.748201	0.497245
	Zn221	Zn	0.002271	0.248017	0.496496
	Zn222	Zn	0.002619	0.498295	0.746167
	Zn223	Zn	0.003367	0.498028	0.247454
	Zn224	Zn	0.502923	0.748374	-0.004320
	Zn225	Zn	0.502255	0.248551	-0.003294
	Zn226	Zn	0.753827	-0.002084	0.496272
	Zn227	Zn	0.251580	-0.002170	0.496186
	N228	N	0.417707	0.960657	0.674195
	N229	N	0.589076	0.035833	0.675361
	N230	N	0.587841	0.961509	0.317808
	N231	N	0.416437	0.035838	0.317594
	N232	N	0.679538	0.413949	0.958870
	N233	N	0.680256	0.583733	0.034285
	N234	N	0.325376	0.583357	0.960200
	N235	N	0.326189	0.413261	0.034401
	N236	N	0.965304	0.676141	0.411676
	N237	N	0.039175	0.677992	0.584387
	N238	N	0.965618	0.319237	0.582936
	N239	N	0.039927	0.318974	0.410744
	N240	N	0.964857	0.414211	0.673391
	N241	N	0.039734	0.584299	0.675608
	N242	N	0.965347	0.582662	0.319524
	N243	N	0.040945	0.413086	0.319331
	N244	N	0.417135	0.676368	0.959760
	N245	N	0.590124	0.678677	0.032576
	N246	N	0.588953	0.319116	0.960069
	N247	N	0.417043	0.319817	0.033758
	N248	N	0.681255	0.961115	0.410401
	N249	N	0.682550	0.035445	0.582548
	N250	N	0.322806	0.961182	0.582365
	N251	N	0.323287	0.035572	0.410583
	N252	N	0.918511	0.460833	0.174446
	N253	N	0.089435	0.534930	0.176329
	N254	N	0.087733	0.460695	0.818479
	N255	N	0.916728	0.535347	0.817859
	N256	N	0.179100	0.913123	0.458401
	N257	N	0.180102	0.083329	0.534382
	N258	N	0.826530	0.081633	0.458621
	N259	N	0.824849	0.912347	0.533957
	N260	N	0.465743	0.177665	0.909855
	N261	N	0.539172	0.177705	0.082849
	N262	N	0.466247	0.819761	0.081761
	N263	N	0.539411	0.818416	0.908660
	N264	N	0.464939	0.914989	0.172541
	N265	N	0.539609	0.084668	0.174355
	N266	N	0.465079	0.082892	0.818997
	N267	N	0.540355	0.913638	0.818738
	N268	N	0.915777	0.177213	0.459765
	N269	N	0.088824	0.177300	0.533718
	N270	N	0.088352	0.818724	0.459782
	N271	N	0.916372	0.818797	0.534336
	N272	N	0.181944	0.460931	0.911245
	N273	N	0.182903	0.535069	0.083972
	N274	N	0.823973	0.461530	0.082613
	N275	N	0.823510	0.535997	0.910880
	O276	O	0.988483	0.990826	-0.059286
	H277	H	0.979178	1.001570	-0.060936
	H278	H	0.995340	0.993383	-0.065634
	O279	O	0.498273	0.498018	0.515269
	H280	H	0.503547	0.495927	0.526173
	H281	H	0.509372	0.490313	0.513114
	O282	O	0.053741	-0.011845	-0.031404
	H283	H	0.056741	-0.010695	-0.020832
	H284	H	0.053334	-0.022552	-0.041055
	O285	O	0.516345	0.501497	0.497756
	H286	H	0.504896	0.504171	0.490290
	H287	H	0.532380	0.510516	0.503417
	O288	O	-0.001315	-0.025496	-0.019810
	H289	H	-0.007123	-0.022732	-0.025632
	H290	H	-0.000020	-0.031645	-0.017483
	O291	O	0.043059	0.984775	-0.017363
	H292	H	0.048430	0.980612	-0.021190
	H293	H	0.053750	0.986031	-0.019107
	O294	O	-0.030037	0.978830	-0.038590
	H295	H	-0.031683	0.970337	-0.040395
	H296	H	-0.037029	0.982938	-0.036937
	O297	O	0.408894	0.515885	0.464865
	H298	H	0.408602	0.518171	0.468137
	H299	H	0.397843	0.514995	0.471099
	O300	O	0.489163	0.469835	0.527451
	H301	H	0.489161	0.476110	0.526061
	H302	H	0.490830	0.473271	0.522630
	O303	O	1.006876	0.020016	0.985522
	H304	H	1.021432	0.017215	0.986123
	H305	H	1.017050	0.019728	0.996226
	O306	O	0.010302	1.040856	0.965005
	H307	H	0.017898	1.039469	0.966155
	H308	H	0.009301	1.040924	0.952649
	O309	O	-0.009590	0.916587	1.076203
	H310	H	-0.004985	0.914470	1.073504
	H311	H	-0.017371	0.921188	1.083434
	O312	O	0.000476	-0.033535	0.932619
	H313	H	-0.001545	-0.031993	0.925168
	H314	H	0.001222	-0.039685	0.936001
	O315	O	0.522365	0.550603	0.514266
	H316	H	0.513380	0.552575	0.516574
	H317	H	0.528652	0.554097	0.523840
	O318	O	-0.045287	0.053677	0.947362
	H319	H	-0.047986	0.064655	0.952502
	H320	H	-0.054751	0.055360	0.938274
	O321	O	0.032202	0.002953	0.959359
	H322	H	0.034455	0.000161	0.963360
	H323	H	0.034013	0.005662	0.960937
	O324	O	1.011751	0.024531	1.052926
	H325	H	1.005719	0.030510	1.047307
	H326	H	1.005393	0.018314	1.055970
	O327	O	0.956541	1.077498	0.969307
	H328	H	0.952206	1.074509	0.960850
	H329	H	0.965107	1.077044	0.971243
	O330	O	0.532241	0.471981	0.542323
	H331	H	0.534282	0.468343	0.540473
	H332	H	0.529459	0.463833	0.538888
	O333	O	0.528365	0.518957	0.498118
	H334	H	0.522631	0.516480	0.501793
	H335	H	0.532836	0.516034	0.487575
	O336	O	0.524485	0.421763	0.374345
	H337	H	0.536612	0.424445	0.379117
	H338	H	0.529814	0.411902	0.359339
	O339	O	0.525881	0.486400	0.438011
	H340	H	0.515527	0.487295	0.431576
	H341	H	0.521654	0.494786	0.444068
	O342	O	0.505035	0.503614	0.544674
	H343	H	0.513511	0.506662	0.547180
	H344	H	0.500571	0.501540	0.542896
	O345	O	0.537694	0.457996	0.465831
	H346	H	0.539549	0.456776	0.467786
	H347	H	0.538520	0.454083	0.456855
