data_Molecule from HDF5

_cell_length_a		16.314744
_cell_length_b		16.322732
_cell_length_c		16.338769
_cell_angle_alpha	90.024596
_cell_angle_beta	89.982689
_cell_angle_gamma	89.981595
_symmetry_space_group_name_H-M	'P 1'
_symmetry_Int_Tables_number		1

loop_
	_symmetry_equiv_pos_as_xyz
	x,y,z

loop_
	_atom_site_label
	_atom_site_type_symbol
	_atom_site_fract_x
	_atom_site_fract_y
	_atom_site_fract_z
	H0	H	0.402062	0.836655	0.715053
	H1	H	0.599383	0.163118	0.715632
	H2	H	0.597674	0.836340	0.286170
	H3	H	0.402385	0.163935	0.285746
	H4	H	0.714565	0.401222	0.837071
	H5	H	0.714434	0.598476	0.163248
	H6	H	0.286449	0.596987	0.836236
	H7	H	0.286105	0.403487	0.163699
	H8	H	0.836740	0.714726	0.401805
	H9	H	0.163628	0.713915	0.597853
	H10	H	0.836901	0.285496	0.597873
	H11	H	0.163704	0.285843	0.401091
	H12	H	0.836213	0.402013	0.714147
	H13	H	0.162850	0.598014	0.714538
	H14	H	0.836749	0.598573	0.285964
	H15	H	0.162872	0.401884	0.284778
	H16	H	0.403016	0.713641	0.836180
	H17	H	0.598121	0.715000	0.163307
	H18	H	0.598520	0.284918	0.837140
	H19	H	0.402018	0.285631	0.163740
	H20	H	0.713493	0.836625	0.402652
	H21	H	0.714315	0.163509	0.598067
	H22	H	0.285229	0.836979	0.599307
	H23	H	0.285061	0.163235	0.401125
	H24	H	0.900907	0.337046	0.214025
	H25	H	0.098076	0.663611	0.214801
	H26	H	0.098686	0.336784	0.784637
	H27	H	0.901084	0.662715	0.784573
	H28	H	0.214554	0.901281	0.336846
	H29	H	0.214597	0.097633	0.663602
	H30	H	0.786532	0.097338	0.336227
	H31	H	0.784966	0.902350	0.662804
	H32	H	0.336318	0.213193	0.903046
	H33	H	0.664001	0.214426	0.097906
	H34	H	0.336396	0.785960	0.097976
	H35	H	0.663021	0.784960	0.901735
	H36	H	0.336899	0.901951	0.214835
	H37	H	0.664664	0.097988	0.214213
	H38	H	0.336577	0.096563	0.786446
	H39	H	0.663193	0.901236	0.784959
	H40	H	0.902207	0.214771	0.336884
	H41	H	0.098891	0.215141	0.663115
	H42	H	0.097178	0.785892	0.336882
	H43	H	0.902063	0.786497	0.663204
	H44	H	0.213191	0.335955	0.902668
	H45	H	0.213525	0.663645	0.097575
	H46	H	0.785069	0.336664	0.097019
	H47	H	0.785700	0.663914	0.901657
	H48	H	0.406924	0.113515	0.584918
	H49	H	0.587409	0.884104	0.598409
	H50	H	0.591612	0.116523	0.404948
	H51	H	0.408845	0.885649	0.410712
	H52	H	0.589820	0.406674	0.115316
	H53	H	0.587145	0.597173	0.884365
	H54	H	0.410839	0.601153	0.116079
	H55	H	0.409910	0.408620	0.885585
	H56	H	0.115054	0.590651	0.408797
	H57	H	0.883231	0.596561	0.591146
	H58	H	0.119009	0.396212	0.591837
	H59	H	0.883656	0.407809	0.405122
	H60	H	0.111896	0.413084	0.584361
	H61	H	0.884894	0.590807	0.591986
	H62	H	0.116878	0.592775	0.402897
	H63	H	0.884127	0.404752	0.407594
	H64	H	0.398164	0.593614	0.118461
	H65	H	0.599345	0.594970	0.882618
	H66	H	0.594933	0.405785	0.116471
	H67	H	0.405659	0.400206	0.882482
	H68	H	0.594126	0.115612	0.408174
	H69	H	0.592577	0.886012	0.586586
	H70	H	0.400617	0.118679	0.597648
	H71	H	0.403706	0.883822	0.406651
	H72	H	0.911314	0.615644	0.097194
	H73	H	0.095404	0.383607	0.093115
	H74	H	0.087934	0.613203	0.909817
	H75	H	0.911318	0.386201	0.907817
	H76	H	0.095004	0.913147	0.614372
	H77	H	0.091580	0.096880	0.383738
	H78	H	0.904518	0.101256	0.618610
	H79	H	0.909058	0.905708	0.384510
	H80	H	0.618336	0.094675	0.902669
	H81	H	0.384684	0.098727	0.087296
	H82	H	0.612230	0.916992	0.089995
	H83	H	0.382404	0.906413	0.902142
	H84	H	0.619349	0.904495	0.103060
	H85	H	0.387926	0.084744	0.090980
	H86	H	0.616293	0.095751	0.910074
	H87	H	0.383161	0.902643	0.909383
	H88	H	0.900250	0.085641	0.615552
	H89	H	0.097077	0.092032	0.383572
	H90	H	0.087322	0.904978	0.614612
	H91	H	0.904882	0.904108	0.382278
	H92	H	0.098701	0.616768	0.909068
	H93	H	0.093531	0.383483	0.095635
	H94	H	0.907362	0.614485	0.087787
	H95	H	0.902861	0.383677	0.910401
	H96	H	0.415498	0.114905	0.597752
	H97	H	0.599388	0.881379	0.596055
	H98	H	0.595516	0.117552	0.404754
	H99	H	0.409951	0.884799	0.404253
	H100	H	0.592962	0.410057	0.115372
	H101	H	0.591611	0.585496	0.886800
	H102	H	0.410075	0.586974	0.112485
	H103	H	0.400848	0.408384	0.883250
	H104	H	0.116808	0.597062	0.407896
	H105	H	0.882907	0.593777	0.596294
	H106	H	0.117499	0.412118	0.603262
	H107	H	0.884701	0.408577	0.408649
	H108	H	0.901011	0.618920	0.094987
	H109	H	0.092315	0.383948	0.092184
	H110	H	0.092150	0.617859	0.900412
	H111	H	0.905800	0.382666	0.902085
	H112	H	0.097736	0.903135	0.619096
	H113	H	0.090339	0.089601	0.385692
	H114	H	0.915162	0.090845	0.612877
	H115	H	0.905312	0.909268	0.384024
	H116	H	0.615381	0.088686	0.907036
	H117	H	0.382184	0.093749	0.101269
	H118	H	0.616459	0.898388	0.084543
	H119	H	0.385697	0.910401	0.908739
	C120	C	0.379065	0.007999	0.621656
	C121	C	0.621418	0.991953	0.621963
	C122	C	0.621744	0.008217	0.378063
	C123	C	0.378789	0.992320	0.378517
	C124	C	0.621014	0.378849	0.007916
	C125	C	0.621348	0.621427	0.992060
	C126	C	0.378159	0.622065	0.008106
	C127	C	0.377814	0.378001	0.992059
	C128	C	0.008066	0.621816	0.378500
	C129	C	0.991748	0.621787	0.621197
	C130	C	0.008315	0.378691	0.621375
	C131	C	0.991938	0.378643	0.378355
	C132	C	0.877970	0.508471	0.121350
	C133	C	0.121331	0.491947	0.121344
	C134	C	0.121565	0.508094	0.878203
	C135	C	0.878056	0.491940	0.878214
	C136	C	0.121817	0.878287	0.508340
	C137	C	0.121775	0.121437	0.492073
	C138	C	0.878604	0.121270	0.507949
	C139	C	0.878186	0.878326	0.491433
	C140	C	0.508562	0.120924	0.878658
	C141	C	0.492827	0.121293	0.121746
	C142	C	0.508282	0.878134	0.121706
	C143	C	0.491639	0.878378	0.878484
	C144	C	0.381188	0.885222	0.677164
	C145	C	0.619426	0.114629	0.677188
	C146	C	0.618435	0.885329	0.323748
	C147	C	0.381463	0.115056	0.323467
	C148	C	0.676329	0.380991	0.885469
	C149	C	0.676790	0.619356	0.114599
	C150	C	0.323721	0.618456	0.884974
	C151	C	0.323601	0.381943	0.114987
	C152	C	0.885298	0.676512	0.381498
	C153	C	0.114635	0.676397	0.618529
	C154	C	0.885366	0.323428	0.618685
	C155	C	0.114754	0.323657	0.380748
	C156	C	0.885121	0.381351	0.676229
	C157	C	0.114330	0.618965	0.676525
	C158	C	0.885390	0.618661	0.324022
	C159	C	0.114439	0.381282	0.322960
	C160	C	0.381548	0.676337	0.885010
	C161	C	0.618638	0.676737	0.114770
	C162	C	0.618568	0.323406	0.885537
	C163	C	0.381614	0.323902	0.115099
	C164	C	0.676024	0.885309	0.381541
	C165	C	0.676516	0.114765	0.618764
	C166	C	0.323599	0.885307	0.619257
	C167	C	0.323444	0.114941	0.381053
	C168	C	0.880390	0.385697	0.176205
	C169	C	0.118305	0.614876	0.176461
	C170	C	0.118741	0.385189	0.823003
	C171	C	0.880861	0.614477	0.822889
	C172	C	0.176469	0.881119	0.385638
	C173	C	0.176762	0.118490	0.614707
	C174	C	0.824106	0.118490	0.384899
	C175	C	0.823306	0.881684	0.614123
	C176	C	0.385319	0.175815	0.881712
	C177	C	0.615446	0.176616	0.118989
	C178	C	0.385192	0.823709	0.118846
	C179	C	0.614661	0.822823	0.881005
	C180	C	0.385546	0.881013	0.176981
	C181	C	0.615967	0.117981	0.175925
	C182	C	0.385322	0.117947	0.823993
	C183	C	0.614742	0.880798	0.823484
	C184	C	0.881828	0.176486	0.385324
	C185	C	0.119070	0.176465	0.614760
	C186	C	0.118318	0.823734	0.385351
	C187	C	0.881268	0.824193	0.614525
	C188	C	0.175656	0.384899	0.881531
	C189	C	0.175920	0.615070	0.118475
	C190	C	0.822996	0.385288	0.117998
	C191	C	0.823294	0.614683	0.880824
	C192	C	0.401219	0.093685	0.599856
	C193	C	0.599497	0.905986	0.600234
	C194	C	0.600142	0.094481	0.399587
	C195	C	0.400992	0.906933	0.400659
	C196	C	0.599129	0.401030	0.093635
	C197	C	0.599258	0.599064	0.906710
	C198	C	0.400031	0.600276	0.093662
	C199	C	0.399151	0.399472	0.905939
	C200	C	0.094163	0.600026	0.400222
	C201	C	0.905744	0.600238	0.599366
	C202	C	0.093983	0.400801	0.599536
	C203	C	0.906181	0.400652	0.400527
	C204	C	0.899939	0.594130	0.099490
	C205	C	0.100131	0.405888	0.099868
	C206	C	0.099412	0.593911	0.900043
	C207	C	0.900234	0.406251	0.900401
	C208	C	0.099751	0.900330	0.593965
	C209	C	0.099509	0.099244	0.406442
	C210	C	0.900287	0.098918	0.593480
	C211	C	0.900068	0.899951	0.405729
	C212	C	0.594464	0.099233	0.900117
	C213	C	0.407068	0.098952	0.099614
	C214	C	0.593924	0.899993	0.099122
	C215	C	0.406068	0.900226	0.900221
	Zn216	Zn	0.500306	-0.000074	0.750268
	Zn217	Zn	0.500456	-0.000248	0.249872
	Zn218	Zn	0.749694	0.500129	-0.000247
	Zn219	Zn	0.249985	0.500158	-0.000143
	Zn220	Zn	-0.000111	0.750217	0.500014
	Zn221	Zn	-0.000071	0.250055	0.500097
	Zn222	Zn	-0.000250	0.500045	0.749843
	Zn223	Zn	-0.000071	0.499998	0.250165
	Zn224	Zn	0.499985	0.750268	0.000111
	Zn225	Zn	0.500252	0.249569	0.000347
	Zn226	Zn	0.749546	0.000346	0.500007
	Zn227	Zn	0.250445	-0.000057	0.500092
	N228	N	0.415110	0.962440	0.678798
	N229	N	0.585966	0.037252	0.679099
	N230	N	0.585399	0.962904	0.321745
	N231	N	0.415192	0.037847	0.321766
	N232	N	0.677913	0.414918	0.962684
	N233	N	0.678530	0.585466	0.037393
	N234	N	0.321459	0.585482	0.962550
	N235	N	0.321259	0.414818	0.037546
	N236	N	0.962688	0.678292	0.415066
	N237	N	0.037206	0.678384	0.585123
	N238	N	0.962860	0.321690	0.585425
	N239	N	0.037559	0.322030	0.414642
	N240	N	0.962524	0.415066	0.677979
	N241	N	0.036936	0.585363	0.678094
	N242	N	0.962906	0.585400	0.322034
	N243	N	0.036985	0.414753	0.321439
	N244	N	0.414817	0.678458	0.962377
	N245	N	0.584670	0.677853	0.037622
	N246	N	0.584744	0.322146	0.962728
	N247	N	0.414686	0.321526	0.037490
	N248	N	0.678003	0.962843	0.414786
	N249	N	0.677771	0.037362	0.585037
	N250	N	0.322344	0.962498	0.585523
	N251	N	0.321819	0.037593	0.414726
	N252	N	0.913611	0.463187	0.178597
	N253	N	0.085223	0.537322	0.178456
	N254	N	0.085674	0.462718	0.820979
	N255	N	0.914118	0.536981	0.821123
	N256	N	0.178622	0.914453	0.463111
	N257	N	0.178386	0.084911	0.537445
	N258	N	0.821839	0.085009	0.462186
	N259	N	0.821256	0.914662	0.536620
	N260	N	0.462843	0.177868	0.915074
	N261	N	0.537890	0.178632	0.085982
	N262	N	0.462681	0.821705	0.085049
	N263	N	0.537185	0.821176	0.914562
	N264	N	0.463016	0.914029	0.178678
	N265	N	0.538548	0.084245	0.177575
	N266	N	0.462766	0.084540	0.822139
	N267	N	0.537507	0.914435	0.821827
	N268	N	0.915037	0.178204	0.462837
	N269	N	0.085564	0.178449	0.537470
	N270	N	0.085041	0.821769	0.462776
	N271	N	0.914767	0.821923	0.537264
	N272	N	0.177500	0.462357	0.915183
	N273	N	0.177874	0.537725	0.084874
	N274	N	0.821284	0.462765	0.084592
	N275	N	0.821482	0.537386	0.914600
