data_Molecule from HDF5

_cell_length_a		16.223580
_cell_length_b		16.201702
_cell_length_c		16.386073
_cell_angle_alpha	89.873269
_cell_angle_beta	89.985848
_cell_angle_gamma	89.990316
_symmetry_space_group_name_H-M	'P 1'
_symmetry_Int_Tables_number		1

loop_
	_symmetry_equiv_pos_as_xyz
	x,y,z

loop_
	_atom_site_label
	_atom_site_type_symbol
	_atom_site_fract_x
	_atom_site_fract_y
	_atom_site_fract_z
	H0	H	0.403091	0.851093	0.717485
	H1	H	0.603575	0.178738	0.715541
	H2	H	0.604108	0.851869	0.283398
	H3	H	0.400144	0.178657	0.284277
	H4	H	0.718598	0.416511	0.838382
	H5	H	0.718170	0.613626	0.163940
	H6	H	0.286832	0.614287	0.838162
	H7	H	0.288258	0.414884	0.164104
	H8	H	0.838207	0.729658	0.403409
	H9	H	0.166431	0.729979	0.600314
	H10	H	0.837911	0.302207	0.598524
	H11	H	0.166258	0.301882	0.404250
	H12	H	0.838829	0.414606	0.716633
	H13	H	0.166110	0.614958	0.717150
	H14	H	0.839539	0.617156	0.284301
	H15	H	0.166168	0.414574	0.287604
	H16	H	0.404720	0.729832	0.837423
	H17	H	0.603131	0.732373	0.162524
	H18	H	0.600207	0.301482	0.836506
	H19	H	0.403289	0.298584	0.162662
	H20	H	0.717153	0.850583	0.401963
	H21	H	0.713438	0.180503	0.595580
	H22	H	0.288808	0.850135	0.599348
	H23	H	0.288989	0.179667	0.402721
	H24	H	0.901956	0.350431	0.218517
	H25	H	0.103309	0.678307	0.216777
	H26	H	0.102634	0.351202	0.785706
	H27	H	0.901198	0.678027	0.784995
	H28	H	0.218225	0.915523	0.338131
	H29	H	0.217927	0.113491	0.663810
	H30	H	0.785468	0.117558	0.338609
	H31	H	0.787460	0.917272	0.663557
	H32	H	0.338168	0.228873	0.902720
	H33	H	0.665730	0.229038	0.097416
	H34	H	0.338664	0.800231	0.098016
	H35	H	0.667015	0.801583	0.902041
	H36	H	0.338896	0.913053	0.216425
	H37	H	0.665185	0.117511	0.216954
	H38	H	0.339201	0.116219	0.784957
	H39	H	0.666700	0.915789	0.786166
	H40	H	0.904250	0.231264	0.338092
	H41	H	0.098828	0.228009	0.665148
	H42	H	0.102371	0.799333	0.338790
	H43	H	0.902949	0.800194	0.663552
	H44	H	0.215274	0.349237	0.904236
	H45	H	0.216268	0.678801	0.098822
	H46	H	0.787870	0.350061	0.100668
	H47	H	0.790252	0.679497	0.903713
	H48	H	0.405509	0.133886	0.597868
	H49	H	0.595267	0.896706	0.596707
	H50	H	0.594868	0.132494	0.405335
	H51	H	0.410098	0.897391	0.407091
	H52	H	0.599679	0.411955	0.119557
	H53	H	0.596775	0.608698	0.884163
	H54	H	0.412979	0.601903	0.112963
	H55	H	0.413546	0.421367	0.886164
	H56	H	0.119387	0.614213	0.412590
	H57	H	0.885310	0.613731	0.589280
	H58	H	0.119790	0.418613	0.590775
	H59	H	0.883453	0.425593	0.402081
	H60	H	0.117005	0.428307	0.594059
	H61	H	0.889151	0.600505	0.592702
	H62	H	0.116162	0.599855	0.412315
	H63	H	0.883663	0.417820	0.410915
	H64	H	0.413220	0.615280	0.117191
	H65	H	0.597934	0.608492	0.885080
	H66	H	0.601430	0.431240	0.114416
	H67	H	0.404625	0.418286	0.882260
	H68	H	0.590917	0.131234	0.406120
	H69	H	0.591992	0.898933	0.594284
	H70	H	0.416173	0.131307	0.597145
	H71	H	0.412659	0.898447	0.407887
	H72	H	0.902932	0.633513	0.095342
	H73	H	0.093514	0.397500	0.096499
	H74	H	0.088778	0.629723	0.909472
	H75	H	0.916810	0.397648	0.904225
	H76	H	0.092464	0.930035	0.612414
	H77	H	0.097605	0.109190	0.385524
	H78	H	0.905558	0.109373	0.617582
	H79	H	0.905344	0.920053	0.382762
	H80	H	0.617875	0.103840	0.908424
	H81	H	0.388133	0.100612	0.089079
	H82	H	0.621474	0.926947	0.105066
	H83	H	0.387257	0.925484	0.908815
	H84	H	0.621050	0.913260	0.088291
	H85	H	0.383945	0.104482	0.101042
	H86	H	0.621724	0.108159	0.901585
	H87	H	0.385832	0.923873	0.904750
	H88	H	0.908321	0.105626	0.615178
	H89	H	0.095119	0.107699	0.386102
	H90	H	0.090597	0.915882	0.617294
	H91	H	0.909076	0.929778	0.386904
	H92	H	0.096700	0.630357	0.913251
	H93	H	0.094358	0.397832	0.094850
	H94	H	0.917298	0.631075	0.100503
	H95	H	0.911828	0.399649	0.915525
	H96	H	0.409617	0.130674	0.588130
	H97	H	0.596074	0.898101	0.592559
	H98	H	0.594424	0.131145	0.409294
	H99	H	0.411068	0.899140	0.409324
	H100	H	0.584055	0.422048	0.112873
	H101	H	0.597114	0.608356	0.886183
	H102	H	0.401028	0.607890	0.118734
	H103	H	0.405629	0.428162	0.885672
	H104	H	0.121472	0.606691	0.400280
	H105	H	0.882993	0.608566	0.602089
	H106	H	0.121955	0.421091	0.600702
	H107	H	0.887948	0.428096	0.412680
	H108	H	0.914197	0.627665	0.085876
	H109	H	0.095656	0.397111	0.096449
	H110	H	0.095978	0.632845	0.904555
	H111	H	0.904610	0.395087	0.905958
	H112	H	0.103530	0.922430	0.618122
	H113	H	0.094554	0.110533	0.385473
	H114	H	0.910271	0.110153	0.616327
	H115	H	0.916216	0.920725	0.387261
	H116	H	0.620057	0.112594	0.909374
	H117	H	0.384146	0.113622	0.090916
	H118	H	0.613395	0.933138	0.085965
	H119	H	0.385269	0.920720	0.908398
	C120	C	0.381465	0.023285	0.622886
	C121	C	0.623772	1.006483	0.622443
	C122	C	0.623686	0.023320	0.378107
	C123	C	0.381566	1.006706	0.379237
	C124	C	0.624065	0.392788	0.008444
	C125	C	0.625790	0.637538	0.992422
	C126	C	0.380241	0.637068	0.008807
	C127	C	0.379866	0.393108	0.992319
	C128	C	0.010886	0.636723	0.379784
	C129	C	0.994077	0.636419	0.623070
	C130	C	0.010972	0.393795	0.623368
	C131	C	0.993591	0.394532	0.380349
	C132	C	0.881881	0.522602	0.123485
	C133	C	0.123775	0.505836	0.123745
	C134	C	0.123030	0.522581	0.880284
	C135	C	0.881770	0.505969	0.879873
	C136	C	0.124716	0.893135	0.509042
	C137	C	0.124509	0.137404	0.493285
	C138	C	0.879351	0.138139	0.509214
	C139	C	0.880980	0.894217	0.492570
	C140	C	0.511342	0.137106	0.878306
	C141	C	0.493353	0.136382	0.122226
	C142	C	0.510632	0.894070	0.121887
	C143	C	0.494478	0.894287	0.878992
	C144	C	0.383045	0.899997	0.678889
	C145	C	0.622385	0.130056	0.677126
	C146	C	0.623653	0.900661	0.321877
	C147	C	0.381742	0.129726	0.322984
	C148	C	0.680095	0.395457	0.886561
	C149	C	0.680253	0.634283	0.115352
	C150	C	0.325239	0.634597	0.886496
	C151	C	0.325747	0.394970	0.115167
	C152	C	0.887561	0.692453	0.382112
	C153	C	0.117366	0.691790	0.620710
	C154	C	0.887157	0.339195	0.619906
	C155	C	0.117242	0.339202	0.383523
	C156	C	0.887659	0.395093	0.678468
	C157	C	0.117140	0.634740	0.678753
	C158	C	0.888288	0.636373	0.323036
	C159	C	0.117004	0.395173	0.325306
	C160	C	0.384101	0.691602	0.886046
	C161	C	0.623236	0.693468	0.114392
	C162	C	0.621247	0.338446	0.885819
	C163	C	0.382710	0.336971	0.114376
	C164	C	0.679578	0.899905	0.380931
	C165	C	0.677591	0.130592	0.617735
	C166	C	0.326251	0.899385	0.620309
	C167	C	0.326389	0.130399	0.382063
	C168	C	0.882158	0.399572	0.180187
	C169	C	0.122218	0.629436	0.178312
	C170	C	0.121642	0.399509	0.824855
	C171	C	0.882299	0.629215	0.823953
	C172	C	0.180536	0.895022	0.386876
	C173	C	0.180077	0.134421	0.615295
	C174	C	0.823947	0.137044	0.387005
	C175	C	0.825183	0.896277	0.615044
	C176	C	0.387171	0.191196	0.881868
	C177	C	0.616787	0.191998	0.119035
	C178	C	0.387512	0.838013	0.119076
	C179	C	0.617891	0.839155	0.881810
	C180	C	0.387710	0.894328	0.177832
	C181	C	0.616438	0.136037	0.178094
	C182	C	0.387888	0.135243	0.823193
	C183	C	0.617780	0.895934	0.824107
	C184	C	0.882846	0.193803	0.386819
	C185	C	0.120651	0.191356	0.616046
	C186	C	0.122667	0.837369	0.387141
	C187	C	0.882777	0.838343	0.615009
	C188	C	0.177949	0.398837	0.883603
	C189	C	0.178887	0.629518	0.120092
	C190	C	0.825882	0.399080	0.121122
	C191	C	0.827063	0.629997	0.882807
	C192	C	0.403794	0.109640	0.600718
	C193	C	0.601133	0.920122	0.600961
	C194	C	0.600420	0.109221	0.400508
	C195	C	0.404395	0.920554	0.401660
	C196	C	0.601509	0.415174	0.093723
	C197	C	0.603831	0.615114	0.907128
	C198	C	0.402402	0.614927	0.094140
	C199	C	0.401603	0.415619	0.906852
	C200	C	0.096822	0.613730	0.401993
	C201	C	0.908007	0.614139	0.601227
	C202	C	0.097236	0.416105	0.601545
	C203	C	0.907310	0.417030	0.402371
	C204	C	0.904713	0.608560	0.100617
	C205	C	0.101141	0.419730	0.102252
	C206	C	0.100426	0.608928	0.902390
	C207	C	0.904474	0.419732	0.902084
	C208	C	0.102171	0.915992	0.593993
	C209	C	0.102325	0.115486	0.407819
	C210	C	0.901691	0.115316	0.594193
	C211	C	0.903702	0.916961	0.407713
	C212	C	0.597529	0.114870	0.900001
	C213	C	0.407580	0.113160	0.100127
	C214	C	0.596380	0.917458	0.099584
	C215	C	0.408363	0.916792	0.900981
	Zn216	Zn	0.503230	0.015178	0.750670
	Zn217	Zn	0.502190	0.015420	0.250598
	Zn218	Zn	0.754397	0.514491	0.001351
	Zn219	Zn	0.251392	0.514404	0.001426
	Zn220	Zn	0.002635	0.764859	0.501464
	Zn221	Zn	0.002074	0.266779	0.501487
	Zn222	Zn	0.002219	0.514671	0.751540
	Zn223	Zn	0.002607	0.514601	0.252436
	Zn224	Zn	0.502787	0.766144	0.000347
	Zn225	Zn	0.501643	0.264286	-0.000045
	Zn226	Zn	0.751382	0.015179	0.500320
	Zn227	Zn	0.253799	0.014740	0.500761
	N228	N	0.416581	0.977926	0.680536
	N229	N	0.589326	0.051853	0.679954
	N230	N	0.589684	0.978469	0.320001
	N231	N	0.415621	0.051895	0.321397
	N232	N	0.682006	0.428505	0.963699
	N233	N	0.682015	0.600251	0.038462
	N234	N	0.322596	0.601681	0.963851
	N235	N	0.323960	0.429334	0.038285
	N236	N	0.964850	0.692781	0.416620
	N237	N	0.039787	0.692967	0.586866
	N238	N	0.964710	0.338358	0.586293
	N239	N	0.039470	0.338755	0.417159
	N240	N	0.965763	0.428232	0.680837
	N241	N	0.039334	0.601178	0.680537
	N242	N	0.966107	0.602741	0.321413
	N243	N	0.039116	0.428656	0.323242
	N244	N	0.417627	0.693437	0.963230
	N245	N	0.590227	0.695667	0.037147
	N246	N	0.587098	0.336707	0.962834
	N247	N	0.415727	0.335774	0.037077
	N248	N	0.679777	0.977315	0.415126
	N249	N	0.678520	0.052836	0.584397
	N250	N	0.325326	0.977103	0.586088
	N251	N	0.325979	0.052830	0.416360
	N252	N	0.916304	0.477263	0.181450
	N253	N	0.088712	0.551442	0.180808
	N254	N	0.088386	0.477633	0.822587
	N255	N	0.915545	0.551155	0.821966
	N256	N	0.181993	0.929036	0.463715
	N257	N	0.182295	0.101336	0.538012
	N258	N	0.821410	0.103266	0.464034
	N259	N	0.823938	0.930396	0.537983
	N260	N	0.464697	0.192380	0.915556
	N261	N	0.539329	0.192372	0.084989
	N262	N	0.464873	0.837853	0.084899
	N263	N	0.540134	0.837921	0.915084
	N264	N	0.465249	0.928596	0.179560
	N265	N	0.538685	0.102313	0.180147
	N266	N	0.466239	0.102382	0.820738
	N267	N	0.539878	0.929444	0.822170
	N268	N	0.916774	0.194484	0.463681
	N269	N	0.086984	0.193485	0.538966
	N270	N	0.088697	0.836275	0.464055
	N271	N	0.916472	0.836656	0.537968
	N272	N	0.178615	0.476403	0.917522
	N273	N	0.180089	0.551778	0.086945
	N274	N	0.825630	0.476623	0.086413
	N275	N	0.826594	0.552216	0.917115
	O276	O	-0.034646	0.057888	-0.035085
	H277	H	-0.033675	0.064528	-0.039032
	H278	H	-0.034667	0.060704	-0.027048
	O279	O	0.456026	0.477159	0.451063
	H280	H	0.464709	0.483626	0.459884
	H281	H	0.445802	0.476000	0.448508
	O282	O	0.529026	0.491222	0.508204
	H283	H	0.534710	0.494004	0.502462
	H284	H	0.530001	0.492610	0.514527
	O285	O	1.007829	0.021466	1.000339
	H286	H	1.013641	0.029021	0.996886
	H287	H	1.008093	0.012895	1.005332
	O288	O	0.951688	0.034846	0.032238
	H289	H	0.946307	0.031725	0.031619
	H290	H	0.955275	0.030466	0.035677
	O291	O	0.469816	0.514914	0.447191
	H292	H	0.467802	0.512915	0.443777
	H293	H	0.460619	0.516564	0.445784
	O294	O	1.062944	0.084874	1.129468
	H295	H	1.075104	0.082290	1.130360
	H296	H	1.063455	0.085121	1.139334
	O297	O	-0.121423	0.021148	0.076097
	H298	H	-0.127857	0.024124	0.084797
	H299	H	-0.122551	0.018766	0.064789
	O300	O	1.124344	-0.045365	-0.085189
	H301	H	1.124850	-0.049929	-0.088164
	H302	H	1.130707	-0.047413	-0.091648
	O303	O	0.503987	0.568054	0.439796
	H304	H	0.499254	0.559873	0.440173
	H305	H	0.505902	0.554922	0.436381
	O306	O	0.985701	-0.010884	-0.088856
	H307	H	0.999836	-0.011574	-0.085015
	H308	H	0.987914	-0.014016	-0.077213
	O309	O	0.040021	0.038515	1.016019
	H310	H	0.050872	0.027147	1.016677
	H311	H	0.038062	0.035515	1.017146
	O312	O	1.049966	1.015264	1.057912
	H313	H	1.051672	1.006185	1.050845
	H314	H	1.045207	1.012124	1.068918
	O315	O	0.563712	0.499251	0.412486
	H316	H	0.558584	0.515246	0.410572
	H317	H	0.561185	0.507566	0.400574
	O318	O	-0.040286	-0.059717	-0.084756
	H319	H	-0.042220	-0.058641	-0.074699
	H320	H	-0.037128	-0.058874	-0.084542
	O321	O	0.045475	0.958497	1.021702
	H322	H	0.039188	0.956429	1.032805
	H323	H	0.040872	0.962434	1.016783
	O324	O	0.448539	0.487781	0.456791
	H325	H	0.451819	0.488972	0.464722
	H326	H	0.452798	0.494881	0.453793
	O327	O	0.578865	0.494544	0.476916
	H328	H	0.575541	0.492734	0.485100
	H329	H	0.569365	0.480942	0.476480
	O330	O	0.556754	0.450141	0.449549
	H331	H	0.563358	0.431892	0.444475
	H332	H	0.564307	0.457174	0.434635
	O333	O	0.438165	0.480055	0.537223
	H334	H	0.446228	0.489835	0.537493
	H335	H	0.431296	0.476824	0.531867
	O336	O	0.409423	0.502161	0.416257
	H337	H	0.407241	0.497514	0.408219
	H338	H	0.412217	0.499069	0.418244
	O339	O	0.976232	1.014627	0.026192
	H340	H	0.972189	1.016298	0.017267
	H341	H	0.972533	1.013505	0.018963
	O342	O	0.529454	0.496629	0.500055
	H343	H	0.532430	0.499480	0.505083
	H344	H	0.538200	0.501603	0.506565
	O345	O	1.044615	-0.001105	1.033742
	H346	H	1.049137	-0.005517	1.033086
	H347	H	1.045245	-0.003414	1.030635
	O348	O	-0.015890	-0.027140	0.000239
	H349	H	-0.016864	-0.031073	-0.010418
	H350	H	-0.031772	-0.029667	-0.001594
	O351	O	-0.109304	0.974185	1.037928
	H352	H	-0.119531	0.977589	1.028532
	H353	H	-0.105823	0.978658	1.030635
	O354	O	0.497422	0.536753	0.536825
	H355	H	0.495284	0.537328	0.529123
	H356	H	0.492726	0.526373	0.537701
	O357	O	0.031441	0.953497	1.032271
	H358	H	0.015498	0.954248	1.037849
	H359	H	0.032833	0.968347	1.037221
