data_Molecule from HDF5

_cell_length_a		16.484547
_cell_length_b		16.475879
_cell_length_c		16.402621
_cell_angle_alpha	90.094855
_cell_angle_beta	89.854705
_cell_angle_gamma	90.030176
_symmetry_space_group_name_H-M	'P 1'
_symmetry_Int_Tables_number		1

loop_
	_symmetry_equiv_pos_as_xyz
	x,y,z

loop_
	_atom_site_label
	_atom_site_type_symbol
	_atom_site_fract_x
	_atom_site_fract_y
	_atom_site_fract_z
	H0	H	0.396323	0.841361	0.721507
	H1	H	0.607826	0.157362	0.722711
	H2	H	0.610807	0.844556	0.273953
	H3	H	0.396371	0.158405	0.279587
	H4	H	0.725762	0.393753	0.843742
	H5	H	0.725262	0.609985	0.158061
	H6	H	0.281806	0.606435	0.841798
	H7	H	0.278915	0.393765	0.157771
	H8	H	0.845171	0.725684	0.391710
	H9	H	0.158236	0.723676	0.606705
	H10	H	0.842410	0.278828	0.608953
	H11	H	0.157572	0.278096	0.394115
	H12	H	0.842804	0.395922	0.724622
	H13	H	0.160727	0.603994	0.718492
	H14	H	0.846222	0.610375	0.274859
	H15	H	0.158560	0.394566	0.278755
	H16	H	0.395996	0.721971	0.842479
	H17	H	0.608784	0.723894	0.158281
	H18	H	0.609862	0.278267	0.842831
	H19	H	0.395191	0.278300	0.158403
	H20	H	0.729409	0.845625	0.387131
	H21	H	0.722926	0.157318	0.606148
	H22	H	0.278560	0.842427	0.606651
	H23	H	0.279409	0.157768	0.395700
	H24	H	0.895341	0.344064	0.222915
	H25	H	0.110134	0.657678	0.225425
	H26	H	0.100926	0.342061	0.783988
	H27	H	0.894510	0.659365	0.778245
	H28	H	0.224493	0.891633	0.343328
	H29	H	0.218070	0.102747	0.659261
	H30	H	0.777434	0.109164	0.342399
	H31	H	0.774998	0.892255	0.656341
	H32	H	0.345213	0.219913	0.897011
	H33	H	0.657717	0.226910	0.111273
	H34	H	0.345464	0.776168	0.109615
	H35	H	0.658474	0.774675	0.890844
	H36	H	0.345541	0.893190	0.224357
	H37	H	0.657264	0.111535	0.227164
	H38	H	0.344691	0.102951	0.781304
	H39	H	0.658756	0.890683	0.775133
	H40	H	0.892472	0.224833	0.342817
	H41	H	0.100776	0.218238	0.659523
	H42	H	0.109178	0.776427	0.343488
	H43	H	0.891374	0.777586	0.657501
	H44	H	0.219273	0.342804	0.899580
	H45	H	0.226183	0.658367	0.109311
	H46	H	0.776568	0.345697	0.110004
	H47	H	0.775243	0.657875	0.891031
	H48	H	0.410005	0.115323	0.594902
	H49	H	0.585913	0.889141	0.586022
	H50	H	0.592159	0.112560	0.415026
	H51	H	0.412599	0.889429	0.417462
	H52	H	0.589469	0.416236	0.112671
	H53	H	0.590151	0.585315	0.889209
	H54	H	0.419156	0.586991	0.111402
	H55	H	0.412194	0.406567	0.885687
	H56	H	0.113378	0.590714	0.414992
	H57	H	0.887743	0.588250	0.591930
	H58	H	0.115087	0.407726	0.594741
	H59	H	0.889660	0.420155	0.410036
	H60	H	0.112674	0.407488	0.587057
	H61	H	0.888517	0.592184	0.587922
	H62	H	0.110950	0.586566	0.416698
	H63	H	0.885164	0.407900	0.408977
	H64	H	0.412908	0.596152	0.116293
	H65	H	0.586461	0.586889	0.889172
	H66	H	0.586479	0.413262	0.113224
	H67	H	0.410037	0.413658	0.886451
	H68	H	0.586153	0.112003	0.410178
	H69	H	0.589744	0.888584	0.584436
	H70	H	0.412108	0.111834	0.589826
	H71	H	0.407787	0.885267	0.410099
	H72	H	0.917306	0.614145	0.091589
	H73	H	0.082244	0.392857	0.086604
	H74	H	0.098292	0.617454	0.910489
	H75	H	0.920964	0.391993	0.908811
	H76	H	0.086589	0.908722	0.614129
	H77	H	0.091770	0.087350	0.385302
	H78	H	0.907060	0.086762	0.613678
	H79	H	0.915470	0.909723	0.385652
	H80	H	0.616437	0.092081	0.912121
	H81	H	0.386231	0.094754	0.093592
	H82	H	0.614093	0.917250	0.092780
	H83	H	0.389281	0.912445	0.909403
	H84	H	0.615361	0.906436	0.084763
	H85	H	0.392552	0.091044	0.080541
	H86	H	0.614912	0.087063	0.913582
	H87	H	0.389092	0.908513	0.913047
	H88	H	0.914938	0.087376	0.610999
	H89	H	0.088085	0.089353	0.386221
	H90	H	0.092810	0.911870	0.615199
	H91	H	0.912136	0.918934	0.389214
	H92	H	0.090981	0.616840	0.905578
	H93	H	0.098472	0.388275	0.081922
	H94	H	0.919216	0.609942	0.083652
	H95	H	0.913522	0.393205	0.921942
	H96	H	0.406130	0.114244	0.589745
	H97	H	0.588383	0.887078	0.588446
	H98	H	0.585823	0.108863	0.417591
	H99	H	0.416342	0.888144	0.408897
	H100	H	0.590433	0.412396	0.114715
	H101	H	0.589467	0.589325	0.887325
	H102	H	0.407775	0.585247	0.114227
	H103	H	0.416520	0.411570	0.888652
	H104	H	0.113107	0.586795	0.412061
	H105	H	0.889913	0.587555	0.586679
	H106	H	0.111865	0.414353	0.591333
	H107	H	0.890742	0.412204	0.420114
	H108	H	0.911383	0.613423	0.085261
	H109	H	0.092885	0.384821	0.098727
	H110	H	0.090465	0.613585	0.913731
	H111	H	0.906853	0.386603	0.910295
	H112	H	0.087765	0.915305	0.611629
	H113	H	0.091232	0.091628	0.384240
	H114	H	0.911240	0.093654	0.614278
	H115	H	0.921270	0.915363	0.392128
	H116	H	0.617425	0.088665	0.908995
	H117	H	0.391432	0.081362	0.091713
	H118	H	0.609635	0.917229	0.080072
	H119	H	0.391982	0.913168	0.914299
	C120	C	0.378220	0.008892	0.623410
	C121	C	0.621865	0.991590	0.620405
	C122	C	0.623241	0.008996	0.378273
	C123	C	0.379870	0.991625	0.379632
	C124	C	0.623540	0.379884	0.009930
	C125	C	0.622838	0.621927	0.992137
	C126	C	0.380648	0.622048	0.009320
	C127	C	0.380604	0.378808	0.991759
	C128	C	0.009843	0.622429	0.379444
	C129	C	0.992627	0.622497	0.621753
	C130	C	0.008404	0.378788	0.623537
	C131	C	0.992533	0.380179	0.380074
	C132	C	0.881499	0.509447	0.121358
	C133	C	0.124350	0.492351	0.122511
	C134	C	0.123004	0.510504	0.879750
	C135	C	0.879447	0.493551	0.879441
	C136	C	0.122047	0.878953	0.509277
	C137	C	0.121249	0.121056	0.490740
	C138	C	0.878328	0.122820	0.508908
	C139	C	0.880781	0.880283	0.492227
	C140	C	0.511520	0.120583	0.880119
	C141	C	0.493447	0.122789	0.122633
	C142	C	0.509976	0.879680	0.120801
	C143	C	0.493903	0.878173	0.878879
	C144	C	0.377092	0.889417	0.682434
	C145	C	0.625331	0.109990	0.682125
	C146	C	0.628399	0.891553	0.314645
	C147	C	0.377676	0.110552	0.319383
	C148	C	0.685761	0.375984	0.891352
	C149	C	0.684776	0.627091	0.110628
	C150	C	0.320974	0.624376	0.889731
	C151	C	0.320002	0.376165	0.110713
	C152	C	0.892151	0.684752	0.374624
	C153	C	0.111054	0.683180	0.624631
	C154	C	0.890049	0.318850	0.626581
	C155	C	0.110614	0.318688	0.376519
	C156	C	0.890183	0.377267	0.684475
	C157	C	0.112254	0.623598	0.680434
	C158	C	0.892827	0.627596	0.316181
	C159	C	0.111164	0.376746	0.319138
	C160	C	0.377728	0.682459	0.890298
	C161	C	0.626608	0.683888	0.110714
	C162	C	0.627846	0.318437	0.890770
	C163	C	0.377477	0.318086	0.110583
	C164	C	0.686959	0.892023	0.371700
	C165	C	0.682809	0.110188	0.623911
	C166	C	0.318529	0.889739	0.625115
	C167	C	0.319488	0.110369	0.377214
	C168	C	0.877641	0.391323	0.182604
	C169	C	0.127919	0.610592	0.184725
	C170	C	0.121515	0.389930	0.822521
	C171	C	0.876262	0.611982	0.818185
	C172	C	0.183556	0.875006	0.390374
	C173	C	0.178978	0.121779	0.611391
	C174	C	0.817678	0.126508	0.390036
	C175	C	0.816588	0.875097	0.609501
	C176	C	0.392650	0.180380	0.878192
	C177	C	0.610643	0.185621	0.128147
	C178	C	0.392465	0.817519	0.126110
	C179	C	0.611666	0.816096	0.874151
	C180	C	0.392367	0.875773	0.183446
	C181	C	0.610571	0.127808	0.185688
	C182	C	0.392310	0.121964	0.820904
	C183	C	0.611765	0.874167	0.816466
	C184	C	0.874951	0.184318	0.390322
	C185	C	0.120548	0.178973	0.611403
	C186	C	0.126179	0.817299	0.390659
	C187	C	0.874568	0.817731	0.610026
	C188	C	0.180307	0.390461	0.879660
	C189	C	0.185652	0.610937	0.126564
	C190	C	0.818551	0.392274	0.126243
	C191	C	0.817006	0.611171	0.874687
	C192	C	0.402417	0.092041	0.598671
	C193	C	0.595720	0.909707	0.593811
	C194	C	0.595764	0.089944	0.406139
	C195	C	0.404937	0.908970	0.404928
	C196	C	0.596634	0.406227	0.092025
	C197	C	0.596288	0.594980	0.909932
	C198	C	0.406056	0.596857	0.092402
	C199	C	0.405725	0.403664	0.908505
	C200	C	0.091395	0.595715	0.406715
	C201	C	0.910095	0.596799	0.596325
	C202	C	0.091626	0.402998	0.598198
	C203	C	0.910238	0.406141	0.405547
	C204	C	0.908479	0.591296	0.094475
	C205	C	0.098609	0.410144	0.096379
	C206	C	0.100023	0.594201	0.903268
	C207	C	0.905811	0.411915	0.906075
	C208	C	0.096422	0.904646	0.592161
	C209	C	0.097531	0.096569	0.407221
	C210	C	0.903760	0.096582	0.591444
	C211	C	0.908340	0.907027	0.410317
	C212	C	0.594599	0.096124	0.904510
	C213	C	0.411502	0.096460	0.096181
	C214	C	0.591711	0.906090	0.093668
	C215	C	0.411461	0.903906	0.905160
	Zn216	Zn	0.501910	-0.000402	0.749821
	Zn217	Zn	0.501299	0.000435	0.250323
	Zn218	Zn	0.751480	0.501961	0.001776
	Zn219	Zn	0.252967	0.501537	0.000582
	Zn220	Zn	0.000817	0.750648	0.500972
	Zn221	Zn	-0.000387	0.250856	0.500340
	Zn222	Zn	0.001121	0.502018	0.750996
	Zn223	Zn	0.001601	0.500924	0.250647
	Zn224	Zn	0.502131	0.749779	0.000328
	Zn225	Zn	0.502835	0.250784	0.000634
	Zn226	Zn	0.751146	0.000414	0.499567
	Zn227	Zn	0.250460	-0.000364	0.500545
	N228	N	0.413526	0.964488	0.681384
	N229	N	0.588329	0.035126	0.680275
	N230	N	0.589347	0.965199	0.318504
	N231	N	0.414552	0.035701	0.320786
	N232	N	0.683366	0.413224	0.966355
	N233	N	0.682542	0.589476	0.035830
	N234	N	0.322721	0.587658	0.964801
	N235	N	0.321752	0.413152	0.035802
	N236	N	0.966095	0.681834	0.412892
	N237	N	0.035468	0.682786	0.589323
	N238	N	0.964717	0.319952	0.589044
	N239	N	0.035802	0.320309	0.413355
	N240	N	0.964912	0.413998	0.682367
	N241	N	0.037416	0.586735	0.679057
	N242	N	0.967036	0.589519	0.319003
	N243	N	0.036695	0.414305	0.321167
	N244	N	0.414046	0.681221	0.965746
	N245	N	0.588969	0.680894	0.036006
	N246	N	0.590108	0.320338	0.965593
	N247	N	0.414662	0.319696	0.035437
	N248	N	0.683918	0.966053	0.410266
	N249	N	0.680745	0.035580	0.586371
	N250	N	0.319014	0.965151	0.589183
	N251	N	0.320535	0.035416	0.413588
	N252	N	0.916115	0.465365	0.179564
	N253	N	0.090367	0.536137	0.182299
	N254	N	0.086870	0.465652	0.822085
	N255	N	0.914588	0.537994	0.821058
	N256	N	0.181118	0.912745	0.465223
	N257	N	0.179807	0.086592	0.535320
	N258	N	0.819458	0.088937	0.464875
	N259	N	0.820172	0.913126	0.535084
	N260	N	0.467875	0.179810	0.914210
	N261	N	0.536792	0.182658	0.089584
	N262	N	0.466792	0.819522	0.087976
	N263	N	0.537472	0.818646	0.912314
	N264	N	0.466402	0.913805	0.180185
	N265	N	0.536637	0.089315	0.182302
	N266	N	0.467269	0.085750	0.821765
	N267	N	0.537462	0.912132	0.819329
	N268	N	0.911695	0.182277	0.465291
	N269	N	0.085685	0.178894	0.535478
	N270	N	0.088511	0.819737	0.465418
	N271	N	0.913733	0.820915	0.536095
	N272	N	0.181434	0.466440	0.914128
	N273	N	0.183882	0.536355	0.088939
	N274	N	0.820938	0.466677	0.088813
	N275	N	0.818840	0.536624	0.912012
	O276	O	0.183307	0.736072	0.251794
	H277	H	0.166696	0.724577	0.249068
	H278	H	0.166597	0.764423	0.249335
	O279	O	1.190464	0.181290	0.819805
	H280	H	1.175370	0.153321	0.828400
	H281	H	1.179887	0.173757	0.835306
	O282	O	0.634172	0.319749	0.344659
	H283	H	0.604085	0.314253	0.341126
	H284	H	0.632260	0.339615	0.352030
	O285	O	0.783513	0.782044	0.024535
	H286	H	0.781077	0.781183	0.061540
	H287	H	0.758162	0.768775	0.021699
	O288	O	0.563196	0.650067	0.359968
	H289	H	0.573123	0.661545	0.348220
	H290	H	0.571177	0.659009	0.375395
	O291	O	0.592915	0.455166	0.702619
	H292	H	0.565997	0.452285	0.701812
	H293	H	0.588516	0.439861	0.697201
	O294	O	0.085467	-0.214212	1.073720
	H295	H	0.081141	-0.210601	1.057176
	H296	H	0.075117	-0.212375	1.053461
	O297	O	0.435365	0.398905	0.510991
	H298	H	0.435767	0.398167	0.505706
	H299	H	0.437421	0.394846	0.496770
	O300	O	0.480760	0.655124	0.665695
	H301	H	0.484256	0.661893	0.658369
	H302	H	0.459725	0.660355	0.663017
	O303	O	0.430638	0.429963	0.393271
	H304	H	0.427432	0.427849	0.390071
	H305	H	0.432996	0.449916	0.390980
	O306	O	0.534450	0.321540	0.295239
	H307	H	0.517209	0.317146	0.286107
	H308	H	0.528734	0.329279	0.284901
	O309	O	0.563480	0.490437	0.528382
	H310	H	0.560083	0.503183	0.540299
	H311	H	0.564066	0.506216	0.523235
	O312	O	0.021044	0.782241	0.789447
	H313	H	0.019998	0.812731	0.783534
	H314	H	0.022497	0.758610	0.752696
	O315	O	0.328375	0.515688	0.705656
	H316	H	0.301777	0.503288	0.731447
	H317	H	0.337097	0.481893	0.693927
	O318	O	1.026949	0.208859	0.118352
	H319	H	1.024474	0.207607	0.140216
	H320	H	1.030926	0.193286	0.123125
	O321	O	0.220612	0.026711	-0.026168
	H322	H	0.227612	-0.000094	-0.018115
	H323	H	0.202759	0.010168	-0.035394
	O324	O	0.454709	0.482945	0.291731
	H325	H	0.461850	0.486229	0.294240
	H326	H	0.467185	0.484434	0.284688
	O327	O	0.505671	0.451414	0.344932
	H328	H	0.515485	0.456231	0.352053
	H329	H	0.499724	0.459486	0.345793
	O330	O	-0.061151	1.115569	0.129018
	H331	H	-0.083955	1.101620	0.135767
	H332	H	-0.072806	1.133686	0.127232
	O333	O	0.404239	0.495284	0.669185
	H334	H	0.393876	0.477986	0.666391
	H335	H	0.389596	0.491686	0.680960
	O336	O	0.202655	0.194304	0.018421
	H337	H	0.220907	0.180488	0.005341
	H338	H	0.213852	0.185678	0.014962
	O339	O	0.177685	0.827699	0.821527
	H340	H	0.143952	0.817864	0.813491
	H341	H	0.192812	0.811358	0.871816
	O342	O	0.148476	0.933301	1.130836
	H343	H	0.136189	0.948217	1.144772
	H344	H	0.151256	0.951299	1.130508
	O345	O	0.981787	0.978725	-0.209316
	H346	H	0.996067	0.981612	-0.211167
	H347	H	0.971479	0.987175	-0.218492
	O348	O	0.310027	0.692728	0.402967
	H349	H	0.291377	0.671753	0.409248
	H350	H	0.305206	0.687842	0.423510
	O351	O	-0.098815	1.112581	0.805833
	H352	H	-0.103180	1.129073	0.816125
	H353	H	-0.100906	1.124486	0.813271
	O354	O	-0.169938	0.824114	0.176139
	H355	H	-0.143185	0.815780	0.170797
	H356	H	-0.157946	0.852009	0.190684
	O357	O	-0.069164	0.205351	0.898613
	H358	H	-0.063519	0.212192	0.911784
	H359	H	-0.057480	0.204653	0.918746
	O360	O	0.549387	0.482780	0.473791
	H361	H	0.556503	0.474703	0.493647
	H362	H	0.539930	0.473941	0.481901
	O363	O	0.015711	0.109494	0.804118
	H364	H	0.022897	0.121692	0.803316
	H365	H	0.043600	0.106409	0.812238
	O366	O	0.499449	0.323890	0.498915
	H367	H	0.485713	0.323519	0.485435
	H368	H	0.507743	0.323812	0.478361
	O369	O	0.468805	0.287595	0.715449
	H370	H	0.481978	0.281554	0.706373
	H371	H	0.460370	0.269493	0.725391
	O372	O	1.187861	0.186862	1.186039
	H373	H	1.173606	0.160881	1.192793
	H374	H	1.189183	0.196036	1.148343
	O375	O	0.672410	0.501446	0.709648
	H376	H	0.674351	0.505650	0.714637
	H377	H	0.650444	0.489603	0.722201
	O378	O	0.992998	0.797366	1.193392
	H379	H	1.006613	0.784267	1.158029
	H380	H	0.998972	0.784305	1.219426
	O381	O	0.707359	0.296716	0.492121
	H382	H	0.711940	0.295636	0.476782
	H383	H	0.730700	0.301150	0.496314
	O384	O	0.621994	0.613960	0.561156
	H385	H	0.628243	0.637932	0.586451
	H386	H	0.635342	0.598807	0.550819
	O387	O	0.007661	-0.035311	1.010376
	H388	H	0.011190	-0.052778	1.012224
	H389	H	-0.004416	-0.025389	1.005224
	O390	O	0.219542	0.024695	0.214903
	H391	H	0.233943	0.035432	0.237950
	H392	H	0.204476	0.019100	0.226982
	O393	O	0.875893	1.189653	0.958146
	H394	H	0.873242	1.169126	0.958171
	H395	H	0.906577	1.195616	0.949491
	O396	O	1.214440	-0.015192	-0.201222
	H397	H	1.242538	-0.035345	-0.234389
	H398	H	1.207216	-0.052152	-0.175849
	O399	O	0.788755	-0.015733	0.860722
	H400	H	0.785685	-0.026656	0.893988
	H401	H	0.765362	-0.003737	0.845121
	O402	O	0.877808	0.992390	0.971185
	H403	H	0.861847	0.969535	0.971934
	H404	H	0.898414	0.980505	0.986348
	O405	O	0.953471	0.782964	-0.047548
	H406	H	0.958711	0.779851	-0.095016
	H407	H	0.905758	0.778671	-0.038747
	O408	O	0.993688	-0.038196	-0.094530
	H409	H	0.985976	-0.054613	-0.101428
	H410	H	0.981728	-0.019282	-0.100613
	O411	O	0.777485	1.056740	0.062250
	H412	H	0.779240	1.054664	0.038509
	H413	H	0.774084	1.081690	0.060789
	O414	O	0.321937	0.662542	0.572783
	H415	H	0.323298	0.642578	0.555048
	H416	H	0.342519	0.655931	0.580895
	O417	O	0.286262	0.343929	0.534361
	H418	H	0.273913	0.335157	0.523798
	H419	H	0.278804	0.340241	0.535948
	O420	O	-0.018979	0.114139	0.214021
	H421	H	-0.026941	0.105955	0.212025
	H422	H	-0.016229	0.113238	0.218958
	O423	O	0.651403	0.714824	0.497316
	H424	H	0.648506	0.727432	0.503908
	H425	H	0.652623	0.711080	0.521328
	O426	O	0.606850	0.559144	0.516993
	H427	H	0.599816	0.545373	0.521604
	H428	H	0.600326	0.558207	0.515357
	O429	O	0.411734	0.697021	0.305165
	H430	H	0.402547	0.701047	0.317524
	H431	H	0.418216	0.712067	0.300455
	O432	O	0.702791	0.462357	0.302826
	H433	H	0.712906	0.459099	0.307015
	H434	H	0.698798	0.459967	0.306036
	O435	O	0.353759	0.486289	0.446247
	H436	H	0.353697	0.468003	0.443832
	H437	H	0.358306	0.475844	0.426286
	O438	O	-0.212130	-0.018470	0.213307
	H439	H	-0.214301	-0.019274	0.181478
	H440	H	-0.252059	-0.019420	0.240691
	O441	O	0.783942	0.214628	-0.020265
	H442	H	0.794535	0.220399	-0.045157
	H443	H	0.768339	0.243814	-0.025576
	O444	O	0.220593	0.786786	0.976790
	H445	H	0.251948	0.764637	0.981611
	H446	H	0.213391	0.799337	1.001296
	O447	O	0.294912	0.294667	0.706847
	H448	H	0.289809	0.273944	0.721703
	H449	H	0.304414	0.282721	0.693347
	O450	O	0.679777	0.682739	0.654476
	H451	H	0.664642	0.673305	0.665318
	H452	H	0.682420	0.650006	0.640094
	O453	O	0.460170	0.588816	0.510554
	H454	H	0.468086	0.591757	0.528822
	H455	H	0.468729	0.581821	0.511766
