data_Molecule from HDF5

_cell_length_a		16.707285
_cell_length_b		16.614969
_cell_length_c		16.488846
_cell_angle_alpha	89.979219
_cell_angle_beta	90.061015
_cell_angle_gamma	90.034907
_symmetry_space_group_name_H-M	'P 1'
_symmetry_Int_Tables_number		1

loop_
	_symmetry_equiv_pos_as_xyz
	x,y,z

loop_
	_atom_site_label
	_atom_site_type_symbol
	_atom_site_fract_x
	_atom_site_fract_y
	_atom_site_fract_z
	H0	H	0.403798	0.874228	0.708044
	H1	H	0.608954	0.187568	0.703195
	H2	H	0.607470	0.871672	0.269326
	H3	H	0.402632	0.186070	0.264900
	H4	H	0.728614	0.426555	0.830269
	H5	H	0.728917	0.634708	0.144230
	H6	H	0.290071	0.632849	0.828418
	H7	H	0.288132	0.425400	0.143953
	H8	H	0.856060	0.753127	0.379955
	H9	H	0.165146	0.751306	0.591738
	H10	H	0.855439	0.306619	0.594350
	H11	H	0.162995	0.307141	0.380657
	H12	H	0.855731	0.424231	0.708810
	H13	H	0.166154	0.632941	0.705863
	H14	H	0.854998	0.635357	0.264285
	H15	H	0.165701	0.428244	0.268873
	H16	H	0.405400	0.748413	0.828443
	H17	H	0.608855	0.747322	0.146203
	H18	H	0.613299	0.309514	0.830091
	H19	H	0.405403	0.310414	0.144531
	H20	H	0.726978	0.873005	0.383310
	H21	H	0.729406	0.185108	0.591327
	H22	H	0.283726	0.875810	0.596225
	H23	H	0.282939	0.183856	0.377930
	H24	H	0.904969	0.373232	0.207610
	H25	H	0.112516	0.687662	0.206181
	H26	H	0.113080	0.374072	0.766272
	H27	H	0.906111	0.685581	0.766156
	H28	H	0.231504	0.922318	0.330474
	H29	H	0.230615	0.137044	0.641671
	H30	H	0.786256	0.135914	0.329325
	H31	H	0.788778	0.924402	0.643307
	H32	H	0.353532	0.250748	0.882708
	H33	H	0.662542	0.253417	0.094583
	H34	H	0.352520	0.807102	0.094078
	H35	H	0.662590	0.809864	0.883747
	H36	H	0.351483	0.925162	0.208919
	H37	H	0.663280	0.134331	0.208947
	H38	H	0.353109	0.133251	0.766850
	H39	H	0.663519	0.927278	0.768376
	H40	H	0.902046	0.251861	0.329547
	H41	H	0.113462	0.251399	0.642420
	H42	H	0.114259	0.808464	0.329502
	H43	H	0.906572	0.811054	0.644034
	H44	H	0.230771	0.374802	0.881017
	H45	H	0.231538	0.685646	0.093784
	H46	H	0.785345	0.375006	0.094648
	H47	H	0.789188	0.685941	0.882223
	H48	H	0.423277	0.140261	0.575157
	H49	H	0.600991	0.917619	0.575179
	H50	H	0.596530	0.142177	0.395806
	H51	H	0.413048	0.915234	0.394496
	H52	H	0.594350	0.442719	0.097872
	H53	H	0.602138	0.622125	0.872577
	H54	H	0.419674	0.617401	0.099509
	H55	H	0.418488	0.436256	0.872197
	H56	H	0.118117	0.618064	0.402205
	H57	H	0.896766	0.620299	0.581020
	H58	H	0.116615	0.441445	0.565995
	H59	H	0.898464	0.437827	0.402143
	H60	H	0.119204	0.447536	0.579738
	H61	H	0.898148	0.625706	0.572650
	H62	H	0.121475	0.616402	0.392565
	H63	H	0.898972	0.445976	0.397108
	H64	H	0.419629	0.619476	0.099038
	H65	H	0.599260	0.617890	0.875417
	H66	H	0.597507	0.441391	0.100244
	H67	H	0.415679	0.444558	0.874643
	H68	H	0.596938	0.140339	0.400752
	H69	H	0.601834	0.915218	0.579081
	H70	H	0.416394	0.140105	0.570784
	H71	H	0.429727	0.922000	0.397055
	H72	H	0.918121	0.643251	0.079050
	H73	H	0.102861	0.416456	0.079473
	H74	H	0.095836	0.641944	0.894972
	H75	H	0.924991	0.418642	0.896555
	H76	H	0.094750	0.941433	0.597939
	H77	H	0.092944	0.117857	0.375404
	H78	H	0.921868	0.114908	0.597144
	H79	H	0.923922	0.943972	0.375964
	H80	H	0.620164	0.120330	0.897884
	H81	H	0.396277	0.127131	0.069988
	H82	H	0.615634	0.943189	0.076275
	H83	H	0.397254	0.940492	0.900486
	H84	H	0.619846	0.938354	0.080427
	H85	H	0.401718	0.112841	0.070933
	H86	H	0.620865	0.119833	0.896177
	H87	H	0.396053	0.942657	0.894916
	H88	H	0.919056	0.122462	0.599290
	H89	H	0.097403	0.118405	0.373124
	H90	H	0.097969	0.941243	0.598493
	H91	H	0.917276	0.934188	0.371284
	H92	H	0.100657	0.640886	0.901512
	H93	H	0.093338	0.419456	0.077435
	H94	H	0.922154	0.640196	0.075121
	H95	H	0.918413	0.421765	0.904554
	H96	H	0.416260	0.143837	0.578623
	H97	H	0.597189	0.917270	0.578544
	H98	H	0.601436	0.142539	0.398293
	H99	H	0.417771	0.922599	0.410952
	H100	H	0.598265	0.445677	0.098830
	H101	H	0.596704	0.622498	0.873522
	H102	H	0.418125	0.618718	0.098899
	H103	H	0.424180	0.443039	0.875849
	H104	H	0.123415	0.625562	0.397155
	H105	H	0.901115	0.616016	0.572956
	H106	H	0.123805	0.433463	0.576422
	H107	H	0.895310	0.437655	0.392823
	H108	H	0.916696	0.641706	0.073027
	H109	H	0.100838	0.420231	0.069964
	H110	H	0.103435	0.644372	0.895121
	H111	H	0.914922	0.416217	0.896081
	H112	H	0.097061	0.944225	0.596886
	H113	H	0.095767	0.113860	0.375352
	H114	H	0.913948	0.116316	0.598878
	H115	H	0.911737	0.945302	0.372691
	H116	H	0.621261	0.121918	0.896595
	H117	H	0.394586	0.119461	0.082926
	H118	H	0.617968	0.936666	0.073341
	H119	H	0.394625	0.937234	0.896244
	C120	C	0.386632	0.038611	0.607915
	C121	C	0.630516	1.020843	0.608303
	C122	C	0.628853	0.038121	0.366003
	C123	C	0.387086	1.022204	0.366402
	C124	C	0.628850	0.410526	-0.005071
	C125	C	0.629735	0.651662	0.978492
	C126	C	0.387679	0.650423	-0.005179
	C127	C	0.387487	0.409166	0.978303
	C128	C	0.018499	0.651920	0.365032
	C129	C	1.001631	0.651826	0.607546
	C130	C	0.017752	0.408691	0.607119
	C131	C	1.000251	0.408347	0.365176
	C132	C	0.887074	0.538585	0.108717
	C133	C	0.130639	0.521892	0.107816
	C134	C	0.131099	0.538803	0.865283
	C135	C	0.887662	0.521305	0.865852
	C136	C	0.129840	0.908971	0.494751
	C137	C	0.128495	0.150147	0.477786
	C138	C	0.886087	0.151247	0.494997
	C139	C	0.887120	0.909000	0.477518
	C140	C	0.517517	0.151900	0.865465
	C141	C	0.499824	0.152003	0.108341
	C142	C	0.514781	0.908048	0.108584
	C143	C	0.498928	0.908751	0.865423
	C144	C	0.384778	0.921235	0.668594
	C145	C	0.629432	0.139652	0.665331
	C146	C	0.627658	0.919172	0.308201
	C147	C	0.384147	0.139281	0.305202
	C148	C	0.688552	0.408173	0.877150
	C149	C	0.688685	0.653308	0.097438
	C150	C	0.329429	0.651390	0.875993
	C151	C	0.328123	0.406785	0.096802
	C152	C	0.901931	0.712254	0.362093
	C153	C	0.118585	0.711025	0.609681
	C154	C	0.901654	0.347582	0.611320
	C155	C	0.117035	0.348273	0.363122
	C156	C	0.901705	0.405975	0.668357
	C157	C	0.118972	0.652334	0.666802
	C158	C	0.901555	0.653955	0.304684
	C159	C	0.118396	0.408092	0.307325
	C160	C	0.387057	0.708859	0.875970
	C161	C	0.629088	0.709012	0.098224
	C162	C	0.631306	0.350084	0.876980
	C163	C	0.386147	0.349604	0.097009
	C164	C	0.687084	0.919719	0.364450
	C165	C	0.689131	0.138533	0.609682
	C166	C	0.325462	0.922010	0.612466
	C167	C	0.324819	0.138189	0.361310
	C168	C	0.885616	0.420757	0.168418
	C169	C	0.131612	0.640058	0.167023
	C170	C	0.131906	0.420988	0.806209
	C171	C	0.886764	0.638782	0.806027
	C172	C	0.191005	0.904990	0.377393
	C173	C	0.189801	0.154343	0.595061
	C174	C	0.826074	0.154166	0.376736
	C175	C	0.828637	0.906689	0.596041
	C176	C	0.400116	0.210732	0.864217
	C177	C	0.616372	0.212587	0.112170
	C178	C	0.398406	0.847970	0.111351
	C179	C	0.616095	0.849669	0.864552
	C180	C	0.398147	0.906380	0.168804
	C181	C	0.616566	0.153586	0.169089
	C182	C	0.399801	0.152313	0.806743
	C183	C	0.616521	0.908117	0.807439
	C184	C	0.883797	0.211665	0.376735
	C185	C	0.131363	0.210891	0.595432
	C186	C	0.132771	0.848338	0.376752
	C187	C	0.887019	0.850036	0.596295
	C188	C	0.190346	0.421285	0.863162
	C189	C	0.190597	0.639390	0.110771
	C190	C	0.826337	0.421605	0.111872
	C191	C	0.828505	0.638830	0.863408
	C192	C	0.411530	0.120138	0.582165
	C193	C	0.606804	0.938244	0.584417
	C194	C	0.605144	0.120200	0.390986
	C195	C	0.412991	0.941084	0.393280
	C196	C	0.603648	0.435851	0.077465
	C197	C	0.606070	0.627792	0.895731
	C198	C	0.412225	0.625631	0.077649
	C199	C	0.412243	0.434278	0.895757
	C200	C	0.099771	0.627084	0.390312
	C201	C	0.919913	0.627574	0.582538
	C202	C	0.098894	0.433710	0.581314
	C203	C	0.918988	0.433283	0.390175
	C204	C	0.912022	0.620412	0.083223
	C205	C	0.105930	0.440105	0.082653
	C206	C	0.106927	0.620991	0.890059
	C207	C	0.912452	0.440024	0.891669
	C208	C	0.104022	0.934953	0.576423
	C209	C	0.102820	0.124115	0.395876
	C210	C	0.911245	0.125524	0.576963
	C211	C	0.911014	0.933987	0.394682
	C212	C	0.599461	0.127701	0.889912
	C213	C	0.418779	0.126892	0.082113
	C214	C	0.596442	0.932534	0.083828
	C215	C	0.417390	0.933216	0.890099
	Zn216	Zn	0.508131	0.030154	0.736438
	Zn217	Zn	0.507282	0.029938	0.237115
	Zn218	Zn	0.758244	0.530186	-0.012804
	Zn219	Zn	0.258903	0.530156	-0.012969
	Zn220	Zn	0.009448	0.781166	0.486274
	Zn221	Zn	0.007970	0.278899	0.486171
	Zn222	Zn	0.009434	0.529863	0.736632
	Zn223	Zn	0.009848	0.530080	0.236472
	Zn224	Zn	0.507561	0.779364	-0.012785
	Zn225	Zn	0.508875	0.281098	-0.012864
	Zn226	Zn	0.758426	0.029551	0.486273
	Zn227	Zn	0.257710	0.029818	0.486763
	N228	N	0.422270	0.994739	0.665960
	N229	N	0.593858	0.065355	0.664970
	N230	N	0.592509	0.993876	0.308639
	N231	N	0.422183	0.066135	0.308407
	N232	N	0.687110	0.445017	0.951631
	N233	N	0.689525	0.618350	0.022026
	N234	N	0.329572	0.615827	0.951127
	N235	N	0.328704	0.442978	0.021949
	N236	N	0.975650	0.711321	0.398778
	N237	N	0.044365	0.711197	0.574002
	N238	N	0.974834	0.348925	0.573945
	N239	N	0.042436	0.347828	0.397934
	N240	N	0.974886	0.443219	0.666024
	N241	N	0.044935	0.616392	0.666050
	N242	N	0.974915	0.617402	0.306109
	N243	N	0.044626	0.444547	0.308088
	N244	N	0.422469	0.708477	0.951094
	N245	N	0.593319	0.708344	0.023335
	N246	N	0.594719	0.351618	0.951442
	N247	N	0.422255	0.350725	0.022274
	N248	N	0.688137	0.994708	0.399551
	N249	N	0.690170	0.063424	0.575199
	N250	N	0.326412	0.996050	0.575443
	N251	N	0.326648	0.064361	0.398833
	N252	N	0.922563	0.494576	0.166807
	N253	N	0.094768	0.566185	0.165194
	N254	N	0.095738	0.495138	0.807298
	N255	N	0.922835	0.564595	0.807101
	N256	N	0.189390	0.941981	0.451867
	N257	N	0.188343	0.117230	0.520710
	N258	N	0.827212	0.117134	0.451236
	N259	N	0.828436	0.942358	0.521012
	N260	N	0.474300	0.210672	0.899861
	N261	N	0.542797	0.211822	0.075152
	N262	N	0.472165	0.848752	0.074584
	N263	N	0.541882	0.849638	0.899869
	N264	N	0.471558	0.942998	0.167127
	N265	N	0.543003	0.116804	0.166985
	N266	N	0.473964	0.116681	0.807051
	N267	N	0.542644	0.944135	0.807784
	N268	N	0.920384	0.210066	0.451306
	N269	N	0.094085	0.208512	0.521369
	N270	N	0.095453	0.850595	0.450923
	N271	N	0.922797	0.850943	0.521336
	N272	N	0.189986	0.495655	0.899159
	N273	N	0.190403	0.564784	0.074829
	N274	N	0.826808	0.496096	0.075827
	N275	N	0.828776	0.564703	0.899845
	O276	O	0.079467	0.814411	0.035650
	H277	H	0.081540	0.828531	0.059983
	H278	H	0.106552	0.807808	0.031215
	O279	O	0.013977	0.045976	0.182083
	H280	H	-0.007452	0.031702	0.179271
	H281	H	0.011766	0.038010	0.158665
	O282	O	0.922269	0.187374	0.870674
	H283	H	0.909518	0.209938	0.880230
	H284	H	0.937621	0.178327	0.886643
	O285	O	0.234105	0.247488	1.016978
	H286	H	0.256069	0.272488	1.038022
	H287	H	0.230626	0.251208	1.047791
	O288	O	0.452637	0.308786	0.433221
	H289	H	0.443215	0.317261	0.452620
	H290	H	0.451588	0.297424	0.433271
	O291	O	-0.300654	0.346985	0.672300
	H292	H	-0.322557	0.348842	0.647101
	H293	H	-0.292427	0.346795	0.673210
	O294	O	1.074475	0.017396	0.825290
	H295	H	1.081146	0.020118	0.826018
	H296	H	1.098193	0.011659	0.837971
	O297	O	0.720750	0.742736	0.516946
	H298	H	0.720640	0.740566	0.539858
	H299	H	0.732024	0.762522	0.527129
	O300	O	-0.467378	-0.592657	0.616991
	H301	H	-0.443358	-0.589654	0.614924
	H302	H	-0.478246	-0.617752	0.623613
	O303	O	0.553278	0.662252	0.605745
	H304	H	0.544662	0.674166	0.601078
	H305	H	0.546451	0.649982	0.598343
	O306	O	0.199170	0.221362	0.796057
	H307	H	0.192936	0.187081	0.813285
	H308	H	0.171309	0.219577	0.820805
	O309	O	0.731588	0.310250	0.463599
	H310	H	0.753235	0.293489	0.452141
	H311	H	0.728987	0.308926	0.430138
	O312	O	0.415275	0.511879	0.508544
	H313	H	0.409877	0.524219	0.500005
	H314	H	0.424777	0.512031	0.521008
	O315	O	1.732347	0.498582	1.267112
	H316	H	1.740910	0.485211	1.272549
	H317	H	1.759097	0.500366	1.257225
	O318	O	0.426933	0.628059	0.647926
	H319	H	0.448619	0.615011	0.648253
	H320	H	0.417444	0.620389	0.653271
	O321	O	-0.019716	1.198586	0.855380
	H322	H	-0.018348	1.198804	0.846245
	H323	H	-0.016737	1.200692	0.865307
	O324	O	1.211890	1.031697	-0.024271
	H325	H	1.217858	1.011738	-0.027158
	H326	H	1.209868	1.044323	-0.000871
	O327	O	0.211695	0.232764	1.183261
	H328	H	0.168313	0.225985	1.182946
	H329	H	0.238691	0.253145	1.217806
	O330	O	0.387099	0.535636	0.342194
	H331	H	0.379017	0.533228	0.339697
	H332	H	0.392542	0.518487	0.328847
	O333	O	0.302367	0.317668	0.691730
	H334	H	0.267879	0.289163	0.724870
	H335	H	0.292795	0.359721	0.685472
	O336	O	0.320330	0.347653	0.312893
	H337	H	0.328863	0.367144	0.333399
	H338	H	0.337953	0.365991	0.327065
	O339	O	0.911535	0.094574	1.178955
	H340	H	0.898336	0.091824	1.168838
	H341	H	0.902466	0.078093	1.186217
	O342	O	-0.215401	-0.001670	0.208835
	H343	H	-0.223500	-0.031749	0.221719
	H344	H	-0.224227	-0.021751	0.221637
	O345	O	-0.210832	1.061637	0.767356
	H346	H	-0.233816	1.082186	0.742112
	H347	H	-0.202876	1.088463	0.766486
	O348	O	0.856016	0.097638	0.998853
	H349	H	0.839998	0.111626	0.994738
	H350	H	0.848715	0.084914	1.011786
	O351	O	0.289328	0.504473	0.674892
	H352	H	0.281227	0.509635	0.678041
	H353	H	0.292059	0.517897	0.686526
	O354	O	-0.252090	-0.229644	0.722297
	H355	H	-0.249618	-0.238471	0.723629
	H356	H	-0.282149	-0.212170	0.721553
	O357	O	0.626949	0.469635	0.646638
	H358	H	0.630340	0.451433	0.654073
	H359	H	0.625375	0.450351	0.631869
	O360	O	0.398635	-0.259250	1.505722
	H361	H	0.402883	-0.256816	1.504564
	H362	H	0.389752	-0.255981	1.503959
	O363	O	0.048628	-0.189083	-0.230906
	H364	H	0.037980	-0.194734	-0.240528
	H365	H	0.035694	-0.191683	-0.235995
	O366	O	0.364627	0.741521	0.276867
	H367	H	0.350339	0.722442	0.282486
	H368	H	0.362625	0.767545	0.258816
	O369	O	0.741787	0.595891	0.428527
	H370	H	0.743318	0.608916	0.447393
	H371	H	0.743736	0.582827	0.445868
	O372	O	0.701749	0.716008	0.298970
	H373	H	0.691807	0.695233	0.323104
	H374	H	0.682269	0.698676	0.315202
	O375	O	1.219120	0.005107	-0.229707
	H376	H	1.236981	0.007879	-0.211845
	H377	H	1.231681	-0.006018	-0.231858
	O378	O	0.315591	0.431913	0.557716
	H379	H	0.310425	0.442424	0.582288
	H380	H	0.315901	0.412906	0.560994
	O381	O	0.795956	0.241325	0.773694
	H382	H	0.783316	0.260271	0.788918
	H383	H	0.807143	0.243846	0.790026
	O384	O	0.704054	0.329781	1.288292
	H385	H	0.684820	0.356028	1.283737
	H386	H	0.694119	0.309438	1.279184
	O387	O	0.812316	1.043445	-0.021533
	H388	H	0.820282	1.032643	-0.009546
	H389	H	0.806495	1.038869	-0.036755
	O390	O	0.497801	0.692598	0.299763
	H391	H	0.502595	0.699847	0.318974
	H392	H	0.487295	0.700314	0.286333
	O393	O	0.471065	0.309258	0.707258
	H394	H	0.468573	0.275228	0.738300
	H395	H	0.424398	0.311172	0.696969
	O396	O	-0.025053	0.818225	1.206141
	H397	H	-0.035195	0.790879	1.234464
	H398	H	-0.058408	0.824827	1.198051
	O399	O	0.227565	0.056499	1.202702
	H400	H	0.223052	0.068515	1.216573
	H401	H	0.231479	0.072854	1.218713
	O402	O	0.213097	0.831948	0.789460
	H403	H	0.179278	0.831386	0.787148
	H404	H	0.206997	0.850711	0.801286
	O405	O	1.303704	-0.452870	1.456365
	H406	H	1.312314	-0.439252	1.452133
	H407	H	1.296987	-0.449453	1.458255
	O408	O	-0.454142	-0.441575	-0.574084
	H409	H	-0.460758	-0.434087	-0.567988
	H410	H	-0.445319	-0.451815	-0.572746
	O411	O	-0.053094	0.260531	1.040839
	H412	H	-0.058470	0.269669	1.055326
	H413	H	-0.039293	0.249981	1.048583
	O414	O	0.641933	0.478953	0.436671
	H415	H	0.639182	0.456668	0.433024
	H416	H	0.641711	0.480240	0.450943
	O417	O	0.060499	0.047588	0.075052
	H418	H	0.045915	0.036198	0.071875
	H419	H	0.058122	0.048211	0.069010
	O420	O	0.512453	0.742878	0.469085
	H421	H	0.494307	0.751821	0.471823
	H422	H	0.528098	0.744795	0.468890
	O423	O	0.233880	0.041995	0.970164
	H424	H	0.232755	0.041855	0.988531
	H425	H	0.240393	0.043694	1.001653
	O426	O	0.513566	0.468741	0.358025
	H427	H	0.535746	0.472111	0.351369
	H428	H	0.512387	0.473237	0.366252
	O429	O	0.862589	0.845541	0.815183
	H430	H	0.857588	0.857726	0.821752
	H431	H	0.880375	0.852082	0.820352
	O432	O	0.520599	0.743065	0.696426
	H433	H	0.505326	0.740235	0.696716
	H434	H	0.516981	0.736232	0.715573
	O435	O	-0.041531	0.810975	-0.047361
	H436	H	-0.034215	0.815453	-0.052894
	H437	H	-0.017583	0.814049	-0.024027
	O438	O	0.136466	-0.090932	0.169482
	H439	H	0.109388	-0.086553	0.166205
	H440	H	0.140374	-0.066681	0.177482
	O441	O	0.074803	-0.769298	-0.040754
	H442	H	0.086616	-0.772828	-0.031623
	H443	H	0.068322	-0.758687	-0.040881
	O444	O	0.730625	0.565386	-0.299392
	H445	H	0.752475	0.567337	-0.280545
	H446	H	0.725065	0.566410	-0.307882
	O447	O	0.507100	0.609285	0.653414
	H448	H	0.515008	0.595358	0.665568
	H449	H	0.515550	0.593939	0.641727
	O450	O	-0.187969	0.949388	0.968228
	H451	H	-0.177536	0.946540	0.951829
	H452	H	-0.194431	0.926069	0.953335
	O453	O	0.345075	0.390207	0.485806
	H454	H	0.342398	0.383984	0.491575
	H455	H	0.343598	0.378087	0.501724
	O456	O	0.553941	0.315684	0.406895
	H457	H	0.553761	0.303604	0.406268
	H458	H	0.553484	0.314905	0.407953
	O459	O	0.816351	1.158416	0.107611
	H460	H	0.825449	1.153070	0.086113
	H461	H	0.816118	1.141101	0.100741
	O462	O	0.961457	0.006972	-0.220207
	H463	H	0.970474	0.021410	-0.219517
	H464	H	0.973650	0.017668	-0.216105
	O465	O	0.801678	-0.177775	0.200119
	H466	H	0.796925	-0.182601	0.150316
	H467	H	0.767087	-0.211912	0.228378
	O468	O	0.269035	0.701976	0.256697
	H469	H	0.254968	0.714853	0.276556
	H470	H	0.267046	0.687914	0.262214
	O471	O	1.048064	0.016447	0.995259
	H472	H	1.053472	0.012417	0.990927
	H473	H	1.043584	0.025984	0.981617
	O474	O	-0.211792	0.809340	0.031607
	H475	H	-0.180250	0.812472	0.008275
	H476	H	-0.233449	0.777116	0.024265
	O477	O	1.229807	0.814848	1.950207
	H478	H	1.241114	0.826250	1.942900
	H479	H	1.233347	0.797370	1.940825
	O480	O	0.565437	0.442725	0.271132
	H481	H	0.574548	0.441253	0.277169
	H482	H	0.562734	0.445832	0.267107
	O483	O	0.367824	0.715742	0.476103
	H484	H	0.372761	0.717322	0.493975
	H485	H	0.369313	0.721655	0.481312
	O486	O	0.942052	0.167106	0.848168
	H487	H	0.911471	0.160497	0.854910
	H488	H	0.938108	0.179199	0.831908
	O489	O	1.049164	1.249322	0.202276
	H490	H	1.046632	1.269650	0.234096
	H491	H	1.044204	1.219652	0.198729
