data_Molecule from HDF5

_cell_length_a		16.305719
_cell_length_b		16.312366
_cell_length_c		16.322764
_cell_angle_alpha	90.179722
_cell_angle_beta	89.926307
_cell_angle_gamma	90.031389
_symmetry_space_group_name_H-M	'P 1'
_symmetry_Int_Tables_number		1

loop_
	_symmetry_equiv_pos_as_xyz
	x,y,z

loop_
	_atom_site_label
	_atom_site_type_symbol
	_atom_site_fract_x
	_atom_site_fract_y
	_atom_site_fract_z
	H0	H	0.416864	0.859304	0.714026
	H1	H	0.611987	0.186382	0.713942
	H2	H	0.614254	0.859632	0.283468
	H3	H	0.414740	0.185964	0.285500
	H4	H	0.728585	0.424851	0.835724
	H5	H	0.728874	0.622107	0.162262
	H6	H	0.299936	0.620637	0.836121
	H7	H	0.297948	0.424958	0.162749
	H8	H	0.851387	0.737526	0.402100
	H9	H	0.178522	0.737853	0.598859
	H10	H	0.851256	0.308659	0.598579
	H11	H	0.177377	0.307825	0.399046
	H12	H	0.851306	0.425475	0.714336
	H13	H	0.177797	0.622118	0.715080
	H14	H	0.851330	0.621356	0.285400
	H15	H	0.177527	0.423802	0.283057
	H16	H	0.415314	0.737711	0.836501
	H17	H	0.611950	0.737329	0.162654
	H18	H	0.613680	0.306854	0.836428
	H19	H	0.414648	0.309008	0.163265
	H20	H	0.729697	0.859415	0.400766
	H21	H	0.728636	0.186376	0.597581
	H22	H	0.299416	0.859099	0.598808
	H23	H	0.298875	0.185740	0.401639
	H24	H	0.914447	0.359780	0.214221
	H25	H	0.112681	0.686264	0.214278
	H26	H	0.112737	0.360185	0.784079
	H27	H	0.916067	0.686861	0.786583
	H28	H	0.228759	0.924561	0.336395
	H29	H	0.229543	0.122861	0.662720
	H30	H	0.799713	0.120848	0.335979
	H31	H	0.801531	0.926467	0.663822
	H32	H	0.351135	0.236941	0.902779
	H33	H	0.677022	0.239475	0.100545
	H34	H	0.351383	0.807471	0.099448
	H35	H	0.678092	0.809089	0.901542
	H36	H	0.350774	0.925177	0.214738
	H37	H	0.677813	0.120996	0.214195
	H38	H	0.350900	0.121211	0.785755
	H39	H	0.677678	0.924316	0.784790
	H40	H	0.915677	0.237390	0.336001
	H41	H	0.112883	0.239265	0.662748
	H42	H	0.113635	0.807975	0.336940
	H43	H	0.916350	0.808979	0.663269
	H44	H	0.229032	0.359810	0.900089
	H45	H	0.227638	0.686239	0.097819
	H46	H	0.798602	0.360049	0.096864
	H47	H	0.800020	0.686210	0.901986
	H48	H	0.416082	0.142798	0.602387
	H49	H	0.605037	0.909775	0.583814
	H50	H	0.597884	0.138526	0.398571
	H51	H	0.422773	0.907806	0.407660
	H52	H	0.602592	0.419839	0.117625
	H53	H	0.604226	0.620213	0.883478
	H54	H	0.421670	0.618884	0.116307
	H55	H	0.414113	0.425368	0.881330
	H56	H	0.132511	0.614778	0.400220
	H57	H	0.897835	0.626186	0.586840
	H58	H	0.129539	0.434418	0.592879
	H59	H	0.896929	0.422519	0.408604
	H60	H	0.131639	0.429440	0.592681
	H61	H	0.903364	0.607601	0.588343
	H62	H	0.132089	0.622186	0.409554
	H63	H	0.902062	0.435598	0.413719
	H64	H	0.418899	0.615086	0.115809
	H65	H	0.611761	0.616594	0.881055
	H66	H	0.617485	0.434740	0.117520
	H67	H	0.421143	0.438343	0.886179
	H68	H	0.605143	0.133842	0.420031
	H69	H	0.616784	0.903809	0.593472
	H70	H	0.432666	0.135791	0.593629
	H71	H	0.420866	0.906333	0.406915
	H72	H	0.914549	0.639402	0.086862
	H73	H	0.108532	0.404667	0.096143
	H74	H	0.121692	0.640747	0.916102
	H75	H	0.912430	0.404834	0.908610
	H76	H	0.101379	0.933566	0.613519
	H77	H	0.104849	0.108872	0.386368
	H78	H	0.922472	0.121307	0.615861
	H79	H	0.923804	0.929591	0.384258
	H80	H	0.626889	0.109667	0.911629
	H81	H	0.394387	0.120579	0.101788
	H82	H	0.630127	0.933364	0.094668
	H83	H	0.396038	0.923117	0.906369
	H84	H	0.631533	0.926778	0.092505
	H85	H	0.399400	0.121759	0.086171
	H86	H	0.632747	0.114429	0.899285
	H87	H	0.400554	0.932359	0.912563
	H88	H	0.917940	0.116956	0.616578
	H89	H	0.102731	0.121576	0.384125
	H90	H	0.108166	0.924524	0.618297
	H91	H	0.919703	0.927732	0.382659
	H92	H	0.109101	0.644535	0.890089
	H93	H	0.100888	0.408029	0.091731
	H94	H	0.918987	0.641919	0.101507
	H95	H	0.923840	0.405316	0.897408
	H96	H	0.415965	0.136928	0.583324
	H97	H	0.601543	0.906177	0.599845
	H98	H	0.619479	0.143190	0.403940
	H99	H	0.422843	0.906596	0.405418
	H100	H	0.597898	0.439393	0.109904
	H101	H	0.605679	0.611907	0.884716
	H102	H	0.423090	0.615138	0.114589
	H103	H	0.428971	0.425148	0.884932
	H104	H	0.127956	0.610903	0.410734
	H105	H	0.895493	0.616882	0.603934
	H106	H	0.129357	0.431783	0.588348
	H107	H	0.897963	0.433956	0.399231
	H108	H	0.929605	0.636002	0.091538
	H109	H	0.109058	0.407850	0.086580
	H110	H	0.093857	0.633762	0.913182
	H111	H	0.927010	0.411457	0.912183
	H112	H	0.113023	0.935418	0.615808
	H113	H	0.114372	0.116111	0.381182
	H114	H	0.923600	0.115121	0.613965
	H115	H	0.920358	0.931984	0.384586
	H116	H	0.632086	0.122917	0.910862
	H117	H	0.400597	0.107513	0.093763
	H118	H	0.628573	0.931357	0.088117
	H119	H	0.398329	0.933696	0.901272
	C120	C	0.393073	0.030830	0.621483
	C121	C	0.636201	1.014619	0.620867
	C122	C	0.636276	0.030717	0.378331
	C123	C	0.393116	1.014618	0.378683
	C124	C	0.635564	0.401823	0.007441
	C125	C	0.635743	0.644643	0.990946
	C126	C	0.392562	0.644590	0.007564
	C127	C	0.392327	0.401211	0.991797
	C128	C	0.022890	0.644767	0.378344
	C129	C	1.006482	0.645744	0.622049
	C130	C	0.022764	0.402573	0.620608
	C131	C	1.006175	0.401542	0.377381
	C132	C	0.891942	0.531274	0.121487
	C133	C	0.134988	0.514814	0.120440
	C134	C	0.136203	0.531454	0.877583
	C135	C	0.892902	0.515055	0.878152
	C136	C	0.136096	0.902147	0.508002
	C137	C	0.136674	0.145138	0.491360
	C138	C	0.892762	0.145220	0.507698
	C139	C	0.893250	0.901939	0.492048
	C140	C	0.522956	0.144337	0.878502
	C141	C	0.505756	0.145442	0.122746
	C142	C	0.522327	0.901502	0.121249
	C143	C	0.506186	0.901116	0.877955
	C144	C	0.395605	0.907937	0.676441
	C145	C	0.633201	0.137467	0.676564
	C146	C	0.634644	0.908374	0.321872
	C147	C	0.394749	0.137367	0.323704
	C148	C	0.690806	0.404025	0.884598
	C149	C	0.690909	0.642566	0.113748
	C150	C	0.337687	0.641468	0.884869
	C151	C	0.335927	0.403854	0.114096
	C152	C	0.899973	0.699712	0.381506
	C153	C	0.129519	0.700323	0.619487
	C154	C	0.900186	0.346654	0.618829
	C155	C	0.128839	0.345809	0.378666
	C156	C	0.899912	0.404704	0.676173
	C157	C	0.129055	0.642923	0.677396
	C158	C	0.900145	0.641837	0.323581
	C159	C	0.128946	0.403374	0.321102
	C160	C	0.394520	0.700084	0.885118
	C161	C	0.632655	0.699540	0.114172
	C162	C	0.633904	0.345405	0.885038
	C163	C	0.393939	0.346377	0.114454
	C164	C	0.691740	0.908183	0.380281
	C165	C	0.691034	0.137633	0.618768
	C166	C	0.337681	0.907842	0.618865
	C167	C	0.337227	0.137221	0.381319
	C168	C	0.893955	0.408542	0.176404
	C169	C	0.132765	0.637459	0.176124
	C170	C	0.133586	0.408832	0.821954
	C171	C	0.895523	0.637894	0.823835
	C172	C	0.191229	0.903982	0.385298
	C173	C	0.191797	0.143400	0.613960
	C174	C	0.837482	0.141691	0.384777
	C175	C	0.838783	0.905375	0.614825
	C176	C	0.399706	0.198777	0.882016
	C177	C	0.628626	0.200669	0.120135
	C178	C	0.399712	0.846370	0.119088
	C179	C	0.629128	0.846337	0.880737
	C180	C	0.399449	0.904636	0.176536
	C181	C	0.628973	0.142126	0.176932
	C182	C	0.399778	0.141716	0.823702
	C183	C	0.629106	0.903781	0.822797
	C184	C	0.895168	0.199395	0.384545
	C185	C	0.133529	0.201018	0.613980
	C186	C	0.133642	0.846408	0.385298
	C187	C	0.896148	0.847176	0.614766
	C188	C	0.191174	0.408576	0.879622
	C189	C	0.190551	0.637348	0.118719
	C190	C	0.836115	0.408751	0.118544
	C191	C	0.837784	0.637528	0.881280
	C192	C	0.415077	0.116234	0.599549
	C193	C	0.614257	0.928711	0.598819
	C194	C	0.613957	0.116406	0.400959
	C195	C	0.415590	0.929088	0.400400
	C196	C	0.612776	0.424703	0.092828
	C197	C	0.613902	0.622625	0.905331
	C198	C	0.414661	0.622806	0.093354
	C199	C	0.415011	0.423065	0.906218
	C200	C	0.108612	0.622711	0.400373
	C201	C	0.921016	0.623377	0.599551
	C202	C	0.108210	0.424960	0.597803
	C203	C	0.920959	0.424276	0.400416
	C204	C	0.914496	0.616952	0.099530
	C205	C	0.112651	0.428990	0.098238
	C206	C	0.114597	0.617566	0.899922
	C207	C	0.914745	0.429113	0.899680
	C208	C	0.114032	0.924638	0.593832
	C209	C	0.114189	0.122311	0.405991
	C210	C	0.914653	0.123871	0.593301
	C211	C	0.914811	0.923427	0.405985
	C212	C	0.608361	0.122279	0.900772
	C213	C	0.420211	0.123135	0.100404
	C214	C	0.608124	0.923958	0.098641
	C215	C	0.420432	0.923227	0.900232
	Zn216	Zn	0.514439	0.022464	0.749834
	Zn217	Zn	0.514541	0.022895	0.250259
	Zn218	Zn	0.764143	0.523460	-0.000983
	Zn219	Zn	0.263849	0.523050	-0.000473
	Zn220	Zn	0.014796	0.773752	0.500291
	Zn221	Zn	0.014614	0.273820	0.498918
	Zn222	Zn	0.014074	0.523389	0.749749
	Zn223	Zn	0.014375	0.522583	0.249441
	Zn224	Zn	0.514334	0.773019	-0.000654
	Zn225	Zn	0.514434	0.272733	0.000220
	Zn226	Zn	0.764876	0.023044	0.499746
	Zn227	Zn	0.264745	0.022476	0.499989
	N228	N	0.429374	0.985067	0.678065
	N229	N	0.599688	0.059991	0.677827
	N230	N	0.600926	0.985689	0.320528
	N231	N	0.428942	0.060207	0.321863
	N232	N	0.692129	0.438155	0.961819
	N233	N	0.692821	0.609046	0.036245
	N234	N	0.336277	0.607841	0.962040
	N235	N	0.334995	0.437237	0.036900
	N236	N	0.977411	0.701716	0.414789
	N237	N	0.052301	0.702282	0.585702
	N238	N	0.977625	0.345186	0.585101
	N239	N	0.051723	0.344479	0.412879
	N240	N	0.977065	0.438808	0.677416
	N241	N	0.051588	0.609595	0.678845
	N242	N	0.977496	0.608390	0.321490
	N243	N	0.051717	0.437281	0.320247
	N244	N	0.428183	0.701827	0.962370
	N245	N	0.599121	0.701001	0.036960
	N246	N	0.600165	0.344006	0.962330
	N247	N	0.428392	0.344593	0.037433
	N248	N	0.692568	0.985259	0.414788
	N249	N	0.692944	0.060385	0.585000
	N250	N	0.335780	0.985278	0.585597
	N251	N	0.336320	0.060006	0.414734
	N252	N	0.927886	0.485794	0.178256
	N253	N	0.098784	0.560203	0.177101
	N254	N	0.100047	0.486294	0.820684
	N255	N	0.929034	0.560525	0.821734
	N256	N	0.192441	0.938199	0.462522
	N257	N	0.193607	0.109215	0.537002
	N258	N	0.835996	0.108635	0.462351
	N259	N	0.837314	0.938637	0.537614
	N260	N	0.477206	0.200612	0.915386
	N261	N	0.551004	0.202960	0.087379
	N262	N	0.477024	0.844563	0.085327
	N263	N	0.551671	0.844630	0.914353
	N264	N	0.476906	0.938233	0.178006
	N265	N	0.551515	0.108585	0.178732
	N266	N	0.477228	0.108523	0.821278
	N267	N	0.551722	0.937170	0.821170
	N268	N	0.929164	0.201503	0.461625
	N269	N	0.099979	0.202114	0.536577
	N270	N	0.100239	0.845035	0.462732
	N271	N	0.929383	0.845041	0.537387
	N272	N	0.192851	0.485846	0.913335
	N273	N	0.191835	0.560152	0.084702
	N274	N	0.834980	0.486001	0.084941
	N275	N	0.836177	0.560123	0.914285
	O276	O	-0.062794	-0.047190	0.961528
	H277	H	-0.062895	-0.052101	0.958203
	H278	H	-0.065421	-0.047248	0.962485
	O279	O	0.568120	-0.511285	0.467260
	H280	H	0.570972	-0.509871	0.454966
	H281	H	0.564414	-0.500839	0.467983
	O282	O	0.473479	0.447754	0.504204
	H283	H	0.480332	0.456078	0.504276
	H284	H	0.476954	0.433873	0.509855
	O285	O	-0.484122	-0.494868	0.453204
	H286	H	-0.481989	-0.495524	0.454637
	H287	H	-0.480337	-0.496592	0.451207
	O288	O	0.482319	0.455598	0.532650
	H289	H	0.477063	0.448475	0.531334
	H290	H	0.474950	0.457114	0.540027
	O291	O	-0.485189	0.516697	0.480087
	H292	H	-0.491291	0.515845	0.481303
	H293	H	-0.492188	0.507960	0.480005
	O294	O	0.495198	0.496975	0.447369
	H295	H	0.495567	0.495035	0.451502
	H296	H	0.491590	0.495120	0.448116
	O297	O	0.497878	-0.558365	0.496179
	H298	H	0.501195	-0.563743	0.480384
	H299	H	0.508328	-0.555555	0.497963
