data_Molecule from HDF5

_cell_length_a		16.321403
_cell_length_b		16.344393
_cell_length_c		16.293402
_cell_angle_alpha	90.021420
_cell_angle_beta	89.973398
_cell_angle_gamma	90.113916
_symmetry_space_group_name_H-M	'P 1'
_symmetry_Int_Tables_number		1

loop_
	_symmetry_equiv_pos_as_xyz
	x,y,z

loop_
	_atom_site_label
	_atom_site_type_symbol
	_atom_site_fract_x
	_atom_site_fract_y
	_atom_site_fract_z
	H0	H	0.403699	0.831245	0.707340
	H1	H	0.600986	0.156405	0.706979
	H2	H	0.599660	0.830251	0.278230
	H3	H	0.405156	0.157258	0.278586
	H4	H	0.715351	0.397378	0.828459
	H5	H	0.715814	0.590689	0.156799
	H6	H	0.288411	0.591156	0.829306
	H7	H	0.288011	0.395737	0.156563
	H8	H	0.838518	0.707176	0.393083
	H9	H	0.165511	0.707980	0.591927
	H10	H	0.839154	0.277963	0.591053
	H11	H	0.165554	0.278799	0.395042
	H12	H	0.839031	0.393883	0.707015
	H13	H	0.165356	0.590428	0.706639
	H14	H	0.838609	0.588217	0.279700
	H15	H	0.166286	0.395478	0.278389
	H16	H	0.404280	0.708488	0.829702
	H17	H	0.600453	0.707235	0.157026
	H18	H	0.600933	0.279850	0.828666
	H19	H	0.403232	0.278078	0.156174
	H20	H	0.715853	0.829758	0.394979
	H21	H	0.718068	0.156180	0.591869
	H22	H	0.287946	0.830559	0.590571
	H23	H	0.287343	0.156920	0.393659
	H24	H	0.903943	0.329785	0.206979
	H25	H	0.100399	0.656762	0.207689
	H26	H	0.100073	0.330118	0.777421
	H27	H	0.905172	0.656967	0.778387
	H28	H	0.215698	0.895518	0.328665
	H29	H	0.216418	0.092199	0.656440
	H30	H	0.788533	0.089775	0.329054
	H31	H	0.788127	0.894764	0.657016
	H32	H	0.339115	0.207651	0.893945
	H33	H	0.665642	0.209251	0.091384
	H34	H	0.339441	0.778586	0.091301
	H35	H	0.665783	0.779598	0.894426
	H36	H	0.338659	0.895232	0.206959
	H37	H	0.666164	0.091879	0.206460
	H38	H	0.338841	0.090839	0.778730
	H39	H	0.665923	0.896331	0.778233
	H40	H	0.903796	0.208061	0.329612
	H41	H	0.101392	0.208711	0.656708
	H42	H	0.099430	0.779071	0.328657
	H43	H	0.904364	0.778469	0.656441
	H44	H	0.216728	0.329825	0.893576
	H45	H	0.218069	0.656322	0.092403
	H46	H	0.786560	0.330448	0.090949
	H47	H	0.789572	0.657173	0.895636
	H48	H	0.405082	0.110222	0.583859
	H49	H	0.586218	0.879965	0.588029
	H50	H	0.591371	0.108116	0.397246
	H51	H	0.404249	0.876922	0.398384
	H52	H	0.595888	0.411486	0.105909
	H53	H	0.590755	0.598546	0.875134
	H54	H	0.416651	0.590291	0.107988
	H55	H	0.412510	0.407225	0.879148
	H56	H	0.122272	0.588745	0.387218
	H57	H	0.885723	0.583525	0.589909
	H58	H	0.117104	0.396203	0.577229
	H59	H	0.882999	0.394240	0.393623
	H60	H	0.115159	0.409290	0.585394
	H61	H	0.884691	0.591028	0.586166
	H62	H	0.118722	0.596741	0.408849
	H63	H	0.887332	0.395774	0.406779
	H64	H	0.403511	0.590413	0.112334
	H65	H	0.607538	0.587728	0.872892
	H66	H	0.585178	0.395756	0.107301
	H67	H	0.413371	0.393239	0.876344
	H68	H	0.597315	0.107667	0.405631
	H69	H	0.599511	0.878268	0.576979
	H70	H	0.409732	0.111102	0.590285
	H71	H	0.411571	0.878362	0.395947
	H72	H	0.914183	0.607860	0.086791
	H73	H	0.091741	0.379055	0.083797
	H74	H	0.105397	0.610747	0.902147
	H75	H	0.900145	0.375375	0.899424
	H76	H	0.096826	0.894497	0.610381
	H77	H	0.106976	0.078946	0.375594
	H78	H	0.912424	0.090432	0.609939
	H79	H	0.912885	0.906273	0.379702
	H80	H	0.619351	0.089367	0.900537
	H81	H	0.388129	0.078016	0.087461
	H82	H	0.618191	0.898051	0.083036
	H83	H	0.389523	0.905871	0.903787
	H84	H	0.617521	0.904388	0.086397
	H85	H	0.383604	0.091447	0.091361
	H86	H	0.617617	0.085668	0.901212
	H87	H	0.384834	0.900352	0.893290
	H88	H	0.904663	0.085995	0.610629
	H89	H	0.083270	0.079034	0.383141
	H90	H	0.098774	0.902728	0.608983
	H91	H	0.912891	0.892063	0.375604
	H92	H	0.091418	0.610672	0.890460
	H93	H	0.097755	0.378106	0.082833
	H94	H	0.907790	0.607888	0.081456
	H95	H	0.912690	0.376777	0.892841
	H96	H	0.412879	0.108396	0.583238
	H97	H	0.601264	0.873933	0.593522
	H98	H	0.601230	0.111658	0.396855
	H99	H	0.409976	0.879312	0.403378
	H100	H	0.603345	0.395632	0.112719
	H101	H	0.590370	0.579057	0.880110
	H102	H	0.409105	0.578583	0.106784
	H103	H	0.400999	0.399931	0.874474
	H104	H	0.113661	0.574378	0.403262
	H105	H	0.887486	0.584480	0.581543
	H106	H	0.121249	0.396941	0.592277
	H107	H	0.888552	0.406352	0.397902
	H108	H	0.906061	0.610386	0.089031
	H109	H	0.095472	0.376765	0.088417
	H110	H	0.089170	0.604572	0.907039
	H111	H	0.911062	0.379878	0.906782
	H112	H	0.090417	0.900146	0.607317
	H113	H	0.093269	0.099658	0.372806
	H114	H	0.911905	0.081744	0.607410
	H115	H	0.900820	0.899752	0.374150
	H116	H	0.619195	0.087116	0.897556
	H117	H	0.387764	0.089314	0.077342
	H118	H	0.620278	0.898732	0.089673
	H119	H	0.385598	0.893731	0.903871
	C120	C	0.380468	0.002173	0.614317
	C121	C	0.623855	0.985258	0.614340
	C122	C	0.624472	0.001525	0.371302
	C123	C	0.380512	0.985797	0.370662
	C124	C	0.623080	0.373015	0.000456
	C125	C	0.624405	0.615908	0.984471
	C126	C	0.380828	0.615190	0.001249
	C127	C	0.380402	0.371768	0.984662
	C128	C	0.010227	0.614346	0.371401
	C129	C	0.994013	0.614675	0.614516
	C130	C	0.010372	0.371822	0.613885
	C131	C	0.994241	0.371088	0.371099
	C132	C	0.880560	0.501203	0.114251
	C133	C	0.123801	0.485392	0.114254
	C134	C	0.123994	0.501185	0.871050
	C135	C	0.880572	0.485331	0.871334
	C136	C	0.123793	0.871121	0.500596
	C137	C	0.123574	0.115044	0.485038
	C138	C	0.881171	0.114324	0.501118
	C139	C	0.880842	0.871255	0.484830
	C140	C	0.510649	0.115268	0.871259
	C141	C	0.494294	0.115292	0.114156
	C142	C	0.510740	0.872046	0.114534
	C143	C	0.494420	0.872381	0.871751
	C144	C	0.383174	0.879522	0.669283
	C145	C	0.621345	0.108017	0.669070
	C146	C	0.620603	0.878945	0.316160
	C147	C	0.384070	0.108526	0.316124
	C148	C	0.678072	0.375810	0.877354
	C149	C	0.678704	0.611962	0.107825
	C150	C	0.326038	0.612037	0.878226
	C151	C	0.325567	0.374492	0.107748
	C152	C	0.887235	0.668710	0.373758
	C153	C	0.116777	0.669736	0.611978
	C154	C	0.887758	0.315949	0.611622
	C155	C	0.117090	0.316472	0.373913
	C156	C	0.887459	0.373770	0.668779
	C157	C	0.116692	0.611487	0.669118
	C158	C	0.887163	0.610277	0.316873
	C159	C	0.117336	0.374554	0.316233
	C160	C	0.383837	0.669898	0.878300
	C161	C	0.621513	0.669894	0.107983
	C162	C	0.620890	0.317755	0.877563
	C163	C	0.383135	0.316547	0.107587
	C164	C	0.678324	0.878555	0.374088
	C165	C	0.679391	0.107891	0.611530
	C166	C	0.325576	0.879285	0.611403
	C167	C	0.325731	0.108433	0.373451
	C168	C	0.883221	0.378422	0.168959
	C169	C	0.121368	0.608028	0.170075
	C170	C	0.121344	0.378631	0.815305
	C171	C	0.884263	0.608033	0.816251
	C172	C	0.177963	0.874728	0.377628
	C173	C	0.178852	0.112767	0.607771
	C174	C	0.826373	0.110984	0.377852
	C175	C	0.825981	0.874270	0.608071
	C176	C	0.387790	0.169963	0.873440
	C177	C	0.617076	0.170887	0.111748
	C178	C	0.387855	0.816767	0.111733
	C179	C	0.617304	0.817699	0.874077
	C180	C	0.387471	0.874797	0.168970
	C181	C	0.617389	0.112721	0.168997
	C182	C	0.387643	0.111618	0.816487
	C183	C	0.617271	0.875797	0.816575
	C184	C	0.883504	0.169582	0.378166
	C185	C	0.121682	0.170802	0.607901
	C186	C	0.120601	0.816396	0.377715
	C187	C	0.883626	0.816383	0.607802
	C188	C	0.179053	0.378518	0.873183
	C189	C	0.179463	0.607941	0.112428
	C190	C	0.824613	0.378952	0.111966
	C191	C	0.826653	0.608361	0.874189
	C192	C	0.402672	0.087644	0.592286
	C193	C	0.601920	0.899504	0.592692
	C194	C	0.603065	0.087149	0.393522
	C195	C	0.402160	0.900081	0.392671
	C196	C	0.601155	0.394669	0.086413
	C197	C	0.602802	0.594690	0.898181
	C198	C	0.403116	0.592930	0.087138
	C199	C	0.402450	0.393621	0.898719
	C200	C	0.096188	0.593028	0.393359
	C201	C	0.907998	0.592592	0.592509
	C202	C	0.095858	0.394355	0.591661
	C203	C	0.908397	0.392625	0.392817
	C204	C	0.902907	0.586667	0.092167
	C205	C	0.101592	0.400044	0.091742
	C206	C	0.101977	0.586434	0.893605
	C207	C	0.901840	0.399514	0.893210
	C208	C	0.101895	0.892767	0.586749
	C209	C	0.101079	0.092458	0.399271
	C210	C	0.902975	0.092414	0.586957
	C211	C	0.902430	0.893013	0.398737
	C212	C	0.596455	0.093676	0.893354
	C213	C	0.408817	0.092830	0.091907
	C214	C	0.596450	0.893952	0.092772
	C215	C	0.408818	0.893674	0.893755
	Zn216	Zn	0.502062	-0.005899	0.742957
	Zn217	Zn	0.502454	-0.006051	0.242314
	Zn218	Zn	0.751715	0.493670	-0.007328
	Zn219	Zn	0.252369	0.493547	-0.007044
	Zn220	Zn	0.001987	0.742633	0.492891
	Zn221	Zn	0.002528	0.243132	0.493331
	Zn222	Zn	0.001753	0.492657	0.742831
	Zn223	Zn	0.002378	0.493181	0.242706
	Zn224	Zn	0.502984	0.743625	-0.006686
	Zn225	Zn	0.502305	0.243698	-0.007482
	Zn226	Zn	0.752697	-0.007131	0.492940
	Zn227	Zn	0.252004	-0.006035	0.492855
	N228	N	0.416550	0.956829	0.671253
	N229	N	0.587765	0.030854	0.670929
	N230	N	0.587518	0.956404	0.314521
	N231	N	0.417305	0.031365	0.314314
	N232	N	0.679406	0.409447	0.954694
	N233	N	0.680644	0.579201	0.029869
	N234	N	0.324180	0.578646	0.955741
	N235	N	0.323901	0.408113	0.030371
	N236	N	0.964874	0.671473	0.406710
	N237	N	0.039242	0.671761	0.578765
	N238	N	0.965087	0.314793	0.577984
	N239	N	0.039653	0.314104	0.407111
	N240	N	0.964607	0.407669	0.670513
	N241	N	0.039412	0.577817	0.670526
	N242	N	0.964481	0.577035	0.315448
	N243	N	0.039981	0.407906	0.314528
	N244	N	0.417250	0.671880	0.955782
	N245	N	0.588455	0.672377	0.030401
	N246	N	0.587266	0.315955	0.955133
	N247	N	0.416484	0.314700	0.029983
	N248	N	0.680962	0.955697	0.407347
	N249	N	0.680954	0.030649	0.578066
	N250	N	0.323833	0.956539	0.577909
	N251	N	0.323546	0.031100	0.406726
	N252	N	0.917289	0.455413	0.170552
	N253	N	0.087313	0.530860	0.171069
	N254	N	0.087780	0.455632	0.813855
	N255	N	0.916707	0.530397	0.814256
	N256	N	0.180072	0.908071	0.455035
	N257	N	0.180112	0.078863	0.530352
	N258	N	0.824906	0.077405	0.455239
	N259	N	0.824396	0.907898	0.530604
	N260	N	0.465277	0.172334	0.906681
	N261	N	0.539558	0.172644	0.078493
	N262	N	0.465383	0.814956	0.078513
	N263	N	0.540094	0.815509	0.907858
	N264	N	0.464815	0.908216	0.171030
	N265	N	0.540262	0.078715	0.170439
	N266	N	0.464975	0.078297	0.815106
	N267	N	0.539887	0.908964	0.814992
	N268	N	0.916933	0.171751	0.455715
	N269	N	0.088030	0.172258	0.530548
	N270	N	0.087595	0.814205	0.455363
	N271	N	0.916959	0.814480	0.530345
	N272	N	0.180753	0.455701	0.907140
	N273	N	0.181066	0.530909	0.078613
	N274	N	0.822960	0.456279	0.078645
	N275	N	0.824276	0.531107	0.907839
	O276	O	1.041315	-0.031698	1.074456
	H277	H	1.031855	-0.036471	1.074207
	H278	H	1.043105	-0.031408	1.080966
	O279	O	0.020757	1.004094	1.043225
	H280	H	0.019693	1.001278	1.039659
	H281	H	0.016651	1.000227	1.041396
	O282	O	1.041645	0.992240	0.052835
	H283	H	1.048143	0.995356	0.050206
	H284	H	1.048977	0.988711	0.057864
	O285	O	0.058532	0.986943	1.067432
	H286	H	0.057993	0.990351	1.079553
	H287	H	0.064542	0.990315	1.064933
