data_Molecule from HDF5

_cell_length_a		16.269126
_cell_length_b		16.225354
_cell_length_c		16.379944
_cell_angle_alpha	89.958700
_cell_angle_beta	90.232070
_cell_angle_gamma	89.720219
_symmetry_space_group_name_H-M	'P 1'
_symmetry_Int_Tables_number		1

loop_
	_symmetry_equiv_pos_as_xyz
	x,y,z

loop_
	_atom_site_label
	_atom_site_type_symbol
	_atom_site_fract_x
	_atom_site_fract_y
	_atom_site_fract_z
	H0	H	0.400153	0.835984	0.703506
	H1	H	0.599922	0.162482	0.704168
	H2	H	0.600582	0.835738	0.271517
	H3	H	0.397937	0.162773	0.271613
	H4	H	0.716953	0.399420	0.825524
	H5	H	0.718782	0.600488	0.149509
	H6	H	0.283178	0.603083	0.825223
	H7	H	0.284720	0.401538	0.149519
	H8	H	0.835940	0.715908	0.386075
	H9	H	0.163540	0.711414	0.584169
	H10	H	0.835848	0.285431	0.586544
	H11	H	0.162107	0.284069	0.388650
	H12	H	0.837169	0.400035	0.703987
	H13	H	0.160961	0.603896	0.705295
	H14	H	0.837255	0.602561	0.267516
	H15	H	0.161443	0.397325	0.270535
	H16	H	0.399594	0.718606	0.826180
	H17	H	0.598574	0.713947	0.151500
	H18	H	0.602392	0.282043	0.825834
	H19	H	0.403230	0.285248	0.150412
	H20	H	0.715650	0.835988	0.387637
	H21	H	0.715520	0.162433	0.588767
	H22	H	0.288340	0.833635	0.584661
	H23	H	0.281486	0.162274	0.386672
	H24	H	0.897498	0.337535	0.203468
	H25	H	0.101121	0.662845	0.204764
	H26	H	0.102150	0.338194	0.770147
	H27	H	0.897421	0.663757	0.770192
	H28	H	0.215475	0.897481	0.324347
	H29	H	0.217137	0.098686	0.648510
	H30	H	0.780119	0.100481	0.325387
	H31	H	0.783344	0.897411	0.649406
	H32	H	0.337913	0.217860	0.886095
	H33	H	0.664256	0.214758	0.088806
	H34	H	0.336535	0.787215	0.086618
	H35	H	0.663709	0.783261	0.889634
	H36	H	0.337688	0.899876	0.202788
	H37	H	0.661486	0.103170	0.208265
	H38	H	0.337939	0.103712	0.769507
	H39	H	0.661977	0.896089	0.769188
	H40	H	0.895870	0.218052	0.325209
	H41	H	0.101081	0.216120	0.648932
	H42	H	0.097881	0.783456	0.323934
	H43	H	0.901888	0.782870	0.649581
	H44	H	0.217270	0.337911	0.887045
	H45	H	0.214085	0.664709	0.086662
	H46	H	0.784645	0.336910	0.087269
	H47	H	0.783788	0.663431	0.887371
	H48	H	0.416906	0.111800	0.579202
	H49	H	0.586322	0.887003	0.569566
	H50	H	0.592513	0.116203	0.395546
	H51	H	0.398295	0.880144	0.397367
	H52	H	0.596889	0.412817	0.101963
	H53	H	0.592655	0.592083	0.873208
	H54	H	0.412648	0.597230	0.103177
	H55	H	0.412739	0.411304	0.874070
	H56	H	0.113314	0.587042	0.397630
	H57	H	0.880322	0.597375	0.580548
	H58	H	0.114478	0.410745	0.579394
	H59	H	0.881931	0.408415	0.394810
	H60	H	0.116334	0.407608	0.580597
	H61	H	0.885225	0.590775	0.571151
	H62	H	0.115902	0.588384	0.389652
	H63	H	0.883894	0.411178	0.393611
	H64	H	0.401292	0.595557	0.105348
	H65	H	0.591226	0.591269	0.873300
	H66	H	0.588239	0.407403	0.101286
	H67	H	0.408431	0.405456	0.871659
	H68	H	0.587112	0.114962	0.394294
	H69	H	0.601040	0.880872	0.579486
	H70	H	0.403000	0.113385	0.569487
	H71	H	0.410592	0.880133	0.383233
	H72	H	0.903480	0.617701	0.078425
	H73	H	0.097707	0.384983	0.072234
	H74	H	0.086706	0.615177	0.895822
	H75	H	0.905820	0.383603	0.895235
	H76	H	0.103063	0.903974	0.605050
	H77	H	0.086329	0.083466	0.374974
	H78	H	0.905765	0.083253	0.600152
	H79	H	0.906823	0.904753	0.372409
	H80	H	0.614869	0.088416	0.897559
	H81	H	0.385961	0.091371	0.075279
	H82	H	0.616103	0.908395	0.078124
	H83	H	0.385860	0.912713	0.897046
	H84	H	0.616469	0.909915	0.082081
	H85	H	0.384843	0.089654	0.082559
	H86	H	0.615217	0.088580	0.892802
	H87	H	0.384063	0.910093	0.891223
	H88	H	0.916582	0.095497	0.600293
	H89	H	0.084846	0.096141	0.371890
	H90	H	0.091926	0.911695	0.600208
	H91	H	0.905126	0.909460	0.371643
	H92	H	0.093320	0.617514	0.897460
	H93	H	0.095492	0.381705	0.085549
	H94	H	0.914188	0.615821	0.081692
	H95	H	0.910779	0.383188	0.890192
	H96	H	0.402881	0.118662	0.586263
	H97	H	0.585002	0.882499	0.587259
	H98	H	0.589007	0.113952	0.399103
	H99	H	0.414999	0.887420	0.399755
	H100	H	0.596729	0.402360	0.104773
	H101	H	0.591270	0.592487	0.872982
	H102	H	0.407237	0.587004	0.100853
	H103	H	0.405164	0.412394	0.872656
	H104	H	0.116214	0.594686	0.395290
	H105	H	0.883809	0.585839	0.583222
	H106	H	0.114292	0.407548	0.577108
	H107	H	0.882227	0.409426	0.391800
	H108	H	0.911078	0.613671	0.070722
	H109	H	0.084743	0.386722	0.078144
	H110	H	0.091296	0.618510	0.890754
	H111	H	0.911948	0.385492	0.896381
	H112	H	0.090192	0.898044	0.603212
	H113	H	0.097054	0.090667	0.370695
	H114	H	0.901255	0.098049	0.605355
	H115	H	0.909670	0.909171	0.373439
	H116	H	0.617527	0.092446	0.895734
	H117	H	0.382845	0.096785	0.080442
	H118	H	0.616889	0.906464	0.080848
	H119	H	0.383748	0.906836	0.896721
	C120	C	0.378365	0.007067	0.608239
	C121	C	0.620969	0.991002	0.609179
	C122	C	0.619775	0.007214	0.366778
	C123	C	0.377483	0.990497	0.364497
	C124	C	0.623247	0.377802	-0.004269
	C125	C	0.621321	0.621446	0.980175
	C126	C	0.377585	0.623367	-0.003855
	C127	C	0.379760	0.379841	0.979742
	C128	C	0.007780	0.620875	0.364467
	C129	C	0.990838	0.621164	0.608045
	C130	C	0.007561	0.379086	0.608261
	C131	C	0.990142	0.378458	0.364408
	C132	C	0.879297	0.508269	0.107248
	C133	C	0.121364	0.492364	0.108319
	C134	C	0.121599	0.509829	0.864808
	C135	C	0.878602	0.491790	0.864724
	C136	C	0.122824	0.875812	0.495296
	C137	C	0.120408	0.119871	0.479125
	C138	C	0.876848	0.121976	0.495174
	C139	C	0.878303	0.877649	0.479302
	C140	C	0.508716	0.121306	0.865394
	C141	C	0.492117	0.121925	0.109397
	C142	C	0.508527	0.879326	0.109153
	C143	C	0.491768	0.878659	0.865842
	C144	C	0.380353	0.884473	0.664723
	C145	C	0.619963	0.113697	0.665774
	C146	C	0.619638	0.884542	0.310029
	C147	C	0.378134	0.113732	0.309451
	C148	C	0.679081	0.379338	0.873922
	C149	C	0.678933	0.619872	0.101779
	C150	C	0.320999	0.622873	0.873985
	C151	C	0.323781	0.381577	0.101511
	C152	C	0.884896	0.677748	0.366012
	C153	C	0.114138	0.675355	0.605485
	C154	C	0.884869	0.323282	0.606483
	C155	C	0.113232	0.321796	0.367516
	C156	C	0.885276	0.380744	0.664552
	C157	C	0.112726	0.621642	0.665593
	C158	C	0.885539	0.621326	0.306979
	C159	C	0.112983	0.378289	0.309042
	C160	C	0.378891	0.680540	0.874486
	C161	C	0.619453	0.676512	0.102554
	C162	C	0.621750	0.321222	0.873954
	C163	C	0.382531	0.323650	0.101867
	C164	C	0.676714	0.884336	0.368020
	C165	C	0.677218	0.113629	0.608182
	C166	C	0.324631	0.883280	0.605597
	C167	C	0.320301	0.113411	0.366591
	C168	C	0.878875	0.386153	0.164579
	C169	C	0.120180	0.614604	0.165717
	C170	C	0.121757	0.386919	0.808648
	C171	C	0.878461	0.614737	0.808554
	C172	C	0.177781	0.877484	0.373185
	C173	C	0.177951	0.118666	0.600439
	C174	C	0.819277	0.120503	0.373704
	C175	C	0.822194	0.878053	0.601074
	C176	C	0.386380	0.179245	0.866242
	C177	C	0.615040	0.176984	0.108569
	C178	C	0.385753	0.824383	0.106918
	C179	C	0.614705	0.821357	0.868546
	C180	C	0.386134	0.880724	0.164597
	C181	C	0.613458	0.121859	0.168478
	C182	C	0.386555	0.122349	0.808327
	C183	C	0.614001	0.877405	0.808915
	C184	C	0.876579	0.179229	0.373694
	C185	C	0.120448	0.177308	0.600541
	C186	C	0.119406	0.820543	0.372838
	C187	C	0.880933	0.820905	0.601239
	C188	C	0.179063	0.387021	0.866540
	C189	C	0.176375	0.615593	0.107007
	C190	C	0.822730	0.385793	0.106516
	C191	C	0.821816	0.614658	0.866529
	C192	C	0.400942	0.092617	0.585150
	C193	C	0.597599	0.905526	0.585740
	C194	C	0.596328	0.092894	0.389642
	C195	C	0.401010	0.904679	0.386834
	C196	C	0.600649	0.400832	0.080669
	C197	C	0.598338	0.598534	0.895097
	C198	C	0.400401	0.599916	0.081106
	C199	C	0.402214	0.402874	0.894764
	C200	C	0.093055	0.597108	0.387663
	C201	C	0.905171	0.598222	0.584963
	C202	C	0.092984	0.401899	0.585846
	C203	C	0.904780	0.402624	0.386741
	C204	C	0.902744	0.593578	0.083981
	C205	C	0.099165	0.406802	0.085432
	C206	C	0.097754	0.595068	0.887991
	C207	C	0.902610	0.406486	0.887275
	C208	C	0.101275	0.897951	0.580742
	C209	C	0.096372	0.096877	0.394424
	C210	C	0.900655	0.098959	0.579858
	C211	C	0.900829	0.901006	0.394423
	C212	C	0.593662	0.097014	0.888560
	C213	C	0.406708	0.099179	0.086062
	C214	C	0.594297	0.901632	0.086832
	C215	C	0.406683	0.902847	0.888271
	Zn216	Zn	0.499600	-0.000329	0.736661
	Zn217	Zn	0.499816	-0.000450	0.237263
	Zn218	Zn	0.751321	0.499945	-0.012895
	Zn219	Zn	0.249408	0.501497	-0.012931
	Zn220	Zn	-0.000012	0.748299	0.486896
	Zn221	Zn	-0.000539	0.250549	0.486545
	Zn222	Zn	-0.000143	0.501199	0.736303
	Zn223	Zn	-0.000459	0.499622	0.235622
	Zn224	Zn	0.499741	0.751226	-0.011047
	Zn225	Zn	0.501222	0.249432	-0.012824
	Zn226	Zn	0.748649	-0.001186	0.487840
	Zn227	Zn	0.250177	-0.001661	0.486560
	N228	N	0.412831	0.962512	0.666744
	N229	N	0.585911	0.036337	0.666656
	N230	N	0.584929	0.961993	0.309308
	N231	N	0.412903	0.036467	0.308018
	N232	N	0.680134	0.413642	0.950628
	N233	N	0.680503	0.586651	0.024430
	N234	N	0.320021	0.588112	0.950644
	N235	N	0.321885	0.415555	0.024624
	N236	N	0.961909	0.677549	0.400940
	N237	N	0.037351	0.675013	0.570264
	N238	N	0.961868	0.322338	0.572048
	N239	N	0.036012	0.321926	0.401444
	N240	N	0.962695	0.414434	0.666077
	N241	N	0.034944	0.588674	0.667362
	N242	N	0.962695	0.586467	0.306007
	N243	N	0.035507	0.412550	0.306783
	N244	N	0.413183	0.681024	0.951294
	N245	N	0.584357	0.677521	0.026036
	N246	N	0.587853	0.319967	0.950705
	N247	N	0.416627	0.322538	0.025094
	N248	N	0.676831	0.961492	0.402605
	N249	N	0.677972	0.036273	0.573904
	N250	N	0.323293	0.960625	0.571067
	N251	N	0.319795	0.035587	0.400042
	N252	N	0.913476	0.463292	0.165131
	N253	N	0.086670	0.536797	0.166774
	N254	N	0.086709	0.464184	0.807323
	N255	N	0.913169	0.537198	0.807263
	N256	N	0.180056	0.910865	0.450311
	N257	N	0.177850	0.083628	0.524061
	N258	N	0.819418	0.085480	0.450305
	N259	N	0.820646	0.912716	0.524415
	N260	N	0.463383	0.178790	0.901125
	N261	N	0.538588	0.177173	0.072409
	N262	N	0.462991	0.823500	0.073097
	N263	N	0.537701	0.821847	0.903043
	N264	N	0.463517	0.914323	0.165941
	N265	N	0.536064	0.088079	0.168973
	N266	N	0.463536	0.086982	0.807631
	N267	N	0.536678	0.912110	0.807033
	N268	N	0.912031	0.180007	0.450059
	N269	N	0.085356	0.178211	0.523919
	N270	N	0.085945	0.819154	0.449765
	N271	N	0.915068	0.820522	0.524535
	N272	N	0.179140	0.464482	0.900563
	N273	N	0.177358	0.538692	0.072166
	N274	N	0.823108	0.462697	0.071380
	N275	N	0.821782	0.537350	0.900772
	O276	O	0.998444	0.034815	0.862206
	H277	H	0.975136	0.034324	0.869767
	H278	H	0.998345	0.032321	0.856684
	O279	O	0.474805	0.402486	0.607464
	H280	H	0.477598	0.409613	0.627411
	H281	H	0.486556	0.400029	0.606539
	O282	O	0.297100	0.264081	0.209418
	H283	H	0.302542	0.267019	0.220231
	H284	H	0.295216	0.264307	0.218423
	O285	O	0.564499	0.556067	0.451445
	H286	H	0.564268	0.571802	0.460193
	H287	H	0.559738	0.559550	0.453697
	O288	O	0.539681	0.522066	0.460136
	H289	H	0.533000	0.517370	0.445864
	H290	H	0.546727	0.518089	0.455188
	O291	O	0.048848	0.112531	1.020234
	H292	H	0.048829	0.115103	1.025787
	H293	H	0.052598	0.104931	1.013898
	O294	O	0.877700	0.992978	0.004063
	H295	H	0.879763	0.996584	0.015828
	H296	H	0.880685	0.994983	-0.005048
	O297	O	0.953240	0.916533	0.041849
	H298	H	0.955920	0.912197	0.038532
	H299	H	0.951954	0.918108	0.034543
	O300	O	0.484232	0.577986	0.491983
	H301	H	0.472152	0.590393	0.493462
	H302	H	0.494120	0.570403	0.473120
	O303	O	0.600202	0.470600	0.532145
	H304	H	0.595202	0.464237	0.535394
	H305	H	0.604323	0.472884	0.527485
	O306	O	0.106901	1.004114	0.979784
	H307	H	0.099058	0.990319	0.970085
	H308	H	0.118184	0.995571	0.986068
	O309	O	0.541762	0.433736	0.366216
	H310	H	0.549967	0.432280	0.360887
	H311	H	0.523974	0.436758	0.367827
	O312	O	0.959821	0.990880	1.010312
	H313	H	0.950225	0.988971	1.010679
	H314	H	0.962087	0.990231	1.012451
	O315	O	0.948965	1.095906	-0.099116
	H316	H	0.961512	1.098930	-0.096880
	H317	H	0.937297	1.103429	-0.098840
	O318	O	0.997753	0.071144	1.101591
	H319	H	0.988946	0.060561	1.095023
	H320	H	0.999227	0.079135	1.108642
	O321	O	0.529816	0.555151	0.561804
	H322	H	0.537760	0.558506	0.564264
	H323	H	0.528971	0.541983	0.570462
	O324	O	0.010043	1.006394	0.934828
	H325	H	0.003093	1.006680	0.927726
	H326	H	0.002863	1.007334	0.930718
	O327	O	0.017373	1.046469	1.077997
	H328	H	0.025079	1.048736	1.081703
	H329	H	0.025271	1.055751	1.071254
	O330	O	-0.475422	-0.548926	-0.401944
	H331	H	-0.488530	-0.548573	-0.407360
	H332	H	-0.462509	-0.548638	-0.421998
	O333	O	0.393800	0.470202	0.544705
	H334	H	0.394369	0.474713	0.549521
	H335	H	0.387689	0.459858	0.551225
	O336	O	0.022953	0.041174	0.110285
	H337	H	0.023791	0.035358	0.110617
	H338	H	0.028357	0.038320	0.098199
	O339	O	0.075237	-0.032925	-0.023651
	H340	H	0.070309	-0.029525	-0.035312
	H341	H	0.083801	-0.025492	-0.022309
	O342	O	0.954907	0.111786	1.010634
	H343	H	0.949055	0.109103	1.013250
	H344	H	0.963874	0.122777	1.018111
	O345	O	-0.102702	1.045678	0.991097
	H346	H	-0.106861	1.050404	0.990626
	H347	H	-0.099822	1.054460	0.987558
	O348	O	0.462451	0.427869	0.571341
	H349	H	0.462731	0.429183	0.575373
	H350	H	0.460714	0.426233	0.588777
	O351	O	0.585649	0.500591	0.498238
	H352	H	0.588383	0.491615	0.496195
	H353	H	0.588406	0.505710	0.493941
	O354	O	-0.509907	1.477284	0.337331
	H355	H	-0.515441	1.471072	0.336938
	H356	H	-0.508797	1.468312	0.331161
	O357	O	0.447866	0.560668	0.450967
	H358	H	0.450122	0.561631	0.452565
	H359	H	0.457277	0.546666	0.456712
	O360	O	1.011229	-0.117402	0.861306
	H361	H	1.004348	-0.105889	0.861273
	H362	H	1.012083	-0.121033	0.856700
	O363	O	0.516883	0.408503	0.464019
	H364	H	0.507844	0.419201	0.464122
	H365	H	0.518198	0.404165	0.465188
	O366	O	1.110322	0.952260	-0.133787
	H367	H	1.114939	0.955269	-0.125894
	H368	H	1.123125	0.946660	-0.138808
	O369	O	1.008049	-0.079987	-0.006154
	H370	H	1.007256	-0.091990	-0.000287
	H371	H	1.012575	-0.073263	-0.002949
	O372	O	0.476769	0.639738	0.566661
	H373	H	0.480947	0.634143	0.558136
	H374	H	0.464514	0.642670	0.569484
	O375	O	0.989746	0.081233	0.832210
	H376	H	0.987170	0.086078	0.842188
	H377	H	1.000152	0.082639	0.827320
	O378	O	0.045432	1.036246	0.002600
	H379	H	0.046192	1.040990	-0.006726
	H380	H	0.045031	1.034694	0.016195
	O381	O	-0.664515	1.458947	1.625407
	H382	H	-0.665111	1.465828	1.634360
	H383	H	-0.671007	1.472902	1.630124
	O384	O	0.994743	0.935724	0.065729
	H385	H	1.005175	0.939579	0.058112
	H386	H	0.983009	0.933181	0.077780
	O387	O	0.968005	-0.054637	0.971867
	H388	H	0.955854	-0.047951	0.978625
	H389	H	0.972439	-0.051199	0.974611
	O390	O	1.448221	0.533835	0.474233
	H391	H	1.452057	0.540922	0.488090
	H392	H	1.444355	0.538750	0.488449
	O393	O	0.473193	0.507901	0.574148
	H394	H	0.477376	0.507274	0.579027
	H395	H	0.483551	0.512453	0.559947
