data_Molecule from HDF5

_cell_length_a		16.312966
_cell_length_b		16.354783
_cell_length_c		16.294011
_cell_angle_alpha	90.048734
_cell_angle_beta	90.014481
_cell_angle_gamma	90.030252
_symmetry_space_group_name_H-M	'P 1'
_symmetry_Int_Tables_number		1

loop_
	_symmetry_equiv_pos_as_xyz
	x,y,z

loop_
	_atom_site_label
	_atom_site_type_symbol
	_atom_site_fract_x
	_atom_site_fract_y
	_atom_site_fract_z
	H0	H	0.406846	0.830780	0.709133
	H1	H	0.600871	0.157397	0.710226
	H2	H	0.601534	0.830778	0.281426
	H3	H	0.406801	0.157467	0.282725
	H4	H	0.718534	0.396368	0.831613
	H5	H	0.719001	0.592733	0.159021
	H6	H	0.289291	0.591772	0.831635
	H7	H	0.289799	0.397095	0.158912
	H8	H	0.840112	0.709394	0.395996
	H9	H	0.166576	0.709971	0.593932
	H10	H	0.840983	0.279599	0.593075
	H11	H	0.167084	0.278224	0.394990
	H12	H	0.840463	0.397032	0.708490
	H13	H	0.167578	0.592875	0.709169
	H14	H	0.840176	0.591507	0.281025
	H15	H	0.168030	0.397351	0.281858
	H16	H	0.405488	0.708676	0.831672
	H17	H	0.602076	0.708173	0.159137
	H18	H	0.602514	0.279330	0.831849
	H19	H	0.406438	0.281323	0.159519
	H20	H	0.718422	0.831465	0.397834
	H21	H	0.717685	0.157578	0.593696
	H22	H	0.288981	0.831158	0.594562
	H23	H	0.289622	0.157237	0.398178
	H24	H	0.905744	0.330579	0.208917
	H25	H	0.101212	0.657267	0.209456
	H26	H	0.101599	0.330905	0.780667
	H27	H	0.906886	0.657252	0.781755
	H28	H	0.218422	0.896290	0.332270
	H29	H	0.219287	0.094138	0.659548
	H30	H	0.789455	0.091713	0.332107
	H31	H	0.789161	0.895952	0.659609
	H32	H	0.340039	0.208771	0.897287
	H33	H	0.667365	0.208650	0.094545
	H34	H	0.340239	0.778430	0.095634
	H35	H	0.667362	0.779827	0.897455
	H36	H	0.339886	0.896323	0.209890
	H37	H	0.666992	0.091558	0.210211
	H38	H	0.340137	0.091776	0.781434
	H39	H	0.667444	0.896339	0.781674
	H40	H	0.905426	0.209050	0.331907
	H41	H	0.102730	0.209922	0.659150
	H42	H	0.101940	0.780525	0.331957
	H43	H	0.904787	0.779138	0.659022
	H44	H	0.217576	0.330444	0.897880
	H45	H	0.218735	0.657308	0.093860
	H46	H	0.788686	0.332006	0.093177
	H47	H	0.789751	0.657127	0.897257
	H48	H	0.405862	0.109418	0.584668
	H49	H	0.604513	0.879030	0.578025
	H50	H	0.598016	0.113895	0.390003
	H51	H	0.413122	0.877548	0.397292
	H52	H	0.602273	0.403074	0.113225
	H53	H	0.595855	0.589613	0.879215
	H54	H	0.418283	0.585460	0.108784
	H55	H	0.412894	0.401823	0.879166
	H56	H	0.119316	0.588613	0.404496
	H57	H	0.892723	0.580094	0.579278
	H58	H	0.117241	0.402420	0.580279
	H59	H	0.888830	0.404866	0.401111
	H60	H	0.120308	0.407549	0.594037
	H61	H	0.884927	0.583460	0.600183
	H62	H	0.119762	0.586754	0.402041
	H63	H	0.886580	0.397392	0.399723
	H64	H	0.409123	0.595152	0.114342
	H65	H	0.599115	0.589532	0.878213
	H66	H	0.593229	0.404571	0.109426
	H67	H	0.411337	0.397954	0.878293
	H68	H	0.586348	0.105077	0.407827
	H69	H	0.602552	0.873042	0.600385
	H70	H	0.408973	0.112284	0.595308
	H71	H	0.411870	0.879796	0.407271
	H72	H	0.912876	0.611745	0.096172
	H73	H	0.105078	0.374192	0.096147
	H74	H	0.103283	0.610441	0.906284
	H75	H	0.911840	0.378427	0.903485
	H76	H	0.085088	0.902490	0.608307
	H77	H	0.102728	0.092052	0.376608
	H78	H	0.912411	0.083416	0.610201
	H79	H	0.909010	0.910768	0.381843
	H80	H	0.614953	0.083369	0.914308
	H81	H	0.389407	0.091143	0.082227
	H82	H	0.620792	0.894565	0.087751
	H83	H	0.384814	0.897659	0.894978
	H84	H	0.616542	0.904466	0.084141
	H85	H	0.389025	0.080689	0.091452
	H86	H	0.620070	0.080163	0.893605
	H87	H	0.388679	0.895335	0.910976
	H88	H	0.914348	0.090767	0.611833
	H89	H	0.098498	0.078131	0.382457
	H90	H	0.099706	0.891476	0.616278
	H91	H	0.919812	0.897446	0.381386
	H92	H	0.096628	0.611539	0.895320
	H93	H	0.086090	0.379949	0.092300
	H94	H	0.917029	0.606745	0.083341
	H95	H	0.907483	0.377440	0.902375
	H96	H	0.416483	0.108275	0.587482
	H97	H	0.584083	0.882097	0.589319
	H98	H	0.608300	0.111449	0.409652
	H99	H	0.404163	0.876082	0.401782
	H100	H	0.595848	0.395477	0.112253
	H101	H	0.597197	0.586763	0.879515
	H102	H	0.404773	0.581427	0.111543
	H103	H	0.408887	0.401736	0.879146
	H104	H	0.120048	0.589582	0.401782
	H105	H	0.884799	0.599756	0.585506
	H106	H	0.123984	0.393001	0.591037
	H107	H	0.888561	0.399769	0.406478
	H108	H	0.903410	0.611468	0.085517
	H109	H	0.100277	0.380846	0.077786
	H110	H	0.090942	0.606743	0.905700
	H111	H	0.910700	0.377761	0.898736
	H112	H	0.102711	0.910528	0.611164
	H113	H	0.087831	0.088801	0.382174
	H114	H	0.906973	0.088443	0.612776
	H115	H	0.903435	0.895406	0.375975
	H116	H	0.623623	0.099220	0.902382
	H117	H	0.384137	0.093400	0.094808
	H118	H	0.620286	0.903402	0.094869
	H119	H	0.390255	0.910093	0.904971
	C120	C	0.381930	0.002494	0.617746
	C121	C	0.625438	0.986097	0.617867
	C122	C	0.625587	0.002455	0.374048
	C123	C	0.382018	0.985933	0.374223
	C124	C	0.625239	0.372967	0.003399
	C125	C	0.625731	0.616299	0.987257
	C126	C	0.382242	0.615776	0.003254
	C127	C	0.382436	0.372870	0.987168
	C128	C	0.011738	0.616163	0.373952
	C129	C	0.995383	0.616565	0.617039
	C130	C	0.012544	0.372742	0.616499
	C131	C	0.996082	0.372625	0.373881
	C132	C	0.882614	0.502346	0.116956
	C133	C	0.125715	0.486077	0.117058
	C134	C	0.125587	0.501944	0.873586
	C135	C	0.882227	0.485473	0.873512
	C136	C	0.124685	0.873247	0.503664
	C137	C	0.125227	0.115719	0.487964
	C138	C	0.882337	0.115685	0.503696
	C139	C	0.881988	0.872735	0.487878
	C140	C	0.511701	0.115871	0.874481
	C141	C	0.495633	0.116030	0.117720
	C142	C	0.511367	0.872358	0.117395
	C143	C	0.495928	0.872767	0.874920
	C144	C	0.385311	0.879634	0.672077
	C145	C	0.621912	0.108700	0.672447
	C146	C	0.622340	0.879576	0.319155
	C147	C	0.385655	0.108861	0.320162
	C148	C	0.679984	0.376156	0.880049
	C149	C	0.680842	0.613203	0.110219
	C150	C	0.327535	0.612596	0.880157
	C151	C	0.327808	0.376448	0.110374
	C152	C	0.888820	0.671223	0.375973
	C153	C	0.118071	0.671863	0.614620
	C154	C	0.889539	0.317836	0.613566
	C155	C	0.118601	0.316989	0.375402
	C156	C	0.889387	0.375606	0.671212
	C157	C	0.118472	0.613764	0.671750
	C158	C	0.888763	0.612638	0.318958
	C159	C	0.119041	0.375742	0.318905
	C160	C	0.385227	0.670605	0.880501
	C161	C	0.622853	0.670494	0.110378
	C162	C	0.622623	0.317724	0.880470
	C163	C	0.385281	0.318673	0.110572
	C164	C	0.680355	0.879772	0.376678
	C165	C	0.679982	0.108840	0.614603
	C166	C	0.327285	0.879618	0.614675
	C167	C	0.327684	0.108777	0.377653
	C168	C	0.885514	0.379698	0.171385
	C169	C	0.122706	0.608756	0.171887
	C170	C	0.122464	0.379357	0.818684
	C171	C	0.885422	0.608435	0.818895
	C172	C	0.180077	0.875912	0.380871
	C173	C	0.180531	0.113907	0.610888
	C174	C	0.827350	0.112694	0.380658
	C175	C	0.827226	0.875566	0.610774
	C176	C	0.388808	0.170974	0.876633
	C177	C	0.618502	0.170961	0.114984
	C178	C	0.388856	0.816912	0.115453
	C179	C	0.618676	0.818030	0.877141
	C180	C	0.388607	0.875460	0.172345
	C181	C	0.618618	0.112532	0.172197
	C182	C	0.388848	0.113050	0.819159
	C183	C	0.618692	0.875985	0.819752
	C184	C	0.884904	0.170881	0.380755
	C185	C	0.122708	0.171568	0.610604
	C186	C	0.122632	0.817861	0.380948
	C187	C	0.884516	0.817554	0.610505
	C188	C	0.180243	0.379327	0.876747
	C189	C	0.180785	0.608759	0.114218
	C190	C	0.827145	0.380120	0.114079
	C191	C	0.827432	0.608584	0.876351
	C192	C	0.403956	0.088026	0.595559
	C193	C	0.603476	0.900203	0.595827
	C194	C	0.603931	0.088126	0.395894
	C195	C	0.403425	0.900053	0.395737
	C196	C	0.603651	0.394910	0.089300
	C197	C	0.603857	0.594707	0.901228
	C198	C	0.404244	0.593645	0.089377
	C199	C	0.404563	0.394279	0.901084
	C200	C	0.097386	0.594679	0.396172
	C201	C	0.909649	0.594197	0.595008
	C202	C	0.098247	0.394582	0.594941
	C203	C	0.910142	0.394396	0.395873
	C204	C	0.904719	0.588024	0.094911
	C205	C	0.103669	0.400396	0.095139
	C206	C	0.103477	0.587349	0.895896
	C207	C	0.903560	0.399975	0.895098
	C208	C	0.102439	0.895156	0.589618
	C209	C	0.102947	0.093066	0.402492
	C210	C	0.904529	0.093854	0.589456
	C211	C	0.904002	0.894963	0.401864
	C212	C	0.597206	0.093904	0.896698
	C213	C	0.409710	0.094693	0.095898
	C214	C	0.597191	0.894312	0.095372
	C215	C	0.410103	0.894739	0.897058
	Zn216	Zn	0.503299	-0.006255	0.746162
	Zn217	Zn	0.503434	-0.006057	0.245782
	Zn218	Zn	0.753920	0.494386	-0.004824
	Zn219	Zn	0.254200	0.494029	-0.004999
	Zn220	Zn	0.003349	0.744602	0.495812
	Zn221	Zn	0.004287	0.244289	0.495392
	Zn222	Zn	0.003829	0.494336	0.745199
	Zn223	Zn	0.003894	0.494196	0.245835
	Zn224	Zn	0.503688	0.744118	-0.004079
	Zn225	Zn	0.503573	0.244599	-0.004271
	Zn226	Zn	0.753700	-0.005891	0.495810
	Zn227	Zn	0.253698	-0.006032	0.496295
	N228	N	0.418557	0.956872	0.673956
	N229	N	0.589053	0.031365	0.674593
	N230	N	0.589112	0.957089	0.317328
	N231	N	0.418659	0.031456	0.317884
	N232	N	0.681601	0.409768	0.957543
	N233	N	0.682688	0.580006	0.032567
	N234	N	0.325670	0.579353	0.957580
	N235	N	0.325985	0.409331	0.032665
	N236	N	0.966259	0.673677	0.409531
	N237	N	0.040640	0.673506	0.581311
	N238	N	0.967002	0.315968	0.580272
	N239	N	0.041138	0.314859	0.408830
	N240	N	0.966817	0.409055	0.673165
	N241	N	0.041182	0.579750	0.673268
	N242	N	0.966089	0.579293	0.317571
	N243	N	0.041875	0.409723	0.318062
	N244	N	0.418452	0.672531	0.958207
	N245	N	0.589387	0.672462	0.032949
	N246	N	0.589652	0.315469	0.958097
	N247	N	0.418581	0.316304	0.033061
	N248	N	0.682361	0.956834	0.410096
	N249	N	0.682189	0.031324	0.581308
	N250	N	0.325080	0.957168	0.581819
	N251	N	0.325371	0.031385	0.410651
	N252	N	0.919141	0.456975	0.173189
	N253	N	0.089204	0.531587	0.173662
	N254	N	0.089361	0.456806	0.816457
	N255	N	0.918815	0.531285	0.817140
	N256	N	0.181539	0.909561	0.458234
	N257	N	0.182348	0.079906	0.533743
	N258	N	0.825725	0.079088	0.457997
	N259	N	0.825687	0.909135	0.533386
	N260	N	0.466044	0.172765	0.910586
	N261	N	0.540980	0.173359	0.081847
	N262	N	0.466357	0.814817	0.082125
	N263	N	0.541409	0.815907	0.910613
	N264	N	0.465739	0.909410	0.173456
	N265	N	0.541388	0.078980	0.173899
	N266	N	0.466058	0.079498	0.817586
	N267	N	0.541139	0.909187	0.818090
	N268	N	0.918391	0.172912	0.458281
	N269	N	0.088772	0.172518	0.533287
	N270	N	0.088725	0.816450	0.458317
	N271	N	0.918042	0.815835	0.533069
	N272	N	0.182148	0.456478	0.910067
	N273	N	0.182802	0.531418	0.080947
	N274	N	0.825329	0.457401	0.080844
	N275	N	0.825302	0.531220	0.909644
	O276	O	0.972177	-0.046005	0.943888
	H277	H	0.970313	-0.054403	0.942369
	H278	H	0.963723	-0.046887	0.947369
	O279	O	-0.013040	0.951224	0.968441
	H280	H	-0.011346	0.955531	0.972088
	H281	H	-0.010149	0.936422	0.970450
	O282	O	1.014309	0.950433	-0.044059
	H283	H	1.006946	0.949687	-0.046966
	H284	H	1.019379	0.948172	-0.047998
	O285	O	-0.037389	0.962863	0.942171
	H286	H	-0.038079	0.967125	0.940670
	H287	H	-0.036334	0.967442	0.938866
