data_Molecule from HDF5

_cell_length_a		16.367797
_cell_length_b		16.397736
_cell_length_c		16.479780
_cell_angle_alpha	89.885574
_cell_angle_beta	89.882107
_cell_angle_gamma	89.871866
_symmetry_space_group_name_H-M	'P 1'
_symmetry_Int_Tables_number		1

loop_
	_symmetry_equiv_pos_as_xyz
	x,y,z

loop_
	_atom_site_label
	_atom_site_type_symbol
	_atom_site_fract_x
	_atom_site_fract_y
	_atom_site_fract_z
	H0	H	0.378307	0.841222	0.728444
	H1	H	0.594492	0.156846	0.724698
	H2	H	0.594154	0.840673	0.280078
	H3	H	0.379468	0.156312	0.280549
	H4	H	0.714243	0.388300	0.844554
	H5	H	0.708404	0.599473	0.160716
	H6	H	0.263274	0.608397	0.845530
	H7	H	0.266660	0.393991	0.159829
	H8	H	0.830650	0.718970	0.392867
	H9	H	0.147860	0.716988	0.603675
	H10	H	0.830661	0.275838	0.607037
	H11	H	0.148777	0.276991	0.396431
	H12	H	0.831921	0.386975	0.726829
	H13	H	0.146626	0.603878	0.722282
	H14	H	0.830374	0.603998	0.279606
	H15	H	0.148938	0.394249	0.281601
	H16	H	0.378752	0.725291	0.846344
	H17	H	0.593717	0.717249	0.160684
	H18	H	0.597876	0.273119	0.844954
	H19	H	0.382360	0.276480	0.160659
	H20	H	0.711232	0.840890	0.394507
	H21	H	0.709521	0.156930	0.607474
	H22	H	0.267883	0.838464	0.607512
	H23	H	0.267557	0.157079	0.400044
	H24	H	0.883305	0.339566	0.224028
	H25	H	0.093303	0.657107	0.222866
	H26	H	0.100436	0.340941	0.776323
	H27	H	0.880506	0.655201	0.776963
	H28	H	0.210311	0.893448	0.343449
	H29	H	0.209506	0.102594	0.660169
	H30	H	0.767800	0.102147	0.343993
	H31	H	0.764246	0.888360	0.659691
	H32	H	0.330515	0.223689	0.894958
	H33	H	0.649067	0.214828	0.104975
	H34	H	0.329012	0.776822	0.108596
	H35	H	0.647875	0.777723	0.898512
	H36	H	0.327676	0.894474	0.222461
	H37	H	0.646716	0.102182	0.223312
	H38	H	0.328848	0.107239	0.780435
	H39	H	0.645659	0.889993	0.779743
	H40	H	0.884328	0.218892	0.344256
	H41	H	0.098692	0.222144	0.658406
	H42	H	0.092099	0.778817	0.341104
	H43	H	0.881002	0.772130	0.658190
	H44	H	0.211986	0.340090	0.896180
	H45	H	0.206954	0.658168	0.104873
	H46	H	0.770688	0.337728	0.104791
	H47	H	0.767132	0.656649	0.896134
	H48	H	0.398258	0.111992	0.592522
	H49	H	0.577926	0.887295	0.583352
	H50	H	0.573630	0.113487	0.406022
	H51	H	0.400245	0.883944	0.411318
	H52	H	0.576382	0.409259	0.113137
	H53	H	0.578390	0.585375	0.889569
	H54	H	0.408531	0.585180	0.110521
	H55	H	0.404447	0.412839	0.891798
	H56	H	0.106804	0.592895	0.406440
	H57	H	0.874983	0.582107	0.590332
	H58	H	0.102401	0.411760	0.591622
	H59	H	0.872518	0.407646	0.404902
	H60	H	0.102375	0.406894	0.588146
	H61	H	0.875043	0.586303	0.588219
	H62	H	0.101562	0.587730	0.418012
	H63	H	0.875327	0.402653	0.416865
	H64	H	0.396177	0.595951	0.118991
	H65	H	0.575473	0.585895	0.890046
	H66	H	0.579269	0.402902	0.115537
	H67	H	0.402327	0.409044	0.890111
	H68	H	0.571496	0.108414	0.418023
	H69	H	0.579449	0.882187	0.597081
	H70	H	0.401549	0.110566	0.591452
	H71	H	0.399433	0.884804	0.414600
	H72	H	0.897669	0.609035	0.081038
	H73	H	0.073897	0.385253	0.093386
	H74	H	0.075767	0.609579	0.915115
	H75	H	0.902717	0.384032	0.909238
	H76	H	0.078607	0.915132	0.612088
	H77	H	0.084396	0.084307	0.388584
	H78	H	0.899174	0.082480	0.613606
	H79	H	0.887433	0.904361	0.384081
	H80	H	0.599163	0.086032	0.916594
	H81	H	0.370044	0.091632	0.100370
	H82	H	0.603754	0.905148	0.095086
	H83	H	0.372879	0.907505	0.912197
	H84	H	0.601870	0.907079	0.090172
	H85	H	0.374796	0.092563	0.083675
	H86	H	0.599712	0.081646	0.912811
	H87	H	0.376456	0.909968	0.921498
	H88	H	0.902927	0.087826	0.614376
	H89	H	0.073619	0.082246	0.392623
	H90	H	0.067787	0.903204	0.612795
	H91	H	0.899030	0.921414	0.394429
	H92	H	0.076201	0.611949	0.909540
	H93	H	0.076340	0.386846	0.088103
	H94	H	0.889795	0.616167	0.096483
	H95	H	0.905210	0.387282	0.915252
	H96	H	0.398395	0.110202	0.589415
	H97	H	0.566436	0.888315	0.592687
	H98	H	0.582963	0.114262	0.415082
	H99	H	0.397186	0.883218	0.412140
	H100	H	0.582872	0.408839	0.115354
	H101	H	0.577464	0.588602	0.888890
	H102	H	0.391774	0.579023	0.114031
	H103	H	0.399816	0.413427	0.890449
	H104	H	0.102076	0.580196	0.406952
	H105	H	0.876314	0.582658	0.586300
	H106	H	0.100052	0.412530	0.586462
	H107	H	0.878416	0.415192	0.414207
	H108	H	0.907940	0.610617	0.096732
	H109	H	0.079456	0.383658	0.092082
	H110	H	0.071200	0.609066	0.911487
	H111	H	0.898824	0.384545	0.915378
	H112	H	0.083394	0.900921	0.618607
	H113	H	0.076005	0.092915	0.387412
	H114	H	0.896832	0.087414	0.616898
	H115	H	0.910245	0.900698	0.390331
	H116	H	0.601708	0.086904	0.911358
	H117	H	0.377391	0.077707	0.092141
	H118	H	0.601482	0.910484	0.094859
	H119	H	0.376359	0.916636	0.914640
	C120	C	0.365808	0.006500	0.624522
	C121	C	0.608675	0.989959	0.624502
	C122	C	0.608712	0.007084	0.380984
	C123	C	0.366536	0.989232	0.381099
	C124	C	0.612002	0.374416	0.010257
	C125	C	0.609226	0.617827	0.993939
	C126	C	0.365823	0.621048	0.010877
	C127	C	0.368207	0.378040	0.994412
	C128	C	-0.001746	0.619211	0.378579
	C129	C	0.980150	0.617344	0.620847
	C130	C	-0.002305	0.376105	0.622892
	C131	C	0.980717	0.376381	0.379971
	C132	C	0.866933	0.506671	0.123444
	C133	C	0.108762	0.490189	0.122712
	C134	C	0.109732	0.506034	0.879764
	C135	C	0.867606	0.489109	0.879519
	C136	C	0.109101	0.875801	0.509419
	C137	C	0.110917	0.119379	0.493312
	C138	C	0.867764	0.118215	0.510526
	C139	C	0.865559	0.874862	0.493134
	C140	C	0.495999	0.119618	0.880631
	C141	C	0.479474	0.118864	0.123479
	C142	C	0.496957	0.876254	0.124890
	C143	C	0.479760	0.877696	0.882632
	C144	C	0.361665	0.888101	0.686873
	C145	C	0.612262	0.108946	0.684948
	C146	C	0.612065	0.888160	0.320426
	C147	C	0.362726	0.108932	0.321208
	C148	C	0.673781	0.370577	0.892144
	C149	C	0.668624	0.618385	0.113263
	C150	C	0.303954	0.625722	0.892700
	C151	C	0.306684	0.375107	0.112639
	C152	C	0.878456	0.679234	0.375878
	C153	C	0.099830	0.677699	0.622746
	C154	C	0.878642	0.315043	0.625977
	C155	C	0.100949	0.317057	0.378189
	C156	C	0.879272	0.370899	0.685351
	C157	C	0.099328	0.621365	0.681639
	C158	C	0.878197	0.621859	0.319274
	C159	C	0.100822	0.375196	0.320730
	C160	C	0.361906	0.683833	0.893096
	C161	C	0.611348	0.676933	0.113257
	C162	C	0.615265	0.313378	0.892100
	C163	C	0.364533	0.316676	0.112847
	C164	C	0.670533	0.888350	0.377502
	C165	C	0.669684	0.109112	0.626612
	C166	C	0.306310	0.886708	0.626857
	C167	C	0.306847	0.109264	0.380615
	C168	C	0.865148	0.387073	0.183594
	C169	C	0.111232	0.609602	0.182591
	C170	C	0.116043	0.388151	0.817652
	C171	C	0.863204	0.607926	0.818011
	C172	C	0.169556	0.874952	0.390231
	C173	C	0.170734	0.121592	0.612364
	C174	C	0.807409	0.120879	0.391755
	C175	C	0.804224	0.870588	0.611760
	C176	C	0.377613	0.182485	0.877372
	C177	C	0.600304	0.176716	0.124202
	C178	C	0.376830	0.816744	0.126805
	C179	C	0.599512	0.817192	0.879964
	C180	C	0.376081	0.875296	0.183511
	C181	C	0.599155	0.120567	0.183217
	C182	C	0.376776	0.124480	0.820219
	C183	C	0.598510	0.873393	0.820809
	C184	C	0.865638	0.178700	0.391518
	C185	C	0.115202	0.180980	0.611442
	C186	C	0.111116	0.817637	0.389343
	C187	C	0.862499	0.812576	0.611090
	C188	C	0.172189	0.387718	0.877186
	C189	C	0.167964	0.610209	0.123968
	C190	C	0.809180	0.386043	0.124108
	C191	C	0.806713	0.608678	0.877312
	C192	C	0.391774	0.089309	0.598608
	C193	C	0.582201	0.907441	0.598574
	C194	C	0.583164	0.090192	0.405979
	C195	C	0.391609	0.905750	0.405626
	C196	C	0.586773	0.399652	0.092997
	C197	C	0.584352	0.593557	0.911120
	C198	C	0.391581	0.594310	0.093051
	C199	C	0.394572	0.404179	0.912077
	C200	C	0.081635	0.594258	0.403307
	C201	C	0.897074	0.591232	0.595797
	C202	C	0.080195	0.402822	0.596358
	C203	C	0.897097	0.401230	0.404944
	C204	C	0.891344	0.590191	0.098619
	C205	C	0.083662	0.406949	0.098082
	C206	C	0.082302	0.588758	0.905042
	C207	C	0.894447	0.406617	0.905801
	C208	C	0.083970	0.899541	0.592578
	C209	C	0.085384	0.093956	0.410994
	C210	C	0.892691	0.093176	0.593202
	C211	C	0.891314	0.901232	0.411068
	C212	C	0.578628	0.092557	0.906165
	C213	C	0.395815	0.094367	0.099069
	C214	C	0.580609	0.900482	0.100516
	C215	C	0.396905	0.903842	0.908659
	Zn216	Zn	0.486819	-0.001792	0.753034
	Zn217	Zn	0.487430	-0.001938	0.252381
	Zn218	Zn	0.739143	0.497669	0.001204
	Zn219	Zn	0.237538	0.498923	0.002007
	Zn220	Zn	-0.011276	0.746328	0.499978
	Zn221	Zn	-0.009958	0.247671	0.501680
	Zn222	Zn	-0.011232	0.497674	0.750633
	Zn223	Zn	-0.011416	0.497973	0.251806
	Zn224	Zn	0.488683	0.748673	0.003285
	Zn225	Zn	0.488553	0.247481	0.002333
	Zn226	Zn	0.737247	-0.002148	0.503007
	Zn227	Zn	0.237875	-0.002883	0.502539
	N228	N	0.397777	0.963683	0.685725
	N229	N	0.575271	0.033708	0.683838
	N230	N	0.574184	0.963053	0.322362
	N231	N	0.398888	0.033099	0.320989
	N232	N	0.671799	0.407977	0.966626
	N233	N	0.667486	0.582474	0.037992
	N234	N	0.306206	0.587439	0.966894
	N235	N	0.308721	0.412478	0.037973
	N236	N	0.953953	0.677682	0.412229
	N237	N	0.024664	0.675318	0.585711
	N238	N	0.953308	0.318291	0.587761
	N239	N	0.025116	0.317466	0.414081
	N240	N	0.954539	0.407821	0.683783
	N241	N	0.023800	0.584709	0.680832
	N242	N	0.953656	0.585187	0.320631
	N243	N	0.024916	0.411378	0.321828
	N244	N	0.399624	0.680849	0.967469
	N245	N	0.574930	0.676840	0.038156
	N246	N	0.577640	0.315518	0.966646
	N247	N	0.402058	0.318443	0.038243
	N248	N	0.668386	0.963275	0.414620
	N249	N	0.667755	0.034001	0.589827
	N250	N	0.308884	0.961310	0.588759
	N251	N	0.309223	0.033967	0.417250
	N252	N	0.900311	0.463124	0.183480
	N253	N	0.075052	0.534081	0.181833
	N254	N	0.077915	0.462882	0.819271
	N255	N	0.899984	0.532563	0.819097
	N256	N	0.168551	0.910324	0.465845
	N257	N	0.168159	0.083779	0.538120
	N258	N	0.808629	0.084041	0.466691
	N259	N	0.805795	0.908298	0.537365
	N260	N	0.452772	0.179790	0.914129
	N261	N	0.524679	0.175994	0.087935
	N262	N	0.452848	0.817126	0.091213
	N263	N	0.524499	0.819514	0.917558
	N264	N	0.451702	0.911568	0.182508
	N265	N	0.523104	0.085392	0.182938
	N266	N	0.451514	0.086141	0.822058
	N267	N	0.523087	0.910455	0.822400
	N268	N	0.902448	0.177339	0.466419
	N269	N	0.078390	0.179495	0.536556
	N270	N	0.074245	0.818129	0.464343
	N271	N	0.899907	0.814977	0.536376
	N272	N	0.168289	0.462242	0.915142
	N273	N	0.166523	0.534963	0.087299
	N274	N	0.810298	0.461261	0.087388
	N275	N	0.809222	0.533591	0.914588
	O276	O	0.632385	0.564925	0.511741
	H277	H	0.621702	0.565374	0.514418
	H278	H	0.627648	0.581445	0.505861
	O279	O	0.535881	0.541589	0.352169
	H280	H	0.547814	0.534775	0.340444
	H281	H	0.530636	0.529318	0.355797
	O282	O	0.695184	0.482227	0.296729
	H283	H	0.696371	0.480981	0.306569
	H284	H	0.710407	0.485227	0.296523
	O285	O	0.837046	0.998315	-0.026036
	H286	H	0.843780	0.999632	-0.027008
	H287	H	0.830754	0.999598	-0.027112
	O288	O	0.631070	0.687806	0.646787
	H289	H	0.592966	0.689873	0.652857
	H290	H	0.636987	0.687231	0.642769
	O291	O	1.063653	-0.001088	0.864815
	H292	H	1.089468	0.012469	0.851805
	H293	H	1.051355	0.019652	0.872184
	O294	O	0.814414	1.179115	0.835008
	H295	H	0.802584	1.159208	0.850102
	H296	H	0.819414	1.173383	0.853826
	O297	O	0.438204	0.571364	0.414865
	H298	H	0.435509	0.555157	0.430347
	H299	H	0.432584	0.584299	0.408609
	O300	O	0.704260	0.516653	0.719067
	H301	H	0.708346	0.526253	0.697072
	H302	H	0.737068	0.530603	0.743140
	O303	O	0.319771	0.471994	0.554116
	H304	H	0.307656	0.469782	0.550918
	H305	H	0.312749	0.486487	0.561690
	O306	O	0.631052	-0.447045	1.424293
	H307	H	0.630481	-0.441630	1.428726
	H308	H	0.636588	-0.429673	1.420399
	O309	O	0.908003	0.124311	0.198504
	H310	H	0.919025	0.097850	0.200692
	H311	H	0.940042	0.146817	0.204695
	O312	O	0.372870	0.545303	0.386083
	H313	H	0.357611	0.545267	0.381488
	H314	H	0.377750	0.551247	0.384412
	O315	O	-0.024297	-0.185587	1.203757
	H316	H	-0.022063	-0.196771	1.177432
	H317	H	-0.016464	-0.204331	1.215260
	O318	O	0.043632	0.141379	0.131885
	H319	H	0.059324	0.130810	0.126596
	H320	H	0.050017	0.138668	0.126846
	O321	O	1.043979	-0.206156	0.043800
	H322	H	1.040831	-0.204668	0.022998
	H323	H	1.064922	-0.213955	0.023256
	O324	O	1.061325	0.022050	0.849153
	H325	H	1.071754	0.023294	0.846784
	H326	H	1.061901	0.040446	0.858071
	O327	O	0.689927	0.297822	0.427872
	H328	H	0.702531	0.278285	0.426338
	H329	H	0.679473	0.289340	0.460368
	O330	O	0.094142	0.914694	1.126302
	H331	H	0.105145	0.891628	1.121131
	H332	H	0.092375	0.911200	1.103300
	O333	O	0.185150	0.803209	-0.079669
	H334	H	0.183921	0.783258	-0.088012
	H335	H	0.182559	0.823656	-0.111557
	O336	O	0.888207	1.048838	-0.007651
	H337	H	0.907217	1.055613	-0.000732
	H338	H	0.897583	1.050367	-0.004964
	O339	O	-0.433606	0.712715	0.756884
	H340	H	-0.454683	0.701587	0.763736
	H341	H	-0.437210	0.714208	0.758147
	O342	O	0.653131	0.700652	0.540881
	H343	H	0.659836	0.708936	0.515320
	H344	H	0.631230	0.702685	0.559305
	O345	O	0.115865	-0.011590	0.945902
	H346	H	0.115029	-0.005585	0.941705
	H347	H	0.120454	-0.015776	0.935584
	O348	O	0.426189	0.302830	0.691857
	H349	H	0.427218	0.292703	0.716270
	H350	H	0.451928	0.325481	0.705796
	O351	O	1.299049	1.669450	-0.648606
	H352	H	1.311562	1.667770	-0.632638
	H353	H	1.305574	1.673302	-0.646314
	O354	O	0.788772	1.011336	0.792579
	H355	H	0.773544	1.020896	0.773709
	H356	H	0.783460	0.998433	0.800146
	O357	O	-0.216965	0.164087	-0.015093
	H358	H	-0.220673	0.183443	-0.002621
	H359	H	-0.203625	0.170320	-0.003107
	O360	O	0.397529	0.437589	0.397372
	H361	H	0.405066	0.468141	0.388819
	H362	H	0.406220	0.427356	0.387450
	O363	O	1.288820	0.476367	0.654184
	H364	H	1.272668	0.474187	0.660108
	H365	H	1.293921	0.446001	0.650417
	O366	O	0.074186	0.150585	0.903435
	H367	H	0.072418	0.154958	0.921061
	H368	H	0.069970	0.153519	0.885667
	O369	O	1.143688	1.001393	1.211173
	H370	H	1.159460	0.989616	1.213583
	H371	H	1.141966	0.984756	1.209687
	O372	O	0.492657	0.339918	0.401884
	H373	H	0.514667	0.316634	0.379754
	H374	H	0.509069	0.350530	0.405835
	O375	O	-0.024754	0.079001	1.066849
	H376	H	-0.018566	0.078435	1.081346
	H377	H	-0.027531	0.079360	1.068274
	O378	O	0.176087	-0.127502	-0.194105
	H379	H	0.180771	-0.101208	-0.189172
	H380	H	0.172692	-0.134144	-0.217274
	O381	O	0.005916	0.799503	-0.205597
	H382	H	-0.012529	0.804025	-0.216797
	H383	H	-0.000780	0.794601	-0.206829
	O384	O	-0.189415	0.977498	1.165751
	H385	H	-0.196384	0.983900	1.171638
	H386	H	-0.175162	0.992165	1.171082
	O387	O	0.309154	0.313633	0.458307
	H388	H	0.324664	0.320704	0.458639
	H389	H	0.300833	0.310051	0.456353
	O390	O	0.971209	1.212795	-0.214145
	H391	H	0.937774	1.209598	-0.205435
	H392	H	0.971195	1.247681	-0.237105
	O393	O	0.327155	0.653610	0.483660
	H394	H	0.341998	0.647164	0.502316
	H395	H	0.325587	0.662186	0.469904
	O396	O	1.163375	0.103528	0.116988
	H397	H	1.170115	0.070289	0.107705
	H398	H	1.178953	0.110621	0.119245
	O399	O	0.324725	0.363533	0.664833
	H400	H	0.314788	0.352146	0.633492
	H401	H	0.355236	0.354310	0.673532
	O402	O	0.805840	0.817649	0.182569
	H403	H	0.800348	0.850375	0.174745
	H404	H	0.834322	0.823305	0.183357
	O405	O	0.478915	0.354025	0.510123
	H406	H	0.466517	0.346501	0.516688
	H407	H	0.478934	0.356611	0.503779
	O408	O	0.465809	0.707812	0.291630
	H409	H	0.452757	0.723721	0.279094
	H410	H	0.470207	0.697330	0.275790
	O411	O	0.940596	0.846880	0.942352
	H412	H	0.922374	0.850724	0.956300
	H413	H	0.936122	0.852317	0.924463
	O414	O	0.631576	0.311513	0.306903
	H415	H	0.646473	0.321773	0.321222
	H416	H	0.644150	0.327868	0.316694
	O417	O	0.028970	1.163870	1.072145
	H418	H	0.038565	1.161682	1.085494
	H419	H	0.033953	1.157440	1.086077
	O420	O	0.193155	1.157941	0.994202
	H421	H	0.183154	1.163464	1.002027
	H422	H	0.200793	1.165072	1.007668
	O423	O	0.433000	1.562818	0.685623
	H424	H	0.428407	1.566447	0.683129
	H425	H	0.423141	1.563798	0.680809
	O426	O	0.485593	0.572374	0.408137
	H427	H	0.484892	0.564930	0.390205
	H428	H	0.508511	0.569680	0.410970
	O429	O	0.579502	0.422189	0.675047
	H430	H	0.602727	0.435232	0.671313
	H431	H	0.565682	0.439303	0.658628
	O432	O	0.517455	0.295862	0.494171
	H433	H	0.525459	0.295333	0.491704
	H434	H	0.510741	0.287417	0.483163
	O435	O	-0.201228	-0.199700	0.022417
	H436	H	-0.193653	-0.202925	0.038781
	H437	H	-0.208664	-0.201046	0.020841
	O438	O	0.684650	0.469075	0.549476
	H439	H	0.691796	0.458253	0.560036
	H440	H	0.680492	0.459366	0.545451
	O441	O	0.425688	0.707799	0.607189
	H442	H	0.438286	0.717890	0.619946
	H443	H	0.450082	0.701998	0.603378
