data_Molecule from HDF5

_cell_length_a		16.290435
_cell_length_b		16.332363
_cell_length_c		16.344426
_cell_angle_alpha	89.749019
_cell_angle_beta	90.041784
_cell_angle_gamma	90.040804
_symmetry_space_group_name_H-M	'P 1'
_symmetry_Int_Tables_number		1

loop_
	_symmetry_equiv_pos_as_xyz
	x,y,z

loop_
	_atom_site_label
	_atom_site_type_symbol
	_atom_site_fract_x
	_atom_site_fract_y
	_atom_site_fract_z
	H0	H	0.403936	0.844678	0.724912
	H1	H	0.600623	0.171690	0.722160
	H2	H	0.601854	0.844458	0.295330
	H3	H	0.403219	0.170889	0.292539
	H4	H	0.715174	0.411823	0.844700
	H5	H	0.717604	0.605538	0.171710
	H6	H	0.289326	0.605119	0.844687
	H7	H	0.288021	0.408864	0.171440
	H8	H	0.839502	0.723527	0.408278
	H9	H	0.166880	0.719481	0.605341
	H10	H	0.838765	0.292983	0.606965
	H11	H	0.166838	0.294628	0.411850
	H12	H	0.839072	0.408609	0.723759
	H13	H	0.165721	0.605110	0.723661
	H14	H	0.839051	0.607216	0.293194
	H15	H	0.165593	0.408704	0.292844
	H16	H	0.403581	0.723627	0.845451
	H17	H	0.601917	0.722239	0.171929
	H18	H	0.600572	0.293687	0.845197
	H19	H	0.403619	0.292070	0.171764
	H20	H	0.717278	0.844223	0.412605
	H21	H	0.717770	0.170920	0.606736
	H22	H	0.288255	0.844270	0.607937
	H23	H	0.288461	0.171574	0.410907
	H24	H	0.903961	0.344357	0.223292
	H25	H	0.101370	0.670589	0.222586
	H26	H	0.100584	0.344171	0.795065
	H27	H	0.903191	0.670855	0.793346
	H28	H	0.218394	0.909777	0.346195
	H29	H	0.216638	0.104663	0.672617
	H30	H	0.788335	0.106148	0.346003
	H31	H	0.790170	0.909303	0.672800
	H32	H	0.338512	0.222563	0.909136
	H33	H	0.666005	0.222178	0.106028
	H34	H	0.338972	0.792657	0.108076
	H35	H	0.666179	0.794986	0.912409
	H36	H	0.339104	0.908920	0.223875
	H37	H	0.666242	0.105728	0.222657
	H38	H	0.339095	0.106215	0.793724
	H39	H	0.665830	0.911238	0.796466
	H40	H	0.904981	0.222432	0.345775
	H41	H	0.101899	0.222312	0.671997
	H42	H	0.102564	0.793140	0.345703
	H43	H	0.903971	0.790744	0.671284
	H44	H	0.216357	0.343841	0.911823
	H45	H	0.217364	0.671015	0.105708
	H46	H	0.787194	0.344368	0.107653
	H47	H	0.786895	0.670318	0.909197
	H48	H	0.397702	0.127410	0.601268
	H49	H	0.600375	0.891832	0.600769
	H50	H	0.596759	0.123611	0.415736
	H51	H	0.414417	0.892235	0.413303
	H52	H	0.591715	0.417751	0.121640
	H53	H	0.599885	0.598523	0.892324
	H54	H	0.398298	0.604710	0.128749
	H55	H	0.412335	0.405183	0.890863
	H56	H	0.115403	0.588230	0.413449
	H57	H	0.887011	0.599083	0.600178
	H58	H	0.121560	0.412082	0.609530
	H59	H	0.889916	0.420514	0.422037
	H60	H	0.118299	0.409234	0.596824
	H61	H	0.885713	0.599977	0.602711
	H62	H	0.122361	0.606806	0.406095
	H63	H	0.885014	0.417283	0.407897
	H64	H	0.410683	0.587912	0.119840
	H65	H	0.589065	0.599735	0.895916
	H66	H	0.593358	0.409549	0.124799
	H67	H	0.399598	0.416458	0.889908
	H68	H	0.594763	0.123107	0.414415
	H69	H	0.596301	0.889807	0.609264
	H70	H	0.415767	0.125451	0.613104
	H71	H	0.411483	0.894469	0.422142
	H72	H	0.916722	0.624132	0.109036
	H73	H	0.098528	0.389687	0.106504
	H74	H	0.093391	0.621356	0.918996
	H75	H	0.908804	0.390232	0.912442
	H76	H	0.089751	0.894907	0.628267
	H77	H	0.097093	0.101421	0.393074
	H78	H	0.911710	0.102529	0.624666
	H79	H	0.902135	0.922258	0.392732
	H80	H	0.618120	0.101609	0.918133
	H81	H	0.388703	0.096660	0.096542
	H82	H	0.614049	0.919994	0.096267
	H83	H	0.386810	0.914242	0.919289
	H84	H	0.620765	0.917663	0.112289
	H85	H	0.384666	0.097087	0.108832
	H86	H	0.618809	0.100404	0.914061
	H87	H	0.387006	0.918423	0.917008
	H88	H	0.907804	0.101255	0.626144
	H89	H	0.094803	0.100930	0.393969
	H90	H	0.114360	0.916863	0.628944
	H91	H	0.919644	0.917431	0.396965
	H92	H	0.100348	0.625253	0.914321
	H93	H	0.089488	0.393100	0.103005
	H94	H	0.913154	0.619354	0.091127
	H95	H	0.911546	0.392763	0.917133
	H96	H	0.415551	0.118675	0.592021
	H97	H	0.591145	0.894038	0.601965
	H98	H	0.595590	0.122533	0.417092
	H99	H	0.405256	0.890608	0.415460
	H100	H	0.599706	0.415553	0.125021
	H101	H	0.595209	0.608462	0.891464
	H102	H	0.420518	0.608097	0.123177
	H103	H	0.414604	0.421755	0.896567
	H104	H	0.116918	0.605189	0.426392
	H105	H	0.885882	0.601624	0.600343
	H106	H	0.116347	0.421803	0.601367
	H107	H	0.885192	0.406918	0.418962
	H108	H	0.899566	0.626448	0.102005
	H109	H	0.098089	0.392410	0.097164
	H110	H	0.092514	0.623622	0.910098
	H111	H	0.905736	0.390936	0.917427
	H112	H	0.084266	0.925171	0.617868
	H113	H	0.095596	0.103180	0.393276
	H114	H	0.910996	0.098483	0.624509
	H115	H	0.907856	0.905286	0.389579
	H116	H	0.619485	0.104326	0.914811
	H117	H	0.384019	0.107544	0.101812
	H118	H	0.621412	0.904629	0.101117
	H119	H	0.384978	0.914352	0.914591
	C120	C	0.381097	0.015914	0.631108
	C121	C	0.624623	0.999541	0.631790
	C122	C	0.624269	0.015576	0.387741
	C123	C	0.381335	0.999943	0.387642
	C124	C	0.623329	0.386411	0.016273
	C125	C	0.623975	0.629885	1.000866
	C126	C	0.380933	0.629383	0.016270
	C127	C	0.380689	0.385962	1.000235
	C128	C	0.010629	0.629278	0.386573
	C129	C	0.994505	0.628237	0.629845
	C130	C	0.010743	0.385836	0.630564
	C131	C	0.994531	0.386744	0.387599
	C132	C	0.880881	0.515573	0.129596
	C133	C	0.124256	0.499430	0.130197
	C134	C	0.123809	0.515577	0.886948
	C135	C	0.880095	0.499195	0.886735
	C136	C	0.124823	0.885120	0.517199
	C137	C	0.124369	0.129628	0.501115
	C138	C	0.881521	0.129330	0.517118
	C139	C	0.881780	0.886068	0.501024
	C140	C	0.510534	0.130036	0.887145
	C141	C	0.494145	0.128913	0.130091
	C142	C	0.511017	0.885346	0.131666
	C143	C	0.493766	0.887118	0.888396
	C144	C	0.383795	0.893268	0.686627
	C145	C	0.621765	0.122679	0.685396
	C146	C	0.621827	0.893001	0.333257
	C147	C	0.382910	0.122279	0.331240
	C148	C	0.677816	0.390555	0.893395
	C149	C	0.679805	0.626459	0.123014
	C150	C	0.326145	0.626704	0.893736
	C151	C	0.326061	0.388374	0.123035
	C152	C	0.887974	0.684934	0.388618
	C153	C	0.117661	0.682542	0.626611
	C154	C	0.887722	0.330380	0.627964
	C155	C	0.117855	0.332160	0.390744
	C156	C	0.887622	0.387966	0.685518
	C157	C	0.117341	0.625651	0.685209
	C158	C	0.887805	0.627623	0.330784
	C159	C	0.117169	0.388822	0.331601
	C160	C	0.382991	0.685568	0.894087
	C161	C	0.622230	0.684350	0.123317
	C162	C	0.620708	0.332088	0.893531
	C163	C	0.383143	0.330070	0.122912
	C164	C	0.679115	0.892721	0.391891
	C165	C	0.679740	0.122220	0.627712
	C166	C	0.326066	0.893124	0.628702
	C167	C	0.326237	0.122723	0.390227
	C168	C	0.883068	0.392954	0.185336
	C169	C	0.121701	0.621966	0.184809
	C170	C	0.121168	0.392754	0.832731
	C171	C	0.882711	0.621885	0.831156
	C172	C	0.180288	0.888713	0.394704
	C173	C	0.178954	0.125683	0.623842
	C174	C	0.826272	0.126658	0.394711
	C175	C	0.827350	0.888373	0.623878
	C176	C	0.387297	0.184479	0.889641
	C177	C	0.617337	0.183974	0.126738
	C178	C	0.387700	0.830579	0.128590
	C179	C	0.617220	0.832298	0.891386
	C180	C	0.387809	0.888173	0.186261
	C181	C	0.617541	0.126036	0.184406
	C182	C	0.387611	0.127242	0.831776
	C183	C	0.617161	0.889865	0.833787
	C184	C	0.884207	0.184370	0.394424
	C185	C	0.122487	0.184635	0.623350
	C186	C	0.122784	0.830787	0.394506
	C187	C	0.884036	0.829641	0.623112
	C188	C	0.178764	0.392576	0.890587
	C189	C	0.179394	0.622191	0.126885
	C190	C	0.825603	0.392878	0.127277
	C191	C	0.825310	0.621870	0.889107
	C192	C	0.403090	0.101711	0.608506
	C193	C	0.602253	0.913780	0.610291
	C194	C	0.602172	0.101167	0.409424
	C195	C	0.403725	0.914596	0.410266
	C196	C	0.601528	0.408019	0.101755
	C197	C	0.601246	0.608516	0.915299
	C198	C	0.403233	0.606802	0.101901
	C199	C	0.402392	0.408035	0.914666
	C200	C	0.096070	0.606591	0.408903
	C201	C	0.908251	0.606301	0.607766
	C202	C	0.096593	0.407927	0.608881
	C203	C	0.908958	0.408562	0.409688
	C204	C	0.903221	0.601260	0.107229
	C205	C	0.101913	0.413801	0.108508
	C206	C	0.102009	0.601264	0.908217
	C207	C	0.902268	0.413361	0.908974
	C208	C	0.102493	0.906142	0.602922
	C209	C	0.102378	0.108164	0.415556
	C210	C	0.903725	0.107248	0.602947
	C211	C	0.903528	0.908495	0.415153
	C212	C	0.596688	0.108429	0.909147
	C213	C	0.408130	0.107021	0.108514
	C214	C	0.596520	0.907401	0.109833
	C215	C	0.408366	0.909116	0.910430
	Zn216	Zn	0.502449	0.008594	0.759703
	Zn217	Zn	0.502553	0.007983	0.258934
	Zn218	Zn	0.752312	0.507612	0.008225
	Zn219	Zn	0.252247	0.507667	0.008225
	Zn220	Zn	0.002803	0.757160	0.508656
	Zn221	Zn	0.002816	0.257953	0.509181
	Zn222	Zn	0.002006	0.507353	0.758625
	Zn223	Zn	0.001872	0.507594	0.258469
	Zn224	Zn	0.502189	0.758048	0.009089
	Zn225	Zn	0.502169	0.257687	0.008399
	Zn226	Zn	0.753034	0.007512	0.509786
	Zn227	Zn	0.252625	0.007988	0.509479
	N228	N	0.417245	0.970617	0.688088
	N229	N	0.587910	0.045350	0.687731
	N230	N	0.588389	0.970399	0.330695
	N231	N	0.416550	0.045126	0.329690
	N232	N	0.679356	0.423771	0.970617
	N233	N	0.681270	0.593631	0.045642
	N234	N	0.325058	0.592266	0.970746
	N235	N	0.324176	0.422194	0.045791
	N236	N	0.965178	0.686149	0.422593
	N237	N	0.040250	0.684117	0.592902
	N238	N	0.965159	0.329097	0.594412
	N239	N	0.040706	0.330674	0.424899
	N240	N	0.965034	0.421560	0.687503
	N241	N	0.039571	0.592650	0.687162
	N242	N	0.965018	0.593441	0.329594
	N243	N	0.039721	0.422221	0.329903
	N244	N	0.416406	0.687148	0.971509
	N245	N	0.588242	0.686709	0.046327
	N246	N	0.587695	0.329300	0.970901
	N247	N	0.416465	0.328510	0.045609
	N248	N	0.680794	0.969961	0.424985
	N249	N	0.681700	0.044701	0.595394
	N250	N	0.324469	0.970381	0.594832
	N251	N	0.325006	0.045633	0.424544
	N252	N	0.916512	0.470257	0.186975
	N253	N	0.087982	0.544717	0.186922
	N254	N	0.087632	0.469980	0.830328
	N255	N	0.916324	0.544395	0.829749
	N256	N	0.181807	0.921833	0.471937
	N257	N	0.180126	0.092052	0.546816
	N258	N	0.824450	0.093266	0.472168
	N259	N	0.826038	0.922905	0.546992
	N260	N	0.464872	0.186275	0.923301
	N261	N	0.539623	0.186033	0.093921
	N262	N	0.465199	0.828596	0.095459
	N263	N	0.539623	0.830603	0.924792
	N264	N	0.465344	0.921453	0.188451
	N265	N	0.539867	0.092731	0.186686
	N266	N	0.465283	0.094341	0.830050
	N267	N	0.539723	0.923399	0.831888
	N268	N	0.917717	0.186057	0.471634
	N269	N	0.089188	0.187070	0.546040
	N270	N	0.089002	0.828503	0.471621
	N271	N	0.917070	0.828098	0.545659
	N272	N	0.180465	0.469950	0.923642
	N273	N	0.181204	0.544956	0.093877
	N274	N	0.824063	0.470285	0.093589
	N275	N	0.823808	0.544712	0.922953
	O276	O	-0.055783	-0.003382	1.023907
	H277	H	-0.057425	-0.002199	1.024436
	H278	H	-0.061447	-0.005983	1.017875
	O279	O	0.952295	0.021682	0.026552
	H280	H	0.960079	0.028802	0.027346
	H281	H	0.950871	0.022826	0.030510
	O282	O	0.478854	0.502124	0.372865
	H283	H	0.480738	0.504060	0.370176
	H284	H	0.474556	0.500891	0.371921
	O285	O	0.500137	0.524503	0.371952
	H286	H	0.492041	0.529010	0.363880
	H287	H	0.498999	0.524729	0.359271
	O288	O	0.480243	0.563904	0.366800
	H289	H	0.481555	0.567430	0.370082
	H290	H	0.473938	0.560388	0.367551
	O291	O	-0.477189	0.495450	0.401420
	H292	H	-0.480477	0.497267	0.402495
	H293	H	-0.472626	0.491657	0.403787
	O294	O	0.469664	0.544042	0.380558
	H295	H	0.472194	0.537293	0.381961
	H296	H	0.477381	0.552652	0.371071
	O297	O	0.932415	-0.002664	0.006542
	H298	H	0.926603	-0.003206	0.006557
	H299	H	0.924162	-0.006878	0.007418
