data_Molecule from HDF5

_cell_length_a		16.354912
_cell_length_b		16.298672
_cell_length_c		16.304830
_cell_angle_alpha	90.010224
_cell_angle_beta	90.126131
_cell_angle_gamma	90.009935
_symmetry_space_group_name_H-M	'P 1'
_symmetry_Int_Tables_number		1

loop_
	_symmetry_equiv_pos_as_xyz
	x,y,z

loop_
	_atom_site_label
	_atom_site_type_symbol
	_atom_site_fract_x
	_atom_site_fract_y
	_atom_site_fract_z
	H0	H	0.406371	0.827788	0.709294
	H1	H	0.602768	0.154961	0.710460
	H2	H	0.600200	0.826030	0.283333
	H3	H	0.406505	0.154679	0.280688
	H4	H	0.718623	0.393017	0.831110
	H5	H	0.719350	0.588493	0.158486
	H6	H	0.288642	0.589331	0.832085
	H7	H	0.290421	0.391712	0.158504
	H8	H	0.841113	0.704940	0.397525
	H9	H	0.166961	0.706394	0.594435
	H10	H	0.840725	0.276858	0.592439
	H11	H	0.167546	0.275869	0.397156
	H12	H	0.841392	0.393081	0.709687
	H13	H	0.167884	0.589105	0.709767
	H14	H	0.841522	0.589134	0.279684
	H15	H	0.168437	0.392424	0.281621
	H16	H	0.406292	0.704279	0.831411
	H17	H	0.603001	0.704721	0.158540
	H18	H	0.602029	0.276515	0.830813
	H19	H	0.408118	0.276368	0.158397
	H20	H	0.718129	0.826909	0.397790
	H21	H	0.719685	0.154577	0.594522
	H22	H	0.290164	0.827834	0.593658
	H23	H	0.288381	0.153546	0.395493
	H24	H	0.908758	0.326880	0.208784
	H25	H	0.103719	0.654960	0.210743
	H26	H	0.103490	0.327635	0.781187
	H27	H	0.905144	0.654570	0.780005
	H28	H	0.218379	0.891864	0.331984
	H29	H	0.219434	0.089988	0.658481
	H30	H	0.788738	0.090051	0.331514
	H31	H	0.790586	0.893025	0.658909
	H32	H	0.341768	0.206596	0.895726
	H33	H	0.667943	0.205115	0.094134
	H34	H	0.341357	0.776020	0.092444
	H35	H	0.667438	0.776375	0.897603
	H36	H	0.340727	0.893028	0.208437
	H37	H	0.667145	0.088197	0.210746
	H38	H	0.340636	0.089229	0.780553
	H39	H	0.667519	0.893245	0.781293
	H40	H	0.905170	0.206328	0.330947
	H41	H	0.103431	0.206518	0.658002
	H42	H	0.101858	0.776263	0.331498
	H43	H	0.907256	0.777521	0.658799
	H44	H	0.219828	0.328233	0.896902
	H45	H	0.220861	0.654408	0.094952
	H46	H	0.789531	0.327447	0.095219
	H47	H	0.790003	0.654356	0.897052
	H48	H	0.402892	0.110711	0.592900
	H49	H	0.589063	0.876829	0.591980
	H50	H	0.593934	0.106013	0.401178
	H51	H	0.411274	0.875045	0.401652
	H52	H	0.595608	0.397871	0.109999
	H53	H	0.597206	0.588026	0.878144
	H54	H	0.414360	0.587073	0.111361
	H55	H	0.407159	0.399451	0.878185
	H56	H	0.118521	0.580339	0.404319
	H57	H	0.887381	0.590391	0.587333
	H58	H	0.120184	0.397919	0.590164
	H59	H	0.888163	0.393100	0.403969
	H60	H	0.119923	0.396759	0.587509
	H61	H	0.890662	0.581016	0.583189
	H62	H	0.121730	0.584676	0.397577
	H63	H	0.891258	0.402813	0.402579
	H64	H	0.407738	0.583282	0.112925
	H65	H	0.602239	0.582195	0.878285
	H66	H	0.599186	0.395907	0.111681
	H67	H	0.413527	0.400864	0.881045
	H68	H	0.598157	0.106477	0.405448
	H69	H	0.600262	0.877424	0.579241
	H70	H	0.419656	0.106525	0.592888
	H71	H	0.410384	0.874933	0.403344
	H72	H	0.907085	0.608854	0.092320
	H73	H	0.099082	0.376556	0.084409
	H74	H	0.100184	0.606631	0.906600
	H75	H	0.915460	0.378734	0.909914
	H76	H	0.091561	0.898510	0.608992
	H77	H	0.096994	0.070026	0.383431
	H78	H	0.905334	0.078769	0.610732
	H79	H	0.908330	0.904420	0.380614
	H80	H	0.622107	0.091532	0.901125
	H81	H	0.389965	0.079295	0.088130
	H82	H	0.615374	0.906216	0.083038
	H83	H	0.389608	0.901547	0.902936
	H84	H	0.623832	0.897798	0.101862
	H85	H	0.387300	0.086138	0.091498
	H86	H	0.616954	0.081442	0.909552
	H87	H	0.386778	0.896129	0.896635
	H88	H	0.919119	0.081687	0.607308
	H89	H	0.085158	0.090413	0.380439
	H90	H	0.099579	0.892449	0.614038
	H91	H	0.917235	0.897627	0.380705
	H92	H	0.098239	0.609265	0.898653
	H93	H	0.101720	0.373419	0.090883
	H94	H	0.918199	0.605654	0.090245
	H95	H	0.904496	0.373269	0.902455
	H96	H	0.409859	0.104730	0.578079
	H97	H	0.604737	0.871472	0.594347
	H98	H	0.599353	0.108187	0.399769
	H99	H	0.409277	0.873571	0.401918
	H100	H	0.599258	0.400550	0.109945
	H101	H	0.594712	0.581114	0.880314
	H102	H	0.413824	0.579643	0.109672
	H103	H	0.412057	0.394510	0.877976
	H104	H	0.120882	0.588666	0.405379
	H105	H	0.887000	0.581328	0.593617
	H106	H	0.118608	0.399620	0.587492
	H107	H	0.887140	0.397661	0.394844
	H108	H	0.910012	0.605805	0.081296
	H109	H	0.094872	0.375842	0.090433
	H110	H	0.092807	0.604845	0.903270
	H111	H	0.917179	0.374718	0.895998
	H112	H	0.101689	0.902904	0.610871
	H113	H	0.107975	0.089273	0.374298
	H114	H	0.910789	0.091911	0.612822
	H115	H	0.907149	0.893715	0.376881
	H116	H	0.619764	0.078490	0.896116
	H117	H	0.389700	0.086236	0.083951
	H118	H	0.622606	0.885827	0.083745
	H119	H	0.388469	0.893154	0.904722
	C120	C	0.382884	-0.000601	0.616520
	C121	C	0.625931	0.983409	0.616848
	C122	C	0.625619	-0.001434	0.373774
	C123	C	0.382147	0.982500	0.373372
	C124	C	0.626462	0.369356	0.002609
	C125	C	0.626603	0.612432	0.986870
	C126	C	0.383360	0.611830	0.003310
	C127	C	0.382915	0.369302	0.986863
	C128	C	0.012609	0.612733	0.373600
	C129	C	0.996326	0.612328	0.616747
	C130	C	0.012215	0.369445	0.616953
	C131	C	0.996877	0.369243	0.373055
	C132	C	0.883452	0.499043	0.116946
	C133	C	0.127038	0.483084	0.117518
	C134	C	0.125869	0.499232	0.874357
	C135	C	0.883181	0.483252	0.873673
	C136	C	0.125894	0.869085	0.503544
	C137	C	0.125584	0.112180	0.487052
	C138	C	0.882922	0.112920	0.502591
	C139	C	0.882539	0.869703	0.487040
	C140	C	0.511920	0.112339	0.873561
	C141	C	0.496665	0.112166	0.116426
	C142	C	0.512630	0.868466	0.117201
	C143	C	0.496197	0.868923	0.873221
	C144	C	0.385641	0.876361	0.671466
	C145	C	0.623146	0.106286	0.672348
	C146	C	0.621726	0.875304	0.320156
	C147	C	0.385699	0.105695	0.318472
	C148	C	0.681101	0.372163	0.879947
	C149	C	0.681580	0.609343	0.109672
	C150	C	0.327441	0.609435	0.880449
	C151	C	0.328186	0.371232	0.109759
	C152	C	0.889790	0.667447	0.376347
	C153	C	0.118888	0.667605	0.614431
	C154	C	0.889506	0.314767	0.613388
	C155	C	0.119165	0.314061	0.376505
	C156	C	0.889768	0.372278	0.671827
	C157	C	0.118945	0.609750	0.672179
	C158	C	0.890132	0.610220	0.317700
	C159	C	0.119720	0.371911	0.319103
	C160	C	0.385573	0.666792	0.880309
	C161	C	0.623635	0.666814	0.109912
	C162	C	0.622885	0.314662	0.879726
	C163	C	0.386816	0.314244	0.109726
	C164	C	0.680077	0.875667	0.377126
	C165	C	0.681144	0.106228	0.614497
	C166	C	0.327844	0.876449	0.614038
	C167	C	0.326945	0.105203	0.375413
	C168	C	0.887063	0.375798	0.171367
	C169	C	0.124029	0.606279	0.172486
	C170	C	0.123700	0.376586	0.818931
	C171	C	0.885358	0.605958	0.818290
	C172	C	0.180524	0.871582	0.380591
	C173	C	0.181257	0.110347	0.609814
	C174	C	0.827087	0.110529	0.379961
	C175	C	0.828139	0.872392	0.610069
	C176	C	0.389845	0.167852	0.875656
	C177	C	0.619116	0.166867	0.113959
	C178	C	0.389780	0.813837	0.113503
	C179	C	0.618824	0.814136	0.876571
	C180	C	0.389617	0.871689	0.171288
	C181	C	0.618969	0.108905	0.171996
	C182	C	0.389484	0.109510	0.818488
	C183	C	0.618683	0.872009	0.818526
	C184	C	0.884781	0.168418	0.379837
	C185	C	0.123499	0.167991	0.609677
	C186	C	0.122530	0.814311	0.380345
	C187	C	0.886400	0.815302	0.610053
	C188	C	0.181583	0.376723	0.876426
	C189	C	0.182112	0.606178	0.115182
	C190	C	0.827951	0.376099	0.114819
	C191	C	0.828073	0.605903	0.876418
	C192	C	0.404512	0.085041	0.594377
	C193	C	0.604173	0.897445	0.595005
	C194	C	0.603686	0.084892	0.395868
	C195	C	0.404142	0.896567	0.395516
	C196	C	0.604442	0.391521	0.088469
	C197	C	0.604552	0.590435	0.900959
	C198	C	0.405619	0.589930	0.088984
	C199	C	0.404516	0.391674	0.901061
	C200	C	0.098074	0.591044	0.395739
	C201	C	0.910546	0.590648	0.594672
	C202	C	0.097676	0.391542	0.594954
	C203	C	0.911083	0.391234	0.394370
	C204	C	0.905379	0.584723	0.094629
	C205	C	0.105093	0.397556	0.095092
	C206	C	0.103582	0.584922	0.896501
	C207	C	0.905716	0.397662	0.896193
	C208	C	0.104191	0.891543	0.589083
	C209	C	0.103224	0.089800	0.401581
	C210	C	0.905446	0.090688	0.588201
	C211	C	0.904501	0.892084	0.401344
	C212	C	0.597582	0.090325	0.895678
	C213	C	0.411036	0.090353	0.094378
	C214	C	0.598485	0.890165	0.095793
	C215	C	0.410514	0.890487	0.895070
	Zn216	Zn	0.503627	-0.008767	0.744974
	Zn217	Zn	0.504145	-0.009960	0.245498
	Zn218	Zn	0.755343	0.490834	-0.004917
	Zn219	Zn	0.254437	0.491152	-0.004596
	Zn220	Zn	0.004386	0.741073	0.495239
	Zn221	Zn	0.004381	0.240791	0.494736
	Zn222	Zn	0.004650	0.491225	0.745591
	Zn223	Zn	0.005348	0.491237	0.245279
	Zn224	Zn	0.504410	0.740380	-0.004736
	Zn225	Zn	0.504750	0.240986	-0.005423
	Zn226	Zn	0.754322	-0.008512	0.494846
	Zn227	Zn	0.254007	-0.009207	0.495095
	N228	N	0.419031	0.953661	0.672922
	N229	N	0.589344	0.028970	0.673647
	N230	N	0.588578	0.952953	0.317960
	N231	N	0.419209	0.028320	0.317151
	N232	N	0.683346	0.405374	0.957493
	N233	N	0.683319	0.576193	0.032109
	N234	N	0.326136	0.575875	0.957771
	N235	N	0.325717	0.404830	0.032445
	N236	N	0.966938	0.669245	0.410233
	N237	N	0.041734	0.669210	0.580602
	N238	N	0.966647	0.313100	0.579803
	N239	N	0.041712	0.312268	0.409214
	N240	N	0.966988	0.405442	0.674134
	N241	N	0.041729	0.576246	0.673669
	N242	N	0.967286	0.576855	0.316278
	N243	N	0.042797	0.405904	0.317243
	N244	N	0.419683	0.668195	0.957564
	N245	N	0.590024	0.668757	0.032614
	N246	N	0.589837	0.312701	0.957156
	N247	N	0.420120	0.313062	0.032389
	N248	N	0.682315	0.953483	0.409746
	N249	N	0.683050	0.028794	0.580959
	N250	N	0.325934	0.953932	0.580466
	N251	N	0.324598	0.027574	0.408646
	N252	N	0.920794	0.453097	0.172843
	N253	N	0.090514	0.528788	0.174001
	N254	N	0.089719	0.453758	0.817608
	N255	N	0.919033	0.528586	0.816734
	N256	N	0.182470	0.905219	0.457975
	N257	N	0.182637	0.076359	0.532576
	N258	N	0.825741	0.076830	0.457269
	N259	N	0.825780	0.905624	0.532597
	N260	N	0.467019	0.169654	0.909162
	N261	N	0.541940	0.169094	0.080258
	N262	N	0.467219	0.811863	0.080588
	N263	N	0.541691	0.812393	0.910110
	N264	N	0.466884	0.904745	0.173647
	N265	N	0.541805	0.075499	0.173536
	N266	N	0.466488	0.075616	0.817324
	N267	N	0.541442	0.905253	0.816349
	N268	N	0.918723	0.169829	0.457090
	N269	N	0.089594	0.169168	0.532483
	N270	N	0.089354	0.812500	0.457738
	N271	N	0.919512	0.813407	0.532535
	N272	N	0.182723	0.453938	0.910369
	N273	N	0.184041	0.528733	0.081686
	N274	N	0.825980	0.453609	0.081340
	N275	N	0.826568	0.528508	0.909908
	O276	O	0.946147	0.090268	0.975700
	H277	H	0.940190	0.084936	0.974191
	H278	H	0.947322	0.083371	0.973354
	O279	O	-0.054651	1.050649	0.961106
	H280	H	-0.053269	1.055694	0.962992
	H281	H	-0.053962	1.052688	0.959584
	O282	O	0.962384	1.075365	-0.033724
	H283	H	0.968289	1.078995	-0.036175
	H284	H	0.955737	1.077943	-0.032019
	O285	O	-0.019990	1.109696	0.977660
	H286	H	-0.028700	1.113175	0.977443
	H287	H	-0.016863	1.112977	0.977031
