data_Molecule from HDF5

_cell_length_a		16.312702
_cell_length_b		16.176690
_cell_length_c		16.334314
_cell_angle_alpha	90.045393
_cell_angle_beta	89.743627
_cell_angle_gamma	89.927321
_symmetry_space_group_name_H-M	'P 1'
_symmetry_Int_Tables_number		1

loop_
	_symmetry_equiv_pos_as_xyz
	x,y,z

loop_
	_atom_site_label
	_atom_site_type_symbol
	_atom_site_fract_x
	_atom_site_fract_y
	_atom_site_fract_z
	H0	H	0.400646	0.850837	0.715845
	H1	H	0.597916	0.179713	0.712680
	H2	H	0.601551	0.851167	0.284169
	H3	H	0.402524	0.179197	0.287160
	H4	H	0.721044	0.414168	0.839099
	H5	H	0.714895	0.613772	0.163835
	H6	H	0.285614	0.616030	0.838440
	H7	H	0.287315	0.416349	0.163927
	H8	H	0.837550	0.727843	0.405127
	H9	H	0.165572	0.729975	0.598861
	H10	H	0.838120	0.301175	0.600082
	H11	H	0.165038	0.300373	0.402230
	H12	H	0.840035	0.413760	0.719497
	H13	H	0.165098	0.614881	0.716312
	H14	H	0.838617	0.615074	0.285535
	H15	H	0.163276	0.412917	0.282775
	H16	H	0.403770	0.728758	0.836194
	H17	H	0.597896	0.729895	0.163292
	H18	H	0.602541	0.300436	0.837077
	H19	H	0.406294	0.302689	0.164706
	H20	H	0.716528	0.849629	0.399145
	H21	H	0.715503	0.178523	0.598736
	H22	H	0.285952	0.849920	0.599335
	H23	H	0.287484	0.178676	0.401984
	H24	H	0.903200	0.350116	0.216136
	H25	H	0.098379	0.679358	0.214781
	H26	H	0.105693	0.351327	0.784166
	H27	H	0.903261	0.678399	0.787666
	H28	H	0.217836	0.913091	0.336720
	H29	H	0.214997	0.113757	0.662971
	H30	H	0.786826	0.114239	0.336895
	H31	H	0.783787	0.914149	0.661937
	H32	H	0.337813	0.228781	0.905127
	H33	H	0.667330	0.227274	0.095812
	H34	H	0.338364	0.800590	0.098673
	H35	H	0.664945	0.800790	0.900273
	H36	H	0.339186	0.914665	0.217225
	H37	H	0.665109	0.114886	0.215730
	H38	H	0.338882	0.116757	0.785395
	H39	H	0.663279	0.913564	0.781351
	H40	H	0.903878	0.229866	0.337078
	H41	H	0.098028	0.228337	0.663997
	H42	H	0.100354	0.798273	0.336735
	H43	H	0.903222	0.801694	0.664174
	H44	H	0.216634	0.350098	0.903459
	H45	H	0.215892	0.679233	0.101041
	H46	H	0.787985	0.349542	0.100143
	H47	H	0.788029	0.678366	0.902592
	H48	H	0.398971	0.130813	0.583381
	H49	H	0.594346	0.899179	0.584815
	H50	H	0.589857	0.130834	0.404289
	H51	H	0.405212	0.898481	0.416772
	H52	H	0.587167	0.423180	0.114037
	H53	H	0.599408	0.605659	0.884226
	H54	H	0.411575	0.609355	0.115510
	H55	H	0.409751	0.422303	0.884836
	H56	H	0.115301	0.602833	0.410697
	H57	H	0.888475	0.597439	0.597251
	H58	H	0.118850	0.420964	0.594485
	H59	H	0.884632	0.426680	0.400466
	H60	H	0.118239	0.422207	0.593511
	H61	H	0.882374	0.611484	0.604166
	H62	H	0.118862	0.604693	0.401886
	H63	H	0.883307	0.413839	0.410838
	H64	H	0.406052	0.609833	0.117740
	H65	H	0.594294	0.606059	0.885134
	H66	H	0.597015	0.412500	0.119881
	H67	H	0.408375	0.421642	0.884326
	H68	H	0.592582	0.130152	0.413160
	H69	H	0.598277	0.894167	0.595823
	H70	H	0.402338	0.136360	0.604464
	H71	H	0.403632	0.893432	0.399871
	H72	H	0.918981	0.625599	0.085241
	H73	H	0.098429	0.396047	0.097037
	H74	H	0.095644	0.635031	0.899530
	H75	H	0.908359	0.398719	0.918303
	H76	H	0.100317	0.926516	0.616170
	H77	H	0.083886	0.101445	0.388682
	H78	H	0.900125	0.104655	0.617760
	H79	H	0.911777	0.916806	0.383608
	H80	H	0.618885	0.108150	0.903159
	H81	H	0.382775	0.111405	0.103897
	H82	H	0.622075	0.918970	0.103682
	H83	H	0.384643	0.923643	0.903052
	H84	H	0.617375	0.915183	0.083754
	H85	H	0.385467	0.115523	0.088504
	H86	H	0.617504	0.108384	0.907546
	H87	H	0.384626	0.919365	0.909862
	H88	H	0.911875	0.101309	0.612804
	H89	H	0.095635	0.119245	0.380153
	H90	H	0.088857	0.925741	0.612838
	H91	H	0.903850	0.920114	0.382094
	H92	H	0.084629	0.627697	0.912073
	H93	H	0.091405	0.397902	0.095063
	H94	H	0.893456	0.634645	0.090072
	H95	H	0.907325	0.393556	0.902979
	H96	H	0.418923	0.128039	0.591953
	H97	H	0.586795	0.898867	0.594513
	H98	H	0.599000	0.133175	0.406545
	H99	H	0.419482	0.898811	0.406147
	H100	H	0.602256	0.427053	0.116751
	H101	H	0.597424	0.609271	0.882897
	H102	H	0.408138	0.605358	0.115192
	H103	H	0.408605	0.423911	0.884701
	H104	H	0.118744	0.611373	0.407955
	H105	H	0.887171	0.611400	0.588132
	H106	H	0.117974	0.422276	0.595358
	H107	H	0.888816	0.428455	0.415796
	H108	H	0.911950	0.634703	0.109829
	H109	H	0.097037	0.397522	0.090175
	H110	H	0.102114	0.631759	0.916482
	H111	H	0.921040	0.400147	0.909359
	H112	H	0.094273	0.915014	0.617762
	H113	H	0.105559	0.099300	0.383144
	H114	H	0.909201	0.113578	0.617377
	H115	H	0.910493	0.925461	0.385547
	H116	H	0.617389	0.104319	0.905022
	H117	H	0.389215	0.100286	0.093603
	H118	H	0.613766	0.934069	0.091282
	H119	H	0.387417	0.926682	0.910151
	C120	C	0.378467	0.023038	0.621979
	C121	C	0.622077	1.005937	0.620501
	C122	C	0.623007	0.023076	0.378727
	C123	C	0.380741	1.006005	0.379310
	C124	C	0.624712	0.392538	0.009265
	C125	C	0.624468	0.636668	0.991779
	C126	C	0.379745	0.636930	0.008475
	C127	C	0.380912	0.393818	0.992520
	C128	C	0.009591	0.635520	0.379191
	C129	C	0.993829	0.636367	0.624029
	C130	C	0.010501	0.392734	0.623607
	C131	C	0.992946	0.393145	0.379339
	C132	C	0.879892	0.522765	0.123483
	C133	C	0.123407	0.506046	0.122973
	C134	C	0.124102	0.523404	0.879909
	C135	C	0.882608	0.505895	0.881026
	C136	C	0.123438	0.892514	0.507867
	C137	C	0.122873	0.135742	0.491963
	C138	C	0.878875	0.136245	0.508327
	C139	C	0.879947	0.893080	0.491832
	C140	C	0.510153	0.136650	0.878114
	C141	C	0.494045	0.137104	0.122820
	C142	C	0.510128	0.893670	0.121682
	C143	C	0.492854	0.893609	0.877831
	C144	C	0.380200	0.899720	0.677985
	C145	C	0.618832	0.130360	0.675257
	C146	C	0.621491	0.899656	0.322743
	C147	C	0.382672	0.129930	0.324645
	C148	C	0.681727	0.394256	0.886994
	C149	C	0.677485	0.633930	0.114903
	C150	C	0.323654	0.635888	0.886691
	C151	C	0.325469	0.396156	0.115227
	C152	C	0.886470	0.690414	0.383288
	C153	C	0.116601	0.692155	0.619851
	C154	C	0.887475	0.338017	0.621068
	C155	C	0.115851	0.337625	0.381154
	C156	C	0.888373	0.394142	0.680553
	C157	C	0.116417	0.635298	0.678619
	C158	C	0.887121	0.634491	0.324038
	C159	C	0.115150	0.393707	0.322242
	C160	C	0.382766	0.691721	0.885437
	C161	C	0.619338	0.691643	0.114647
	C162	C	0.623226	0.337516	0.886230
	C163	C	0.384803	0.339551	0.115575
	C164	C	0.678853	0.899165	0.379651
	C165	C	0.677331	0.129733	0.618685
	C166	C	0.323273	0.899304	0.620043
	C167	C	0.325658	0.129758	0.382044
	C168	C	0.882617	0.399069	0.178354
	C169	C	0.119412	0.630102	0.177329
	C170	C	0.124152	0.400026	0.823218
	C171	C	0.883224	0.629188	0.825393
	C172	C	0.179755	0.893159	0.385455
	C173	C	0.177209	0.133645	0.614576
	C174	C	0.824010	0.134619	0.385774
	C175	C	0.822887	0.894451	0.613846
	C176	C	0.387062	0.191933	0.882983
	C177	C	0.617794	0.190576	0.117883
	C178	C	0.387310	0.838389	0.119382
	C179	C	0.615753	0.837714	0.879168
	C180	C	0.387857	0.895007	0.178328
	C181	C	0.616789	0.134708	0.177485
	C182	C	0.387442	0.136063	0.823505
	C183	C	0.614923	0.894080	0.820152
	C184	C	0.882436	0.192016	0.385781
	C185	C	0.119089	0.190983	0.614863
	C186	C	0.120936	0.836296	0.385361
	C187	C	0.882503	0.838794	0.615046
	C188	C	0.179901	0.399698	0.881933
	C189	C	0.177704	0.630120	0.120761
	C190	C	0.825443	0.398917	0.120680
	C191	C	0.826154	0.629216	0.882861
	C192	C	0.400415	0.109401	0.599738
	C193	C	0.599652	0.919839	0.598310
	C194	C	0.600563	0.109057	0.401429
	C195	C	0.402933	0.919365	0.401192
	C196	C	0.602141	0.414509	0.094688
	C197	C	0.603108	0.613887	0.906205
	C198	C	0.402018	0.614709	0.093986
	C199	C	0.402544	0.416056	0.906668
	C200	C	0.095301	0.612763	0.400481
	C201	C	0.908262	0.613672	0.602692
	C202	C	0.096017	0.415092	0.601065
	C203	C	0.907734	0.416286	0.402255
	C204	C	0.901812	0.609308	0.101490
	C205	C	0.101943	0.419450	0.100734
	C206	C	0.100799	0.609319	0.902657
	C207	C	0.905576	0.419897	0.903730
	C208	C	0.100960	0.915490	0.593466
	C209	C	0.101408	0.113205	0.406153
	C210	C	0.900566	0.113410	0.594003
	C211	C	0.902113	0.914519	0.405982
	C212	C	0.595876	0.113744	0.899055
	C213	C	0.408077	0.115221	0.101738
	C214	C	0.595757	0.916103	0.099408
	C215	C	0.407638	0.916487	0.900930
	Zn216	Zn	0.500613	0.015104	0.749019
	Zn217	Zn	0.501553	0.015042	0.251143
	Zn218	Zn	0.753182	0.514289	0.001316
	Zn219	Zn	0.251420	0.515310	0.000977
	Zn220	Zn	0.001091	0.763805	0.500909
	Zn221	Zn	0.001413	0.264958	0.500587
	Zn222	Zn	0.002775	0.514580	0.752309
	Zn223	Zn	0.001328	0.514310	0.250597
	Zn224	Zn	0.501648	0.765105	-0.000863
	Zn225	Zn	0.502739	0.264465	-0.000096
	Zn226	Zn	0.750487	0.013869	0.499254
	Zn227	Zn	0.251765	0.014172	0.499708
	N228	N	0.413648	0.977796	0.679495
	N229	N	0.585014	0.052377	0.676465
	N230	N	0.587265	0.977492	0.321989
	N231	N	0.416327	0.051827	0.322841
	N232	N	0.682975	0.427592	0.964353
	N233	N	0.680813	0.600494	0.037431
	N234	N	0.321752	0.602615	0.964081
	N235	N	0.323182	0.429268	0.037757
	N236	N	0.963509	0.691119	0.416949
	N237	N	0.039270	0.692791	0.586534
	N238	N	0.964392	0.336968	0.586373
	N239	N	0.038860	0.337130	0.415987
	N240	N	0.965984	0.427519	0.682169
	N241	N	0.039293	0.601062	0.681113
	N242	N	0.964803	0.601269	0.321367
	N243	N	0.037821	0.427649	0.321095
	N244	N	0.416916	0.692797	0.962281
	N245	N	0.587100	0.693435	0.036978
	N246	N	0.588182	0.336471	0.963009
	N247	N	0.418462	0.337942	0.038107
	N248	N	0.679865	0.976986	0.413669
	N249	N	0.679400	0.051669	0.585337
	N250	N	0.322113	0.977056	0.586054
	N251	N	0.324208	0.051606	0.414942
	N252	N	0.915819	0.477265	0.180028
	N253	N	0.086470	0.551927	0.178935
	N254	N	0.090295	0.478141	0.821522
	N255	N	0.917576	0.551594	0.824217
	N256	N	0.181280	0.927416	0.462610
	N257	N	0.179837	0.100166	0.537028
	N258	N	0.821741	0.100623	0.463064
	N259	N	0.821337	0.927538	0.536307
	N260	N	0.464454	0.192304	0.916058
	N261	N	0.540637	0.192204	0.084529
	N262	N	0.464315	0.837267	0.084879
	N263	N	0.539041	0.837621	0.914651
	N264	N	0.465190	0.929025	0.179549
	N265	N	0.538798	0.102256	0.180777
	N266	N	0.464787	0.102316	0.820481
	N267	N	0.537547	0.928066	0.819158
	N268	N	0.915875	0.192943	0.462907
	N269	N	0.086281	0.192363	0.537420
	N270	N	0.086678	0.835745	0.462491
	N271	N	0.917151	0.837573	0.538078
	N272	N	0.179809	0.477135	0.916574
	N273	N	0.180282	0.551958	0.087509
	N274	N	0.823610	0.476845	0.087438
	N275	N	0.825419	0.551425	0.916730
	O276	O	0.010953	0.014328	0.041175
	H277	H	0.010552	0.022568	0.037200
	H278	H	0.010521	0.013731	0.044117
	O279	O	0.478978	0.480715	0.585623
	H280	H	0.473332	0.475948	0.573779
	H281	H	0.486232	0.474166	0.585438
	O282	O	0.510805	0.549185	0.589018
	H283	H	0.520088	0.539584	0.584171
	H284	H	0.504449	0.549288	0.593843
	O285	O	1.003360	0.086153	0.881646
	H286	H	1.003671	0.066436	0.876295
	H287	H	0.987173	0.094752	0.883233
	O288	O	1.029832	-0.109196	0.022754
	H289	H	1.039150	-0.108502	0.032824
	H290	H	1.042682	-0.112920	0.014446
	O291	O	0.468664	0.487673	0.498022
	H292	H	0.465280	0.485558	0.504444
	H293	H	0.468720	0.481989	0.496916
	O294	O	1.047809	0.062755	1.001424
	H295	H	1.037136	0.059144	1.000383
	H296	H	1.056920	0.066246	1.005083
	O297	O	0.029282	-0.055178	-0.065323
	H298	H	0.030984	-0.054627	-0.064735
	H299	H	0.027343	-0.056619	-0.068186
	O300	O	1.072856	0.068459	0.000535
	H301	H	1.073887	0.064794	0.001385
	H302	H	1.056500	0.067449	-0.003635
	O303	O	0.476043	0.513861	0.554012
	H304	H	0.480539	0.516973	0.561447
	H305	H	0.476155	0.506898	0.560662
	O306	O	0.950167	-0.018996	0.000385
	H307	H	0.949685	-0.010891	0.004631
	H308	H	0.954371	-0.018433	-0.000873
	O309	O	0.004402	0.048931	1.028996
	H310	H	-0.002441	0.046125	1.026744
	H311	H	0.005185	0.045400	1.007593
	O312	O	0.922883	0.961545	1.062568
	H313	H	0.908871	0.955817	1.066599
	H314	H	0.927579	0.961280	1.074267
	O315	O	0.485210	0.486207	0.397598
	H316	H	0.468809	0.490522	0.398390
	H317	H	0.476499	0.478972	0.394201
	O318	O	0.063951	0.055417	-0.092132
	H319	H	0.057955	0.054951	-0.094785
	H320	H	0.075398	0.053144	-0.104022
	O321	O	-0.070863	1.085617	0.949303
	H322	H	-0.064471	1.079096	0.954058
	H323	H	-0.072878	1.087898	0.939889
	O324	O	0.449674	0.429885	0.538182
	H325	H	0.458187	0.420794	0.529350
	H326	H	0.447392	0.432749	0.543551
	O327	O	0.574650	0.483912	0.433735
	H328	H	0.589302	0.477450	0.432092
	H329	H	0.566993	0.493011	0.429172
	O330	O	0.534590	0.476913	0.536053
	H331	H	0.548108	0.469447	0.534344
	H332	H	0.538794	0.480708	0.529069
	O333	O	0.630060	0.544413	0.496382
	H334	H	0.629881	0.535847	0.487912
	H335	H	0.626290	0.539603	0.493918
	O336	O	0.430568	0.545503	0.508372
	H337	H	0.421865	0.562193	0.502134
	H338	H	0.439166	0.547603	0.506470
	O339	O	1.073176	0.933097	-0.031474
	H340	H	1.083388	0.925217	-0.043700
	H341	H	1.075290	0.926143	-0.040914
	O342	O	0.482649	0.584031	0.507819
	H343	H	0.483499	0.576954	0.502752
	H344	H	0.479837	0.594925	0.502103
	O345	O	0.936938	-0.015056	1.042144
	H346	H	0.937570	0.001490	1.052857
	H347	H	0.940376	-0.013003	1.044048
	O348	O	0.061201	-0.020594	0.079226
	H349	H	0.074137	-0.018194	0.074049
	H350	H	0.057218	-0.007557	0.091987
	O351	O	-0.070164	1.049596	0.931142
	H352	H	-0.069347	1.045051	0.929583
	H353	H	-0.075896	1.053108	0.933673
	O354	O	0.455683	0.514380	0.428121
	H355	H	0.444621	0.515409	0.436298
	H356	H	0.448943	0.523020	0.425098
	O357	O	0.050437	0.859987	0.945455
	H358	H	0.041311	0.861237	0.953033
	H359	H	0.045773	0.851541	0.944786
