data_Molecule from HDF5

_cell_length_a		16.254585
_cell_length_b		16.275981
_cell_length_c		16.263538
_cell_angle_alpha	89.836805
_cell_angle_beta	90.005123
_cell_angle_gamma	89.491365
_symmetry_space_group_name_H-M	'P 1'
_symmetry_Int_Tables_number		1

loop_
	_symmetry_equiv_pos_as_xyz
	x,y,z

loop_
	_atom_site_label
	_atom_site_type_symbol
	_atom_site_fract_x
	_atom_site_fract_y
	_atom_site_fract_z
	H0	H	0.393027	0.834915	0.709406
	H1	H	0.588886	0.162066	0.713166
	H2	H	0.590910	0.835374	0.281786
	H3	H	0.388569	0.162451	0.278107
	H4	H	0.705996	0.397213	0.831583
	H5	H	0.704745	0.597382	0.157152
	H6	H	0.273101	0.599808	0.831404
	H7	H	0.273897	0.399321	0.158739
	H8	H	0.826899	0.719564	0.393203
	H9	H	0.154227	0.713392	0.592048
	H10	H	0.825085	0.286774	0.594622
	H11	H	0.152673	0.283151	0.394752
	H12	H	0.825148	0.404576	0.708299
	H13	H	0.153143	0.599704	0.709007
	H14	H	0.826375	0.604165	0.278829
	H15	H	0.153614	0.401505	0.280089
	H16	H	0.386356	0.716330	0.832862
	H17	H	0.587090	0.710517	0.159159
	H18	H	0.589951	0.282314	0.831329
	H19	H	0.392058	0.284850	0.159530
	H20	H	0.707037	0.836623	0.397592
	H21	H	0.701196	0.164823	0.593991
	H22	H	0.275785	0.836030	0.594748
	H23	H	0.273731	0.163442	0.395217
	H24	H	0.890309	0.338750	0.213901
	H25	H	0.088102	0.664700	0.209102
	H26	H	0.089255	0.336409	0.779385
	H27	H	0.887721	0.663819	0.778378
	H28	H	0.206843	0.901351	0.331369
	H29	H	0.203648	0.098119	0.658544
	H30	H	0.773663	0.101756	0.331586
	H31	H	0.776256	0.902872	0.658981
	H32	H	0.326387	0.216109	0.894880
	H33	H	0.653214	0.211835	0.095435
	H34	H	0.323927	0.785366	0.095411
	H35	H	0.651334	0.780867	0.896848
	H36	H	0.325639	0.901026	0.211233
	H37	H	0.653229	0.095092	0.209196
	H38	H	0.325934	0.098921	0.781207
	H39	H	0.652014	0.895690	0.780005
	H40	H	0.889014	0.216529	0.331482
	H41	H	0.086990	0.212943	0.659034
	H42	H	0.089523	0.786660	0.330434
	H43	H	0.889992	0.784887	0.657628
	H44	H	0.203609	0.335201	0.897329
	H45	H	0.204004	0.663226	0.093525
	H46	H	0.778044	0.335232	0.095133
	H47	H	0.769709	0.661834	0.893314
	H48	H	0.392346	0.119800	0.596530
	H49	H	0.583020	0.886317	0.581777
	H50	H	0.576345	0.115903	0.396748
	H51	H	0.393113	0.878539	0.394496
	H52	H	0.578522	0.407159	0.108823
	H53	H	0.581526	0.589080	0.878392
	H54	H	0.388534	0.596756	0.115474
	H55	H	0.398210	0.409389	0.880331
	H56	H	0.109552	0.597544	0.395028
	H57	H	0.872287	0.604096	0.579667
	H58	H	0.107356	0.405599	0.589324
	H59	H	0.871789	0.406417	0.401073
	H60	H	0.105571	0.404037	0.585741
	H61	H	0.877494	0.585696	0.581180
	H62	H	0.105713	0.597279	0.408228
	H63	H	0.875366	0.410029	0.409224
	H64	H	0.393268	0.582850	0.109974
	H65	H	0.577796	0.587625	0.880232
	H66	H	0.583069	0.397913	0.112653
	H67	H	0.399375	0.402829	0.879064
	H68	H	0.579644	0.114365	0.406214
	H69	H	0.590653	0.882029	0.589330
	H70	H	0.404107	0.113452	0.588507
	H71	H	0.409359	0.885562	0.401666
	H72	H	0.893784	0.615391	0.083068
	H73	H	0.077880	0.386805	0.082300
	H74	H	0.081989	0.615419	0.905762
	H75	H	0.904532	0.388472	0.910528
	H76	H	0.079245	0.915721	0.607472
	H77	H	0.075040	0.092457	0.380125
	H78	H	0.902328	0.089308	0.608432
	H79	H	0.889728	0.914950	0.377270
	H80	H	0.605118	0.083101	0.903617
	H81	H	0.373313	0.092455	0.084049
	H82	H	0.607136	0.905341	0.095569
	H83	H	0.371279	0.905631	0.901390
	H84	H	0.607056	0.894680	0.087726
	H85	H	0.374159	0.089127	0.087557
	H86	H	0.607573	0.091780	0.899139
	H87	H	0.372469	0.906919	0.903790
	H88	H	0.896854	0.102944	0.614213
	H89	H	0.084708	0.098754	0.375961
	H90	H	0.076576	0.898089	0.611917
	H91	H	0.905323	0.916522	0.382848
	H92	H	0.085564	0.618727	0.898000
	H93	H	0.088932	0.382670	0.087910
	H94	H	0.894718	0.616921	0.087510
	H95	H	0.888561	0.380239	0.901988
	H96	H	0.389758	0.114939	0.581610
	H97	H	0.579783	0.883105	0.593259
	H98	H	0.586520	0.118330	0.398781
	H99	H	0.393675	0.884850	0.413006
	H100	H	0.589956	0.407270	0.111948
	H101	H	0.578101	0.591393	0.878144
	H102	H	0.402964	0.594239	0.110113
	H103	H	0.392809	0.405896	0.877098
	H104	H	0.104728	0.586596	0.400388
	H105	H	0.870046	0.594901	0.596471
	H106	H	0.104986	0.407916	0.586454
	H107	H	0.874300	0.415802	0.401292
	H108	H	0.898795	0.615292	0.084408
	H109	H	0.077908	0.384055	0.095142
	H110	H	0.076826	0.615723	0.899163
	H111	H	0.904635	0.382773	0.891499
	H112	H	0.093142	0.905836	0.613500
	H113	H	0.085690	0.086174	0.378921
	H114	H	0.887338	0.090702	0.613557
	H115	H	0.899787	0.902164	0.376467
	H116	H	0.605201	0.091615	0.908533
	H117	H	0.372346	0.092656	0.088320
	H118	H	0.602671	0.906275	0.082462
	H119	H	0.372098	0.908090	0.901689
	C120	C	0.368093	0.007571	0.616919
	C121	C	0.611861	0.991708	0.617196
	C122	C	0.611446	0.008109	0.372900
	C123	C	0.368571	0.991190	0.373610
	C124	C	0.612978	0.374908	0.003404
	C125	C	0.608596	0.618239	0.986675
	C126	C	0.366113	0.620834	0.003840
	C127	C	0.368194	0.377271	0.987011
	C128	C	-0.001345	0.623990	0.372048
	C129	C	0.981442	0.622803	0.614830
	C130	C	-0.002320	0.378287	0.616377
	C131	C	0.981313	0.380153	0.373823
	C132	C	0.867597	0.508498	0.116024
	C133	C	0.110249	0.492374	0.116591
	C134	C	0.110886	0.508257	0.872650
	C135	C	0.867758	0.491418	0.871912
	C136	C	0.112041	0.878655	0.502942
	C137	C	0.110658	0.121288	0.486581
	C138	C	0.866631	0.123544	0.503741
	C139	C	0.869266	0.881043	0.486765
	C140	C	0.498066	0.119465	0.874402
	C141	C	0.481064	0.119629	0.116303
	C142	C	0.497013	0.875399	0.117587
	C143	C	0.480153	0.876585	0.873992
	C144	C	0.372005	0.884148	0.671921
	C145	C	0.608784	0.113890	0.673905
	C146	C	0.610520	0.884520	0.319374
	C147	C	0.368940	0.113809	0.316625
	C148	C	0.668699	0.376569	0.880594
	C149	C	0.665615	0.616793	0.108898
	C150	C	0.310627	0.619686	0.880531
	C151	C	0.312241	0.379041	0.110001
	C152	C	0.875776	0.681090	0.373317
	C153	C	0.104976	0.676609	0.612763
	C154	C	0.874356	0.324403	0.614542
	C155	C	0.104105	0.322497	0.374941
	C156	C	0.874219	0.382992	0.671121
	C157	C	0.104427	0.620020	0.671003
	C158	C	0.875512	0.623794	0.316315
	C159	C	0.104511	0.381246	0.318023
	C160	C	0.367444	0.677249	0.881052
	C161	C	0.607136	0.673285	0.109849
	C162	C	0.610490	0.319771	0.880431
	C163	C	0.371136	0.322341	0.110405
	C164	C	0.668739	0.885457	0.376544
	C165	C	0.664796	0.115245	0.614735
	C166	C	0.313692	0.884691	0.614861
	C167	C	0.312132	0.114462	0.375265
	C168	C	0.870350	0.386649	0.174404
	C169	C	0.107939	0.615612	0.171111
	C170	C	0.109263	0.385163	0.817469
	C171	C	0.868015	0.614654	0.816340
	C172	C	0.168314	0.881061	0.379845
	C173	C	0.165761	0.118252	0.609682
	C174	C	0.811166	0.122241	0.380571
	C175	C	0.813741	0.882347	0.610000
	C176	C	0.375107	0.176986	0.875362
	C177	C	0.604386	0.173828	0.114943
	C178	C	0.373395	0.822216	0.115491
	C179	C	0.602821	0.819331	0.876344
	C180	C	0.374142	0.880028	0.172903
	C181	C	0.604325	0.115747	0.171415
	C182	C	0.374826	0.118631	0.818844
	C183	C	0.603237	0.876686	0.818495
	C184	C	0.868298	0.179639	0.380728
	C185	C	0.107861	0.175407	0.609839
	C186	C	0.109855	0.824293	0.379372
	C187	C	0.870724	0.823855	0.609293
	C188	C	0.166283	0.384542	0.875808
	C189	C	0.165713	0.614858	0.113802
	C190	C	0.814261	0.385076	0.115287
	C191	C	0.809421	0.613685	0.873664
	C192	C	0.389230	0.093796	0.595324
	C193	C	0.590706	0.905862	0.594560
	C194	C	0.587597	0.093957	0.394096
	C195	C	0.391734	0.905349	0.396337
	C196	C	0.590341	0.397433	0.089133
	C197	C	0.585779	0.595888	0.901021
	C198	C	0.388292	0.597978	0.089800
	C199	C	0.390200	0.399432	0.901022
	C200	C	0.084465	0.600509	0.394518
	C201	C	0.895599	0.601197	0.592450
	C202	C	0.083703	0.399596	0.593867
	C203	C	0.896147	0.403781	0.397175
	C204	C	0.889367	0.593796	0.092083
	C205	C	0.088070	0.406689	0.095030
	C206	C	0.088244	0.594210	0.894629
	C207	C	0.892215	0.405916	0.894588
	C208	C	0.089548	0.900371	0.588802
	C209	C	0.088396	0.099006	0.400475
	C210	C	0.888920	0.100867	0.589739
	C211	C	0.891805	0.904383	0.401071
	C212	C	0.583655	0.095943	0.897207
	C213	C	0.395340	0.097870	0.093349
	C214	C	0.583365	0.896034	0.095159
	C215	C	0.394219	0.900100	0.895904
	Zn216	Zn	0.489501	-0.001364	0.745727
	Zn217	Zn	0.489630	-0.001603	0.244556
	Zn218	Zn	0.739285	0.497883	-0.005762
	Zn219	Zn	0.239060	0.499416	-0.005385
	Zn220	Zn	-0.010011	0.751035	0.494111
	Zn221	Zn	-0.010957	0.250095	0.494832
	Zn222	Zn	-0.010124	0.500934	0.743602
	Zn223	Zn	-0.011139	0.502109	0.245282
	Zn224	Zn	0.487688	0.747925	-0.004311
	Zn225	Zn	0.490283	0.248074	-0.004462
	Zn226	Zn	0.739590	0.001833	0.494897
	Zn227	Zn	0.240075	0.000134	0.495039
	N228	N	0.405206	0.961571	0.673200
	N229	N	0.576488	0.035990	0.675592
	N230	N	0.575711	0.961849	0.316890
	N231	N	0.403513	0.036331	0.315728
	N232	N	0.670173	0.410125	0.957992
	N233	N	0.666773	0.583252	0.031339
	N234	N	0.309757	0.585025	0.957833
	N235	N	0.310342	0.412638	0.032164
	N236	N	0.953447	0.681490	0.407197
	N237	N	0.027396	0.678636	0.578725
	N238	N	0.952171	0.321188	0.581492
	N239	N	0.026682	0.321621	0.408821
	N240	N	0.952069	0.415743	0.672478
	N241	N	0.026628	0.587247	0.672429
	N242	N	0.952793	0.588841	0.315558
	N243	N	0.027087	0.416361	0.317032
	N244	N	0.401073	0.677946	0.958665
	N245	N	0.572150	0.674146	0.032969
	N246	N	0.576831	0.318486	0.958075
	N247	N	0.405307	0.321125	0.033014
	N248	N	0.669403	0.963327	0.409068
	N249	N	0.666732	0.038289	0.580052
	N250	N	0.311176	0.962352	0.581392
	N251	N	0.311842	0.037279	0.409976
	N252	N	0.902679	0.464463	0.175085
	N253	N	0.074102	0.538455	0.172908
	N254	N	0.075711	0.463085	0.815157
	N255	N	0.903628	0.537747	0.815378
	N256	N	0.169971	0.913971	0.457613
	N257	N	0.167634	0.085430	0.531771
	N258	N	0.809813	0.088376	0.458196
	N259	N	0.812639	0.917205	0.532847
	N260	N	0.452634	0.177601	0.909297
	N261	N	0.526762	0.176258	0.081304
	N262	N	0.451011	0.819261	0.081732
	N263	N	0.525237	0.819276	0.910151
	N264	N	0.452006	0.912196	0.174233
	N265	N	0.526656	0.082740	0.172259
	N266	N	0.452157	0.083505	0.818150
	N267	N	0.525937	0.911576	0.816849
	N268	N	0.901977	0.180611	0.458391
	N269	N	0.074324	0.177421	0.532096
	N270	N	0.075766	0.822559	0.456813
	N271	N	0.904440	0.823023	0.531734
	N272	N	0.167230	0.462067	0.909427
	N273	N	0.167181	0.537340	0.080404
	N274	N	0.812552	0.461728	0.079771
	N275	N	0.809194	0.535961	0.907380
	O276	O	0.013146	-0.004742	0.028337
	H277	H	0.015677	-0.002766	0.028236
	H278	H	0.017504	-0.002913	0.018131
	O279	O	0.916076	1.045904	0.019394
	H280	H	0.916331	1.050519	0.021072
	H281	H	0.911982	1.047520	0.022748
	O282	O	0.475301	0.468320	0.476597
	H283	H	0.473064	0.459911	0.470943
	H284	H	0.479880	0.465159	0.476660
	O285	O	0.038836	1.045051	0.917924
	H286	H	0.035031	1.050580	0.931932
	H287	H	0.039713	1.048692	0.900075
	O288	O	0.443762	0.525889	0.479359
	H289	H	0.433279	0.523762	0.474252
	H290	H	0.449932	0.528601	0.481269
	O291	O	0.919916	1.017497	0.955747
	H292	H	0.913380	1.014715	0.965478
	H293	H	0.921147	1.011671	0.958812
	O294	O	0.921383	1.043740	0.979181
	H295	H	0.915795	1.040698	0.977444
	H296	H	0.922231	1.049453	0.975077
	O297	O	0.980365	0.014546	1.060533
	H298	H	0.981168	0.013055	1.051273
	H299	H	0.978688	0.009217	1.060366
	O300	O	0.614722	0.517434	0.463353
	H301	H	0.615321	0.509227	0.449827
	H302	H	0.601074	0.520769	0.460618
	O303	O	0.957533	-0.078361	-0.037041
	H304	H	0.963943	-0.074370	-0.030398
	H305	H	0.948490	-0.083575	-0.025342
	O306	O	0.014033	0.852234	1.020990
	H307	H	0.010937	0.857609	1.022336
	H308	H	0.026759	0.849754	1.021182
	O309	O	0.540311	0.530083	0.445514
	H310	H	0.533399	0.530334	0.446683
	H311	H	0.524128	0.534340	0.447736
	O312	O	1.009392	0.089003	0.976225
	H313	H	0.998554	0.080051	0.976805
	H314	H	1.016692	0.089911	0.971713
	O315	O	0.558486	0.520463	0.398206
	H316	H	0.554627	0.502472	0.387967
	H317	H	0.567427	0.512517	0.400964
	O318	O	0.460140	0.448070	0.500795
	H319	H	0.471912	0.438539	0.502776
	H320	H	0.457705	0.451188	0.501434
	O321	O	0.959594	1.010433	0.919617
	H322	H	0.958774	1.017402	0.913811
	H323	H	0.956329	1.007804	0.914493
	O324	O	0.923483	0.987004	0.977181
	H325	H	0.924877	0.977449	0.961278
	H326	H	0.922283	0.990056	0.966113
	O327	O	0.503025	0.479956	0.499605
	H328	H	0.508932	0.487401	0.517391
	H329	H	0.500160	0.482733	0.501315
	O330	O	0.970615	-0.024173	1.010662
	H331	H	0.972397	-0.034018	1.014749
	H332	H	0.968431	-0.022356	1.024674
	O333	O	1.070867	0.994211	0.023803
	H334	H	1.067963	1.001609	0.030991
	H335	H	1.075622	1.005158	0.018069
	O336	O	0.436139	0.454881	0.491935
	H337	H	0.437172	0.462514	0.490170
	H338	H	0.426318	0.460742	0.509078
	O339	O	0.488569	0.581829	0.569334
	H340	H	0.488915	0.583067	0.568260
	H341	H	0.504252	0.587561	0.568052
	O342	O	0.032791	0.886574	0.027227
	H343	H	0.036466	0.888221	0.015041
	H344	H	0.049811	0.888746	0.025394
	O345	O	-0.053324	0.006779	0.034036
	H346	H	-0.037843	0.010475	0.036217
	H347	H	-0.062987	-0.006801	0.036271
	O348	O	0.539132	0.559112	0.523873
	H349	H	0.544920	0.561623	0.521541
	H350	H	0.551548	0.565418	0.518575
	O351	O	0.456697	0.504888	0.464674
	H352	H	0.456186	0.508875	0.456411
	H353	H	0.445745	0.492599	0.469933
	O354	O	0.424749	0.383982	0.566014
	H355	H	0.412579	0.381067	0.568249
	H356	H	0.422287	0.377019	0.564044
	O357	O	0.534267	0.538309	0.491766
	H358	H	0.533726	0.540646	0.503126
	H359	H	0.530897	0.535489	0.497890
	O360	O	0.483161	-0.598772	0.546331
	H361	H	0.489618	-0.605631	0.549192
	H362	H	0.479502	-0.602293	0.539926
	O363	O	0.488197	0.649678	0.484716
	H364	H	0.478703	0.646532	0.473114
	H365	H	0.500458	0.659853	0.479705
	O366	O	-0.009715	0.024440	0.893824
	H367	H	-0.002737	0.019773	0.908529
	H368	H	-0.028953	0.027719	0.892229
	O369	O	0.470004	0.411159	0.435952
	H370	H	0.483821	0.417058	0.434748
	H371	H	0.464483	0.420546	0.442843
