data_Molecule from HDF5

_cell_length_a		16.547166
_cell_length_b		16.527154
_cell_length_c		16.428171
_cell_angle_alpha	90.123893
_cell_angle_beta	89.844569
_cell_angle_gamma	90.057838
_symmetry_space_group_name_H-M	'P 1'
_symmetry_Int_Tables_number		1

loop_
	_symmetry_equiv_pos_as_xyz
	x,y,z

loop_
	_atom_site_label
	_atom_site_type_symbol
	_atom_site_fract_x
	_atom_site_fract_y
	_atom_site_fract_z
	H0	H	0.393344	0.847982	0.723862
	H1	H	0.601561	0.163609	0.728480
	H2	H	0.603211	0.851686	0.280927
	H3	H	0.389932	0.163662	0.284088
	H4	H	0.718110	0.398072	0.847587
	H5	H	0.712192	0.608246	0.164033
	H6	H	0.273005	0.611806	0.848703
	H7	H	0.273633	0.400527	0.164215
	H8	H	0.837920	0.724666	0.403288
	H9	H	0.151745	0.730846	0.613634
	H10	H	0.838535	0.283096	0.612924
	H11	H	0.151622	0.282359	0.396896
	H12	H	0.838527	0.399421	0.728908
	H13	H	0.152980	0.612374	0.727718
	H14	H	0.836835	0.605129	0.289741
	H15	H	0.152858	0.400464	0.282671
	H16	H	0.388381	0.728241	0.847937
	H17	H	0.598913	0.727442	0.162616
	H18	H	0.600193	0.284412	0.846359
	H19	H	0.388905	0.284109	0.162976
	H20	H	0.720682	0.852121	0.396620
	H21	H	0.718908	0.163280	0.614231
	H22	H	0.272506	0.850127	0.612506
	H23	H	0.270449	0.161567	0.396058
	H24	H	0.894529	0.348160	0.223474
	H25	H	0.098055	0.665111	0.225376
	H26	H	0.100848	0.349781	0.783396
	H27	H	0.892621	0.664969	0.787113
	H28	H	0.216954	0.901470	0.346642
	H29	H	0.216271	0.111637	0.662959
	H30	H	0.775369	0.111334	0.349213
	H31	H	0.775433	0.902367	0.663982
	H32	H	0.337903	0.226894	0.900219
	H33	H	0.651200	0.227894	0.109151
	H34	H	0.338494	0.783116	0.114233
	H35	H	0.652188	0.785967	0.900649
	H36	H	0.340115	0.898709	0.231365
	H37	H	0.652299	0.111929	0.225235
	H38	H	0.337144	0.109390	0.785509
	H39	H	0.652626	0.903386	0.785099
	H40	H	0.894259	0.224693	0.347677
	H41	H	0.101120	0.228061	0.662365
	H42	H	0.099534	0.786342	0.345961
	H43	H	0.891241	0.786846	0.664376
	H44	H	0.218590	0.350801	0.898380
	H45	H	0.217790	0.664263	0.112881
	H46	H	0.774386	0.349062	0.110406
	H47	H	0.774512	0.663611	0.901870
	H48	H	0.410185	0.117856	0.594539
	H49	H	0.586828	0.895847	0.588559
	H50	H	0.584513	0.119393	0.415840
	H51	H	0.405876	0.894050	0.417654
	H52	H	0.582152	0.412320	0.119301
	H53	H	0.582125	0.595990	0.891940
	H54	H	0.402100	0.594713	0.119939
	H55	H	0.406390	0.423794	0.895969
	H56	H	0.109774	0.599072	0.415250
	H57	H	0.881039	0.600684	0.600448
	H58	H	0.105687	0.421738	0.595234
	H59	H	0.885972	0.416654	0.421545
	H60	H	0.107905	0.414605	0.594457
	H61	H	0.885337	0.599048	0.588742
	H62	H	0.108201	0.595750	0.416802
	H63	H	0.882324	0.419466	0.411351
	H64	H	0.409038	0.591033	0.116478
	H65	H	0.586543	0.598304	0.889670
	H66	H	0.588183	0.418538	0.118314
	H67	H	0.412118	0.414559	0.893758
	H68	H	0.583377	0.117797	0.419428
	H69	H	0.589475	0.892608	0.596608
	H70	H	0.402956	0.118833	0.590151
	H71	H	0.409580	0.895024	0.417390
	H72	H	0.897884	0.620151	0.090285
	H73	H	0.083190	0.393149	0.099134
	H74	H	0.077503	0.616384	0.919059
	H75	H	0.910174	0.395393	0.918925
	H76	H	0.081120	0.924566	0.614554
	H77	H	0.089059	0.090680	0.391536
	H78	H	0.914408	0.096555	0.618187
	H79	H	0.913223	0.922175	0.396490
	H80	H	0.609365	0.098067	0.913469
	H81	H	0.382995	0.092149	0.098390
	H82	H	0.602993	0.919259	0.085247
	H83	H	0.378750	0.912563	0.910280
	H84	H	0.606136	0.923246	0.097256
	H85	H	0.381158	0.098399	0.094612
	H86	H	0.606330	0.097525	0.919666
	H87	H	0.383138	0.913059	0.923271
	H88	H	0.902259	0.100250	0.623243
	H89	H	0.079473	0.091645	0.394756
	H90	H	0.079231	0.912587	0.618074
	H91	H	0.909721	0.907298	0.390334
	H92	H	0.089206	0.618460	0.923476
	H93	H	0.080476	0.397724	0.090796
	H94	H	0.899215	0.623933	0.104133
	H95	H	0.903457	0.394663	0.920536
	H96	H	0.403216	0.120639	0.598500
	H97	H	0.580569	0.895226	0.595425
	H98	H	0.587227	0.119163	0.419410
	H99	H	0.407700	0.896229	0.420321
	H100	H	0.580191	0.420209	0.115624
	H101	H	0.586841	0.593115	0.891371
	H102	H	0.409456	0.599080	0.119034
	H103	H	0.401497	0.415397	0.890650
	H104	H	0.109926	0.596124	0.413286
	H105	H	0.885453	0.589420	0.596773
	H106	H	0.105116	0.417923	0.588327
	H107	H	0.881198	0.409119	0.415378
	H108	H	0.910467	0.618334	0.097599
	H109	H	0.089439	0.394114	0.091160
	H110	H	0.085850	0.621458	0.911509
	H111	H	0.905528	0.392804	0.914213
	H112	H	0.090157	0.918203	0.620396
	H113	H	0.084471	0.099282	0.390141
	H114	H	0.904753	0.087392	0.618741
	H115	H	0.897953	0.919067	0.390597
	H116	H	0.606344	0.092300	0.915301
	H117	H	0.383787	0.092511	0.090378
	H118	H	0.609732	0.911352	0.093075
	H119	H	0.384254	0.924004	0.915411
	C120	C	0.374048	0.014787	0.626438
	C121	C	0.617622	0.998333	0.627021
	C122	C	0.617952	0.015715	0.384225
	C123	C	0.374763	0.998318	0.384733
	C124	C	0.616137	0.384248	0.013239
	C125	C	0.616245	0.627307	0.996244
	C126	C	0.373778	0.627689	0.014505
	C127	C	0.373439	0.384785	0.997364
	C128	C	0.004371	0.627002	0.384835
	C129	C	0.987728	0.628464	0.627522
	C130	C	0.003199	0.384599	0.626855
	C131	C	0.987183	0.383816	0.383320
	C132	C	0.872721	0.515630	0.127587
	C133	C	0.116549	0.498855	0.126780
	C134	C	0.116736	0.515275	0.884491
	C135	C	0.873748	0.497882	0.884963
	C136	C	0.116664	0.885197	0.513475
	C137	C	0.117071	0.127307	0.496247
	C138	C	0.875643	0.126727	0.514985
	C139	C	0.874469	0.884666	0.496779
	C140	C	0.503672	0.127603	0.883670
	C141	C	0.486368	0.127398	0.126173
	C142	C	0.503296	0.884916	0.126732
	C143	C	0.486062	0.884737	0.884174
	C144	C	0.373232	0.895943	0.685265
	C145	C	0.619627	0.116497	0.687982
	C146	C	0.621514	0.898553	0.321816
	C147	C	0.371665	0.116217	0.323681
	C148	C	0.677078	0.381122	0.894676
	C149	C	0.673834	0.628034	0.116176
	C150	C	0.313097	0.630318	0.895825
	C151	C	0.313365	0.382229	0.116137
	C152	C	0.885119	0.684995	0.384520
	C153	C	0.105297	0.689546	0.630787
	C154	C	0.885735	0.323470	0.630585
	C155	C	0.105009	0.323456	0.379628
	C156	C	0.885655	0.381397	0.688588
	C157	C	0.105804	0.630597	0.687624
	C158	C	0.884487	0.625774	0.328088
	C159	C	0.105284	0.381973	0.322352
	C160	C	0.370369	0.688246	0.895675
	C161	C	0.617576	0.687182	0.115423
	C162	C	0.618712	0.323984	0.894271
	C163	C	0.370784	0.324125	0.115634
	C164	C	0.679870	0.898733	0.379452
	C165	C	0.678347	0.116244	0.631019
	C166	C	0.313432	0.896777	0.629504
	C167	C	0.312458	0.115375	0.379926
	C168	C	0.874014	0.395870	0.184845
	C169	C	0.117440	0.617794	0.186066
	C170	C	0.119023	0.396962	0.823614
	C171	C	0.872872	0.617060	0.825986
	C172	C	0.176710	0.883245	0.394017
	C173	C	0.176759	0.130247	0.615199
	C174	C	0.815597	0.129393	0.396131
	C175	C	0.815080	0.883767	0.616320
	C176	C	0.384865	0.186938	0.881876
	C177	C	0.604339	0.187798	0.127859
	C178	C	0.385845	0.823824	0.131273
	C179	C	0.604872	0.825560	0.882113
	C180	C	0.386503	0.881412	0.189877
	C181	C	0.604866	0.129999	0.185513
	C182	C	0.384644	0.128758	0.824569
	C183	C	0.605141	0.884014	0.824890
	C184	C	0.874460	0.185622	0.395305
	C185	C	0.119462	0.188106	0.615019
	C186	C	0.118419	0.825942	0.393758
	C187	C	0.872801	0.826140	0.616462
	C188	C	0.177683	0.397627	0.880777
	C189	C	0.177002	0.616976	0.129994
	C190	C	0.814523	0.396371	0.128534
	C191	C	0.814145	0.616501	0.883145
	C192	C	0.398425	0.097616	0.601580
	C193	C	0.592669	0.915990	0.600817
	C194	C	0.592178	0.097493	0.410650
	C195	C	0.400431	0.916476	0.410938
	C196	C	0.590655	0.409587	0.096112
	C197	C	0.592094	0.602743	0.912657
	C198	C	0.399406	0.602052	0.097006
	C199	C	0.399288	0.410444	0.914780
	C200	C	0.087640	0.603746	0.408319
	C201	C	0.905433	0.603411	0.602421
	C202	C	0.085039	0.410538	0.600404
	C203	C	0.904598	0.408200	0.408819
	C204	C	0.895890	0.599103	0.104194
	C205	C	0.091579	0.416435	0.101090
	C206	C	0.091418	0.597415	0.910539
	C207	C	0.899038	0.415640	0.910368
	C208	C	0.091102	0.910960	0.596043
	C209	C	0.091722	0.101330	0.413746
	C210	C	0.900125	0.101875	0.598181
	C211	C	0.899672	0.909061	0.413988
	C212	C	0.585725	0.103136	0.908802
	C213	C	0.404083	0.101925	0.101413
	C214	C	0.585147	0.910744	0.099646
	C215	C	0.403573	0.909359	0.909023
	Zn216	Zn	0.495356	0.006294	0.754910
	Zn217	Zn	0.495838	0.007245	0.255712
	Zn218	Zn	0.744280	0.505976	0.005287
	Zn219	Zn	0.245741	0.506766	0.006128
	Zn220	Zn	-0.004104	0.756670	0.505447
	Zn221	Zn	-0.004271	0.255331	0.505555
	Zn222	Zn	-0.004956	0.506461	0.755918
	Zn223	Zn	-0.004178	0.506717	0.255741
	Zn224	Zn	0.495230	0.755551	0.005412
	Zn225	Zn	0.494728	0.256376	0.004944
	Zn226	Zn	0.746659	0.007066	0.506199
	Zn227	Zn	0.245178	0.006116	0.505178
	N228	N	0.410063	0.970331	0.683490
	N229	N	0.582549	0.042110	0.685610
	N230	N	0.583819	0.972383	0.324589
	N231	N	0.409743	0.042487	0.326591
	N232	N	0.675702	0.417893	0.969791
	N233	N	0.673091	0.591696	0.040864
	N234	N	0.315158	0.593369	0.970623
	N235	N	0.314634	0.419030	0.041257
	N236	N	0.960747	0.685983	0.419060
	N237	N	0.030788	0.688503	0.594256
	N238	N	0.959846	0.325347	0.592958
	N239	N	0.030578	0.324205	0.416762
	N240	N	0.959894	0.418895	0.686402
	N241	N	0.031657	0.593276	0.685751
	N242	N	0.959604	0.590796	0.328102
	N243	N	0.030919	0.419000	0.324727
	N244	N	0.407160	0.687055	0.970573
	N245	N	0.582652	0.686901	0.039661
	N246	N	0.581385	0.325947	0.969041
	N247	N	0.407237	0.325633	0.040482
	N248	N	0.677830	0.972738	0.417464
	N249	N	0.677155	0.041690	0.593804
	N250	N	0.313649	0.971925	0.593669
	N251	N	0.313939	0.040924	0.417150
	N252	N	0.909421	0.471115	0.184623
	N253	N	0.080701	0.543348	0.184248
	N254	N	0.082029	0.471224	0.825769
	N255	N	0.909120	0.542337	0.826979
	N256	N	0.175853	0.919255	0.469525
	N257	N	0.175451	0.093285	0.540413
	N258	N	0.816332	0.093695	0.471525
	N259	N	0.815815	0.919436	0.540978
	N260	N	0.459734	0.186647	0.917692
	N261	N	0.529607	0.186357	0.091853
	N262	N	0.459583	0.826000	0.092690
	N263	N	0.529813	0.825685	0.918013
	N264	N	0.460858	0.918558	0.187322
	N265	N	0.530431	0.093165	0.184728
	N266	N	0.459376	0.092796	0.825310
	N267	N	0.530288	0.919950	0.825653
	N268	N	0.910857	0.184117	0.470384
	N269	N	0.083257	0.186584	0.539847
	N270	N	0.081925	0.827011	0.468861
	N271	N	0.908892	0.826487	0.541096
	N272	N	0.176523	0.472066	0.917930
	N273	N	0.176569	0.541830	0.093871
	N274	N	0.813485	0.471847	0.093752
	N275	N	0.814463	0.541385	0.918902
	O276	O	0.537764	0.549539	0.717751
	H277	H	0.520413	0.532728	0.714698
	H278	H	0.517642	0.550389	0.728259
	O279	O	0.611124	0.410684	0.589937
	H280	H	0.611687	0.414240	0.590929
	H281	H	0.609229	0.418166	0.579544
	O282	O	1.031088	0.987707	0.204814
	H283	H	1.027184	0.997305	0.210885
	H284	H	1.019734	0.967101	0.191552
	O285	O	0.461744	0.700199	0.451189
	H286	H	0.471020	0.708521	0.453253
	H287	H	0.468544	0.701799	0.450033
	O288	O	-0.144291	-0.120519	-0.116334
	H289	H	-0.129163	-0.127678	-0.121417
	H290	H	-0.154414	-0.109883	-0.102753
	O291	O	0.993247	1.025893	-0.122495
	H292	H	0.992599	1.034520	-0.117584
	H293	H	0.990532	1.023177	-0.122691
	O294	O	-0.220956	1.222937	-0.778186
	H295	H	-0.200651	1.223380	-0.791880
	H296	H	-0.223577	1.231555	-0.776636
	O297	O	0.645292	0.536558	0.720270
	H298	H	0.650410	0.562893	0.726539
	H299	H	0.649111	0.540988	0.727930
	O300	O	0.303532	0.696843	0.314155
	H301	H	0.317356	0.688358	0.312045
	H302	H	0.308856	0.675204	0.318543
	O303	O	0.760757	0.731091	0.280818
	H304	H	0.751072	0.723017	0.304327
	H305	H	0.759605	0.707583	0.295416
	O306	O	0.183068	0.812895	0.814884
	H307	H	0.188138	0.802077	0.827735
	H308	H	0.193318	0.842107	0.825453
	O309	O	0.709879	0.314636	0.486846
	H310	H	0.706232	0.319322	0.505335
	H311	H	0.717881	0.292599	0.497459
	O312	O	0.467378	0.285991	0.706598
	H313	H	0.463740	0.281341	0.692250
	H314	H	0.470707	0.264166	0.723729
	O315	O	-0.073385	0.810975	0.954052
	H316	H	-0.074298	0.809439	0.956024
	H317	H	-0.068131	0.808914	0.952586
	O318	O	0.623803	0.516563	-0.544750
	H319	H	0.612784	0.512304	-0.546717
	H320	H	0.617570	0.523159	-0.534345
	O321	O	0.892495	0.194913	0.812935
	H322	H	0.926848	0.208187	0.827449
	H323	H	0.887080	0.206390	0.811232
	O324	O	1.698947	0.707554	1.705213
	H325	H	1.700559	0.716922	1.712344
	H326	H	1.662063	0.700520	1.711440
	O327	O	1.124808	-0.198801	1.061706
	H328	H	1.141890	-0.216888	1.062295
	H329	H	1.117953	-0.181654	1.052898
	O330	O	0.781967	-0.017544	0.214781
	H331	H	0.766628	-0.035944	0.233267
	H332	H	0.778962	-0.029277	0.213969
	O333	O	0.980862	0.823445	1.177880
	H334	H	0.990605	0.809119	1.190277
	H335	H	0.954254	0.816378	1.166570
	O336	O	0.700691	-0.526398	1.299982
	H337	H	0.706032	-0.526023	1.294344
	H338	H	0.704034	-0.527661	1.295578
	O339	O	0.362985	0.426150	0.355791
	H340	H	0.374847	0.407424	0.346226
	H341	H	0.361029	0.419497	0.377295
	O342	O	0.805237	-0.004024	0.038394
	H343	H	0.800066	-0.005012	0.038785
	H344	H	0.806871	0.000914	0.039041
	O345	O	-0.212279	-0.199940	0.140269
	H346	H	-0.232432	-0.217014	0.173890
	H347	H	-0.224459	-0.209247	0.119146
	O348	O	1.138024	0.186063	1.149547
	H349	H	1.114771	0.188226	1.159027
	H350	H	1.141065	0.156781	1.164937
	O351	O	0.280120	0.477090	0.719072
	H352	H	0.271535	0.482905	0.720533
	H353	H	0.261280	0.468018	0.722821
	O354	O	0.642917	0.390872	0.562874
	H355	H	0.629874	0.384757	0.559006
	H356	H	0.640261	0.392679	0.582759
	O357	O	1.438516	0.371593	0.295036
	H358	H	1.441147	0.364354	0.283588
	H359	H	1.457248	0.359465	0.295234
	O360	O	0.556022	0.556638	0.311192
	H361	H	0.557770	0.554707	0.311770
	H362	H	0.540099	0.569881	0.313904
	O363	O	-0.369641	0.764191	0.762936
	H364	H	-0.382756	0.756018	0.753573
	H365	H	-0.377253	0.783988	0.768923
	O366	O	0.981935	0.881400	0.072062
	H367	H	0.975928	0.908005	0.071200
	H368	H	0.981980	0.872280	0.087882
	O369	O	0.276332	0.290414	0.526606
	H370	H	0.275409	0.297052	0.544874
	H371	H	0.253644	0.267539	0.539948
	O372	O	0.297077	0.308541	0.697809
	H373	H	0.279393	0.318873	0.720271
	H374	H	0.330159	0.306672	0.687280
	O375	O	-0.210408	1.177595	0.992930
	H376	H	-0.219290	1.174846	0.981254
	H377	H	-0.216282	1.185148	0.983795
	O378	O	0.900601	0.091295	0.212157
	H379	H	0.890526	0.085462	0.212246
	H380	H	0.892083	0.086579	0.198204
	O381	O	0.406093	0.679108	-0.370350
	H382	H	0.416912	0.673846	-0.371054
	H383	H	0.383721	0.667980	-0.373087
	O384	O	0.066592	-0.907109	0.987833
	H385	H	0.072219	-0.909276	0.967937
	H386	H	0.049530	-0.891435	0.989483
	O387	O	-0.161164	0.898143	1.018273
	H388	H	-0.158398	0.891251	1.000624
	H389	H	-0.163870	0.889497	1.011546
	O390	O	0.163443	-0.047781	1.135938
	H391	H	0.162485	-0.033666	1.106310
	H392	H	0.160463	-0.055136	1.160825
	O393	O	1.089691	1.187451	0.199322
	H394	H	1.069213	1.185310	0.190727
	H395	H	1.075335	1.179186	0.212274
	O396	O	0.534946	0.441760	0.559667
	H397	H	0.533618	0.457535	0.559246
	H398	H	0.547735	0.436280	0.549380
	O399	O	0.273470	0.727819	0.475691
	H400	H	0.246946	0.756847	0.478722
	H401	H	0.288359	0.724452	0.446574
	O402	O	0.014747	-0.200553	0.801854
	H403	H	0.026255	-0.204820	0.802713
	H404	H	0.037004	-0.212636	0.789942
	O405	O	-0.292861	-0.334994	0.583665
	H406	H	-0.283673	-0.340778	0.585371
	H407	H	-0.280688	-0.339790	0.615368
	O408	O	0.350702	0.445727	0.533538
	H409	H	0.349075	0.442046	0.539001
	H410	H	0.354642	0.448395	0.532737
	O411	O	0.412503	0.318683	0.403398
	H412	H	0.413662	0.312943	0.405374
	H413	H	0.415857	0.328347	0.395328
	O414	O	0.873834	1.187863	0.813251
	H415	H	0.891061	1.185678	0.800185
	H416	H	0.893139	1.181135	0.813925
	O417	O	0.475208	0.652793	0.299378
	H418	H	0.481978	0.659276	0.294154
	H419	H	0.469133	0.661946	0.306400
	O420	O	1.209241	0.837125	0.934274
	H421	H	1.212830	0.857772	0.933413
	H422	H	1.233753	0.803151	0.937161
	O423	O	-0.207389	1.012487	-0.181403
	H424	H	-0.199861	1.011696	-0.190140
	H425	H	-0.221448	1.020073	-0.183700
	O426	O	1.040512	0.991373	0.922315
	H427	H	1.035792	0.980572	0.927694
	H428	H	1.047349	0.975035	0.917040
	O429	O	0.543630	0.641270	0.484083
	H430	H	0.544412	0.634980	0.490792
	H431	H	0.562579	0.643225	0.495152
	O432	O	0.160256	0.163079	-0.187236
	H433	H	0.156948	0.156183	-0.176655
	H434	H	0.131661	0.172108	-0.174537
	O435	O	0.216140	0.079209	0.124681
	H436	H	0.239811	0.080995	0.142889
	H437	H	0.200732	0.070642	0.136419
	O438	O	1.098648	0.228677	-0.023896
	H439	H	1.125190	0.224726	0.005991
	H440	H	1.094292	0.238080	-0.005625
	O441	O	0.641829	0.495708	0.481348
	H442	H	0.662496	0.496073	0.479963
	H443	H	0.636486	0.490548	0.485615
	O444	O	-0.035860	1.180718	1.054022
	H445	H	-0.021143	1.162388	1.049826
	H446	H	-0.055230	1.183607	1.040856
	O447	O	0.486531	0.578684	0.490328
	H448	H	0.510129	0.584091	0.492034
	H449	H	0.475301	0.573002	0.498026
	O450	O	0.289701	0.604223	0.613279
	H451	H	0.298134	0.600958	0.609461
	H452	H	0.286881	0.603341	0.603662
	O453	O	0.514646	0.481239	0.561110
	H454	H	0.506810	0.478569	0.563646
	H455	H	0.516062	0.473245	0.546765
	O456	O	1.184390	0.118695	-0.033016
	H457	H	1.193811	0.106006	-0.013297
	H458	H	1.199147	0.126957	-0.021390
	O459	O	0.651300	0.296599	0.297672
	H460	H	0.654714	0.302886	0.319108
	H461	H	0.661388	0.285739	0.297139
	O462	O	0.289929	0.552887	0.372631
	H463	H	0.288873	0.540777	0.350848
	H464	H	0.275620	0.559331	0.363142
	O465	O	1.163387	0.036150	-0.166482
	H466	H	1.157265	0.052432	-0.167535
	H467	H	1.169308	0.048897	-0.168146
