data_Molecule from HDF5

_cell_length_a		16.259437
_cell_length_b		16.207341
_cell_length_c		16.311349
_cell_angle_alpha	90.284865
_cell_angle_beta	90.209105
_cell_angle_gamma	90.059484
_symmetry_space_group_name_H-M	'P 1'
_symmetry_Int_Tables_number		1

loop_
	_symmetry_equiv_pos_as_xyz
	x,y,z

loop_
	_atom_site_label
	_atom_site_type_symbol
	_atom_site_fract_x
	_atom_site_fract_y
	_atom_site_fract_z
	H0	H	0.388191	0.834037	0.707707
	H1	H	0.587244	0.162801	0.712646
	H2	H	0.586226	0.835596	0.278861
	H3	H	0.387692	0.162246	0.280061
	H4	H	0.699176	0.398784	0.829031
	H5	H	0.703652	0.598781	0.155950
	H6	H	0.270584	0.597983	0.830092
	H7	H	0.269796	0.399006	0.155849
	H8	H	0.823623	0.714290	0.392601
	H9	H	0.151186	0.712886	0.590705
	H10	H	0.824140	0.284090	0.590631
	H11	H	0.150983	0.283306	0.393641
	H12	H	0.822993	0.398901	0.705615
	H13	H	0.150118	0.600426	0.709187
	H14	H	0.823645	0.598688	0.277005
	H15	H	0.150113	0.398322	0.276164
	H16	H	0.387867	0.712343	0.829695
	H17	H	0.585661	0.712360	0.157622
	H18	H	0.583976	0.282444	0.830130
	H19	H	0.388842	0.285877	0.157530
	H20	H	0.700886	0.834845	0.395158
	H21	H	0.704269	0.162805	0.597050
	H22	H	0.272446	0.834158	0.591957
	H23	H	0.274218	0.163512	0.397375
	H24	H	0.884712	0.335821	0.207237
	H25	H	0.087453	0.662119	0.209972
	H26	H	0.086085	0.334569	0.776093
	H27	H	0.887455	0.662947	0.778189
	H28	H	0.200782	0.899529	0.329734
	H29	H	0.202952	0.099442	0.656884
	H30	H	0.769781	0.098574	0.331331
	H31	H	0.773345	0.900524	0.657130
	H32	H	0.322465	0.211698	0.897327
	H33	H	0.650841	0.214199	0.095096
	H34	H	0.322869	0.784414	0.092407
	H35	H	0.651098	0.784344	0.895965
	H36	H	0.323311	0.899918	0.208327
	H37	H	0.650304	0.099224	0.211107
	H38	H	0.323699	0.097671	0.779074
	H39	H	0.650761	0.898648	0.780277
	H40	H	0.887905	0.212254	0.329684
	H41	H	0.087666	0.215803	0.656090
	H42	H	0.084662	0.783985	0.329379
	H43	H	0.889744	0.784504	0.656500
	H44	H	0.201006	0.334846	0.892288
	H45	H	0.201096	0.662884	0.092540
	H46	H	0.774753	0.334075	0.087158
	H47	H	0.773147	0.663200	0.894655
	H48	H	0.386862	0.116275	0.583949
	H49	H	0.579205	0.882092	0.586567
	H50	H	0.575076	0.116478	0.398290
	H51	H	0.387204	0.878069	0.395998
	H52	H	0.583414	0.409205	0.108694
	H53	H	0.586014	0.589847	0.875429
	H54	H	0.393577	0.588835	0.108320
	H55	H	0.394233	0.401543	0.876945
	H56	H	0.105783	0.594563	0.399676
	H57	H	0.867369	0.593822	0.592912
	H58	H	0.103311	0.409736	0.584109
	H59	H	0.867744	0.404544	0.389477
	H60	H	0.104320	0.408118	0.587516
	H61	H	0.870326	0.597188	0.579854
	H62	H	0.101229	0.589260	0.404276
	H63	H	0.870346	0.397135	0.404850
	H64	H	0.395932	0.594116	0.109451
	H65	H	0.574504	0.586763	0.880051
	H66	H	0.578977	0.406723	0.109654
	H67	H	0.389979	0.406340	0.876770
	H68	H	0.575567	0.112776	0.409159
	H69	H	0.580496	0.882571	0.586957
	H70	H	0.395506	0.117889	0.596788
	H71	H	0.400585	0.882411	0.396295
	H72	H	0.893159	0.618657	0.095101
	H73	H	0.082658	0.383224	0.076062
	H74	H	0.075696	0.614602	0.900354
	H75	H	0.895743	0.384214	0.903954
	H76	H	0.074500	0.904697	0.608147
	H77	H	0.077464	0.096413	0.376476
	H78	H	0.884257	0.087537	0.611934
	H79	H	0.899047	0.909731	0.379494
	H80	H	0.603634	0.093788	0.907708
	H81	H	0.373458	0.090561	0.078961
	H82	H	0.600988	0.907770	0.083180
	H83	H	0.371212	0.903418	0.905568
	H84	H	0.603888	0.910215	0.091479
	H85	H	0.369949	0.085605	0.094071
	H86	H	0.601962	0.087443	0.903753
	H87	H	0.371265	0.911172	0.899333
	H88	H	0.904477	0.083790	0.603802
	H89	H	0.086803	0.090064	0.376029
	H90	H	0.085016	0.901130	0.612221
	H91	H	0.893156	0.899150	0.375218
	H92	H	0.078292	0.615169	0.903304
	H93	H	0.081071	0.378455	0.091161
	H94	H	0.905072	0.612887	0.082836
	H95	H	0.885622	0.378906	0.897522
	H96	H	0.402032	0.112284	0.583718
	H97	H	0.580241	0.882015	0.588225
	H98	H	0.584636	0.118196	0.403882
	H99	H	0.392674	0.883235	0.407486
	H100	H	0.583538	0.404235	0.110560
	H101	H	0.576137	0.597406	0.876204
	H102	H	0.389872	0.593502	0.110837
	H103	H	0.396671	0.407092	0.878927
	H104	H	0.102990	0.587996	0.396400
	H105	H	0.873085	0.584032	0.584352
	H106	H	0.103835	0.405407	0.584645
	H107	H	0.873741	0.413632	0.402120
	H108	H	0.887928	0.615941	0.078641
	H109	H	0.068733	0.385590	0.083628
	H110	H	0.079143	0.615753	0.899217
	H111	H	0.896460	0.380764	0.890853
	H112	H	0.083823	0.912476	0.608414
	H113	H	0.076884	0.085324	0.379343
	H114	H	0.898783	0.104096	0.612092
	H115	H	0.887146	0.909931	0.376400
	H116	H	0.605014	0.092966	0.899500
	H117	H	0.367007	0.100512	0.090491
	H118	H	0.604945	0.901362	0.088368
	H119	H	0.367411	0.901627	0.895691
	C120	C	0.366153	0.006808	0.615941
	C121	C	0.609469	0.990492	0.617387
	C122	C	0.607776	0.007848	0.373931
	C123	C	0.365092	0.989856	0.372201
	C124	C	0.609426	0.376894	0.001860
	C125	C	0.608415	0.620337	0.985074
	C126	C	0.364266	0.620897	0.001641
	C127	C	0.364922	0.377049	0.985103
	C128	C	-0.004681	0.619720	0.371130
	C129	C	0.978497	0.620832	0.614723
	C130	C	-0.004324	0.378411	0.613751
	C131	C	0.978554	0.376414	0.370079
	C132	C	0.865736	0.507548	0.113246
	C133	C	0.107505	0.490492	0.113712
	C134	C	0.107185	0.507023	0.871075
	C135	C	0.864292	0.489782	0.869354
	C136	C	0.109080	0.876859	0.501558
	C137	C	0.109617	0.120474	0.485089
	C138	C	0.865830	0.120774	0.501884
	C139	C	0.865281	0.877159	0.484979
	C140	C	0.495470	0.119691	0.874253
	C141	C	0.478572	0.121068	0.116964
	C142	C	0.495104	0.877409	0.115859
	C143	C	0.478510	0.876387	0.872259
	C144	C	0.368149	0.883093	0.670020
	C145	C	0.607655	0.113790	0.674142
	C146	C	0.606265	0.884444	0.317355
	C147	C	0.367606	0.113564	0.318013
	C148	C	0.662707	0.378247	0.878412
	C149	C	0.665337	0.618855	0.107306
	C150	C	0.308848	0.618050	0.878819
	C151	C	0.308669	0.379488	0.107356
	C152	C	0.872386	0.675805	0.372966
	C153	C	0.101937	0.675907	0.612009
	C154	C	0.872872	0.322340	0.611044
	C155	C	0.101918	0.321236	0.372828
	C156	C	0.872370	0.379417	0.668262
	C157	C	0.101126	0.619991	0.670961
	C158	C	0.872494	0.618525	0.315198
	C159	C	0.101323	0.378071	0.314253
	C160	C	0.367190	0.675188	0.878765
	C161	C	0.606547	0.675494	0.108175
	C162	C	0.605157	0.320599	0.878953
	C163	C	0.368071	0.323465	0.108494
	C164	C	0.663253	0.884202	0.375156
	C165	C	0.665676	0.113792	0.616545
	C166	C	0.310856	0.883152	0.612454
	C167	C	0.311067	0.113994	0.376150
	C168	C	0.865728	0.384501	0.168771
	C169	C	0.106705	0.613381	0.170860
	C170	C	0.106073	0.383756	0.814419
	C171	C	0.866705	0.613648	0.815006
	C172	C	0.163339	0.879246	0.378536
	C173	C	0.165376	0.119563	0.607782
	C174	C	0.808823	0.118380	0.379511
	C175	C	0.810809	0.879679	0.607993
	C176	C	0.371489	0.174116	0.876607
	C177	C	0.601848	0.176244	0.115150
	C178	C	0.371842	0.822440	0.112621
	C179	C	0.601947	0.821863	0.875552
	C180	C	0.372047	0.879762	0.170569
	C181	C	0.601464	0.119321	0.173013
	C182	C	0.372289	0.117641	0.817700
	C183	C	0.601850	0.878766	0.817774
	C184	C	0.867496	0.175229	0.378878
	C185	C	0.107787	0.177226	0.607504
	C186	C	0.105600	0.821752	0.378379
	C187	C	0.868701	0.821999	0.607653
	C188	C	0.163493	0.383856	0.871900
	C189	C	0.163573	0.613682	0.112827
	C190	C	0.810972	0.383608	0.109166
	C191	C	0.810078	0.613937	0.873064
	C192	C	0.388399	0.093107	0.594662
	C193	C	0.586773	0.904434	0.594059
	C194	C	0.584996	0.093799	0.397073
	C195	C	0.386986	0.903356	0.393599
	C196	C	0.588183	0.399949	0.087616
	C197	C	0.585610	0.597952	0.899226
	C198	C	0.386723	0.598926	0.087545
	C199	C	0.386982	0.398645	0.899580
	C200	C	0.081225	0.597144	0.393595
	C201	C	0.892598	0.598360	0.592175
	C202	C	0.081593	0.401114	0.591965
	C203	C	0.892727	0.398694	0.392160
	C204	C	0.888694	0.593693	0.091776
	C205	C	0.084184	0.404665	0.090310
	C206	C	0.084426	0.592901	0.894154
	C207	C	0.886205	0.403651	0.890952
	C208	C	0.087532	0.899557	0.587527
	C209	C	0.086870	0.097252	0.399521
	C210	C	0.888996	0.098494	0.587225
	C211	C	0.886895	0.899627	0.399051
	C212	C	0.581197	0.097821	0.896925
	C213	C	0.392548	0.098664	0.094596
	C214	C	0.581228	0.900039	0.094043
	C215	C	0.392382	0.898684	0.893864
	Zn216	Zn	0.486871	-0.001682	0.744858
	Zn217	Zn	0.486590	-0.000961	0.244912
	Zn218	Zn	0.737621	0.498739	-0.007825
	Zn219	Zn	0.235740	0.498617	-0.007756
	Zn220	Zn	-0.012883	0.748618	0.492583
	Zn221	Zn	-0.012282	0.249227	0.492914
	Zn222	Zn	-0.013713	0.499174	0.742565
	Zn223	Zn	-0.013415	0.498674	0.241967
	Zn224	Zn	0.486971	0.748695	-0.005960
	Zn225	Zn	0.486927	0.248640	-0.004958
	Zn226	Zn	0.736434	-0.000857	0.494334
	Zn227	Zn	0.237917	-0.001743	0.493839
	N228	N	0.401911	0.961053	0.672303
	N229	N	0.573399	0.036176	0.674708
	N230	N	0.572516	0.962292	0.316329
	N231	N	0.400109	0.035270	0.315160
	N232	N	0.665240	0.412830	0.955482
	N233	N	0.666616	0.585321	0.029549
	N234	N	0.306975	0.585007	0.956218
	N235	N	0.306701	0.412193	0.029680
	N236	N	0.949913	0.676686	0.407133
	N237	N	0.024440	0.676855	0.577758
	N238	N	0.950463	0.321543	0.577635
	N239	N	0.024478	0.319892	0.406677
	N240	N	0.949882	0.413519	0.670190
	N241	N	0.023434	0.586500	0.672621
	N242	N	0.949946	0.584542	0.313910
	N243	N	0.023690	0.411545	0.312406
	N244	N	0.400873	0.677020	0.956406
	N245	N	0.571791	0.676317	0.031168
	N246	N	0.572715	0.319634	0.956753
	N247	N	0.402280	0.321707	0.031644
	N248	N	0.664186	0.961765	0.409814
	N249	N	0.666789	0.036044	0.582047
	N250	N	0.309438	0.961058	0.579512
	N251	N	0.309496	0.035959	0.409091
	N252	N	0.899229	0.462498	0.171483
	N253	N	0.072727	0.535581	0.171762
	N254	N	0.071813	0.461316	0.813855
	N255	N	0.899595	0.535521	0.812671
	N256	N	0.165564	0.912921	0.456189
	N257	N	0.166550	0.084871	0.530602
	N258	N	0.807410	0.085452	0.457071
	N259	N	0.808652	0.913375	0.530664
	N260	N	0.449007	0.175850	0.910627
	N261	N	0.524284	0.177766	0.081081
	N262	N	0.449346	0.820991	0.079233
	N263	N	0.524268	0.820221	0.908704
	N264	N	0.449751	0.913330	0.172593
	N265	N	0.523792	0.085737	0.174285
	N266	N	0.450212	0.084730	0.815936
	N267	N	0.524136	0.912300	0.815911
	N268	N	0.902221	0.176839	0.456010
	N269	N	0.073777	0.177944	0.530079
	N270	N	0.072335	0.820415	0.455778
	N271	N	0.901507	0.820214	0.530100
	N272	N	0.164179	0.461416	0.906672
	N273	N	0.164261	0.536100	0.078075
	N274	N	0.810667	0.461218	0.075602
	N275	N	0.808175	0.535859	0.905989
	O276	O	0.092147	-0.079017	-0.046271
	H277	H	0.083948	-0.088205	-0.046573
	H278	H	0.089102	-0.076192	-0.040473
	O279	O	0.948878	1.006494	-0.059124
	H280	H	0.964897	1.002992	-0.053062
	H281	H	0.943659	1.013371	-0.070640
	O282	O	0.596785	0.545521	0.514225
	H283	H	0.605844	0.548234	0.530193
	H284	H	0.581338	0.553232	0.515713
	O285	O	-0.008388	1.075410	1.097955
	H286	H	-0.005015	1.084560	1.105705
	H287	H	-0.006512	1.084459	1.093315
	O288	O	0.535128	0.524494	0.466611
	H289	H	0.520636	0.509116	0.472839
	H290	H	0.538787	0.519182	0.451294
	O291	O	1.010261	1.025610	1.039829
	H292	H	1.000825	1.024384	1.046978
	H293	H	1.019395	1.025997	1.030298
	O294	O	1.034341	0.989088	0.988937
	H295	H	1.034548	0.993094	0.996113
	H296	H	1.027820	0.985913	0.988969
	O297	O	1.057750	-0.007937	0.974846
	H298	H	1.065400	-0.001977	0.964767
	H299	H	1.062648	-0.018982	0.981330
	O300	O	0.527894	0.493870	0.493359
	H301	H	0.530810	0.502102	0.489479
	H302	H	0.534938	0.493335	0.508224
	O303	O	0.997069	0.002909	-0.028816
	H304	H	0.997135	0.005226	-0.008102
	H305	H	0.996181	0.001311	-0.040065
	O306	O	0.000935	1.081104	1.055658
	H307	H	-0.002481	1.083565	1.060809
	H308	H	-0.005588	1.080526	1.057565
	O309	O	0.438237	0.521137	0.519074
	H310	H	0.432716	0.519945	0.503233
	H311	H	0.443252	0.512135	0.511671
	O312	O	0.929405	-0.007237	0.974560
	H313	H	0.930032	-0.006399	0.965720
	H314	H	0.932003	-0.012217	0.974647
	O315	O	0.545574	0.379660	0.499524
	H316	H	0.552755	0.377706	0.489198
	H317	H	0.555221	0.365496	0.504907
	O318	O	0.425796	0.517453	0.489670
	H319	H	0.430728	0.525045	0.497735
	H320	H	0.430460	0.516259	0.483822
	O321	O	0.954462	0.987639	0.957294
	H322	H	0.955323	0.985862	0.950326
	H323	H	0.952332	0.997921	0.959406
	O324	O	0.889133	1.032286	0.936941
	H325	H	0.895785	1.030786	0.931425
	H326	H	0.885893	1.046084	0.932843
	O327	O	0.476484	0.523150	0.519062
	H328	H	0.471049	0.532006	0.524617
	H329	H	0.484156	0.523168	0.527129
	O330	O	1.066701	-0.069878	1.004962
	H331	H	1.074749	-0.075827	0.992732
	H332	H	1.079932	-0.063745	1.001706
	O333	O	1.031111	1.040113	0.010768
	H334	H	1.037365	1.037565	0.014722
	H335	H	1.033731	1.044525	0.012164
	O336	O	0.451361	0.440959	0.438359
	H337	H	0.447321	0.444819	0.444727
	H338	H	0.455523	0.449714	0.427544
	O339	O	0.510064	0.442353	0.470835
	H340	H	0.515275	0.441188	0.471979
	H341	H	0.518578	0.444339	0.481034
	O342	O	-0.028299	1.063862	0.008539
	H343	H	-0.025922	1.076230	0.006316
	H344	H	-0.028549	1.061751	0.010532
	O345	O	-0.004420	-0.029733	0.048859
	H346	H	-0.004846	-0.035914	0.055856
	H347	H	-0.015432	-0.023784	0.054334
	O348	O	0.488035	0.477370	0.445184
	H349	H	0.497404	0.482286	0.436777
	H350	H	0.486566	0.471462	0.452222
	O351	O	0.512290	0.503109	0.526255
	H352	H	0.513238	0.513680	0.519578
	H353	H	0.499716	0.508901	0.529192
	O354	O	0.536613	0.460378	0.485003
	H355	H	0.544807	0.466662	0.481065
	H356	H	0.548049	0.456744	0.493602
	O357	O	0.462313	0.499480	0.541007
	H358	H	0.449182	0.488432	0.542253
	H359	H	0.456463	0.507808	0.535319
	O360	O	0.548865	-0.514239	0.445916
	H361	H	0.557259	-0.511633	0.447818
	H362	H	0.553584	-0.505420	0.450912
	O363	O	0.531529	0.509977	0.423634
	H364	H	0.535084	0.507705	0.419136
	H365	H	0.534860	0.510020	0.417138
	O366	O	-0.042139	-0.001497	0.991704
	H367	H	-0.051985	-0.012000	0.992418
	H368	H	-0.045980	0.002884	0.991796
	O369	O	0.441626	0.579064	0.630615
	H370	H	0.439409	0.582814	0.631220
	H371	H	0.436122	0.571043	0.636542
