data_Molecule from HDF5

_cell_length_a		16.357031
_cell_length_b		16.321070
_cell_length_c		16.263278
_cell_angle_alpha	90.042648
_cell_angle_beta	90.067601
_cell_angle_gamma	89.973053
_symmetry_space_group_name_H-M	'P 1'
_symmetry_Int_Tables_number		1

loop_
	_symmetry_equiv_pos_as_xyz
	x,y,z

loop_
	_atom_site_label
	_atom_site_type_symbol
	_atom_site_fract_x
	_atom_site_fract_y
	_atom_site_fract_z
	H0	H	0.404548	0.835789	0.711964
	H1	H	0.596580	0.163861	0.713837
	H2	H	0.597436	0.836029	0.286017
	H3	H	0.403490	0.164372	0.286981
	H4	H	0.713914	0.400523	0.836340
	H5	H	0.714676	0.598914	0.163114
	H6	H	0.285904	0.596834	0.835503
	H7	H	0.285511	0.401278	0.163722
	H8	H	0.837554	0.715647	0.401436
	H9	H	0.163999	0.713992	0.598023
	H10	H	0.836694	0.285944	0.597525
	H11	H	0.163031	0.283918	0.401437
	H12	H	0.836333	0.404353	0.712853
	H13	H	0.163534	0.598178	0.715531
	H14	H	0.836618	0.597329	0.286400
	H15	H	0.163600	0.401958	0.285779
	H16	H	0.401630	0.713536	0.835968
	H17	H	0.596654	0.713008	0.164137
	H18	H	0.597201	0.285249	0.836074
	H19	H	0.401608	0.285894	0.163947
	H20	H	0.714526	0.836556	0.401785
	H21	H	0.715581	0.163606	0.599808
	H22	H	0.285361	0.837129	0.599157
	H23	H	0.284115	0.162694	0.401027
	H24	H	0.903290	0.336421	0.213698
	H25	H	0.096422	0.664209	0.212611
	H26	H	0.095879	0.335627	0.787347
	H27	H	0.901891	0.663997	0.786552
	H28	H	0.214795	0.901755	0.336627
	H29	H	0.213738	0.098187	0.664935
	H30	H	0.785754	0.097932	0.336403
	H31	H	0.786593	0.902280	0.663915
	H32	H	0.336458	0.214332	0.901333
	H33	H	0.662486	0.215597	0.099011
	H34	H	0.336688	0.785797	0.097913
	H35	H	0.662692	0.783979	0.900733
	H36	H	0.337325	0.901963	0.214528
	H37	H	0.663411	0.097814	0.214556
	H38	H	0.336505	0.097281	0.785593
	H39	H	0.663764	0.901678	0.785458
	H40	H	0.903547	0.212541	0.335243
	H41	H	0.097734	0.214064	0.664276
	H42	H	0.097485	0.786454	0.335990
	H43	H	0.903134	0.786597	0.664413
	H44	H	0.214238	0.336253	0.901650
	H45	H	0.214699	0.663482	0.098212
	H46	H	0.785265	0.336583	0.098473
	H47	H	0.785066	0.663404	0.902563
	H48	H	0.408243	0.116238	0.593250
	H49	H	0.600970	0.880961	0.595401
	H50	H	0.597106	0.116817	0.406285
	H51	H	0.408921	0.888186	0.417932
	H52	H	0.597188	0.416377	0.114575
	H53	H	0.595338	0.598802	0.880241
	H54	H	0.413131	0.590446	0.113664
	H55	H	0.407411	0.411874	0.885255
	H56	H	0.116007	0.593168	0.405409
	H57	H	0.887963	0.590298	0.586261
	H58	H	0.112917	0.413973	0.593473
	H59	H	0.882044	0.398212	0.407417
	H60	H	0.118674	0.403652	0.599742
	H61	H	0.883604	0.590557	0.601585
	H62	H	0.116350	0.594915	0.407268
	H63	H	0.887201	0.410581	0.413591
	H64	H	0.405232	0.600802	0.118798
	H65	H	0.597440	0.587683	0.883702
	H66	H	0.583389	0.407108	0.113166
	H67	H	0.410421	0.403908	0.883997
	H68	H	0.591646	0.116410	0.404641
	H69	H	0.589124	0.883997	0.597924
	H70	H	0.405824	0.115796	0.591585
	H71	H	0.396439	0.880674	0.404738
	H72	H	0.898666	0.618363	0.093335
	H73	H	0.091809	0.382863	0.097750
	H74	H	0.095640	0.614930	0.913532
	H75	H	0.909219	0.383834	0.902816
	H76	H	0.105071	0.912512	0.617952
	H77	H	0.093933	0.093648	0.383401
	H78	H	0.920834	0.101719	0.614900
	H79	H	0.906268	0.903491	0.382235
	H80	H	0.618017	0.092389	0.896667
	H81	H	0.384927	0.087992	0.096515
	H82	H	0.615982	0.903094	0.089670
	H83	H	0.382622	0.901788	0.904611
	H84	H	0.614851	0.910449	0.093504
	H85	H	0.382540	0.098250	0.095698
	H86	H	0.616528	0.102223	0.913299
	H87	H	0.385873	0.907042	0.909948
	H88	H	0.894157	0.100798	0.622493
	H89	H	0.093238	0.090539	0.384722
	H90	H	0.083766	0.913062	0.611222
	H91	H	0.903957	0.909765	0.383431
	H92	H	0.097099	0.618200	0.903333
	H93	H	0.091039	0.386020	0.089985
	H94	H	0.910559	0.617116	0.099422
	H95	H	0.906635	0.384797	0.911050
	H96	H	0.405443	0.117249	0.593915
	H97	H	0.593960	0.886294	0.586407
	H98	H	0.592907	0.114518	0.410355
	H99	H	0.414889	0.884643	0.399105
	H100	H	0.597505	0.400632	0.120074
	H101	H	0.587005	0.592295	0.885375
	H102	H	0.399671	0.588046	0.116883
	H103	H	0.402231	0.405340	0.882497
	H104	H	0.115358	0.592289	0.407427
	H105	H	0.882146	0.603914	0.592834
	H106	H	0.115677	0.402845	0.586733
	H107	H	0.884014	0.410095	0.399401
	H108	H	0.908689	0.612788	0.086033
	H109	H	0.098211	0.382618	0.092532
	H110	H	0.087371	0.614051	0.906070
	H111	H	0.900975	0.382061	0.904766
	H112	H	0.092953	0.894448	0.620377
	H113	H	0.091202	0.092908	0.384902
	H114	H	0.906238	0.078073	0.612316
	H115	H	0.909684	0.907810	0.384696
	H116	H	0.610853	0.083755	0.912232
	H117	H	0.385508	0.092797	0.086852
	H118	H	0.618034	0.904296	0.097377
	H119	H	0.384338	0.909185	0.902267
	C120	C	0.378713	0.008288	0.621230
	C121	C	0.622445	0.991980	0.621619
	C122	C	0.621952	0.007977	0.378663
	C123	C	0.378590	0.992174	0.378714
	C124	C	0.620738	0.378777	0.007770
	C125	C	0.621347	0.621179	0.991296
	C126	C	0.377952	0.621449	0.007954
	C127	C	0.378032	0.378248	0.991936
	C128	C	0.008289	0.621843	0.378487
	C129	C	0.992439	0.622519	0.622064
	C130	C	0.008016	0.378719	0.621344
	C131	C	0.992223	0.377918	0.378237
	C132	C	0.878118	0.508295	0.121420
	C133	C	0.121552	0.491776	0.121450
	C134	C	0.121201	0.507761	0.878797
	C135	C	0.877776	0.491757	0.878308
	C136	C	0.121726	0.878760	0.508294
	C137	C	0.121370	0.121168	0.492645
	C138	C	0.878575	0.121637	0.508368
	C139	C	0.878819	0.879048	0.491871
	C140	C	0.507823	0.121275	0.878510
	C141	C	0.491794	0.121660	0.121773
	C142	C	0.508365	0.878115	0.121588
	C143	C	0.492092	0.877859	0.877482
	C144	C	0.382611	0.885074	0.675370
	C145	C	0.618303	0.115110	0.676345
	C146	C	0.618452	0.884784	0.324079
	C147	C	0.381631	0.115237	0.323952
	C148	C	0.675206	0.381334	0.884623
	C149	C	0.676245	0.618780	0.114612
	C150	C	0.322964	0.618444	0.884758
	C151	C	0.323592	0.381561	0.115103
	C152	C	0.885792	0.677063	0.381180
	C153	C	0.115163	0.676951	0.619466
	C154	C	0.885229	0.323639	0.618674
	C155	C	0.114598	0.322579	0.380960
	C156	C	0.884904	0.382679	0.675335
	C157	C	0.114951	0.619006	0.677229
	C158	C	0.885283	0.618427	0.324028
	C159	C	0.115009	0.381199	0.323686
	C160	C	0.380879	0.675826	0.884588
	C161	C	0.617870	0.675533	0.114947
	C162	C	0.617737	0.323509	0.884841
	C163	C	0.380733	0.323743	0.114977
	C164	C	0.676765	0.885130	0.381223
	C165	C	0.677183	0.114922	0.619736
	C166	C	0.323868	0.885434	0.618994
	C167	C	0.322702	0.114628	0.380746
	C168	C	0.881590	0.385007	0.176106
	C169	C	0.118042	0.615224	0.175720
	C170	C	0.117657	0.384828	0.824088
	C171	C	0.881302	0.615178	0.824389
	C172	C	0.176890	0.880988	0.385225
	C173	C	0.175958	0.118686	0.615788
	C174	C	0.823562	0.118770	0.384989
	C175	C	0.824194	0.881608	0.615260
	C176	C	0.385304	0.176788	0.880661
	C177	C	0.614389	0.176882	0.119489
	C178	C	0.385429	0.823714	0.118537
	C179	C	0.614617	0.823009	0.880852
	C180	C	0.385709	0.881279	0.176370
	C181	C	0.614706	0.118509	0.176833
	C182	C	0.385296	0.118551	0.823256
	C183	C	0.614956	0.881450	0.823413
	C184	C	0.881845	0.175732	0.384668
	C185	C	0.118478	0.176344	0.615644
	C186	C	0.118925	0.823800	0.384926
	C187	C	0.882251	0.824476	0.615357
	C188	C	0.176121	0.384897	0.881217
	C189	C	0.176726	0.614809	0.119016
	C190	C	0.823104	0.385245	0.119132
	C191	C	0.823041	0.614702	0.881565
	C192	C	0.400101	0.094214	0.599260
	C193	C	0.601055	0.905871	0.599674
	C194	C	0.600226	0.093869	0.400593
	C195	C	0.400294	0.906547	0.400688
	C196	C	0.598945	0.401325	0.093858
	C197	C	0.599503	0.599415	0.905477
	C198	C	0.399874	0.599661	0.094213
	C199	C	0.400223	0.400406	0.905731
	C200	C	0.093909	0.599976	0.400338
	C201	C	0.906622	0.601103	0.599954
	C202	C	0.093679	0.400384	0.599494
	C203	C	0.906530	0.399860	0.400328
	C204	C	0.899744	0.593904	0.099493
	C205	C	0.100267	0.405923	0.099738
	C206	C	0.099655	0.593676	0.901050
	C207	C	0.899272	0.405781	0.899711
	C208	C	0.100152	0.900516	0.594381
	C209	C	0.099329	0.098962	0.406492
	C210	C	0.900532	0.099939	0.594543
	C211	C	0.900273	0.900610	0.405818
	C212	C	0.593290	0.099294	0.900988
	C213	C	0.406218	0.099789	0.099478
	C214	C	0.594202	0.899600	0.099959
	C215	C	0.406427	0.899577	0.899403
	Zn216	Zn	0.500194	-0.000189	0.749235
	Zn217	Zn	0.500207	-0.000101	0.249999
	Zn218	Zn	0.749406	0.499531	-0.000194
	Zn219	Zn	0.249850	0.499597	-0.000179
	Zn220	Zn	0.000600	0.750768	0.500018
	Zn221	Zn	0.000317	0.249451	0.500164
	Zn222	Zn	-0.000295	0.500185	0.750236
	Zn223	Zn	0.000064	0.500132	0.249716
	Zn224	Zn	0.499882	0.749737	-0.000430
	Zn225	Zn	0.499771	0.250325	0.000258
	Zn226	Zn	0.750596	0.000307	0.500241
	Zn227	Zn	0.249907	-0.000065	0.500603
	N228	N	0.415927	0.962457	0.676851
	N229	N	0.584868	0.037671	0.677581
	N230	N	0.585074	0.962202	0.322266
	N231	N	0.415781	0.038199	0.322665
	N232	N	0.677344	0.414917	0.962287
	N233	N	0.678722	0.585925	0.036751
	N234	N	0.320990	0.585267	0.962446
	N235	N	0.321818	0.414782	0.037276
	N236	N	0.963199	0.679224	0.414169
	N237	N	0.037936	0.679225	0.585688
	N238	N	0.962848	0.321084	0.585681
	N239	N	0.037253	0.320500	0.414025
	N240	N	0.962189	0.415927	0.677106
	N241	N	0.037667	0.585868	0.678903
	N242	N	0.962510	0.584799	0.322122
	N243	N	0.037865	0.414992	0.322083
	N244	N	0.414370	0.677797	0.962300
	N245	N	0.584336	0.677269	0.037236
	N246	N	0.584400	0.322238	0.962410
	N247	N	0.413977	0.321746	0.037370
	N248	N	0.678890	0.962759	0.414525
	N249	N	0.679568	0.037389	0.586383
	N250	N	0.321590	0.962963	0.585790
	N251	N	0.320666	0.037139	0.414183
	N252	N	0.915058	0.462421	0.177690
	N253	N	0.084217	0.537971	0.177053
	N254	N	0.083786	0.462090	0.823041
	N255	N	0.914700	0.537745	0.822272
	N256	N	0.178705	0.914488	0.462863
	N257	N	0.177871	0.085036	0.538097
	N258	N	0.821670	0.085750	0.462863
	N259	N	0.822324	0.915077	0.537654
	N260	N	0.462537	0.178516	0.914565
	N261	N	0.537131	0.178845	0.085915
	N262	N	0.462731	0.821579	0.085052
	N263	N	0.537275	0.820655	0.913710
	N264	N	0.463080	0.914237	0.178345
	N265	N	0.537560	0.084902	0.178221
	N266	N	0.462402	0.084824	0.821731
	N267	N	0.537672	0.914861	0.821372
	N268	N	0.915580	0.177466	0.462311
	N269	N	0.085178	0.177715	0.537963
	N270	N	0.085230	0.822515	0.462380
	N271	N	0.915330	0.822502	0.537480
	N272	N	0.178614	0.462414	0.914342
	N273	N	0.179123	0.537043	0.086026
	N274	N	0.820971	0.462648	0.085742
	N275	N	0.820835	0.537023	0.914429
