data_Molecule from HDF5

_cell_length_a		16.339770
_cell_length_b		16.307999
_cell_length_c		16.305001
_cell_angle_alpha	90.028210
_cell_angle_beta	90.040085
_cell_angle_gamma	89.965333
_symmetry_space_group_name_H-M	'P 1'
_symmetry_Int_Tables_number		1

loop_
	_symmetry_equiv_pos_as_xyz
	x,y,z

loop_
	_atom_site_label
	_atom_site_type_symbol
	_atom_site_fract_x
	_atom_site_fract_y
	_atom_site_fract_z
	H0	H	0.402177	0.836980	0.714254
	H1	H	0.598225	0.164201	0.714486
	H2	H	0.598075	0.836662	0.285613
	H3	H	0.400909	0.163523	0.284978
	H4	H	0.714991	0.401079	0.836158
	H5	H	0.714592	0.598596	0.163553
	H6	H	0.285334	0.599138	0.836455
	H7	H	0.285675	0.402570	0.163577
	H8	H	0.837232	0.713646	0.401799
	H9	H	0.163304	0.714449	0.598542
	H10	H	0.836909	0.285540	0.597606
	H11	H	0.163586	0.284306	0.402328
	H12	H	0.837071	0.401469	0.714857
	H13	H	0.163520	0.597746	0.714135
	H14	H	0.836916	0.597164	0.285864
	H15	H	0.163432	0.400533	0.284322
	H16	H	0.402725	0.714312	0.835928
	H17	H	0.596687	0.713319	0.164180
	H18	H	0.596794	0.286469	0.836178
	H19	H	0.402356	0.286547	0.164187
	H20	H	0.713917	0.836655	0.401992
	H21	H	0.715117	0.163258	0.599264
	H22	H	0.286709	0.836170	0.597810
	H23	H	0.284844	0.163445	0.401806
	H24	H	0.903708	0.336297	0.212892
	H25	H	0.097507	0.663377	0.213838
	H26	H	0.098083	0.336026	0.786242
	H27	H	0.902832	0.663790	0.786296
	H28	H	0.214954	0.901145	0.336716
	H29	H	0.214538	0.098391	0.663637
	H30	H	0.785467	0.098433	0.336457
	H31	H	0.784977	0.901597	0.663270
	H32	H	0.336312	0.215047	0.902856
	H33	H	0.663346	0.214659	0.098244
	H34	H	0.336449	0.785466	0.099159
	H35	H	0.662777	0.784644	0.901226
	H36	H	0.336776	0.902636	0.214955
	H37	H	0.663296	0.097824	0.214268
	H38	H	0.336555	0.099593	0.785586
	H39	H	0.662710	0.902476	0.785762
	H40	H	0.902506	0.213758	0.336779
	H41	H	0.097149	0.213304	0.663970
	H42	H	0.098689	0.784112	0.336422
	H43	H	0.902663	0.786384	0.663834
	H44	H	0.214552	0.336127	0.902199
	H45	H	0.213273	0.663763	0.097441
	H46	H	0.785301	0.336600	0.098775
	H47	H	0.786976	0.663905	0.902834
	H48	H	0.407300	0.115479	0.590036
	H49	H	0.591976	0.883092	0.598542
	H50	H	0.592668	0.115886	0.408663
	H51	H	0.413110	0.885905	0.407762
	H52	H	0.589530	0.413251	0.113199
	H53	H	0.593546	0.592560	0.884348
	H54	H	0.406907	0.610264	0.120940
	H55	H	0.413142	0.405130	0.885893
	H56	H	0.116565	0.589788	0.401847
	H57	H	0.882983	0.595822	0.595384
	H58	H	0.115958	0.415590	0.602653
	H59	H	0.884063	0.410274	0.400601
	H60	H	0.121007	0.394642	0.596542
	H61	H	0.885033	0.593925	0.590902
	H62	H	0.118072	0.598747	0.406810
	H63	H	0.882315	0.399254	0.404516
	H64	H	0.390997	0.584369	0.118147
	H65	H	0.593425	0.593645	0.883405
	H66	H	0.589895	0.401073	0.116765
	H67	H	0.402024	0.401391	0.880926
	H68	H	0.594836	0.117466	0.406390
	H69	H	0.588406	0.886294	0.590185
	H70	H	0.403922	0.117443	0.592980
	H71	H	0.404563	0.885542	0.412096
	H72	H	0.908199	0.617412	0.098944
	H73	H	0.085709	0.385759	0.094720
	H74	H	0.095362	0.616638	0.908630
	H75	H	0.906013	0.383102	0.906143
	H76	H	0.093769	0.896737	0.619093
	H77	H	0.100489	0.093497	0.381576
	H78	H	0.911640	0.092026	0.614530
	H79	H	0.906019	0.902099	0.382578
	H80	H	0.618088	0.096958	0.901395
	H81	H	0.385380	0.095542	0.087573
	H82	H	0.616681	0.909482	0.099161
	H83	H	0.381733	0.902842	0.903695
	H84	H	0.616741	0.899597	0.092338
	H85	H	0.385746	0.088358	0.093819
	H86	H	0.614924	0.097010	0.912601
	H87	H	0.385130	0.905989	0.912089
	H88	H	0.904732	0.097337	0.618436
	H89	H	0.091502	0.085959	0.386097
	H90	H	0.102091	0.913671	0.616340
	H91	H	0.903079	0.908882	0.383769
	H92	H	0.093524	0.616575	0.903862
	H93	H	0.095920	0.385087	0.084194
	H94	H	0.910543	0.613485	0.088221
	H95	H	0.907974	0.383716	0.906902
	H96	H	0.408366	0.116062	0.594979
	H97	H	0.597820	0.883784	0.591345
	H98	H	0.591777	0.116142	0.405365
	H99	H	0.405653	0.882493	0.402883
	H100	H	0.600381	0.408508	0.117665
	H101	H	0.594591	0.593337	0.883756
	H102	H	0.420004	0.584983	0.109633
	H103	H	0.403757	0.413362	0.884837
	H104	H	0.114687	0.590342	0.411797
	H105	H	0.884345	0.590822	0.594996
	H106	H	0.111749	0.408969	0.581278
	H107	H	0.887291	0.408071	0.411744
	H108	H	0.899664	0.617436	0.090980
	H109	H	0.099392	0.380206	0.098033
	H110	H	0.090724	0.614193	0.907514
	H111	H	0.906144	0.384013	0.908458
	H112	H	0.083600	0.910921	0.611598
	H113	H	0.088654	0.098114	0.383713
	H114	H	0.903166	0.087962	0.615767
	H115	H	0.910186	0.907155	0.385681
	H116	H	0.613459	0.087461	0.905625
	H117	H	0.381819	0.097034	0.096312
	H118	H	0.613464	0.910483	0.088125
	H119	H	0.385314	0.912028	0.904572
	C120	C	0.378160	0.008245	0.621565
	C121	C	0.621078	0.992560	0.621617
	C122	C	0.621428	0.008713	0.378368
	C123	C	0.378806	0.992334	0.378669
	C124	C	0.621208	0.379231	0.007779
	C125	C	0.621687	0.621460	0.992174
	C126	C	0.377961	0.621797	0.008134
	C127	C	0.378362	0.378698	0.992178
	C128	C	0.008768	0.621357	0.377945
	C129	C	0.992081	0.621474	0.621762
	C130	C	0.008303	0.378183	0.621577
	C131	C	0.992444	0.377791	0.377846
	C132	C	0.878261	0.508133	0.121217
	C133	C	0.121793	0.491532	0.121269
	C134	C	0.121630	0.507713	0.878439
	C135	C	0.878660	0.492267	0.878881
	C136	C	0.121624	0.878169	0.507973
	C137	C	0.121434	0.121021	0.491902
	C138	C	0.878386	0.120820	0.508288
	C139	C	0.878134	0.877796	0.492036
	C140	C	0.507635	0.122249	0.878479
	C141	C	0.491918	0.121821	0.121429
	C142	C	0.508069	0.878370	0.121756
	C143	C	0.491657	0.878474	0.878318
	C144	C	0.381232	0.885731	0.676747
	C145	C	0.618458	0.115421	0.676489
	C146	C	0.618679	0.885497	0.323431
	C147	C	0.380998	0.114982	0.323348
	C148	C	0.676482	0.381242	0.884856
	C149	C	0.676438	0.618839	0.115039
	C150	C	0.323059	0.619719	0.885053
	C151	C	0.324099	0.382459	0.115259
	C152	C	0.885821	0.675914	0.381246
	C153	C	0.114718	0.676251	0.618910
	C154	C	0.885550	0.323432	0.618621
	C155	C	0.115095	0.322557	0.381233
	C156	C	0.885548	0.381113	0.676435
	C157	C	0.115014	0.618413	0.676401
	C158	C	0.885843	0.618311	0.323447
	C159	C	0.115131	0.380473	0.323023
	C160	C	0.381412	0.676706	0.885034
	C161	C	0.618102	0.675963	0.115158
	C162	C	0.618052	0.324060	0.884843
	C163	C	0.381692	0.324564	0.115319
	C164	C	0.676380	0.885368	0.380918
	C165	C	0.676621	0.114994	0.619234
	C166	C	0.323514	0.885222	0.619245
	C167	C	0.323145	0.114940	0.381122
	C168	C	0.882002	0.385329	0.175890
	C169	C	0.118212	0.614703	0.175826
	C170	C	0.118363	0.384594	0.823955
	C171	C	0.881859	0.614902	0.824290
	C172	C	0.176910	0.880600	0.385175
	C173	C	0.176264	0.118782	0.614894
	C174	C	0.823532	0.118540	0.385114
	C175	C	0.823184	0.880850	0.614706
	C176	C	0.384941	0.177142	0.881949
	C177	C	0.614566	0.177095	0.119067
	C178	C	0.384909	0.823786	0.119128
	C179	C	0.614175	0.823075	0.880842
	C180	C	0.385057	0.882062	0.176657
	C181	C	0.614650	0.118952	0.176578
	C182	C	0.384939	0.119536	0.823804
	C183	C	0.614140	0.881299	0.823173
	C184	C	0.881460	0.175953	0.385349
	C185	C	0.118187	0.176028	0.615226
	C186	C	0.119150	0.822479	0.385221
	C187	C	0.881509	0.823562	0.615090
	C188	C	0.176396	0.384922	0.881432
	C189	C	0.175831	0.615012	0.118312
	C190	C	0.823622	0.385160	0.118783
	C191	C	0.824175	0.614998	0.882029
	C192	C	0.400142	0.094070	0.599185
	C193	C	0.599147	0.906720	0.599741
	C194	C	0.599675	0.094382	0.400340
	C195	C	0.401124	0.906705	0.401090
	C196	C	0.599610	0.401349	0.093752
	C197	C	0.600215	0.599472	0.906192
	C198	C	0.399517	0.599651	0.094132
	C199	C	0.399829	0.400314	0.905943
	C200	C	0.094608	0.599385	0.400164
	C201	C	0.906116	0.599667	0.600299
	C202	C	0.094084	0.399829	0.599772
	C203	C	0.906648	0.399380	0.399436
	C204	C	0.899751	0.594209	0.099269
	C205	C	0.100088	0.405890	0.098939
	C206	C	0.099678	0.593762	0.900362
	C207	C	0.900353	0.405920	0.900742
	C208	C	0.099616	0.900586	0.593773
	C209	C	0.099888	0.098997	0.406080
	C210	C	0.900162	0.098886	0.594216
	C211	C	0.899932	0.899643	0.406074
	C212	C	0.593477	0.100396	0.900166
	C213	C	0.406409	0.100086	0.099264
	C214	C	0.593531	0.900160	0.099670
	C215	C	0.406135	0.900548	0.900257
	Zn216	Zn	0.499772	0.000755	0.749821
	Zn217	Zn	0.500371	0.000266	0.250133
	Zn218	Zn	0.750307	0.499925	0.000161
	Zn219	Zn	0.249977	0.500224	-0.000305
	Zn220	Zn	0.000305	0.749477	0.500142
	Zn221	Zn	0.000115	0.249116	0.500337
	Zn222	Zn	0.000254	0.499786	0.749989
	Zn223	Zn	0.000533	0.499949	0.249328
	Zn224	Zn	0.499457	0.749850	0.000367
	Zn225	Zn	0.499688	0.250664	-0.000009
	Zn226	Zn	0.749742	-0.000116	0.499696
	Zn227	Zn	0.250076	-0.000064	0.500013
	N228	N	0.414242	0.963290	0.678438
	N229	N	0.584652	0.038305	0.678045
	N230	N	0.585152	0.962950	0.321910
	N231	N	0.414827	0.037712	0.321828
	N232	N	0.678564	0.414681	0.962408
	N233	N	0.678772	0.585586	0.037475
	N234	N	0.320891	0.586168	0.962493
	N235	N	0.321831	0.415118	0.037558
	N236	N	0.963301	0.677935	0.414545
	N237	N	0.037407	0.678187	0.585827
	N238	N	0.962865	0.321454	0.585288
	N239	N	0.037851	0.320816	0.414642
	N240	N	0.962819	0.414453	0.678362
	N241	N	0.037694	0.584821	0.678160
	N242	N	0.963205	0.585085	0.321406
	N243	N	0.037784	0.413951	0.320860
	N244	N	0.414766	0.677885	0.962524
	N245	N	0.584649	0.677585	0.037834
	N246	N	0.584558	0.322691	0.962239
	N247	N	0.414639	0.322212	0.037691
	N248	N	0.678000	0.962776	0.414556
	N249	N	0.678428	0.037523	0.585875
	N250	N	0.321652	0.962507	0.585510
	N251	N	0.321592	0.037528	0.414711
	N252	N	0.915507	0.462696	0.177096
	N253	N	0.085412	0.537150	0.177738
	N254	N	0.084867	0.462121	0.822195
	N255	N	0.914973	0.537333	0.822129
	N256	N	0.178543	0.914308	0.462504
	N257	N	0.178478	0.085377	0.537359
	N258	N	0.821422	0.085056	0.462578
	N259	N	0.821021	0.913784	0.537100
	N260	N	0.462180	0.178679	0.915292
	N261	N	0.537331	0.179025	0.085480
	N262	N	0.462196	0.821331	0.085832
	N263	N	0.536959	0.821210	0.914401
	N264	N	0.462446	0.915277	0.178302
	N265	N	0.537545	0.085384	0.178156
	N266	N	0.462219	0.086088	0.821611
	N267	N	0.537097	0.915194	0.821753
	N268	N	0.914579	0.177653	0.462864
	N269	N	0.084751	0.177400	0.537737
	N270	N	0.085377	0.821125	0.462453
	N271	N	0.915086	0.821810	0.537758
	N272	N	0.178508	0.462547	0.914349
	N273	N	0.178040	0.537572	0.084850
	N274	N	0.821297	0.462651	0.085537
	N275	N	0.822520	0.537593	0.915340
