data_Molecule from HDF5

_cell_length_a		16.220734
_cell_length_b		16.325074
_cell_length_c		16.344070
_cell_angle_alpha	89.819978
_cell_angle_beta	90.004154
_cell_angle_gamma	90.017101
_symmetry_space_group_name_H-M	'P 1'
_symmetry_Int_Tables_number		1

loop_
	_symmetry_equiv_pos_as_xyz
	x,y,z

loop_
	_atom_site_label
	_atom_site_type_symbol
	_atom_site_fract_x
	_atom_site_fract_y
	_atom_site_fract_z
	H0	H	0.400526	0.841316	0.718813
	H1	H	0.598847	0.167502	0.718665
	H2	H	0.599603	0.842012	0.286934
	H3	H	0.399376	0.168049	0.287928
	H4	H	0.712277	0.407997	0.840287
	H5	H	0.712671	0.602826	0.166944
	H6	H	0.283137	0.603785	0.841036
	H7	H	0.285344	0.407409	0.167692
	H8	H	0.834350	0.719920	0.406118
	H9	H	0.162893	0.719343	0.602360
	H10	H	0.833807	0.290313	0.603573
	H11	H	0.162051	0.290431	0.404731
	H12	H	0.834052	0.406203	0.718497
	H13	H	0.161919	0.604244	0.719052
	H14	H	0.834475	0.605357	0.289056
	H15	H	0.161520	0.405225	0.288524
	H16	H	0.398059	0.721998	0.840692
	H17	H	0.598115	0.720215	0.166223
	H18	H	0.598125	0.290319	0.841394
	H19	H	0.397060	0.287548	0.166208
	H20	H	0.713541	0.840957	0.406522
	H21	H	0.712289	0.168139	0.600596
	H22	H	0.284961	0.840824	0.600930
	H23	H	0.284920	0.168605	0.405720
	H24	H	0.896630	0.342871	0.221690
	H25	H	0.098776	0.667647	0.219281
	H26	H	0.097322	0.341842	0.789055
	H27	H	0.898955	0.667768	0.788236
	H28	H	0.212214	0.908390	0.339797
	H29	H	0.212939	0.101609	0.667463
	H30	H	0.784058	0.104426	0.340765
	H31	H	0.784725	0.906936	0.667448
	H32	H	0.335127	0.220153	0.903784
	H33	H	0.662880	0.219091	0.101481
	H34	H	0.334237	0.790356	0.102010
	H35	H	0.662355	0.790529	0.904104
	H36	H	0.334539	0.905151	0.218157
	H37	H	0.662388	0.103815	0.217812
	H38	H	0.334847	0.103189	0.788933
	H39	H	0.662942	0.906729	0.789564
	H40	H	0.898609	0.222314	0.341543
	H41	H	0.097421	0.219632	0.667222
	H42	H	0.099348	0.789709	0.340793
	H43	H	0.898796	0.789175	0.666429
	H44	H	0.212834	0.340941	0.906389
	H45	H	0.214292	0.668380	0.102719
	H46	H	0.784184	0.341862	0.101750
	H47	H	0.784228	0.668288	0.905208
	H48	H	0.404505	0.121090	0.596117
	H49	H	0.597621	0.889271	0.588994
	H50	H	0.589445	0.119105	0.411046
	H51	H	0.410885	0.888595	0.405373
	H52	H	0.587387	0.407033	0.119905
	H53	H	0.583861	0.604837	0.888224
	H54	H	0.413261	0.594311	0.115979
	H55	H	0.406580	0.413899	0.888882
	H56	H	0.116905	0.604922	0.412112
	H57	H	0.883004	0.596378	0.592706
	H58	H	0.115498	0.404362	0.589753
	H59	H	0.884201	0.418815	0.417042
	H60	H	0.111114	0.421640	0.595295
	H61	H	0.881407	0.596177	0.600676
	H62	H	0.113164	0.594548	0.416347
	H63	H	0.880882	0.416372	0.407004
	H64	H	0.407721	0.606960	0.121776
	H65	H	0.598852	0.601079	0.884495
	H66	H	0.596402	0.410940	0.121787
	H67	H	0.407003	0.410060	0.887860
	H68	H	0.592905	0.120134	0.409572
	H69	H	0.595652	0.884772	0.606561
	H70	H	0.406862	0.120789	0.598671
	H71	H	0.408252	0.891584	0.416417
	H72	H	0.897826	0.622690	0.095317
	H73	H	0.090938	0.390802	0.092521
	H74	H	0.081389	0.618308	0.906817
	H75	H	0.907422	0.391732	0.919223
	H76	H	0.093143	0.910952	0.620157
	H77	H	0.088568	0.099928	0.388768
	H78	H	0.893416	0.102225	0.624859
	H79	H	0.896017	0.911648	0.384290
	H80	H	0.615736	0.098901	0.913808
	H81	H	0.385214	0.094318	0.087696
	H82	H	0.617323	0.913648	0.105781
	H83	H	0.379557	0.916697	0.901473
	H84	H	0.616697	0.902996	0.090918
	H85	H	0.381261	0.091368	0.102842
	H86	H	0.615507	0.095528	0.907984
	H87	H	0.379564	0.903792	0.913296
	H88	H	0.907640	0.085644	0.615338
	H89	H	0.092688	0.102229	0.387203
	H90	H	0.091093	0.913097	0.618825
	H91	H	0.909825	0.922338	0.392381
	H92	H	0.092104	0.617832	0.921048
	H93	H	0.094799	0.387698	0.099793
	H94	H	0.908745	0.622268	0.104450
	H95	H	0.896208	0.384858	0.909087
	H96	H	0.407222	0.119342	0.595660
	H97	H	0.581674	0.891879	0.597284
	H98	H	0.590001	0.120415	0.407903
	H99	H	0.400344	0.886550	0.409583
	H100	H	0.588984	0.416339	0.117364
	H101	H	0.589076	0.589911	0.890484
	H102	H	0.398920	0.595220	0.119894
	H103	H	0.403884	0.411504	0.888195
	H104	H	0.115663	0.594754	0.403956
	H105	H	0.880202	0.602481	0.596823
	H106	H	0.118519	0.409923	0.607568
	H107	H	0.881285	0.409130	0.414773
	H108	H	0.910562	0.618415	0.091236
	H109	H	0.086301	0.390269	0.100035
	H110	H	0.098800	0.624230	0.905013
	H111	H	0.911676	0.388143	0.903477
	H112	H	0.089930	0.910528	0.619225
	H113	H	0.093199	0.096819	0.388374
	H114	H	0.916425	0.107919	0.619440
	H115	H	0.912944	0.904289	0.387748
	H116	H	0.617348	0.101748	0.907918
	H117	H	0.379104	0.105716	0.097282
	H118	H	0.610807	0.920457	0.090045
	H119	H	0.385969	0.919715	0.917728
	C120	C	0.377297	0.012673	0.625630
	C121	C	0.620231	0.996505	0.625398
	C122	C	0.620469	0.012641	0.381298
	C123	C	0.377097	0.996540	0.381352
	C124	C	0.619934	0.383324	0.011922
	C125	C	0.619710	0.626817	0.995513
	C126	C	0.377083	0.627394	0.011772
	C127	C	0.376935	0.383207	0.996023
	C128	C	0.006763	0.627094	0.382368
	C129	C	0.989892	0.626784	0.625203
	C130	C	0.006342	0.383413	0.625855
	C131	C	0.989921	0.384990	0.383427
	C132	C	0.876671	0.513434	0.125605
	C133	C	0.119640	0.497046	0.125553
	C134	C	0.119645	0.512626	0.882421
	C135	C	0.876326	0.496347	0.881889
	C136	C	0.120334	0.883300	0.511485
	C137	C	0.120172	0.127087	0.495760
	C138	C	0.876869	0.127597	0.512311
	C139	C	0.877163	0.883783	0.495765
	C140	C	0.507538	0.127095	0.881426
	C141	C	0.490104	0.125992	0.124552
	C142	C	0.506738	0.883235	0.124953
	C143	C	0.490458	0.884616	0.882465
	C144	C	0.379766	0.889933	0.680722
	C145	C	0.618399	0.118946	0.680391
	C146	C	0.619035	0.890121	0.326207
	C147	C	0.378903	0.119103	0.325656
	C148	C	0.674770	0.386938	0.889238
	C149	C	0.675152	0.623831	0.118093
	C150	C	0.321405	0.624575	0.889409
	C151	C	0.322095	0.385679	0.118576
	C152	C	0.883448	0.682425	0.385011
	C153	C	0.113703	0.681474	0.622725
	C154	C	0.882917	0.328386	0.623765
	C155	C	0.113156	0.328691	0.384984
	C156	C	0.882856	0.386080	0.680797
	C157	C	0.113057	0.624692	0.681053
	C158	C	0.883519	0.625284	0.327031
	C159	C	0.113059	0.385778	0.327332
	C160	C	0.378373	0.683168	0.889272
	C161	C	0.618066	0.682108	0.117816
	C162	C	0.618254	0.328228	0.889802
	C163	C	0.378140	0.326585	0.117801
	C164	C	0.675801	0.889792	0.385347
	C165	C	0.674630	0.119408	0.621713
	C166	C	0.322346	0.889717	0.622372
	C167	C	0.322187	0.119552	0.384353
	C168	C	0.877358	0.391377	0.182613
	C169	C	0.118335	0.619348	0.181043
	C170	C	0.117341	0.390190	0.827331
	C171	C	0.878915	0.619106	0.826587
	C172	C	0.175136	0.886963	0.388671
	C173	C	0.175403	0.123263	0.618715
	C174	C	0.821381	0.125261	0.389635
	C175	C	0.822206	0.886421	0.618446
	C176	C	0.383926	0.181913	0.883910
	C177	C	0.613660	0.181294	0.121996
	C178	C	0.383381	0.827954	0.122839
	C179	C	0.613717	0.828841	0.884369
	C180	C	0.383636	0.884984	0.180571
	C181	C	0.613578	0.124063	0.179805
	C182	C	0.383948	0.124231	0.826450
	C183	C	0.613989	0.886687	0.827443
	C184	C	0.878298	0.183881	0.390083
	C185	C	0.117759	0.181533	0.618815
	C186	C	0.119044	0.827998	0.389182
	C187	C	0.879057	0.828102	0.618087
	C188	C	0.174682	0.389802	0.885782
	C189	C	0.175774	0.619696	0.123070
	C190	C	0.821787	0.390593	0.122782
	C191	C	0.821681	0.619333	0.884565
	C192	C	0.399569	0.098543	0.603300
	C193	C	0.598286	0.910733	0.603799
	C194	C	0.597458	0.097901	0.403101
	C195	C	0.399609	0.910992	0.403890
	C196	C	0.597674	0.405246	0.097565
	C197	C	0.597243	0.605048	0.910057
	C198	C	0.399836	0.605303	0.096987
	C199	C	0.399322	0.405406	0.910377
	C200	C	0.092932	0.604774	0.404393
	C201	C	0.903756	0.604889	0.603123
	C202	C	0.092606	0.405461	0.603964
	C203	C	0.904228	0.407970	0.406321
	C204	C	0.899158	0.599032	0.103399
	C205	C	0.097272	0.411708	0.103798
	C206	C	0.097386	0.598037	0.904473
	C207	C	0.898609	0.410442	0.904093
	C208	C	0.097869	0.904944	0.597164
	C209	C	0.097980	0.105876	0.410284
	C210	C	0.899180	0.105242	0.597785
	C211	C	0.899730	0.906308	0.410292
	C212	C	0.593885	0.105107	0.903290
	C213	C	0.404030	0.103569	0.102440
	C214	C	0.592706	0.905813	0.102258
	C215	C	0.404162	0.906695	0.904447
	Zn216	Zn	0.498832	0.004908	0.753887
	Zn217	Zn	0.498710	0.004417	0.252730
	Zn218	Zn	0.748381	0.505230	0.003725
	Zn219	Zn	0.248674	0.505041	0.004338
	Zn220	Zn	-0.001052	0.755329	0.503535
	Zn221	Zn	-0.001751	0.256272	0.504528
	Zn222	Zn	-0.001824	0.504899	0.753567
	Zn223	Zn	-0.001871	0.505326	0.254453
	Zn224	Zn	0.498633	0.756204	0.003243
	Zn225	Zn	0.498327	0.254462	0.003767
	Zn226	Zn	0.748640	0.005214	0.504027
	Zn227	Zn	0.249119	0.004954	0.503426
	N228	N	0.413222	0.967413	0.682492
	N229	N	0.585236	0.041400	0.682818
	N230	N	0.585400	0.967366	0.323870
	N231	N	0.412416	0.041667	0.323930
	N232	N	0.675966	0.420456	0.966337
	N233	N	0.676073	0.590060	0.041066
	N234	N	0.320337	0.590737	0.966496
	N235	N	0.321172	0.420373	0.041640
	N236	N	0.961172	0.683510	0.418770
	N237	N	0.036063	0.683353	0.588946
	N238	N	0.960642	0.326691	0.590262
	N239	N	0.035616	0.328154	0.419213
	N240	N	0.960782	0.419412	0.682294
	N241	N	0.035153	0.591373	0.682634
	N242	N	0.961238	0.591757	0.325220
	N243	N	0.035536	0.419938	0.326062
	N244	N	0.412194	0.685137	0.966447
	N245	N	0.584628	0.684378	0.040452
	N246	N	0.584682	0.326023	0.967084
	N247	N	0.411408	0.325007	0.040558
	N248	N	0.676929	0.967096	0.418880
	N249	N	0.675974	0.042255	0.588290
	N250	N	0.320958	0.967090	0.588704
	N251	N	0.320911	0.042426	0.418341
	N252	N	0.911051	0.468685	0.184151
	N253	N	0.084196	0.542202	0.182653
	N254	N	0.083924	0.467500	0.825356
	N255	N	0.912137	0.541514	0.824980
	N256	N	0.175925	0.920718	0.465649
	N257	N	0.177087	0.090190	0.541271
	N258	N	0.820431	0.090850	0.466701
	N259	N	0.821041	0.920528	0.541354
	N260	N	0.461846	0.183787	0.917262
	N261	N	0.535871	0.182669	0.088436
	N262	N	0.461042	0.826741	0.088839
	N263	N	0.535970	0.827629	0.917968
	N264	N	0.461297	0.918609	0.181805
	N265	N	0.535770	0.090546	0.181631
	N266	N	0.461876	0.091098	0.824587
	N267	N	0.536438	0.920760	0.826442
	N268	N	0.911963	0.185261	0.467229
	N269	N	0.084402	0.184292	0.541442
	N270	N	0.085477	0.825886	0.466589
	N271	N	0.912407	0.826167	0.540599
	N272	N	0.176194	0.466892	0.919568
	N273	N	0.176774	0.542743	0.089210
	N274	N	0.821055	0.467522	0.088309
	N275	N	0.820115	0.542030	0.918333
	O276	O	0.448596	0.545921	0.450845
	H277	H	0.446920	0.540498	0.448997
	H278	H	0.452274	0.543654	0.454387
	O279	O	0.474269	0.485553	0.521894
	H280	H	0.477717	0.482878	0.522553
	H281	H	0.473186	0.480472	0.523523
	O282	O	0.516493	0.469616	0.500556
	H283	H	0.523120	0.461067	0.506499
	H284	H	0.528168	0.469664	0.511172
	O285	O	0.015891	0.970010	1.005030
	H286	H	0.012272	0.972271	0.999762
	H287	H	0.020783	0.961328	0.994509
	O288	O	0.478066	0.482235	0.468082
	H289	H	0.481756	0.476265	0.458213
	H290	H	0.477768	0.482280	0.473271
	O291	O	-0.004789	-0.077066	1.018553
	H292	H	-0.007337	-0.073677	1.021545
	H293	H	-0.002562	-0.079993	1.028828
	O294	O	0.528640	0.457657	0.508035
	H295	H	0.526434	0.472003	0.508472
	H296	H	0.533660	0.459477	0.508760
	O297	O	0.450537	0.473643	0.553019
	H298	H	0.449692	0.480052	0.542010
	H299	H	0.435165	0.465010	0.564378
	O300	O	0.471077	0.434494	0.519214
	H301	H	0.460758	0.430191	0.523240
	H302	H	0.474089	0.426232	0.521657
	O303	O	0.465982	0.424850	0.464347
	H304	H	0.455680	0.419565	0.462365
	H305	H	0.475214	0.424751	0.469227
	O306	O	0.999090	-0.024011	0.951175
	H307	H	0.997275	-0.027376	0.946497
	H308	H	1.001036	-0.027189	0.948417
	O309	O	0.494678	0.516953	0.545805
	H310	H	0.499592	0.510724	0.540666
	H311	H	0.495957	0.523890	0.536457
	O312	O	0.030869	0.045495	0.001392
	H313	H	0.028110	0.057741	0.006110
	H314	H	0.048072	0.045212	0.008699
	O315	O	0.973076	-0.011382	0.986924
	H316	H	0.972120	-0.009757	0.994678
	H317	H	0.980448	-0.014560	0.979972
	O318	O	-0.033882	-0.012190	0.005737
	H319	H	-0.035378	-0.006355	-0.002810
	H320	H	-0.034216	-0.001980	0.012754
	O321	O	0.499196	0.482406	0.513708
	H322	H	0.496429	0.488591	0.510824
	H323	H	0.493234	0.485997	0.505996
	O324	O	1.036952	0.010151	0.050028
	H325	H	1.027943	-0.006323	0.056392
	H326	H	1.038272	0.003017	0.050780
	O327	O	1.015163	1.004468	0.038274
	H328	H	1.014275	0.993699	0.041001
	H329	H	1.010669	1.002816	0.029493
	O330	O	0.932329	0.995832	0.055776
	H331	H	0.930617	1.003225	0.067547
	H332	H	0.927764	0.990738	0.062587
	O333	O	0.494304	0.420185	0.521078
	H334	H	0.492534	0.413280	0.522962
	H335	H	0.484920	0.424422	0.529913
