data_Molecule from HDF5

_cell_length_a		16.309097
_cell_length_b		16.324845
_cell_length_c		16.336095
_cell_angle_alpha	89.953845
_cell_angle_beta	89.976101
_cell_angle_gamma	89.951977
_symmetry_space_group_name_H-M	'P 1'
_symmetry_Int_Tables_number		1

loop_
	_symmetry_equiv_pos_as_xyz
	x,y,z

loop_
	_atom_site_label
	_atom_site_type_symbol
	_atom_site_fract_x
	_atom_site_fract_y
	_atom_site_fract_z
	H0	H	0.401715	0.837225	0.714685
	H1	H	0.597180	0.163572	0.713689
	H2	H	0.599097	0.837463	0.284509
	H3	H	0.400788	0.163385	0.284618
	H4	H	0.715928	0.400850	0.837817
	H5	H	0.714049	0.597325	0.163633
	H6	H	0.285026	0.598484	0.836735
	H7	H	0.286090	0.402249	0.164275
	H8	H	0.836236	0.713859	0.402662
	H9	H	0.163541	0.714176	0.598181
	H10	H	0.836802	0.284460	0.599966
	H11	H	0.163731	0.286911	0.403725
	H12	H	0.836543	0.401758	0.714940
	H13	H	0.163085	0.598729	0.715132
	H14	H	0.836317	0.598026	0.286175
	H15	H	0.163183	0.402400	0.286438
	H16	H	0.401540	0.714401	0.836099
	H17	H	0.598393	0.714892	0.162922
	H18	H	0.598221	0.285711	0.836830
	H19	H	0.401227	0.284623	0.162974
	H20	H	0.713824	0.836577	0.401619
	H21	H	0.713664	0.163575	0.597070
	H22	H	0.286043	0.836868	0.598541
	H23	H	0.285731	0.163192	0.401857
	H24	H	0.901734	0.337057	0.214724
	H25	H	0.097912	0.663690	0.214178
	H26	H	0.099177	0.337182	0.785603
	H27	H	0.901876	0.663589	0.786084
	H28	H	0.215758	0.900769	0.337020
	H29	H	0.215224	0.097688	0.662579
	H30	H	0.785721	0.098211	0.335936
	H31	H	0.785717	0.902215	0.663571
	H32	H	0.336512	0.215513	0.901324
	H33	H	0.663758	0.214891	0.097861
	H34	H	0.336601	0.784693	0.098806
	H35	H	0.663813	0.786112	0.902001
	H36	H	0.336794	0.902912	0.213990
	H37	H	0.663934	0.098973	0.214103
	H38	H	0.336487	0.098643	0.785273
	H39	H	0.663461	0.903516	0.786558
	H40	H	0.902317	0.214303	0.336649
	H41	H	0.098277	0.214357	0.663475
	H42	H	0.098184	0.784989	0.336434
	H43	H	0.901696	0.785174	0.663310
	H44	H	0.214928	0.336447	0.901938
	H45	H	0.213204	0.663776	0.096600
	H46	H	0.785718	0.336706	0.098193
	H47	H	0.784883	0.662720	0.901514
	H48	H	0.408503	0.113538	0.587402
	H49	H	0.597853	0.883206	0.591715
	H50	H	0.600519	0.118622	0.406548
	H51	H	0.406816	0.884929	0.410082
	H52	H	0.594778	0.411228	0.115587
	H53	H	0.594175	0.595331	0.883632
	H54	H	0.403189	0.590937	0.116545
	H55	H	0.410505	0.404733	0.884222
	H56	H	0.116412	0.593074	0.406336
	H57	H	0.883382	0.595077	0.594458
	H58	H	0.113199	0.404007	0.581817
	H59	H	0.882748	0.407925	0.403749
	H60	H	0.113515	0.418045	0.596686
	H61	H	0.884843	0.592377	0.590830
	H62	H	0.116099	0.593510	0.405746
	H63	H	0.882702	0.402843	0.407827
	H64	H	0.409268	0.591261	0.114032
	H65	H	0.595709	0.590782	0.883755
	H66	H	0.588688	0.406863	0.115149
	H67	H	0.403401	0.406312	0.882934
	H68	H	0.588289	0.116417	0.399456
	H69	H	0.593049	0.882404	0.598680
	H70	H	0.401242	0.119222	0.594620
	H71	H	0.405142	0.882424	0.403880
	H72	H	0.913922	0.616446	0.101773
	H73	H	0.093289	0.384523	0.091204
	H74	H	0.097865	0.619350	0.900223
	H75	H	0.908938	0.385301	0.910156
	H76	H	0.086591	0.904695	0.614330
	H77	H	0.085361	0.103915	0.382977
	H78	H	0.906447	0.099785	0.617675
	H79	H	0.893831	0.902667	0.379294
	H80	H	0.613418	0.083364	0.904427
	H81	H	0.380231	0.097990	0.101393
	H82	H	0.618245	0.905849	0.098688
	H83	H	0.382269	0.906805	0.901289
	H84	H	0.616569	0.900866	0.087561
	H85	H	0.385678	0.098739	0.082649
	H86	H	0.620028	0.099078	0.898291
	H87	H	0.382058	0.901416	0.909376
	H88	H	0.900392	0.087823	0.615464
	H89	H	0.105915	0.093994	0.380196
	H90	H	0.097735	0.902155	0.618151
	H91	H	0.908968	0.919981	0.388800
	H92	H	0.083146	0.613889	0.906060
	H93	H	0.096425	0.382542	0.095286
	H94	H	0.908649	0.612686	0.083696
	H95	H	0.904539	0.382977	0.907339
	H96	H	0.411723	0.116182	0.598244
	H97	H	0.589393	0.885813	0.591881
	H98	H	0.589037	0.112856	0.413403
	H99	H	0.411250	0.885317	0.405287
	H100	H	0.595041	0.403982	0.117466
	H101	H	0.591426	0.591862	0.885264
	H102	H	0.406235	0.596618	0.116746
	H103	H	0.407109	0.411222	0.886283
	H104	H	0.116252	0.593825	0.406731
	H105	H	0.884019	0.590145	0.595129
	H106	H	0.120119	0.399389	0.600488
	H107	H	0.885233	0.408611	0.409794
	H108	H	0.895967	0.619937	0.095980
	H109	H	0.091462	0.384460	0.096247
	H110	H	0.096947	0.613974	0.915972
	H111	H	0.910031	0.384553	0.904198
	H112	H	0.095304	0.913419	0.614207
	H113	H	0.088554	0.081948	0.389386
	H114	H	0.913015	0.089404	0.612345
	H115	H	0.916975	0.897343	0.385174
	H116	H	0.614329	0.097587	0.915732
	H117	H	0.387567	0.082344	0.092843
	H118	H	0.613122	0.912658	0.089783
	H119	H	0.385643	0.910678	0.909239
	C120	C	0.378582	0.008405	0.621675
	C121	C	0.621444	0.991779	0.621579
	C122	C	0.621333	0.008225	0.378057
	C123	C	0.378822	0.992009	0.377930
	C124	C	0.621331	0.378903	0.008399
	C125	C	0.621846	0.621031	0.991922
	C126	C	0.378143	0.621279	0.007746
	C127	C	0.378384	0.378462	0.992259
	C128	C	0.008136	0.621670	0.378547
	C129	C	0.991972	0.621284	0.621829
	C130	C	0.007649	0.378394	0.621792
	C131	C	0.991551	0.378543	0.378887
	C132	C	0.878193	0.508664	0.121868
	C133	C	0.121801	0.492031	0.122081
	C134	C	0.121602	0.507882	0.878302
	C135	C	0.878929	0.492018	0.878847
	C136	C	0.121811	0.878004	0.507830
	C137	C	0.121580	0.121471	0.491858
	C138	C	0.878082	0.121384	0.507700
	C139	C	0.877978	0.878072	0.491962
	C140	C	0.507948	0.121936	0.878065
	C141	C	0.492479	0.121662	0.120995
	C142	C	0.508201	0.878505	0.121066
	C143	C	0.491661	0.878242	0.878293
	C144	C	0.381282	0.885670	0.676646
	C145	C	0.618382	0.114902	0.676132
	C146	C	0.619069	0.885773	0.322823
	C147	C	0.380477	0.114476	0.322269
	C148	C	0.677255	0.380762	0.885962
	C149	C	0.676188	0.617773	0.114931
	C150	C	0.323260	0.618674	0.885108
	C151	C	0.323757	0.381574	0.115280
	C152	C	0.884969	0.676340	0.381742
	C153	C	0.114671	0.676480	0.618938
	C154	C	0.885304	0.323113	0.619532
	C155	C	0.114871	0.324214	0.382572
	C156	C	0.885092	0.381474	0.676732
	C157	C	0.114672	0.618934	0.676865
	C158	C	0.885054	0.618616	0.324090
	C159	C	0.114632	0.381571	0.324407
	C160	C	0.381301	0.676134	0.884865
	C161	C	0.618749	0.676067	0.114666
	C162	C	0.618886	0.323617	0.885544
	C163	C	0.380969	0.323271	0.114892
	C164	C	0.676448	0.885602	0.380707
	C165	C	0.675951	0.114784	0.618192
	C166	C	0.323670	0.885611	0.619192
	C167	C	0.323620	0.114587	0.380855
	C168	C	0.881195	0.385597	0.176729
	C169	C	0.118150	0.615117	0.176016
	C170	C	0.119438	0.385541	0.823277
	C171	C	0.881088	0.614728	0.823685
	C172	C	0.177510	0.880443	0.385419
	C173	C	0.177311	0.118804	0.614288
	C174	C	0.823480	0.118649	0.384835
	C175	C	0.823316	0.881131	0.614704
	C176	C	0.385299	0.177387	0.880708
	C177	C	0.614945	0.177295	0.118885
	C178	C	0.385468	0.823212	0.118913
	C179	C	0.614777	0.823768	0.881382
	C180	C	0.385335	0.881638	0.176355
	C181	C	0.615141	0.119486	0.176286
	C182	C	0.385012	0.119477	0.823040
	C183	C	0.614826	0.882164	0.824107
	C184	C	0.880978	0.176825	0.385251
	C185	C	0.118941	0.176284	0.614787
	C186	C	0.119019	0.823156	0.385133
	C187	C	0.881124	0.823367	0.614713
	C188	C	0.176913	0.385554	0.881328
	C189	C	0.175941	0.615134	0.118186
	C190	C	0.823627	0.385337	0.118932
	C191	C	0.823408	0.614366	0.881368
	C192	C	0.400629	0.094150	0.599797
	C193	C	0.599925	0.906089	0.600372
	C194	C	0.599123	0.093970	0.399982
	C195	C	0.401149	0.906234	0.399985
	C196	C	0.599331	0.400892	0.093801
	C197	C	0.600276	0.599191	0.906386
	C198	C	0.399792	0.599392	0.093524
	C199	C	0.400529	0.400747	0.906530
	C200	C	0.094055	0.599984	0.400052
	C201	C	0.906177	0.599136	0.599936
	C202	C	0.093573	0.400631	0.599516
	C203	C	0.905625	0.400220	0.400556
	C204	C	0.899811	0.594149	0.100063
	C205	C	0.100160	0.406210	0.100471
	C206	C	0.099029	0.593695	0.900760
	C207	C	0.901343	0.406242	0.900759
	C208	C	0.099739	0.900201	0.593505
	C209	C	0.099908	0.099593	0.406264
	C210	C	0.900068	0.098955	0.593207
	C211	C	0.900096	0.900000	0.406426
	C212	C	0.593710	0.099841	0.899802
	C213	C	0.406769	0.099409	0.098817
	C214	C	0.593936	0.900105	0.098829
	C215	C	0.405489	0.899819	0.899946
	Zn216	Zn	0.499558	0.000129	0.749912
	Zn217	Zn	0.500392	0.000646	0.249464
	Zn218	Zn	0.750255	0.499738	0.000302
	Zn219	Zn	0.249754	0.499736	0.000146
	Zn220	Zn	-0.000011	0.749357	0.500101
	Zn221	Zn	-0.000076	0.249738	0.500203
	Zn222	Zn	-0.000069	0.500265	0.750421
	Zn223	Zn	0.000009	0.500293	0.250262
	Zn224	Zn	0.500183	0.749459	-0.000566
	Zn225	Zn	0.500098	0.250197	0.000286
	Zn226	Zn	0.749347	-0.000128	0.499731
	Zn227	Zn	0.250660	-0.000089	0.499742
	N228	N	0.414769	0.962958	0.678147
	N229	N	0.585174	0.037449	0.678529
	N230	N	0.585555	0.963075	0.321124
	N231	N	0.414147	0.037246	0.320506
	N232	N	0.679025	0.414273	0.963104
	N233	N	0.678121	0.584243	0.037784
	N234	N	0.321258	0.585344	0.962443
	N235	N	0.321923	0.415250	0.037927
	N236	N	0.962400	0.678175	0.414988
	N237	N	0.037397	0.677822	0.585193
	N238	N	0.962676	0.321132	0.586100
	N239	N	0.037296	0.322167	0.415749
	N240	N	0.962304	0.415204	0.677999
	N241	N	0.037336	0.585390	0.678701
	N242	N	0.962516	0.585319	0.321984
	N243	N	0.037131	0.414579	0.322048
	N244	N	0.414816	0.677840	0.962091
	N245	N	0.585584	0.677964	0.037308
	N246	N	0.584814	0.322360	0.962518
	N247	N	0.414013	0.321338	0.037476
	N248	N	0.677761	0.962804	0.414370
	N249	N	0.677830	0.037527	0.584999
	N250	N	0.321924	0.962806	0.585643
	N251	N	0.322459	0.037432	0.414723
	N252	N	0.914308	0.462960	0.178756
	N253	N	0.085309	0.537533	0.178440
	N254	N	0.085743	0.462826	0.821491
	N255	N	0.914913	0.537569	0.822194
	N256	N	0.179298	0.913980	0.462701
	N257	N	0.178871	0.085335	0.537037
	N258	N	0.821540	0.084931	0.461938
	N259	N	0.821251	0.914538	0.537385
	N260	N	0.462628	0.178761	0.914267
	N261	N	0.537641	0.178563	0.085147
	N262	N	0.462779	0.821164	0.085248
	N263	N	0.537035	0.821388	0.914220
	N264	N	0.462594	0.915256	0.177793
	N265	N	0.538009	0.085567	0.177628
	N266	N	0.462204	0.085501	0.821385
	N267	N	0.537319	0.915225	0.822179
	N268	N	0.914384	0.178306	0.462499
	N269	N	0.085132	0.178007	0.537706
	N270	N	0.085387	0.821362	0.462283
	N271	N	0.914566	0.821616	0.537463
	N272	N	0.178136	0.462702	0.914838
	N273	N	0.178075	0.537745	0.085203
	N274	N	0.821576	0.462611	0.085554
	N275	N	0.822049	0.537119	0.914935
