data_Molecule from HDF5

_cell_length_a		16.586862
_cell_length_b		16.588404
_cell_length_c		16.488764
_cell_angle_alpha	90.080489
_cell_angle_beta	90.011345
_cell_angle_gamma	90.081529
_symmetry_space_group_name_H-M	'P 1'
_symmetry_Int_Tables_number		1

loop_
	_symmetry_equiv_pos_as_xyz
	x,y,z

loop_
	_atom_site_label
	_atom_site_type_symbol
	_atom_site_fract_x
	_atom_site_fract_y
	_atom_site_fract_z
	H0	H	0.392013	0.854221	0.700276
	H1	H	0.603338	0.165291	0.703591
	H2	H	0.599456	0.853729	0.259722
	H3	H	0.392856	0.166979	0.259127
	H4	H	0.715549	0.407793	0.823641
	H5	H	0.719056	0.617214	0.138432
	H6	H	0.278480	0.611263	0.823248
	H7	H	0.276389	0.405408	0.139149
	H8	H	0.842131	0.734647	0.371971
	H9	H	0.152608	0.733102	0.585785
	H10	H	0.841390	0.288383	0.585073
	H11	H	0.152599	0.288098	0.374255
	H12	H	0.840508	0.406481	0.700764
	H13	H	0.153786	0.614362	0.700038
	H14	H	0.841472	0.617365	0.256626
	H15	H	0.152815	0.404830	0.258225
	H16	H	0.394879	0.727509	0.822669
	H17	H	0.602974	0.733266	0.137669
	H18	H	0.600654	0.289340	0.823992
	H19	H	0.392998	0.289874	0.138972
	H20	H	0.719718	0.855824	0.372516
	H21	H	0.719295	0.165369	0.585622
	H22	H	0.273940	0.855505	0.585498
	H23	H	0.275419	0.167030	0.374919
	H24	H	0.892535	0.352145	0.200876
	H25	H	0.101159	0.666651	0.202095
	H26	H	0.099119	0.352610	0.761111
	H27	H	0.895258	0.668025	0.761996
	H28	H	0.218225	0.904666	0.322837
	H29	H	0.217284	0.114485	0.637888
	H30	H	0.771897	0.119426	0.323795
	H31	H	0.775152	0.906237	0.635772
	H32	H	0.338565	0.229271	0.877412
	H33	H	0.654243	0.231496	0.085304
	H34	H	0.340273	0.789872	0.083925
	H35	H	0.653665	0.790215	0.875324
	H36	H	0.339744	0.906869	0.200287
	H37	H	0.654796	0.114670	0.200985
	H38	H	0.338225	0.111234	0.762167
	H39	H	0.653030	0.907728	0.760217
	H40	H	0.888987	0.234262	0.323422
	H41	H	0.101041	0.231204	0.638233
	H42	H	0.102841	0.787081	0.323717
	H43	H	0.890853	0.790024	0.636496
	H44	H	0.216597	0.352671	0.877138
	H45	H	0.219059	0.666155	0.086954
	H46	H	0.774784	0.352944	0.085975
	H47	H	0.778893	0.668178	0.877974
	H48	H	0.412355	0.121217	0.570666
	H49	H	0.581952	0.901913	0.561841
	H50	H	0.584875	0.121695	0.393950
	H51	H	0.404145	0.900246	0.397122
	H52	H	0.582678	0.419802	0.093463
	H53	H	0.585864	0.593172	0.870910
	H54	H	0.409683	0.600838	0.094350
	H55	H	0.407416	0.418207	0.868732
	H56	H	0.106862	0.594174	0.390681
	H57	H	0.882884	0.601655	0.572973
	H58	H	0.109260	0.421833	0.569508
	H59	H	0.887772	0.424978	0.394557
	H60	H	0.110512	0.420642	0.571737
	H61	H	0.884139	0.602749	0.568223
	H62	H	0.109020	0.601682	0.392008
	H63	H	0.883740	0.421345	0.388001
	H64	H	0.407027	0.600246	0.094437
	H65	H	0.582502	0.604510	0.868058
	H66	H	0.587411	0.421098	0.095648
	H67	H	0.404840	0.418258	0.867639
	H68	H	0.586505	0.122769	0.391908
	H69	H	0.593212	0.896303	0.568060
	H70	H	0.404098	0.122240	0.564649
	H71	H	0.403837	0.896799	0.386774
	H72	H	0.903974	0.623902	0.072800
	H73	H	0.083736	0.397993	0.070223
	H74	H	0.089422	0.623444	0.888613
	H75	H	0.904399	0.397852	0.892288
	H76	H	0.088963	0.919014	0.594559
	H77	H	0.080514	0.100886	0.368941
	H78	H	0.906404	0.097319	0.591801
	H79	H	0.910638	0.919394	0.366250
	H80	H	0.605331	0.098170	0.899618
	H81	H	0.386155	0.098826	0.067306
	H82	H	0.608034	0.924709	0.069077
	H83	H	0.382518	0.921017	0.884839
	H84	H	0.611362	0.919902	0.073898
	H85	H	0.385739	0.097787	0.071966
	H86	H	0.608354	0.093803	0.887014
	H87	H	0.381377	0.912109	0.891411
	H88	H	0.909862	0.096988	0.590059
	H89	H	0.087942	0.103167	0.365482
	H90	H	0.085823	0.926276	0.591051
	H91	H	0.905286	0.922827	0.365990
	H92	H	0.086056	0.621878	0.890877
	H93	H	0.085022	0.399451	0.066942
	H94	H	0.913205	0.620078	0.071622
	H95	H	0.905507	0.397608	0.888519
	H96	H	0.404105	0.126054	0.573994
	H97	H	0.580859	0.897626	0.574931
	H98	H	0.583940	0.122071	0.391160
	H99	H	0.412980	0.900004	0.391161
	H100	H	0.584952	0.424815	0.092454
	H101	H	0.593229	0.600843	0.865698
	H102	H	0.408659	0.598311	0.093606
	H103	H	0.405810	0.420885	0.868725
	H104	H	0.105364	0.597826	0.397927
	H105	H	0.884764	0.598529	0.569968
	H106	H	0.109976	0.419148	0.569179
	H107	H	0.885022	0.417113	0.395086
	H108	H	0.906516	0.619447	0.063990
	H109	H	0.087567	0.397118	0.069581
	H110	H	0.090193	0.623043	0.893082
	H111	H	0.907785	0.398578	0.891178
	H112	H	0.080623	0.919598	0.591213
	H113	H	0.086840	0.095302	0.369007
	H114	H	0.909114	0.100510	0.591976
	H115	H	0.910501	0.925402	0.368867
	H116	H	0.610995	0.106862	0.890428
	H117	H	0.384216	0.101959	0.070710
	H118	H	0.609010	0.917479	0.066971
	H119	H	0.386733	0.921620	0.895067
	C120	C	0.375101	0.019572	0.601439
	C121	C	0.617844	1.001547	0.601215
	C122	C	0.617529	0.019101	0.359174
	C123	C	0.374971	1.002210	0.358845
	C124	C	0.617090	0.389820	-0.010173
	C125	C	0.618973	0.631925	0.972341
	C126	C	0.376784	0.630440	-0.010386
	C127	C	0.374737	0.388051	0.972736
	C128	C	0.004558	0.631050	0.359790
	C129	C	0.988036	0.632414	0.601633
	C130	C	0.005767	0.388978	0.601672
	C131	C	0.988385	0.388811	0.359458
	C132	C	0.874854	0.518021	0.102508
	C133	C	0.117733	0.501596	0.101710
	C134	C	0.118984	0.518693	0.859151
	C135	C	0.875610	0.501956	0.859341
	C136	C	0.117834	0.888880	0.488431
	C137	C	0.117567	0.131826	0.471771
	C138	C	0.875030	0.132280	0.487877
	C139	C	0.875925	0.889832	0.470649
	C140	C	0.504483	0.131043	0.860056
	C141	C	0.488899	0.131953	0.102252
	C142	C	0.505450	0.888809	0.101809
	C143	C	0.487472	0.887646	0.858449
	C144	C	0.373113	0.901516	0.660816
	C145	C	0.621221	0.118698	0.662505
	C146	C	0.619056	0.900903	0.299306
	C147	C	0.373877	0.120157	0.299245
	C148	C	0.676290	0.388334	0.870817
	C149	C	0.679074	0.635023	0.090939
	C150	C	0.317668	0.630826	0.870781
	C151	C	0.315871	0.386717	0.091744
	C152	C	0.888344	0.693300	0.354802
	C153	C	0.105777	0.692625	0.603863
	C154	C	0.887980	0.328905	0.603496
	C155	C	0.105719	0.328063	0.355603
	C156	C	0.887619	0.387340	0.661000
	C157	C	0.106552	0.633534	0.660518
	C158	C	0.888097	0.634930	0.297406
	C159	C	0.106005	0.386384	0.298457
	C160	C	0.375485	0.688636	0.870359
	C161	C	0.621352	0.692773	0.090667
	C162	C	0.619146	0.329746	0.871115
	C163	C	0.373961	0.329287	0.091649
	C164	C	0.678452	0.901930	0.355427
	C165	C	0.678734	0.118924	0.604029
	C166	C	0.314695	0.902080	0.603533
	C167	C	0.315399	0.120068	0.356547
	C168	C	0.873088	0.399917	0.162134
	C169	C	0.119692	0.619578	0.161946
	C170	C	0.119120	0.400044	0.799979
	C171	C	0.875868	0.620674	0.801212
	C172	C	0.178224	0.886005	0.370210
	C173	C	0.177418	0.133410	0.590688
	C174	C	0.813099	0.136643	0.370629
	C175	C	0.815183	0.887560	0.588695
	C176	C	0.385761	0.189581	0.858708
	C177	C	0.607049	0.191725	0.103914
	C178	C	0.387284	0.829550	0.103163
	C179	C	0.606331	0.829972	0.857122
	C180	C	0.387136	0.887899	0.160766
	C181	C	0.607506	0.133412	0.161354
	C182	C	0.385543	0.131100	0.801304
	C183	C	0.605834	0.887891	0.799498
	C184	C	0.871383	0.193850	0.370539
	C185	C	0.119782	0.191336	0.590910
	C186	C	0.120801	0.827726	0.370487
	C187	C	0.872559	0.829638	0.588994
	C188	C	0.177065	0.399889	0.857925
	C189	C	0.178388	0.619345	0.104843
	C190	C	0.814676	0.400273	0.104708
	C191	C	0.817675	0.620502	0.858779
	C192	C	0.399873	0.101688	0.576817
	C193	C	0.592520	0.919783	0.575608
	C194	C	0.592171	0.100901	0.384868
	C195	C	0.399854	0.920159	0.384318
	C196	C	0.592283	0.414817	0.072299
	C197	C	0.594144	0.606722	0.889706
	C198	C	0.401474	0.606519	0.072641
	C199	C	0.398844	0.412219	0.889831
	C200	C	0.085948	0.605216	0.386219
	C201	C	0.905455	0.607999	0.577341
	C202	C	0.088425	0.413466	0.577293
	C203	C	0.906826	0.413844	0.385123
	C204	C	0.900462	0.600026	0.076808
	C205	C	0.092566	0.419691	0.076142
	C206	C	0.095305	0.601173	0.883835
	C207	C	0.899171	0.419481	0.883678
	C208	C	0.092506	0.914140	0.570701
	C209	C	0.092319	0.106802	0.389403
	C210	C	0.901157	0.105809	0.570027
	C211	C	0.901578	0.915003	0.388402
	C212	C	0.586669	0.106685	0.884890
	C213	C	0.406839	0.106874	0.077363
	C214	C	0.588094	0.913493	0.076992
	C215	C	0.404969	0.911284	0.883207
	Zn216	Zn	0.496146	0.010627	0.730729
	Zn217	Zn	0.497282	0.010845	0.230394
	Zn218	Zn	0.746698	0.510202	-0.018917
	Zn219	Zn	0.246837	0.509767	-0.018620
	Zn220	Zn	-0.003865	0.760926	0.479989
	Zn221	Zn	-0.002885	0.259991	0.480191
	Zn222	Zn	-0.002684	0.510374	0.730626
	Zn223	Zn	-0.003278	0.509765	0.230873
	Zn224	Zn	0.497627	0.760111	-0.019598
	Zn225	Zn	0.496709	0.260283	-0.018823
	Zn226	Zn	0.747003	0.010941	0.479185
	Zn227	Zn	0.245704	0.011209	0.479881
	N228	N	0.410231	0.975528	0.659420
	N229	N	0.584000	0.044717	0.660850
	N230	N	0.581936	0.974800	0.301348
	N231	N	0.409900	0.045753	0.300266
	N232	N	0.674847	0.425188	0.945356
	N233	N	0.677869	0.597942	0.016267
	N234	N	0.318371	0.595251	0.945923
	N235	N	0.316326	0.422631	0.016781
	N236	N	0.961739	0.690735	0.393126
	N237	N	0.030962	0.692302	0.568054
	N238	N	0.962605	0.329857	0.567416
	N239	N	0.031632	0.329294	0.392835
	N240	N	0.961974	0.423738	0.660082
	N241	N	0.032306	0.596810	0.659379
	N242	N	0.961480	0.596823	0.300355
	N243	N	0.032103	0.423296	0.300560
	N244	N	0.411485	0.688673	0.945409
	N245	N	0.584841	0.691103	0.015898
	N246	N	0.582943	0.330539	0.945974
	N247	N	0.409707	0.329810	0.016536
	N248	N	0.677616	0.976445	0.391752
	N249	N	0.676972	0.044950	0.566752
	N250	N	0.315642	0.976472	0.567330
	N251	N	0.315725	0.045531	0.392682
	N252	N	0.910009	0.474241	0.160701
	N253	N	0.082899	0.545501	0.160097
	N254	N	0.084070	0.475139	0.800303
	N255	N	0.910919	0.545860	0.801059
	N256	N	0.176774	0.923170	0.444685
	N257	N	0.176276	0.097367	0.515613
	N258	N	0.815223	0.098999	0.444783
	N259	N	0.817047	0.924297	0.514071
	N260	N	0.460906	0.190173	0.893998
	N261	N	0.532312	0.190896	0.068028
	N262	N	0.462137	0.829769	0.067545
	N263	N	0.531425	0.829273	0.892515
	N264	N	0.461789	0.923931	0.160084
	N265	N	0.533008	0.096965	0.160534
	N266	N	0.460444	0.095825	0.801732
	N267	N	0.530911	0.922997	0.799990
	N268	N	0.909251	0.191185	0.444682
	N269	N	0.083457	0.190700	0.515938
	N270	N	0.084077	0.829428	0.445078
	N271	N	0.909623	0.831007	0.514667
	N272	N	0.177419	0.474679	0.893687
	N273	N	0.177584	0.544769	0.068382
	N274	N	0.815298	0.475033	0.069040
	N275	N	0.817267	0.545603	0.894185
	O276	O	1.043739	0.986110	0.055341
	H277	H	1.043427	1.008541	0.057839
	H278	H	1.053166	0.995038	0.049916
	O279	O	0.089251	-0.063055	0.881026
	H280	H	0.084999	-0.056711	0.882408
	H281	H	0.084427	-0.053131	0.859275
	O282	O	0.313445	0.358328	0.410116
	H283	H	0.319657	0.369615	0.423476
	H284	H	0.315964	0.360309	0.419167
	O285	O	0.431996	0.509734	0.610286
	H286	H	0.438850	0.503195	0.587674
	H287	H	0.432089	0.521106	0.602537
	O288	O	1.716523	-0.451788	0.693272
	H289	H	1.715937	-0.418563	0.697079
	H290	H	1.735625	-0.438396	0.709463
	O291	O	1.096136	1.096008	0.769334
	H292	H	1.089655	1.092965	0.762903
	H293	H	1.088452	1.083466	0.753951
	O294	O	0.199118	-0.042719	0.173104
	H295	H	0.214181	-0.038466	0.179794
	H296	H	0.187372	-0.011258	0.161128
	O297	O	0.899692	0.184887	-0.030118
	H298	H	0.913188	0.185264	-0.036352
	H299	H	0.904139	0.172810	-0.008382
	O300	O	0.680390	0.322237	0.293022
	H301	H	0.675174	0.315227	0.321954
	H302	H	0.692989	0.335639	0.307004
	O303	O	-0.575858	-0.503943	-0.365486
	H304	H	-0.577875	-0.497430	-0.360928
	H305	H	-0.580955	-0.504935	-0.370206
	O306	O	0.798696	-0.185760	0.181920
	H307	H	0.810118	-0.184044	0.177730
	H308	H	0.812789	-0.182622	0.159751
	O309	O	0.350344	0.299938	0.476509
	H310	H	0.326165	0.300146	0.474265
	H311	H	0.372508	0.296092	0.464874
	O312	O	-0.214613	1.140989	0.803263
	H313	H	-0.235781	1.164643	0.777161
	H314	H	-0.201142	1.155413	0.816004
	O315	O	0.548391	0.457952	0.627545
	H316	H	0.562164	0.461780	0.628092
	H317	H	0.532809	0.461189	0.642479
	O318	O	0.987615	0.098456	0.198065
	H319	H	0.980892	0.092967	0.205615
	H320	H	0.972501	0.076857	0.194338
	O321	O	-0.179774	1.206652	0.919849
	H322	H	-0.180229	1.196221	0.943567
	H323	H	-0.197842	1.220696	0.913163
	O324	O	1.114346	0.169919	0.922772
	H325	H	1.123903	0.174463	0.915877
	H326	H	1.110915	0.165874	0.942929
	O327	O	0.433731	0.520689	0.489286
	H328	H	0.434294	0.514778	0.497938
	H329	H	0.417889	0.524750	0.492215
	O330	O	1.548867	1.288257	-0.454823
	H331	H	1.534420	1.309463	-0.451937
	H332	H	1.531299	1.278300	-0.429544
	O333	O	1.073758	0.217702	1.159094
	H334	H	1.064289	0.215375	1.165958
	H335	H	1.064111	0.211682	1.173903
	O336	O	0.149914	0.887000	0.057890
	H337	H	0.157580	0.893320	0.056962
	H338	H	0.153380	0.886995	0.048501
	O339	O	0.283535	0.485634	0.692577
	H340	H	0.259512	0.491958	0.702132
	H341	H	0.292138	0.487715	0.687191
	O342	O	-0.134565	1.165011	0.948307
	H343	H	-0.141250	1.162063	0.933866
	H344	H	-0.127866	1.180348	0.955556
	O345	O	1.040511	-0.198849	0.768919
	H346	H	1.066092	-0.203410	0.755259
	H347	H	1.035494	-0.198043	0.751057
	O348	O	0.214557	0.791865	-0.234042
	H349	H	0.244024	0.761791	-0.264101
	H350	H	0.206748	0.803403	-0.212915
	O351	O	-0.315436	0.322470	0.667995
	H352	H	-0.343882	0.335847	0.657690
	H353	H	-0.325899	0.345038	0.643928
	O354	O	0.812383	-0.090540	0.932009
	H355	H	0.812489	-0.079821	0.953330
	H356	H	0.806256	-0.101245	0.932783
	O357	O	0.297806	0.707530	0.290501
	H358	H	0.304936	0.729773	0.266672
	H359	H	0.322675	0.689192	0.279622
	O360	O	0.571556	0.621950	0.313319
	H361	H	0.576148	0.606833	0.307763
	H362	H	0.597201	0.607322	0.320746
	O363	O	0.081049	0.909828	1.185583
	H364	H	0.100780	0.914839	1.196579
	H365	H	0.086194	0.916423	1.186997
	O366	O	0.467952	0.481248	1.306723
	H367	H	0.462297	0.480787	1.301210
	H368	H	0.472739	0.472443	1.305718
	O369	O	0.261315	0.266992	0.713124
	H370	H	0.249209	0.256061	0.685607
	H371	H	0.265919	0.282738	0.723322
	O372	O	0.102738	0.969756	1.124951
	H373	H	0.107828	0.978327	1.110693
	H374	H	0.114221	0.987771	1.140340
	O375	O	0.984170	-0.042907	-0.195024
	H376	H	0.988786	-0.043932	-0.204456
	H377	H	0.979815	-0.030637	-0.185831
	O378	O	0.674178	0.589322	0.407504
	H379	H	0.670829	0.576818	0.412327
	H380	H	0.687703	0.614451	0.407545
	O381	O	-0.455205	0.430452	0.489570
	H382	H	-0.449571	0.430766	0.491058
	H383	H	-0.444510	0.442552	0.491071
	O384	O	1.175591	1.210697	1.128324
	H385	H	1.153606	1.224093	1.138292
	H386	H	1.187222	1.223795	1.130277
	O387	O	0.320309	1.700668	1.659934
	H388	H	0.332276	1.677526	1.642135
	H389	H	0.339934	1.696267	1.632372
	O390	O	-0.104853	1.045465	1.026184
	H391	H	-0.103611	1.030499	1.014462
	H392	H	-0.103324	1.043216	1.025858
	O393	O	0.978757	0.186011	-0.145427
	H394	H	0.971471	0.190522	-0.166153
	H395	H	0.974340	0.184198	-0.135991
	O396	O	0.496512	0.512914	0.535234
	H397	H	0.486577	0.513520	0.539701
	H398	H	0.506241	0.523904	0.542790
	O399	O	0.283010	0.726512	0.456458
	H400	H	0.272745	0.729875	0.426840
	H401	H	0.270607	0.743292	0.431669
	O402	O	0.801142	0.044631	1.185694
	H403	H	0.790149	0.029579	1.185819
	H404	H	0.804975	0.022851	1.194973
	O405	O	0.274382	0.544987	0.262870
	H406	H	0.265946	0.553232	0.246943
	H407	H	0.268130	0.550456	0.247527
	O408	O	1.000640	0.799860	1.007078
	H409	H	1.006016	0.800621	0.985441
	H410	H	1.014769	0.795839	1.008712
	O411	O	0.927832	0.807941	0.021549
	H412	H	0.920449	0.802039	0.015085
	H413	H	0.942409	0.800587	0.001728
	O414	O	0.052291	0.063045	-0.197083
	H415	H	0.056919	0.063088	-0.199967
	H416	H	0.050256	0.079636	-0.199135
	O417	O	0.198316	0.201163	0.949632
	H418	H	0.205829	0.215767	0.953595
	H419	H	0.192822	0.188835	0.947769
	O420	O	0.878849	-0.041737	0.953811
	H421	H	0.878836	-0.049548	0.942238
	H422	H	0.868283	-0.040626	0.942783
	O423	O	1.506201	0.678168	0.439291
	H424	H	1.493612	0.661329	0.428975
	H425	H	1.520968	0.682052	0.422625
	O426	O	0.697613	0.302408	0.454939
	H427	H	0.701088	0.284477	0.467485
	H428	H	0.682539	0.302599	0.476012
	O429	O	0.952823	1.129604	0.107590
	H430	H	0.944917	1.112204	0.093292
	H431	H	0.959733	1.130942	0.112398
	O432	O	1.522762	-0.398508	1.356699
	H433	H	1.515960	-0.387714	1.344535
	H434	H	1.526315	-0.402040	1.367384
	O435	O	-0.635951	-0.683294	0.344299
	H436	H	-0.628565	-0.673916	0.343527
	H437	H	-0.609325	-0.683184	0.351302
	O438	O	0.459101	0.727467	0.265223
	H439	H	0.479921	0.734356	0.255862
	H440	H	0.477075	0.731448	0.260688
	O441	O	0.724957	0.500413	0.474878
	H442	H	0.721995	0.488358	0.473486
	H443	H	0.727581	0.491937	0.464541
	O444	O	0.520259	0.295900	0.266435
	H445	H	0.545761	0.312041	0.275946
	H446	H	0.532908	0.267581	0.245401
	O447	O	0.720147	0.480052	0.259532
	H448	H	0.727728	0.454673	0.254845
	H449	H	0.739725	0.485440	0.243476
	O450	O	1.477973	-0.282104	0.585371
	H451	H	1.476975	-0.278850	0.559982
	H452	H	1.469622	-0.275006	0.577857
	O453	O	0.805226	-0.164331	0.798810
	H454	H	0.823845	-0.147264	0.807039
	H455	H	0.798649	-0.156804	0.795609
	O456	O	-0.195455	0.965296	0.837419
	H457	H	-0.206917	0.983315	0.812822
	H458	H	-0.189350	0.979990	0.844312
	O459	O	0.699386	0.714691	0.610471
	H460	H	0.669672	0.714374	0.609299
	H461	H	0.721699	0.738220	0.612968
	O462	O	0.471812	0.284374	0.702021
	H463	H	0.437211	0.307625	0.692913
	H464	H	0.462078	0.252128	0.739204
	O465	O	0.651551	0.715703	0.482046
	H466	H	0.675182	0.724218	0.491046
	H467	H	0.655786	0.714316	0.488493
	O468	O	0.206787	0.828387	-0.087661
	H469	H	0.215218	0.818030	-0.091784
	H470	H	0.211987	0.833710	-0.101385
	O471	O	0.276891	0.520365	0.482928
	H472	H	0.277175	0.529940	0.473097
	H473	H	0.284429	0.516240	0.484147
	O474	O	1.022353	0.880380	0.108906
	H475	H	1.019589	0.885343	0.107242
	H476	H	1.026759	0.877777	0.091918
	O477	O	-0.409199	-0.274665	0.692979
	H478	H	-0.416143	-0.263196	0.678469
	H479	H	-0.438906	-0.265747	0.697658
