data_Molecule from HDF5

_cell_length_a		16.361970
_cell_length_b		16.266683
_cell_length_c		16.312180
_cell_angle_alpha	89.969035
_cell_angle_beta	90.223140
_cell_angle_gamma	90.026821
_symmetry_space_group_name_H-M	'P 1'
_symmetry_Int_Tables_number		1

loop_
	_symmetry_equiv_pos_as_xyz
	x,y,z

loop_
	_atom_site_label
	_atom_site_type_symbol
	_atom_site_fract_x
	_atom_site_fract_y
	_atom_site_fract_z
	H0	H	0.401307	0.841628	0.717966
	H1	H	0.597674	0.168926	0.718377
	H2	H	0.597417	0.841974	0.290270
	H3	H	0.400239	0.169549	0.289184
	H4	H	0.713808	0.406104	0.841011
	H5	H	0.716285	0.605527	0.166881
	H6	H	0.283817	0.605757	0.840382
	H7	H	0.285310	0.407540	0.167230
	H8	H	0.836072	0.719166	0.405140
	H9	H	0.163181	0.720507	0.602449
	H10	H	0.835665	0.293238	0.599184
	H11	H	0.162822	0.291118	0.405687
	H12	H	0.836125	0.407390	0.717432
	H13	H	0.162211	0.604829	0.719812
	H14	H	0.836403	0.603966	0.288274
	H15	H	0.162684	0.407928	0.290043
	H16	H	0.402431	0.720153	0.840631
	H17	H	0.598484	0.720288	0.167749
	H18	H	0.596852	0.291235	0.840872
	H19	H	0.402523	0.291938	0.168047
	H20	H	0.714695	0.842310	0.405063
	H21	H	0.714102	0.169568	0.603275
	H22	H	0.284003	0.842093	0.602849
	H23	H	0.283559	0.168896	0.404385
	H24	H	0.901581	0.341945	0.217528
	H25	H	0.097810	0.670162	0.217680
	H26	H	0.094983	0.341591	0.791176
	H27	H	0.900621	0.670037	0.789365
	H28	H	0.212661	0.906913	0.340183
	H29	H	0.214681	0.105177	0.667134
	H30	H	0.783110	0.104952	0.341520
	H31	H	0.785391	0.906456	0.667339
	H32	H	0.336642	0.219515	0.905621
	H33	H	0.662520	0.220530	0.102526
	H34	H	0.336631	0.791347	0.101800
	H35	H	0.663180	0.792077	0.907015
	H36	H	0.336966	0.907110	0.217610
	H37	H	0.661775	0.106093	0.221220
	H38	H	0.337033	0.104767	0.788399
	H39	H	0.662377	0.906869	0.789060
	H40	H	0.901105	0.219279	0.340138
	H41	H	0.097733	0.220229	0.667664
	H42	H	0.095068	0.792147	0.339859
	H43	H	0.902626	0.791551	0.666792
	H44	H	0.212722	0.341684	0.906507
	H45	H	0.213938	0.669899	0.101801
	H46	H	0.785421	0.342114	0.101929
	H47	H	0.784517	0.669523	0.904468
	H48	H	0.400632	0.124037	0.599044
	H49	H	0.597891	0.889218	0.592888
	H50	H	0.584575	0.119917	0.411284
	H51	H	0.404297	0.885903	0.401242
	H52	H	0.591349	0.406336	0.122042
	H53	H	0.598687	0.601297	0.885104
	H54	H	0.406519	0.597350	0.119100
	H55	H	0.404004	0.414807	0.888258
	H56	H	0.113553	0.597984	0.415236
	H57	H	0.881179	0.604001	0.602355
	H58	H	0.117597	0.403684	0.598582
	H59	H	0.887979	0.416968	0.419808
	H60	H	0.111992	0.415865	0.590556
	H61	H	0.885959	0.601967	0.588195
	H62	H	0.115101	0.595187	0.406590
	H63	H	0.883268	0.419562	0.399919
	H64	H	0.407916	0.599005	0.119361
	H65	H	0.591114	0.591143	0.890611
	H66	H	0.599769	0.416921	0.121158
	H67	H	0.407725	0.411764	0.888399
	H68	H	0.594189	0.120190	0.418711
	H69	H	0.593070	0.887101	0.602952
	H70	H	0.412304	0.121472	0.600352
	H71	H	0.415562	0.894039	0.414834
	H72	H	0.914493	0.617362	0.087643
	H73	H	0.094581	0.388399	0.097697
	H74	H	0.083695	0.621480	0.904581
	H75	H	0.901756	0.386764	0.905726
	H76	H	0.103992	0.920132	0.620785
	H77	H	0.091890	0.098169	0.388278
	H78	H	0.907472	0.098763	0.619768
	H79	H	0.899296	0.909141	0.385003
	H80	H	0.616921	0.098072	0.907607
	H81	H	0.380125	0.110607	0.096454
	H82	H	0.617668	0.913420	0.104217
	H83	H	0.384812	0.915008	0.910318
	H84	H	0.616070	0.907360	0.095207
	H85	H	0.388430	0.092889	0.086683
	H86	H	0.616018	0.101721	0.912946
	H87	H	0.383102	0.912818	0.907561
	H88	H	0.906098	0.099603	0.620489
	H89	H	0.091266	0.098665	0.388009
	H90	H	0.081791	0.919337	0.614452
	H91	H	0.903863	0.919103	0.388534
	H92	H	0.091546	0.619098	0.922572
	H93	H	0.093544	0.389558	0.097863
	H94	H	0.895861	0.624638	0.093476
	H95	H	0.911456	0.390491	0.908450
	H96	H	0.406695	0.120226	0.589239
	H97	H	0.587036	0.891415	0.593909
	H98	H	0.595634	0.124533	0.407323
	H99	H	0.397284	0.889255	0.419129
	H100	H	0.587101	0.418280	0.116850
	H101	H	0.585981	0.603690	0.889108
	H102	H	0.405726	0.598759	0.120619
	H103	H	0.403226	0.410510	0.886226
	H104	H	0.116862	0.604343	0.409174
	H105	H	0.886033	0.590476	0.597747
	H106	H	0.116218	0.417946	0.604761
	H107	H	0.880286	0.401469	0.408754
	H108	H	0.910812	0.624225	0.107070
	H109	H	0.094276	0.389248	0.097127
	H110	H	0.102819	0.626213	0.907763
	H111	H	0.903648	0.390633	0.915793
	H112	H	0.092666	0.899898	0.623564
	H113	H	0.092033	0.099397	0.387847
	H114	H	0.906413	0.097545	0.620169
	H115	H	0.910519	0.909635	0.387877
	H116	H	0.614003	0.096078	0.912988
	H117	H	0.382711	0.091662	0.107472
	H118	H	0.613091	0.918273	0.095439
	H119	H	0.383691	0.911249	0.911525
	C120	C	0.377953	0.013819	0.625012
	C121	C	0.621216	0.997318	0.625564
	C122	C	0.620634	0.013786	0.383228
	C123	C	0.376974	0.997324	0.382231
	C124	C	0.620938	0.384858	0.012146
	C125	C	0.621478	0.627668	0.995927
	C126	C	0.378128	0.627357	0.011930
	C127	C	0.377563	0.384179	0.995888
	C128	C	0.007324	0.627364	0.381604
	C129	C	0.991936	0.627776	0.625331
	C130	C	0.007362	0.384513	0.625184
	C131	C	0.991581	0.384119	0.381851
	C132	C	0.878787	0.513775	0.124281
	C133	C	0.121808	0.497545	0.125757
	C134	C	0.120667	0.514068	0.882760
	C135	C	0.877327	0.497881	0.881793
	C136	C	0.120738	0.884258	0.511800
	C137	C	0.120730	0.127496	0.495860
	C138	C	0.877931	0.127345	0.512322
	C139	C	0.877289	0.884325	0.495181
	C140	C	0.507827	0.127226	0.882366
	C141	C	0.491285	0.127285	0.125823
	C142	C	0.507988	0.884144	0.126067
	C143	C	0.491490	0.884267	0.881991
	C144	C	0.380461	0.890597	0.680176
	C145	C	0.618393	0.120621	0.680194
	C146	C	0.617916	0.890704	0.328225
	C147	C	0.379605	0.120395	0.326514
	C148	C	0.675413	0.386697	0.889553
	C149	C	0.677719	0.625608	0.118335
	C150	C	0.322447	0.625586	0.889172
	C151	C	0.323117	0.386677	0.118702
	C152	C	0.884698	0.681476	0.384621
	C153	C	0.114240	0.682775	0.622946
	C154	C	0.884514	0.329924	0.621221
	C155	C	0.114314	0.329415	0.385515
	C156	C	0.884734	0.387016	0.679631
	C157	C	0.113801	0.625312	0.681436
	C158	C	0.885079	0.624475	0.326019
	C159	C	0.114308	0.387259	0.327828
	C160	C	0.381156	0.682473	0.889062
	C161	C	0.619007	0.682555	0.118878
	C162	C	0.617626	0.329173	0.889635
	C163	C	0.381286	0.329356	0.119140
	C164	C	0.676404	0.890985	0.385107
	C165	C	0.676488	0.120453	0.623472
	C166	C	0.322185	0.890863	0.623024
	C167	C	0.321521	0.120365	0.383746
	C168	C	0.881537	0.390500	0.179059
	C169	C	0.118246	0.621161	0.180122
	C170	C	0.116657	0.390428	0.828566
	C171	C	0.880038	0.620879	0.826801
	C172	C	0.175033	0.886451	0.388898
	C173	C	0.176305	0.125270	0.618611
	C174	C	0.821814	0.125039	0.389881
	C175	C	0.823302	0.886500	0.618476
	C176	C	0.385349	0.182202	0.884576
	C177	C	0.613859	0.182702	0.123540
	C178	C	0.385130	0.829438	0.122066
	C179	C	0.614269	0.829425	0.885486
	C180	C	0.385356	0.886688	0.180025
	C181	C	0.613358	0.125834	0.182224
	C182	C	0.385683	0.124937	0.826334
	C183	C	0.614008	0.886718	0.827377
	C184	C	0.880143	0.182369	0.389315
	C185	C	0.118230	0.182378	0.618850
	C186	C	0.116571	0.829674	0.388537
	C187	C	0.881525	0.829584	0.618419
	C188	C	0.175291	0.390649	0.885417
	C189	C	0.176150	0.621123	0.122836
	C190	C	0.823479	0.390818	0.121886
	C191	C	0.822247	0.620568	0.883903
	C192	C	0.400024	0.099730	0.602727
	C193	C	0.599061	0.911431	0.603275
	C194	C	0.598036	0.099476	0.405679
	C195	C	0.399271	0.911774	0.404844
	C196	C	0.599116	0.407251	0.097937
	C197	C	0.598626	0.605285	0.910386
	C198	C	0.400252	0.604819	0.097549
	C199	C	0.398740	0.405889	0.910012
	C200	C	0.093129	0.605682	0.403843
	C201	C	0.906294	0.605414	0.602751
	C202	C	0.093146	0.406195	0.604218
	C203	C	0.905931	0.405965	0.403163
	C204	C	0.900678	0.599749	0.102392
	C205	C	0.100457	0.411524	0.104053
	C206	C	0.098994	0.599952	0.905022
	C207	C	0.899202	0.411582	0.903554
	C208	C	0.099169	0.906566	0.597359
	C209	C	0.098367	0.105286	0.410272
	C210	C	0.900235	0.105303	0.598074
	C211	C	0.898241	0.906151	0.409303
	C212	C	0.593656	0.105221	0.904696
	C213	C	0.405873	0.105066	0.103254
	C214	C	0.593507	0.906476	0.104593
	C215	C	0.405998	0.906452	0.903545
	Zn216	Zn	0.500076	0.005723	0.753304
	Zn217	Zn	0.499533	0.005423	0.254596
	Zn218	Zn	0.749845	0.505767	0.003428
	Zn219	Zn	0.249573	0.506107	0.003961
	Zn220	Zn	-0.000899	0.756181	0.503292
	Zn221	Zn	-0.000651	0.255680	0.504012
	Zn222	Zn	-0.000868	0.505929	0.754070
	Zn223	Zn	-0.000038	0.505527	0.253241
	Zn224	Zn	0.499567	0.756112	0.003869
	Zn225	Zn	0.499283	0.256028	0.004131
	Zn226	Zn	0.749447	0.005779	0.504529
	Zn227	Zn	0.249041	0.006271	0.503507
	N228	N	0.414604	0.967946	0.681430
	N229	N	0.584691	0.043094	0.681597
	N230	N	0.583743	0.967961	0.327163
	N231	N	0.413479	0.042937	0.325461
	N232	N	0.677409	0.420668	0.966743
	N233	N	0.679326	0.592205	0.040851
	N234	N	0.320579	0.592070	0.966645
	N235	N	0.320782	0.419839	0.041219
	N236	N	0.961677	0.683219	0.418507
	N237	N	0.037256	0.684270	0.588663
	N238	N	0.961688	0.328175	0.588328
	N239	N	0.036924	0.327463	0.418447
	N240	N	0.962100	0.420320	0.682134
	N241	N	0.036544	0.591943	0.682884
	N242	N	0.962423	0.591361	0.324251
	N243	N	0.037062	0.420508	0.325391
	N244	N	0.415037	0.683698	0.966184
	N245	N	0.584673	0.683916	0.041727
	N246	N	0.584445	0.327927	0.966981
	N247	N	0.414493	0.327667	0.041694
	N248	N	0.678016	0.968546	0.418655
	N249	N	0.677939	0.042880	0.589869
	N250	N	0.320571	0.968468	0.589411
	N251	N	0.319802	0.043165	0.417657
	N252	N	0.915011	0.467933	0.180862
	N253	N	0.085212	0.543309	0.182090
	N254	N	0.083563	0.468138	0.826652
	N255	N	0.913592	0.543281	0.825273
	N256	N	0.177714	0.919793	0.466410
	N257	N	0.178011	0.091846	0.541133
	N258	N	0.820663	0.091474	0.467273
	N259	N	0.820598	0.919736	0.540970
	N260	N	0.462310	0.183949	0.918458
	N261	N	0.536906	0.183820	0.089176
	N262	N	0.462563	0.827512	0.089308
	N263	N	0.537012	0.827828	0.918741
	N264	N	0.462607	0.919963	0.182424
	N265	N	0.536295	0.092210	0.183740
	N266	N	0.462956	0.091445	0.824965
	N267	N	0.536804	0.919930	0.824978
	N268	N	0.914326	0.183852	0.466559
	N269	N	0.084440	0.183851	0.541658
	N270	N	0.083389	0.828343	0.465836
	N271	N	0.914235	0.827865	0.540874
	N272	N	0.177740	0.468383	0.918567
	N273	N	0.178633	0.543479	0.089735
	N274	N	0.821807	0.468423	0.088370
	N275	N	0.820371	0.542999	0.917214
	O276	O	0.047809	0.055698	1.021255
	H277	H	0.047896	0.058741	1.022656
	H278	H	0.051578	0.063644	1.025654
	O279	O	1.060583	0.085357	0.012778
	H280	H	1.062090	0.087258	0.010255
	H281	H	1.060804	0.090684	0.017452
	O282	O	0.548382	0.518942	0.537483
	H283	H	0.555868	0.519224	0.546818
	H284	H	0.541945	0.525872	0.534628
	O285	O	0.498449	0.574500	0.537128
	H286	H	0.496367	0.575902	0.537477
	H287	H	0.492442	0.575008	0.536457
	O288	O	0.499465	0.523226	0.526731
	H289	H	0.503624	0.520644	0.526060
	H290	H	0.500649	0.511193	0.528917
	O291	O	-0.467402	0.528802	0.530919
	H292	H	-0.459448	0.530927	0.534292
	H293	H	-0.461419	0.529791	0.529849
	O294	O	0.514987	0.545321	0.533531
	H295	H	0.516900	0.553200	0.533404
	H296	H	0.502637	0.546699	0.529279
	O297	O	1.047401	0.092681	0.015114
	H298	H	1.050418	0.089422	0.017527
	H299	H	1.045898	0.095356	0.011243
