data_Molecule from HDF5

_cell_length_a		16.373756
_cell_length_b		16.345299
_cell_length_c		16.321051
_cell_angle_alpha	90.154413
_cell_angle_beta	90.110565
_cell_angle_gamma	90.054456
_symmetry_space_group_name_H-M	'P 1'
_symmetry_Int_Tables_number		1

loop_
	_symmetry_equiv_pos_as_xyz
	x,y,z

loop_
	_atom_site_label
	_atom_site_type_symbol
	_atom_site_fract_x
	_atom_site_fract_y
	_atom_site_fract_z
	H0	H	0.406090	0.842030	0.727548
	H1	H	0.610758	0.163383	0.731113
	H2	H	0.606924	0.842180	0.292796
	H3	H	0.404849	0.164805	0.293995
	H4	H	0.723030	0.398900	0.850572
	H5	H	0.722942	0.606797	0.172685
	H6	H	0.286293	0.603681	0.849076
	H7	H	0.286986	0.402104	0.173181
	H8	H	0.844022	0.721994	0.409033
	H9	H	0.165826	0.721548	0.615633
	H10	H	0.844922	0.283066	0.612734
	H11	H	0.165586	0.284057	0.407656
	H12	H	0.843842	0.399600	0.728241
	H13	H	0.165339	0.604503	0.731524
	H14	H	0.843669	0.605744	0.292600
	H15	H	0.165959	0.401893	0.293498
	H16	H	0.403054	0.718870	0.848304
	H17	H	0.605759	0.721559	0.172691
	H18	H	0.608090	0.283597	0.850607
	H19	H	0.402579	0.285584	0.172871
	H20	H	0.723585	0.841787	0.407494
	H21	H	0.724349	0.164093	0.613116
	H22	H	0.288360	0.842390	0.613105
	H23	H	0.286627	0.164029	0.408610
	H24	H	0.903725	0.340512	0.227909
	H25	H	0.105280	0.665425	0.229216
	H26	H	0.106799	0.341422	0.791933
	H27	H	0.902092	0.664274	0.793909
	H28	H	0.223209	0.900238	0.350290
	H29	H	0.224362	0.106254	0.672816
	H30	H	0.786445	0.104866	0.350332
	H31	H	0.786455	0.898544	0.672160
	H32	H	0.344220	0.220355	0.909138
	H33	H	0.665825	0.223338	0.115372
	H34	H	0.343582	0.786165	0.111642
	H35	H	0.665618	0.783256	0.908179
	H36	H	0.345089	0.901300	0.229302
	H37	H	0.667214	0.105626	0.229110
	H38	H	0.345817	0.106747	0.790402
	H39	H	0.667563	0.900823	0.793768
	H40	H	0.904405	0.219369	0.348973
	H41	H	0.108795	0.221859	0.672614
	H42	H	0.106010	0.784938	0.350363
	H43	H	0.902727	0.785307	0.672726
	H44	H	0.224492	0.342135	0.906461
	H45	H	0.222784	0.664768	0.114378
	H46	H	0.786143	0.341324	0.112817
	H47	H	0.787673	0.665123	0.911091
	H48	H	0.413328	0.119599	0.603345
	H49	H	0.600416	0.887916	0.599058
	H50	H	0.593599	0.115683	0.422567
	H51	H	0.418806	0.888617	0.415708
	H52	H	0.590533	0.402500	0.127611
	H53	H	0.597475	0.596724	0.895213
	H54	H	0.414029	0.600469	0.127875
	H55	H	0.411781	0.409440	0.896060
	H56	H	0.120005	0.604483	0.426660
	H57	H	0.888689	0.592830	0.608740
	H58	H	0.117110	0.413647	0.595603
	H59	H	0.889097	0.404265	0.422070
	H60	H	0.118101	0.418245	0.605167
	H61	H	0.889402	0.601583	0.600222
	H62	H	0.114294	0.584355	0.426570
	H63	H	0.892825	0.415756	0.425405
	H64	H	0.407855	0.593251	0.126479
	H65	H	0.597593	0.590698	0.896331
	H66	H	0.606681	0.417161	0.129013
	H67	H	0.412284	0.414714	0.897486
	H68	H	0.599392	0.118040	0.424294
	H69	H	0.598797	0.886594	0.606271
	H70	H	0.418895	0.117852	0.602123
	H71	H	0.416508	0.890939	0.425120
	H72	H	0.911489	0.616910	0.098955
	H73	H	0.092042	0.388068	0.107454
	H74	H	0.101912	0.619282	0.921889
	H75	H	0.916918	0.389478	0.921654
	H76	H	0.099302	0.908602	0.628530
	H77	H	0.100979	0.095758	0.394814
	H78	H	0.910779	0.101903	0.630140
	H79	H	0.905959	0.909281	0.392526
	H80	H	0.621389	0.094711	0.918137
	H81	H	0.393926	0.088208	0.098249
	H82	H	0.622804	0.906938	0.105918
	H83	H	0.391233	0.910951	0.917653
	H84	H	0.617646	0.910505	0.093953
	H85	H	0.388822	0.093640	0.109393
	H86	H	0.618587	0.097053	0.924601
	H87	H	0.392016	0.911518	0.920856
	H88	H	0.910908	0.083571	0.623313
	H89	H	0.097082	0.086575	0.398816
	H90	H	0.100138	0.915684	0.626347
	H91	H	0.915798	0.920632	0.399685
	H92	H	0.088438	0.617557	0.915972
	H93	H	0.093629	0.391094	0.096559
	H94	H	0.911536	0.619156	0.105279
	H95	H	0.909049	0.388011	0.923047
	H96	H	0.415174	0.117268	0.597506
	H97	H	0.593421	0.889036	0.602411
	H98	H	0.597023	0.118286	0.418223
	H99	H	0.409188	0.887162	0.418760
	H100	H	0.587499	0.422748	0.120119
	H101	H	0.592202	0.594319	0.897107
	H102	H	0.416651	0.592552	0.123641
	H103	H	0.416784	0.411681	0.897586
	H104	H	0.122637	0.592930	0.408937
	H105	H	0.892590	0.590046	0.597780
	H106	H	0.122341	0.408241	0.603466
	H107	H	0.889237	0.413653	0.413360
	H108	H	0.916567	0.615982	0.102751
	H109	H	0.102778	0.386471	0.102996
	H110	H	0.091303	0.612652	0.929247
	H111	H	0.912910	0.386221	0.915718
	H112	H	0.093838	0.912265	0.625716
	H113	H	0.091011	0.094967	0.397828
	H114	H	0.926861	0.094252	0.622228
	H115	H	0.921856	0.905117	0.397343
	H116	H	0.618312	0.090038	0.922662
	H117	H	0.390384	0.100999	0.098330
	H118	H	0.618696	0.919771	0.104377
	H119	H	0.391318	0.914173	0.918282
	C120	C	0.385367	0.011859	0.632077
	C121	C	0.628517	0.994202	0.633082
	C122	C	0.627201	0.011381	0.389903
	C123	C	0.383965	0.994997	0.389185
	C124	C	0.625770	0.382381	0.019596
	C125	C	0.625984	0.624639	1.002974
	C126	C	0.382512	0.625066	0.019145
	C127	C	0.382906	0.381636	1.003302
	C128	C	0.012795	0.624546	0.389805
	C129	C	0.996272	0.625302	0.633705
	C130	C	0.013309	0.381736	0.632133
	C131	C	0.996524	0.381009	0.389464
	C132	C	0.882962	0.510626	0.132720
	C133	C	0.126524	0.495253	0.133355
	C134	C	0.125092	0.510443	0.890720
	C135	C	0.882379	0.494616	0.889611
	C136	C	0.127477	0.881232	0.520189
	C137	C	0.127406	0.124166	0.503275
	C138	C	0.884744	0.124053	0.518963
	C139	C	0.883822	0.881137	0.502953
	C140	C	0.513798	0.124666	0.889951
	C141	C	0.497503	0.125084	0.132958
	C142	C	0.513312	0.882264	0.131654
	C143	C	0.497490	0.881214	0.888776
	C144	C	0.386138	0.890416	0.689256
	C145	C	0.629055	0.115627	0.691244
	C146	C	0.626679	0.890234	0.331543
	C147	C	0.384609	0.116272	0.332124
	C148	C	0.683997	0.380564	0.898639
	C149	C	0.683707	0.625434	0.124387
	C150	C	0.325147	0.623730	0.897380
	C151	C	0.325675	0.382083	0.124760
	C152	C	0.892182	0.682953	0.389349
	C153	C	0.117547	0.682689	0.634657
	C154	C	0.892996	0.322505	0.632148
	C155	C	0.117670	0.323391	0.388957
	C156	C	0.892204	0.380756	0.689378
	C157	C	0.117222	0.624646	0.692476
	C158	C	0.891596	0.624820	0.331816
	C159	C	0.117886	0.382029	0.332247
	C160	C	0.383219	0.680964	0.896946
	C161	C	0.625389	0.682497	0.124398
	C162	C	0.626418	0.323218	0.898758
	C163	C	0.382914	0.324041	0.124637
	C164	C	0.684491	0.889945	0.388929
	C165	C	0.685888	0.115774	0.632829
	C166	C	0.327950	0.890596	0.631971
	C167	C	0.325911	0.115834	0.389253
	C168	C	0.883891	0.389128	0.189567
	C169	C	0.125637	0.616838	0.190948
	C170	C	0.125872	0.389515	0.831541
	C171	C	0.882670	0.615890	0.832623
	C172	C	0.184623	0.880933	0.398785
	C173	C	0.185391	0.125118	0.624506
	C174	C	0.826041	0.124113	0.398238
	C175	C	0.825712	0.880460	0.623998
	C176	C	0.392657	0.181974	0.889599
	C177	C	0.618104	0.183691	0.133898
	C178	C	0.392101	0.824701	0.131473
	C179	C	0.618009	0.822819	0.889216
	C180	C	0.392774	0.882265	0.189694
	C181	C	0.618683	0.125057	0.190525
	C182	C	0.393527	0.125433	0.830487
	C183	C	0.618817	0.881441	0.832184
	C184	C	0.884694	0.181078	0.397588
	C185	C	0.127764	0.182759	0.624371
	C186	C	0.126216	0.823776	0.398551
	C187	C	0.883504	0.823749	0.624244
	C188	C	0.184407	0.390029	0.888797
	C189	C	0.183766	0.616681	0.133480
	C190	C	0.825292	0.389313	0.132441
	C191	C	0.825763	0.616421	0.891093
	C192	C	0.409136	0.096393	0.608147
	C193	C	0.604610	0.909834	0.609500
	C194	C	0.603484	0.095524	0.414456
	C195	C	0.407885	0.910764	0.412871
	C196	C	0.601788	0.406923	0.103731
	C197	C	0.602584	0.600718	0.918296
	C198	C	0.405986	0.602133	0.103830
	C199	C	0.406723	0.405272	0.918936
	C200	C	0.096883	0.600838	0.413662
	C201	C	0.912213	0.601672	0.609333
	C202	C	0.097263	0.406448	0.608332
	C203	C	0.912293	0.404272	0.413365
	C204	C	0.906443	0.595383	0.109226
	C205	C	0.102926	0.410544	0.109331
	C206	C	0.100976	0.594486	0.915249
	C207	C	0.905882	0.409905	0.913303
	C208	C	0.104353	0.905158	0.604822
	C209	C	0.103220	0.099518	0.419024
	C210	C	0.909138	0.100127	0.603468
	C211	C	0.907633	0.904919	0.418471
	C212	C	0.597733	0.100870	0.914650
	C213	C	0.412825	0.101224	0.108940
	C214	C	0.597749	0.905648	0.108161
	C215	C	0.413248	0.905289	0.912093
	Zn216	Zn	0.506837	0.003406	0.760680
	Zn217	Zn	0.506312	0.003299	0.261076
	Zn218	Zn	0.754208	0.502969	0.011118
	Zn219	Zn	0.254453	0.503425	0.011336
	Zn220	Zn	0.005095	0.753422	0.511841
	Zn221	Zn	0.005759	0.252858	0.511079
	Zn222	Zn	0.003836	0.502554	0.761638
	Zn223	Zn	0.004701	0.502733	0.261351
	Zn224	Zn	0.504288	0.752845	0.010503
	Zn225	Zn	0.504888	0.253559	0.011424
	Zn226	Zn	0.755952	0.002137	0.511061
	Zn227	Zn	0.255961	0.003121	0.511381
	N228	N	0.421138	0.966976	0.689298
	N229	N	0.594191	0.039133	0.691612
	N230	N	0.591868	0.966720	0.332095
	N231	N	0.419934	0.040102	0.331855
	N232	N	0.683369	0.417005	0.974552
	N233	N	0.684220	0.590211	0.047871
	N234	N	0.324588	0.589911	0.974287
	N235	N	0.325569	0.417224	0.048315
	N236	N	0.968551	0.682897	0.424987
	N237	N	0.041357	0.683466	0.599056
	N238	N	0.969323	0.323061	0.597195
	N239	N	0.041225	0.322621	0.423896
	N240	N	0.968174	0.416661	0.689655
	N241	N	0.040899	0.589678	0.691758
	N242	N	0.967569	0.589249	0.331911
	N243	N	0.041646	0.417181	0.332454
	N244	N	0.417948	0.682254	0.973827
	N245	N	0.590280	0.682170	0.047880
	N246	N	0.591004	0.324012	0.975037
	N247	N	0.417787	0.323587	0.048088
	N248	N	0.684779	0.966036	0.424833
	N249	N	0.685799	0.039218	0.597535
	N250	N	0.327344	0.967151	0.597251
	N251	N	0.325309	0.039321	0.423860
	N252	N	0.918787	0.465613	0.189751
	N253	N	0.090846	0.540193	0.191091
	N254	N	0.089565	0.465265	0.832709
	N255	N	0.917037	0.539209	0.831653
	N256	N	0.185495	0.915859	0.475447
	N257	N	0.185343	0.089442	0.548145
	N258	N	0.826165	0.089144	0.474729
	N259	N	0.825797	0.915524	0.547547
	N260	N	0.468495	0.181721	0.925809
	N261	N	0.541651	0.183790	0.098952
	N262	N	0.468241	0.824592	0.096253
	N263	N	0.541613	0.822669	0.923766
	N264	N	0.469167	0.917157	0.190139
	N265	N	0.542462	0.089548	0.190236
	N266	N	0.469859	0.090465	0.830615
	N267	N	0.542717	0.916989	0.831669
	N268	N	0.920527	0.180929	0.473748
	N269	N	0.092445	0.182349	0.547968
	N270	N	0.091653	0.823662	0.475173
	N271	N	0.918843	0.823914	0.547970
	N272	N	0.184019	0.466127	0.924868
	N273	N	0.184379	0.540047	0.098481
	N274	N	0.824425	0.466038	0.097904
	N275	N	0.825198	0.539695	0.925473
	O276	O	0.048140	0.024950	-0.126027
	H277	H	0.055297	0.019484	-0.125871
	H278	H	0.064555	0.017936	-0.125786
	O279	O	0.551233	0.683896	0.540835
	H280	H	0.546056	0.696668	0.526919
	H281	H	0.556166	0.679659	0.539323
	O282	O	0.651060	-0.508025	0.565165
	H283	H	0.653105	-0.499119	0.572779
	H284	H	0.653275	-0.498384	0.553089
	O285	O	0.587586	0.448033	0.665261
	H286	H	0.588049	0.448031	0.674563
	H287	H	0.591977	0.462579	0.660608
	O288	O	1.091705	0.981973	1.130599
	H289	H	1.091030	0.975860	1.123957
	H290	H	1.076413	0.969720	1.120607
	O291	O	0.150132	0.920508	0.082112
	H292	H	0.145779	0.928677	0.077381
	H293	H	0.134099	0.912253	0.083894
	O294	O	0.575094	0.455269	0.380960
	H295	H	0.570863	0.443895	0.380493
	H296	H	0.584553	0.449416	0.394029
	O297	O	0.331779	0.370779	0.599439
	H298	H	0.323727	0.364741	0.600234
	H299	H	0.333667	0.381917	0.600643
	O300	O	0.481558	0.650746	0.452441
	H301	H	0.470316	0.641095	0.442421
	H302	H	0.482735	0.652038	0.449961
	O303	O	0.418652	0.628810	0.449316
	H304	H	0.405865	0.638675	0.451513
	H305	H	0.425584	0.629326	0.439113
	O306	O	0.474457	0.348486	0.485959
	H307	H	0.481116	0.336590	0.484300
	H308	H	0.486552	0.348552	0.481549
	O309	O	0.591877	0.427576	0.390064
	H310	H	0.597393	0.417372	0.388425
	H311	H	0.601971	0.433289	0.403787
	O312	O	0.174564	0.121323	0.159716
	H313	H	0.188881	0.123790	0.168993
	H314	H	0.174400	0.111059	0.157851
	O315	O	0.962889	0.045555	1.099531
	H316	H	0.968781	0.046574	1.111550
	H317	H	0.969463	0.030723	1.096846
	O318	O	-0.088882	1.024240	1.088468
	H319	H	-0.102231	1.022057	1.086526
	H320	H	-0.074614	1.028397	1.092273
	O321	O	0.368049	0.535242	0.546054
	H322	H	0.343871	0.536940	0.537521
	H323	H	0.369796	0.536077	0.529532
	O324	O	-0.053530	1.058755	0.018124
	H325	H	-0.044955	1.059225	0.021587
	H326	H	-0.052136	1.065887	0.023142
	O327	O	-0.024084	-0.057558	-0.099914
	H328	H	-0.036161	-0.046331	-0.101842
	H329	H	-0.030868	-0.071229	-0.113890
	O330	O	-0.154869	0.074800	0.832772
	H331	H	-0.149306	0.098066	0.836259
	H332	H	-0.141228	0.079619	0.820688
	O333	O	0.171157	-0.181416	0.950960
	H334	H	0.179870	-0.192453	0.944330
	H335	H	0.182077	-0.176095	0.951003
	O336	O	0.591612	0.445629	0.669207
	H337	H	0.590017	0.459838	0.663540
	H338	H	0.592989	0.452225	0.672969
	O339	O	1.072231	0.191490	-0.015625
	H340	H	1.056173	0.198347	-0.019405
	H341	H	1.078772	0.179974	0.002761
	O342	O	-0.483352	-0.504618	0.371883
	H343	H	-0.479556	-0.506910	0.371965
	H344	H	-0.470271	-0.521356	0.358980
	O345	O	0.428523	0.502945	0.580230
	H346	H	0.438305	0.501071	0.572769
	H347	H	0.430812	0.494034	0.581168
	O348	O	0.998239	1.034998	0.095493
	H349	H	1.019818	1.044267	0.096547
	H350	H	0.992422	1.030401	0.091917
	O351	O	0.370414	0.596880	0.572683
	H352	H	0.365472	0.584963	0.579106
	H353	H	0.369875	0.598365	0.561183
	O354	O	0.893876	-0.040933	0.877816
	H355	H	0.892636	-0.045265	0.865094
	H356	H	0.898478	-0.029360	0.871109
	O357	O	0.508858	0.452052	0.363019
	H358	H	0.509488	0.441982	0.374817
	H359	H	0.513924	0.440033	0.360296
	O360	O	0.440743	0.477066	0.439743
	H361	H	0.435295	0.478950	0.450226
	H362	H	0.442350	0.474465	0.435102
	O363	O	0.044087	1.021429	0.947271
	H364	H	0.045000	1.014841	0.942654
	H365	H	0.044684	1.031138	0.951513
	O366	O	0.466939	0.444937	0.595330
	H367	H	0.466068	0.440144	0.593747
	H368	H	0.465826	0.444133	0.600841
	O369	O	0.083116	1.130747	-0.039884
	H370	H	0.095721	1.142091	-0.042888
	H371	H	0.091961	1.134404	-0.023299
	O372	O	0.569449	0.617133	0.506329
	H373	H	0.568185	0.621451	0.494383
	H374	H	0.570538	0.629873	0.510797
	O375	O	0.671882	0.532147	0.561477
	H376	H	0.661889	0.536212	0.553490
	H377	H	0.673953	0.536947	0.558231
	O378	O	1.471788	0.550310	-0.358756
	H379	H	1.471983	0.556636	-0.365716
	H380	H	1.476077	0.557112	-0.362597
	O381	O	1.065689	0.161764	0.066034
	H382	H	1.059099	0.168737	0.085105
	H383	H	1.059027	0.153957	0.061146
	O384	O	0.995119	0.902630	-0.058953
	H385	H	0.976038	0.907285	-0.065986
	H386	H	1.010906	0.910550	-0.051894
	O387	O	0.171821	-0.081149	-0.108218
	H388	H	0.173758	-0.083721	-0.113092
	H389	H	0.179349	-0.083395	-0.106976
	O390	O	0.079100	0.980322	-0.077434
	H391	H	0.073235	0.981190	-0.073078
	H392	H	0.079861	0.982832	-0.081023
	O393	O	0.918848	0.862004	1.101255
	H394	H	0.920834	0.858928	1.086511
	H395	H	0.910441	0.871056	1.094264
	O396	O	0.530489	0.429817	0.430126
	H397	H	0.531646	0.432877	0.431987
	H398	H	0.527389	0.429196	0.435052
	O399	O	-0.139728	0.879497	1.062098
	H400	H	-0.144495	0.882755	1.051295
	H401	H	-0.137815	0.879757	1.052984
	O402	O	0.460508	0.475669	0.328228
	H403	H	0.457423	0.485616	0.317918
	H404	H	0.466453	0.473628	0.326468
	O405	O	0.957709	1.159179	0.090091
	H406	H	0.958862	1.153839	0.082763
	H407	H	0.955979	1.162203	0.088827
	O408	O	0.877046	0.926679	0.143270
	H409	H	0.877907	0.920689	0.134271
	H410	H	0.870036	0.923634	0.141752
	O411	O	0.910973	-0.116637	1.058616
	H412	H	0.918264	-0.118621	1.054864
	H413	H	0.898242	-0.118454	1.062020
	O414	O	0.462930	0.411596	0.599273
	H415	H	0.476135	0.420028	0.612104
	H416	H	0.454359	0.426250	0.596417
	O417	O	0.643920	0.588372	0.424743
	H418	H	0.643208	0.588501	0.415424
	H419	H	0.645223	0.585621	0.423415
