data_Molecule from HDF5

_cell_length_a		16.650813
_cell_length_b		16.719794
_cell_length_c		16.598620
_cell_angle_alpha	89.916455
_cell_angle_beta	90.157474
_cell_angle_gamma	89.969619
_symmetry_space_group_name_H-M	'P 1'
_symmetry_Int_Tables_number		1

loop_
	_symmetry_equiv_pos_as_xyz
	x,y,z

loop_
	_atom_site_label
	_atom_site_type_symbol
	_atom_site_fract_x
	_atom_site_fract_y
	_atom_site_fract_z
	H0	H	0.368441	0.828049	0.697960
	H1	H	0.575818	0.138863	0.694195
	H2	H	0.576906	0.826401	0.255621
	H3	H	0.365182	0.134876	0.252304
	H4	H	0.691851	0.377285	0.819878
	H5	H	0.690635	0.583409	0.133181
	H6	H	0.255070	0.584334	0.818763
	H7	H	0.256455	0.382779	0.133439
	H8	H	0.820746	0.706995	0.366033
	H9	H	0.129018	0.698631	0.579190
	H10	H	0.815802	0.261742	0.578503
	H11	H	0.126531	0.258740	0.368884
	H12	H	0.815537	0.379038	0.693664
	H13	H	0.129504	0.579539	0.692770
	H14	H	0.819220	0.589134	0.252074
	H15	H	0.127930	0.377198	0.255344
	H16	H	0.371576	0.700080	0.818408
	H17	H	0.574501	0.699894	0.133353
	H18	H	0.576594	0.260801	0.820651
	H19	H	0.371777	0.266208	0.133287
	H20	H	0.693966	0.826806	0.371566
	H21	H	0.693121	0.137619	0.578860
	H22	H	0.250878	0.828703	0.582828
	H23	H	0.249305	0.135033	0.369009
	H24	H	0.866810	0.328299	0.198629
	H25	H	0.076356	0.636895	0.196077
	H26	H	0.073542	0.324844	0.759027
	H27	H	0.866442	0.634938	0.752504
	H28	H	0.193982	0.876681	0.321469
	H29	H	0.193003	0.085811	0.631450
	H30	H	0.751689	0.085707	0.319553
	H31	H	0.752806	0.876816	0.631426
	H32	H	0.316222	0.201617	0.872342
	H33	H	0.626679	0.204616	0.083090
	H34	H	0.316933	0.763432	0.078842
	H35	H	0.629610	0.763882	0.873873
	H36	H	0.316788	0.878711	0.194851
	H37	H	0.627578	0.086154	0.197283
	H38	H	0.317603	0.086327	0.755483
	H39	H	0.630203	0.881730	0.758682
	H40	H	0.867259	0.202553	0.320063
	H41	H	0.076745	0.201050	0.632085
	H42	H	0.080575	0.759321	0.322241
	H43	H	0.867901	0.760632	0.631292
	H44	H	0.193444	0.327435	0.872044
	H45	H	0.192392	0.637419	0.079899
	H46	H	0.751092	0.327190	0.080944
	H47	H	0.751394	0.635554	0.869611
	H48	H	0.380884	0.096130	0.571884
	H49	H	0.562778	0.870801	0.568274
	H50	H	0.564636	0.094617	0.382576
	H51	H	0.388875	0.876049	0.395514
	H52	H	0.568489	0.391168	0.090863
	H53	H	0.557466	0.577344	0.863628
	H54	H	0.379619	0.563107	0.086367
	H55	H	0.381430	0.391914	0.862255
	H56	H	0.082361	0.565861	0.387022
	H57	H	0.859487	0.572340	0.566267
	H58	H	0.084292	0.386037	0.563354
	H59	H	0.861692	0.390208	0.391073
	H60	H	0.083289	0.393288	0.567560
	H61	H	0.860277	0.573896	0.562381
	H62	H	0.085984	0.573030	0.384291
	H63	H	0.863412	0.397964	0.388637
	H64	H	0.392507	0.577903	0.086419
	H65	H	0.567919	0.576559	0.860616
	H66	H	0.560777	0.400783	0.084896
	H67	H	0.381651	0.393258	0.862876
	H68	H	0.555587	0.090423	0.386606
	H69	H	0.564098	0.871526	0.566398
	H70	H	0.390998	0.090417	0.563647
	H71	H	0.374774	0.868754	0.389204
	H72	H	0.888794	0.590166	0.063769
	H73	H	0.062311	0.368855	0.071550
	H74	H	0.063140	0.594886	0.881727
	H75	H	0.882511	0.372201	0.894273
	H76	H	0.062656	0.896375	0.587607
	H77	H	0.066652	0.071308	0.362051
	H78	H	0.884490	0.073153	0.587815
	H79	H	0.885571	0.896149	0.365967
	H80	H	0.587134	0.076636	0.884955
	H81	H	0.363403	0.070708	0.062838
	H82	H	0.583972	0.889208	0.059303
	H83	H	0.361428	0.893177	0.884674
	H84	H	0.582727	0.898546	0.068824
	H85	H	0.360252	0.071463	0.068364
	H86	H	0.583013	0.074354	0.892935
	H87	H	0.360103	0.890029	0.883720
	H88	H	0.880165	0.072841	0.589685
	H89	H	0.058727	0.064720	0.367347
	H90	H	0.057991	0.892038	0.586838
	H91	H	0.886270	0.891866	0.364301
	H92	H	0.062741	0.592971	0.884582
	H93	H	0.058935	0.373570	0.061561
	H94	H	0.880506	0.591447	0.057813
	H95	H	0.873253	0.364985	0.882978
	H96	H	0.378534	0.092894	0.558220
	H97	H	0.564838	0.869630	0.567741
	H98	H	0.564042	0.091093	0.393057
	H99	H	0.388079	0.870214	0.379438
	H100	H	0.555570	0.388558	0.086798
	H101	H	0.562984	0.568185	0.865671
	H102	H	0.374603	0.580924	0.094120
	H103	H	0.383297	0.391914	0.863204
	H104	H	0.082982	0.572097	0.392107
	H105	H	0.860766	0.569773	0.563279
	H106	H	0.087223	0.387114	0.570841
	H107	H	0.860109	0.392256	0.383309
	H108	H	0.880514	0.594705	0.067942
	H109	H	0.069520	0.369626	0.062466
	H110	H	0.065297	0.594623	0.884339
	H111	H	0.888692	0.370520	0.879732
	H112	H	0.063577	0.890158	0.589367
	H113	H	0.055786	0.076113	0.363569
	H114	H	0.882324	0.069073	0.587247
	H115	H	0.882485	0.893917	0.363404
	H116	H	0.583357	0.068445	0.885644
	H117	H	0.359927	0.075627	0.063816
	H118	H	0.588369	0.886742	0.071520
	H119	H	0.360415	0.890779	0.887557
	C120	C	0.351478	-0.008957	0.597468
	C121	C	0.595243	0.973658	0.598146
	C122	C	0.593351	-0.010429	0.355375
	C123	C	0.350845	0.973259	0.354579
	C124	C	0.593336	0.361111	-0.015440
	C125	C	0.593720	0.603908	0.967434
	C126	C	0.351521	0.604428	-0.015256
	C127	C	0.351545	0.361922	0.967123
	C128	C	-0.018034	0.603781	0.353939
	C129	C	0.963865	0.601666	0.595910
	C130	C	-0.019079	0.358771	0.597385
	C131	C	0.964215	0.360841	0.354879
	C132	C	0.850868	0.490138	0.096501
	C133	C	0.094118	0.473591	0.096899
	C134	C	0.093638	0.490408	0.854237
	C135	C	0.850104	0.471900	0.853357
	C136	C	0.094079	0.860814	0.485137
	C137	C	0.092947	0.102658	0.467373
	C138	C	0.850647	0.103178	0.484419
	C139	C	0.852574	0.861197	0.467225
	C140	C	0.481026	0.103736	0.856344
	C141	C	0.463777	0.104073	0.097934
	C142	C	0.481470	0.861061	0.097087
	C143	C	0.464827	0.861314	0.854759
	C144	C	0.349990	0.874693	0.657929
	C145	C	0.595151	0.091563	0.655333
	C146	C	0.595243	0.872985	0.295507
	C147	C	0.347341	0.088793	0.293244
	C148	C	0.652216	0.359124	0.866757
	C149	C	0.651275	0.602960	0.085992
	C150	C	0.293984	0.603900	0.865967
	C151	C	0.294705	0.362820	0.085954
	C152	C	0.866647	0.665890	0.348901
	C153	C	0.082070	0.658968	0.597510
	C154	C	0.862503	0.300927	0.597608
	C155	C	0.080423	0.299851	0.351565
	C156	C	0.862425	0.359474	0.654396
	C157	C	0.082175	0.600191	0.654084
	C158	C	0.865886	0.607076	0.292469
	C159	C	0.081002	0.358645	0.295041
	C160	C	0.351963	0.661119	0.865731
	C161	C	0.593784	0.660811	0.086174
	C162	C	0.595312	0.300979	0.867309
	C163	C	0.351998	0.305007	0.085968
	C164	C	0.653491	0.873147	0.352907
	C165	C	0.653269	0.091063	0.597897
	C166	C	0.291429	0.874969	0.600760
	C167	C	0.289677	0.088906	0.351073
	C168	C	0.848209	0.374381	0.157910
	C169	C	0.095263	0.590395	0.156108
	C170	C	0.093404	0.372300	0.797356
	C171	C	0.848200	0.588400	0.792948
	C172	C	0.154040	0.858619	0.368126
	C173	C	0.152905	0.104263	0.584826
	C174	C	0.791665	0.104317	0.366406
	C175	C	0.792369	0.858190	0.584339
	C176	C	0.363250	0.162278	0.853753
	C177	C	0.580133	0.164213	0.101244
	C178	C	0.363742	0.802766	0.097528
	C179	C	0.582830	0.803465	0.854778
	C180	C	0.363549	0.860492	0.154883
	C181	C	0.580745	0.105162	0.157758
	C182	C	0.363971	0.104763	0.796070
	C183	C	0.583132	0.861736	0.797486
	C184	C	0.848807	0.162484	0.366929
	C185	C	0.095161	0.161492	0.584950
	C186	C	0.097398	0.800264	0.368649
	C187	C	0.849832	0.800628	0.584292
	C188	C	0.152750	0.373445	0.853768
	C189	C	0.152957	0.590732	0.098433
	C190	C	0.790797	0.373862	0.099589
	C191	C	0.790791	0.588668	0.850923
	C192	C	0.376321	0.072086	0.571942
	C193	C	0.571186	0.891731	0.574334
	C194	C	0.568512	0.070936	0.380388
	C195	C	0.376726	0.892537	0.380624
	C196	C	0.568705	0.386306	0.066270
	C197	C	0.569667	0.580744	0.884681
	C198	C	0.375378	0.580934	0.067495
	C199	C	0.375370	0.385361	0.884213
	C200	C	0.062781	0.577827	0.380419
	C201	C	0.881386	0.578600	0.571149
	C202	C	0.063405	0.381952	0.573797
	C203	C	0.882880	0.386177	0.380612
	C204	C	0.876094	0.571090	0.070572
	C205	C	0.070164	0.392032	0.072289
	C206	C	0.070387	0.572734	0.877021
	C207	C	0.874530	0.390423	0.878380
	C208	C	0.068736	0.885896	0.566715
	C209	C	0.067576	0.077840	0.385860
	C210	C	0.875111	0.078662	0.567001
	C211	C	0.877788	0.886703	0.385787
	C212	C	0.563057	0.080046	0.881100
	C213	C	0.382242	0.079297	0.072267
	C214	C	0.563746	0.884811	0.073367
	C215	C	0.382366	0.884729	0.878453
	Zn216	Zn	0.473248	-0.016798	0.726587
	Zn217	Zn	0.472474	-0.018333	0.226048
	Zn218	Zn	0.721653	0.481712	-0.024486
	Zn219	Zn	0.222972	0.483254	-0.024551
	Zn220	Zn	-0.026801	0.731990	0.476136
	Zn221	Zn	-0.027929	0.231491	0.475443
	Zn222	Zn	-0.028230	0.480392	0.725440
	Zn223	Zn	-0.027196	0.481611	0.225673
	Zn224	Zn	0.473019	0.732703	-0.024147
	Zn225	Zn	0.472007	0.232784	-0.023682
	Zn226	Zn	0.723286	-0.018595	0.475709
	Zn227	Zn	0.222004	-0.017897	0.475930
	N228	N	0.386806	0.947993	0.656006
	N229	N	0.559871	0.017416	0.655919
	N230	N	0.558663	0.946572	0.296709
	N231	N	0.384543	0.015639	0.295207
	N232	N	0.651159	0.395703	0.940673
	N233	N	0.651475	0.568416	0.011062
	N234	N	0.293478	0.569487	0.941018
	N235	N	0.294042	0.397308	0.010807
	N236	N	0.940089	0.664307	0.386254
	N237	N	0.007330	0.660174	0.562275
	N238	N	0.937431	0.300046	0.563158
	N239	N	0.006614	0.300940	0.388061
	N240	N	0.936930	0.394462	0.654520
	N241	N	0.007448	0.565374	0.653534
	N242	N	0.938766	0.569156	0.295299
	N243	N	0.007631	0.396020	0.296984
	N244	N	0.386829	0.661881	0.940716
	N245	N	0.558955	0.661921	0.011116
	N246	N	0.559307	0.301933	0.941644
	N247	N	0.386245	0.303958	0.010843
	N248	N	0.652425	0.946617	0.389510
	N249	N	0.653545	0.016626	0.563233
	N250	N	0.292028	0.948379	0.563953
	N251	N	0.291645	0.015929	0.388515
	N252	N	0.884793	0.447852	0.156334
	N253	N	0.059542	0.516538	0.155411
	N254	N	0.057440	0.446100	0.797243
	N255	N	0.884184	0.514697	0.794053
	N256	N	0.152172	0.895491	0.441766
	N257	N	0.152130	0.068655	0.510448
	N258	N	0.792464	0.068413	0.440918
	N259	N	0.793979	0.895368	0.510646
	N260	N	0.437180	0.161996	0.890389
	N261	N	0.506231	0.163794	0.064787
	N262	N	0.438256	0.802621	0.062468
	N263	N	0.508028	0.802791	0.889382
	N264	N	0.437853	0.895754	0.155049
	N265	N	0.507315	0.068446	0.155770
	N266	N	0.438369	0.069200	0.797167
	N267	N	0.508470	0.896643	0.796925
	N268	N	0.884615	0.161896	0.441535
	N269	N	0.058925	0.161173	0.510723
	N270	N	0.060749	0.801453	0.442525
	N271	N	0.886811	0.802229	0.510400
	N272	N	0.153081	0.447922	0.888450
	N273	N	0.152654	0.516992	0.062235
	N274	N	0.792259	0.446952	0.062142
	N275	N	0.791677	0.515133	0.887756
	O276	O	-0.229085	0.985611	-0.059764
	H277	H	-0.243932	1.019871	-0.088788
	H278	H	-0.232661	0.967316	-0.045509
	O279	O	0.318219	0.595327	0.267372
	H280	H	0.318885	0.579115	0.274740
	H281	H	0.299836	0.589905	0.246839
	O282	O	1.099031	-0.071570	1.109430
	H283	H	1.109991	-0.054298	1.111163
	H284	H	1.087796	-0.075628	1.100999
	O285	O	0.429533	0.443673	0.462933
	H286	H	0.423948	0.428410	0.443129
	H287	H	0.437800	0.426051	0.471805
	O288	O	0.680231	0.695122	0.679525
	H289	H	0.661949	0.688155	0.659184
	H290	H	0.659398	0.688429	0.661956
	O291	O	1.234849	0.714559	0.709989
	H292	H	1.227305	0.702683	0.700704
	H293	H	1.255880	0.693192	0.679427
	O294	O	0.935065	-0.016334	0.994335
	H295	H	0.935072	-0.024441	0.991355
	H296	H	0.938386	-0.021764	0.984636
	O297	O	1.042649	0.935622	-0.099014
	H298	H	1.052677	0.931810	-0.092298
	H299	H	1.043296	0.936945	-0.108597
	O300	O	-0.057121	-0.241217	1.194004
	H301	H	-0.069581	-0.238618	1.201882
	H302	H	-0.060080	-0.252186	1.211139
	O303	O	0.692863	0.423865	0.546596
	H304	H	0.681014	0.404444	0.554053
	H305	H	0.699016	0.427537	0.560853
	O306	O	0.513289	0.494717	0.597378
	H307	H	0.535307	0.489860	0.612871
	H308	H	0.505935	0.478931	0.596258
	O309	O	0.315309	0.526854	0.556534
	H310	H	0.320048	0.513374	0.548458
	H311	H	0.319622	0.531831	0.545271
	O312	O	0.524893	0.446316	0.459242
	H313	H	0.517399	0.438005	0.459823
	H314	H	0.548437	0.439581	0.468833
	O315	O	1.501401	1.259281	1.259091
	H316	H	1.533761	1.263658	1.256331
	H317	H	1.510248	1.238521	1.234225
	O318	O	0.701580	0.520204	0.419655
	H319	H	0.692772	0.514356	0.435074
	H320	H	0.702387	0.509342	0.421419
	O321	O	0.016179	0.758297	0.754974
	H322	H	0.001361	0.755322	0.757685
	H323	H	-0.000444	0.734609	0.750184
	O324	O	0.832627	1.132183	0.034490
	H325	H	0.838918	1.121380	0.031219
	H326	H	0.827314	1.135465	0.020312
	O327	O	-0.253836	-0.244955	1.009743
	H328	H	-0.277800	-0.268568	1.018092
	H329	H	-0.253881	-0.245926	1.045784
	O330	O	0.291101	0.463785	0.674514
	H331	H	0.303988	0.480678	0.657119
	H332	H	0.296851	0.469541	0.681791
	O333	O	0.407952	0.428165	0.457559
	H334	H	0.415157	0.420758	0.454235
	H335	H	0.410288	0.422643	0.470531
	O336	O	0.416797	0.255189	0.420931
	H337	H	0.413373	0.250528	0.411841
	H338	H	0.411360	0.250606	0.398447
	O339	O	1.160707	-0.210614	1.168054
	H340	H	1.142161	-0.190236	1.155126
	H341	H	1.143578	-0.190678	1.147538
	O342	O	0.692430	0.515767	-0.305530
	H343	H	0.707969	0.517758	-0.296063
	H344	H	0.707308	0.530165	-0.301548
	O345	O	0.031105	0.752452	1.032731
	H346	H	0.027927	0.751380	1.046710
	H347	H	0.041318	0.745352	1.020791
	O348	O	0.690457	0.450318	0.263318
	H349	H	0.704750	0.459837	0.255898
	H350	H	0.683865	0.451480	0.266070
	O351	O	0.699738	1.247766	0.245041
	H352	H	0.698009	1.267144	0.241048
	H353	H	0.738823	1.226961	0.218003
	O354	O	0.388651	-0.427461	0.685088
	H355	H	0.406047	-0.432248	0.671844
	H356	H	0.400892	-0.439822	0.677670
	O357	O	1.184218	0.067444	1.194322
	H358	H	1.192090	0.084059	1.176199
	H359	H	1.188060	0.065744	1.202586
	O360	O	1.101195	1.032878	1.101400
	H361	H	1.112636	1.030801	1.108117
	H362	H	1.099817	1.035793	1.081358
	O363	O	0.165377	-0.178240	-0.205436
	H364	H	0.184425	-0.202665	-0.232332
	H365	H	0.137105	-0.185487	-0.205313
	O366	O	0.652649	0.669191	0.490322
	H367	H	0.658804	0.669202	0.481984
	H368	H	0.634514	0.664881	0.474489
	O369	O	0.513313	0.691427	0.688930
	H370	H	0.506036	0.711223	0.693389
	H371	H	0.501526	0.698032	0.670101
	O372	O	1.199264	0.759420	-0.058023
	H373	H	1.229203	0.726329	-0.064583
	H374	H	1.185612	0.761318	-0.098638
	O375	O	1.461845	0.261383	0.646081
	H376	H	1.461489	0.254093	0.645177
	H377	H	1.467912	0.260130	0.649852
	O378	O	0.257820	0.704932	0.450854
	H379	H	0.248195	0.709395	0.421361
	H380	H	0.248135	0.713177	0.427722
	O381	O	-0.210704	0.789588	0.787448
	H382	H	-0.200320	0.808586	0.803587
	H383	H	-0.241572	0.762804	0.754780
	O384	O	1.059171	0.205550	0.928698
	H385	H	1.059260	0.201606	0.914045
	H386	H	1.048868	0.202330	0.903283
	O387	O	1.397011	0.493978	0.320193
	H388	H	1.379696	0.495576	0.331560
	H389	H	1.394739	0.486048	0.314914
	O390	O	0.267895	0.699803	0.269505
	H391	H	0.231938	0.726641	0.235440
	H392	H	0.259652	0.645850	0.264670
	O393	O	0.355896	0.327979	0.297825
	H394	H	0.347037	0.310282	0.286887
	H395	H	0.354625	0.321368	0.311026
	O396	O	-0.070176	0.980814	0.817451
	H397	H	-0.068761	0.974662	0.821474
	H398	H	-0.066684	0.972147	0.823610
	O399	O	-0.245119	0.197125	0.941978
	H400	H	-0.232786	0.193717	0.941077
	H401	H	-0.258498	0.219608	0.944710
	O402	O	0.470885	0.712460	0.311005
	H403	H	0.453046	0.720508	0.302913
	H404	H	0.442461	0.713881	0.292810
	O405	O	1.010302	0.065037	0.754200
	H406	H	1.011359	0.039904	0.764744
	H407	H	1.022895	0.043266	0.754400
	O408	O	-0.238240	0.193136	-0.230414
	H409	H	-0.210605	0.172005	-0.233784
	H410	H	-0.217719	0.197370	-0.201226
	O411	O	0.748029	1.027789	0.756454
	H412	H	0.748798	1.024795	0.736513
	H413	H	0.736371	1.041813	0.745605
	O414	O	0.904567	-0.060044	1.202845
	H415	H	0.902867	-0.064847	1.203066
	H416	H	0.904490	-0.080636	1.206764
	O417	O	0.692516	0.259526	0.440047
	H418	H	0.694687	0.266780	0.418036
	H419	H	0.717504	0.237523	0.436168
	O420	O	0.458320	0.572709	0.477117
	H421	H	0.448672	0.576731	0.472104
	H422	H	0.459918	0.568534	0.475666
	O423	O	0.200628	0.205343	1.018159
	H424	H	0.180911	0.211881	0.992940
	H425	H	0.220769	0.230957	1.005330
	O426	O	0.572543	0.260494	0.459323
	H427	H	0.571783	0.264934	0.449562
	H428	H	0.590423	0.252388	0.450688
	O429	O	0.904378	0.906497	1.043117
	H430	H	0.906917	0.908068	1.025764
	H431	H	0.912649	0.908716	1.038265
	O432	O	0.131143	0.910632	1.009111
	H433	H	0.141789	0.901866	1.005766
	H434	H	0.134383	0.904966	1.010832
	O435	O	1.178346	0.997926	0.768859
	H436	H	1.195713	0.976346	0.749144
	H437	H	1.171126	0.976050	0.768948
	O438	O	0.415281	-0.559537	0.247799
	H439	H	0.431717	-0.562928	0.246925
	H440	H	0.415265	-0.582598	0.252199
	O441	O	-0.339865	0.296775	-0.336962
	H442	H	-0.337213	0.279175	-0.328894
	H443	H	-0.331674	0.284002	-0.335482
	O444	O	0.440576	0.439507	0.696230
	H445	H	0.457543	0.456182	0.696004
	H446	H	0.458827	0.434546	0.698463
	O447	O	-0.332957	1.672252	0.289828
	H448	H	-0.349771	1.653970	0.306565
	H449	H	-0.350717	1.651207	0.309459
	O450	O	-0.710744	0.458243	1.421032
	H451	H	-0.706329	0.447289	1.409351
	H452	H	-0.703858	0.440806	1.429882
	O453	O	0.403272	0.553149	0.473884
	H454	H	0.409383	0.558800	0.472438
	H455	H	0.399615	0.548402	0.481706
	O456	O	0.760130	-0.226782	1.183516
	H457	H	0.730079	-0.257491	1.218122
	H458	H	0.783643	-0.209561	1.180910
	O459	O	0.925957	1.204029	-0.244671
	H460	H	0.946086	1.193362	-0.259378
	H461	H	0.943857	1.200441	-0.269744
	O462	O	0.220257	0.227093	0.215784
	H463	H	0.181702	0.209497	0.204928
	H464	H	0.223220	0.228818	0.191057
	O465	O	1.193700	0.031755	-0.068464
	H466	H	1.197899	0.035498	-0.070392
	H467	H	1.195364	0.026530	-0.072462
	O468	O	0.511813	0.646146	0.495198
	H469	H	0.492817	0.632809	0.482146
	H470	H	0.514059	0.653288	0.487612
	O471	O	0.913846	0.752998	0.901735
	H472	H	0.893301	0.759776	0.894315
	H473	H	0.904905	0.747587	0.927666
	O474	O	0.178160	0.183670	0.777927
	H475	H	0.196486	0.198242	0.756590
	H476	H	0.189310	0.159423	0.765690
	O477	O	0.838353	0.919294	0.845802
	H478	H	0.827977	0.918613	0.842094
	H479	H	0.830797	0.890236	0.845622
	O480	O	0.262487	0.291240	0.688615
	H481	H	0.268620	0.336680	0.687498
	H482	H	0.280400	0.293290	0.679100
	O483	O	0.496098	0.696843	0.438582
	H484	H	0.480224	0.680723	0.422931
	H485	H	0.486740	0.701842	0.415582
	O486	O	1.021932	0.185808	1.186716
	H487	H	1.015915	0.193035	1.204768
	H488	H	1.017588	0.174115	1.178451
	O489	O	0.768270	0.933473	0.094774
	H490	H	0.770386	0.914926	0.096229
	H491	H	0.771930	0.947032	0.097480
	O492	O	-0.184472	0.173679	0.161031
	H493	H	-0.178149	0.144781	0.142697
	H494	H	-0.162882	0.169602	0.137881
	O495	O	-0.089301	1.162853	0.970128
	H496	H	-0.080137	1.152223	0.981448
	H497	H	-0.083450	1.166809	0.951369
	O498	O	0.914623	1.040830	1.195916
	H499	H	0.924258	1.023925	1.193197
	H500	H	0.890067	1.033018	1.198065
	O501	O	0.250879	0.255329	0.509747
	H502	H	0.237771	0.251087	0.517186
	H503	H	0.243748	0.239585	0.512494
