data_Molecule from HDF5

_cell_length_a		16.457604
_cell_length_b		16.509833
_cell_length_c		16.545227
_cell_angle_alpha	90.004245
_cell_angle_beta	90.024829
_cell_angle_gamma	89.945096
_symmetry_space_group_name_H-M	'P 1'
_symmetry_Int_Tables_number		1

loop_
	_symmetry_equiv_pos_as_xyz
	x,y,z

loop_
	_atom_site_label
	_atom_site_type_symbol
	_atom_site_fract_x
	_atom_site_fract_y
	_atom_site_fract_z
	H0	H	0.397535	0.844187	0.729548
	H1	H	0.611822	0.156625	0.733443
	H2	H	0.606628	0.844639	0.286640
	H3	H	0.396234	0.157872	0.285778
	H4	H	0.724329	0.395272	0.851551
	H5	H	0.726711	0.609279	0.163697
	H6	H	0.280185	0.605200	0.851985
	H7	H	0.280578	0.395808	0.167064
	H8	H	0.844513	0.722844	0.406162
	H9	H	0.160711	0.721932	0.614616
	H10	H	0.844348	0.278973	0.615531
	H11	H	0.157776	0.276672	0.401414
	H12	H	0.843593	0.396205	0.730551
	H13	H	0.161130	0.604170	0.728979
	H14	H	0.846299	0.609798	0.286364
	H15	H	0.156996	0.391662	0.284481
	H16	H	0.396312	0.721223	0.851478
	H17	H	0.608536	0.724378	0.164183
	H18	H	0.608782	0.279390	0.852190
	H19	H	0.396877	0.278357	0.165853
	H20	H	0.722323	0.843653	0.404538
	H21	H	0.725234	0.157325	0.614165
	H22	H	0.282431	0.843382	0.611126
	H23	H	0.282001	0.159069	0.403977
	H24	H	0.892800	0.345908	0.234823
	H25	H	0.108712	0.657298	0.233374
	H26	H	0.107464	0.345069	0.787520
	H27	H	0.895782	0.659579	0.787213
	H28	H	0.222402	0.895755	0.349901
	H29	H	0.225413	0.106381	0.663150
	H30	H	0.778303	0.108463	0.352012
	H31	H	0.780167	0.897032	0.666133
	H32	H	0.346030	0.221351	0.904763
	H33	H	0.660452	0.223414	0.115404
	H34	H	0.344827	0.778111	0.115589
	H35	H	0.659816	0.778055	0.902497
	H36	H	0.345130	0.894166	0.230986
	H37	H	0.660322	0.106386	0.230484
	H38	H	0.345542	0.104058	0.788974
	H39	H	0.660056	0.893115	0.785865
	H40	H	0.891052	0.227551	0.353595
	H41	H	0.108722	0.223691	0.664234
	H42	H	0.106821	0.779193	0.352109
	H43	H	0.897315	0.781442	0.667659
	H44	H	0.221981	0.344197	0.906195
	H45	H	0.223478	0.658381	0.116195
	H46	H	0.779060	0.344900	0.115594
	H47	H	0.780808	0.659882	0.904423
	H48	H	0.414610	0.110894	0.590154
	H49	H	0.593402	0.886632	0.600249
	H50	H	0.595043	0.116687	0.415762
	H51	H	0.409394	0.886421	0.415855
	H52	H	0.591579	0.408507	0.122108
	H53	H	0.587714	0.590506	0.896998
	H54	H	0.409206	0.595068	0.125022
	H55	H	0.413808	0.417555	0.900352
	H56	H	0.112177	0.589935	0.426892
	H57	H	0.891025	0.590821	0.593763
	H58	H	0.111997	0.414458	0.596067
	H59	H	0.892415	0.416769	0.426173
	H60	H	0.114912	0.413729	0.600960
	H61	H	0.889081	0.588217	0.603978
	H62	H	0.114580	0.584961	0.417921
	H63	H	0.889897	0.417349	0.419800
	H64	H	0.409756	0.585364	0.120621
	H65	H	0.591820	0.589475	0.895929
	H66	H	0.593888	0.418926	0.120507
	H67	H	0.416668	0.407343	0.896742
	H68	H	0.584954	0.113429	0.415798
	H69	H	0.583945	0.891338	0.597611
	H70	H	0.407886	0.116735	0.600336
	H71	H	0.416355	0.888139	0.415492
	H72	H	0.912515	0.614628	0.100520
	H73	H	0.092957	0.389251	0.094126
	H74	H	0.086329	0.613780	0.918686
	H75	H	0.913740	0.390716	0.918594
	H76	H	0.096911	0.912678	0.621807
	H77	H	0.093872	0.092367	0.393768
	H78	H	0.906707	0.082536	0.620290
	H79	H	0.909876	0.914676	0.397313
	H80	H	0.614234	0.084739	0.923533
	H81	H	0.390778	0.093231	0.094967
	H82	H	0.613123	0.918046	0.096494
	H83	H	0.389353	0.915130	0.914293
	H84	H	0.615645	0.909983	0.098980
	H85	H	0.391050	0.087890	0.094997
	H86	H	0.618158	0.088240	0.914704
	H87	H	0.388513	0.906917	0.918857
	H88	H	0.922686	0.087139	0.615003
	H89	H	0.090496	0.084487	0.397931
	H90	H	0.090646	0.915655	0.619331
	H91	H	0.917179	0.912486	0.399463
	H92	H	0.092397	0.613840	0.924174
	H93	H	0.090615	0.386932	0.103085
	H94	H	0.920805	0.611801	0.098180
	H95	H	0.913018	0.389490	0.919714
	H96	H	0.420592	0.112650	0.602295
	H97	H	0.592017	0.891371	0.590827
	H98	H	0.590913	0.112603	0.424147
	H99	H	0.412287	0.889454	0.421101
	H100	H	0.584893	0.415176	0.117933
	H101	H	0.589098	0.587089	0.897967
	H102	H	0.418287	0.592390	0.120017
	H103	H	0.406532	0.411226	0.895612
	H104	H	0.117651	0.594753	0.419313
	H105	H	0.885998	0.597985	0.600295
	H106	H	0.115134	0.409857	0.597459
	H107	H	0.888673	0.411740	0.423521
	H108	H	0.913847	0.611427	0.092164
	H109	H	0.083908	0.391642	0.097640
	H110	H	0.093344	0.616751	0.916794
	H111	H	0.913095	0.389155	0.918889
	H112	H	0.090917	0.908355	0.621770
	H113	H	0.084707	0.091928	0.396482
	H114	H	0.912819	0.098684	0.623144
	H115	H	0.913094	0.907268	0.395326
	H116	H	0.617984	0.094949	0.922866
	H117	H	0.389468	0.090413	0.098987
	H118	H	0.612378	0.911597	0.091102
	H119	H	0.392328	0.914095	0.922953
	C120	C	0.381699	0.009441	0.629227
	C121	C	0.623559	0.992855	0.629390
	C122	C	0.622867	0.010189	0.386865
	C123	C	0.380395	0.992252	0.385475
	C124	C	0.623710	0.380856	0.016830
	C125	C	0.623079	0.622588	1.000065
	C126	C	0.379711	0.622917	0.017901
	C127	C	0.380314	0.379216	1.001177
	C128	C	0.010716	0.622455	0.389211
	C129	C	0.993434	0.623729	0.631339
	C130	C	0.010080	0.380013	0.630719
	C131	C	0.993317	0.380731	0.388825
	C132	C	0.880883	0.509886	0.130621
	C133	C	0.122370	0.492735	0.131413
	C134	C	0.122929	0.510595	0.888234
	C135	C	0.880764	0.493841	0.887390
	C136	C	0.124218	0.879760	0.517072
	C137	C	0.123159	0.122251	0.499376
	C138	C	0.880121	0.122926	0.516574
	C139	C	0.880984	0.879655	0.501249
	C140	C	0.512319	0.121477	0.888200
	C141	C	0.494430	0.122798	0.129659
	C142	C	0.510052	0.880171	0.128789
	C143	C	0.493864	0.878647	0.886076
	C144	C	0.379393	0.891054	0.689104
	C145	C	0.628519	0.110015	0.691703
	C146	C	0.625339	0.891542	0.326940
	C147	C	0.377882	0.110721	0.325495
	C148	C	0.684352	0.377800	0.898874
	C149	C	0.685421	0.626868	0.117156
	C150	C	0.319825	0.623900	0.899368
	C151	C	0.320342	0.376757	0.119426
	C152	C	0.891983	0.682759	0.387307
	C153	C	0.112963	0.682293	0.633057
	C154	C	0.891420	0.319549	0.633273
	C155	C	0.110617	0.317421	0.383917
	C156	C	0.891342	0.377805	0.690647
	C157	C	0.113382	0.623812	0.689903
	C158	C	0.892689	0.626489	0.328010
	C159	C	0.110332	0.375047	0.326003
	C160	C	0.377736	0.681784	0.899138
	C161	C	0.626630	0.683960	0.117418
	C162	C	0.626867	0.319815	0.899174
	C163	C	0.378391	0.318687	0.119121
	C164	C	0.682692	0.891088	0.385465
	C165	C	0.684805	0.110686	0.632444
	C166	C	0.322048	0.890720	0.630389
	C167	C	0.320926	0.111201	0.384087
	C168	C	0.876042	0.392746	0.193361
	C169	C	0.126352	0.610497	0.192779
	C170	C	0.125433	0.392045	0.828281
	C171	C	0.878085	0.612525	0.827648
	C172	C	0.182848	0.877705	0.397695
	C173	C	0.185080	0.125038	0.616552
	C174	C	0.818424	0.126299	0.399197
	C175	C	0.820715	0.878500	0.619400
	C176	C	0.393312	0.181316	0.885987
	C177	C	0.612984	0.183011	0.133006
	C178	C	0.391964	0.819021	0.132531
	C179	C	0.612370	0.817802	0.883834
	C180	C	0.392103	0.876718	0.190276
	C181	C	0.613107	0.124756	0.190258
	C182	C	0.393015	0.122889	0.828899
	C183	C	0.612410	0.875177	0.825853
	C184	C	0.875013	0.185347	0.399737
	C185	C	0.126571	0.182842	0.617246
	C186	C	0.125591	0.819341	0.398969
	C187	C	0.879257	0.821038	0.620044
	C188	C	0.182318	0.391560	0.887202
	C189	C	0.183197	0.611057	0.134274
	C190	C	0.819189	0.392133	0.134265
	C191	C	0.820827	0.612580	0.885995
	C192	C	0.407097	0.091877	0.604493
	C193	C	0.597441	0.910958	0.603478
	C194	C	0.597607	0.092616	0.411542
	C195	C	0.405525	0.909518	0.410229
	C196	C	0.597613	0.406778	0.098781
	C197	C	0.597208	0.596414	0.918278
	C198	C	0.405072	0.598239	0.100487
	C199	C	0.405281	0.404635	0.919182
	C200	C	0.093262	0.596985	0.414230
	C201	C	0.910228	0.599299	0.606575
	C202	C	0.092463	0.405523	0.605387
	C203	C	0.911656	0.407542	0.415604
	C204	C	0.907859	0.591350	0.104359
	C205	C	0.096539	0.410653	0.105601
	C206	C	0.097950	0.593163	0.912616
	C207	C	0.906086	0.411249	0.911958
	C208	C	0.100093	0.905010	0.599498
	C209	C	0.097076	0.096904	0.417480
	C210	C	0.906492	0.096969	0.598133
	C211	C	0.906086	0.904366	0.418817
	C212	C	0.595117	0.096448	0.913134
	C213	C	0.411730	0.097516	0.103849
	C214	C	0.592250	0.905811	0.102954
	C215	C	0.411407	0.904542	0.911550
	Zn216	Zn	0.503443	0.000817	0.758710
	Zn217	Zn	0.502167	0.001248	0.257776
	Zn218	Zn	0.752540	0.501444	0.008362
	Zn219	Zn	0.251238	0.501254	0.010578
	Zn220	Zn	0.002869	0.751195	0.509855
	Zn221	Zn	0.001309	0.251723	0.508867
	Zn222	Zn	0.001656	0.502215	0.758883
	Zn223	Zn	0.001896	0.501941	0.260228
	Zn224	Zn	0.501720	0.751492	0.008271
	Zn225	Zn	0.503365	0.251136	0.008960
	Zn226	Zn	0.751609	0.000890	0.508426
	Zn227	Zn	0.252778	0.000866	0.506938
	N228	N	0.415802	0.965853	0.688569
	N229	N	0.590973	0.035723	0.689910
	N230	N	0.589172	0.966541	0.327551
	N231	N	0.414033	0.035640	0.326162
	N232	N	0.682586	0.414901	0.973226
	N233	N	0.683357	0.589458	0.043158
	N234	N	0.320739	0.588230	0.974516
	N235	N	0.321637	0.413965	0.045265
	N236	N	0.966524	0.680515	0.424566
	N237	N	0.037291	0.682632	0.597949
	N238	N	0.966488	0.320487	0.596950
	N239	N	0.036685	0.320756	0.422255
	N240	N	0.966110	0.414662	0.689210
	N241	N	0.037713	0.588274	0.689218
	N242	N	0.967500	0.589766	0.329106
	N243	N	0.036477	0.413681	0.329094
	N244	N	0.413981	0.681425	0.973967
	N245	N	0.588454	0.681334	0.043707
	N246	N	0.590049	0.321346	0.973658
	N247	N	0.414924	0.319919	0.044461
	N248	N	0.681554	0.965847	0.421804
	N249	N	0.681456	0.036975	0.594331
	N250	N	0.323270	0.965380	0.593825
	N251	N	0.322380	0.036539	0.420433
	N252	N	0.913395	0.467169	0.191467
	N253	N	0.089525	0.535810	0.191290
	N254	N	0.089272	0.466986	0.828615
	N255	N	0.914483	0.537642	0.828213
	N256	N	0.182298	0.914593	0.472240
	N257	N	0.183101	0.088391	0.542126
	N258	N	0.821439	0.088013	0.472895
	N259	N	0.821599	0.914057	0.544391
	N260	N	0.468472	0.180674	0.922141
	N261	N	0.538180	0.181876	0.096299
	N262	N	0.466176	0.821186	0.094736
	N263	N	0.537529	0.819836	0.920559
	N264	N	0.466354	0.914394	0.187877
	N265	N	0.538249	0.087804	0.188216
	N266	N	0.468215	0.086727	0.829864
	N267	N	0.537601	0.912194	0.826937
	N268	N	0.912836	0.183399	0.473639
	N269	N	0.088993	0.181418	0.543182
	N270	N	0.090044	0.820443	0.474011
	N271	N	0.916002	0.821589	0.545419
	N272	N	0.181017	0.466273	0.923759
	N273	N	0.181052	0.536727	0.096923
	N274	N	0.822054	0.465866	0.095947
	N275	N	0.822615	0.537807	0.922396
	O276	O	0.587956	0.295190	0.412890
	H277	H	0.573426	0.296810	0.406951
	H278	H	0.577795	0.288940	0.406713
	O279	O	0.704296	0.331800	0.502590
	H280	H	0.701071	0.325908	0.519319
	H281	H	0.712686	0.331493	0.519011
	O282	O	1.036793	1.039523	-0.199986
	H283	H	1.019584	1.041436	-0.205727
	H284	H	1.018096	1.037974	-0.203201
	O285	O	0.299520	0.703170	0.423386
	H286	H	0.308638	0.696146	0.395724
	H287	H	0.295854	0.705893	0.413225
	O288	O	-0.614412	-0.454117	-0.345526
	H289	H	-0.620911	-0.430035	-0.339423
	H290	H	-0.607378	-0.464882	-0.350207
	O291	O	0.817476	0.950305	-0.046256
	H292	H	0.837045	0.937408	-0.035069
	H293	H	0.816735	0.965444	-0.033970
	O294	O	-0.053625	1.188694	-0.955792
	H295	H	-0.036796	1.195733	-0.973857
	H296	H	-0.031732	1.195957	-0.929705
	O297	O	0.534245	0.432293	0.523710
	H298	H	0.535501	0.419862	0.537917
	H299	H	0.540896	0.430600	0.500513
	O300	O	0.376740	0.690245	0.322956
	H301	H	0.409202	0.701093	0.310938
	H302	H	0.384812	0.673500	0.323850
	O303	O	0.893280	0.906845	-0.159398
	H304	H	0.882554	0.907007	-0.164597
	H305	H	0.896517	0.908010	-0.163279
	O306	O	0.089873	0.889444	1.077827
	H307	H	0.081824	0.882718	1.089190
	H308	H	0.104409	0.879494	1.084603
	O309	O	0.719808	0.484089	0.291871
	H310	H	0.754545	0.470210	0.258620
	H311	H	0.699590	0.441514	0.300405
	O312	O	0.471669	0.285120	0.724676
	H313	H	0.466756	0.288200	0.728387
	H314	H	0.469992	0.274564	0.743576
	O315	O	-0.047049	0.962536	0.987626
	H316	H	-0.055406	0.958875	0.991001
	H317	H	-0.032062	0.961940	0.989709
	O318	O	0.387596	0.294053	-0.491599
	H319	H	0.371414	0.287315	-0.475637
	H320	H	0.401395	0.295301	-0.465026
	O321	O	0.977102	0.205378	1.179906
	H322	H	0.977079	0.220002	1.189838
	H323	H	0.972637	0.169404	1.195787
	O324	O	1.692050	0.698120	1.617471
	H325	H	1.687884	0.718503	1.620760
	H326	H	1.684707	0.699724	1.599218
	O327	O	0.843906	-0.200805	1.211852
	H328	H	0.839553	-0.192286	1.193145
	H329	H	0.826566	-0.215975	1.206755
	O330	O	0.811951	0.181853	-0.157954
	H331	H	0.828101	0.172463	-0.168129
	H332	H	0.800548	0.189717	-0.122266
	O333	O	0.511134	1.519534	1.589779
	H334	H	0.517321	1.511396	1.584179
	H335	H	0.517680	1.527101	1.601019
	O336	O	0.586468	-0.296361	1.707012
	H337	H	0.577660	-0.299136	1.714877
	H338	H	0.593376	-0.300802	1.717729
	O339	O	0.181152	1.080878	1.195679
	H340	H	0.184679	1.068608	1.193901
	H341	H	0.177992	1.069517	1.202789
	O342	O	0.947435	0.214363	-0.206319
	H343	H	0.933309	0.229547	-0.210326
	H344	H	0.954552	0.233643	-0.215670
	O345	O	-0.210247	-0.064714	0.226658
	H346	H	-0.214219	-0.089366	0.215986
	H347	H	-0.237747	-0.055522	0.240284
	O348	O	1.116501	-0.095934	1.195746
	H349	H	1.114180	-0.098895	1.211266
	H350	H	1.108641	-0.100847	1.184416
	O351	O	0.434739	0.442675	0.324695
	H352	H	0.444809	0.455081	0.336638
	H353	H	0.403840	0.443687	0.317663
	O354	O	0.485315	0.298823	0.445785
	H355	H	0.483171	0.313558	0.461318
	H356	H	0.481667	0.290516	0.463022
	O357	O	1.665666	0.684194	0.328175
	H358	H	1.676449	0.678529	0.327604
	H359	H	1.653413	0.666720	0.345403
	O360	O	0.718811	0.548466	0.457464
	H361	H	0.721819	0.543652	0.448911
	H362	H	0.717633	0.542208	0.433391
	O363	O	-0.305551	0.315506	0.316147
	H364	H	-0.336467	0.306109	0.325734
	H365	H	-0.311334	0.307349	0.342692
	O366	O	0.801583	0.794662	0.044992
	H367	H	0.801606	0.778752	0.032157
	H368	H	0.805041	0.792538	0.018655
	O369	O	0.384345	0.374837	0.409931
	H370	H	0.378771	0.361227	0.413927
	H371	H	0.375057	0.374889	0.430518
	O372	O	0.298309	0.297868	0.711944
	H373	H	0.271308	0.272764	0.733102
	H374	H	0.316064	0.305054	0.722040
	O375	O	0.143476	1.090754	1.083500
	H376	H	0.138392	1.087639	1.081574
	H377	H	0.131843	1.069895	1.093061
	O378	O	0.808857	0.199581	-0.017566
	H379	H	0.807948	0.220865	-0.009352
	H380	H	0.805739	0.198183	-0.003438
	O381	O	0.297952	0.584726	-0.519160
	H382	H	0.297391	0.587271	-0.511887
	H383	H	0.298459	0.579255	-0.530916
	O384	O	0.199446	-1.194273	0.812438
	H385	H	0.223388	-1.211470	0.809882
	H386	H	0.196682	-1.161434	0.803284
	O387	O	-0.182078	1.034418	1.095439
	H388	H	-0.174783	1.037565	1.099443
	H389	H	-0.183593	1.042928	1.100079
	O390	O	0.193649	0.190929	0.818066
	H391	H	0.177515	0.166612	0.833768
	H392	H	0.177515	0.173569	0.840252
	O393	O	1.036163	0.980048	-0.067147
	H394	H	1.036235	0.993524	-0.072149
	H395	H	1.025831	0.988289	-0.078162
	O396	O	0.477715	0.621253	0.292326
	H397	H	0.470606	0.640017	0.281538
	H398	H	0.493849	0.604970	0.291627
	O399	O	0.012190	0.903662	0.212053
	H400	H	0.005801	0.905691	0.199917
	H401	H	-0.024744	0.891355	0.217441
	O402	O	0.219015	-0.217304	0.982051
	H403	H	0.215215	-0.230472	0.969260
	H404	H	0.230448	-0.236878	0.970362
	O405	O	-0.428126	-0.557261	0.725804
	H406	H	-0.421924	-0.548554	0.735104
	H407	H	-0.437251	-0.541761	0.725590
	O408	O	0.365772	0.700534	0.651511
	H409	H	0.376830	0.692274	0.645305
	H410	H	0.371102	0.695711	0.643355
	O411	O	0.291932	0.469899	0.721663
	H412	H	0.270839	0.474773	0.721203
	H413	H	0.288471	0.451695	0.721730
	O414	O	0.797086	1.012330	0.804588
	H415	H	0.792224	1.015528	0.824187
	H416	H	0.779507	1.030430	0.790364
	O417	O	0.374117	0.404714	0.523629
	H418	H	0.360929	0.404557	0.534629
	H419	H	0.384077	0.387339	0.532112
	O420	O	1.011497	0.997774	1.218561
	H421	H	1.019942	0.998380	1.212528
	H422	H	1.001510	0.977077	1.219603
	O423	O	0.206901	1.146569	-0.008431
	H424	H	0.208861	1.150856	0.020356
	H425	H	0.220271	1.136105	0.011957
	O426	O	0.980453	0.797039	0.981016
	H427	H	0.986829	0.792063	0.993418
	H428	H	0.990760	0.803020	0.970119
	O429	O	0.690142	0.403275	0.610736
	H430	H	0.693272	0.415120	0.601511
	H431	H	0.689988	0.424028	0.625051
	O432	O	0.085162	-0.099202	-0.022497
	H433	H	0.097552	-0.110500	-0.032991
	H434	H	0.083048	-0.108652	-0.031966
	O435	O	0.085404	0.078655	0.162571
	H436	H	0.071535	0.083628	0.158421
	H437	H	0.095703	0.064377	0.170943
	O438	O	1.211389	-0.014963	-0.178256
	H439	H	1.212926	0.000810	-0.184241
	H440	H	1.209163	-0.007322	-0.173022
	O441	O	0.602548	0.707640	0.523963
	H442	H	0.584361	0.687941	0.514505
	H443	H	0.624591	0.706183	0.517722
	O444	O	0.025486	1.213862	0.928326
	H445	H	0.043782	1.210359	0.923648
	H446	H	0.034138	1.220027	0.928999
	O447	O	0.375686	0.561908	0.634494
	H448	H	0.357478	0.573342	0.624990
	H449	H	0.388932	0.552773	0.617323
	O450	O	0.574640	0.596119	0.340592
	H451	H	0.595766	0.584409	0.345579
	H452	H	0.593367	0.595764	0.338782
	O453	O	0.713174	0.545214	0.718409
	H454	H	0.739450	0.548359	0.735067
	H455	H	0.702422	0.574384	0.712445
	O456	O	1.266980	0.241854	0.199292
	H457	H	1.259687	0.243293	0.220483
	H458	H	1.281405	0.243136	0.199703
	O459	O	0.289900	0.524794	0.297242
	H460	H	0.266376	0.519527	0.305656
	H461	H	0.268347	0.518354	0.301924
	O462	O	0.492251	0.588025	0.486321
	H463	H	0.483399	0.592296	0.475541
	H464	H	0.503215	0.584486	0.488955
	O465	O	1.034798	-0.215520	-0.204324
	H466	H	1.067534	-0.200261	-0.196480
	H467	H	1.038259	-0.243552	-0.237708
