data_Molecule from HDF5

_cell_length_a		16.448434
_cell_length_b		16.347946
_cell_length_c		16.239239
_cell_angle_alpha	90.097882
_cell_angle_beta	90.263294
_cell_angle_gamma	89.936936
_symmetry_space_group_name_H-M	'P 1'
_symmetry_Int_Tables_number		1

loop_
	_symmetry_equiv_pos_as_xyz
	x,y,z

loop_
	_atom_site_label
	_atom_site_type_symbol
	_atom_site_fract_x
	_atom_site_fract_y
	_atom_site_fract_z
	H0	H	0.402676	0.832234	0.722656
	H1	H	0.604707	0.154993	0.723862
	H2	H	0.603291	0.831414	0.289305
	H3	H	0.402312	0.155797	0.287401
	H4	H	0.722667	0.389454	0.844811
	H5	H	0.721204	0.597119	0.167213
	H6	H	0.281074	0.596276	0.844828
	H7	H	0.285815	0.388148	0.167645
	H8	H	0.843330	0.713708	0.403811
	H9	H	0.163145	0.713386	0.613494
	H10	H	0.843158	0.273881	0.611799
	H11	H	0.161729	0.273283	0.404068
	H12	H	0.842387	0.392808	0.725206
	H13	H	0.163542	0.594718	0.727102
	H14	H	0.842409	0.595218	0.288708
	H15	H	0.162370	0.389442	0.288999
	H16	H	0.399365	0.709336	0.842595
	H17	H	0.606409	0.713143	0.165531
	H18	H	0.603378	0.276751	0.842605
	H19	H	0.403407	0.275976	0.167277
	H20	H	0.723915	0.833964	0.402196
	H21	H	0.722934	0.154335	0.611389
	H22	H	0.284602	0.833667	0.609246
	H23	H	0.282590	0.154363	0.400166
	H24	H	0.901375	0.332813	0.224619
	H25	H	0.105549	0.654769	0.225849
	H26	H	0.103772	0.332280	0.789040
	H27	H	0.902039	0.656062	0.790257
	H28	H	0.222395	0.887045	0.345006
	H29	H	0.222485	0.096979	0.668571
	H30	H	0.782079	0.099542	0.346916
	H31	H	0.784601	0.890000	0.668990
	H32	H	0.343551	0.213952	0.899480
	H33	H	0.664229	0.212431	0.108559
	H34	H	0.344193	0.772571	0.107414
	H35	H	0.662205	0.771049	0.898157
	H36	H	0.343769	0.887538	0.224740
	H37	H	0.663506	0.096521	0.225462
	H38	H	0.342196	0.093258	0.787368
	H39	H	0.664166	0.891858	0.787184
	H40	H	0.897379	0.213742	0.347088
	H41	H	0.103740	0.209991	0.669937
	H42	H	0.105495	0.773204	0.346117
	H43	H	0.902712	0.776422	0.670279
	H44	H	0.223279	0.332813	0.901769
	H45	H	0.224904	0.652410	0.113114
	H46	H	0.782635	0.334196	0.110921
	H47	H	0.781945	0.653729	0.901670
	H48	H	0.419036	0.105963	0.592256
	H49	H	0.591050	0.881211	0.592978
	H50	H	0.598778	0.110501	0.413281
	H51	H	0.416762	0.880709	0.413756
	H52	H	0.594726	0.392946	0.124495
	H53	H	0.594784	0.575608	0.890751
	H54	H	0.416051	0.582607	0.119070
	H55	H	0.410932	0.402496	0.889473
	H56	H	0.118283	0.587790	0.415815
	H57	H	0.888732	0.589199	0.598340
	H58	H	0.119032	0.398406	0.602043
	H59	H	0.887840	0.400808	0.414983
	H60	H	0.115435	0.401231	0.592513
	H61	H	0.890913	0.584940	0.593647
	H62	H	0.114486	0.584089	0.423290
	H63	H	0.890098	0.403140	0.419347
	H64	H	0.414026	0.583829	0.120424
	H65	H	0.586997	0.583216	0.891583
	H66	H	0.602468	0.408344	0.122913
	H67	H	0.411002	0.404733	0.889183
	H68	H	0.587865	0.107627	0.413125
	H69	H	0.599286	0.878017	0.593087
	H70	H	0.406610	0.109240	0.590862
	H71	H	0.410049	0.880406	0.419305
	H72	H	0.909681	0.608962	0.097969
	H73	H	0.095948	0.380081	0.091746
	H74	H	0.094331	0.606507	0.920175
	H75	H	0.910640	0.379004	0.915758
	H76	H	0.096055	0.898271	0.624480
	H77	H	0.094418	0.082735	0.391296
	H78	H	0.908332	0.084207	0.624760
	H79	H	0.912538	0.906061	0.393718
	H80	H	0.614906	0.082570	0.919323
	H81	H	0.388270	0.087404	0.099113
	H82	H	0.617029	0.900145	0.092604
	H83	H	0.389413	0.908098	0.906304
	H84	H	0.614452	0.906094	0.093364
	H85	H	0.390635	0.087471	0.088681
	H86	H	0.617976	0.081799	0.909587
	H87	H	0.386392	0.892116	0.913210
	H88	H	0.913542	0.079567	0.622034
	H89	H	0.090851	0.081526	0.392873
	H90	H	0.101353	0.907965	0.622073
	H91	H	0.915507	0.905033	0.393291
	H92	H	0.094843	0.608247	0.918034
	H93	H	0.097212	0.377650	0.099701
	H94	H	0.913876	0.608655	0.098331
	H95	H	0.913232	0.379945	0.916239
	H96	H	0.412160	0.110371	0.602356
	H97	H	0.594861	0.877763	0.600308
	H98	H	0.593884	0.106267	0.422531
	H99	H	0.409174	0.877198	0.410890
	H100	H	0.585760	0.406484	0.116748
	H101	H	0.596850	0.585747	0.887196
	H102	H	0.413096	0.581145	0.119849
	H103	H	0.412400	0.403243	0.890605
	H104	H	0.115765	0.579324	0.415368
	H105	H	0.888795	0.582677	0.600273
	H106	H	0.115897	0.407678	0.600704
	H107	H	0.888920	0.406422	0.414767
	H108	H	0.912010	0.607517	0.094848
	H109	H	0.089250	0.380579	0.097417
	H110	H	0.092073	0.606769	0.918418
	H111	H	0.911196	0.379492	0.918663
	H112	H	0.090457	0.906800	0.619379
	H113	H	0.091665	0.084985	0.391478
	H114	H	0.915702	0.086944	0.622830
	H115	H	0.912955	0.903235	0.392442
	H116	H	0.619525	0.090860	0.915114
	H117	H	0.392280	0.078540	0.094025
	H118	H	0.617670	0.902868	0.098363
	H119	H	0.393862	0.905256	0.922997
	C120	C	0.382258	0.002118	0.626099
	C121	C	0.625316	0.985273	0.627417
	C122	C	0.624800	0.002013	0.384700
	C123	C	0.380862	0.985473	0.382919
	C124	C	0.624589	0.371831	0.014310
	C125	C	0.623746	0.613558	0.996491
	C126	C	0.381935	0.613653	0.013417
	C127	C	0.381632	0.371986	0.996817
	C128	C	0.011044	0.615300	0.386131
	C129	C	0.995281	0.615727	0.629204
	C130	C	0.010800	0.372314	0.628668
	C131	C	0.994086	0.371811	0.385711
	C132	C	0.881403	0.502242	0.128075
	C133	C	0.125540	0.484941	0.128936
	C134	C	0.124527	0.501235	0.886405
	C135	C	0.880802	0.485380	0.885583
	C136	C	0.125793	0.871995	0.515496
	C137	C	0.123541	0.114077	0.498755
	C138	C	0.880576	0.115324	0.516635
	C139	C	0.882732	0.873300	0.499953
	C140	C	0.511434	0.115468	0.883408
	C141	C	0.495770	0.115261	0.126105
	C142	C	0.511170	0.871570	0.125965
	C143	C	0.495403	0.870838	0.882578
	C144	C	0.383234	0.880640	0.683482
	C145	C	0.624525	0.106471	0.685501
	C146	C	0.623904	0.880439	0.327284
	C147	C	0.381737	0.106994	0.325354
	C148	C	0.682822	0.370742	0.892931
	C149	C	0.682227	0.615585	0.118665
	C150	C	0.321501	0.614658	0.892676
	C151	C	0.324806	0.370317	0.119008
	C152	C	0.891159	0.674199	0.384852
	C153	C	0.115380	0.673573	0.631117
	C154	C	0.890719	0.313799	0.629896
	C155	C	0.113883	0.312256	0.384989
	C156	C	0.890414	0.372880	0.686635
	C157	C	0.115498	0.614833	0.688046
	C158	C	0.890518	0.615259	0.327664
	C159	C	0.114262	0.370593	0.327790
	C160	C	0.380135	0.671244	0.891627
	C161	C	0.624923	0.672946	0.117811
	C162	C	0.623401	0.314897	0.891542
	C163	C	0.383249	0.314359	0.118892
	C164	C	0.683821	0.881511	0.383419
	C165	C	0.683293	0.106207	0.629502
	C166	C	0.324008	0.881489	0.627487
	C167	C	0.322008	0.106156	0.381158
	C168	C	0.881892	0.381015	0.185786
	C169	C	0.125662	0.605761	0.187643
	C170	C	0.123821	0.380234	0.827864
	C171	C	0.881686	0.607100	0.828245
	C172	C	0.183168	0.869423	0.393580
	C173	C	0.182644	0.115043	0.620291
	C174	C	0.821336	0.117487	0.395367
	C175	C	0.824142	0.871699	0.620963
	C176	C	0.391174	0.174073	0.881558
	C177	C	0.616344	0.173053	0.127315
	C178	C	0.391948	0.811987	0.126856
	C179	C	0.614653	0.811016	0.880407
	C180	C	0.391652	0.869821	0.185012
	C181	C	0.615959	0.115272	0.185549
	C182	C	0.390677	0.114509	0.825122
	C183	C	0.616004	0.871661	0.825522
	C184	C	0.878726	0.174476	0.395489
	C185	C	0.123843	0.171604	0.621019
	C186	C	0.124891	0.812737	0.394091
	C187	C	0.882903	0.815211	0.621594
	C188	C	0.183180	0.380718	0.884140
	C189	C	0.184966	0.604920	0.131293
	C190	C	0.822588	0.381795	0.129350
	C191	C	0.821937	0.606000	0.883787
	C192	C	0.405679	0.086591	0.601831
	C193	C	0.601793	0.900881	0.602618
	C194	C	0.600599	0.086180	0.409233
	C195	C	0.404723	0.901367	0.407485
	C196	C	0.601012	0.395669	0.099224
	C197	C	0.599836	0.588789	0.911985
	C198	C	0.407135	0.589416	0.097870
	C199	C	0.404647	0.396305	0.911959
	C200	C	0.094535	0.590758	0.410875
	C201	C	0.911211	0.592295	0.604689
	C202	C	0.094966	0.395611	0.605072
	C203	C	0.910699	0.396161	0.409519
	C204	C	0.904976	0.586439	0.104006
	C205	C	0.101081	0.401081	0.103704
	C206	C	0.100662	0.585345	0.911479
	C207	C	0.904765	0.401337	0.909765
	C208	C	0.102645	0.897137	0.599887
	C209	C	0.099285	0.090092	0.413913
	C210	C	0.905503	0.090716	0.601239
	C211	C	0.906626	0.897702	0.415154
	C212	C	0.595427	0.091996	0.907767
	C213	C	0.412204	0.091502	0.101092
	C214	C	0.594622	0.895932	0.101536
	C215	C	0.411612	0.894793	0.906986
	Zn216	Zn	0.503862	-0.006481	0.754556
	Zn217	Zn	0.503196	-0.006343	0.254986
	Zn218	Zn	0.751807	0.493765	0.006376
	Zn219	Zn	0.253954	0.492560	0.007027
	Zn220	Zn	0.003563	0.744787	0.508118
	Zn221	Zn	0.002340	0.242412	0.507455
	Zn222	Zn	0.002707	0.493979	0.757529
	Zn223	Zn	0.002846	0.493300	0.256726
	Zn224	Zn	0.503151	0.741958	0.004009
	Zn225	Zn	0.503243	0.244717	0.004789
	Zn226	Zn	0.753316	-0.006214	0.507404
	Zn227	Zn	0.253174	-0.005954	0.505505
	N228	N	0.418685	0.956657	0.682783
	N229	N	0.589558	0.030076	0.684579
	N230	N	0.587988	0.956412	0.327941
	N231	N	0.417016	0.030708	0.325855
	N232	N	0.683676	0.405233	0.970174
	N233	N	0.681552	0.579367	0.042084
	N234	N	0.322439	0.579801	0.969592
	N235	N	0.323699	0.405269	0.042104
	N236	N	0.967070	0.674317	0.420582
	N237	N	0.039545	0.674263	0.595376
	N238	N	0.966682	0.313372	0.594715
	N239	N	0.038033	0.312659	0.420259
	N240	N	0.966114	0.408484	0.685947
	N241	N	0.039706	0.579520	0.686861
	N242	N	0.966148	0.579396	0.328283
	N243	N	0.038938	0.406717	0.327904
	N244	N	0.417042	0.670667	0.967725
	N245	N	0.589298	0.671827	0.041204
	N246	N	0.588034	0.315555	0.968113
	N247	N	0.417699	0.314996	0.041774
	N248	N	0.684660	0.958260	0.418231
	N249	N	0.683937	0.029712	0.594145
	N250	N	0.323681	0.957957	0.592235
	N251	N	0.321298	0.029666	0.416270
	N252	N	0.918026	0.456728	0.184778
	N253	N	0.089528	0.530087	0.186219
	N254	N	0.087918	0.456185	0.829193
	N255	N	0.917599	0.531035	0.829167
	N256	N	0.184078	0.905685	0.470031
	N257	N	0.182653	0.080125	0.543090
	N258	N	0.822397	0.081450	0.471762
	N259	N	0.824160	0.907311	0.544253
	N260	N	0.467207	0.174939	0.916982
	N261	N	0.540493	0.173425	0.091094
	N262	N	0.467223	0.813091	0.090604
	N263	N	0.538541	0.810510	0.915259
	N264	N	0.466919	0.906139	0.184670
	N265	N	0.540149	0.080003	0.184765
	N266	N	0.466423	0.078826	0.826231
	N267	N	0.540596	0.907773	0.826348
	N268	N	0.914828	0.173315	0.471949
	N269	N	0.087564	0.171016	0.544589
	N270	N	0.090277	0.813985	0.470940
	N271	N	0.918541	0.816167	0.545284
	N272	N	0.183500	0.456878	0.919828
	N273	N	0.185138	0.528715	0.095551
	N274	N	0.822336	0.458177	0.093979
	N275	N	0.820911	0.529388	0.918427
	O276	O	-0.160045	0.101480	0.041426
	H277	H	-0.182292	0.111986	0.052463
	H278	H	-0.151882	0.107515	0.046465
	O279	O	0.635341	0.496751	0.488837
	H280	H	0.625293	0.499135	0.496386
	H281	H	0.633371	0.492117	0.489698
	O282	O	0.497345	-0.401687	0.346249
	H283	H	0.493944	-0.416821	0.344281
	H284	H	0.504048	-0.397303	0.328786
	O285	O	0.567659	0.497637	0.549404
	H286	H	0.559129	0.509903	0.542655
	H287	H	0.575489	0.490493	0.562823
	O288	O	1.148774	0.791607	0.961699
	H289	H	1.148036	0.800028	0.943770
	H290	H	1.155008	0.773697	0.952796
	O291	O	-0.013076	1.122770	-0.058864
	H292	H	-0.006758	1.130260	-0.055890
	H293	H	-0.027743	1.118027	-0.050768
	O294	O	0.322259	0.582845	0.366756
	H295	H	0.330281	0.581105	0.352387
	H296	H	0.316348	0.578774	0.376376
	O297	O	0.567613	0.414999	0.619877
	H298	H	0.573603	0.409534	0.599447
	H299	H	0.570704	0.413450	0.627614
	O300	O	0.334450	0.407577	0.462535
	H301	H	0.339707	0.432123	0.462583
	H302	H	0.331319	0.388764	0.472039
	O303	O	0.441226	0.412213	0.598611
	H304	H	0.455733	0.416989	0.608806
	H305	H	0.435357	0.417743	0.598769
	O306	O	0.554046	0.479815	0.540164
	H307	H	0.559268	0.483015	0.541745
	H308	H	0.542818	0.476942	0.539420
	O309	O	0.639716	0.623831	0.659972
	H310	H	0.650284	0.626845	0.645155
	H311	H	0.626992	0.626101	0.664699
	O312	O	0.047329	0.068051	-0.172293
	H313	H	0.047760	0.059654	-0.166544
	H314	H	0.048379	0.076757	-0.181517
	O315	O	0.509261	0.554128	0.683941
	H316	H	0.507223	0.556846	0.688789
	H317	H	0.519295	0.556235	0.685577
	O318	O	-0.116588	0.920293	1.174360
	H319	H	-0.106992	0.906561	1.178769
	H320	H	-0.126132	0.935157	1.168203
	O321	O	0.565876	0.306372	0.583705
	H322	H	0.571047	0.294897	0.575331
	H323	H	0.548677	0.320064	0.577332
	O324	O	0.028152	1.066080	-0.071368
	H325	H	0.030583	1.058378	-0.082577
	H326	H	0.017701	1.059767	-0.072812
	O327	O	0.605995	0.434053	0.467576
	H328	H	0.606209	0.425104	0.473757
	H329	H	0.596407	0.443555	0.475551
	O330	O	-0.144630	-0.126882	0.925112
	H331	H	-0.146754	-0.126788	0.931421
	H332	H	-0.158477	-0.132065	0.917033
	O333	O	0.092635	0.129832	1.177209
	H334	H	0.096861	0.124831	1.160984
	H335	H	0.074102	0.127951	1.183868
	O336	O	0.354965	0.672308	0.462782
	H337	H	0.351882	0.675495	0.442966
	H338	H	0.341471	0.679479	0.463009
	O339	O	0.894091	-0.022837	-0.011982
	H340	H	0.891453	-0.028606	-0.000478
	H341	H	0.908487	-0.040146	-0.012663
	O342	O	-0.087341	0.013940	0.016917
	H343	H	-0.086190	0.007343	0.015126
	H344	H	-0.080637	0.024585	0.021931
	O345	O	1.039869	-0.000524	0.930255
	H346	H	1.034755	-0.006272	0.921237
	H347	H	1.035471	0.002924	0.935905
	O348	O	1.184901	1.134422	0.159614
	H349	H	1.193282	1.161584	0.142407
	H350	H	1.186052	1.122754	0.165245
	O351	O	0.414515	0.489046	0.616316
	H352	H	0.424305	0.485626	0.616516
	H353	H	0.407132	0.472566	0.611379
	O354	O	1.060572	-0.113460	0.981907
	H355	H	1.061524	-0.108723	0.970714
	H356	H	1.063437	-0.120204	0.975958
	O357	O	0.463915	0.622817	0.538117
	H358	H	0.469813	0.615341	0.544505
	H359	H	0.457078	0.630290	0.546798
	O360	O	0.458581	0.474074	0.505981
	H361	H	0.462095	0.472821	0.498324
	H362	H	0.455983	0.464042	0.511342
	O363	O	-0.001622	0.985077	1.101390
	H364	H	0.010597	0.987132	1.093448
	H365	H	-0.006279	0.989128	1.102557
	O366	O	0.369404	0.438266	0.526129
	H367	H	0.373559	0.446891	0.523773
	H368	H	0.372763	0.450937	0.515746
	O369	O	-0.077365	0.955228	-0.010360
	H370	H	-0.080355	0.952016	-0.011572
	H371	H	-0.061678	0.955122	-0.005591
	O372	O	0.657081	0.511827	0.457189
	H373	H	0.643497	0.506377	0.444406
	H374	H	0.674436	0.520519	0.463788
	O375	O	0.536115	0.430462	0.421374
	H376	H	0.540080	0.436704	0.418223
	H377	H	0.547536	0.442873	0.411704
	O378	O	0.919513	0.915967	-0.079402
	H379	H	0.919575	0.911082	-0.069723
	H380	H	0.924370	0.915886	-0.082975
	O381	O	1.118505	0.101850	0.022830
	H382	H	1.101944	0.092270	0.026640
	H383	H	1.126407	0.115626	0.020287
	O384	O	1.140624	0.890167	-0.143513
	H385	H	1.131902	0.882657	-0.149229
	H386	H	1.136098	0.912452	-0.156622
	O387	O	-0.007344	-0.006616	-0.074119
	H388	H	-0.012529	0.012374	-0.079448
	H389	H	-0.014351	-0.009543	-0.072431
	O390	O	-0.031609	1.157544	-0.004684
	H391	H	-0.030237	1.157447	-0.006123
	H392	H	-0.018217	1.160576	-0.010852
	O393	O	0.861718	0.931555	1.010874
	H394	H	0.861975	0.931210	1.028621
	H395	H	0.850045	0.918714	1.009782
	O396	O	0.428204	0.328958	0.489964
	H397	H	0.437903	0.315247	0.501408
	H398	H	0.428785	0.327110	0.499218
	O399	O	-0.022070	0.957081	1.147269
	H400	H	-0.005158	0.953879	1.159403
	H401	H	-0.013722	0.951184	1.149728
	O402	O	0.612872	0.504847	0.402877
	H403	H	0.609514	0.497906	0.412934
	H404	H	0.610602	0.506245	0.403296
	O405	O	1.018928	1.038825	0.179818
	H406	H	1.020151	1.020757	0.189990
	H407	H	1.030075	1.050308	0.183637
	O408	O	1.098810	0.966257	0.167133
	H409	H	1.094368	0.989073	0.150907
	H410	H	1.123738	0.969325	0.187569
	O411	O	1.150694	-0.065271	1.083968
	H412	H	1.159269	-0.055212	1.100802
	H413	H	1.159291	-0.065645	1.084976
	O414	O	0.489953	0.665113	0.478949
	H415	H	0.473073	0.661146	0.475241
	H416	H	0.487746	0.667593	0.488397
	O417	O	0.519862	0.683144	0.458876
	H418	H	0.517811	0.693145	0.467317
	H419	H	0.521665	0.689421	0.461426
