data_Molecule from HDF5

_cell_length_a		16.465561
_cell_length_b		16.302830
_cell_length_c		16.489102
_cell_angle_alpha	90.057526
_cell_angle_beta	90.159217
_cell_angle_gamma	90.047085
_symmetry_space_group_name_H-M	'P 1'
_symmetry_Int_Tables_number		1

loop_
	_symmetry_equiv_pos_as_xyz
	x,y,z

loop_
	_atom_site_label
	_atom_site_type_symbol
	_atom_site_fract_x
	_atom_site_fract_y
	_atom_site_fract_z
	H0	H	0.393502	0.844185	0.730479
	H1	H	0.607845	0.160693	0.729540
	H2	H	0.606893	0.842440	0.285697
	H3	H	0.395914	0.160824	0.286635
	H4	H	0.726438	0.392579	0.850949
	H5	H	0.726543	0.608708	0.165251
	H6	H	0.278678	0.608946	0.851272
	H7	H	0.280820	0.395543	0.165377
	H8	H	0.843490	0.720773	0.403276
	H9	H	0.161719	0.720551	0.612131
	H10	H	0.842249	0.282334	0.609727
	H11	H	0.161626	0.282481	0.407303
	H12	H	0.845972	0.391007	0.731745
	H13	H	0.161431	0.604970	0.729565
	H14	H	0.844963	0.607193	0.284634
	H15	H	0.160866	0.395026	0.287504
	H16	H	0.399208	0.721345	0.848642
	H17	H	0.608256	0.723196	0.166648
	H18	H	0.607871	0.279155	0.850499
	H19	H	0.398831	0.281196	0.166617
	H20	H	0.723221	0.841945	0.400587
	H21	H	0.722790	0.160738	0.613261
	H22	H	0.281010	0.842423	0.612382
	H23	H	0.281240	0.160650	0.402672
	H24	H	0.897846	0.340798	0.227441
	H25	H	0.111643	0.660089	0.232001
	H26	H	0.108678	0.339574	0.788652
	H27	H	0.897718	0.659520	0.785611
	H28	H	0.224734	0.893466	0.350635
	H29	H	0.223627	0.106707	0.665491
	H30	H	0.777586	0.108461	0.350572
	H31	H	0.779679	0.894076	0.665764
	H32	H	0.343150	0.222209	0.905949
	H33	H	0.661717	0.223222	0.113508
	H34	H	0.344119	0.782373	0.109366
	H35	H	0.661612	0.781777	0.901917
	H36	H	0.344116	0.896511	0.227411
	H37	H	0.659614	0.111499	0.232962
	H38	H	0.343700	0.109317	0.786233
	H39	H	0.659161	0.896205	0.783833
	H40	H	0.896477	0.222084	0.349491
	H41	H	0.103886	0.219498	0.667832
	H42	H	0.107316	0.778944	0.350268
	H43	H	0.899796	0.780823	0.667410
	H44	H	0.224650	0.341372	0.903569
	H45	H	0.223617	0.661066	0.113624
	H46	H	0.781411	0.342051	0.113365
	H47	H	0.781389	0.660090	0.900557
	H48	H	0.399785	0.121503	0.598972
	H49	H	0.585232	0.888008	0.600116
	H50	H	0.588455	0.114813	0.418380
	H51	H	0.411276	0.887002	0.418371
	H52	H	0.594865	0.408979	0.122441
	H53	H	0.591046	0.591446	0.895402
	H54	H	0.410166	0.589454	0.121094
	H55	H	0.413666	0.419416	0.897700
	H56	H	0.112568	0.582053	0.420403
	H57	H	0.888796	0.584020	0.606085
	H58	H	0.115067	0.413526	0.599464
	H59	H	0.887785	0.415568	0.410432
	H60	H	0.117271	0.408585	0.601170
	H61	H	0.888030	0.597555	0.595461
	H62	H	0.118056	0.590779	0.413992
	H63	H	0.885906	0.405092	0.415107
	H64	H	0.416508	0.590117	0.118958
	H65	H	0.594205	0.591447	0.895359
	H66	H	0.596925	0.418421	0.120385
	H67	H	0.418923	0.411285	0.896621
	H68	H	0.588632	0.113844	0.421869
	H69	H	0.587204	0.889879	0.590610
	H70	H	0.422641	0.116414	0.606450
	H71	H	0.413005	0.886386	0.416627
	H72	H	0.917991	0.612891	0.093671
	H73	H	0.093374	0.388349	0.093488
	H74	H	0.089182	0.612165	0.922438
	H75	H	0.919600	0.387980	0.917088
	H76	H	0.091366	0.915985	0.618895
	H77	H	0.093366	0.093066	0.393671
	H78	H	0.906199	0.091914	0.623343
	H79	H	0.912810	0.918780	0.398543
	H80	H	0.612323	0.090475	0.927619
	H81	H	0.390390	0.092907	0.095113
	H82	H	0.614072	0.917430	0.096617
	H83	H	0.388174	0.911255	0.915647
	H84	H	0.617448	0.914060	0.101218
	H85	H	0.391103	0.086475	0.097123
	H86	H	0.612758	0.080826	0.914212
	H87	H	0.389930	0.911209	0.920162
	H88	H	0.911652	0.084871	0.618722
	H89	H	0.092676	0.087221	0.395297
	H90	H	0.089979	0.909894	0.620633
	H91	H	0.918167	0.909019	0.396626
	H92	H	0.096263	0.616033	0.918299
	H93	H	0.094556	0.385753	0.099522
	H94	H	0.912974	0.615054	0.095403
	H95	H	0.914968	0.389190	0.925439
	H96	H	0.415876	0.111218	0.583478
	H97	H	0.594341	0.886023	0.596604
	H98	H	0.591375	0.115205	0.420134
	H99	H	0.413586	0.887431	0.418721
	H100	H	0.587824	0.414995	0.118458
	H101	H	0.592629	0.588510	0.895655
	H102	H	0.413723	0.595158	0.122782
	H103	H	0.410006	0.411417	0.893102
	H104	H	0.113463	0.592411	0.424872
	H105	H	0.894631	0.582702	0.589830
	H106	H	0.115437	0.409118	0.595550
	H107	H	0.890525	0.413897	0.421688
	H108	H	0.917346	0.615366	0.098470
	H109	H	0.088259	0.387620	0.098305
	H110	H	0.087968	0.615189	0.913867
	H111	H	0.910614	0.385572	0.918180
	H112	H	0.095131	0.912513	0.621842
	H113	H	0.087641	0.090621	0.395624
	H114	H	0.915652	0.093787	0.620402
	H115	H	0.907284	0.910250	0.393903
	H116	H	0.618455	0.095750	0.913560
	H117	H	0.388853	0.091624	0.101281
	H118	H	0.616035	0.911158	0.095260
	H119	H	0.390293	0.915384	0.917551
	C120	C	0.380640	0.010925	0.628699
	C121	C	0.621813	0.993282	0.628575
	C122	C	0.622691	0.009678	0.386589
	C123	C	0.380269	0.992307	0.385816
	C124	C	0.625484	0.380213	0.016462
	C125	C	0.625160	0.623660	0.999321
	C126	C	0.380903	0.623458	0.016476
	C127	C	0.381615	0.381156	1.000146
	C128	C	0.010741	0.621625	0.386644
	C129	C	0.995139	0.620628	0.629121
	C130	C	0.011008	0.378570	0.629754
	C131	C	0.993322	0.379295	0.385419
	C132	C	0.883293	0.509367	0.128179
	C133	C	0.124554	0.492844	0.129743
	C134	C	0.124354	0.508770	0.886805
	C135	C	0.881805	0.492198	0.886422
	C136	C	0.123939	0.879733	0.516193
	C137	C	0.122857	0.122319	0.499557
	C138	C	0.879059	0.122679	0.516427
	C139	C	0.880431	0.879578	0.500415
	C140	C	0.510149	0.122653	0.887100
	C141	C	0.494435	0.123512	0.130222
	C142	C	0.511072	0.881547	0.128900
	C143	C	0.493880	0.880027	0.885020
	C144	C	0.376848	0.891497	0.689833
	C145	C	0.625531	0.112991	0.689138
	C146	C	0.625488	0.890261	0.325487
	C147	C	0.377798	0.112608	0.326179
	C148	C	0.686194	0.375509	0.898241
	C149	C	0.685779	0.626315	0.118238
	C150	C	0.319715	0.626472	0.898038
	C151	C	0.321373	0.377975	0.118611
	C152	C	0.891344	0.681377	0.384462
	C153	C	0.114100	0.680781	0.630913
	C154	C	0.890742	0.320382	0.629815
	C155	C	0.113473	0.320772	0.386862
	C156	C	0.892444	0.374990	0.690324
	C157	C	0.114122	0.623196	0.689349
	C158	C	0.892168	0.625106	0.325087
	C159	C	0.113026	0.376933	0.327223
	C160	C	0.379849	0.682462	0.896688
	C161	C	0.627001	0.683565	0.118795
	C162	C	0.627110	0.318827	0.898123
	C163	C	0.380047	0.321017	0.119109
	C164	C	0.683280	0.889962	0.382832
	C165	C	0.682629	0.113039	0.631168
	C166	C	0.320847	0.890507	0.630905
	C167	C	0.320534	0.112617	0.383865
	C168	C	0.880100	0.389075	0.187833
	C169	C	0.128167	0.612407	0.190755
	C170	C	0.126721	0.387934	0.828057
	C171	C	0.879521	0.611796	0.825770
	C172	C	0.184245	0.876357	0.397643
	C173	C	0.182877	0.124541	0.618552
	C174	C	0.818314	0.125581	0.397812
	C175	C	0.820434	0.876440	0.618901
	C176	C	0.390923	0.182957	0.886380
	C177	C	0.613776	0.183632	0.132084
	C178	C	0.391828	0.821551	0.128952
	C179	C	0.613353	0.820682	0.882978
	C180	C	0.391831	0.878667	0.187623
	C181	C	0.612837	0.127967	0.191714
	C182	C	0.390988	0.126681	0.826790
	C183	C	0.612004	0.877669	0.823931
	C184	C	0.877317	0.182557	0.397348
	C185	C	0.123560	0.180896	0.619433
	C186	C	0.125598	0.819127	0.397482
	C187	C	0.879859	0.819720	0.619554
	C188	C	0.184773	0.388863	0.885236
	C189	C	0.184193	0.613015	0.132033
	C190	C	0.821998	0.389680	0.130801
	C191	C	0.821497	0.612145	0.882968
	C192	C	0.405693	0.094540	0.603397
	C193	C	0.596115	0.909857	0.603141
	C194	C	0.597043	0.092948	0.412564
	C195	C	0.405431	0.908683	0.410579
	C196	C	0.600616	0.406646	0.098909
	C197	C	0.599920	0.597972	0.916996
	C198	C	0.406064	0.598666	0.099210
	C199	C	0.406844	0.406827	0.917531
	C200	C	0.093309	0.595695	0.412266
	C201	C	0.912128	0.595260	0.604274
	C202	C	0.094214	0.403181	0.605611
	C203	C	0.909907	0.404256	0.408908
	C204	C	0.909005	0.592654	0.102978
	C205	C	0.099369	0.409059	0.104265
	C206	C	0.098672	0.592562	0.911298
	C207	C	0.907521	0.409040	0.912614
	C208	C	0.099246	0.905356	0.598869
	C209	C	0.098274	0.097272	0.416444
	C210	C	0.903968	0.097371	0.599225
	C211	C	0.905517	0.905240	0.417745
	C212	C	0.592794	0.096575	0.911662
	C213	C	0.411660	0.097637	0.104951
	C214	C	0.594331	0.906947	0.104820
	C215	C	0.411110	0.905175	0.910485
	Zn216	Zn	0.501247	0.002698	0.756791
	Zn217	Zn	0.502243	0.002259	0.258369
	Zn218	Zn	0.754306	0.501809	0.007873
	Zn219	Zn	0.252003	0.501509	0.008260
	Zn220	Zn	0.002031	0.750341	0.508322
	Zn221	Zn	0.001455	0.251001	0.508297
	Zn222	Zn	0.003004	0.499279	0.758791
	Zn223	Zn	0.003081	0.501112	0.257082
	Zn224	Zn	0.503195	0.752351	0.007406
	Zn225	Zn	0.502883	0.251908	0.008418
	Zn226	Zn	0.750344	0.000425	0.508275
	Zn227	Zn	0.252942	0.001507	0.507327
	N228	N	0.413083	0.967461	0.688673
	N229	N	0.588256	0.037672	0.687473
	N230	N	0.588641	0.965882	0.327664
	N231	N	0.414380	0.036858	0.327244
	N232	N	0.685362	0.412917	0.973080
	N233	N	0.685216	0.590123	0.042919
	N234	N	0.320268	0.590612	0.973423
	N235	N	0.322280	0.414599	0.043516
	N236	N	0.966050	0.679571	0.421796
	N237	N	0.039175	0.679152	0.594183
	N238	N	0.965374	0.322601	0.592835
	N239	N	0.037816	0.321880	0.422131
	N240	N	0.968241	0.410470	0.690650
	N241	N	0.038913	0.586531	0.688488
	N242	N	0.967573	0.588891	0.326153
	N243	N	0.037372	0.412257	0.326019
	N244	N	0.417102	0.681026	0.971284
	N245	N	0.590284	0.682313	0.043919
	N246	N	0.590320	0.321506	0.972707
	N247	N	0.416996	0.322993	0.044414
	N248	N	0.681745	0.965367	0.420015
	N249	N	0.680742	0.037289	0.594524
	N250	N	0.323110	0.965749	0.593412
	N251	N	0.321802	0.036748	0.420095
	N252	N	0.917497	0.464427	0.186311
	N253	N	0.091693	0.536509	0.189481
	N254	N	0.089913	0.463509	0.828833
	N255	N	0.915880	0.535900	0.827501
	N256	N	0.183399	0.913554	0.472486
	N257	N	0.182752	0.088838	0.542940
	N258	N	0.819403	0.088892	0.472897
	N259	N	0.820654	0.912826	0.543766
	N260	N	0.465984	0.180836	0.922862
	N261	N	0.539074	0.181180	0.094637
	N262	N	0.467167	0.823091	0.093268
	N263	N	0.538941	0.822367	0.920380
	N264	N	0.467057	0.915166	0.187715
	N265	N	0.537586	0.091304	0.190728
	N266	N	0.466163	0.090085	0.826882
	N267	N	0.536550	0.913730	0.825051
	N268	N	0.914603	0.180691	0.471849
	N269	N	0.087107	0.179741	0.544355
	N270	N	0.088899	0.821191	0.471988
	N271	N	0.916280	0.821485	0.544676
	N272	N	0.183356	0.465102	0.921056
	N273	N	0.182080	0.537609	0.094735
	N274	N	0.823849	0.465532	0.094350
	N275	N	0.822760	0.536572	0.919829
	O276	O	0.315782	0.310133	0.543715
	H277	H	0.304287	0.306990	0.547346
	H278	H	0.313859	0.330420	0.531024
	O279	O	0.656349	0.676835	0.456526
	H280	H	0.657258	0.667132	0.453159
	H281	H	0.655612	0.673217	0.458018
	O282	O	0.529407	0.508517	0.343353
	H283	H	0.525136	0.498918	0.326325
	H284	H	0.521212	0.491874	0.344141
	O285	O	1.030426	1.038120	-0.150867
	H286	H	1.045662	1.033545	-0.156522
	H287	H	1.033004	1.032348	-0.124329
	O288	O	0.678915	0.334502	0.410866
	H289	H	0.685153	0.337077	0.433018
	H290	H	0.686185	0.350063	0.431174
	O291	O	0.609420	0.312634	0.316894
	H292	H	0.599391	0.303169	0.317227
	H293	H	0.621198	0.296583	0.327941
	O294	O	0.876189	0.961010	1.017067
	H295	H	0.878309	0.974304	1.028406
	H296	H	0.861647	0.957793	1.020729
	O297	O	0.289349	0.618908	0.494098
	H298	H	0.287497	0.633755	0.495589
	H299	H	0.284577	0.625522	0.496638
	O300	O	0.503035	0.294391	0.679827
	H301	H	0.487636	0.283130	0.694325
	H302	H	0.474640	0.296612	0.683918
	O303	O	0.436746	0.679197	0.458830
	H304	H	0.445415	0.673031	0.458488
	H305	H	0.459337	0.684538	0.462583
	O306	O	-0.135274	-0.080652	1.202923
	H307	H	-0.132206	-0.045884	1.215933
	H308	H	-0.098599	-0.076768	1.204604
	O309	O	0.979729	-0.205574	0.222658
	H310	H	0.982424	-0.216712	0.237374
	H311	H	0.971056	-0.205583	0.226130
	O312	O	0.320109	0.444143	0.402182
	H313	H	0.313290	0.452063	0.404720
	H314	H	0.316063	0.463251	0.405767
	O315	O	-0.077237	0.122898	1.014905
	H316	H	-0.081096	0.135907	1.000607
	H317	H	-0.059303	0.132629	1.004271
	O318	O	0.090073	0.018497	0.188117
	H319	H	0.087805	-0.011986	0.180452
	H320	H	0.080327	0.025047	0.194392
	O321	O	1.205734	0.090807	0.195974
	H322	H	1.221403	0.079840	0.217208
	H323	H	1.189999	0.083328	0.188835
	O324	O	0.946214	-0.045778	0.910892
	H325	H	0.947097	-0.054753	0.908574
	H326	H	0.940504	-0.044455	0.912724
	O327	O	0.474941	0.305958	0.438406
	H328	H	0.468792	0.306119	0.433291
	H329	H	0.462515	0.307141	0.433415
	O330	O	-0.209005	1.185346	0.965086
	H331	H	-0.237717	1.223125	0.959182
	H332	H	-0.189848	1.180592	0.963883
	O333	O	0.112412	0.980500	-0.130784
	H334	H	0.113051	0.974591	-0.148487
	H335	H	0.107547	0.958678	-0.126155
	O336	O	1.146966	0.815697	0.069500
	H337	H	1.164374	0.799844	0.082121
	H338	H	1.139460	0.821439	0.067182
	O339	O	-0.192187	0.986541	1.133165
	H340	H	-0.195179	1.000984	1.118323
	H341	H	-0.213791	0.995301	1.147509
	O342	O	0.680276	0.497322	0.332806
	H343	H	0.679861	0.471995	0.326171
	H344	H	0.685513	0.484298	0.347122
	O345	O	0.049227	0.145531	1.208569
	H346	H	0.047767	0.163043	1.221311
	H347	H	0.077486	0.128640	1.204462
	O348	O	0.360833	0.524592	0.685040
	H349	H	0.372799	0.560714	0.688702
	H350	H	0.379604	0.518802	0.691008
	O351	O	0.842360	0.865391	-0.069120
	H352	H	0.843272	0.880281	-0.065490
	H353	H	0.830408	0.856964	-0.056393
	O354	O	1.172982	1.095108	1.001059
	H355	H	1.179546	1.096959	0.997236
	H356	H	1.172708	1.075726	0.980662
	O357	O	0.074127	0.134099	-0.144050
	H358	H	0.083984	0.134268	-0.152752
	H359	H	0.078726	0.120159	-0.148337
	O360	O	0.674738	0.666257	0.682560
	H361	H	0.648575	0.666052	0.680121
	H362	H	0.678435	0.667842	0.661104
	O363	O	0.885067	-0.096843	0.090826
	H364	H	0.866944	-0.103091	0.097744
	H365	H	0.895532	-0.085526	0.101389
	O366	O	0.041176	0.083570	0.944098
	H367	H	0.032960	0.094632	0.942897
	H368	H	0.067920	0.093860	0.959857
	O369	O	0.561783	0.446925	0.460298
	H370	H	0.570473	0.442398	0.438547
	H371	H	0.545030	0.423567	0.473279
	O372	O	0.307580	0.500260	0.545159
	H373	H	0.301117	0.494336	0.560292
	H374	H	0.318946	0.518896	0.548995
	O375	O	0.185009	-0.171255	0.869662
	H376	H	0.148675	-0.175688	0.867895
	H377	H	0.196092	-0.175431	0.897157
	O378	O	0.133961	0.115143	0.021746
	H379	H	0.143040	0.095747	0.017759
	H380	H	0.138688	0.095396	0.005052
	O381	O	-0.106495	1.186967	-0.154825
	H382	H	-0.098235	1.188281	-0.159691
	H383	H	-0.113116	1.183200	-0.146630
	O384	O	0.451793	0.560239	0.681130
	H385	H	0.462577	0.553447	0.679071
	H386	H	0.466751	0.566349	0.675026
	O387	O	0.519497	0.715180	0.717305
	H388	H	0.522250	0.740991	0.730853
	H389	H	0.524747	0.713502	0.700089
	O390	O	0.968970	0.905944	0.048139
	H391	H	0.969142	0.906535	0.039556
	H392	H	0.955256	0.919183	0.049599
	O393	O	0.373801	0.683430	0.323806
	H394	H	0.369843	0.669691	0.341781
	H395	H	0.411351	0.691909	0.319471
	O396	O	0.581803	0.510422	0.598704
	H397	H	0.569958	0.512623	0.598913
	H398	H	0.582653	0.511125	0.594616
	O399	O	0.719465	0.515595	0.724374
	H400	H	0.708603	0.539640	0.721012
	H401	H	0.745896	0.529745	0.750190
	O402	O	1.043446	0.819136	-0.157524
	H403	H	1.035126	0.829462	-0.165385
	H404	H	1.044680	0.824697	-0.150780
	O405	O	0.460894	0.687541	0.421878
	H406	H	0.484170	0.683434	0.432172
	H407	H	0.466705	0.677941	0.412164
	O408	O	0.429173	0.458099	0.426085
	H409	H	0.422277	0.459210	0.425030
	H410	H	0.415576	0.446477	0.431435
	O411	O	1.170783	0.914964	1.030311
	H412	H	1.157335	0.907893	1.033605
	H413	H	1.162984	0.915842	1.019855
	O414	O	0.632850	0.339853	0.567698
	H415	H	0.632719	0.335229	0.577379
	H416	H	0.621801	0.329655	0.582720
	O417	O	-0.191162	1.087437	0.808203
	H418	H	-0.199373	1.075110	0.817347
	H419	H	-0.197601	1.089534	0.800078
	O420	O	-0.090203	0.860271	0.970397
	H421	H	-0.091743	0.869080	0.970285
	H422	H	-0.087921	0.856354	0.979125
	O423	O	-0.053604	1.158559	0.156431
	H424	H	-0.054040	1.166690	0.181173
	H425	H	-0.041805	1.159396	0.152945
	O426	O	0.314991	0.479062	0.322420
	H427	H	0.297882	0.477777	0.305960
	H428	H	0.322611	0.505896	0.338801
	O429	O	0.653021	0.538833	0.488835
	H430	H	0.660856	0.533682	0.500219
	H431	H	0.655051	0.547225	0.504144
	O432	O	0.356714	0.309290	0.699858
	H433	H	0.339856	0.310776	0.675651
	H434	H	0.346932	0.333527	0.704930
	O435	O	0.057852	0.010255	0.066648
	H436	H	0.051155	0.033841	0.051367
	H437	H	0.051258	0.016875	0.087097
	O438	O	0.486496	0.553774	0.600260
	H439	H	0.495796	0.553412	0.591230
	H440	H	0.490359	0.554408	0.594304
	O441	O	0.670130	0.611443	0.521604
	H442	H	0.682663	0.611548	0.525759
	H443	H	0.662908	0.601869	0.495053
