data_Molecule from HDF5

_cell_length_a		16.378768
_cell_length_b		16.117500
_cell_length_c		16.322109
_cell_angle_alpha	89.893169
_cell_angle_beta	90.387309
_cell_angle_gamma	90.107513
_symmetry_space_group_name_H-M	'P 1'
_symmetry_Int_Tables_number		1

loop_
	_symmetry_equiv_pos_as_xyz
	x,y,z

loop_
	_atom_site_label
	_atom_site_type_symbol
	_atom_site_fract_x
	_atom_site_fract_y
	_atom_site_fract_z
	H0	H	0.400812	0.830515	0.712312
	H1	H	0.600999	0.159582	0.714243
	H2	H	0.597152	0.830608	0.286437
	H3	H	0.401276	0.160465	0.283643
	H4	H	0.717047	0.391540	0.838210
	H5	H	0.720539	0.598498	0.160712
	H6	H	0.280801	0.597571	0.837649
	H7	H	0.284588	0.391785	0.161714
	H8	H	0.837317	0.709963	0.399357
	H9	H	0.162993	0.711386	0.599376
	H10	H	0.837893	0.280096	0.596134
	H11	H	0.163982	0.282206	0.403970
	H12	H	0.838714	0.393556	0.716059
	H13	H	0.161725	0.597774	0.719258
	H14	H	0.839069	0.596116	0.280711
	H15	H	0.163214	0.395801	0.285143
	H16	H	0.400281	0.710447	0.836436
	H17	H	0.599122	0.708159	0.163302
	H18	H	0.594397	0.282837	0.835195
	H19	H	0.404938	0.280974	0.163163
	H20	H	0.714195	0.831048	0.399657
	H21	H	0.717524	0.159525	0.600381
	H22	H	0.284923	0.832147	0.597166
	H23	H	0.285930	0.160498	0.396859
	H24	H	0.903359	0.330169	0.212619
	H25	H	0.100682	0.660103	0.213395
	H26	H	0.098735	0.330808	0.786434
	H27	H	0.898206	0.659095	0.781800
	H28	H	0.215694	0.894964	0.335851
	H29	H	0.220449	0.099989	0.659947
	H30	H	0.782154	0.097590	0.337263
	H31	H	0.785188	0.893111	0.661527
	H32	H	0.336823	0.208641	0.900853
	H33	H	0.663499	0.209398	0.098412
	H34	H	0.337102	0.778957	0.097003
	H35	H	0.663809	0.780459	0.902642
	H36	H	0.337957	0.894090	0.215935
	H37	H	0.661796	0.096294	0.217256
	H38	H	0.337979	0.095857	0.780422
	H39	H	0.661787	0.892041	0.781694
	H40	H	0.902922	0.208996	0.335123
	H41	H	0.098928	0.209138	0.662502
	H42	H	0.097683	0.781391	0.335587
	H43	H	0.904070	0.781001	0.662170
	H44	H	0.213132	0.330816	0.901369
	H45	H	0.218329	0.658189	0.101870
	H46	H	0.786200	0.330517	0.099168
	H47	H	0.782423	0.658634	0.895829
	H48	H	0.405623	0.115040	0.590355
	H49	H	0.590437	0.881846	0.581227
	H50	H	0.587362	0.113372	0.402537
	H51	H	0.410498	0.878568	0.406383
	H52	H	0.598540	0.400716	0.117271
	H53	H	0.594805	0.585131	0.883526
	H54	H	0.401342	0.581049	0.115847
	H55	H	0.403999	0.400774	0.882640
	H56	H	0.116522	0.592122	0.408134
	H57	H	0.887289	0.572428	0.599088
	H58	H	0.114295	0.410132	0.593341
	H59	H	0.887230	0.409965	0.407473
	H60	H	0.118233	0.401849	0.601164
	H61	H	0.879607	0.599786	0.597830
	H62	H	0.113721	0.585379	0.409250
	H63	H	0.882787	0.402466	0.396520
	H64	H	0.414660	0.582705	0.111460
	H65	H	0.589233	0.583785	0.885943
	H66	H	0.595665	0.407073	0.114414
	H67	H	0.402187	0.403160	0.882131
	H68	H	0.590795	0.111039	0.414905
	H69	H	0.602370	0.874441	0.593711
	H70	H	0.413031	0.113590	0.594183
	H71	H	0.405536	0.879493	0.409983
	H72	H	0.913004	0.610678	0.085895
	H73	H	0.098307	0.374762	0.097827
	H74	H	0.083361	0.609336	0.910407
	H75	H	0.912088	0.378508	0.906916
	H76	H	0.100436	0.910815	0.613957
	H77	H	0.094686	0.091687	0.381448
	H78	H	0.904383	0.079573	0.614108
	H79	H	0.914222	0.906352	0.385770
	H80	H	0.618600	0.094186	0.903186
	H81	H	0.380963	0.097473	0.092270
	H82	H	0.614402	0.900150	0.087645
	H83	H	0.389472	0.905954	0.914480
	H84	H	0.613366	0.910393	0.095600
	H85	H	0.388553	0.082483	0.082685
	H86	H	0.613101	0.087498	0.913683
	H87	H	0.384948	0.909048	0.896919
	H88	H	0.917156	0.087422	0.612594
	H89	H	0.095862	0.086469	0.382451
	H90	H	0.086547	0.906713	0.611273
	H91	H	0.904349	0.895478	0.380002
	H92	H	0.095253	0.612698	0.915229
	H93	H	0.085777	0.378532	0.095547
	H94	H	0.903581	0.613347	0.088330
	H95	H	0.906728	0.379024	0.911937
	H96	H	0.411462	0.111898	0.585998
	H97	H	0.584758	0.877959	0.598732
	H98	H	0.599299	0.116003	0.406671
	H99	H	0.404422	0.876282	0.404266
	H100	H	0.590904	0.400797	0.115638
	H101	H	0.590295	0.589350	0.882911
	H102	H	0.408120	0.593730	0.117762
	H103	H	0.404982	0.403349	0.883991
	H104	H	0.117572	0.587748	0.402651
	H105	H	0.890418	0.587690	0.575467
	H106	H	0.115782	0.398527	0.589696
	H107	H	0.883931	0.396697	0.409478
	H108	H	0.910139	0.613576	0.095612
	H109	H	0.094817	0.377912	0.085463
	H110	H	0.092640	0.615020	0.902686
	H111	H	0.904993	0.377096	0.905106
	H112	H	0.096070	0.897497	0.616751
	H113	H	0.091043	0.088387	0.383853
	H114	H	0.903925	0.095103	0.618524
	H115	H	0.899319	0.910625	0.382662
	H116	H	0.614728	0.081168	0.901613
	H117	H	0.383413	0.080391	0.100318
	H118	H	0.617718	0.898470	0.100585
	H119	H	0.382281	0.893025	0.904056
	C120	C	0.379959	0.004707	0.619320
	C121	C	0.622354	0.986517	0.620695
	C122	C	0.620951	0.004323	0.378803
	C123	C	0.378315	0.987231	0.377143
	C124	C	0.622377	0.373045	0.008130
	C125	C	0.622054	0.616358	0.991142
	C126	C	0.378168	0.616281	0.007962
	C127	C	0.377432	0.372882	0.990900
	C128	C	0.009220	0.618147	0.376713
	C129	C	0.992195	0.617235	0.621333
	C130	C	0.008922	0.373308	0.622304
	C131	C	0.992445	0.374223	0.377161
	C132	C	0.880163	0.503616	0.119431
	C133	C	0.122583	0.486017	0.122039
	C134	C	0.119843	0.503767	0.880195
	C135	C	0.878046	0.486698	0.877441
	C136	C	0.122366	0.875246	0.506655
	C137	C	0.123151	0.118214	0.490287
	C138	C	0.879100	0.116960	0.507469
	C139	C	0.878147	0.873995	0.490480
	C140	C	0.508019	0.116731	0.877063
	C141	C	0.491811	0.116507	0.121165
	C142	C	0.508197	0.873047	0.122661
	C143	C	0.492235	0.872761	0.876885
	C144	C	0.380698	0.880295	0.674937
	C145	C	0.621368	0.110384	0.676538
	C146	C	0.617965	0.880063	0.323657
	C147	C	0.380660	0.111167	0.321151
	C148	C	0.677860	0.373014	0.886191
	C149	C	0.680600	0.616828	0.112681
	C150	C	0.320306	0.616503	0.885950
	C151	C	0.323369	0.373545	0.113378
	C152	C	0.886548	0.673133	0.378533
	C153	C	0.114276	0.673484	0.619762
	C154	C	0.886441	0.317836	0.617637
	C155	C	0.115256	0.319667	0.382262
	C156	C	0.886973	0.374115	0.677262
	C157	C	0.113728	0.617018	0.679437
	C158	C	0.887357	0.616461	0.319550
	C159	C	0.114720	0.376077	0.323020
	C160	C	0.379777	0.672576	0.885243
	C161	C	0.620199	0.671348	0.114118
	C162	C	0.617241	0.318699	0.884800
	C163	C	0.382613	0.317787	0.114078
	C164	C	0.675983	0.880104	0.380285
	C165	C	0.679225	0.110221	0.620083
	C166	C	0.323279	0.880990	0.617402
	C167	C	0.323660	0.111298	0.377855
	C168	C	0.882858	0.379615	0.175121
	C169	C	0.121193	0.610364	0.176666
	C170	C	0.118180	0.380012	0.824584
	C171	C	0.878943	0.610083	0.820487
	C172	C	0.177371	0.875968	0.384436
	C173	C	0.180707	0.118206	0.611959
	C174	C	0.821683	0.116497	0.385536
	C175	C	0.823166	0.873973	0.612789
	C176	C	0.385633	0.171728	0.879422
	C177	C	0.614496	0.171895	0.118933
	C178	C	0.385779	0.816883	0.118477
	C179	C	0.614745	0.817309	0.880853
	C180	C	0.386104	0.873929	0.177734
	C181	C	0.613487	0.115931	0.178381
	C182	C	0.386280	0.115349	0.819822
	C183	C	0.613884	0.873276	0.820961
	C184	C	0.881739	0.171901	0.384310
	C185	C	0.120470	0.172927	0.613201
	C186	C	0.118704	0.819432	0.384224
	C187	C	0.882395	0.818197	0.613210
	C188	C	0.174936	0.380015	0.881864
	C189	C	0.179415	0.609542	0.120878
	C190	C	0.824714	0.379731	0.118511
	C191	C	0.821065	0.609637	0.876919
	C192	C	0.403198	0.091026	0.596940
	C193	C	0.599340	0.900500	0.597901
	C194	C	0.598978	0.090929	0.401315
	C195	C	0.400374	0.900594	0.400115
	C196	C	0.601154	0.396015	0.093608
	C197	C	0.598596	0.592896	0.906266
	C198	C	0.401214	0.592789	0.092956
	C199	C	0.397856	0.395648	0.905187
	C200	C	0.094060	0.595254	0.399913
	C201	C	0.907607	0.593583	0.597785
	C202	C	0.094100	0.396523	0.601114
	C203	C	0.906691	0.396531	0.398279
	C204	C	0.902497	0.590230	0.096510
	C205	C	0.099785	0.399485	0.099570
	C206	C	0.096954	0.590037	0.902925
	C207	C	0.901238	0.400506	0.901001
	C208	C	0.100711	0.898340	0.591998
	C209	C	0.100545	0.095457	0.404757
	C210	C	0.901918	0.094141	0.592945
	C211	C	0.899623	0.897287	0.404875
	C212	C	0.593289	0.094074	0.899644
	C213	C	0.406391	0.093523	0.098307
	C214	C	0.593088	0.896240	0.100990
	C215	C	0.407589	0.895982	0.898723
	Zn216	Zn	0.500431	-0.004832	0.747571
	Zn217	Zn	0.499822	-0.004053	0.251186
	Zn218	Zn	0.751066	0.494889	-0.000937
	Zn219	Zn	0.249182	0.494762	-0.000059
	Zn220	Zn	0.000305	0.746587	0.498919
	Zn221	Zn	0.000772	0.245639	0.499056
	Zn222	Zn	0.000122	0.495522	0.751305
	Zn223	Zn	0.001133	0.495781	0.248009
	Zn224	Zn	0.500575	0.744305	-0.000049
	Zn225	Zn	0.500070	0.245342	-0.000384
	Zn226	Zn	0.749617	-0.004771	0.499334
	Zn227	Zn	0.251649	-0.003276	0.498125
	N228	N	0.415238	0.958316	0.676125
	N229	N	0.586744	0.032528	0.677327
	N230	N	0.584368	0.958287	0.322918
	N231	N	0.413960	0.032926	0.320716
	N232	N	0.681151	0.406219	0.963746
	N233	N	0.681799	0.583185	0.035147
	N234	N	0.319042	0.582191	0.963153
	N235	N	0.320057	0.407243	0.035790
	N236	N	0.963362	0.674294	0.413406
	N237	N	0.037811	0.673712	0.584247
	N238	N	0.963331	0.317339	0.584130
	N239	N	0.038124	0.318527	0.415290
	N240	N	0.963977	0.407939	0.680059
	N241	N	0.036885	0.582684	0.680603
	N242	N	0.964504	0.583026	0.318234
	N243	N	0.037354	0.409144	0.319871
	N244	N	0.415079	0.672430	0.961910
	N245	N	0.584546	0.671328	0.037631
	N246	N	0.583223	0.318707	0.961662
	N247	N	0.415841	0.317576	0.037034
	N248	N	0.677956	0.958366	0.413720
	N249	N	0.680058	0.032174	0.586152
	N250	N	0.322603	0.959265	0.583833
	N251	N	0.321773	0.033010	0.411642
	N252	N	0.916787	0.457814	0.175617
	N253	N	0.086586	0.532635	0.177412
	N254	N	0.084798	0.458229	0.823343
	N255	N	0.913599	0.532467	0.820632
	N256	N	0.179801	0.910152	0.461649
	N257	N	0.182527	0.084943	0.534366
	N258	N	0.820003	0.082906	0.463072
	N259	N	0.820368	0.907864	0.535383
	N260	N	0.462256	0.172665	0.914477
	N261	N	0.537736	0.172556	0.084160
	N262	N	0.462685	0.816041	0.085060
	N263	N	0.538099	0.816676	0.914759
	N264	N	0.463000	0.908062	0.180504
	N265	N	0.536235	0.082105	0.179726
	N266	N	0.463594	0.082088	0.818093
	N267	N	0.536771	0.906704	0.817997
	N268	N	0.916731	0.172432	0.461133
	N269	N	0.085476	0.173118	0.536525
	N270	N	0.085380	0.818779	0.461275
	N271	N	0.915858	0.818200	0.536211
	N272	N	0.176268	0.458142	0.915676
	N273	N	0.180545	0.531205	0.087488
	N274	N	0.822843	0.457898	0.084706
	N275	N	0.820364	0.531812	0.911572
	O276	O	0.493122	0.481842	0.565381
	H277	H	0.489526	0.490600	0.564920
	H278	H	0.478270	0.481669	0.557150
	O279	O	0.496779	0.551223	0.552552
	H280	H	0.496217	0.547437	0.562095
	H281	H	0.479756	0.556472	0.537608
	O282	O	0.986459	0.877775	0.041595
	H283	H	0.978474	0.877397	0.034658
	H284	H	0.993970	0.874836	0.055778
	O285	O	1.109378	-0.053528	1.027248
	H286	H	1.115486	-0.064238	1.011875
	H287	H	1.111837	-0.056901	1.022252
	O288	O	0.488715	0.538623	0.547905
	H289	H	0.504319	0.538455	0.544400
	H290	H	0.488052	0.547977	0.558639
	O291	O	0.570485	0.506522	0.490569
	H292	H	0.568106	0.507774	0.486856
	H293	H	0.560944	0.509429	0.492307
	O294	O	0.468545	0.536446	0.484647
	H295	H	0.471440	0.541965	0.478075
	H296	H	0.475937	0.540108	0.482370
	O297	O	-0.029406	0.103909	1.031217
	H298	H	-0.037609	0.110230	1.039463
	H299	H	-0.025211	0.093413	1.030292
	O300	O	-0.011944	0.875575	-0.013575
	H301	H	-0.003439	0.879731	-0.018718
	H302	H	-0.009151	0.855639	-0.012877
	O303	O	0.883441	1.013485	0.033777
	H304	H	0.878720	1.016256	0.044991
	H305	H	0.881107	1.003359	0.027929
	O306	O	0.002160	1.009824	0.941164
	H307	H	-0.006957	1.021024	0.932824
	H308	H	-0.004017	1.015435	0.959828
	O309	O	0.509117	0.500892	0.527565
	H310	H	0.509144	0.504939	0.536191
	H311	H	0.514205	0.503756	0.538570
	O312	O	0.094296	-0.072935	0.040213
	H313	H	0.097988	-0.066252	0.040363
	H314	H	0.094591	-0.069301	0.029387
	O315	O	0.871438	-0.010756	-0.089676
	H316	H	0.856775	-0.005538	-0.097003
	H317	H	0.879908	-0.007937	-0.092137
	O318	O	0.993608	1.035247	0.889056
	H319	H	0.977889	1.038760	0.890360
	H320	H	0.987382	1.041723	0.893625
	O321	O	0.402383	0.550436	1.489449
	H322	H	0.407794	0.552103	1.496155
	H323	H	0.405882	0.548848	1.496961
	O324	O	0.472611	0.510494	0.407959
	H325	H	0.471415	0.510140	0.410727
	H326	H	0.472764	0.519534	0.402223
	O327	O	-0.090867	-0.018299	0.066540
	H328	H	-0.093900	-0.029957	0.076482
	H329	H	-0.084336	-0.014497	0.071878
	O330	O	0.413735	0.495552	0.577290
	H331	H	0.401120	0.499385	0.573837
	H332	H	0.417984	0.497249	0.580047
	O333	O	0.005126	0.884505	0.968058
	H334	H	0.013164	0.890320	0.959922
	H335	H	0.009330	0.890651	0.964868
	O336	O	-0.056964	0.133816	-0.026105
	H337	H	-0.064589	0.120112	-0.028704
	H338	H	-0.049809	0.138610	-0.031594
	O339	O	0.545343	0.444917	0.447655
	H340	H	0.546425	0.453589	0.437128
	H341	H	0.544813	0.439854	0.452518
	O342	O	0.980532	0.959994	0.867267
	H343	H	0.978052	0.965630	0.868692
	H344	H	0.985704	0.948110	0.859285
	O345	O	1.106329	1.044144	-0.004825
	H346	H	1.112747	1.040765	-0.011931
	H347	H	1.117858	1.042973	-0.006899
	O348	O	0.551131	0.536634	0.581551
	H349	H	0.550454	0.535435	0.585515
	H350	H	0.550195	0.525228	0.569915
	O351	O	0.595402	0.440381	0.438948
	H352	H	0.589987	0.445091	0.438190
	H353	H	0.590150	0.440663	0.446857
	O354	O	0.483674	0.528356	0.496037
	H355	H	0.476063	0.523254	0.487187
	H356	H	0.489827	0.528920	0.492676
	O357	O	0.969038	0.019793	1.009830
	H358	H	0.977711	0.024237	1.005521
	H359	H	0.969309	0.033579	1.008577
	O360	O	0.452905	0.562292	0.435220
	H361	H	0.458126	0.560580	0.438416
	H362	H	0.447759	0.558941	0.440759
	O363	O	0.516531	0.419614	0.505002
	H364	H	0.514823	0.407241	0.501001
	H365	H	0.520294	0.409047	0.506647
	O366	O	1.006239	1.047745	0.942508
	H367	H	1.005584	1.051046	0.939303
	H368	H	0.994506	1.049036	0.950454
	O369	O	0.945948	-0.030117	1.046934
	H370	H	0.936680	-0.040009	1.068880
	H371	H	0.942294	-0.031326	1.038123
	O372	O	0.127121	0.083658	0.076656
	H373	H	0.132598	0.075075	0.077942
	H374	H	0.124119	0.080625	0.073074
	O375	O	1.006792	-0.123151	0.079939
	H376	H	1.016740	-0.122826	0.077357
	H377	H	1.003707	-0.112247	0.094566
	O378	O	0.614461	0.438493	0.515690
	H379	H	0.606385	0.433929	0.529642
	H380	H	0.627715	0.439307	0.521473
	O381	O	0.575515	0.501432	0.530814
	H382	H	0.585950	0.504517	0.524577
	H383	H	0.582489	0.505101	0.532272
