data_Molecule from HDF5

_cell_length_a		16.260823
_cell_length_b		16.453709
_cell_length_c		16.182060
_cell_angle_alpha	90.077113
_cell_angle_beta	89.643389
_cell_angle_gamma	89.777213
_symmetry_space_group_name_H-M	'P 1'
_symmetry_Int_Tables_number		1

loop_
	_symmetry_equiv_pos_as_xyz
	x,y,z

loop_
	_atom_site_label
	_atom_site_type_symbol
	_atom_site_fract_x
	_atom_site_fract_y
	_atom_site_fract_z
	H0	H	0.396941	0.835432	0.714611
	H1	H	0.598412	0.157667	0.711390
	H2	H	0.602444	0.834403	0.277074
	H3	H	0.403493	0.158813	0.280825
	H4	H	0.716865	0.395038	0.832860
	H5	H	0.709737	0.591743	0.161725
	H6	H	0.284690	0.595425	0.832539
	H7	H	0.284690	0.397437	0.160703
	H8	H	0.837910	0.714337	0.393336
	H9	H	0.161174	0.714873	0.599914
	H10	H	0.838507	0.276691	0.601441
	H11	H	0.162497	0.277418	0.393534
	H12	H	0.835534	0.399128	0.711570
	H13	H	0.163848	0.593427	0.709892
	H14	H	0.835539	0.593018	0.285419
	H15	H	0.162979	0.395105	0.280135
	H16	H	0.395430	0.714491	0.833907
	H17	H	0.602267	0.714375	0.157361
	H18	H	0.602977	0.278827	0.832343
	H19	H	0.397669	0.279418	0.158753
	H20	H	0.720052	0.835196	0.391780
	H21	H	0.715096	0.157763	0.593389
	H22	H	0.281408	0.835052	0.597468
	H23	H	0.283703	0.157793	0.394683
	H24	H	0.899038	0.333876	0.215364
	H25	H	0.097762	0.657715	0.213793
	H26	H	0.101404	0.333997	0.779688
	H27	H	0.896628	0.655987	0.780727
	H28	H	0.216263	0.894990	0.331679
	H29	H	0.215196	0.095782	0.659270
	H30	H	0.789112	0.095256	0.330128
	H31	H	0.781855	0.896277	0.657210
	H32	H	0.338384	0.216382	0.891091
	H33	H	0.661908	0.213718	0.097584
	H34	H	0.338670	0.777660	0.101325
	H35	H	0.660797	0.775260	0.888498
	H36	H	0.337824	0.897056	0.212373
	H37	H	0.665142	0.091988	0.206075
	H38	H	0.336673	0.096793	0.779752
	H39	H	0.662926	0.896636	0.778551
	H40	H	0.899814	0.214181	0.333878
	H41	H	0.102780	0.212760	0.658750
	H42	H	0.104607	0.776124	0.333629
	H43	H	0.893350	0.779221	0.657860
	H44	H	0.219294	0.335357	0.894484
	H45	H	0.217359	0.656286	0.100721
	H46	H	0.780519	0.334566	0.101399
	H47	H	0.781503	0.656614	0.898268
	H48	H	0.407675	0.109017	0.586636
	H49	H	0.594425	0.879751	0.590173
	H50	H	0.590293	0.108049	0.404904
	H51	H	0.410106	0.883066	0.405532
	H52	H	0.595809	0.400906	0.115464
	H53	H	0.589974	0.578150	0.881682
	H54	H	0.414378	0.586421	0.110458
	H55	H	0.412480	0.404535	0.880899
	H56	H	0.114671	0.585869	0.408995
	H57	H	0.882852	0.590304	0.590620
	H58	H	0.120883	0.397615	0.597091
	H59	H	0.881875	0.400540	0.403991
	H60	H	0.114524	0.396397	0.576558
	H61	H	0.884451	0.589805	0.586331
	H62	H	0.115292	0.585322	0.405320
	H63	H	0.885521	0.400029	0.412467
	H64	H	0.407303	0.594153	0.114792
	H65	H	0.584715	0.590355	0.880042
	H66	H	0.587869	0.408501	0.110272
	H67	H	0.408747	0.401413	0.878645
	H68	H	0.601997	0.112793	0.401909
	H69	H	0.585647	0.883536	0.585347
	H70	H	0.406890	0.110083	0.585565
	H71	H	0.406739	0.881307	0.403554
	H72	H	0.897957	0.613171	0.096310
	H73	H	0.083044	0.382372	0.095014
	H74	H	0.093406	0.611478	0.903807
	H75	H	0.904688	0.382009	0.913703
	H76	H	0.086620	0.904425	0.610802
	H77	H	0.084489	0.086380	0.381520
	H78	H	0.905316	0.094844	0.615311
	H79	H	0.919051	0.903973	0.381096
	H80	H	0.613669	0.088590	0.909471
	H81	H	0.386297	0.084452	0.083456
	H82	H	0.612319	0.899529	0.069105
	H83	H	0.386886	0.905549	0.914089
	H84	H	0.613396	0.916107	0.089664
	H85	H	0.382939	0.088292	0.092440
	H86	H	0.613783	0.082012	0.900628
	H87	H	0.384792	0.910790	0.901159
	H88	H	0.901635	0.078353	0.611390
	H89	H	0.093091	0.094661	0.376870
	H90	H	0.090413	0.902940	0.612557
	H91	H	0.909223	0.897023	0.376043
	H92	H	0.090268	0.609314	0.903688
	H93	H	0.091282	0.385527	0.078054
	H94	H	0.913370	0.608313	0.094728
	H95	H	0.905130	0.377971	0.899412
	H96	H	0.407049	0.110210	0.586781
	H97	H	0.594963	0.882649	0.579945
	H98	H	0.592834	0.112860	0.392719
	H99	H	0.410245	0.881469	0.401481
	H100	H	0.584467	0.397185	0.112495
	H101	H	0.597700	0.588884	0.877284
	H102	H	0.403597	0.584036	0.112515
	H103	H	0.407353	0.406602	0.878928
	H104	H	0.116172	0.588463	0.407020
	H105	H	0.884295	0.586998	0.588971
	H106	H	0.111914	0.414496	0.588129
	H107	H	0.885757	0.407199	0.407863
	H108	H	0.903209	0.606825	0.082161
	H109	H	0.100837	0.377562	0.091818
	H110	H	0.091968	0.609605	0.906691
	H111	H	0.916546	0.383900	0.905565
	H112	H	0.090391	0.907198	0.610922
	H113	H	0.096549	0.082895	0.378772
	H114	H	0.917516	0.085228	0.609024
	H115	H	0.907772	0.909454	0.379503
	H116	H	0.618265	0.092313	0.899700
	H117	H	0.383533	0.094077	0.084367
	H118	H	0.622393	0.891830	0.092008
	H119	H	0.382117	0.897085	0.903943
	C120	C	0.377281	0.003908	0.617065
	C121	C	0.621199	0.988193	0.615306
	C122	C	0.624435	0.004385	0.370601
	C123	C	0.379193	0.988201	0.373030
	C124	C	0.621161	0.372892	0.004737
	C125	C	0.619834	0.615426	0.987635
	C126	C	0.378432	0.617474	0.004853
	C127	C	0.378603	0.374680	0.987540
	C128	C	0.007950	0.616523	0.376835
	C129	C	0.991311	0.618312	0.618643
	C130	C	0.008439	0.373800	0.618217
	C131	C	0.991515	0.372973	0.376268
	C132	C	0.875546	0.503401	0.121134
	C133	C	0.121208	0.487983	0.118976
	C134	C	0.121913	0.503666	0.874617
	C135	C	0.877990	0.487187	0.876571
	C136	C	0.120750	0.874169	0.504138
	C137	C	0.121060	0.117066	0.487361
	C138	C	0.879328	0.116603	0.503886
	C139	C	0.879269	0.874319	0.486037
	C140	C	0.508068	0.118021	0.873280
	C141	C	0.492115	0.117113	0.115728
	C142	C	0.508665	0.873681	0.115734
	C143	C	0.491254	0.874260	0.874305
	C144	C	0.377656	0.883369	0.675230
	C145	C	0.618934	0.109378	0.672405
	C146	C	0.622771	0.882905	0.314842
	C147	C	0.381990	0.110069	0.317837
	C148	C	0.678911	0.374586	0.881835
	C149	C	0.673680	0.613070	0.111724
	C150	C	0.322176	0.615854	0.881802
	C151	C	0.322370	0.376911	0.111049
	C152	C	0.886281	0.674467	0.376004
	C153	C	0.112979	0.675352	0.618594
	C154	C	0.886384	0.316659	0.619375
	C155	C	0.113983	0.316568	0.375333
	C156	C	0.884970	0.377166	0.674170
	C157	C	0.114272	0.614800	0.673404
	C158	C	0.885157	0.614491	0.321685
	C159	C	0.114302	0.375092	0.318831
	C160	C	0.377657	0.674777	0.882246
	C161	C	0.619958	0.673730	0.109747
	C162	C	0.622080	0.316845	0.881546
	C163	C	0.378394	0.317997	0.110019
	C164	C	0.681463	0.883376	0.371800
	C165	C	0.677068	0.109520	0.613784
	C166	C	0.320045	0.883186	0.616958
	C167	C	0.322272	0.109434	0.374444
	C168	C	0.878291	0.382268	0.177546
	C169	C	0.118335	0.609143	0.175614
	C170	C	0.120913	0.382454	0.817982
	C171	C	0.877562	0.608236	0.819832
	C172	C	0.178320	0.874877	0.381006
	C173	C	0.177620	0.115645	0.610132
	C174	C	0.825406	0.115521	0.380056
	C175	C	0.820456	0.876012	0.608549
	C176	C	0.386663	0.176446	0.872690
	C177	C	0.613983	0.173873	0.115426
	C178	C	0.387015	0.816679	0.118506
	C179	C	0.612892	0.815595	0.871341
	C180	C	0.386784	0.875994	0.174221
	C181	C	0.615695	0.113319	0.169296
	C182	C	0.385491	0.116850	0.817406
	C183	C	0.613998	0.875696	0.816346
	C184	C	0.880449	0.174752	0.381895
	C185	C	0.121660	0.173985	0.609942
	C186	C	0.122818	0.815381	0.382239
	C187	C	0.876191	0.817840	0.608936
	C188	C	0.179529	0.382970	0.875372
	C189	C	0.177956	0.608608	0.119286
	C190	C	0.819294	0.382545	0.120569
	C191	C	0.819897	0.608204	0.877837
	C192	C	0.400645	0.087945	0.593348
	C193	C	0.598189	0.903951	0.592041
	C194	C	0.601847	0.089277	0.393241
	C195	C	0.402328	0.903808	0.396420
	C196	C	0.596606	0.395611	0.090558
	C197	C	0.597341	0.592500	0.902055
	C198	C	0.401627	0.594821	0.090307
	C199	C	0.402392	0.397517	0.901607
	C200	C	0.093468	0.593251	0.400260
	C201	C	0.905733	0.595635	0.595448
	C202	C	0.093635	0.396170	0.594195
	C203	C	0.906347	0.395753	0.400860
	C204	C	0.898199	0.587752	0.097673
	C205	C	0.098446	0.403601	0.095100
	C206	C	0.098606	0.588228	0.897952
	C207	C	0.901779	0.403259	0.899605
	C208	C	0.096265	0.898039	0.589288
	C209	C	0.097922	0.094484	0.401324
	C210	C	0.901617	0.093105	0.589751
	C211	C	0.904664	0.896851	0.401059
	C212	C	0.593056	0.094514	0.896384
	C213	C	0.406459	0.095298	0.093311
	C214	C	0.593941	0.895979	0.090744
	C215	C	0.406702	0.897638	0.899050
	Zn216	Zn	0.499262	-0.004283	0.745870
	Zn217	Zn	0.501208	-0.003953	0.243438
	Zn218	Zn	0.747838	0.494445	-0.002548
	Zn219	Zn	0.250983	0.496667	-0.002856
	Zn220	Zn	-0.000661	0.746112	0.496507
	Zn221	Zn	0.000360	0.244592	0.497163
	Zn222	Zn	-0.000486	0.495791	0.746236
	Zn223	Zn	-0.000849	0.495388	0.248918
	Zn224	Zn	0.499577	0.744737	-0.004983
	Zn225	Zn	0.499689	0.245854	-0.004734
	Zn226	Zn	0.751990	-0.003903	0.493785
	Zn227	Zn	0.248817	-0.003975	0.494951
	N228	N	0.412397	0.959561	0.675462
	N229	N	0.585051	0.032872	0.673642
	N230	N	0.588178	0.959222	0.313945
	N231	N	0.416705	0.033701	0.316995
	N232	N	0.678351	0.408473	0.959519
	N233	N	0.673779	0.577398	0.034781
	N234	N	0.322374	0.581023	0.958960
	N235	N	0.322376	0.411170	0.033675
	N236	N	0.963841	0.675790	0.409772
	N237	N	0.035417	0.677407	0.585261
	N238	N	0.964067	0.314376	0.585327
	N239	N	0.036629	0.315064	0.410371
	N240	N	0.961679	0.412117	0.673623
	N241	N	0.037340	0.580169	0.673498
	N242	N	0.961797	0.579114	0.322100
	N243	N	0.037188	0.409540	0.319375
	N244	N	0.411632	0.676157	0.959751
	N245	N	0.587189	0.675539	0.031580
	N246	N	0.586720	0.315810	0.959085
	N247	N	0.412603	0.316446	0.032028
	N248	N	0.682575	0.960002	0.405727
	N249	N	0.678574	0.033090	0.579181
	N250	N	0.319538	0.959091	0.581736
	N251	N	0.320258	0.032514	0.407897
	N252	N	0.912585	0.458568	0.178093
	N253	N	0.083690	0.532970	0.175432
	N254	N	0.086011	0.458733	0.817226
	N255	N	0.913036	0.532279	0.818500
	N256	N	0.177063	0.911086	0.457608
	N257	N	0.177230	0.080857	0.532678
	N258	N	0.824443	0.080250	0.457061
	N259	N	0.822050	0.910479	0.531311
	N260	N	0.463810	0.177105	0.906863
	N261	N	0.536051	0.176492	0.082738
	N262	N	0.464007	0.815192	0.082671
	N263	N	0.535701	0.814391	0.906450
	N264	N	0.463298	0.910826	0.172559
	N265	N	0.538828	0.078819	0.169639
	N266	N	0.462098	0.081153	0.817651
	N267	N	0.537448	0.911719	0.818080
	N268	N	0.913462	0.175350	0.459935
	N269	N	0.087289	0.174886	0.532707
	N270	N	0.087528	0.814939	0.459774
	N271	N	0.912060	0.816521	0.531890
	N272	N	0.180256	0.459348	0.910125
	N273	N	0.179948	0.532203	0.084883
	N274	N	0.817592	0.458787	0.086159
	N275	N	0.820142	0.531891	0.912456
	O276	O	0.943490	-0.071500	0.909951
	H277	H	0.939504	-0.056282	0.914631
	H278	H	0.952117	-0.068443	0.912705
	O279	O	0.583669	0.544476	0.494697
	H280	H	0.585419	0.538450	0.501640
	H281	H	0.591906	0.550677	0.501175
	O282	O	0.537727	0.432635	0.539221
	H283	H	0.539153	0.446373	0.537768
	H284	H	0.543439	0.426980	0.543540
	O285	O	0.497180	0.575431	0.499894
	H286	H	0.495022	0.586019	0.512931
	H287	H	0.503722	0.581563	0.504387
	O288	O	0.513602	0.494409	0.543672
	H289	H	0.521247	0.485624	0.555843
	H290	H	0.506531	0.502610	0.542745
	O291	O	-0.101337	-0.014458	0.933344
	H292	H	-0.102643	-0.006676	0.928355
	H293	H	-0.097260	-0.017646	0.936920
	O294	O	0.960245	0.954060	0.030325
	H295	H	0.959920	0.936450	0.030470
	H296	H	0.960408	0.962354	0.029293
	O297	O	1.102950	0.957461	-0.185502
	H298	H	1.118327	0.959892	-0.191588
	H299	H	1.109880	0.960789	-0.183820
	O300	O	0.547297	0.528514	0.493404
	H301	H	0.547484	0.528827	0.499842
	H302	H	0.554014	0.523061	0.496639
	O303	O	0.544359	0.518625	0.473932
	H304	H	0.540424	0.518216	0.461826
	H305	H	0.544829	0.516758	0.469334
	O306	O	-0.091519	0.919685	0.949728
	H307	H	-0.090696	0.926152	0.938708
	H308	H	-0.081520	0.923363	0.946689
	O309	O	0.581518	0.572603	0.512469
	H310	H	0.601046	0.577023	0.514915
	H311	H	0.586150	0.554199	0.518975
	O312	O	0.891838	1.077407	0.917613
	H313	H	0.896730	1.081153	0.916046
	H314	H	0.878513	1.089226	0.921728
	O315	O	0.950462	1.150709	0.055905
	H316	H	0.942893	1.154922	0.063192
	H317	H	0.933775	1.143925	0.034879
	O318	O	0.494154	0.533163	0.434999
	H319	H	0.491050	0.539424	0.438929
	H320	H	0.490865	0.530013	0.422831
	O321	O	0.384595	0.474775	0.487600
	H322	H	0.380411	0.480286	0.478704
	H323	H	0.386640	0.481299	0.490840
	O324	O	0.120009	1.099335	1.049228
	H325	H	0.123711	1.100822	1.053302
	H326	H	0.116310	1.102475	1.051766
	O327	O	0.134762	0.879536	0.981461
	H328	H	0.149063	0.858264	0.977764
	H329	H	0.131807	0.892982	0.988685
	O330	O	-0.005680	0.106133	0.101501
	H331	H	-0.009622	0.088451	0.099243
	H332	H	-0.015200	0.102415	0.099306
	O333	O	0.460061	0.424801	0.533333
	H334	H	0.460793	0.419769	0.535415
	H335	H	0.462442	0.422963	0.534424
	O336	O	0.074585	-0.145247	-0.194241
	H337	H	0.073095	-0.145687	-0.192815
	H338	H	0.093207	-0.152217	-0.209854
	O339	O	-0.029349	-0.142143	0.010685
	H340	H	-0.037357	-0.133665	0.015610
	H341	H	-0.021003	-0.148763	0.003852
	O342	O	0.511910	0.388166	0.535259
	H343	H	0.513880	0.388364	0.536119
	H344	H	0.506413	0.390103	0.534051
	O345	O	-0.126068	0.906211	1.087441
	H346	H	-0.128039	0.895466	1.075154
	H347	H	-0.126957	0.900805	1.080415
	O348	O	0.590845	0.496207	0.524693
	H349	H	0.598702	0.495917	0.511985
	H350	H	0.588572	0.496921	0.524204
	O351	O	0.414076	0.502742	0.524582
	H352	H	0.413020	0.500057	0.529842
	H353	H	0.413735	0.486904	0.516145
	O354	O	0.175503	0.824421	-0.161379
	H355	H	0.177644	0.823112	-0.141873
	H356	H	0.179504	0.836201	-0.155713
	O357	O	0.461742	0.535996	0.440178
	H358	H	0.462302	0.544844	0.442206
	H359	H	0.461576	0.539228	0.443265
	O360	O	1.009364	-0.069931	1.009408
	H361	H	1.005124	-0.058640	1.006726
	H362	H	1.020203	-0.071349	0.991867
	O363	O	0.523636	0.489538	0.477492
	H364	H	0.523665	0.489771	0.484324
	H365	H	0.512954	0.485951	0.464945
	O366	O	0.461192	0.492354	0.478920
	H367	H	0.457054	0.501706	0.479237
	H368	H	0.453636	0.489073	0.476182
	O369	O	0.937468	0.100652	0.008374
	H370	H	0.945641	0.092694	0.011181
	H371	H	0.928708	0.097888	0.012720
	O372	O	0.542101	0.646628	0.475704
	H373	H	0.535183	0.651090	0.477992
	H374	H	0.542796	0.630184	0.472300
	O375	O	1.107598	0.099092	0.936651
	H376	H	1.095806	0.106443	0.936019
	H377	H	1.120459	0.099848	0.940092
	O378	O	0.066006	1.036927	-0.072680
	H379	H	0.063329	1.043304	-0.067301
	H380	H	0.067172	1.033965	-0.068058
	O381	O	-0.006628	0.969021	1.090827
	H382	H	-0.003917	0.969875	1.095471
	H383	H	-0.005560	0.964648	1.081439
	O384	O	1.082560	1.116800	0.150326
	H385	H	1.071794	1.125281	0.157628
	H386	H	1.087132	1.121173	0.152782
	O387	O	1.049658	0.050851	0.990313
	H388	H	1.032747	0.054316	0.994744
	H389	H	1.050275	0.062680	0.976892
	O390	O	0.881348	1.096195	0.052663
	H391	H	0.884048	1.088893	0.062230
	H392	H	0.870499	1.080333	0.061861
	O393	O	0.408034	0.501712	0.536268
	H394	H	0.397920	0.506609	0.533464
	H395	H	0.410459	0.501226	0.527621
