data_Molecule from HDF5

_cell_length_a		16.711925
_cell_length_b		16.613780
_cell_length_c		16.629026
_cell_angle_alpha	90.028212
_cell_angle_beta	90.251835
_cell_angle_gamma	89.970586
_symmetry_space_group_name_H-M	'P 1'
_symmetry_Int_Tables_number		1

loop_
	_symmetry_equiv_pos_as_xyz
	x,y,z

loop_
	_atom_site_label
	_atom_site_type_symbol
	_atom_site_fract_x
	_atom_site_fract_y
	_atom_site_fract_z
	H0	H	0.377413	0.842659	0.715799
	H1	H	0.587169	0.152802	0.716343
	H2	H	0.587828	0.843454	0.272146
	H3	H	0.375541	0.151996	0.272840
	H4	H	0.700650	0.394359	0.837959
	H5	H	0.703927	0.603603	0.149340
	H6	H	0.258226	0.604484	0.840110
	H7	H	0.258563	0.388781	0.147817
	H8	H	0.829888	0.723160	0.385639
	H9	H	0.136839	0.718147	0.600034
	H10	H	0.825402	0.278343	0.596889
	H11	H	0.136560	0.277247	0.392082
	H12	H	0.824357	0.396535	0.711323
	H13	H	0.137191	0.600714	0.715566
	H14	H	0.828963	0.606542	0.270705
	H15	H	0.134157	0.389886	0.272083
	H16	H	0.373946	0.720180	0.840330
	H17	H	0.585819	0.717877	0.150631
	H18	H	0.585311	0.278120	0.837566
	H19	H	0.377556	0.276131	0.149287
	H20	H	0.704978	0.844186	0.387781
	H21	H	0.702929	0.152902	0.601028
	H22	H	0.258809	0.844242	0.600815
	H23	H	0.260721	0.152637	0.389349
	H24	H	0.877799	0.342397	0.214548
	H25	H	0.089766	0.651428	0.219135
	H26	H	0.083101	0.340994	0.775562
	H27	H	0.879190	0.655317	0.776231
	H28	H	0.207596	0.886337	0.342379
	H29	H	0.199943	0.099069	0.651278
	H30	H	0.758102	0.104224	0.340297
	H31	H	0.759681	0.890987	0.648843
	H32	H	0.327809	0.219412	0.888182
	H33	H	0.636589	0.217562	0.099735
	H34	H	0.326425	0.775544	0.099953
	H35	H	0.635696	0.774496	0.888955
	H36	H	0.327600	0.890148	0.217199
	H37	H	0.635396	0.102041	0.217208
	H38	H	0.327880	0.103660	0.771492
	H39	H	0.635968	0.890379	0.773145
	H40	H	0.876695	0.217412	0.338819
	H41	H	0.079926	0.212097	0.652127
	H42	H	0.092416	0.770360	0.342625
	H43	H	0.876995	0.776373	0.649370
	H44	H	0.202125	0.342185	0.889741
	H45	H	0.206227	0.650501	0.103814
	H46	H	0.761572	0.342677	0.098678
	H47	H	0.761115	0.654400	0.890361
	H48	H	0.389602	0.110427	0.582409
	H49	H	0.574975	0.886668	0.578288
	H50	H	0.571034	0.109491	0.404879
	H51	H	0.389845	0.886905	0.414966
	H52	H	0.569921	0.402538	0.107119
	H53	H	0.572751	0.582855	0.883575
	H54	H	0.392388	0.582385	0.104911
	H55	H	0.390836	0.412255	0.883011
	H56	H	0.091154	0.582049	0.406816
	H57	H	0.868458	0.590539	0.587344
	H58	H	0.094742	0.407268	0.592367
	H59	H	0.870666	0.409810	0.405386
	H60	H	0.094710	0.399908	0.585938
	H61	H	0.869982	0.590378	0.582991
	H62	H	0.091384	0.586192	0.410918
	H63	H	0.870008	0.407589	0.404570
	H64	H	0.396371	0.584939	0.104510
	H65	H	0.565553	0.585503	0.884913
	H66	H	0.578601	0.408793	0.107834
	H67	H	0.395492	0.410404	0.884358
	H68	H	0.567530	0.107902	0.406641
	H69	H	0.572706	0.882981	0.589278
	H70	H	0.392971	0.110773	0.586356
	H71	H	0.388842	0.882361	0.400693
	H72	H	0.898312	0.607795	0.081821
	H73	H	0.070245	0.387598	0.080459
	H74	H	0.069011	0.608328	0.906804
	H75	H	0.885583	0.383109	0.900750
	H76	H	0.071549	0.914024	0.603905
	H77	H	0.070697	0.082792	0.382863
	H78	H	0.886438	0.080015	0.606359
	H79	H	0.892721	0.908541	0.382816
	H80	H	0.592345	0.081228	0.900473
	H81	H	0.368805	0.087900	0.087937
	H82	H	0.590823	0.907354	0.079719
	H83	H	0.372032	0.909435	0.907053
	H84	H	0.589978	0.912650	0.083488
	H85	H	0.369920	0.091299	0.079566
	H86	H	0.596174	0.093522	0.903555
	H87	H	0.370976	0.911395	0.903138
	H88	H	0.899311	0.088136	0.604219
	H89	H	0.068900	0.092584	0.380824
	H90	H	0.066717	0.911580	0.603283
	H91	H	0.891902	0.915264	0.386149
	H92	H	0.073221	0.609800	0.906939
	H93	H	0.070768	0.385963	0.084826
	H94	H	0.889918	0.608992	0.078732
	H95	H	0.895263	0.386288	0.900707
	H96	H	0.394423	0.109054	0.582077
	H97	H	0.564715	0.888336	0.582687
	H98	H	0.570611	0.108848	0.408846
	H99	H	0.401222	0.889549	0.405336
	H100	H	0.569792	0.412707	0.103583
	H101	H	0.571178	0.590068	0.881763
	H102	H	0.392722	0.587242	0.106249
	H103	H	0.392011	0.406619	0.883110
	H104	H	0.089075	0.581099	0.411937
	H105	H	0.870659	0.587052	0.586023
	H106	H	0.091551	0.409200	0.583254
	H107	H	0.870669	0.407982	0.407443
	H108	H	0.891596	0.611606	0.087214
	H109	H	0.066698	0.387292	0.082849
	H110	H	0.070692	0.610265	0.903456
	H111	H	0.889209	0.387267	0.909091
	H112	H	0.070633	0.908929	0.605681
	H113	H	0.077953	0.088854	0.379418
	H114	H	0.886823	0.094937	0.610773
	H115	H	0.898501	0.912138	0.386033
	H116	H	0.590265	0.086078	0.912633
	H117	H	0.372605	0.082675	0.081616
	H118	H	0.593235	0.907448	0.086169
	H119	H	0.370066	0.906828	0.903877
	C120	C	0.360801	0.006853	0.615820
	C121	C	0.603020	0.988679	0.616168
	C122	C	0.602400	0.006361	0.373916
	C123	C	0.360390	0.988736	0.373780
	C124	C	0.603426	0.376903	0.002534
	C125	C	0.602375	0.618854	0.986299
	C126	C	0.360214	0.618096	0.002849
	C127	C	0.360616	0.376416	0.985786
	C128	C	-0.010181	0.617883	0.375066
	C129	C	0.972843	0.619993	0.616927
	C130	C	-0.010050	0.375635	0.616714
	C131	C	0.972705	0.376250	0.373777
	C132	C	0.861241	0.506763	0.114831
	C133	C	0.103212	0.488941	0.116444
	C134	C	0.102257	0.506185	0.873836
	C135	C	0.859454	0.489893	0.872798
	C136	C	0.103499	0.876900	0.502849
	C137	C	0.102779	0.118367	0.485244
	C138	C	0.859043	0.119331	0.503710
	C139	C	0.861416	0.877630	0.486617
	C140	C	0.490560	0.119131	0.873103
	C141	C	0.472888	0.118335	0.115309
	C142	C	0.489173	0.876370	0.115797
	C143	C	0.473135	0.876135	0.873159
	C144	C	0.358539	0.889545	0.675774
	C145	C	0.605265	0.106032	0.676162
	C146	C	0.605650	0.889910	0.312782
	C147	C	0.357729	0.105552	0.313352
	C148	C	0.661384	0.375612	0.884748
	C149	C	0.663172	0.621760	0.103040
	C150	C	0.298936	0.621986	0.886716
	C151	C	0.299740	0.372019	0.101812
	C152	C	0.875376	0.681286	0.369484
	C153	C	0.090334	0.678189	0.618440
	C154	C	0.872272	0.317991	0.616100
	C155	C	0.089589	0.316399	0.372416
	C156	C	0.871731	0.376923	0.672781
	C157	C	0.090327	0.620326	0.676074
	C158	C	0.875044	0.623439	0.311896
	C159	C	0.088573	0.372745	0.313329
	C160	C	0.356594	0.679462	0.886765
	C161	C	0.604535	0.678515	0.103609
	C162	C	0.603912	0.317995	0.884708
	C163	C	0.358569	0.315694	0.102216
	C164	C	0.663789	0.890257	0.370151
	C165	C	0.662900	0.106055	0.618933
	C166	C	0.299750	0.890282	0.618949
	C167	C	0.300426	0.105719	0.370991
	C168	C	0.859214	0.389395	0.174692
	C169	C	0.107255	0.605024	0.178233
	C170	C	0.102980	0.388228	0.814748
	C171	C	0.859568	0.608109	0.815168
	C172	C	0.166526	0.870047	0.388403
	C173	C	0.160161	0.118317	0.604127
	C174	C	0.798818	0.121815	0.386759
	C175	C	0.800556	0.873511	0.602559
	C176	C	0.374230	0.179274	0.870194
	C177	C	0.589894	0.177687	0.118092
	C178	C	0.373130	0.815739	0.118342
	C179	C	0.589166	0.814844	0.870690
	C180	C	0.373682	0.872882	0.176567
	C181	C	0.589142	0.120464	0.176397
	C182	C	0.374267	0.121842	0.812056
	C183	C	0.589467	0.872614	0.813085
	C184	C	0.857785	0.178065	0.386077
	C185	C	0.100776	0.174300	0.604705
	C186	C	0.109117	0.812281	0.388505
	C187	C	0.858896	0.816657	0.602866
	C188	C	0.161636	0.388686	0.871677
	C189	C	0.165208	0.604699	0.120966
	C190	C	0.801531	0.389542	0.116999
	C191	C	0.800937	0.607573	0.871790
	C192	C	0.385409	0.088720	0.590740
	C193	C	0.578106	0.907208	0.590628
	C194	C	0.576926	0.087667	0.399514
	C195	C	0.385968	0.907296	0.399432
	C196	C	0.579653	0.401245	0.084708
	C197	C	0.577058	0.593385	0.904715
	C198	C	0.386276	0.592089	0.084191
	C199	C	0.385592	0.402505	0.904631
	C200	C	0.069716	0.590747	0.402100
	C201	C	0.891089	0.596123	0.592415
	C202	C	0.072365	0.398712	0.593857
	C203	C	0.891526	0.401440	0.398728
	C204	C	0.886045	0.588221	0.089861
	C205	C	0.076919	0.408077	0.090039
	C206	C	0.077943	0.588087	0.898693
	C207	C	0.883356	0.407111	0.896643
	C208	C	0.077074	0.903916	0.583469
	C209	C	0.079478	0.094853	0.402690
	C210	C	0.883685	0.094599	0.585862
	C211	C	0.887119	0.904432	0.406009
	C212	C	0.571863	0.094016	0.898304
	C213	C	0.391605	0.094056	0.090160
	C214	C	0.570345	0.902005	0.090313
	C215	C	0.392056	0.901676	0.897749
	Zn216	Zn	0.482427	-0.002706	0.744543
	Zn217	Zn	0.480983	-0.002559	0.245128
	Zn218	Zn	0.731548	0.498592	-0.005772
	Zn219	Zn	0.231342	0.497455	-0.004926
	Zn220	Zn	-0.017346	0.748315	0.494828
	Zn221	Zn	-0.019060	0.246990	0.494509
	Zn222	Zn	-0.019060	0.498304	0.744752
	Zn223	Zn	-0.017969	0.497968	0.244688
	Zn224	Zn	0.481176	0.747387	-0.005246
	Zn225	Zn	0.482377	0.248482	-0.005518
	Zn226	Zn	0.731544	-0.002326	0.495266
	Zn227	Zn	0.232126	-0.002174	0.494308
	N228	N	0.395643	0.963181	0.674065
	N229	N	0.568943	0.031990	0.674877
	N230	N	0.568109	0.963191	0.314944
	N231	N	0.394267	0.031651	0.314777
	N232	N	0.661491	0.411546	0.959171
	N233	N	0.662039	0.585442	0.028932
	N234	N	0.301090	0.584408	0.960277
	N235	N	0.300575	0.409122	0.028090
	N236	N	0.947769	0.677826	0.408238
	N237	N	0.016199	0.678419	0.582669
	N238	N	0.946874	0.316907	0.581947
	N239	N	0.016378	0.318240	0.409395
	N240	N	0.946104	0.412044	0.673525
	N241	N	0.016100	0.585137	0.675490
	N242	N	0.947466	0.584613	0.315104
	N243	N	0.014911	0.409210	0.313967
	N244	N	0.393929	0.677362	0.960287
	N245	N	0.567405	0.676833	0.029937
	N246	N	0.568958	0.318224	0.959258
	N247	N	0.395662	0.318164	0.028927
	N248	N	0.661857	0.963719	0.407610
	N249	N	0.661849	0.031915	0.582278
	N250	N	0.300908	0.964442	0.582469
	N251	N	0.301905	0.031884	0.407782
	N252	N	0.895793	0.463267	0.173451
	N253	N	0.069472	0.531896	0.175656
	N254	N	0.067060	0.462544	0.815512
	N255	N	0.895091	0.533571	0.815499
	N256	N	0.163146	0.909639	0.460684
	N257	N	0.161836	0.084607	0.528684
	N258	N	0.799274	0.086273	0.461299
	N259	N	0.801959	0.910913	0.529147
	N260	N	0.447757	0.177868	0.907282
	N261	N	0.516664	0.176651	0.080736
	N262	N	0.446250	0.817610	0.081381
	N263	N	0.515716	0.816533	0.907120
	N264	N	0.447097	0.909810	0.175248
	N265	N	0.515306	0.084564	0.175239
	N266	N	0.447610	0.084890	0.813811
	N267	N	0.516217	0.910106	0.814377
	N268	N	0.894543	0.176774	0.459968
	N269	N	0.065961	0.174762	0.529720
	N270	N	0.070350	0.816646	0.460772
	N271	N	0.896123	0.818910	0.529661
	N272	N	0.161521	0.463196	0.907645
	N273	N	0.162731	0.531480	0.083049
	N274	N	0.802413	0.463609	0.080403
	N275	N	0.800529	0.532781	0.906620
	O276	O	0.045863	1.118760	-0.096128
	H277	H	0.038655	1.110328	-0.076609
	H278	H	0.042486	1.117784	-0.108492
	O279	O	0.279193	0.300815	0.304588
	H280	H	0.264021	0.270623	0.282291
	H281	H	0.285732	0.331509	0.298876
	O282	O	0.776666	-0.194746	1.038897
	H283	H	0.756886	-0.191528	1.026148
	H284	H	0.776510	-0.199363	1.032714
	O285	O	0.258057	0.271957	0.534358
	H286	H	0.275132	0.282162	0.559727
	H287	H	0.225830	0.236129	0.535776
	O288	O	0.547850	0.538518	0.350599
	H289	H	0.535271	0.525352	0.341003
	H290	H	0.549590	0.528637	0.356996
	O291	O	0.363491	0.557240	0.456325
	H292	H	0.363721	0.572464	0.446134
	H293	H	0.367668	0.547967	0.460670
	O294	O	0.962516	-0.073552	0.896154
	H295	H	0.944860	-0.079143	0.904081
	H296	H	0.973042	-0.082199	0.895920
	O297	O	0.928914	0.939092	-0.078201
	H298	H	0.931981	0.941432	-0.092699
	H299	H	0.932772	0.956522	-0.077263
	O300	O	-0.122600	-0.104846	0.828815
	H301	H	-0.128145	-0.113497	0.831247
	H302	H	-0.116876	-0.103145	0.820239
	O303	O	0.639487	0.571183	0.698902
	H304	H	0.636242	0.585986	0.677101
	H305	H	0.621258	0.542438	0.701797
	O306	O	0.693216	0.467221	0.536254
	H307	H	0.691125	0.464036	0.532581
	H308	H	0.683367	0.476975	0.519072
	O309	O	0.630403	0.538448	0.392677
	H310	H	0.617982	0.541767	0.392875
	H311	H	0.631419	0.557660	0.391977
	O312	O	0.509995	0.715073	0.710900
	H313	H	0.514644	0.715898	0.719147
	H314	H	0.516016	0.720701	0.717443
	O315	O	1.020150	1.103507	1.062122
	H316	H	1.016227	1.107274	1.045867
	H317	H	1.013100	1.088600	1.061377
	O318	O	0.606467	0.293773	0.365179
	H319	H	0.589145	0.296371	0.372141
	H320	H	0.615081	0.272486	0.369755
	O321	O	0.196405	0.961763	0.777083
	H322	H	0.219258	0.962477	0.756812
	H323	H	0.196329	0.953700	0.790455
	O324	O	0.859419	1.111725	-0.064224
	H325	H	0.866543	1.109105	-0.083958
	H326	H	0.844632	1.127807	-0.070095
	O327	O	-0.008524	0.168874	0.823193
	H328	H	-0.008456	0.164044	0.839107
	H329	H	-0.002805	0.158384	0.820055
	O330	O	0.698130	0.457746	0.276917
	H331	H	0.705943	0.465913	0.273482
	H332	H	0.703446	0.468522	0.268052
	O333	O	0.564279	0.290113	0.541252
	H334	H	0.550343	0.293379	0.538313
	H335	H	0.557497	0.281297	0.546528
	O336	O	0.660446	0.326598	0.497597
	H337	H	0.661167	0.323758	0.489718
	H338	H	0.658903	0.312418	0.496224
	O339	O	1.205862	0.025723	1.215921
	H340	H	1.200706	0.022160	1.227658
	H341	H	1.221382	0.015468	1.224111
	O342	O	0.193316	0.210550	-0.222380
	H343	H	0.175279	0.185801	-0.199716
	H344	H	0.175834	0.194193	-0.223036
	O345	O	0.204706	0.943455	1.051953
	H346	H	0.193640	0.931152	1.039986
	H347	H	0.201167	0.937905	1.065680
	O348	O	0.193692	0.203749	0.189436
	H349	H	0.195039	0.165593	0.187730
	H350	H	0.169532	0.214097	0.174484
	O351	O	0.955724	0.788639	0.209690
	H352	H	0.946925	0.788967	0.197418
	H353	H	0.947801	0.776920	0.219479
	O354	O	0.202429	-0.221548	0.966668
	H355	H	0.218999	-0.237806	0.961367
	H356	H	0.190520	-0.224447	0.959300
	O357	O	0.776499	0.269842	0.731620
	H358	H	0.772765	0.280606	0.716482
	H359	H	0.755216	0.282578	0.710380
	O360	O	0.253061	0.548157	0.552942
	H361	H	0.255061	0.538203	0.528264
	H362	H	0.245257	0.548970	0.550735
	O363	O	-0.208448	0.186242	0.181107
	H364	H	-0.198603	0.164102	0.168047
	H365	H	-0.223554	0.205019	0.205940
	O366	O	0.264656	0.460239	0.716282
	H367	H	0.258230	0.463338	0.698676
	H368	H	0.250427	0.467349	0.735961
	O369	O	0.693938	0.283441	0.286682
	H370	H	0.703503	0.303259	0.289619
	H371	H	0.673736	0.294106	0.302916
	O372	O	0.995057	0.780515	-0.190123
	H373	H	1.000243	0.767983	-0.198452
	H374	H	1.011362	0.773315	-0.195113
	O375	O	0.946479	-0.102720	0.033886
	H376	H	0.940151	-0.107821	0.031975
	H377	H	0.940467	-0.090536	0.005054
	O378	O	0.604291	0.451454	0.498536
	H379	H	0.602735	0.453361	0.501007
	H380	H	0.602362	0.444105	0.487054
	O381	O	0.191790	0.791321	0.785246
	H382	H	0.219744	0.763953	0.770301
	H383	H	0.183389	0.811017	0.790687
	O384	O	0.756477	0.029495	0.775637
	H385	H	0.755996	0.063581	0.771739
	H386	H	0.731197	0.034910	0.752996
	O387	O	1.456361	0.698030	0.272939
	H388	H	1.455489	0.719648	0.254081
	H389	H	1.442523	0.682634	0.266872
	O390	O	0.270115	0.709687	0.479603
	H391	H	0.265218	0.723627	0.479124
	H392	H	0.274448	0.704207	0.471119
	O393	O	0.427636	0.728555	0.553679
	H394	H	0.435212	0.732259	0.558124
	H395	H	0.438410	0.727910	0.542215
	O396	O	0.305648	1.300441	0.700884
	H397	H	0.272827	1.271011	0.729256
	H398	H	0.300827	1.338990	0.702913
	O399	O	-0.067608	0.060219	1.224597
	H400	H	-0.076954	0.071509	1.232283
	H401	H	-0.059672	0.052948	1.223409
	O402	O	0.457255	0.303892	0.295315
	H403	H	0.466220	0.301394	0.298070
	H404	H	0.453916	0.289108	0.287852
	O405	O	0.754134	-0.069749	0.930610
	H406	H	0.756638	-0.052864	0.934880
	H407	H	0.747067	-0.057979	0.920685
	O408	O	0.197402	0.213085	0.015608
	H409	H	0.212095	0.216253	0.026868
	H410	H	0.190674	0.215947	0.024298
	O411	O	0.757006	0.773543	0.767384
	H412	H	0.742154	0.770756	0.754116
	H413	H	0.753598	0.763589	0.768765
	O414	O	0.894083	0.218721	0.858302
	H415	H	0.917265	0.216416	0.848191
	H416	H	0.897205	0.242143	0.839301
	O417	O	0.475891	0.594398	0.403276
	H418	H	0.462797	0.596615	0.414289
	H419	H	0.475316	0.602973	0.407162
	O420	O	0.693890	0.710635	0.520023
	H421	H	0.694407	0.710124	0.525195
	H422	H	0.704318	0.710048	0.512208
	O423	O	0.038205	-0.231066	1.053181
	H424	H	0.018856	-0.234811	1.053137
	H425	H	0.044206	-0.222939	1.037336
	O426	O	0.253409	0.429386	0.464002
	H427	H	0.253838	0.408519	0.461877
	H428	H	0.253189	0.408320	0.454038
	O429	O	1.164998	0.815557	1.177265
	H430	H	1.152823	0.822282	1.145108
	H431	H	1.141769	0.822472	1.177578
	O432	O	0.290371	0.689136	0.683824
	H433	H	0.299503	0.671605	0.659874
	H434	H	0.312897	0.681571	0.677438
	O435	O	0.476161	0.450391	0.503007
	H436	H	0.469778	0.456700	0.502253
	H437	H	0.462014	0.444274	0.497495
	O438	O	0.272005	-0.290523	0.280897
	H439	H	0.252048	-0.269072	0.263457
	H440	H	0.284676	-0.297353	0.293170
	O441	O	-0.016417	0.075690	-0.034602
	H442	H	-0.018704	0.084836	-0.043501
	H443	H	-0.026988	0.069869	-0.037294
	O444	O	0.497140	0.472676	0.714904
	H445	H	0.483614	0.453864	0.718643
	H446	H	0.475060	0.474361	0.702656
	O447	O	-0.087861	1.153876	0.793295
	H448	H	-0.091888	1.154802	0.788935
	H449	H	-0.088158	1.151367	0.801034
	O450	O	0.006113	0.894043	0.857969
	H451	H	0.007133	0.880487	0.851858
	H452	H	-0.008949	0.885656	0.835976
	O453	O	0.532851	0.729910	0.428257
	H454	H	0.544186	0.734548	0.406955
	H455	H	0.528164	0.728731	0.422099
	O456	O	0.414206	-0.464634	0.661446
	H457	H	0.429137	-0.462229	0.669787
	H458	H	0.418468	-0.461780	0.644781
	O459	O	0.867370	1.204839	0.033459
	H460	H	0.860096	1.211050	0.034799
	H461	H	0.861653	1.205812	0.042803
	O462	O	0.670522	0.685290	0.310976
	H463	H	0.691749	0.701938	0.293862
	H464	H	0.652392	0.668516	0.321156
	O465	O	0.766440	-0.037772	0.212040
	H466	H	0.754194	-0.039146	0.222896
	H467	H	0.762301	-0.036342	0.207954
	O468	O	0.257547	0.513966	0.272744
	H469	H	0.234979	0.521601	0.248487
	H470	H	0.262127	0.529898	0.284228
	O471	O	0.589585	0.586658	0.611994
	H472	H	0.587776	0.567276	0.612840
	H473	H	0.585516	0.602989	0.611340
	O474	O	0.420915	0.457267	0.273882
	H475	H	0.410582	0.473992	0.274948
	H476	H	0.427090	0.423363	0.269575
	O477	O	0.769951	0.785583	1.209590
	H478	H	0.775486	0.791025	1.210309
	H479	H	0.779927	0.795544	1.178777
	O480	O	0.430033	0.273065	0.454305
	H481	H	0.409863	0.269624	0.453695
	H482	H	0.426116	0.273604	0.444411
	O483	O	0.701243	0.537952	0.713047
	H484	H	0.721223	0.525726	0.724983
	H485	H	0.694501	0.534310	0.715344
	O486	O	1.211980	0.057455	0.930624
	H487	H	1.219075	0.057577	0.934979
	H488	H	1.208922	0.044458	0.953353
	O489	O	0.959874	0.957448	0.058143
	H490	H	0.950036	0.952738	0.052780
	H491	H	0.953430	0.960133	0.057377
	O492	O	0.000345	0.210454	0.187918
	H493	H	-0.005891	0.193160	0.183252
	H494	H	-0.006047	0.231085	0.196157
	O495	O	0.041742	0.937015	1.228369
	H496	H	0.043550	0.933244	1.233465
	H497	H	0.030415	0.932507	1.229603
	O498	O	0.759454	1.095275	1.052521
	H499	H	0.763977	1.109611	1.050259
	H500	H	0.762216	1.094533	1.036055
	O501	O	0.462720	0.284146	0.696732
	H502	H	0.444754	0.272075	0.691515
	H503	H	0.438666	0.276597	0.710049
