data_Molecule from HDF5

_cell_length_a		16.206259
_cell_length_b		16.292913
_cell_length_c		16.447858
_cell_angle_alpha	90.203715
_cell_angle_beta	89.980160
_cell_angle_gamma	90.003006
_symmetry_space_group_name_H-M	'P 1'
_symmetry_Int_Tables_number		1

loop_
	_symmetry_equiv_pos_as_xyz
	x,y,z

loop_
	_atom_site_label
	_atom_site_type_symbol
	_atom_site_fract_x
	_atom_site_fract_y
	_atom_site_fract_z
	H0	H	0.402233	0.834670	0.716426
	H1	H	0.604394	0.160062	0.718630
	H2	H	0.603123	0.834077	0.284397
	H3	H	0.402619	0.160342	0.284662
	H4	H	0.719229	0.397242	0.838731
	H5	H	0.718828	0.595042	0.163504
	H6	H	0.287801	0.594560	0.839021
	H7	H	0.289954	0.400616	0.164137
	H8	H	0.838492	0.708842	0.403672
	H9	H	0.167569	0.712351	0.599613
	H10	H	0.838792	0.285131	0.597234
	H11	H	0.167830	0.282726	0.402982
	H12	H	0.841059	0.396289	0.716423
	H13	H	0.167200	0.598219	0.716917
	H14	H	0.840238	0.596618	0.285519
	H15	H	0.168061	0.397067	0.285999
	H16	H	0.402471	0.713147	0.839004
	H17	H	0.603313	0.713761	0.162918
	H18	H	0.602201	0.281071	0.838798
	H19	H	0.405462	0.282315	0.163619
	H20	H	0.715519	0.832808	0.404193
	H21	H	0.716071	0.162269	0.597557
	H22	H	0.290459	0.833051	0.596143
	H23	H	0.290438	0.162085	0.405184
	H24	H	0.903851	0.334045	0.215344
	H25	H	0.104479	0.659211	0.217743
	H26	H	0.105268	0.334583	0.783188
	H27	H	0.902678	0.659768	0.784603
	H28	H	0.217738	0.898592	0.337582
	H29	H	0.217474	0.095674	0.663334
	H30	H	0.788391	0.094499	0.338095
	H31	H	0.787493	0.899488	0.663372
	H32	H	0.339087	0.210309	0.905211
	H33	H	0.668128	0.210251	0.098768
	H34	H	0.338702	0.784629	0.098022
	H35	H	0.668120	0.783233	0.903415
	H36	H	0.339792	0.897471	0.215548
	H37	H	0.667203	0.097468	0.216344
	H38	H	0.339398	0.096934	0.787015
	H39	H	0.667561	0.896562	0.784633
	H40	H	0.903415	0.212744	0.338641
	H41	H	0.103186	0.214718	0.662147
	H42	H	0.102202	0.779982	0.338500
	H43	H	0.904791	0.782366	0.663701
	H44	H	0.218295	0.333078	0.902487
	H45	H	0.216997	0.660830	0.097665
	H46	H	0.791458	0.333135	0.096319
	H47	H	0.789736	0.660724	0.903448
	H48	H	0.409102	0.114215	0.594941
	H49	H	0.589143	0.883989	0.591905
	H50	H	0.597036	0.114383	0.407601
	H51	H	0.409057	0.878628	0.398570
	H52	H	0.594742	0.398196	0.116754
	H53	H	0.594963	0.582804	0.888906
	H54	H	0.412034	0.592603	0.115599
	H55	H	0.412614	0.404124	0.887214
	H56	H	0.123679	0.588607	0.396974
	H57	H	0.889082	0.590637	0.585041
	H58	H	0.117494	0.411285	0.587053
	H59	H	0.888520	0.410652	0.408452
	H60	H	0.122331	0.407554	0.600255
	H61	H	0.888920	0.580051	0.595960
	H62	H	0.121647	0.598425	0.414113
	H63	H	0.885215	0.403433	0.400507
	H64	H	0.408775	0.592496	0.116992
	H65	H	0.591016	0.593393	0.886945
	H66	H	0.603506	0.405622	0.117509
	H67	H	0.410894	0.399101	0.884824
	H68	H	0.595559	0.113614	0.405368
	H69	H	0.598428	0.881974	0.589270
	H70	H	0.412263	0.113749	0.596913
	H71	H	0.419433	0.884139	0.407745
	H72	H	0.908081	0.613148	0.088968
	H73	H	0.100633	0.379591	0.091487
	H74	H	0.093869	0.614760	0.900314
	H75	H	0.912221	0.381966	0.908867
	H76	H	0.087568	0.899531	0.614081
	H77	H	0.084285	0.099556	0.386236
	H78	H	0.908597	0.095339	0.616635
	H79	H	0.918642	0.904303	0.389495
	H80	H	0.623977	0.098316	0.907416
	H81	H	0.384580	0.092982	0.098701
	H82	H	0.622800	0.905588	0.102669
	H83	H	0.386377	0.897341	0.911064
	H84	H	0.621860	0.897098	0.089627
	H85	H	0.387599	0.091673	0.088902
	H86	H	0.616283	0.083996	0.917727
	H87	H	0.390402	0.911616	0.912130
	H88	H	0.907851	0.087810	0.615506
	H89	H	0.108941	0.094889	0.380721
	H90	H	0.103824	0.899233	0.618666
	H91	H	0.908687	0.892554	0.382935
	H92	H	0.089857	0.610128	0.912822
	H93	H	0.096809	0.378585	0.099083
	H94	H	0.909198	0.615917	0.100909
	H95	H	0.910413	0.379742	0.904903
	H96	H	0.412199	0.112889	0.593037
	H97	H	0.595969	0.880344	0.598155
	H98	H	0.594540	0.113559	0.407692
	H99	H	0.405773	0.881660	0.412435
	H100	H	0.593436	0.409107	0.113489
	H101	H	0.601774	0.590991	0.884816
	H102	H	0.410022	0.589584	0.115700
	H103	H	0.406905	0.403586	0.885319
	H104	H	0.116274	0.578762	0.412592
	H105	H	0.883714	0.594348	0.599121
	H106	H	0.121907	0.398156	0.589702
	H107	H	0.886088	0.399952	0.410831
	H108	H	0.918473	0.611160	0.094789
	H109	H	0.092234	0.381969	0.092826
	H110	H	0.103214	0.613598	0.910983
	H111	H	0.914897	0.381345	0.905225
	H112	H	0.096324	0.913200	0.612959
	H113	H	0.094328	0.076699	0.391255
	H114	H	0.914626	0.090986	0.614236
	H115	H	0.901975	0.908332	0.386038
	H116	H	0.620416	0.081800	0.899211
	H117	H	0.387503	0.083989	0.095297
	H118	H	0.617012	0.912248	0.089804
	H119	H	0.385519	0.906190	0.899781
	C120	C	0.381464	0.005847	0.622795
	C121	C	0.624034	0.989925	0.622135
	C122	C	0.624347	0.005578	0.378606
	C123	C	0.381885	0.989539	0.378779
	C124	C	0.626156	0.374942	0.009098
	C125	C	0.625172	0.618532	0.993353
	C126	C	0.381488	0.619375	0.009084
	C127	C	0.381761	0.374763	0.993024
	C128	C	0.011896	0.617272	0.379484
	C129	C	0.995210	0.618213	0.622580
	C130	C	0.012263	0.376683	0.621198
	C131	C	0.995341	0.375442	0.378639
	C132	C	0.883111	0.505316	0.122247
	C133	C	0.125236	0.488202	0.122803
	C134	C	0.125166	0.504960	0.879145
	C135	C	0.882872	0.488982	0.878377
	C136	C	0.124418	0.875204	0.507930
	C137	C	0.124653	0.119295	0.492888
	C138	C	0.881300	0.119531	0.508458
	C139	C	0.880647	0.873894	0.492969
	C140	C	0.511961	0.117551	0.879959
	C141	C	0.495082	0.118233	0.122773
	C142	C	0.511632	0.876396	0.122021
	C143	C	0.495501	0.875519	0.878746
	C144	C	0.382719	0.883210	0.677994
	C145	C	0.623250	0.112086	0.678956
	C146	C	0.622725	0.882728	0.323086
	C147	C	0.383030	0.112076	0.323469
	C148	C	0.681161	0.376949	0.887161
	C149	C	0.681166	0.616138	0.115009
	C150	C	0.325951	0.615718	0.887189
	C151	C	0.327141	0.378765	0.115532
	C152	C	0.888222	0.672128	0.382550
	C153	C	0.118849	0.673954	0.620025
	C154	C	0.888255	0.321970	0.618396
	C155	C	0.118861	0.320416	0.382040
	C156	C	0.889378	0.377177	0.677701
	C157	C	0.118587	0.617420	0.678243
	C158	C	0.888973	0.616287	0.323752
	C159	C	0.118793	0.377051	0.323725
	C160	C	0.382947	0.674617	0.887429
	C161	C	0.623332	0.674644	0.114845
	C162	C	0.623214	0.318876	0.887344
	C163	C	0.384627	0.320181	0.115324
	C164	C	0.678804	0.882117	0.382401
	C165	C	0.678786	0.113191	0.618770
	C166	C	0.327431	0.882195	0.617976
	C167	C	0.326966	0.112624	0.383026
	C168	C	0.884101	0.382727	0.177555
	C169	C	0.124263	0.610846	0.178778
	C170	C	0.124463	0.382999	0.822169
	C171	C	0.883581	0.611534	0.823534
	C172	C	0.179893	0.877739	0.386082
	C173	C	0.180063	0.116934	0.614687
	C174	C	0.826693	0.115247	0.386359
	C175	C	0.825673	0.878179	0.614947
	C176	C	0.388151	0.172729	0.883886
	C177	C	0.618908	0.172976	0.119725
	C178	C	0.388014	0.821877	0.118568
	C179	C	0.618997	0.820535	0.882014
	C180	C	0.388407	0.877971	0.177054
	C181	C	0.618365	0.116898	0.178101
	C182	C	0.388391	0.116687	0.824919
	C183	C	0.618621	0.876809	0.823066
	C184	C	0.883415	0.174425	0.386646
	C185	C	0.123199	0.175892	0.614153
	C186	C	0.122399	0.819004	0.386427
	C187	C	0.883538	0.819735	0.615003
	C188	C	0.180423	0.381915	0.881653
	C189	C	0.179719	0.611748	0.119111
	C190	C	0.828577	0.382000	0.118007
	C191	C	0.827246	0.611844	0.882288
	C192	C	0.404440	0.091511	0.601296
	C193	C	0.601165	0.904240	0.599798
	C194	C	0.602116	0.091520	0.400356
	C195	C	0.404570	0.903760	0.400108
	C196	C	0.603849	0.397689	0.093882
	C197	C	0.602532	0.595705	0.908629
	C198	C	0.403767	0.597864	0.094066
	C199	C	0.403661	0.396053	0.908034
	C200	C	0.098209	0.595144	0.401504
	C201	C	0.909516	0.595044	0.600042
	C202	C	0.098332	0.399183	0.599002
	C203	C	0.908927	0.398016	0.400093
	C204	C	0.905396	0.591281	0.100944
	C205	C	0.102926	0.402389	0.100792
	C206	C	0.102489	0.590689	0.901661
	C207	C	0.905778	0.403254	0.900030
	C208	C	0.102215	0.897331	0.593100
	C209	C	0.102230	0.096785	0.408023
	C210	C	0.903929	0.097913	0.593411
	C211	C	0.903212	0.895358	0.408037
	C212	C	0.597952	0.094657	0.901719
	C213	C	0.408803	0.096104	0.100778
	C214	C	0.598338	0.898638	0.100534
	C215	C	0.409506	0.898546	0.900935
	Zn216	Zn	0.503211	-0.002757	0.751149
	Zn217	Zn	0.503288	-0.002666	0.250025
	Zn218	Zn	0.755126	0.497022	0.000625
	Zn219	Zn	0.253009	0.496815	0.001301
	Zn220	Zn	0.003584	0.745025	0.500988
	Zn221	Zn	0.003044	0.248796	0.500291
	Zn222	Zn	0.004034	0.497234	0.749833
	Zn223	Zn	0.003906	0.496947	0.250657
	Zn224	Zn	0.503722	0.748355	0.000948
	Zn225	Zn	0.504118	0.245586	0.001619
	Zn226	Zn	0.752614	-0.002303	0.500819
	Zn227	Zn	0.253755	-0.002751	0.500473
	N228	N	0.415645	0.961046	0.681130
	N229	N	0.590143	0.034371	0.681234
	N230	N	0.589546	0.960379	0.320792
	N231	N	0.416594	0.034531	0.320849
	N232	N	0.683089	0.410977	0.963654
	N233	N	0.682123	0.581696	0.038446
	N234	N	0.324912	0.582037	0.963703
	N235	N	0.325372	0.412149	0.038891
	N236	N	0.965722	0.672734	0.416586
	N237	N	0.041334	0.674421	0.586011
	N238	N	0.965690	0.321231	0.584149
	N239	N	0.041072	0.319268	0.415263
	N240	N	0.967281	0.410549	0.679305
	N241	N	0.040822	0.583644	0.680027
	N242	N	0.966819	0.582694	0.321787
	N243	N	0.040823	0.410611	0.321455
	N244	N	0.416738	0.677111	0.964183
	N245	N	0.589499	0.676375	0.038160
	N246	N	0.589726	0.317472	0.964235
	N247	N	0.418026	0.317632	0.038388
	N248	N	0.680077	0.959529	0.416118
	N249	N	0.679346	0.036083	0.584336
	N250	N	0.326466	0.959423	0.584491
	N251	N	0.326317	0.035427	0.416650
	N252	N	0.917419	0.460455	0.180013
	N253	N	0.091198	0.533093	0.181147
	N254	N	0.090750	0.460480	0.820760
	N255	N	0.917136	0.534094	0.820840
	N256	N	0.181113	0.912049	0.462612
	N257	N	0.180724	0.082174	0.538454
	N258	N	0.825329	0.081855	0.463031
	N259	N	0.823899	0.911297	0.538157
	N260	N	0.465953	0.173513	0.917325
	N261	N	0.541249	0.173909	0.086033
	N262	N	0.465883	0.820908	0.085010
	N263	N	0.541456	0.819513	0.915758
	N264	N	0.466378	0.911192	0.179145
	N265	N	0.540421	0.083406	0.179907
	N266	N	0.466173	0.082853	0.822718
	N267	N	0.540681	0.910246	0.821020
	N268	N	0.916738	0.177078	0.463484
	N269	N	0.089276	0.177469	0.537434
	N270	N	0.088860	0.817195	0.463314
	N271	N	0.916998	0.816900	0.538211
	N272	N	0.180942	0.458780	0.916523
	N273	N	0.180505	0.534528	0.085187
	N274	N	0.827810	0.459184	0.084488
	N275	N	0.826753	0.534563	0.915889
	O276	O	0.498007	0.481423	0.547620
	H277	H	0.502546	0.477415	0.542967
	H278	H	0.509061	0.478306	0.547817
	O279	O	0.017838	-0.008594	-0.040659
	H280	H	0.011559	-0.009369	-0.040898
	H281	H	0.024149	-0.015744	-0.054353
	O282	O	0.510954	0.597529	0.613098
	H283	H	0.500356	0.592598	0.602116
	H284	H	0.507607	0.590188	0.611856
	O285	O	0.565248	0.539076	0.550162
	H286	H	0.569358	0.547231	0.556310
	H287	H	0.563431	0.551294	0.555915
	O288	O	1.001290	-0.029397	-0.043065
	H289	H	1.002400	-0.030306	-0.043711
	H290	H	1.000967	-0.032950	-0.040990
	O291	O	-0.533659	0.522233	-0.433086
	H292	H	-0.536170	0.532420	-0.434911
	H293	H	-0.536575	0.523598	-0.429341
	O294	O	0.042386	1.015369	-0.043448
	H295	H	0.046447	1.015633	-0.045786
	H296	H	0.043587	1.016453	-0.044472
	O297	O	0.015600	1.012987	-0.033370
	H298	H	0.013001	1.012374	-0.031589
	H299	H	0.015528	1.018914	-0.032515
	O300	O	1.019443	-0.034418	0.957593
	H301	H	1.023885	-0.035214	0.955914
	H302	H	1.018159	-0.030599	0.963469
	O303	O	0.596465	0.590823	0.622745
	H304	H	0.598188	0.594633	0.617291
	H305	H	0.609336	0.599301	0.631479
	O306	O	0.566476	1.519457	1.540648
	H307	H	0.565877	1.520720	1.547556
	H308	H	0.566451	1.515877	1.539606
	O309	O	0.526127	0.608061	0.605289
	H310	H	0.518920	0.602679	0.603465
	H311	H	0.529246	0.610428	0.619647
