data_Molecule from HDF5

_cell_length_a		16.152235
_cell_length_b		16.419032
_cell_length_c		16.284264
_cell_angle_alpha	89.869559
_cell_angle_beta	90.010393
_cell_angle_gamma	89.833819
_symmetry_space_group_name_H-M	'P 1'
_symmetry_Int_Tables_number		1

loop_
	_symmetry_equiv_pos_as_xyz
	x,y,z

loop_
	_atom_site_label
	_atom_site_type_symbol
	_atom_site_fract_x
	_atom_site_fract_y
	_atom_site_fract_z
	H0	H	0.397653	0.836979	0.709725
	H1	H	0.597468	0.160411	0.711891
	H2	H	0.598910	0.837326	0.277784
	H3	H	0.395258	0.159891	0.275539
	H4	H	0.711770	0.399861	0.831146
	H5	H	0.708117	0.593231	0.158883
	H6	H	0.284441	0.595849	0.829740
	H7	H	0.282498	0.401336	0.157184
	H8	H	0.833249	0.715722	0.393042
	H9	H	0.161416	0.715314	0.594697
	H10	H	0.832813	0.284466	0.594190
	H11	H	0.159960	0.281892	0.391181
	H12	H	0.831942	0.402486	0.706832
	H13	H	0.162264	0.597047	0.706835
	H14	H	0.832758	0.599666	0.279376
	H15	H	0.161967	0.401669	0.280357
	H16	H	0.394033	0.716837	0.832303
	H17	H	0.597593	0.714549	0.156802
	H18	H	0.598882	0.281124	0.831864
	H19	H	0.394977	0.281432	0.157107
	H20	H	0.714812	0.837697	0.394972
	H21	H	0.711182	0.162353	0.591786
	H22	H	0.281789	0.837429	0.593941
	H23	H	0.282142	0.162109	0.395193
	H24	H	0.897542	0.337932	0.212717
	H25	H	0.100067	0.660816	0.211369
	H26	H	0.098608	0.337913	0.776702
	H27	H	0.894798	0.660806	0.776236
	H28	H	0.212415	0.902531	0.330817
	H29	H	0.210715	0.097174	0.657414
	H30	H	0.781694	0.099571	0.330077
	H31	H	0.783688	0.901367	0.656968
	H32	H	0.333836	0.216341	0.891564
	H33	H	0.659402	0.215403	0.097864
	H34	H	0.332675	0.782004	0.095320
	H35	H	0.659270	0.781055	0.892559
	H36	H	0.332598	0.897353	0.211084
	H37	H	0.660370	0.098073	0.209653
	H38	H	0.332437	0.097534	0.780153
	H39	H	0.660531	0.897694	0.780163
	H40	H	0.893764	0.218647	0.331309
	H41	H	0.099434	0.217462	0.655554
	H42	H	0.101912	0.782340	0.332088
	H43	H	0.895331	0.781980	0.655363
	H44	H	0.213412	0.337629	0.894107
	H45	H	0.212395	0.661894	0.090894
	H46	H	0.782630	0.336423	0.095077
	H47	H	0.781104	0.661403	0.896060
	H48	H	0.400367	0.117346	0.594876
	H49	H	0.588856	0.881421	0.597674
	H50	H	0.592816	0.117076	0.396468
	H51	H	0.414235	0.888049	0.407385
	H52	H	0.584641	0.403127	0.110513
	H53	H	0.587983	0.593390	0.877345
	H54	H	0.402814	0.581930	0.108518
	H55	H	0.400603	0.405515	0.875787
	H56	H	0.113897	0.586354	0.398519
	H57	H	0.883425	0.585725	0.582803
	H58	H	0.115687	0.405499	0.588010
	H59	H	0.875960	0.397550	0.402060
	H60	H	0.113308	0.404292	0.580436
	H61	H	0.877813	0.593932	0.592410
	H62	H	0.117593	0.598950	0.398886
	H63	H	0.884728	0.412531	0.412171
	H64	H	0.414481	0.595652	0.108836
	H65	H	0.589295	0.590907	0.877497
	H66	H	0.591207	0.402326	0.111593
	H67	H	0.409213	0.410915	0.881194
	H68	H	0.582026	0.113738	0.397855
	H69	H	0.582504	0.888895	0.581738
	H70	H	0.413126	0.112213	0.588461
	H71	H	0.394400	0.882902	0.407368
	H72	H	0.896548	0.618266	0.093087
	H73	H	0.091396	0.382176	0.093223
	H74	H	0.084290	0.611195	0.903511
	H75	H	0.898879	0.382826	0.901822
	H76	H	0.092056	0.912211	0.609725
	H77	H	0.091346	0.093545	0.376596
	H78	H	0.905945	0.096095	0.609872
	H79	H	0.910924	0.899551	0.375781
	H80	H	0.614467	0.096268	0.906356
	H81	H	0.383565	0.084879	0.077532
	H82	H	0.615806	0.897601	0.089263
	H83	H	0.380140	0.914970	0.896880
	H84	H	0.609493	0.906661	0.075063
	H85	H	0.378055	0.085955	0.092907
	H86	H	0.611348	0.084324	0.907361
	H87	H	0.374550	0.899305	0.898300
	H88	H	0.903119	0.091090	0.609409
	H89	H	0.087446	0.088914	0.378603
	H90	H	0.081769	0.905223	0.608345
	H91	H	0.897877	0.908848	0.374813
	H92	H	0.095807	0.615882	0.901799
	H93	H	0.081801	0.387286	0.085884
	H94	H	0.912485	0.611948	0.090439
	H95	H	0.907621	0.382769	0.893443
	H96	H	0.400786	0.113858	0.580042
	H97	H	0.599953	0.883060	0.583454
	H98	H	0.590049	0.112227	0.406417
	H99	H	0.406291	0.881512	0.391123
	H100	H	0.589024	0.407384	0.110470
	H101	H	0.586757	0.590667	0.878531
	H102	H	0.397637	0.598075	0.114299
	H103	H	0.410360	0.400707	0.877710
	H104	H	0.112753	0.593100	0.409784
	H105	H	0.880377	0.598742	0.579276
	H106	H	0.112399	0.411419	0.584517
	H107	H	0.879476	0.415576	0.393492
	H108	H	0.901184	0.611964	0.077629
	H109	H	0.093715	0.384992	0.080837
	H110	H	0.088305	0.616375	0.892147
	H111	H	0.909996	0.386923	0.905032
	H112	H	0.092041	0.900107	0.613385
	H113	H	0.085341	0.094931	0.378465
	H114	H	0.908814	0.091097	0.608194
	H115	H	0.911642	0.914522	0.381103
	H116	H	0.615962	0.089102	0.896574
	H117	H	0.377780	0.099192	0.083377
	H118	H	0.611663	0.914547	0.091210
	H119	H	0.382047	0.906927	0.911715
	C120	C	0.375439	0.007482	0.616569
	C121	C	0.619446	0.991164	0.616665
	C122	C	0.618799	0.007461	0.371418
	C123	C	0.375068	0.991092	0.372429
	C124	C	0.618563	0.375535	0.003109
	C125	C	0.617134	0.619968	0.985794
	C126	C	0.375515	0.620375	0.002500
	C127	C	0.375756	0.376753	0.985651
	C128	C	0.006023	0.622009	0.372497
	C129	C	0.988956	0.621524	0.614580
	C130	C	0.005498	0.378386	0.614330
	C131	C	0.988416	0.379021	0.372930
	C132	C	0.874933	0.507400	0.116798
	C133	C	0.118699	0.491637	0.115343
	C134	C	0.119351	0.507714	0.870497
	C135	C	0.875219	0.491009	0.871578
	C136	C	0.118966	0.877522	0.502764
	C137	C	0.118128	0.121771	0.485164
	C138	C	0.875507	0.122144	0.501565
	C139	C	0.876921	0.878528	0.485020
	C140	C	0.505575	0.119614	0.873321
	C141	C	0.487760	0.119459	0.114886
	C142	C	0.504448	0.876623	0.115546
	C143	C	0.487350	0.877092	0.873098
	C144	C	0.377474	0.885593	0.672055
	C145	C	0.617649	0.112441	0.672908
	C146	C	0.618320	0.885717	0.316048
	C147	C	0.375789	0.112180	0.315255
	C148	C	0.674264	0.378734	0.880226
	C149	C	0.671644	0.615664	0.109282
	C150	C	0.320790	0.617401	0.879093
	C151	C	0.319622	0.379670	0.108460
	C152	C	0.882469	0.677974	0.373287
	C153	C	0.112340	0.677238	0.614184
	C154	C	0.881810	0.322707	0.613802
	C155	C	0.111597	0.321772	0.372881
	C156	C	0.881473	0.381115	0.669901
	C157	C	0.112764	0.618393	0.669955
	C158	C	0.882267	0.619965	0.316717
	C159	C	0.112467	0.381045	0.317646
	C160	C	0.375328	0.677264	0.880283
	C161	C	0.616543	0.675734	0.108176
	C162	C	0.618007	0.319645	0.880544
	C163	C	0.376040	0.320449	0.108376
	C164	C	0.675605	0.885861	0.374748
	C165	C	0.673567	0.113688	0.612928
	C166	C	0.319750	0.885928	0.614467
	C167	C	0.319669	0.113181	0.374747
	C168	C	0.877287	0.385983	0.173861
	C169	C	0.118782	0.612805	0.172098
	C170	C	0.118384	0.386251	0.814894
	C171	C	0.875856	0.612634	0.815344
	C172	C	0.175017	0.881166	0.379909
	C173	C	0.173614	0.118653	0.608127
	C174	C	0.819260	0.120065	0.379031
	C175	C	0.821127	0.880845	0.607884
	C176	C	0.382635	0.177274	0.872739
	C177	C	0.610779	0.176368	0.115843
	C178	C	0.381517	0.820366	0.114875
	C179	C	0.610293	0.819680	0.873518
	C180	C	0.381310	0.877823	0.172260
	C181	C	0.611141	0.117979	0.171647
	C182	C	0.382038	0.118229	0.817077
	C183	C	0.611001	0.877609	0.817402
	C184	C	0.874905	0.179384	0.379617
	C185	C	0.118035	0.178268	0.607200
	C186	C	0.119685	0.821551	0.380388
	C187	C	0.876688	0.821477	0.607139
	C188	C	0.175501	0.386041	0.873180
	C189	C	0.174934	0.613233	0.112349
	C190	C	0.820129	0.385304	0.115357
	C191	C	0.819002	0.612934	0.874804
	C192	C	0.398111	0.092464	0.594195
	C193	C	0.597165	0.906296	0.594269
	C194	C	0.595193	0.092280	0.393550
	C195	C	0.398126	0.905927	0.395243
	C196	C	0.595080	0.397743	0.088697
	C197	C	0.594535	0.598082	0.900025
	C198	C	0.398325	0.598160	0.088392
	C199	C	0.399633	0.399102	0.900460
	C200	C	0.092434	0.599373	0.395552
	C201	C	0.902763	0.599362	0.591495
	C202	C	0.091564	0.400649	0.591292
	C203	C	0.902315	0.401839	0.395931
	C204	C	0.897019	0.592244	0.093778
	C205	C	0.095713	0.406845	0.093020
	C206	C	0.096273	0.592559	0.892619
	C207	C	0.898646	0.406189	0.893893
	C208	C	0.095502	0.899502	0.588219
	C209	C	0.094841	0.099229	0.399952
	C210	C	0.899046	0.099396	0.587027
	C211	C	0.900039	0.900923	0.399388
	C212	C	0.591587	0.096559	0.896760
	C213	C	0.402029	0.096771	0.091515
	C214	C	0.590218	0.899666	0.092222
	C215	C	0.401193	0.900188	0.895910
	Zn216	Zn	0.497167	-0.001642	0.745547
	Zn217	Zn	0.496265	-0.001507	0.242754
	Zn218	Zn	0.745899	0.498436	-0.005607
	Zn219	Zn	0.247829	0.499256	-0.006840
	Zn220	Zn	-0.002666	0.749549	0.493532
	Zn221	Zn	-0.003384	0.250516	0.493678
	Zn222	Zn	-0.002632	0.499050	0.741993
	Zn223	Zn	-0.002329	0.500174	0.245282
	Zn224	Zn	0.495851	0.749148	-0.006206
	Zn225	Zn	0.496953	0.247447	-0.005612
	Zn226	Zn	0.748221	0.000288	0.493588
	Zn227	Zn	0.246422	-0.000271	0.494592
	N228	N	0.411581	0.962350	0.673449
	N229	N	0.585073	0.035177	0.675586
	N230	N	0.583778	0.962417	0.313832
	N231	N	0.409234	0.035152	0.313628
	N232	N	0.674776	0.412465	0.957426
	N233	N	0.672120	0.581408	0.032168
	N234	N	0.320933	0.582631	0.956098
	N235	N	0.319417	0.414027	0.031342
	N236	N	0.960458	0.679350	0.407118
	N237	N	0.034225	0.679178	0.580434
	N238	N	0.959841	0.320882	0.579969
	N239	N	0.033494	0.320356	0.406458
	N240	N	0.959357	0.414785	0.670484
	N241	N	0.035104	0.584384	0.670414
	N242	N	0.960224	0.586038	0.316074
	N243	N	0.034951	0.416016	0.317688
	N244	N	0.408639	0.679090	0.957928
	N245	N	0.583609	0.678512	0.030203
	N246	N	0.584330	0.317466	0.958247
	N247	N	0.410087	0.318487	0.031003
	N248	N	0.676393	0.962684	0.408151
	N249	N	0.675148	0.037155	0.578817
	N250	N	0.318533	0.962586	0.580590
	N251	N	0.319154	0.036722	0.409685
	N252	N	0.910737	0.462847	0.174829
	N253	N	0.084715	0.536275	0.174087
	N254	N	0.084235	0.462896	0.813158
	N255	N	0.909952	0.535774	0.813153
	N256	N	0.174915	0.915184	0.457088
	N257	N	0.173876	0.084082	0.531307
	N258	N	0.819606	0.085347	0.455942
	N259	N	0.821039	0.915684	0.530946
	N260	N	0.460597	0.178361	0.906934
	N261	N	0.533271	0.177193	0.080978
	N262	N	0.459178	0.819435	0.080552
	N263	N	0.532299	0.819247	0.907428
	N264	N	0.458805	0.912228	0.172875
	N265	N	0.533930	0.082808	0.170991
	N266	N	0.459499	0.082842	0.817548
	N267	N	0.533631	0.912662	0.816997
	N268	N	0.909375	0.180540	0.456829
	N269	N	0.084345	0.180393	0.529683
	N270	N	0.085446	0.819248	0.457747
	N271	N	0.910330	0.819754	0.529608
	N272	N	0.176255	0.462528	0.907321
	N273	N	0.174885	0.536882	0.077572
	N274	N	0.818475	0.461734	0.080501
	N275	N	0.818364	0.536253	0.909064
	O276	O	0.981303	0.077971	0.971890
	H277	H	0.972062	0.083356	0.979408
	H278	H	0.980793	0.066792	0.962072
	O279	O	0.401789	0.435105	0.547512
	H280	H	0.399987	0.428854	0.551626
	H281	H	0.403427	0.427190	0.552240
	O282	O	0.949384	1.042624	-0.105746
	H283	H	0.944194	1.041149	-0.117061
	H284	H	0.952688	1.045415	-0.103751
	O285	O	1.023464	-0.099865	1.015608
	H286	H	1.011327	-0.106818	1.026562
	H287	H	1.042153	-0.114469	1.010153
	O288	O	0.515206	0.459391	0.402459
	H289	H	0.512716	0.451000	0.402231
	H290	H	0.512285	0.463680	0.410553
	O291	O	0.455144	0.484148	0.539680
	H292	H	0.447585	0.483102	0.534798
	H293	H	0.457283	0.473830	0.547085
	O294	O	0.597218	0.494616	0.444949
	H295	H	0.587673	0.504160	0.443417
	H296	H	0.602837	0.487819	0.441340
	O297	O	0.085915	0.119708	1.053004
	H298	H	0.079970	0.120668	1.044260
	H299	H	0.090973	0.117099	1.061600
	O300	O	0.029261	1.072324	-0.168957
	H301	H	0.021731	1.082195	-0.162258
	H302	H	0.031315	1.067709	-0.167165
	O303	O	0.886582	0.970157	0.012833
	H304	H	0.894609	0.970519	0.015476
	H305	H	0.885873	0.977045	0.013140
	O306	O	0.056653	0.903005	0.982805
	H307	H	0.066041	0.901896	0.979413
	H308	H	0.048799	0.906625	0.983974
	O309	O	0.506778	0.479006	0.575350
	H310	H	0.506497	0.482409	0.583775
	H311	H	0.504955	0.473535	0.581207
	O312	O	-0.026012	0.000178	0.102835
	H313	H	-0.024736	-0.002426	0.116539
	H314	H	-0.013513	-0.015990	0.097674
	O315	O	1.058004	-0.016419	-0.056823
	H316	H	1.053439	-0.027466	-0.064044
	H317	H	1.060854	0.002053	-0.045137
	O318	O	1.128000	0.976893	1.098949
	H319	H	1.112534	0.978697	1.104888
	H320	H	1.144717	0.971881	1.091195
	O321	O	0.464411	0.527559	1.533266
	H322	H	0.464336	0.521472	1.531615
	H323	H	0.457375	0.514826	1.537221
	O324	O	0.469847	0.501192	0.562905
	H325	H	0.483869	0.502792	0.551389
	H326	H	0.465863	0.503112	0.568457
	O327	O	-0.038350	-0.152666	0.152255
	H328	H	-0.053793	-0.149917	0.149093
	H329	H	-0.058014	-0.165732	0.158395
	O330	O	0.506418	0.507124	0.470056
	H331	H	0.515116	0.501498	0.471663
	H332	H	0.502372	0.503369	0.470055
	O333	O	0.083144	1.091412	0.969657
	H334	H	0.084689	1.102394	0.972623
	H335	H	0.088116	1.082977	0.977928
	O336	O	0.008388	0.001568	-0.103992
	H337	H	0.009188	0.005309	-0.094392
	H338	H	0.008851	-0.009500	-0.101535
	O339	O	0.518592	0.528249	0.450405
	H340	H	0.516844	0.529790	0.459573
	H341	H	0.510617	0.532980	0.442790
	O342	O	0.964296	1.115840	0.874226
	H343	H	0.952584	1.117417	0.877210
	H344	H	0.974946	1.109335	0.880366
	O345	O	0.843879	0.883985	0.029828
	H346	H	0.831035	0.885320	0.037122
	H347	H	0.842066	0.885951	0.012187
	O348	O	0.561966	0.542503	0.528699
	H349	H	0.568722	0.552558	0.530153
	H350	H	0.556676	0.539690	0.528171
	O351	O	0.959005	0.078786	0.947220
	H352	H	0.968111	0.074703	0.952167
	H353	H	0.965448	0.071792	0.939488
	O354	O	0.479551	0.592903	0.523916
	H355	H	0.497079	0.592628	0.532833
	H356	H	0.473981	0.598063	0.523169
	O357	O	0.921496	0.007280	1.120078
	H358	H	0.905257	0.008046	1.116486
	H359	H	0.919021	0.009804	1.105024
	O360	O	0.469054	0.517833	0.474702
	H361	H	0.471964	0.518965	0.484054
	H362	H	0.458213	0.517723	0.467360
	O363	O	0.438612	0.551628	0.452969
	H364	H	0.449905	0.562691	0.460389
	H365	H	0.425218	0.557937	0.452287
	O366	O	1.493970	0.534222	0.500475
	H367	H	1.488393	0.536038	0.493787
	H368	H	1.496347	0.544990	0.506457
	O369	O	0.918260	0.102428	0.925557
	H370	H	0.918461	0.099254	0.935734
	H371	H	0.925384	0.102703	0.937414
	O372	O	-0.120178	-0.123979	-0.007097
	H373	H	-0.129799	-0.102859	-0.002640
	H374	H	-0.113648	-0.125101	-0.002285
	O375	O	0.834796	0.054993	-0.038649
	H376	H	0.840911	0.060746	-0.028777
	H377	H	0.823731	0.055625	-0.042163
	O378	O	0.513256	0.495422	0.503853
	H379	H	0.528963	0.494255	0.495303
	H380	H	0.517907	0.492858	0.495511
	O381	O	0.120810	0.990877	1.044171
	H382	H	0.120156	0.984190	1.055859
	H383	H	0.128530	1.000124	1.036565
