data_Molecule from HDF5

_cell_length_a		16.670257
_cell_length_b		16.554316
_cell_length_c		16.578253
_cell_angle_alpha	89.982702
_cell_angle_beta	90.059770
_cell_angle_gamma	89.982276
_symmetry_space_group_name_H-M	'P 1'
_symmetry_Int_Tables_number		1

loop_
	_symmetry_equiv_pos_as_xyz
	x,y,z

loop_
	_atom_site_label
	_atom_site_type_symbol
	_atom_site_fract_x
	_atom_site_fract_y
	_atom_site_fract_z
	H0	H	0.395259	0.837785	0.711374
	H1	H	0.602628	0.151270	0.716838
	H2	H	0.601505	0.841107	0.274027
	H3	H	0.393302	0.154091	0.275189
	H4	H	0.717666	0.391613	0.837735
	H5	H	0.717315	0.601015	0.151416
	H6	H	0.275187	0.602754	0.838220
	H7	H	0.273538	0.388458	0.148275
	H8	H	0.840545	0.716604	0.391217
	H9	H	0.153859	0.713927	0.596393
	H10	H	0.842880	0.271919	0.602668
	H11	H	0.152684	0.276358	0.391167
	H12	H	0.841118	0.389200	0.717421
	H13	H	0.153521	0.597548	0.712780
	H14	H	0.841415	0.601179	0.273825
	H15	H	0.151459	0.390184	0.272445
	H16	H	0.392171	0.718137	0.838529
	H17	H	0.598895	0.715564	0.152578
	H18	H	0.601152	0.276386	0.837521
	H19	H	0.392078	0.274589	0.149701
	H20	H	0.719397	0.841680	0.388036
	H21	H	0.720051	0.151116	0.603211
	H22	H	0.278399	0.838619	0.596536
	H23	H	0.275899	0.153162	0.390164
	H24	H	0.892616	0.339200	0.215051
	H25	H	0.101002	0.652273	0.215446
	H26	H	0.100079	0.339386	0.774698
	H27	H	0.895496	0.655398	0.777311
	H28	H	0.216915	0.892947	0.338332
	H29	H	0.218222	0.102336	0.650992
	H30	H	0.770702	0.107156	0.341214
	H31	H	0.774373	0.890223	0.649700
	H32	H	0.341500	0.218435	0.888356
	H33	H	0.651506	0.220482	0.101447
	H34	H	0.340732	0.777391	0.097473
	H35	H	0.652295	0.773998	0.889530
	H36	H	0.340958	0.894188	0.214722
	H37	H	0.650777	0.106332	0.219317
	H38	H	0.339568	0.099395	0.774645
	H39	H	0.651522	0.888430	0.770947
	H40	H	0.888114	0.221737	0.340493
	H41	H	0.101726	0.218255	0.650918
	H42	H	0.099030	0.776607	0.337712
	H43	H	0.892768	0.776760	0.651068
	H44	H	0.218457	0.340586	0.888285
	H45	H	0.218162	0.651801	0.100202
	H46	H	0.776666	0.339323	0.098790
	H47	H	0.778878	0.655740	0.892863
	H48	H	0.406225	0.110316	0.587705
	H49	H	0.580826	0.888687	0.576733
	H50	H	0.582545	0.106778	0.410454
	H51	H	0.401900	0.883067	0.404390
	H52	H	0.584854	0.408954	0.105259
	H53	H	0.590530	0.586756	0.881634
	H54	H	0.408206	0.581002	0.105322
	H55	H	0.406809	0.411182	0.882548
	H56	H	0.108550	0.587092	0.402763
	H57	H	0.884253	0.595850	0.577968
	H58	H	0.107379	0.406050	0.583970
	H59	H	0.885517	0.408159	0.405927
	H60	H	0.105956	0.409171	0.583331
	H61	H	0.887249	0.577634	0.584578
	H62	H	0.108399	0.586968	0.406155
	H63	H	0.886243	0.408379	0.407674
	H64	H	0.409296	0.589732	0.107089
	H65	H	0.586247	0.582669	0.883705
	H66	H	0.585285	0.407453	0.105564
	H67	H	0.410675	0.408016	0.882922
	H68	H	0.587009	0.109034	0.408236
	H69	H	0.590847	0.883285	0.579342
	H70	H	0.407918	0.108826	0.583550
	H71	H	0.409866	0.883779	0.400451
	H72	H	0.905504	0.608972	0.082149
	H73	H	0.082028	0.386890	0.078317
	H74	H	0.083740	0.607282	0.905511
	H75	H	0.908118	0.385356	0.904923
	H76	H	0.093237	0.906638	0.609305
	H77	H	0.083953	0.088187	0.382593
	H78	H	0.909896	0.075393	0.602267
	H79	H	0.904998	0.908728	0.382635
	H80	H	0.609396	0.088681	0.904909
	H81	H	0.386300	0.084303	0.082018
	H82	H	0.610254	0.908761	0.090424
	H83	H	0.385081	0.903937	0.905621
	H84	H	0.609838	0.901784	0.081589
	H85	H	0.386460	0.084706	0.083776
	H86	H	0.606060	0.084081	0.908614
	H87	H	0.386964	0.909614	0.906431
	H88	H	0.915702	0.085987	0.604191
	H89	H	0.089366	0.085716	0.381649
	H90	H	0.085495	0.909932	0.604748
	H91	H	0.908383	0.908958	0.383037
	H92	H	0.088588	0.609057	0.907859
	H93	H	0.090942	0.382412	0.082045
	H94	H	0.905202	0.608758	0.086188
	H95	H	0.904501	0.384653	0.907583
	H96	H	0.403114	0.109601	0.584061
	H97	H	0.582167	0.883341	0.587165
	H98	H	0.582483	0.108651	0.405516
	H99	H	0.408879	0.885897	0.409258
	H100	H	0.586482	0.408883	0.105813
	H101	H	0.584514	0.588917	0.882639
	H102	H	0.400690	0.585840	0.108213
	H103	H	0.406341	0.406527	0.881139
	H104	H	0.108653	0.584214	0.404379
	H105	H	0.879854	0.591051	0.596130
	H106	H	0.107445	0.408562	0.586109
	H107	H	0.886178	0.410368	0.406228
	H108	H	0.908652	0.608342	0.084415
	H109	H	0.082977	0.383765	0.088137
	H110	H	0.087671	0.609740	0.902476
	H111	H	0.904535	0.383236	0.903264
	H112	H	0.085861	0.900761	0.608219
	H113	H	0.085169	0.082935	0.384816
	H114	H	0.904569	0.084559	0.607358
	H115	H	0.906950	0.905986	0.381541
	H116	H	0.607745	0.082458	0.902309
	H117	H	0.386053	0.086293	0.083023
	H118	H	0.605735	0.912060	0.080808
	H119	H	0.385304	0.907661	0.901285
	C120	C	0.375223	0.005171	0.615515
	C121	C	0.617296	0.987826	0.614885
	C122	C	0.617100	0.005460	0.374650
	C123	C	0.375636	0.988347	0.373428
	C124	C	0.617979	0.375719	0.002518
	C125	C	0.617934	0.617826	0.986578
	C126	C	0.374607	0.617838	0.003299
	C127	C	0.375964	0.375859	0.985511
	C128	C	0.005296	0.617913	0.373200
	C129	C	0.987955	0.618149	0.616532
	C130	C	0.004693	0.374842	0.617050
	C131	C	0.988706	0.375852	0.374189
	C132	C	0.874565	0.505134	0.116479
	C133	C	0.117451	0.487501	0.115391
	C134	C	0.118151	0.505198	0.872934
	C135	C	0.875063	0.488680	0.873871
	C136	C	0.118488	0.874776	0.503214
	C137	C	0.118011	0.117744	0.486687
	C138	C	0.875554	0.117500	0.503134
	C139	C	0.875055	0.875479	0.485745
	C140	C	0.504928	0.117589	0.872443
	C141	C	0.488550	0.118707	0.116121
	C142	C	0.505482	0.875807	0.116056
	C143	C	0.488559	0.874196	0.872630
	C144	C	0.375794	0.885565	0.672665
	C145	C	0.620476	0.104728	0.676644
	C146	C	0.619797	0.887958	0.313858
	C147	C	0.374473	0.106836	0.314897
	C148	C	0.677736	0.373407	0.884954
	C149	C	0.676991	0.619326	0.104644
	C150	C	0.315041	0.620801	0.885433
	C151	C	0.314722	0.371428	0.102196
	C152	C	0.887640	0.676963	0.372163
	C153	C	0.106367	0.675137	0.615898
	C154	C	0.888700	0.313314	0.620079
	C155	C	0.105697	0.315992	0.372597
	C156	C	0.887807	0.371823	0.677072
	C157	C	0.106296	0.617303	0.673995
	C158	C	0.887902	0.619517	0.313882
	C159	C	0.105174	0.372928	0.313639
	C160	C	0.373425	0.678029	0.885529
	C161	C	0.618291	0.676206	0.105339
	C162	C	0.619790	0.315991	0.884620
	C163	C	0.373301	0.314482	0.102625
	C164	C	0.678264	0.888224	0.370755
	C165	C	0.678876	0.104583	0.619937
	C166	C	0.317403	0.886037	0.615904
	C167	C	0.316342	0.106441	0.372303
	C168	C	0.873583	0.386622	0.175454
	C169	C	0.119622	0.605189	0.175603
	C170	C	0.119271	0.386879	0.813916
	C171	C	0.875876	0.608023	0.816414
	C172	C	0.177095	0.873829	0.385022
	C173	C	0.178025	0.120345	0.604001
	C174	C	0.812358	0.123423	0.387358
	C175	C	0.814806	0.872679	0.602982
	C176	C	0.387945	0.177880	0.870201
	C177	C	0.604790	0.180183	0.119546
	C178	C	0.387504	0.817246	0.116742
	C179	C	0.605423	0.813916	0.870731
	C180	C	0.387783	0.874972	0.175007
	C181	C	0.604359	0.123317	0.178410
	C182	C	0.387178	0.118702	0.813564
	C183	C	0.604972	0.870663	0.811631
	C184	C	0.870705	0.180469	0.386956
	C185	C	0.120162	0.178089	0.604072
	C186	C	0.118715	0.816416	0.384603
	C187	C	0.873538	0.816033	0.603691
	C188	C	0.178208	0.387365	0.870299
	C189	C	0.177648	0.605086	0.118223
	C190	C	0.815624	0.386728	0.117872
	C191	C	0.817900	0.608058	0.873841
	C192	C	0.398821	0.088120	0.591844
	C193	C	0.591771	0.906305	0.588466
	C194	C	0.591370	0.087118	0.400611
	C195	C	0.400040	0.905784	0.397816
	C196	C	0.592575	0.401176	0.084406
	C197	C	0.593794	0.593209	0.903929
	C198	C	0.399086	0.592631	0.085549
	C199	C	0.400750	0.401413	0.903555
	C200	C	0.087162	0.593200	0.397402
	C201	C	0.905229	0.594816	0.592984
	C202	C	0.085935	0.400577	0.591691
	C203	C	0.907223	0.401551	0.399454
	C204	C	0.899450	0.587220	0.091421
	C205	C	0.092437	0.405761	0.089960
	C206	C	0.093606	0.587382	0.898199
	C207	C	0.898746	0.406104	0.898211
	C208	C	0.094898	0.898772	0.585839
	C209	C	0.093019	0.092892	0.404361
	C210	C	0.902489	0.089962	0.583608
	C211	C	0.899952	0.900618	0.403641
	C212	C	0.586408	0.092305	0.897938
	C213	C	0.407355	0.092626	0.090153
	C214	C	0.587168	0.900301	0.091214
	C215	C	0.406952	0.899731	0.897532
	Zn216	Zn	0.496725	-0.004108	0.743673
	Zn217	Zn	0.497266	-0.002450	0.245056
	Zn218	Zn	0.746339	0.496758	-0.005030
	Zn219	Zn	0.246399	0.496217	-0.005713
	Zn220	Zn	-0.003474	0.746946	0.494589
	Zn221	Zn	-0.003696	0.246122	0.495232
	Zn222	Zn	-0.003800	0.496587	0.745283
	Zn223	Zn	-0.003451	0.495975	0.243887
	Zn224	Zn	0.496775	0.745922	-0.004976
	Zn225	Zn	0.497303	0.246762	-0.006273
	Zn226	Zn	0.746620	-0.002936	0.494708
	Zn227	Zn	0.247000	-0.003540	0.494622
	N228	N	0.410964	0.960606	0.672854
	N229	N	0.583074	0.031005	0.673857
	N230	N	0.582684	0.962000	0.315933
	N231	N	0.410460	0.032340	0.315248
	N232	N	0.676837	0.409754	0.959379
	N233	N	0.676925	0.584002	0.029791
	N234	N	0.315620	0.584119	0.959798
	N235	N	0.316300	0.408877	0.028335
	N236	N	0.961662	0.676179	0.408267
	N237	N	0.031618	0.675891	0.580946
	N238	N	0.962421	0.314878	0.583457
	N239	N	0.032071	0.317655	0.409614
	N240	N	0.961198	0.409374	0.675489
	N241	N	0.031452	0.582703	0.674516
	N242	N	0.962121	0.583462	0.314173
	N243	N	0.031343	0.409393	0.314611
	N244	N	0.409595	0.676531	0.959946
	N245	N	0.582498	0.675691	0.030647
	N246	N	0.583387	0.317141	0.958959
	N247	N	0.410683	0.317035	0.028969
	N248	N	0.676875	0.962406	0.407782
	N249	N	0.677305	0.030784	0.582424
	N250	N	0.316493	0.961601	0.581575
	N251	N	0.316759	0.031481	0.407766
	N252	N	0.909176	0.461438	0.175221
	N253	N	0.083151	0.530930	0.174161
	N254	N	0.082713	0.461210	0.815380
	N255	N	0.910562	0.532823	0.815984
	N256	N	0.177197	0.909208	0.459774
	N257	N	0.176752	0.083438	0.529940
	N258	N	0.815289	0.084956	0.460674
	N259	N	0.815492	0.908902	0.528520
	N260	N	0.462267	0.177468	0.906033
	N261	N	0.531689	0.177292	0.081191
	N262	N	0.461800	0.817319	0.081057
	N263	N	0.531792	0.815877	0.907851
	N264	N	0.462333	0.910408	0.175063
	N265	N	0.531005	0.085773	0.176315
	N266	N	0.461142	0.082122	0.814487
	N267	N	0.531130	0.907438	0.812552
	N268	N	0.909421	0.176966	0.459974
	N269	N	0.083579	0.176637	0.529818
	N270	N	0.083035	0.816771	0.459171
	N271	N	0.910330	0.817590	0.529502
	N272	N	0.177876	0.462070	0.906256
	N273	N	0.176781	0.530843	0.081634
	N274	N	0.816012	0.461518	0.082117
	N275	N	0.816866	0.532697	0.908551
	O276	O	0.208807	0.777513	-0.037602
	H277	H	0.213716	0.776986	-0.067753
	H278	H	0.229708	0.764167	-0.055499
	O279	O	0.416350	0.462646	0.345009
	H280	H	0.407422	0.473291	0.341141
	H281	H	0.418169	0.472017	0.341207
	O282	O	0.933287	0.046534	1.035153
	H283	H	0.931465	0.060428	1.040641
	H284	H	0.939153	0.055359	1.047472
	O285	O	0.444238	0.495161	0.513350
	H286	H	0.443006	0.501969	0.510129
	H287	H	0.450075	0.483676	0.508257
	O288	O	0.372004	0.601596	0.498653
	H289	H	0.378684	0.595640	0.487197
	H290	H	0.371762	0.609190	0.485107
	O291	O	0.277742	0.280824	0.525307
	H292	H	0.260436	0.263599	0.533066
	H293	H	0.277954	0.284707	0.538988
	O294	O	0.894667	0.050659	1.106165
	H295	H	0.884717	0.038461	1.104650
	H296	H	0.901087	0.063470	1.099445
	O297	O	0.460583	0.714977	0.277048
	H298	H	0.452586	0.722380	0.269076
	H299	H	0.440955	0.725069	0.263491
	O300	O	0.067265	0.178393	0.858479
	H301	H	0.068662	0.179827	0.883985
	H302	H	0.074871	0.171120	0.862703
	O303	O	0.701514	0.698133	0.674955
	H304	H	0.726027	0.723980	0.697567
	H305	H	0.696677	0.700138	0.641254
	O306	O	0.715001	0.314963	0.481831
	H307	H	0.729346	0.306870	0.492122
	H308	H	0.710187	0.318256	0.497197
	O309	O	0.501046	0.531154	0.678835
	H310	H	0.520431	0.528454	0.666132
	H311	H	0.523845	0.536675	0.676564
	O312	O	0.526559	0.709429	0.710782
	H313	H	0.531247	0.726590	0.722247
	H314	H	0.548087	0.716016	0.707967
	O315	O	0.827918	0.814600	0.810948
	H316	H	0.845714	0.829362	0.826672
	H317	H	0.846317	0.819880	0.827254
	O318	O	0.511669	0.587872	0.536360
	H319	H	0.501359	0.579821	0.541429
	H320	H	0.512996	0.587211	0.552275
	O321	O	0.210280	0.860144	0.880381
	H322	H	0.223055	0.839272	0.862346
	H323	H	0.214742	0.892248	0.877751
	O324	O	0.963344	0.779996	0.214599
	H325	H	0.964926	0.760836	0.216127
	H326	H	0.936296	0.768035	0.218059
	O327	O	-0.118469	0.046803	1.071728
	H328	H	-0.120132	0.069553	1.089082
	H329	H	-0.107883	0.037993	1.076989
	O330	O	0.618550	0.643576	0.440933
	H331	H	0.606396	0.649494	0.460420
	H332	H	0.608176	0.643193	0.418644
	O333	O	0.463390	0.274832	0.712289
	H334	H	0.463017	0.255768	0.739359
	H335	H	0.456057	0.284516	0.716718
	O336	O	0.692992	0.302520	0.302727
	H337	H	0.653817	0.298873	0.306888
	H338	H	0.689729	0.299391	0.333975
	O339	O	0.855875	0.018427	0.787848
	H340	H	0.866707	0.024189	0.785037
	H341	H	0.859562	0.026791	0.776737
	O342	O	-0.006355	-0.007870	0.103915
	H343	H	-0.009896	-0.023805	0.103904
	H344	H	-0.017442	0.005621	0.114942
	O345	O	-0.013911	1.161765	1.074648
	H346	H	-0.009048	1.162995	1.095205
	H347	H	-0.015775	1.144253	1.094149
	O348	O	0.475608	0.528840	0.311038
	H349	H	0.473778	0.561253	0.305815
	H350	H	0.495151	0.529275	0.302694
	O351	O	0.778020	0.781728	0.213773
	H352	H	0.746270	0.748535	0.243148
	H353	H	0.783595	0.780908	0.184063
	O354	O	0.126480	0.110012	0.872743
	H355	H	0.109093	0.097871	0.878786
	H356	H	0.130291	0.106721	0.854839
	O357	O	0.679583	0.675912	0.316280
	H358	H	0.675635	0.647401	0.332824
	H359	H	0.655295	0.667992	0.337036
	O360	O	0.231850	0.261417	0.747136
	H361	H	0.248536	0.279811	0.741916
	H362	H	0.218270	0.269235	0.763592
	O363	O	0.052489	-0.005303	0.178298
	H364	H	0.047374	-0.001192	0.183281
	H365	H	0.048576	0.016597	0.187964
	O366	O	0.637862	0.406106	0.580720
	H367	H	0.641342	0.415557	0.587489
	H368	H	0.641627	0.396291	0.589120
	O369	O	0.830758	0.174792	0.149620
	H370	H	0.836535	0.177040	0.163959
	H371	H	0.819122	0.175136	0.146619
	O372	O	0.915338	0.787931	-0.030691
	H373	H	0.930220	0.796092	-0.017616
	H374	H	0.915410	0.799484	-0.028217
	O375	O	0.778364	-0.027807	0.212673
	H376	H	0.766154	-0.046393	0.226885
	H377	H	0.769207	-0.045617	0.208726
	O378	O	0.593155	0.527536	0.410847
	H379	H	0.592175	0.520608	0.420720
	H380	H	0.599021	0.509297	0.394596
	O381	O	0.103577	0.786220	0.782317
	H382	H	0.118989	0.784296	0.774751
	H383	H	0.094016	0.773567	0.770196
	O384	O	0.781446	0.142688	0.992187
	H385	H	0.771315	0.156779	0.994349
	H386	H	0.788798	0.135698	0.990514
	O387	O	1.057858	0.772455	0.037489
	H388	H	1.078132	0.777888	0.027323
	H389	H	1.058117	0.764114	0.029755
	O390	O	0.527828	0.290364	0.283606
	H391	H	0.513224	0.291531	0.265476
	H392	H	0.508618	0.284358	0.297795
	O393	O	0.442350	0.312674	0.450332
	H394	H	0.454017	0.307430	0.469606
	H395	H	0.439268	0.316350	0.467641
	O396	O	-0.099813	1.021762	0.798969
	H397	H	-0.119671	1.021905	0.786917
	H398	H	-0.111541	1.023050	0.820236
	O399	O	-0.018780	-0.117894	0.793208
	H400	H	-0.023835	-0.112602	0.801708
	H401	H	-0.023598	-0.125333	0.801952
	O402	O	0.293131	0.490518	0.577108
	H403	H	0.301837	0.484778	0.563504
	H404	H	0.282997	0.473440	0.596376
	O405	O	1.111417	0.006190	0.886230
	H406	H	1.111189	0.002188	0.889649
	H407	H	1.104464	0.015978	0.903621
	O408	O	0.076448	0.211054	0.159476
	H409	H	0.107637	0.212949	0.170818
	H410	H	0.071132	0.209914	0.179296
	O411	O	0.344984	0.581627	0.552698
	H412	H	0.336202	0.569471	0.545662
	H413	H	0.346215	0.570180	0.555131
	O414	O	0.677448	0.319994	0.673545
	H415	H	0.684268	0.330814	0.667109
	H416	H	0.687604	0.313099	0.684385
	O417	O	0.577022	0.280491	0.522351
	H418	H	0.568349	0.278648	0.543632
	H419	H	0.580260	0.288033	0.523946
	O420	O	0.337026	0.660663	0.680852
	H421	H	0.353045	0.642057	0.669111
	H422	H	0.348776	0.638614	0.670889
	O423	O	-0.016622	0.198379	0.907183
	H424	H	-0.005159	0.201198	0.926564
	H425	H	-0.012698	0.203529	0.907573
	O426	O	0.309905	0.711308	0.459204
	H427	H	0.302720	0.709045	0.469629
	H428	H	0.302249	0.707429	0.465893
	O429	O	0.761557	1.006221	0.996956
	H430	H	0.760917	0.994680	1.005718
	H431	H	0.765848	1.014919	1.004871
	O432	O	0.689481	0.714078	0.518544
	H433	H	0.704356	0.729084	0.516325
	H434	H	0.681092	0.708457	0.505131
	O435	O	0.187267	0.807108	0.185068
	H436	H	0.168678	0.825952	0.167038
	H437	H	0.166451	0.824567	0.167424
	O438	O	0.212906	0.034044	0.212184
	H439	H	0.210972	0.054051	0.216898
	H440	H	0.230868	0.028229	0.224453
	O441	O	0.208860	0.205752	0.206818
	H442	H	0.239393	0.238097	0.235297
	H443	H	0.204660	0.191633	0.185080
	O444	O	0.312746	0.311387	0.309628
	H445	H	0.327140	0.336683	0.321828
	H446	H	0.334357	0.322468	0.329529
	O447	O	0.221878	0.960160	0.772537
	H448	H	0.217169	0.971446	0.762692
	H449	H	0.227334	0.957132	0.754119
	O450	O	0.166923	0.982528	1.031789
	H451	H	0.173704	0.967870	1.033566
	H452	H	0.162744	0.982990	1.020778
	O453	O	0.340602	0.486365	0.682480
	H454	H	0.335252	0.499362	0.708622
	H455	H	0.369769	0.498842	0.681577
	O456	O	0.203304	0.198658	0.987957
	H457	H	0.208274	0.206982	1.004268
	H458	H	0.220371	0.176024	0.983719
	O459	O	0.778916	0.786228	0.037132
	H460	H	0.770721	0.791141	0.032684
	H461	H	0.783278	0.769313	0.034793
	O462	O	0.715882	0.468491	0.279091
	H463	H	0.712651	0.432143	0.288779
	H464	H	0.738541	0.456550	0.250931
	O465	O	1.046257	0.027039	-0.083605
	H466	H	1.049778	0.035097	-0.081586
	H467	H	1.047840	0.031393	-0.071136
	O468	O	0.275724	0.520619	0.271927
	H469	H	0.242002	0.531614	0.237007
	H470	H	0.289822	0.565001	0.285719
	O471	O	0.430054	0.374937	0.695379
	H472	H	0.450656	0.393563	0.698893
	H473	H	0.439861	0.364429	0.673134
	O474	O	0.291343	0.705732	0.282360
	H475	H	0.298724	0.711762	0.320265
	H476	H	0.257775	0.739734	0.252747
	O477	O	0.507776	0.538814	1.435972
	H478	H	0.507183	0.535120	1.431045
	H479	H	0.503979	0.528677	1.426329
	O480	O	0.618004	0.433464	0.439158
	H481	H	0.612809	0.423531	0.437874
	H482	H	0.616681	0.449972	0.445646
	O483	O	0.723336	0.525500	0.717831
	H484	H	0.759830	0.530628	0.753859
	H485	H	0.712441	0.561076	0.701099
	O486	O	0.787223	0.203524	0.786225
	H487	H	0.798745	0.172620	0.789112
	H488	H	0.796394	0.207522	0.805371
	O489	O	0.962843	0.930574	-0.041227
	H490	H	0.951610	0.947259	-0.034294
	H491	H	0.958557	0.944286	-0.030606
