data_Molecule from HDF5

_cell_length_a		16.321950
_cell_length_b		16.318951
_cell_length_c		16.316411
_cell_angle_alpha	90.254265
_cell_angle_beta	90.004263
_cell_angle_gamma	89.993408
_symmetry_space_group_name_H-M	'P 1'
_symmetry_Int_Tables_number		1

loop_
	_symmetry_equiv_pos_as_xyz
	x,y,z

loop_
	_atom_site_label
	_atom_site_type_symbol
	_atom_site_fract_x
	_atom_site_fract_y
	_atom_site_fract_z
	H0	H	0.401377	0.840535	0.714018
	H1	H	0.598269	0.166885	0.714276
	H2	H	0.598013	0.840610	0.282865
	H3	H	0.400507	0.167301	0.287241
	H4	H	0.712851	0.405958	0.835566
	H5	H	0.714464	0.604165	0.162454
	H6	H	0.284921	0.601073	0.835705
	H7	H	0.283077	0.407374	0.162781
	H8	H	0.835654	0.717354	0.400720
	H9	H	0.162136	0.717766	0.598451
	H10	H	0.835280	0.288798	0.596293
	H11	H	0.162537	0.288299	0.401108
	H12	H	0.834869	0.405803	0.712655
	H13	H	0.162090	0.600939	0.713588
	H14	H	0.835516	0.600614	0.285504
	H15	H	0.162754	0.404549	0.284526
	H16	H	0.400551	0.717956	0.836187
	H17	H	0.595985	0.718747	0.163436
	H18	H	0.597189	0.289438	0.835451
	H19	H	0.398985	0.290186	0.163120
	H20	H	0.713060	0.839058	0.400251
	H21	H	0.714991	0.165997	0.598999
	H22	H	0.285568	0.839445	0.597059
	H23	H	0.283634	0.165840	0.401834
	H24	H	0.900131	0.340430	0.213020
	H25	H	0.097697	0.666452	0.214972
	H26	H	0.096754	0.340163	0.784367
	H27	H	0.899971	0.667261	0.784597
	H28	H	0.213908	0.903353	0.336030
	H29	H	0.212328	0.100767	0.662888
	H30	H	0.783533	0.099560	0.336604
	H31	H	0.784664	0.904907	0.663218
	H32	H	0.335465	0.217344	0.903179
	H33	H	0.662232	0.220981	0.099657
	H34	H	0.335095	0.790583	0.098626
	H35	H	0.661349	0.787771	0.900102
	H36	H	0.336269	0.906546	0.214459
	H37	H	0.662703	0.103217	0.215174
	H38	H	0.335761	0.102962	0.785249
	H39	H	0.662928	0.906774	0.786714
	H40	H	0.900487	0.215681	0.335422
	H41	H	0.097953	0.218582	0.662803
	H42	H	0.097557	0.786601	0.336321
	H43	H	0.900574	0.788573	0.662848
	H44	H	0.213926	0.341358	0.899963
	H45	H	0.211833	0.667878	0.097449
	H46	H	0.784038	0.340076	0.096783
	H47	H	0.785077	0.667617	0.902291
	H48	H	0.412087	0.116625	0.590293
	H49	H	0.586600	0.890016	0.586953
	H50	H	0.593709	0.119376	0.408340
	H51	H	0.417020	0.890616	0.406685
	H52	H	0.595336	0.418929	0.114759
	H53	H	0.588756	0.603133	0.882615
	H54	H	0.407328	0.597056	0.114867
	H55	H	0.412992	0.406551	0.884730
	H56	H	0.114317	0.597403	0.410091
	H57	H	0.886112	0.595917	0.580198
	H58	H	0.116775	0.401906	0.591593
	H59	H	0.883706	0.414305	0.402457
	H60	H	0.111239	0.413649	0.584578
	H61	H	0.884590	0.586340	0.598985
	H62	H	0.113191	0.591338	0.407172
	H63	H	0.881024	0.404618	0.402663
	H64	H	0.404458	0.602799	0.117238
	H65	H	0.597929	0.596704	0.881716
	H66	H	0.583762	0.414179	0.111792
	H67	H	0.398752	0.406008	0.881027
	H68	H	0.590685	0.118445	0.406764
	H69	H	0.600594	0.886305	0.591169
	H70	H	0.399624	0.120008	0.589269
	H71	H	0.401031	0.888535	0.414530
	H72	H	0.899186	0.620229	0.088376
	H73	H	0.091726	0.388429	0.089182
	H74	H	0.095580	0.620481	0.907077
	H75	H	0.912268	0.391936	0.913626
	H76	H	0.089581	0.904623	0.616252
	H77	H	0.095681	0.098102	0.382093
	H78	H	0.907278	0.090640	0.613117
	H79	H	0.908035	0.909744	0.385009
	H80	H	0.616420	0.103243	0.905977
	H81	H	0.380730	0.108967	0.091101
	H82	H	0.618298	0.899746	0.091683
	H83	H	0.381293	0.905668	0.904042
	H84	H	0.609674	0.916423	0.082449
	H85	H	0.387714	0.091272	0.085773
	H86	H	0.613598	0.095938	0.911817
	H87	H	0.384524	0.911791	0.912322
	H88	H	0.910811	0.100159	0.614977
	H89	H	0.093123	0.090653	0.384293
	H90	H	0.097816	0.910194	0.616977
	H91	H	0.905785	0.906722	0.382601
	H92	H	0.091180	0.621812	0.901981
	H93	H	0.092596	0.387236	0.091691
	H94	H	0.905499	0.621767	0.101136
	H95	H	0.893190	0.385763	0.907149
	H96	H	0.405651	0.122170	0.600557
	H97	H	0.589318	0.885490	0.601380
	H98	H	0.591069	0.117917	0.410906
	H99	H	0.402634	0.883509	0.396998
	H100	H	0.593464	0.406990	0.117152
	H101	H	0.587808	0.591896	0.886124
	H102	H	0.400758	0.596966	0.116839
	H103	H	0.404987	0.418657	0.885307
	H104	H	0.116202	0.596724	0.403582
	H105	H	0.878283	0.606718	0.597050
	H106	H	0.115227	0.414632	0.598028
	H107	H	0.884581	0.409088	0.411187
	H108	H	0.913105	0.616803	0.089648
	H109	H	0.089394	0.388655	0.091570
	H110	H	0.089139	0.618868	0.907188
	H111	H	0.909313	0.385587	0.893500
	H112	H	0.088931	0.914330	0.613192
	H113	H	0.087847	0.096471	0.383754
	H114	H	0.901247	0.098193	0.617333
	H115	H	0.903478	0.910597	0.382911
	H116	H	0.616789	0.094459	0.902250
	H117	H	0.381367	0.094043	0.104598
	H118	H	0.616572	0.917545	0.102511
	H119	H	0.382518	0.916450	0.903129
	C120	C	0.377606	0.011486	0.621518
	C121	C	0.621182	0.994956	0.621832
	C122	C	0.620634	0.011012	0.378685
	C123	C	0.377530	0.995213	0.377965
	C124	C	0.619987	0.383646	0.007069
	C125	C	0.620024	0.626029	0.991362
	C126	C	0.376636	0.626379	0.008024
	C127	C	0.377024	0.382835	0.991806
	C128	C	0.007060	0.624156	0.378140
	C129	C	0.990650	0.624884	0.620845
	C130	C	0.006654	0.382065	0.620070
	C131	C	0.991104	0.380930	0.376874
	C132	C	0.877084	0.511765	0.120766
	C133	C	0.119788	0.496057	0.120091
	C134	C	0.120524	0.512319	0.877179
	C135	C	0.876964	0.495585	0.876932
	C136	C	0.120625	0.880750	0.507627
	C137	C	0.120278	0.123689	0.491281
	C138	C	0.877707	0.123893	0.507346
	C139	C	0.877390	0.881043	0.491354
	C140	C	0.507205	0.125640	0.878743
	C141	C	0.491054	0.127221	0.122561
	C142	C	0.507087	0.883060	0.121079
	C143	C	0.490781	0.882454	0.878132
	C144	C	0.380370	0.888978	0.676352
	C145	C	0.618718	0.118043	0.676603
	C146	C	0.618164	0.888708	0.322012
	C147	C	0.379878	0.118190	0.324125
	C148	C	0.675009	0.385475	0.884308
	C149	C	0.675811	0.623884	0.114039
	C150	C	0.322595	0.622261	0.884629
	C151	C	0.320985	0.386082	0.114119
	C152	C	0.884240	0.678941	0.380776
	C153	C	0.113541	0.679767	0.618377
	C154	C	0.883737	0.326726	0.617498
	C155	C	0.113934	0.325942	0.379931
	C156	C	0.883810	0.384857	0.675288
	C157	C	0.113702	0.621733	0.675297
	C158	C	0.884403	0.621406	0.322980
	C159	C	0.113964	0.383906	0.322193
	C160	C	0.379966	0.680294	0.884788
	C161	C	0.617090	0.680872	0.114521
	C162	C	0.617484	0.327674	0.884161
	C163	C	0.378977	0.328193	0.114356
	C164	C	0.675571	0.888194	0.379803
	C165	C	0.676799	0.117454	0.619356
	C166	C	0.323247	0.888278	0.618039
	C167	C	0.321708	0.117404	0.381274
	C168	C	0.879778	0.388807	0.174905
	C169	C	0.117811	0.618206	0.176523
	C170	C	0.117465	0.389081	0.822340
	C171	C	0.879785	0.618582	0.822482
	C172	C	0.175850	0.882798	0.384655
	C173	C	0.174836	0.121754	0.614255
	C174	C	0.821637	0.120654	0.385053
	C175	C	0.822407	0.884003	0.614496
	C176	C	0.384189	0.179930	0.881941
	C177	C	0.613686	0.182376	0.119914
	C178	C	0.384127	0.828448	0.118592
	C179	C	0.613223	0.826826	0.880424
	C180	C	0.384379	0.886253	0.176145
	C181	C	0.613951	0.124111	0.177466
	C182	C	0.384589	0.122991	0.823412
	C183	C	0.613857	0.885498	0.823707
	C184	C	0.879387	0.178516	0.384448
	C185	C	0.117888	0.180357	0.613844
	C186	C	0.117993	0.825106	0.384871
	C187	C	0.880201	0.826579	0.614308
	C188	C	0.175766	0.389760	0.879460
	C189	C	0.174410	0.618985	0.117823
	C190	C	0.821798	0.388937	0.117519
	C191	C	0.822462	0.618777	0.880836
	C192	C	0.399215	0.097336	0.599623
	C193	C	0.598834	0.909404	0.599709
	C194	C	0.598373	0.096446	0.401742
	C195	C	0.400312	0.909446	0.399720
	C196	C	0.597493	0.406582	0.092505
	C197	C	0.597920	0.603762	0.905618
	C198	C	0.397924	0.605247	0.093941
	C199	C	0.399139	0.404192	0.905925
	C200	C	0.092652	0.601702	0.400591
	C201	C	0.905228	0.602865	0.598586
	C202	C	0.092254	0.403776	0.598035
	C203	C	0.905301	0.402885	0.398918
	C204	C	0.899171	0.597361	0.099293
	C205	C	0.097613	0.410223	0.097481
	C206	C	0.098556	0.598097	0.898984
	C207	C	0.898556	0.410002	0.898384
	C208	C	0.098752	0.903225	0.593347
	C209	C	0.098642	0.101377	0.405389
	C210	C	0.900165	0.102707	0.592994
	C211	C	0.899145	0.902638	0.405659
	C212	C	0.593377	0.104227	0.900510
	C213	C	0.405371	0.104749	0.100380
	C214	C	0.592725	0.904868	0.098787
	C215	C	0.404925	0.904796	0.899978
	Zn216	Zn	0.499269	0.004066	0.750051
	Zn217	Zn	0.499231	0.004253	0.249947
	Zn218	Zn	0.748697	0.504080	-0.000530
	Zn219	Zn	0.248575	0.504818	-0.000549
	Zn220	Zn	-0.001211	0.752565	0.499690
	Zn221	Zn	-0.001209	0.252726	0.498792
	Zn222	Zn	-0.001083	0.503883	0.748810
	Zn223	Zn	-0.001029	0.503061	0.249283
	Zn224	Zn	0.498385	0.754511	-0.000068
	Zn225	Zn	0.499325	0.254505	-0.000256
	Zn226	Zn	0.749074	0.002152	0.499941
	Zn227	Zn	0.249013	0.002153	0.499647
	N228	N	0.413566	0.966452	0.678438
	N229	N	0.584781	0.040843	0.678232
	N230	N	0.584666	0.966216	0.321190
	N231	N	0.413961	0.041092	0.322032
	N232	N	0.676337	0.419631	0.961434
	N233	N	0.677779	0.590464	0.036441
	N234	N	0.320581	0.589448	0.962164
	N235	N	0.319813	0.419365	0.036820
	N236	N	0.961634	0.680873	0.414118
	N237	N	0.035971	0.681615	0.585127
	N238	N	0.960945	0.324867	0.583825
	N239	N	0.036611	0.324024	0.413335
	N240	N	0.961263	0.418364	0.677011
	N241	N	0.036507	0.588319	0.677008
	N242	N	0.961722	0.587754	0.321486
	N243	N	0.036466	0.416938	0.320067
	N244	N	0.412816	0.683030	0.962489
	N245	N	0.583236	0.682446	0.037239
	N246	N	0.583984	0.326223	0.961816
	N247	N	0.413172	0.326123	0.037286
	N248	N	0.677006	0.965076	0.414547
	N249	N	0.678317	0.039942	0.586003
	N250	N	0.321260	0.965619	0.584744
	N251	N	0.320221	0.039915	0.413936
	N252	N	0.913385	0.466082	0.177220
	N253	N	0.084252	0.540825	0.177748
	N254	N	0.084025	0.466446	0.820462
	N255	N	0.912968	0.541063	0.820003
	N256	N	0.177759	0.916479	0.462155
	N257	N	0.176532	0.087510	0.537225
	N258	N	0.820316	0.087605	0.462517
	N259	N	0.820656	0.917205	0.537195
	N260	N	0.461448	0.181724	0.915514
	N261	N	0.536305	0.184322	0.086516
	N262	N	0.461488	0.826460	0.085088
	N263	N	0.535801	0.824984	0.913652
	N264	N	0.461720	0.919708	0.177695
	N265	N	0.536554	0.090730	0.179315
	N266	N	0.462170	0.089821	0.821567
	N267	N	0.536577	0.919279	0.822232
	N268	N	0.913663	0.180393	0.461395
	N269	N	0.084460	0.181671	0.536243
	N270	N	0.084309	0.823868	0.462107
	N271	N	0.913661	0.824596	0.536875
	N272	N	0.177661	0.467304	0.912850
	N273	N	0.175608	0.541945	0.083507
	N274	N	0.820241	0.466458	0.084512
	N275	N	0.820772	0.541501	0.914214
	O276	O	0.062252	0.035726	1.004639
	H277	H	0.064367	0.038657	1.003968
	H278	H	0.062013	0.038797	1.001220
	O279	O	0.542482	0.446233	0.475977
	H280	H	0.542130	0.439725	0.480014
	H281	H	0.545054	0.435337	0.469753
	O282	O	0.510376	0.493149	0.466345
	H283	H	0.501494	0.499255	0.465825
	H284	H	0.507616	0.492199	0.468718
	O285	O	0.556050	0.411831	0.472426
	H286	H	0.560828	0.407315	0.467184
	H287	H	0.561752	0.414214	0.469140
	O288	O	0.523321	0.418856	0.423016
	H289	H	0.519727	0.412096	0.413730
	H290	H	0.528103	0.420610	0.426745
	O291	O	0.032072	1.025131	1.031252
	H292	H	0.036374	1.025845	1.034610
	H293	H	0.034113	1.023809	1.036183
	O294	O	0.540137	0.416361	0.460628
	H295	H	0.540837	0.412678	0.468371
	H296	H	0.548040	0.426364	0.463828
	O297	O	1.067189	0.020652	0.039146
	H298	H	1.075829	0.023151	0.036948
	H299	H	1.069985	0.017374	0.039467
