data_Molecule from HDF5

_cell_length_a		16.443734
_cell_length_b		16.339324
_cell_length_c		16.484472
_cell_angle_alpha	89.959263
_cell_angle_beta	89.969508
_cell_angle_gamma	90.201507
_symmetry_space_group_name_H-M	'P 1'
_symmetry_Int_Tables_number		1

loop_
	_symmetry_equiv_pos_as_xyz
	x,y,z

loop_
	_atom_site_label
	_atom_site_type_symbol
	_atom_site_fract_x
	_atom_site_fract_y
	_atom_site_fract_z
	H0	H	0.383271	0.839994	0.723423
	H1	H	0.597279	0.157921	0.723544
	H2	H	0.596863	0.839519	0.278882
	H3	H	0.386336	0.157504	0.280803
	H4	H	0.711879	0.392044	0.843121
	H5	H	0.710855	0.603223	0.160044
	H6	H	0.266605	0.604645	0.844468
	H7	H	0.268516	0.393401	0.159427
	H8	H	0.831083	0.721454	0.396216
	H9	H	0.148335	0.718350	0.605829
	H10	H	0.830429	0.277939	0.606056
	H11	H	0.148741	0.281001	0.398830
	H12	H	0.830994	0.391207	0.724639
	H13	H	0.146242	0.604830	0.723732
	H14	H	0.830846	0.607031	0.278336
	H15	H	0.146803	0.394019	0.279620
	H16	H	0.384949	0.719025	0.843158
	H17	H	0.594744	0.719298	0.160512
	H18	H	0.592250	0.279865	0.841448
	H19	H	0.385865	0.278041	0.159513
	H20	H	0.711930	0.840351	0.395178
	H21	H	0.711875	0.158338	0.606390
	H22	H	0.267325	0.840598	0.607551
	H23	H	0.272088	0.159014	0.397244
	H24	H	0.882917	0.340121	0.223985
	H25	H	0.094754	0.658954	0.221088
	H26	H	0.095327	0.340553	0.779403
	H27	H	0.884294	0.658629	0.781620
	H28	H	0.209428	0.895642	0.343539
	H29	H	0.209609	0.102950	0.662047
	H30	H	0.768787	0.105119	0.343964
	H31	H	0.766658	0.891640	0.658817
	H32	H	0.329890	0.218176	0.894627
	H33	H	0.648657	0.217541	0.101372
	H34	H	0.330569	0.778579	0.104387
	H35	H	0.648512	0.777744	0.895928
	H36	H	0.331609	0.891907	0.222243
	H37	H	0.647614	0.104264	0.221089
	H38	H	0.331716	0.102305	0.779263
	H39	H	0.647856	0.892608	0.778138
	H40	H	0.888035	0.218800	0.342503
	H41	H	0.091409	0.217739	0.662330
	H42	H	0.094010	0.778583	0.343854
	H43	H	0.885913	0.779648	0.660516
	H44	H	0.210360	0.339897	0.894856
	H45	H	0.210538	0.657627	0.105914
	H46	H	0.768718	0.338709	0.106890
	H47	H	0.769022	0.658311	0.896757
	H48	H	0.411481	0.109153	0.588820
	H49	H	0.580175	0.885826	0.587226
	H50	H	0.582207	0.113013	0.413881
	H51	H	0.403188	0.884579	0.409357
	H52	H	0.577185	0.409755	0.113005
	H53	H	0.576645	0.589669	0.889192
	H54	H	0.400824	0.590677	0.114886
	H55	H	0.396978	0.407353	0.886718
	H56	H	0.101428	0.588982	0.411884
	H57	H	0.878778	0.582494	0.587507
	H58	H	0.104262	0.406561	0.595950
	H59	H	0.876980	0.411083	0.415719
	H60	H	0.101186	0.409664	0.587401
	H61	H	0.874190	0.586261	0.597573
	H62	H	0.101354	0.587129	0.412868
	H63	H	0.876428	0.412680	0.410140
	H64	H	0.395969	0.584821	0.115228
	H65	H	0.582760	0.588788	0.888472
	H66	H	0.578988	0.406115	0.114140
	H67	H	0.397633	0.411429	0.888492
	H68	H	0.579359	0.113746	0.407220
	H69	H	0.578764	0.885136	0.592369
	H70	H	0.395156	0.112438	0.583136
	H71	H	0.398761	0.884849	0.415006
	H72	H	0.904823	0.611644	0.092164
	H73	H	0.079026	0.384270	0.092736
	H74	H	0.078216	0.613408	0.911219
	H75	H	0.898605	0.384937	0.910951
	H76	H	0.073746	0.912194	0.612146
	H77	H	0.077340	0.087220	0.391246
	H78	H	0.894994	0.085838	0.614841
	H79	H	0.903927	0.912922	0.391384
	H80	H	0.604728	0.092444	0.911221
	H81	H	0.372896	0.092110	0.095929
	H82	H	0.605223	0.905693	0.093327
	H83	H	0.378405	0.911590	0.913980
	H84	H	0.601919	0.909105	0.085130
	H85	H	0.376310	0.088291	0.085422
	H86	H	0.599958	0.086661	0.917056
	H87	H	0.376698	0.909978	0.908783
	H88	H	0.904251	0.084776	0.611583
	H89	H	0.081636	0.096501	0.387000
	H90	H	0.079067	0.903837	0.617157
	H91	H	0.902582	0.907946	0.388834
	H92	H	0.075151	0.611378	0.913569
	H93	H	0.073579	0.384765	0.093144
	H94	H	0.899832	0.610591	0.085568
	H95	H	0.901733	0.385467	0.912936
	H96	H	0.399848	0.116043	0.599460
	H97	H	0.574301	0.887301	0.588876
	H98	H	0.575746	0.109644	0.412242
	H99	H	0.396559	0.882201	0.409159
	H100	H	0.580618	0.409790	0.114539
	H101	H	0.578887	0.584204	0.890013
	H102	H	0.403208	0.583875	0.112285
	H103	H	0.400989	0.409187	0.888482
	H104	H	0.101208	0.587262	0.410695
	H105	H	0.874230	0.593309	0.588173
	H106	H	0.101441	0.415552	0.595096
	H107	H	0.875056	0.407374	0.411729
	H108	H	0.896490	0.614323	0.092390
	H109	H	0.076007	0.386347	0.088540
	H110	H	0.078955	0.611844	0.915218
	H111	H	0.898810	0.385215	0.914539
	H112	H	0.084519	0.913655	0.615316
	H113	H	0.087695	0.087250	0.387928
	H114	H	0.901687	0.093337	0.615949
	H115	H	0.898301	0.912772	0.388973
	H116	H	0.601832	0.084131	0.908697
	H117	H	0.376018	0.081004	0.094538
	H118	H	0.601974	0.915024	0.093382
	H119	H	0.376157	0.905880	0.912576
	C120	C	0.369188	0.007506	0.622724
	C121	C	0.611099	0.990927	0.622333
	C122	C	0.611328	0.006844	0.379303
	C123	C	0.368656	0.989758	0.380327
	C124	C	0.610400	0.377029	0.008927
	C125	C	0.611767	0.619974	0.993597
	C126	C	0.368003	0.619164	0.009883
	C127	C	0.366851	0.376558	0.992219
	C128	C	-0.002867	0.620739	0.379524
	C129	C	0.980282	0.620206	0.623284
	C130	C	-0.002494	0.377689	0.624307
	C131	C	0.980888	0.378647	0.380642
	C132	C	0.867647	0.507059	0.122859
	C133	C	0.109244	0.490604	0.122530
	C134	C	0.109848	0.507250	0.880512
	C135	C	0.867896	0.490325	0.880536
	C136	C	0.111045	0.878087	0.510717
	C137	C	0.112556	0.121681	0.494158
	C138	C	0.869037	0.120182	0.509696
	C139	C	0.868132	0.877680	0.493370
	C140	C	0.497675	0.120174	0.879306
	C141	C	0.480438	0.119187	0.122311
	C142	C	0.498326	0.877014	0.122546
	C143	C	0.481611	0.876877	0.879323
	C144	C	0.365282	0.887651	0.683361
	C145	C	0.614659	0.110171	0.683179
	C146	C	0.614525	0.887488	0.318974
	C147	C	0.367619	0.109652	0.320642
	C148	C	0.671000	0.374726	0.890227
	C149	C	0.671224	0.621847	0.112673
	C150	C	0.307066	0.622448	0.891459
	C151	C	0.307968	0.374669	0.111755
	C152	C	0.878296	0.681484	0.377614
	C153	C	0.100103	0.679339	0.624852
	C154	C	0.878198	0.317207	0.625389
	C155	C	0.100656	0.319791	0.379464
	C156	C	0.878535	0.373401	0.684666
	C157	C	0.099210	0.622552	0.683593
	C158	C	0.878400	0.624431	0.318909
	C159	C	0.099728	0.376418	0.320420
	C160	C	0.366110	0.679268	0.890915
	C161	C	0.613032	0.679462	0.112873
	C162	C	0.611550	0.318441	0.889488
	C163	C	0.366388	0.317311	0.111900
	C164	C	0.671672	0.887619	0.377143
	C165	C	0.672152	0.110475	0.625149
	C166	C	0.307905	0.887936	0.625536
	C167	C	0.310525	0.110375	0.378782
	C168	C	0.865088	0.387633	0.183530
	C169	C	0.112513	0.610699	0.181713
	C170	C	0.113019	0.388010	0.819523
	C171	C	0.866201	0.610638	0.821406
	C172	C	0.169803	0.876837	0.391210
	C173	C	0.170380	0.121811	0.614076
	C174	C	0.809283	0.122621	0.390911
	C175	C	0.807204	0.874143	0.611638
	C176	C	0.378170	0.179131	0.876741
	C177	C	0.600738	0.178113	0.121414
	C178	C	0.378727	0.817313	0.123645
	C179	C	0.600924	0.817031	0.877209
	C180	C	0.379157	0.873977	0.182327
	C181	C	0.600259	0.121613	0.180766
	C182	C	0.378986	0.121572	0.818972
	C183	C	0.600504	0.874415	0.818742
	C184	C	0.868580	0.179148	0.390356
	C185	C	0.111806	0.179207	0.614286
	C186	C	0.112350	0.818515	0.391319
	C187	C	0.866605	0.818066	0.612683
	C188	C	0.170269	0.387803	0.877355
	C189	C	0.170047	0.610181	0.124034
	C190	C	0.808324	0.386671	0.125045
	C191	C	0.808725	0.610423	0.878979
	C192	C	0.394819	0.090592	0.597680
	C193	C	0.585086	0.907664	0.596786
	C194	C	0.586339	0.090392	0.404053
	C195	C	0.392532	0.905767	0.404508
	C196	C	0.586064	0.401530	0.092053
	C197	C	0.586645	0.594706	0.910638
	C198	C	0.392816	0.593663	0.092626
	C199	C	0.391561	0.401835	0.909518
	C200	C	0.079778	0.595137	0.404498
	C201	C	0.897397	0.594829	0.598348
	C202	C	0.080599	0.403283	0.599844
	C203	C	0.897862	0.403224	0.405418
	C204	C	0.893023	0.590577	0.097289
	C205	C	0.083578	0.406770	0.098225
	C206	C	0.084511	0.590508	0.906003
	C207	C	0.892583	0.406883	0.905439
	C208	C	0.086327	0.902866	0.593383
	C209	C	0.088880	0.097527	0.410421
	C210	C	0.893411	0.095269	0.592656
	C211	C	0.893980	0.903685	0.411027
	C212	C	0.580510	0.095073	0.904906
	C213	C	0.396833	0.094264	0.098722
	C214	C	0.581367	0.902477	0.097907
	C215	C	0.398689	0.901880	0.904533
	Zn216	Zn	0.490026	-0.001450	0.750861
	Zn217	Zn	0.489758	-0.002137	0.251642
	Zn218	Zn	0.739680	0.497999	0.001644
	Zn219	Zn	0.237864	0.498482	0.001748
	Zn220	Zn	-0.010796	0.748909	0.502044
	Zn221	Zn	-0.010252	0.249802	0.502274
	Zn222	Zn	-0.011739	0.499075	0.752404
	Zn223	Zn	-0.011170	0.499579	0.251081
	Zn224	Zn	0.490046	0.748273	0.001163
	Zn225	Zn	0.488557	0.247950	0.000415
	Zn226	Zn	0.739413	-0.000871	0.501309
	Zn227	Zn	0.240996	-0.000267	0.502387
	N228	N	0.402840	0.962755	0.681584
	N229	N	0.577330	0.034900	0.681395
	N230	N	0.577811	0.962767	0.320126
	N231	N	0.403073	0.033672	0.321393
	N232	N	0.670734	0.410292	0.965716
	N233	N	0.670664	0.585842	0.037336
	N234	N	0.308255	0.585693	0.966432
	N235	N	0.308003	0.410691	0.036402
	N236	N	0.953151	0.679545	0.414649
	N237	N	0.025196	0.677989	0.587972
	N238	N	0.953249	0.319497	0.588740
	N239	N	0.025797	0.321061	0.416368
	N240	N	0.953697	0.410346	0.684024
	N241	N	0.023709	0.586461	0.682686
	N242	N	0.953229	0.587417	0.320132
	N243	N	0.024186	0.412063	0.320841
	N244	N	0.403417	0.677328	0.965465
	N245	N	0.576898	0.678479	0.037627
	N246	N	0.574349	0.319898	0.964101
	N247	N	0.402000	0.318135	0.036505
	N248	N	0.669843	0.963051	0.413969
	N249	N	0.670031	0.035321	0.587910
	N250	N	0.310282	0.963205	0.588504
	N251	N	0.310841	0.034565	0.415007
	N252	N	0.900897	0.463655	0.182447
	N253	N	0.075021	0.535310	0.180488
	N254	N	0.076040	0.463286	0.821302
	N255	N	0.902231	0.534852	0.822396
	N256	N	0.169276	0.913149	0.466389
	N257	N	0.171117	0.087170	0.538121
	N258	N	0.809418	0.086635	0.466254
	N259	N	0.808040	0.910539	0.536507
	N260	N	0.453189	0.178354	0.913458
	N261	N	0.525222	0.176934	0.085987
	N262	N	0.453874	0.819038	0.087147
	N263	N	0.526072	0.818427	0.914276
	N264	N	0.454611	0.910411	0.181793
	N265	N	0.524513	0.085526	0.181251
	N266	N	0.454340	0.085650	0.820363
	N267	N	0.525388	0.910802	0.820089
	N268	N	0.905044	0.177712	0.465206
	N269	N	0.076769	0.179466	0.538546
	N270	N	0.076545	0.818872	0.466571
	N271	N	0.903815	0.820261	0.538088
	N272	N	0.168494	0.462923	0.914617
	N273	N	0.168113	0.534416	0.088150
	N274	N	0.809999	0.461897	0.087822
	N275	N	0.809535	0.534601	0.915008
	O276	O	0.675374	0.634105	0.464438
	H277	H	0.648081	0.637100	0.449303
	H278	H	0.686804	0.655822	0.469557
	O279	O	0.546845	0.465385	0.603357
	H280	H	0.540871	0.481879	0.610925
	H281	H	0.551925	0.473598	0.592759
	O282	O	0.674937	0.320266	0.464479
	H283	H	0.653606	0.317434	0.468825
	H284	H	0.695761	0.307500	0.462841
	O285	O	0.989366	1.186581	0.020138
	H286	H	0.987509	1.189237	0.025743
	H287	H	1.001646	1.195414	0.027845
	O288	O	0.541977	0.701937	0.654721
	H289	H	0.528128	0.707027	0.661093
	H290	H	0.549628	0.713879	0.652984
	O291	O	0.852185	0.163648	0.971335
	H292	H	0.868063	0.171278	0.961925
	H293	H	0.861102	0.155811	0.974303
	O294	O	0.824062	0.953787	1.008421
	H295	H	0.850407	0.953283	1.017450
	H296	H	0.825422	0.964875	1.013484
	O297	O	0.500355	0.460259	0.491689
	H298	H	0.485596	0.451340	0.521189
	H299	H	0.482858	0.456497	0.473079
	O300	O	0.687310	0.573043	0.700670
	H301	H	0.674201	0.593841	0.706707
	H302	H	0.693773	0.562254	0.725603
	O303	O	0.277563	0.296984	0.527566
	H304	H	0.282170	0.295047	0.565837
	H305	H	0.253346	0.278232	0.536889
	O306	O	0.602527	-0.372099	1.524257
	H307	H	0.594443	-0.363193	1.525996
	H308	H	0.605637	-0.380858	1.519845
	O309	O	0.938138	0.016445	0.152517
	H310	H	0.939004	0.026634	0.149288
	H311	H	0.943192	0.004567	0.149266
	O312	O	0.475569	0.340061	0.434413
	H313	H	0.453667	0.349493	0.446007
	H314	H	0.456589	0.328579	0.423964
	O315	O	-0.058881	-0.037542	1.204105
	H316	H	-0.065518	-0.049027	1.210923
	H317	H	-0.073153	-0.045483	1.194760
	O318	O	-0.167662	0.121240	-0.078321
	H319	H	-0.168447	0.137860	-0.102282
	H320	H	-0.161628	0.118229	-0.093064
	O321	O	1.130797	-0.011323	0.165063
	H322	H	1.132639	-0.019885	0.167014
	H323	H	1.134384	-0.005867	0.162175
	O324	O	0.977309	0.068755	0.892315
	H325	H	0.985009	0.069902	0.886876
	H326	H	0.982116	0.085504	0.903009
	O327	O	0.554023	0.374597	0.289465
	H328	H	0.580325	0.375570	0.291483
	H329	H	0.569245	0.368159	0.284273
	O330	O	0.005491	0.870045	0.987384
	H331	H	0.015268	0.867094	0.979549
	H332	H	-0.009746	0.862681	0.989594
	O333	O	0.115709	0.811535	0.026844
	H334	H	0.099722	0.801962	0.025254
	H335	H	0.110974	0.800893	0.016518
	O336	O	1.154415	1.198421	0.056265
	H337	H	1.152625	1.172242	0.062857
	H338	H	1.184727	1.229053	0.068443
	O339	O	-0.682977	0.683302	0.550550
	H340	H	-0.693512	0.690338	0.536006
	H341	H	-0.689858	0.668828	0.531046
	O342	O	0.685397	0.680076	0.569076
	H343	H	0.701131	0.683039	0.576161
	H344	H	0.674741	0.692055	0.577387
	O345	O	0.189441	-0.117287	0.857824
	H346	H	0.191340	-0.128441	0.846030
	H347	H	0.187363	-0.104657	0.872079
	O348	O	0.430564	0.309080	0.696494
	H349	H	0.439126	0.316636	0.701179
	H350	H	0.443282	0.301866	0.703128
	O351	O	1.423439	1.471906	-0.579043
	H352	H	1.442170	1.475533	-0.572791
	H353	H	1.425102	1.443668	-0.580087
	O354	O	0.936834	1.028796	0.810321
	H355	H	0.935964	1.041654	0.825298
	H356	H	0.941557	1.030642	0.815138
	O357	O	-0.035641	0.148572	0.187598
	H358	H	-0.036134	0.133739	0.192025
	H359	H	-0.052918	0.148197	0.185600
	O360	O	0.478845	0.521312	0.424153
	H361	H	0.473795	0.522415	0.415987
	H362	H	0.482358	0.509976	0.429638
	O363	O	1.289273	0.580757	0.390415
	H364	H	1.294511	0.584443	0.385284
	H365	H	1.288106	0.571616	0.389543
	O366	O	0.118011	-0.102287	0.808430
	H367	H	0.103062	-0.097651	0.803610
	H368	H	0.120572	-0.093960	0.797881
	O369	O	1.145213	0.918537	1.032535
	H370	H	1.147504	0.909766	1.029662
	H371	H	1.150591	0.903176	1.030187
	O372	O	0.591736	0.440895	0.643451
	H373	H	0.605322	0.436277	0.642796
	H374	H	0.599074	0.437079	0.625895
	O375	O	-0.025394	-0.084867	0.971704
	H376	H	-0.029546	-0.091027	0.966640
	H377	H	-0.030572	-0.075182	0.985760
	O378	O	-0.014507	-0.050062	-0.152569
	H379	H	-0.011814	-0.059457	-0.159381
	H380	H	-0.005373	-0.047644	-0.153919
	O381	O	0.003971	0.980831	-0.126228
	H382	H	0.012848	0.966790	-0.124034
	H383	H	0.000650	0.993873	-0.125829
	O384	O	-0.190111	0.956731	0.918021
	H385	H	-0.183874	0.962291	0.901213
	H386	H	-0.201325	0.957642	0.920283
	O387	O	0.339651	0.378609	0.414277
	H388	H	0.338241	0.366905	0.425121
	H389	H	0.340223	0.384099	0.402859
	O390	O	1.060432	0.975410	-0.026395
	H391	H	1.057443	0.973339	-0.027736
	H392	H	1.057173	0.974779	-0.026856
	O393	O	0.444336	0.697664	0.296491
	H394	H	0.446847	0.681649	0.310863
	H395	H	0.446020	0.710561	0.265576
	O396	O	1.182299	0.158121	0.195675
	H397	H	1.156892	0.144638	0.199656
	H398	H	1.190833	0.151220	0.191896
	O399	O	0.296975	0.512572	0.705325
	H400	H	0.296766	0.508828	0.693635
	H401	H	0.286667	0.509034	0.705972
	O402	O	0.852817	0.952342	0.084060
	H403	H	0.850563	0.949964	0.091471
	H404	H	0.843686	0.945001	0.097715
	O405	O	0.355239	0.539288	0.564174
	H406	H	0.344512	0.549307	0.547007
	H407	H	0.368136	0.537377	0.544000
	O408	O	0.416186	0.696981	0.334453
	H409	H	0.421506	0.679763	0.336694
	H410	H	0.416064	0.684957	0.319668
	O411	O	0.853613	0.827380	1.114847
	H412	H	0.870854	0.827517	1.111257
	H413	H	0.844589	0.845805	1.119082
	O414	O	0.644922	0.419916	0.474238
	H415	H	0.638966	0.404645	0.472994
	H416	H	0.657100	0.423100	0.469019
	O417	O	0.176460	1.048391	0.939784
	H418	H	0.174701	1.046657	0.930353
	H419	H	0.182647	1.042771	0.946071
	O420	O	-0.027623	1.101167	1.021933
	H421	H	-0.014245	1.106449	1.024359
	H422	H	-0.031664	1.092012	1.035760
	O423	O	0.436723	1.660917	0.413434
	H424	H	0.447566	1.654689	0.418879
	H425	H	0.433408	1.650477	0.407377
	O426	O	0.484269	0.540715	0.649988
	H427	H	0.459993	0.537576	0.659381
	H428	H	0.486055	0.553564	0.642143
	O429	O	0.653459	0.442445	0.394308
	H430	H	0.657607	0.462577	0.421617
	H431	H	0.677548	0.443787	0.378223
	O432	O	0.355177	0.315667	0.671018
	H433	H	0.380922	0.322340	0.684736
	H434	H	0.365521	0.334364	0.677398
	O435	O	-0.192231	-0.099557	0.156098
	H436	H	-0.196345	-0.094629	0.149823
	H437	H	-0.204676	-0.098817	0.145915
	O438	O	0.675190	0.310319	0.358820
	H439	H	0.671479	0.307311	0.374254
	H440	H	0.687368	0.341788	0.353850
	O441	O	0.323149	0.470199	0.329189
	H442	H	0.328610	0.479881	0.340604
	H443	H	0.315119	0.459370	0.315952
