data_Molecule from HDF5

_cell_length_a		16.306063
_cell_length_b		16.156511
_cell_length_c		16.357896
_cell_angle_alpha	90.140763
_cell_angle_beta	90.145835
_cell_angle_gamma	90.027866
_symmetry_space_group_name_H-M	'P 1'
_symmetry_Int_Tables_number		1

loop_
	_symmetry_equiv_pos_as_xyz
	x,y,z

loop_
	_atom_site_label
	_atom_site_type_symbol
	_atom_site_fract_x
	_atom_site_fract_y
	_atom_site_fract_z
	H0	H	0.384341	0.838292	0.713027
	H1	H	0.586036	0.166185	0.713624
	H2	H	0.584202	0.838764	0.280752
	H3	H	0.382629	0.165947	0.282615
	H4	H	0.699526	0.402151	0.833979
	H5	H	0.702791	0.605426	0.157590
	H6	H	0.267237	0.602792	0.833571
	H7	H	0.265556	0.400035	0.157618
	H8	H	0.819494	0.714103	0.398455
	H9	H	0.147020	0.716867	0.595746
	H10	H	0.820518	0.287241	0.591468
	H11	H	0.147421	0.286173	0.397711
	H12	H	0.822372	0.399067	0.711816
	H13	H	0.146845	0.603053	0.713934
	H14	H	0.821709	0.601454	0.279463
	H15	H	0.146227	0.398614	0.278520
	H16	H	0.385308	0.718184	0.833104
	H17	H	0.583158	0.717911	0.159366
	H18	H	0.581698	0.287703	0.834203
	H19	H	0.385767	0.288542	0.159485
	H20	H	0.695812	0.836395	0.399334
	H21	H	0.699984	0.165833	0.597676
	H22	H	0.269850	0.837529	0.596379
	H23	H	0.269109	0.165955	0.398736
	H24	H	0.883710	0.337646	0.208966
	H25	H	0.086508	0.664187	0.214321
	H26	H	0.083153	0.336570	0.781787
	H27	H	0.883713	0.663987	0.778546
	H28	H	0.202070	0.899058	0.334689
	H29	H	0.200308	0.101988	0.658885
	H30	H	0.766073	0.101501	0.334935
	H31	H	0.768463	0.900194	0.659592
	H32	H	0.320738	0.215344	0.900696
	H33	H	0.647536	0.218451	0.097369
	H34	H	0.321309	0.787389	0.095391
	H35	H	0.648254	0.788802	0.899551
	H36	H	0.322146	0.901281	0.213410
	H37	H	0.645302	0.105587	0.216478
	H38	H	0.322722	0.105951	0.778722
	H39	H	0.646971	0.901591	0.781288
	H40	H	0.884688	0.214476	0.333191
	H41	H	0.082716	0.216901	0.658962
	H42	H	0.081856	0.785380	0.332664
	H43	H	0.886528	0.786296	0.659653
	H44	H	0.198977	0.337276	0.895652
	H45	H	0.199927	0.665769	0.096877
	H46	H	0.769181	0.338424	0.093620
	H47	H	0.768869	0.665627	0.894337
	H48	H	0.390090	0.121655	0.596168
	H49	H	0.578813	0.884498	0.587262
	H50	H	0.571948	0.117647	0.407130
	H51	H	0.385943	0.883040	0.404220
	H52	H	0.578486	0.420287	0.109698
	H53	H	0.574270	0.598224	0.880668
	H54	H	0.396597	0.596589	0.109832
	H55	H	0.392355	0.403240	0.879388
	H56	H	0.098612	0.589209	0.404808
	H57	H	0.867986	0.590181	0.591227
	H58	H	0.101965	0.407746	0.590606
	H59	H	0.865907	0.399835	0.403756
	H60	H	0.099957	0.407892	0.586841
	H61	H	0.867707	0.595158	0.588151
	H62	H	0.100270	0.592726	0.401641
	H63	H	0.871348	0.413512	0.407252
	H64	H	0.387860	0.596754	0.113013
	H65	H	0.581060	0.594969	0.878796
	H66	H	0.570737	0.408111	0.111204
	H67	H	0.384494	0.412120	0.879365
	H68	H	0.578130	0.118372	0.410272
	H69	H	0.576329	0.883883	0.594568
	H70	H	0.398724	0.117493	0.589733
	H71	H	0.396571	0.884132	0.398887
	H72	H	0.893040	0.619617	0.084922
	H73	H	0.078709	0.384986	0.084690
	H74	H	0.073013	0.618357	0.900799
	H75	H	0.894607	0.384436	0.901732
	H76	H	0.081202	0.911908	0.611940
	H77	H	0.068405	0.092569	0.383284
	H78	H	0.891656	0.092868	0.612205
	H79	H	0.883724	0.911781	0.380626
	H80	H	0.602975	0.099007	0.904632
	H81	H	0.367541	0.102667	0.084316
	H82	H	0.598807	0.910163	0.084407
	H83	H	0.367332	0.911132	0.901410
	H84	H	0.599646	0.917850	0.093316
	H85	H	0.372132	0.085782	0.087457
	H86	H	0.599265	0.092324	0.907832
	H87	H	0.369010	0.909119	0.906697
	H88	H	0.893006	0.092490	0.611820
	H89	H	0.081712	0.101018	0.377153
	H90	H	0.074092	0.910782	0.609450
	H91	H	0.894307	0.910260	0.383299
	H92	H	0.073488	0.616702	0.908227
	H93	H	0.075340	0.383770	0.090870
	H94	H	0.891168	0.620926	0.090057
	H95	H	0.891420	0.384665	0.907442
	H96	H	0.387863	0.119464	0.585017
	H97	H	0.571827	0.886701	0.589187
	H98	H	0.576563	0.120810	0.403657
	H99	H	0.395292	0.886761	0.410589
	H100	H	0.584531	0.408295	0.115336
	H101	H	0.575869	0.591452	0.882352
	H102	H	0.391404	0.588838	0.109650
	H103	H	0.395937	0.413795	0.883176
	H104	H	0.099549	0.593452	0.406666
	H105	H	0.869875	0.590113	0.585644
	H106	H	0.100000	0.411153	0.589529
	H107	H	0.866045	0.410502	0.393312
	H108	H	0.896380	0.618590	0.089227
	H109	H	0.072365	0.386594	0.085268
	H110	H	0.079571	0.620328	0.903656
	H111	H	0.888098	0.382593	0.902493
	H112	H	0.077428	0.906303	0.612872
	H113	H	0.082879	0.084366	0.380812
	H114	H	0.892008	0.094531	0.612291
	H115	H	0.888235	0.901416	0.378580
	H116	H	0.601076	0.092404	0.899902
	H117	H	0.364935	0.095789	0.100114
	H118	H	0.602834	0.906526	0.094246
	H119	H	0.370060	0.915185	0.904987
	C120	C	0.363101	0.010749	0.619088
	C121	C	0.605593	0.993617	0.619351
	C122	C	0.604621	0.010383	0.376909
	C123	C	0.363232	0.993392	0.376015
	C124	C	0.606040	0.382085	0.004821
	C125	C	0.606741	0.624807	0.987593
	C126	C	0.362513	0.623887	0.003906
	C127	C	0.361843	0.380364	0.987876
	C128	C	-0.008060	0.621480	0.374991
	C129	C	0.975863	0.622239	0.618022
	C130	C	-0.006898	0.378899	0.617175
	C131	C	0.975559	0.378609	0.372810
	C132	C	0.863442	0.511099	0.116676
	C133	C	0.105656	0.493056	0.117178
	C134	C	0.104557	0.509789	0.874973
	C135	C	0.862444	0.492469	0.874057
	C136	C	0.106112	0.879282	0.504273
	C137	C	0.106055	0.122541	0.487915
	C138	C	0.862593	0.122227	0.504749
	C139	C	0.860869	0.878563	0.488386
	C140	C	0.493192	0.123930	0.875386
	C141	C	0.475579	0.125004	0.120086
	C142	C	0.492850	0.881552	0.119169
	C143	C	0.476153	0.881800	0.875640
	C144	C	0.364711	0.887222	0.674593
	C145	C	0.604638	0.117277	0.674944
	C146	C	0.603248	0.887382	0.319861
	C147	C	0.363526	0.116958	0.320686
	C148	C	0.661216	0.382715	0.882538
	C149	C	0.663924	0.624540	0.109471
	C150	C	0.305846	0.622785	0.882000
	C151	C	0.305152	0.381329	0.109422
	C152	C	0.868867	0.676845	0.377375
	C153	C	0.098273	0.678772	0.616315
	C154	C	0.869700	0.324218	0.613461
	C155	C	0.098392	0.323609	0.376527
	C156	C	0.870690	0.379829	0.673059
	C157	C	0.098157	0.621975	0.674841
	C158	C	0.869875	0.620787	0.318295
	C159	C	0.097816	0.379861	0.317294
	C160	C	0.364552	0.680219	0.881826
	C161	C	0.604068	0.680191	0.110420
	C162	C	0.602894	0.325686	0.882669
	C163	C	0.364420	0.325467	0.110454
	C164	C	0.659378	0.886272	0.378543
	C165	C	0.661571	0.117017	0.617573
	C166	C	0.307504	0.887018	0.616882
	C167	C	0.307155	0.116913	0.378304
	C168	C	0.864366	0.387061	0.171437
	C169	C	0.105378	0.615753	0.175042
	C170	C	0.103363	0.386000	0.819243
	C171	C	0.863801	0.615360	0.817016
	C172	C	0.162617	0.879782	0.382512
	C173	C	0.161882	0.121926	0.610350
	C174	C	0.805333	0.120775	0.382998
	C175	C	0.806629	0.880565	0.611084
	C176	C	0.369864	0.178504	0.879092
	C177	C	0.598362	0.180786	0.117924
	C178	C	0.370146	0.825461	0.116096
	C179	C	0.599354	0.826407	0.878644
	C180	C	0.370565	0.881960	0.175078
	C181	C	0.597163	0.125045	0.177621
	C182	C	0.370767	0.123655	0.818724
	C183	C	0.598699	0.882373	0.819799
	C184	C	0.864217	0.177157	0.382190
	C185	C	0.103500	0.178943	0.610241
	C186	C	0.103100	0.823129	0.381810
	C187	C	0.865183	0.823689	0.610976
	C188	C	0.160761	0.386345	0.876070
	C189	C	0.161627	0.616599	0.116537
	C190	C	0.807146	0.387481	0.114410
	C191	C	0.807037	0.616351	0.874903
	C192	C	0.385579	0.097086	0.596902
	C193	C	0.582459	0.907381	0.596877
	C194	C	0.582154	0.096602	0.400220
	C195	C	0.386076	0.906980	0.398072
	C196	C	0.584231	0.405345	0.089883
	C197	C	0.583944	0.601400	0.902698
	C198	C	0.385339	0.600874	0.088869
	C199	C	0.384504	0.403088	0.902704
	C200	C	0.077398	0.598450	0.397704
	C201	C	0.890668	0.598857	0.595106
	C202	C	0.078600	0.402030	0.595387
	C203	C	0.889938	0.401216	0.394847
	C204	C	0.886760	0.597294	0.094469
	C205	C	0.082486	0.407303	0.093792
	C206	C	0.081947	0.596077	0.897584
	C207	C	0.884663	0.406162	0.897002
	C208	C	0.083924	0.902767	0.589398
	C209	C	0.083970	0.099441	0.402577
	C210	C	0.885544	0.099586	0.590035
	C211	C	0.882440	0.901181	0.402926
	C212	C	0.578868	0.101445	0.897656
	C213	C	0.390304	0.101533	0.097272
	C214	C	0.578410	0.904848	0.097235
	C215	C	0.391111	0.905052	0.897651
	Zn216	Zn	0.484622	0.002498	0.747023
	Zn217	Zn	0.483664	0.003107	0.248367
	Zn218	Zn	0.735594	0.502984	-0.004004
	Zn219	Zn	0.233153	0.501770	-0.004789
	Zn220	Zn	-0.016790	0.750499	0.496125
	Zn221	Zn	-0.016013	0.250860	0.495677
	Zn222	Zn	-0.015287	0.500608	0.746719
	Zn223	Zn	-0.015914	0.501367	0.245084
	Zn224	Zn	0.484627	0.753366	-0.003318
	Zn225	Zn	0.484211	0.252665	-0.002585
	Zn226	Zn	0.733308	0.001323	0.497774
	Zn227	Zn	0.235535	0.001627	0.496644
	N228	N	0.398386	0.965343	0.676210
	N229	N	0.570402	0.039441	0.676135
	N230	N	0.569954	0.965601	0.318793
	N231	N	0.397712	0.039053	0.319157
	N232	N	0.663389	0.416987	0.959651
	N233	N	0.665564	0.590664	0.032245
	N234	N	0.304345	0.588589	0.958827
	N235	N	0.303427	0.414744	0.032134
	N236	N	0.945826	0.677366	0.411975
	N237	N	0.021275	0.679172	0.581934
	N238	N	0.946660	0.323688	0.579428
	N239	N	0.021340	0.322725	0.410233
	N240	N	0.948424	0.413163	0.675645
	N241	N	0.020929	0.587459	0.676243
	N242	N	0.947453	0.587212	0.316675
	N243	N	0.020170	0.413147	0.314705
	N244	N	0.399168	0.680973	0.958687
	N245	N	0.569387	0.680757	0.033715
	N246	N	0.569021	0.325219	0.959533
	N247	N	0.399134	0.324868	0.033948
	N248	N	0.660195	0.963795	0.413536
	N249	N	0.662214	0.039087	0.583602
	N250	N	0.306537	0.964884	0.582967
	N251	N	0.306738	0.039049	0.411922
	N252	N	0.898531	0.465023	0.173062
	N253	N	0.071231	0.537941	0.175565
	N254	N	0.069313	0.463875	0.818359
	N255	N	0.897550	0.537395	0.816448
	N256	N	0.164673	0.913932	0.459621
	N257	N	0.163830	0.087674	0.533280
	N258	N	0.804274	0.087369	0.460277
	N259	N	0.803736	0.913904	0.533774
	N260	N	0.446764	0.178617	0.913709
	N261	N	0.521740	0.180776	0.082677
	N262	N	0.447237	0.825218	0.081967
	N263	N	0.522341	0.825808	0.912647
	N264	N	0.447819	0.916269	0.176770
	N265	N	0.519890	0.091023	0.178852
	N266	N	0.448456	0.090437	0.816295
	N267	N	0.521277	0.916174	0.817846
	N268	N	0.899246	0.178170	0.458668
	N269	N	0.069439	0.179227	0.533166
	N270	N	0.068793	0.822659	0.458549
	N271	N	0.898200	0.822410	0.533733
	N272	N	0.161696	0.464388	0.909904
	N273	N	0.162016	0.539335	0.081152
	N274	N	0.806551	0.465535	0.081002
	N275	N	0.806228	0.538913	0.909708
	O276	O	0.039160	0.080479	-0.019119
	H277	H	0.034469	0.077812	-0.025530
	H278	H	0.041053	0.081728	-0.012024
	O279	O	1.015090	0.999075	0.033496
	H280	H	1.020946	0.991736	0.036212
	H281	H	1.023106	0.991589	0.036048
	O282	O	0.572249	0.585038	0.410115
	H283	H	0.576255	0.582204	0.408514
	H284	H	0.575994	0.577218	0.416844
	O285	O	0.007321	0.972141	0.951371
	H286	H	0.003269	0.972894	0.946519
	H287	H	0.009488	0.971207	0.947766
	O288	O	0.420978	0.439188	0.498269
	H289	H	0.424846	0.427991	0.505713
	H290	H	0.420683	0.438952	0.496277
	O291	O	0.992293	1.008531	1.003970
	H292	H	0.993544	1.007476	1.001251
	H293	H	0.992736	1.009278	0.995417
	O294	O	0.949635	0.954935	1.066718
	H295	H	0.962348	0.961631	1.067573
	H296	H	0.944104	0.953265	1.063925
	O297	O	0.984994	0.033621	0.977591
	H298	H	0.983918	0.040916	0.977510
	H299	H	0.985552	0.038600	0.980598
	O300	O	0.443573	0.498376	0.444368
	H301	H	0.442473	0.501490	0.449588
	H302	H	0.449980	0.486726	0.449596
	O303	O	0.993084	0.077466	0.039764
	H304	H	0.996419	0.079600	0.037662
	H305	H	0.986532	0.083362	0.037167
	O306	O	0.038314	0.939828	1.011231
	H307	H	0.024624	0.942101	1.011655
	H308	H	0.037053	0.939902	1.008456
	O309	O	0.436414	0.534164	0.572580
	H310	H	0.433684	0.540909	0.569739
	H311	H	0.444216	0.540807	0.581169
	O312	O	0.934976	-0.078302	1.007697
	H313	H	0.925410	-0.084264	1.020857
	H314	H	0.938151	-0.079289	1.003776
	O315	O	0.444421	0.423372	0.398196
	H316	H	0.441539	0.420378	0.411810
	H317	H	0.450840	0.423172	0.395875
	O318	O	0.563108	0.516575	0.405510
	H319	H	0.562471	0.511894	0.401425
	H320	H	0.560643	0.509985	0.408131
	O321	O	1.043965	1.023437	0.976420
	H322	H	1.038928	1.016379	0.973968
	H323	H	1.033426	1.025129	0.983575
	O324	O	1.058921	0.918016	1.005798
	H325	H	1.055608	0.912534	0.995972
	H326	H	1.067525	0.920198	0.996509
	O327	O	0.424950	0.565076	0.466435
	H328	H	0.417240	0.568824	0.456034
	H329	H	0.418097	0.558974	0.464255
	O330	O	0.993670	-0.012846	1.074086
	H331	H	0.985994	-0.007239	1.083374
	H332	H	1.007944	-0.008904	1.072428
	O333	O	0.951226	0.979919	0.010913
	H334	H	0.958227	0.980701	0.026390
	H335	H	0.956033	0.981388	0.012566
	O336	O	0.442636	0.582867	0.478232
	H337	H	0.429907	0.586858	0.468738
	H338	H	0.444479	0.578366	0.475884
	O339	O	0.556317	0.564508	0.494479
	H340	H	0.541876	0.571543	0.494022
	H341	H	0.549475	0.563532	0.497911
	O342	O	0.064719	1.020741	-0.007555
	H343	H	0.075088	1.019236	-0.006606
	H344	H	0.062558	1.015198	-0.009258
	O345	O	0.029673	-0.029948	-0.092897
	H346	H	0.030091	-0.026732	-0.096346
	H347	H	0.030116	-0.024117	-0.097775
	O348	O	0.500964	0.445423	0.419532
	H349	H	0.507477	0.449408	0.420622
	H350	H	0.492228	0.452593	0.420949
	O351	O	0.474788	0.508396	0.535582
	H352	H	0.487974	0.505782	0.538089
	H353	H	0.485432	0.518045	0.533543
	O354	O	0.418323	0.524807	0.491370
	H355	H	0.417958	0.527523	0.489791
	H356	H	0.418160	0.531744	0.472830
	O357	O	0.587297	0.476587	0.557458
	H358	H	0.593875	0.476038	0.554636
	H359	H	0.592995	0.488949	0.558294
	O360	O	0.475687	-0.512808	0.484923
	H361	H	0.478542	-0.509125	0.487677
	H362	H	0.476294	-0.513085	0.477417
	O363	O	0.588411	0.495120	0.550618
	H364	H	0.578852	0.500550	0.551353
	H365	H	0.582135	0.496438	0.549482
	O366	O	0.416278	-0.546554	0.600107
	H367	H	0.417511	-0.548861	0.606029
	H368	H	0.423283	-0.545462	0.602616
	O369	O	0.512644	0.570213	0.546852
	H370	H	0.506845	0.577547	0.539877
	H371	H	0.515040	0.571774	0.546775
