data_Molecule from HDF5

_cell_length_a		16.493797
_cell_length_b		16.321145
_cell_length_c		16.364598
_cell_angle_alpha	90.120737
_cell_angle_beta	90.048476
_cell_angle_gamma	89.963646
_symmetry_space_group_name_H-M	'P 1'
_symmetry_Int_Tables_number		1

loop_
	_symmetry_equiv_pos_as_xyz
	x,y,z

loop_
	_atom_site_label
	_atom_site_type_symbol
	_atom_site_fract_x
	_atom_site_fract_y
	_atom_site_fract_z
	H0	H	0.397812	0.823211	0.719466
	H1	H	0.603552	0.145200	0.719950
	H2	H	0.600485	0.823429	0.281697
	H3	H	0.398933	0.146125	0.284969
	H4	H	0.719858	0.378008	0.843284
	H5	H	0.714793	0.587605	0.163047
	H6	H	0.276463	0.587818	0.841142
	H7	H	0.279438	0.381990	0.162291
	H8	H	0.836887	0.701350	0.402042
	H9	H	0.158222	0.702124	0.604711
	H10	H	0.839366	0.262102	0.606354
	H11	H	0.156694	0.264421	0.398146
	H12	H	0.839105	0.378990	0.722603
	H13	H	0.156292	0.588483	0.723935
	H14	H	0.836151	0.583250	0.286294
	H15	H	0.157005	0.382970	0.284559
	H16	H	0.396945	0.700340	0.838729
	H17	H	0.597770	0.702234	0.161687
	H18	H	0.598059	0.268678	0.839459
	H19	H	0.396723	0.267964	0.162084
	H20	H	0.718742	0.823459	0.395735
	H21	H	0.719244	0.144710	0.604538
	H22	H	0.279476	0.823849	0.605999
	H23	H	0.279158	0.143627	0.396560
	H24	H	0.894161	0.322418	0.221360
	H25	H	0.095866	0.645093	0.219349
	H26	H	0.102079	0.324756	0.781123
	H27	H	0.890530	0.643917	0.781138
	H28	H	0.217649	0.878160	0.341946
	H29	H	0.223531	0.092881	0.660232
	H30	H	0.779094	0.088833	0.342123
	H31	H	0.774833	0.876593	0.660131
	H32	H	0.338547	0.205341	0.894691
	H33	H	0.657461	0.205139	0.102980
	H34	H	0.340178	0.763821	0.106165
	H35	H	0.657321	0.762440	0.895676
	H36	H	0.341130	0.879994	0.221961
	H37	H	0.657548	0.090191	0.221528
	H38	H	0.340820	0.089353	0.778216
	H39	H	0.657763	0.879284	0.779872
	H40	H	0.894557	0.204453	0.343004
	H41	H	0.104441	0.205896	0.660952
	H42	H	0.097282	0.767088	0.340542
	H43	H	0.894465	0.765358	0.662653
	H44	H	0.220540	0.325566	0.893775
	H45	H	0.216756	0.644024	0.108083
	H46	H	0.775452	0.324082	0.108139
	H47	H	0.776193	0.644453	0.898800
	H48	H	0.416860	0.099087	0.595235
	H49	H	0.588584	0.870757	0.589513
	H50	H	0.589586	0.096448	0.419109
	H51	H	0.406679	0.868521	0.410484
	H52	H	0.585814	0.395702	0.115800
	H53	H	0.585495	0.582760	0.884466
	H54	H	0.405729	0.576778	0.115946
	H55	H	0.407721	0.392927	0.886736
	H56	H	0.112827	0.579866	0.410791
	H57	H	0.889146	0.572591	0.580879
	H58	H	0.106665	0.399634	0.584315
	H59	H	0.886039	0.396033	0.416715
	H60	H	0.111057	0.400924	0.599061
	H61	H	0.885448	0.564232	0.598936
	H62	H	0.109496	0.573628	0.411833
	H63	H	0.883612	0.395971	0.408502
	H64	H	0.404873	0.573256	0.115129
	H65	H	0.598180	0.570500	0.885187
	H66	H	0.587459	0.395237	0.115714
	H67	H	0.402605	0.397489	0.886506
	H68	H	0.598397	0.102548	0.408764
	H69	H	0.589080	0.870467	0.589563
	H70	H	0.413835	0.093437	0.580323
	H71	H	0.409054	0.868702	0.408748
	H72	H	0.910247	0.599571	0.101204
	H73	H	0.090490	0.368487	0.091753
	H74	H	0.082325	0.598466	0.909520
	H75	H	0.904139	0.368948	0.910612
	H76	H	0.086457	0.901199	0.613098
	H77	H	0.087929	0.071720	0.389647
	H78	H	0.905845	0.068837	0.614394
	H79	H	0.910160	0.893928	0.388719
	H80	H	0.611370	0.072447	0.906939
	H81	H	0.384400	0.074374	0.096807
	H82	H	0.612172	0.897715	0.092212
	H83	H	0.386679	0.896725	0.911034
	H84	H	0.612994	0.891428	0.090746
	H85	H	0.383590	0.080527	0.091003
	H86	H	0.613115	0.081717	0.910750
	H87	H	0.385770	0.895882	0.907842
	H88	H	0.913647	0.069802	0.613854
	H89	H	0.088751	0.074368	0.388467
	H90	H	0.086728	0.887650	0.617148
	H91	H	0.907530	0.891084	0.387349
	H92	H	0.083047	0.594600	0.919434
	H93	H	0.087581	0.368886	0.094186
	H94	H	0.909847	0.594432	0.085631
	H95	H	0.913180	0.371969	0.912108
	H96	H	0.402135	0.100166	0.588748
	H97	H	0.589138	0.870697	0.589984
	H98	H	0.584733	0.099171	0.405403
	H99	H	0.409416	0.869786	0.411843
	H100	H	0.587083	0.396843	0.115083
	H101	H	0.582197	0.566327	0.891555
	H102	H	0.408237	0.574952	0.114422
	H103	H	0.408441	0.399554	0.888209
	H104	H	0.113125	0.574756	0.405790
	H105	H	0.880888	0.584109	0.594806
	H106	H	0.113405	0.387120	0.591069
	H107	H	0.882352	0.388978	0.412936
	H108	H	0.896862	0.600528	0.092426
	H109	H	0.087225	0.370176	0.090523
	H110	H	0.091454	0.599460	0.915080
	H111	H	0.906750	0.372164	0.919361
	H112	H	0.097796	0.895688	0.618588
	H113	H	0.090395	0.071770	0.388540
	H114	H	0.909231	0.075422	0.616525
	H115	H	0.906063	0.894222	0.387988
	H116	H	0.608474	0.074752	0.916315
	H117	H	0.386902	0.072862	0.088690
	H118	H	0.610118	0.895518	0.086563
	H119	H	0.385898	0.892974	0.910200
	C120	C	0.378496	-0.007772	0.621474
	C121	C	0.621093	0.976179	0.621822
	C122	C	0.621220	-0.007174	0.379424
	C123	C	0.377837	0.975250	0.379489
	C124	C	0.618172	0.364000	0.009884
	C125	C	0.618878	0.605037	0.993152
	C126	C	0.375047	0.606425	0.009383
	C127	C	0.375469	0.363996	0.992646
	C128	C	0.005648	0.605795	0.380212
	C129	C	0.989768	0.605727	0.624167
	C130	C	0.005991	0.362949	0.623537
	C131	C	0.988984	0.362426	0.380963
	C132	C	0.874882	0.491743	0.124210
	C133	C	0.118585	0.475509	0.123628
	C134	C	0.117829	0.492349	0.881759
	C135	C	0.875356	0.476139	0.881190
	C136	C	0.120106	0.862897	0.510394
	C137	C	0.121386	0.105758	0.493728
	C138	C	0.878288	0.103761	0.509719
	C139	C	0.876239	0.861692	0.493519
	C140	C	0.506131	0.107060	0.878959
	C141	C	0.489999	0.107681	0.123062
	C142	C	0.506962	0.863511	0.121643
	C143	C	0.491017	0.862954	0.878623
	C144	C	0.378420	0.871484	0.680294
	C145	C	0.622348	0.096835	0.680974
	C146	C	0.620593	0.871595	0.320637
	C147	C	0.378478	0.097098	0.322698
	C148	C	0.678831	0.360776	0.890403
	C149	C	0.676110	0.606299	0.114374
	C150	C	0.316343	0.606967	0.888816
	C151	C	0.317919	0.362766	0.113832
	C152	C	0.884831	0.662576	0.381885
	C153	C	0.109993	0.663763	0.624769
	C154	C	0.886744	0.302431	0.624877
	C155	C	0.108893	0.303881	0.379377
	C156	C	0.886505	0.360604	0.682716
	C157	C	0.108884	0.607155	0.684060
	C158	C	0.884478	0.604070	0.324097
	C159	C	0.109086	0.362729	0.322818
	C160	C	0.376083	0.662908	0.887785
	C161	C	0.617870	0.663280	0.114080
	C162	C	0.618272	0.306518	0.888217
	C163	C	0.376200	0.305796	0.113513
	C164	C	0.679063	0.871686	0.377651
	C165	C	0.679852	0.096588	0.623306
	C166	C	0.319542	0.871696	0.623688
	C167	C	0.318986	0.095962	0.378408
	C168	C	0.874607	0.370953	0.182635
	C169	C	0.116734	0.596760	0.181201
	C170	C	0.120403	0.372441	0.820834
	C171	C	0.872825	0.596235	0.821110
	C172	C	0.177831	0.860785	0.389767
	C173	C	0.182567	0.109640	0.612559
	C174	C	0.818919	0.106648	0.389830
	C175	C	0.815711	0.859280	0.612678
	C176	C	0.386535	0.165724	0.876831
	C177	C	0.609827	0.166247	0.122824
	C178	C	0.387894	0.804143	0.123969
	C179	C	0.610065	0.802769	0.877183
	C180	C	0.388321	0.861695	0.182102
	C181	C	0.609941	0.108747	0.181481
	C182	C	0.387622	0.107979	0.818524
	C183	C	0.610393	0.860949	0.819479
	C184	C	0.876544	0.164013	0.390157
	C185	C	0.123668	0.166534	0.613013
	C186	C	0.118189	0.805158	0.389181
	C187	C	0.875161	0.803524	0.614153
	C188	C	0.179072	0.372839	0.877488
	C189	C	0.176983	0.596019	0.125823
	C190	C	0.815542	0.371726	0.126192
	C191	C	0.815620	0.596196	0.879501
	C192	C	0.403637	0.075775	0.595773
	C193	C	0.596278	0.892361	0.596923
	C194	C	0.597694	0.077249	0.403962
	C195	C	0.401620	0.890910	0.403368
	C196	C	0.593949	0.388679	0.093604
	C197	C	0.595418	0.580364	0.908869
	C198	C	0.399051	0.582186	0.093243
	C199	C	0.399296	0.389278	0.909080
	C200	C	0.089829	0.582923	0.402666
	C201	C	0.906664	0.580953	0.598848
	C202	C	0.088697	0.388413	0.598801
	C203	C	0.905710	0.386402	0.405468
	C204	C	0.898830	0.576283	0.099864
	C205	C	0.095086	0.391033	0.099045
	C206	C	0.092770	0.575721	0.907470
	C207	C	0.900814	0.392764	0.906516
	C208	C	0.097027	0.887697	0.594369
	C209	C	0.096102	0.079924	0.410382
	C210	C	0.902651	0.078598	0.593027
	C211	C	0.900848	0.886103	0.409600
	C212	C	0.589441	0.082956	0.904152
	C213	C	0.406588	0.083083	0.099230
	C214	C	0.590066	0.888027	0.097006
	C215	C	0.407881	0.887952	0.902793
	Zn216	Zn	0.499838	-0.015284	0.749745
	Zn217	Zn	0.499497	-0.015355	0.251204
	Zn218	Zn	0.747018	0.483657	0.002591
	Zn219	Zn	0.246741	0.484927	0.002029
	Zn220	Zn	-0.001610	0.734721	0.502862
	Zn221	Zn	-0.001481	0.233541	0.502164
	Zn222	Zn	-0.002876	0.484067	0.753033
	Zn223	Zn	-0.003117	0.483158	0.251912
	Zn224	Zn	0.498092	0.733878	0.000539
	Zn225	Zn	0.497166	0.236021	0.000479
	Zn226	Zn	0.749140	-0.015884	0.500645
	Zn227	Zn	0.249765	-0.016519	0.501061
	N228	N	0.414193	0.947552	0.679075
	N229	N	0.586514	0.020745	0.680255
	N230	N	0.585522	0.948021	0.321437
	N231	N	0.414205	0.021010	0.323120
	N232	N	0.678872	0.395693	0.966909
	N233	N	0.677022	0.570981	0.037962
	N234	N	0.315417	0.572959	0.965550
	N235	N	0.317032	0.397976	0.037567
	N236	N	0.961018	0.663924	0.416024
	N237	N	0.034800	0.663224	0.588434
	N238	N	0.962187	0.303570	0.588951
	N239	N	0.033236	0.303395	0.414522
	N240	N	0.961499	0.397150	0.682183
	N241	N	0.033166	0.572031	0.683729
	N242	N	0.960605	0.569604	0.322793
	N243	N	0.033459	0.398132	0.323335
	N244	N	0.411725	0.662884	0.963682
	N245	N	0.582971	0.662463	0.037802
	N246	N	0.581209	0.308237	0.963496
	N247	N	0.411107	0.306257	0.037253
	N248	N	0.679724	0.948130	0.413042
	N249	N	0.679018	0.020536	0.587259
	N250	N	0.319404	0.947892	0.588060
	N251	N	0.318394	0.019189	0.412905
	N252	N	0.910661	0.446854	0.181613
	N253	N	0.081128	0.520761	0.179864
	N254	N	0.082747	0.447445	0.823688
	N255	N	0.909373	0.520452	0.822047
	N256	N	0.179309	0.895998	0.466154
	N257	N	0.181262	0.072431	0.537170
	N258	N	0.820015	0.069733	0.465090
	N259	N	0.816317	0.894674	0.536559
	N260	N	0.461424	0.165217	0.913657
	N261	N	0.534317	0.165450	0.086967
	N262	N	0.462582	0.805227	0.086990
	N263	N	0.534681	0.803653	0.913081
	N264	N	0.463387	0.898182	0.180689
	N265	N	0.534545	0.073079	0.181777
	N266	N	0.462923	0.072060	0.819866
	N267	N	0.535526	0.897662	0.820231
	N268	N	0.913020	0.162269	0.465587
	N269	N	0.086154	0.164027	0.538142
	N270	N	0.082884	0.806272	0.465279
	N271	N	0.912279	0.805007	0.538994
	N272	N	0.177646	0.448423	0.914749
	N273	N	0.178155	0.519567	0.090826
	N274	N	0.815765	0.448034	0.090638
	N275	N	0.817024	0.520578	0.916094
	O276	O	0.360684	0.486351	0.412609
	H277	H	0.365906	0.486805	0.411999
	H278	H	0.349583	0.470413	0.415624
	O279	O	0.603165	0.447380	0.508992
	H280	H	0.603569	0.451579	0.496282
	H281	H	0.613136	0.438021	0.507398
	O282	O	0.459125	0.605492	0.530970
	H283	H	0.448275	0.611191	0.532422
	H284	H	0.463910	0.610070	0.527531
	O285	O	1.207367	-0.014409	0.145228
	H286	H	1.207815	-0.033258	0.156041
	H287	H	1.215063	-0.028877	0.151072
	O288	O	0.621590	0.370968	0.374929
	H289	H	0.636338	0.369052	0.368718
	H290	H	0.618754	0.383611	0.367545
	O291	O	0.317611	0.651573	0.357442
	H292	H	0.314715	0.634516	0.351931
	H293	H	0.306428	0.664223	0.346893
	O294	O	0.354131	0.361743	0.620867
	H295	H	0.367574	0.357669	0.618507
	H296	H	0.360129	0.352266	0.620879
	O297	O	0.814189	0.831207	1.161694
	H298	H	0.829545	0.829208	1.162857
	H299	H	0.820231	0.810236	1.167393
	O300	O	-0.495106	0.573214	-0.410716
	H301	H	-0.509819	0.579174	-0.420679
	H302	H	-0.494490	0.578782	-0.407906
	O303	O	0.657107	0.586828	0.672163
	H304	H	0.639841	0.581024	0.684455
	H305	H	0.658130	0.584051	0.666782
	O306	O	0.933565	-0.051428	-0.174211
	H307	H	0.937055	-0.056465	-0.166133
	H308	H	0.927005	-0.070455	-0.170298
	O309	O	0.452295	0.391842	0.603538
	H310	H	0.448569	0.392754	0.591641
	H311	H	0.455226	0.405498	0.597903
	O312	O	0.818259	1.178170	-0.006506
	H313	H	0.825849	1.190498	0.007180
	H314	H	0.825341	1.172623	-0.000974
	O315	O	1.190181	1.177242	0.194993
	H316	H	1.166286	1.166372	0.199547
	H317	H	1.189902	1.165791	0.176268
	O318	O	0.631364	0.330857	0.384311
	H319	H	0.636991	0.341036	0.378557
	H320	H	0.630232	0.343636	0.380303
	O321	O	0.933591	-0.220498	1.062751
	H322	H	0.927593	-0.212648	1.060139
	H323	H	0.950691	-0.233840	1.087961
	O324	O	-0.160773	-0.131593	1.018894
	H325	H	-0.166586	-0.124558	1.021905
	H326	H	-0.160166	-0.133779	1.022963
	O327	O	0.412832	0.426317	0.435924
	H328	H	0.435995	0.424747	0.440845
	H329	H	0.412224	0.416168	0.433124
	O330	O	0.442416	0.560995	0.463819
	H331	H	0.430640	0.561205	0.453626
	H332	H	0.430383	0.564539	0.455578
	O333	O	1.025168	1.049238	0.863975
	H334	H	1.016974	1.063916	0.870902
	H335	H	1.010283	1.044234	0.868431
	O336	O	0.467417	0.364456	0.577175
	H337	H	0.477724	0.354441	0.576918
	H338	H	0.452303	0.354286	0.579090
	O339	O	0.995952	0.157476	0.815606
	H340	H	0.972827	0.150346	0.819315
	H341	H	0.994733	0.164986	0.795586
	O342	O	-0.182314	0.972827	0.986537
	H343	H	-0.178661	0.975700	0.987631
	H344	H	-0.189719	0.967610	0.978905
	O345	O	0.033657	0.941563	0.908086
	H346	H	0.029431	0.942744	0.907101
	H347	H	0.037410	0.937311	0.903484
	O348	O	0.522902	0.444388	0.547961
	H349	H	0.527454	0.452374	0.554544
	H350	H	0.523605	0.439652	0.546929
	O351	O	0.014843	0.136297	0.029695
	H352	H	0.009271	0.145872	0.017549
	H353	H	0.023658	0.143656	0.026567
	O354	O	0.816653	0.902748	0.201839
	H355	H	0.814850	0.886797	0.211014
	H356	H	0.816216	0.883953	0.204407
	O357	O	0.019373	0.783192	-0.206688
	H358	H	0.022652	0.766307	-0.225382
	H359	H	-0.001831	0.780159	-0.195328
	O360	O	0.487156	0.542402	0.620057
	H361	H	0.493554	0.532438	0.616948
	H362	H	0.489652	0.535519	0.621656
	O363	O	0.483116	0.561735	0.416985
	H364	H	0.485078	0.571884	0.425140
	H365	H	0.480167	0.554976	0.409832
	O366	O	0.659241	0.465341	0.631068
	H367	H	0.667548	0.468373	0.625434
	H368	H	0.664885	0.458877	0.651030
	O369	O	0.113306	1.187111	-0.053490
	H370	H	0.131285	1.197295	-0.050974
	H371	H	0.129552	1.175376	-0.064551
	O372	O	0.537300	0.600615	0.625088
	H373	H	0.539536	0.592923	0.631779
	H374	H	0.545090	0.614873	0.619107
	O375	O	0.526668	0.355013	0.423633
	H376	H	0.528483	0.342991	0.416490
	H377	H	0.518133	0.360160	0.423188
	O378	O	0.191004	0.862752	0.113095
	H379	H	0.178003	0.850934	0.104303
	H380	H	0.195453	0.870884	0.097601
	O381	O	0.563488	0.449584	0.384838
	H382	H	0.552942	0.452778	0.384440
	H383	H	0.568974	0.459306	0.388029
	O384	O	0.453662	0.360711	0.365690
	H385	H	0.463256	0.343025	0.373606
	H386	H	0.460878	0.372921	0.360222
	O387	O	1.218792	0.765759	-0.022604
	H388	H	1.230003	0.752871	-0.049753
	H389	H	1.230315	0.754830	-0.053652
	O390	O	0.429630	0.624407	0.543033
	H391	H	0.413637	0.628749	0.536821
	H392	H	0.424505	0.627468	0.524311
	O393	O	1.043709	-0.134741	1.144949
	H394	H	1.051224	-0.138825	1.124660
	H395	H	1.033565	-0.104822	1.147731
	O396	O	-0.083477	0.901941	1.005614
	H397	H	-0.093049	0.906371	0.999420
	H398	H	-0.072163	0.914053	1.012241
	O399	O	-0.182199	1.168327	0.821191
	H400	H	-0.183556	1.176780	0.861532
	H401	H	-0.179027	1.141461	0.816402
	O402	O	0.892520	0.073176	1.178377
	H403	H	0.879669	0.054787	1.177665
	H404	H	0.891509	0.073300	1.171075
	O405	O	-0.214850	0.007956	-0.208645
	H406	H	-0.224013	-0.001550	-0.218523
	H407	H	-0.220260	0.018339	-0.212043
	O408	O	1.591045	1.622408	1.442415
	H409	H	1.585745	1.637997	1.456763
	H410	H	1.587768	1.626405	1.457653
	O411	O	1.057536	1.125259	0.012913
	H412	H	1.069311	1.132816	0.033423
	H413	H	1.073144	1.130169	0.011441
	O414	O	0.011714	0.186111	1.140741
	H415	H	0.021624	0.185154	1.150113
	H416	H	0.008224	0.185508	1.131377
	O417	O	-0.005355	-0.044695	1.102764
	H418	H	-0.008228	-0.027831	1.100900
	H419	H	-0.001287	-0.043158	1.097633
	O420	O	0.202809	1.114317	0.102672
	H421	H	0.212488	1.145052	0.113170
	H422	H	0.200583	1.097969	0.123079
	O423	O	1.019682	-0.103143	0.045055
	H424	H	1.030479	-0.087584	0.034599
	H425	H	1.025099	-0.092228	0.037404
	O426	O	0.205283	-0.034906	0.791004
	H427	H	0.225932	-0.021075	0.784062
	H428	H	0.183237	-0.014123	0.778847
	O429	O	1.179516	0.808337	0.823367
	H430	H	1.179253	0.853233	0.811102
	H431	H	1.157220	0.804407	0.801177
