data_Molecule from HDF5

_cell_length_a		16.269214
_cell_length_b		16.364806
_cell_length_c		16.196227
_cell_angle_alpha	90.096398
_cell_angle_beta	89.895552
_cell_angle_gamma	90.032874
_symmetry_space_group_name_H-M	'P 1'
_symmetry_Int_Tables_number		1

loop_
	_symmetry_equiv_pos_as_xyz
	x,y,z

loop_
	_atom_site_label
	_atom_site_type_symbol
	_atom_site_fract_x
	_atom_site_fract_y
	_atom_site_fract_z
	H0	H	0.397139	0.840821	0.708187
	H1	H	0.595491	0.165995	0.709452
	H2	H	0.595692	0.840914	0.276818
	H3	H	0.398222	0.167054	0.279286
	H4	H	0.709112	0.404884	0.829237
	H5	H	0.709462	0.603066	0.157848
	H6	H	0.281642	0.600718	0.828959
	H7	H	0.280021	0.404791	0.157893
	H8	H	0.833115	0.720146	0.393011
	H9	H	0.157849	0.720569	0.597396
	H10	H	0.833218	0.286495	0.595038
	H11	H	0.158077	0.286465	0.391901
	H12	H	0.831450	0.404424	0.708063
	H13	H	0.158796	0.601461	0.709521
	H14	H	0.832240	0.602143	0.279211
	H15	H	0.158041	0.402495	0.276915
	H16	H	0.393600	0.719172	0.830132
	H17	H	0.594179	0.720338	0.156876
	H18	H	0.596750	0.287424	0.829622
	H19	H	0.394064	0.287535	0.157655
	H20	H	0.712685	0.840758	0.391965
	H21	H	0.712483	0.165688	0.593771
	H22	H	0.278958	0.841396	0.594238
	H23	H	0.278835	0.165887	0.393020
	H24	H	0.894219	0.340313	0.210061
	H25	H	0.093636	0.665263	0.209757
	H26	H	0.092880	0.340339	0.779110
	H27	H	0.896461	0.666480	0.780290
	H28	H	0.210459	0.904110	0.329652
	H29	H	0.210163	0.102258	0.658046
	H30	H	0.781997	0.102035	0.329785
	H31	H	0.780042	0.903992	0.657281
	H32	H	0.332519	0.218839	0.891941
	H33	H	0.657963	0.220362	0.093217
	H34	H	0.332704	0.788515	0.094311
	H35	H	0.657180	0.785865	0.891292
	H36	H	0.332787	0.906543	0.207918
	H37	H	0.659746	0.103479	0.207440
	H38	H	0.331810	0.100314	0.779114
	H39	H	0.658955	0.905348	0.779660
	H40	H	0.894609	0.219092	0.330399
	H41	H	0.097592	0.220829	0.656983
	H42	H	0.098678	0.784930	0.331779
	H43	H	0.893932	0.787200	0.657194
	H44	H	0.211742	0.340767	0.892691
	H45	H	0.211364	0.665276	0.094927
	H46	H	0.776531	0.340483	0.095396
	H47	H	0.780163	0.665422	0.895725
	H48	H	0.413086	0.117596	0.592273
	H49	H	0.587949	0.888263	0.585753
	H50	H	0.588714	0.119040	0.401149
	H51	H	0.402745	0.888772	0.402048
	H52	H	0.582165	0.412615	0.108345
	H53	H	0.580665	0.592243	0.879866
	H54	H	0.405788	0.592308	0.108850
	H55	H	0.401616	0.414172	0.878005
	H56	H	0.113220	0.597595	0.399913
	H57	H	0.878791	0.589909	0.595033
	H58	H	0.108529	0.420456	0.584556
	H59	H	0.882329	0.416110	0.407598
	H60	H	0.115516	0.408599	0.595664
	H61	H	0.875885	0.606416	0.588708
	H62	H	0.109206	0.595783	0.410228
	H63	H	0.877389	0.410994	0.396038
	H64	H	0.405351	0.600122	0.110712
	H65	H	0.587019	0.602323	0.874808
	H66	H	0.585271	0.406463	0.110890
	H67	H	0.408170	0.409038	0.878499
	H68	H	0.591657	0.119340	0.400920
	H69	H	0.588431	0.888299	0.584756
	H70	H	0.404604	0.115669	0.574019
	H71	H	0.401590	0.886928	0.399304
	H72	H	0.900898	0.620607	0.094234
	H73	H	0.092646	0.387402	0.080993
	H74	H	0.096530	0.619933	0.907031
	H75	H	0.902734	0.387847	0.903432
	H76	H	0.080181	0.912490	0.608518
	H77	H	0.081013	0.088496	0.380721
	H78	H	0.893734	0.088583	0.611538
	H79	H	0.912973	0.903405	0.376860
	H80	H	0.613277	0.094705	0.895134
	H81	H	0.377015	0.095981	0.093339
	H82	H	0.614482	0.908664	0.090573
	H83	H	0.381485	0.910186	0.911560
	H84	H	0.610774	0.905679	0.077484
	H85	H	0.378375	0.102844	0.083141
	H86	H	0.612078	0.102618	0.905634
	H87	H	0.379104	0.919742	0.895447
	H88	H	0.915475	0.089382	0.605094
	H89	H	0.084166	0.104111	0.375786
	H90	H	0.089272	0.904734	0.613840
	H91	H	0.896306	0.907697	0.373560
	H92	H	0.087695	0.621376	0.892364
	H93	H	0.087846	0.385876	0.091719
	H94	H	0.907250	0.615729	0.084187
	H95	H	0.899954	0.386845	0.901274
	H96	H	0.394354	0.122210	0.589047
	H97	H	0.589152	0.887493	0.585468
	H98	H	0.590170	0.119148	0.398486
	H99	H	0.404732	0.888693	0.399664
	H100	H	0.589756	0.412933	0.110763
	H101	H	0.592097	0.591510	0.875767
	H102	H	0.399011	0.596096	0.111353
	H103	H	0.400688	0.406406	0.874360
	H104	H	0.108792	0.587705	0.401928
	H105	H	0.882458	0.593796	0.577811
	H106	H	0.111602	0.403063	0.578511
	H107	H	0.878207	0.403366	0.406758
	H108	H	0.895019	0.618890	0.083446
	H109	H	0.081444	0.390346	0.082708
	H110	H	0.080522	0.614666	0.906453
	H111	H	0.902905	0.387294	0.899927
	H112	H	0.092368	0.916864	0.610553
	H113	H	0.096476	0.093075	0.375031
	H114	H	0.905490	0.107986	0.614271
	H115	H	0.907272	0.919050	0.380890
	H116	H	0.608794	0.089784	0.906752
	H117	H	0.381479	0.090562	0.082868
	H118	H	0.610030	0.918101	0.082613
	H119	H	0.374734	0.901708	0.896356
	C120	C	0.374465	0.011641	0.614644
	C121	C	0.617865	0.995019	0.614973
	C122	C	0.618546	0.011720	0.371116
	C123	C	0.374171	0.995869	0.371786
	C124	C	0.616004	0.381374	0.002073
	C125	C	0.615743	0.624658	0.985142
	C126	C	0.373951	0.624586	0.001948
	C127	C	0.373526	0.381122	0.985223
	C128	C	0.003302	0.623733	0.373699
	C129	C	0.986773	0.625218	0.616305
	C130	C	0.003871	0.381607	0.615492
	C131	C	0.986794	0.380752	0.372812
	C132	C	0.871859	0.511132	0.116381
	C133	C	0.116534	0.494821	0.115262
	C134	C	0.117200	0.511571	0.872122
	C135	C	0.873245	0.494946	0.872635
	C136	C	0.117539	0.881360	0.503026
	C137	C	0.117120	0.124641	0.485236
	C138	C	0.874961	0.124552	0.502302
	C139	C	0.875133	0.881482	0.485378
	C140	C	0.503856	0.124843	0.871915
	C141	C	0.487230	0.125288	0.114862
	C142	C	0.504364	0.881992	0.114277
	C143	C	0.486344	0.881249	0.871545
	C144	C	0.376090	0.889567	0.670458
	C145	C	0.616138	0.117186	0.671435
	C146	C	0.616395	0.889413	0.314900
	C147	C	0.377162	0.118185	0.316525
	C148	C	0.671830	0.383816	0.878490
	C149	C	0.671324	0.623317	0.108710
	C150	C	0.318703	0.621916	0.878300
	C151	C	0.317740	0.383699	0.108750
	C152	C	0.881502	0.681239	0.373824
	C153	C	0.109489	0.681272	0.615674
	C154	C	0.881510	0.325181	0.614635
	C155	C	0.109612	0.325178	0.372914
	C156	C	0.880564	0.384119	0.670796
	C157	C	0.109949	0.622382	0.671843
	C158	C	0.880846	0.622220	0.317433
	C159	C	0.109404	0.382745	0.315684
	C160	C	0.374637	0.680500	0.878797
	C161	C	0.613892	0.681245	0.108431
	C162	C	0.615646	0.325528	0.878601
	C163	C	0.374742	0.325608	0.108475
	C164	C	0.674813	0.889539	0.372076
	C165	C	0.674325	0.116939	0.613849
	C166	C	0.317561	0.889729	0.613900
	C167	C	0.317650	0.117604	0.373282
	C168	C	0.874018	0.388690	0.171712
	C169	C	0.114263	0.616813	0.171727
	C170	C	0.114203	0.389131	0.816664
	C171	C	0.876125	0.617512	0.817815
	C172	C	0.173389	0.883272	0.379316
	C173	C	0.172732	0.122914	0.608898
	C174	C	0.819919	0.122332	0.378864
	C175	C	0.818357	0.883663	0.608347
	C176	C	0.381160	0.180410	0.872510
	C177	C	0.609733	0.181467	0.113039
	C178	C	0.381232	0.827084	0.113499
	C179	C	0.608793	0.824943	0.872358
	C180	C	0.381271	0.885454	0.170022
	C181	C	0.610632	0.123573	0.169834
	C182	C	0.380895	0.121666	0.816282
	C183	C	0.609696	0.884080	0.816589
	C184	C	0.875527	0.181144	0.379456
	C185	C	0.116702	0.181745	0.608343
	C186	C	0.117795	0.824004	0.380223
	C187	C	0.875010	0.825710	0.608318
	C188	C	0.173450	0.389471	0.873008
	C189	C	0.172791	0.616664	0.114586
	C190	C	0.815369	0.389071	0.114628
	C191	C	0.817954	0.616949	0.875103
	C192	C	0.397415	0.096630	0.591759
	C193	C	0.595163	0.909917	0.592039
	C194	C	0.596442	0.097133	0.393549
	C195	C	0.396438	0.910262	0.393961
	C196	C	0.592502	0.403923	0.087807
	C197	C	0.593341	0.602003	0.899304
	C198	C	0.396621	0.602569	0.087996
	C199	C	0.396671	0.403276	0.899059
	C200	C	0.088562	0.600398	0.397173
	C201	C	0.901141	0.603243	0.593909
	C202	C	0.089689	0.403942	0.592932
	C203	C	0.901482	0.403366	0.396480
	C204	C	0.894490	0.596396	0.093961
	C205	C	0.093919	0.409948	0.092055
	C206	C	0.094885	0.596795	0.895191
	C207	C	0.895393	0.409379	0.894965
	C208	C	0.094131	0.904565	0.588709
	C209	C	0.094119	0.101930	0.399460
	C210	C	0.898180	0.102013	0.588148
	C211	C	0.898674	0.903622	0.399271
	C212	C	0.589217	0.102214	0.895376
	C213	C	0.401384	0.103125	0.092880
	C214	C	0.589630	0.904302	0.090580
	C215	C	0.400559	0.903828	0.894339
	Zn216	Zn	0.495891	0.003286	0.743689
	Zn217	Zn	0.496686	0.003712	0.242508
	Zn218	Zn	0.743870	0.503088	-0.006168
	Zn219	Zn	0.246333	0.503196	-0.006162
	Zn220	Zn	-0.003898	0.753369	0.494459
	Zn221	Zn	-0.003968	0.252635	0.494192
	Zn222	Zn	-0.005153	0.503139	0.743974
	Zn223	Zn	-0.005277	0.502302	0.244822
	Zn224	Zn	0.494657	0.753270	-0.006600
	Zn225	Zn	0.495156	0.253331	-0.006827
	Zn226	Zn	0.747202	0.003178	0.493193
	Zn227	Zn	0.245036	0.003573	0.494139
	N228	N	0.410751	0.966207	0.671022
	N229	N	0.581885	0.040335	0.672368
	N230	N	0.582080	0.966306	0.314173
	N231	N	0.411459	0.041318	0.315405
	N232	N	0.672305	0.418051	0.956131
	N233	N	0.672335	0.588689	0.031267
	N234	N	0.318113	0.587882	0.956011
	N235	N	0.316938	0.417450	0.031115
	N236	N	0.958589	0.682152	0.408171
	N237	N	0.031977	0.683238	0.581975
	N238	N	0.959082	0.323665	0.581054
	N239	N	0.032547	0.323855	0.407798
	N240	N	0.957738	0.418636	0.671357
	N241	N	0.032705	0.588189	0.672273
	N242	N	0.957681	0.587128	0.317360
	N243	N	0.031930	0.416734	0.315638
	N244	N	0.408248	0.682382	0.956700
	N245	N	0.580192	0.682439	0.030561
	N246	N	0.581476	0.324111	0.956349
	N247	N	0.408624	0.323823	0.030503
	N248	N	0.676371	0.966576	0.406234
	N249	N	0.675602	0.039913	0.579674
	N250	N	0.316398	0.966792	0.579901
	N251	N	0.315740	0.040394	0.406757
	N252	N	0.908382	0.465466	0.173066
	N253	N	0.079842	0.540006	0.172359
	N254	N	0.080015	0.465931	0.815974
	N255	N	0.909918	0.540348	0.816407
	N256	N	0.173306	0.918351	0.456596
	N257	N	0.172973	0.088132	0.531597
	N258	N	0.819275	0.088039	0.456225
	N259	N	0.818379	0.917766	0.530739
	N260	N	0.458536	0.182494	0.906455
	N261	N	0.531962	0.182696	0.079659
	N262	N	0.458672	0.824802	0.079389
	N263	N	0.531087	0.823137	0.905783
	N264	N	0.458780	0.918737	0.170713
	N265	N	0.533525	0.089220	0.171056
	N266	N	0.458338	0.087869	0.815793
	N267	N	0.532503	0.918392	0.815937
	N268	N	0.909347	0.182450	0.457326
	N269	N	0.082719	0.182922	0.530531
	N270	N	0.083754	0.822746	0.458079
	N271	N	0.909864	0.824366	0.530923
	N272	N	0.175320	0.466557	0.907105
	N273	N	0.174498	0.539779	0.080346
	N274	N	0.814139	0.466115	0.080981
	N275	N	0.816346	0.539885	0.908513
	O276	O	0.048243	-0.060774	0.041347
	H277	H	0.035273	-0.061856	0.027113
	H278	H	0.052789	-0.061336	0.041997
	O279	O	0.493600	0.544594	0.457551
	H280	H	0.498351	0.545219	0.453332
	H281	H	0.492878	0.545675	0.454071
	O282	O	0.508022	0.417852	0.554476
	H283	H	0.498515	0.413488	0.552888
	H284	H	0.510243	0.422270	0.566091
	O285	O	0.072934	1.013916	0.966725
	H286	H	0.078544	1.011757	0.970139
	H287	H	0.071506	1.010586	0.966579
	O288	O	0.578892	0.405523	0.468326
	H289	H	0.587968	0.399526	0.467130
	H290	H	0.589014	0.412694	0.464732
	O291	O	0.449614	0.519780	0.514172
	H292	H	0.451417	0.519595	0.517873
	H293	H	0.449454	0.524271	0.509190
	O294	O	0.879290	1.067693	0.931879
	H295	H	0.865977	1.060596	0.932959
	H296	H	0.883510	1.084900	0.947077
	O297	O	0.926059	-0.000090	0.920086
	H298	H	0.914580	-0.000332	0.915223
	H299	H	0.920974	0.011119	0.921579
	O300	O	0.484057	0.460312	0.569003
	H301	H	0.484985	0.462634	0.565979
	H302	H	0.481285	0.444534	0.570191
	O303	O	0.996339	0.098419	-0.129803
	H304	H	0.999393	0.106097	-0.124153
	H305	H	0.994985	0.110015	-0.121821
	O306	O	0.007830	1.000299	1.044092
	H307	H	0.001301	1.001073	1.049095
	H308	H	0.007937	0.990367	1.051280
	O309	O	0.568389	0.545418	0.463370
	H310	H	0.573699	0.553756	0.470799
	H311	H	0.561875	0.540482	0.455821
	O312	O	0.973456	-0.024216	1.078038
	H313	H	0.968214	-0.021427	1.059346
	H314	H	0.964839	-0.021055	1.091285
	O315	O	0.434763	0.516262	0.481481
	H316	H	0.427448	0.511651	0.480105
	H317	H	0.437934	0.509324	0.487131
	O318	O	0.548413	0.532723	0.449379
	H319	H	0.551220	0.539643	0.449038
	H320	H	0.543771	0.532664	0.451752
	O321	O	1.032301	1.065449	0.999926
	H322	H	1.055488	1.073774	1.014082
	H323	H	1.032780	1.057991	1.002462
	O324	O	1.006307	1.077897	1.091773
	H325	H	1.013040	1.074366	1.098773
	H326	H	1.016964	1.070974	1.093737
	O327	O	0.422193	0.526257	0.466190
	H328	H	0.428818	0.525405	0.463967
	H329	H	0.409142	0.524824	0.471396
	O330	O	0.975404	-0.034394	1.051539
	H331	H	0.971022	-0.048297	1.052764
	H332	H	0.989859	-0.038669	1.040862
	O333	O	0.896911	1.006821	0.009050
	H334	H	0.888616	1.013174	-0.003807
	H335	H	0.891902	1.004487	-0.001199
	O336	O	0.372136	0.530023	0.444533
	H337	H	0.364533	0.529926	0.448799
	H338	H	0.365448	0.520452	0.436773
	O339	O	0.460271	0.557229	0.464344
	H340	H	0.458920	0.556272	0.458156
	H341	H	0.452506	0.550690	0.459009
	O342	O	-0.077274	0.995383	-0.081836
	H343	H	-0.079783	0.997599	-0.094693
	H344	H	-0.062167	0.998903	-0.080707
	O345	O	0.021316	0.064364	0.034548
	H346	H	0.012052	0.068291	0.039078
	H347	H	0.026335	0.051176	0.041784
	O348	O	0.539361	0.400010	0.499189
	H349	H	0.541857	0.402243	0.498976
	H350	H	0.537903	0.408503	0.491756
	O351	O	0.457263	0.504719	0.531213
	H352	H	0.460071	0.515425	0.536957
	H353	H	0.466888	0.507028	0.522999
	O354	O	0.484359	0.494562	0.530364
	H355	H	0.467525	0.500608	0.525568
	H356	H	0.479680	0.494143	0.532715
	O357	O	0.552424	0.567916	0.548894
	H358	H	0.551147	0.560723	0.560872
	H359	H	0.568976	0.570763	0.554030
	O360	O	0.477658	-0.386530	0.534168
	H361	H	0.491532	-0.380151	0.531986
	H362	H	0.485483	-0.384691	0.545829
	O363	O	0.557422	0.431154	0.480027
	H364	H	0.550545	0.432103	0.474996
	H365	H	0.557561	0.435348	0.482050
	O366	O	-0.014817	-0.017819	1.002295
	H367	H	-0.015344	-0.018157	0.992373
	H368	H	-0.015532	-0.021904	1.004374
	O369	O	0.528655	0.530628	0.401838
	H370	H	0.532599	0.525487	0.394563
	H371	H	0.523075	0.518661	0.401088
