data_Molecule from HDF5

_cell_length_a		16.305847
_cell_length_b		16.280595
_cell_length_c		16.351394
_cell_angle_alpha	90.139499
_cell_angle_beta	89.971248
_cell_angle_gamma	89.880402
_symmetry_space_group_name_H-M	'P 1'
_symmetry_Int_Tables_number		1

loop_
	_symmetry_equiv_pos_as_xyz
	x,y,z

loop_
	_atom_site_label
	_atom_site_type_symbol
	_atom_site_fract_x
	_atom_site_fract_y
	_atom_site_fract_z
	H0	H	0.407009	0.834453	0.719401
	H1	H	0.602279	0.161953	0.721115
	H2	H	0.603112	0.835461	0.290208
	H3	H	0.404133	0.162605	0.290967
	H4	H	0.718931	0.399263	0.843046
	H5	H	0.717949	0.597197	0.169363
	H6	H	0.287376	0.597521	0.842502
	H7	H	0.288644	0.399935	0.168926
	H8	H	0.839878	0.711548	0.409691
	H9	H	0.167250	0.713460	0.604555
	H10	H	0.839997	0.285426	0.603395
	H11	H	0.167174	0.284650	0.408393
	H12	H	0.840200	0.400251	0.721112
	H13	H	0.167133	0.596768	0.720719
	H14	H	0.840548	0.597785	0.291440
	H15	H	0.166792	0.398472	0.290598
	H16	H	0.405259	0.712640	0.841798
	H17	H	0.600316	0.713492	0.168882
	H18	H	0.602403	0.283161	0.842424
	H19	H	0.406387	0.284492	0.168755
	H20	H	0.718346	0.834523	0.407016
	H21	H	0.717433	0.162497	0.604194
	H22	H	0.290353	0.834078	0.603202
	H23	H	0.289631	0.162622	0.408536
	H24	H	0.905775	0.334672	0.220155
	H25	H	0.102732	0.662096	0.221233
	H26	H	0.103021	0.334783	0.790217
	H27	H	0.903983	0.662208	0.791741
	H28	H	0.218905	0.899818	0.341994
	H29	H	0.218511	0.097365	0.669293
	H30	H	0.789065	0.096601	0.342528
	H31	H	0.789488	0.901347	0.668517
	H32	H	0.340252	0.211359	0.909014
	H33	H	0.667513	0.212081	0.104116
	H34	H	0.339446	0.785384	0.102948
	H35	H	0.667569	0.782454	0.906926
	H36	H	0.340088	0.900379	0.220113
	H37	H	0.667538	0.096662	0.220984
	H38	H	0.340606	0.097136	0.790812
	H39	H	0.667657	0.898139	0.790246
	H40	H	0.905202	0.212787	0.342320
	H41	H	0.100842	0.213615	0.669422
	H42	H	0.102322	0.783240	0.341780
	H43	H	0.905186	0.784794	0.668647
	H44	H	0.217188	0.334068	0.907984
	H45	H	0.217890	0.661426	0.104365
	H46	H	0.790876	0.334013	0.102903
	H47	H	0.789386	0.662374	0.909438
	H48	H	0.407869	0.114534	0.596060
	H49	H	0.593227	0.883324	0.599336
	H50	H	0.601980	0.115054	0.416768
	H51	H	0.408651	0.882793	0.415507
	H52	H	0.596761	0.410320	0.119716
	H53	H	0.592928	0.588978	0.892217
	H54	H	0.404649	0.592635	0.122567
	H55	H	0.400583	0.409196	0.888921
	H56	H	0.120017	0.586335	0.408829
	H57	H	0.886945	0.585003	0.608039
	H58	H	0.120490	0.398420	0.594057
	H59	H	0.885791	0.399646	0.411949
	H60	H	0.116576	0.414641	0.595508
	H61	H	0.884212	0.603710	0.602045
	H62	H	0.121910	0.595821	0.412155
	H63	H	0.889434	0.408733	0.416381
	H64	H	0.411525	0.586773	0.118574
	H65	H	0.597414	0.594008	0.889553
	H66	H	0.592951	0.401358	0.121079
	H67	H	0.418218	0.411454	0.893759
	H68	H	0.596792	0.116471	0.406601
	H69	H	0.598781	0.882267	0.594862
	H70	H	0.408643	0.116726	0.603750
	H71	H	0.410553	0.881583	0.408264
	H72	H	0.913463	0.614715	0.101778
	H73	H	0.100793	0.380059	0.100255
	H74	H	0.100438	0.616167	0.910334
	H75	H	0.913421	0.382499	0.910045
	H76	H	0.099401	0.901535	0.622324
	H77	H	0.087203	0.086013	0.395358
	H78	H	0.912467	0.095381	0.621295
	H79	H	0.911724	0.905913	0.390285
	H80	H	0.619158	0.079399	0.904577
	H81	H	0.390209	0.083316	0.100889
	H82	H	0.620773	0.912273	0.109838
	H83	H	0.388015	0.903824	0.914676
	H84	H	0.623501	0.891910	0.098161
	H85	H	0.383950	0.097244	0.106296
	H86	H	0.624966	0.101247	0.907897
	H87	H	0.389443	0.909281	0.912125
	H88	H	0.906861	0.091970	0.622690
	H89	H	0.096344	0.104943	0.386900
	H90	H	0.099789	0.909353	0.620511
	H91	H	0.911652	0.903930	0.389330
	H92	H	0.090095	0.613723	0.911365
	H93	H	0.092113	0.382273	0.103349
	H94	H	0.909852	0.613826	0.095972
	H95	H	0.912180	0.383003	0.915162
	H96	H	0.414777	0.113178	0.599518
	H97	H	0.599357	0.880176	0.601414
	H98	H	0.590759	0.112586	0.415760
	H99	H	0.415680	0.884057	0.413559
	H100	H	0.602039	0.402882	0.124132
	H101	H	0.599710	0.587596	0.890232
	H102	H	0.413324	0.596022	0.121614
	H103	H	0.412371	0.394256	0.887365
	H104	H	0.117708	0.588914	0.418854
	H105	H	0.891412	0.589523	0.589939
	H106	H	0.122662	0.406611	0.608674
	H107	H	0.886237	0.408601	0.406527
	H108	H	0.907331	0.615964	0.101432
	H109	H	0.094910	0.383973	0.094320
	H110	H	0.096970	0.613049	0.918993
	H111	H	0.908087	0.380967	0.912484
	H112	H	0.092965	0.905658	0.619723
	H113	H	0.108553	0.086269	0.389134
	H114	H	0.911627	0.089256	0.619621
	H115	H	0.910333	0.905079	0.389128
	H116	H	0.615854	0.089304	0.925036
	H117	H	0.389553	0.095298	0.090979
	H118	H	0.614419	0.911020	0.087483
	H119	H	0.387938	0.904937	0.908470
	C120	C	0.382402	0.006377	0.627436
	C121	C	0.625413	0.990166	0.627237
	C122	C	0.625577	0.006848	0.384076
	C123	C	0.382541	0.990679	0.384159
	C124	C	0.625928	0.376041	0.014184
	C125	C	0.624710	0.619184	0.998137
	C126	C	0.381363	0.620368	0.013325
	C127	C	0.381955	0.376688	0.997609
	C128	C	0.012066	0.619457	0.384823
	C129	C	0.995740	0.620639	0.627813
	C130	C	0.011851	0.378064	0.627433
	C131	C	0.995226	0.377265	0.383903
	C132	C	0.882350	0.506493	0.127575
	C133	C	0.124995	0.490205	0.127849
	C134	C	0.124619	0.506216	0.884904
	C135	C	0.882236	0.490418	0.884678
	C136	C	0.125649	0.876883	0.513015
	C137	C	0.125558	0.120824	0.498027
	C138	C	0.881795	0.120829	0.513644
	C139	C	0.882470	0.877409	0.497281
	C140	C	0.512154	0.119335	0.884180
	C141	C	0.495676	0.120033	0.127647
	C142	C	0.511607	0.876875	0.127046
	C143	C	0.496153	0.876347	0.883309
	C144	C	0.385489	0.883103	0.682013
	C145	C	0.623186	0.113104	0.683167
	C146	C	0.623469	0.883938	0.328527
	C147	C	0.384058	0.113699	0.329088
	C148	C	0.680902	0.378531	0.891478
	C149	C	0.679547	0.617078	0.120775
	C150	C	0.325930	0.617646	0.890959
	C151	C	0.327077	0.379800	0.120304
	C152	C	0.888832	0.674308	0.388267
	C153	C	0.118518	0.675633	0.625187
	C154	C	0.888774	0.323120	0.624619
	C155	C	0.118413	0.322194	0.387434
	C156	C	0.888934	0.380027	0.682970
	C157	C	0.118315	0.617861	0.683156
	C158	C	0.889297	0.617908	0.329401
	C159	C	0.118056	0.378612	0.328794
	C160	C	0.384522	0.674778	0.890487
	C161	C	0.621230	0.674888	0.120673
	C162	C	0.623347	0.320605	0.891376
	C163	C	0.385488	0.322453	0.120355
	C164	C	0.680727	0.883636	0.386517
	C165	C	0.679890	0.113504	0.624708
	C166	C	0.327923	0.882957	0.624108
	C167	C	0.327424	0.113825	0.387715
	C168	C	0.885278	0.383399	0.182132
	C169	C	0.122739	0.613185	0.182985
	C170	C	0.123102	0.383463	0.828679
	C171	C	0.884077	0.613390	0.829730
	C172	C	0.180987	0.878960	0.390494
	C173	C	0.180462	0.117805	0.620646
	C174	C	0.826812	0.117625	0.391027
	C175	C	0.827285	0.880578	0.619797
	C176	C	0.388931	0.173883	0.887831
	C177	C	0.618802	0.174366	0.124496
	C178	C	0.388552	0.822666	0.123896
	C179	C	0.618772	0.820360	0.885908
	C180	C	0.388856	0.879616	0.182364
	C181	C	0.618756	0.117376	0.182748
	C182	C	0.389118	0.116747	0.829465
	C183	C	0.618839	0.877873	0.828050
	C184	C	0.884622	0.175444	0.390989
	C185	C	0.122360	0.175849	0.620770
	C186	C	0.123000	0.821233	0.390479
	C187	C	0.884880	0.822733	0.620098
	C188	C	0.179546	0.383019	0.887463
	C189	C	0.180254	0.612801	0.125171
	C190	C	0.828174	0.383016	0.123933
	C191	C	0.827187	0.613455	0.888262
	C192	C	0.404128	0.092477	0.606116
	C193	C	0.603532	0.904209	0.605013
	C194	C	0.603128	0.092683	0.406393
	C195	C	0.405017	0.904977	0.405971
	C196	C	0.603748	0.398258	0.099632
	C197	C	0.603072	0.596826	0.912751
	C198	C	0.403358	0.598407	0.098802
	C199	C	0.403730	0.398769	0.911986
	C200	C	0.097681	0.596896	0.406757
	C201	C	0.909642	0.599214	0.606251
	C202	C	0.097633	0.400051	0.605759
	C203	C	0.909282	0.399113	0.405533
	C204	C	0.903821	0.592741	0.105885
	C205	C	0.102419	0.404302	0.105644
	C206	C	0.102406	0.592287	0.907231
	C207	C	0.904688	0.404341	0.906170
	C208	C	0.103835	0.899047	0.598644
	C209	C	0.103741	0.098818	0.412412
	C210	C	0.903737	0.098881	0.599130
	C211	C	0.904652	0.898813	0.411628
	C212	C	0.597806	0.096724	0.906097
	C213	C	0.409979	0.098156	0.105873
	C214	C	0.597430	0.898558	0.104995
	C215	C	0.410568	0.899111	0.905298
	Zn216	Zn	0.504006	-0.001695	0.755364
	Zn217	Zn	0.503771	-0.001512	0.255778
	Zn218	Zn	0.753986	0.497901	0.006367
	Zn219	Zn	0.253277	0.498049	0.005827
	Zn220	Zn	0.003850	0.748408	0.505623
	Zn221	Zn	0.003403	0.249964	0.505889
	Zn222	Zn	0.003539	0.498415	0.756281
	Zn223	Zn	0.003712	0.498436	0.256203
	Zn224	Zn	0.503677	0.748568	0.004966
	Zn225	Zn	0.504250	0.247785	0.005511
	Zn226	Zn	0.753484	-0.001041	0.505475
	Zn227	Zn	0.254355	-0.001560	0.505609
	N228	N	0.418588	0.960689	0.684077
	N229	N	0.589737	0.035562	0.684483
	N230	N	0.590068	0.961561	0.326840
	N231	N	0.417648	0.036098	0.326723
	N232	N	0.682566	0.412310	0.968541
	N233	N	0.681611	0.583030	0.043716
	N234	N	0.324028	0.584262	0.968102
	N235	N	0.325133	0.412833	0.042878
	N236	N	0.965982	0.675252	0.422092
	N237	N	0.041162	0.677599	0.591726
	N238	N	0.966042	0.321883	0.590721
	N239	N	0.040879	0.321297	0.421203
	N240	N	0.966557	0.413046	0.685110
	N241	N	0.040861	0.584609	0.684885
	N242	N	0.966972	0.584372	0.327340
	N243	N	0.040660	0.412020	0.326595
	N244	N	0.418116	0.676736	0.967735
	N245	N	0.587879	0.676123	0.043408
	N246	N	0.589686	0.319207	0.968730
	N247	N	0.418957	0.320450	0.043122
	N248	N	0.681945	0.961081	0.420419
	N249	N	0.681692	0.035952	0.590861
	N250	N	0.325825	0.960708	0.591070
	N251	N	0.326332	0.036341	0.421170
	N252	N	0.918225	0.461081	0.184335
	N253	N	0.089433	0.535643	0.184832
	N254	N	0.089528	0.461152	0.827091
	N255	N	0.917667	0.535831	0.827487
	N256	N	0.182672	0.912835	0.467593
	N257	N	0.182274	0.084048	0.543387
	N258	N	0.824961	0.084533	0.468264
	N259	N	0.825628	0.913768	0.542525
	N260	N	0.466449	0.175428	0.921109
	N261	N	0.541409	0.176389	0.091135
	N262	N	0.465876	0.820742	0.090297
	N263	N	0.541438	0.819402	0.919514
	N264	N	0.466505	0.912647	0.184396
	N265	N	0.541386	0.083916	0.184540
	N266	N	0.466589	0.083313	0.827289
	N267	N	0.541468	0.911935	0.826322
	N268	N	0.918177	0.177587	0.468218
	N269	N	0.088842	0.177846	0.543687
	N270	N	0.089599	0.819559	0.467791
	N271	N	0.918511	0.820685	0.542899
	N272	N	0.180449	0.460305	0.921680
	N273	N	0.181842	0.535284	0.091701
	N274	N	0.826086	0.460745	0.091013
	N275	N	0.825942	0.535905	0.921529
	O276	O	0.472106	0.577910	0.455305
	H277	H	0.469430	0.584333	0.456734
	H278	H	0.464968	0.569240	0.451896
	O279	O	0.092448	0.004785	-0.001190
	H280	H	0.096948	0.001421	-0.014256
	H281	H	0.100034	0.002427	0.001247
	O282	O	0.524766	0.507249	0.486991
	H283	H	0.523991	0.509364	0.486246
	H284	H	0.533766	0.505108	0.487926
	O285	O	0.502359	0.514180	0.461968
	H286	H	0.508196	0.515780	0.470451
	H287	H	0.497368	0.509431	0.465661
	O288	O	1.057836	-0.006785	-0.033973
	H289	H	1.058291	0.007046	-0.028267
	H290	H	1.069693	-0.003261	-0.031990
	O291	O	-0.472767	0.545713	-0.523913
	H292	H	-0.467282	0.549673	-0.523770
	H293	H	-0.481412	0.545756	-0.529502
	O294	O	0.026225	0.976979	-0.075518
	H295	H	0.018698	0.976190	-0.074648
	H296	H	0.025647	0.973576	-0.086005
	O297	O	0.041140	0.989444	-0.015907
	H298	H	0.043331	0.985756	-0.018651
	H299	H	0.042502	0.975833	-0.018251
	O300	O	1.060364	-0.030936	0.961711
	H301	H	1.065055	-0.027627	0.968420
	H302	H	1.048712	-0.029931	0.961002
	O303	O	0.483318	0.522498	0.432016
	H304	H	0.491521	0.517910	0.420250
	H305	H	0.479594	0.513009	0.428488
	O306	O	0.490432	1.485076	1.453824
	H307	H	0.496467	1.482778	1.453831
	H308	H	0.492207	1.488885	1.450280
	O309	O	0.512600	0.523390	0.476509
	H310	H	0.511584	0.526168	0.478134
	H311	H	0.509443	0.537504	0.475800
