data_Molecule from HDF5

_cell_length_a		16.194333
_cell_length_b		16.262901
_cell_length_c		16.351161
_cell_angle_alpha	90.011361
_cell_angle_beta	89.966699
_cell_angle_gamma	90.231933
_symmetry_space_group_name_H-M	'P 1'
_symmetry_Int_Tables_number		1

loop_
	_symmetry_equiv_pos_as_xyz
	x,y,z

loop_
	_atom_site_label
	_atom_site_type_symbol
	_atom_site_fract_x
	_atom_site_fract_y
	_atom_site_fract_z
	H0	H	0.398623	0.849418	0.716433
	H1	H	0.601772	0.175795	0.715083
	H2	H	0.601841	0.849575	0.283078
	H3	H	0.402276	0.176288	0.284047
	H4	H	0.716092	0.413702	0.836614
	H5	H	0.717684	0.613066	0.162564
	H6	H	0.287008	0.608962	0.836821
	H7	H	0.285324	0.411805	0.162910
	H8	H	0.836205	0.724454	0.402547
	H9	H	0.165591	0.727986	0.598145
	H10	H	0.837819	0.297859	0.598391
	H11	H	0.166225	0.299069	0.400577
	H12	H	0.838934	0.410281	0.716245
	H13	H	0.166567	0.612632	0.713926
	H14	H	0.836889	0.611863	0.284708
	H15	H	0.165260	0.414026	0.283803
	H16	H	0.401161	0.727154	0.837285
	H17	H	0.603610	0.729975	0.161828
	H18	H	0.600604	0.296699	0.837030
	H19	H	0.401538	0.295916	0.162706
	H20	H	0.713849	0.848387	0.401970
	H21	H	0.715059	0.176004	0.597077
	H22	H	0.286577	0.848022	0.596036
	H23	H	0.288860	0.176970	0.402403
	H24	H	0.899562	0.349023	0.215332
	H25	H	0.101880	0.675768	0.215613
	H26	H	0.103483	0.349899	0.782333
	H27	H	0.901952	0.674648	0.783322
	H28	H	0.214708	0.914413	0.335416
	H29	H	0.216668	0.111826	0.661637
	H30	H	0.787041	0.109931	0.336997
	H31	H	0.785303	0.913554	0.662994
	H32	H	0.336612	0.225230	0.901674
	H33	H	0.665027	0.226783	0.097406
	H34	H	0.336207	0.797443	0.098514
	H35	H	0.664872	0.799955	0.901665
	H36	H	0.337189	0.911208	0.215875
	H37	H	0.664984	0.112844	0.214407
	H38	H	0.336885	0.111315	0.785758
	H39	H	0.664251	0.912360	0.784532
	H40	H	0.900950	0.227709	0.337096
	H41	H	0.102436	0.227903	0.661740
	H42	H	0.098636	0.797673	0.336259
	H43	H	0.901179	0.796588	0.663469
	H44	H	0.213440	0.347449	0.902517
	H45	H	0.217031	0.675416	0.098704
	H46	H	0.786363	0.348443	0.098211
	H47	H	0.788406	0.676397	0.901887
	H48	H	0.409720	0.130838	0.599546
	H49	H	0.595856	0.895285	0.587725
	H50	H	0.595864	0.128470	0.410165
	H51	H	0.401091	0.895238	0.408778
	H52	H	0.593541	0.425562	0.114218
	H53	H	0.591558	0.614885	0.882171
	H54	H	0.408207	0.610795	0.117634
	H55	H	0.407137	0.408987	0.880327
	H56	H	0.117290	0.604840	0.407372
	H57	H	0.884531	0.607223	0.591036
	H58	H	0.119816	0.423866	0.597372
	H59	H	0.883554	0.419637	0.402491
	H60	H	0.120719	0.415431	0.591725
	H61	H	0.887304	0.600967	0.589846
	H62	H	0.118272	0.604407	0.405161
	H63	H	0.884368	0.415144	0.409731
	H64	H	0.403919	0.600461	0.115957
	H65	H	0.603419	0.603373	0.882429
	H66	H	0.587750	0.415291	0.114585
	H67	H	0.400406	0.424655	0.884119
	H68	H	0.597367	0.131018	0.402595
	H69	H	0.593697	0.892877	0.598962
	H70	H	0.414540	0.126385	0.590122
	H71	H	0.410957	0.894081	0.398946
	H72	H	0.907397	0.628036	0.088711
	H73	H	0.094185	0.395896	0.089305
	H74	H	0.093993	0.626359	0.913010
	H75	H	0.902387	0.393159	0.903714
	H76	H	0.092465	0.920015	0.614334
	H77	H	0.086361	0.107951	0.384621
	H78	H	0.913161	0.101217	0.613580
	H79	H	0.911522	0.910241	0.383000
	H80	H	0.618324	0.105274	0.907116
	H81	H	0.386274	0.096103	0.090362
	H82	H	0.621620	0.921086	0.105846
	H83	H	0.383169	0.915978	0.909696
	H84	H	0.619206	0.908934	0.084361
	H85	H	0.382205	0.104396	0.098468
	H86	H	0.618298	0.105048	0.906541
	H87	H	0.384371	0.922631	0.907887
	H88	H	0.910524	0.111730	0.617196
	H89	H	0.099840	0.111790	0.379468
	H90	H	0.093620	0.918229	0.615535
	H91	H	0.898732	0.918785	0.381904
	H92	H	0.100176	0.630972	0.904689
	H93	H	0.094925	0.393523	0.096490
	H94	H	0.908510	0.630241	0.095582
	H95	H	0.914922	0.396484	0.902319
	H96	H	0.404498	0.129233	0.590723
	H97	H	0.584973	0.898252	0.592774
	H98	H	0.589960	0.128562	0.404023
	H99	H	0.414442	0.898769	0.411337
	H100	H	0.598621	0.416156	0.118243
	H101	H	0.587961	0.599121	0.887943
	H102	H	0.414861	0.602711	0.113397
	H103	H	0.417769	0.421680	0.888028
	H104	H	0.118768	0.607253	0.406193
	H105	H	0.884198	0.601303	0.596402
	H106	H	0.116200	0.424115	0.586950
	H107	H	0.885216	0.423260	0.409378
	H108	H	0.913542	0.626880	0.091677
	H109	H	0.088572	0.396971	0.094075
	H110	H	0.089270	0.628512	0.902944
	H111	H	0.909015	0.397648	0.913824
	H112	H	0.094911	0.919881	0.615210
	H113	H	0.097890	0.098583	0.384367
	H114	H	0.902352	0.103301	0.616499
	H115	H	0.911339	0.924909	0.387235
	H116	H	0.617976	0.105382	0.906526
	H117	H	0.383883	0.107879	0.087841
	H118	H	0.612253	0.932937	0.085585
	H119	H	0.381302	0.918005	0.903056
	C120	C	0.379493	0.020767	0.621811
	C121	C	0.621325	1.003666	0.621372
	C122	C	0.622778	0.021114	0.377520
	C123	C	0.380229	1.004181	0.377639
	C124	C	0.622471	0.390489	0.008043
	C125	C	0.623657	0.634646	0.991807
	C126	C	0.379761	0.633216	0.008350
	C127	C	0.378687	0.389219	0.991465
	C128	C	0.009480	0.633588	0.377961
	C129	C	0.993813	0.633406	0.621391
	C130	C	0.010770	0.390961	0.621309
	C131	C	0.993220	0.391137	0.378195
	C132	C	0.879777	0.520558	0.121232
	C133	C	0.122597	0.503649	0.121854
	C134	C	0.123151	0.520584	0.878328
	C135	C	0.879797	0.503542	0.877752
	C136	C	0.122656	0.890657	0.507314
	C137	C	0.123766	0.135021	0.490458
	C138	C	0.879841	0.133705	0.508138
	C139	C	0.878632	0.889449	0.491792
	C140	C	0.509323	0.133723	0.878221
	C141	C	0.492488	0.132927	0.120781
	C142	C	0.509371	0.890936	0.121186
	C143	C	0.491674	0.891047	0.878266
	C144	C	0.379607	0.898010	0.677594
	C145	C	0.621447	0.126711	0.677071
	C146	C	0.621140	0.898056	0.322085
	C147	C	0.382528	0.127388	0.322265
	C148	C	0.677973	0.393118	0.885421
	C149	C	0.679633	0.632839	0.114026
	C150	C	0.324779	0.630014	0.885481
	C151	C	0.323447	0.391866	0.114354
	C152	C	0.885449	0.687602	0.381457
	C153	C	0.116919	0.689582	0.618371
	C154	C	0.887164	0.335191	0.619172
	C155	C	0.117038	0.336486	0.380297
	C156	C	0.887586	0.391268	0.677598
	C157	C	0.117098	0.632733	0.676632
	C158	C	0.885920	0.631592	0.322877
	C159	C	0.116595	0.393876	0.322443
	C160	C	0.381391	0.688873	0.885783
	C161	C	0.622842	0.691359	0.113408
	C162	C	0.620400	0.335080	0.885507
	C163	C	0.380805	0.333696	0.114194
	C164	C	0.676920	0.897455	0.381028
	C165	C	0.677519	0.126877	0.618306
	C166	C	0.323629	0.897436	0.618218
	C167	C	0.326380	0.127891	0.381321
	C168	C	0.880076	0.397812	0.177239
	C169	C	0.121771	0.626687	0.177602
	C170	C	0.122079	0.398015	0.821600
	C171	C	0.881705	0.626305	0.821847
	C172	C	0.177358	0.893518	0.384472
	C173	C	0.179003	0.132241	0.612888
	C174	C	0.824506	0.130659	0.385654
	C175	C	0.822601	0.891996	0.614186
	C176	C	0.385818	0.188330	0.880875
	C177	C	0.616059	0.188957	0.118156
	C178	C	0.385648	0.834975	0.119112
	C179	C	0.615600	0.836945	0.880720
	C180	C	0.386109	0.891566	0.177413
	C181	C	0.615965	0.132544	0.176292
	C182	C	0.385939	0.131428	0.823469
	C183	C	0.615246	0.893225	0.822660
	C184	C	0.881093	0.189585	0.385874
	C185	C	0.122227	0.190273	0.612864
	C186	C	0.119692	0.835458	0.384723
	C187	C	0.880284	0.833914	0.614303
	C188	C	0.176983	0.396893	0.881253
	C189	C	0.179154	0.626510	0.119557
	C190	C	0.823916	0.397430	0.118937
	C191	C	0.825197	0.626938	0.880693
	C192	C	0.402862	0.106583	0.599995
	C193	C	0.598233	0.917912	0.599490
	C194	C	0.600701	0.107177	0.399175
	C195	C	0.402306	0.918165	0.399801
	C196	C	0.599822	0.412531	0.093439
	C197	C	0.601058	0.612188	0.906352
	C198	C	0.402333	0.611123	0.093599
	C199	C	0.401472	0.411822	0.906351
	C200	C	0.095747	0.611834	0.399900
	C201	C	0.907518	0.610027	0.599033
	C202	C	0.096721	0.414423	0.598739
	C203	C	0.906779	0.413097	0.400629
	C204	C	0.903073	0.606363	0.098583
	C205	C	0.099388	0.417727	0.099697
	C206	C	0.101028	0.606349	0.900320
	C207	C	0.902088	0.418022	0.900097
	C208	C	0.100297	0.912960	0.592948
	C209	C	0.101197	0.112708	0.404823
	C210	C	0.902088	0.111799	0.593606
	C211	C	0.900845	0.911318	0.406278
	C212	C	0.595869	0.111676	0.900191
	C213	C	0.406330	0.109763	0.098595
	C214	C	0.595498	0.914057	0.098578
	C215	C	0.405220	0.912670	0.900329
	Zn216	Zn	0.500798	0.012407	0.750730
	Zn217	Zn	0.501452	0.012403	0.249078
	Zn218	Zn	0.751652	0.512222	0.000085
	Zn219	Zn	0.251012	0.511414	-0.000196
	Zn220	Zn	0.001014	0.761384	0.499485
	Zn221	Zn	0.001749	0.262895	0.499546
	Zn222	Zn	0.002316	0.511922	0.749895
	Zn223	Zn	0.000407	0.512396	0.249503
	Zn224	Zn	0.501041	0.763023	-0.000225
	Zn225	Zn	0.500615	0.261027	-0.000257
	Zn226	Zn	0.750022	0.012059	0.499690
	Zn227	Zn	0.251624	0.012643	0.499031
	N228	N	0.413457	0.975648	0.680030
	N229	N	0.587225	0.049094	0.679106
	N230	N	0.588452	0.975906	0.319608
	N231	N	0.415163	0.049379	0.319761
	N232	N	0.679224	0.427084	0.962597
	N233	N	0.680363	0.598352	0.037279
	N234	N	0.323456	0.596366	0.962552
	N235	N	0.321966	0.425419	0.037101
	N236	N	0.963304	0.689035	0.415091
	N237	N	0.038932	0.690233	0.585000
	N238	N	0.964773	0.334795	0.584811
	N239	N	0.039200	0.334785	0.414332
	N240	N	0.965400	0.425315	0.679050
	N241	N	0.039354	0.598323	0.678292
	N242	N	0.963975	0.598622	0.320717
	N243	N	0.038471	0.426702	0.320825
	N244	N	0.414915	0.690992	0.963170
	N245	N	0.588772	0.692685	0.036406
	N246	N	0.586611	0.333231	0.962718
	N247	N	0.414221	0.331799	0.036906
	N248	N	0.678018	0.974949	0.414943
	N249	N	0.677800	0.049441	0.584273
	N250	N	0.323522	0.974782	0.584039
	N251	N	0.324904	0.050405	0.415088
	N252	N	0.914120	0.475419	0.178728
	N253	N	0.087473	0.549144	0.179185
	N254	N	0.089234	0.475759	0.819696
	N255	N	0.914895	0.548687	0.819885
	N256	N	0.179249	0.926995	0.461795
	N257	N	0.180193	0.098632	0.535700
	N258	N	0.823465	0.096680	0.462726
	N259	N	0.821297	0.925709	0.537087
	N260	N	0.463603	0.189608	0.914527
	N261	N	0.538174	0.189325	0.084401
	N262	N	0.463355	0.834512	0.084971
	N263	N	0.537831	0.835266	0.914426
	N264	N	0.463996	0.925709	0.178810
	N265	N	0.538289	0.098286	0.177813
	N266	N	0.463954	0.098369	0.821608
	N267	N	0.537034	0.926044	0.821020
	N268	N	0.914975	0.191474	0.462973
	N269	N	0.088828	0.192210	0.535566
	N270	N	0.086454	0.833499	0.462142
	N271	N	0.914338	0.832214	0.537155
	N272	N	0.177847	0.474061	0.915742
	N273	N	0.179676	0.548983	0.085645
	N274	N	0.823654	0.474805	0.084719
	N275	N	0.823663	0.549497	0.914581
	O276	O	0.069511	-0.073362	-0.128895
	H277	H	0.074406	-0.068447	-0.136618
	H278	H	0.078280	-0.078646	-0.130123
	O279	O	0.508258	0.477415	0.560224
	H280	H	0.502985	0.472206	0.547448
	H281	H	0.496222	0.475312	0.555350
	O282	O	0.593404	0.595713	0.552056
	H283	H	0.595453	0.601766	0.558825
	H284	H	0.594832	0.576504	0.547767
	O285	O	0.884989	0.026684	0.970095
	H286	H	0.871851	0.025384	0.973893
	H287	H	0.891448	0.025318	0.974494
	O288	O	1.032665	0.037005	0.059429
	H289	H	1.041596	0.045209	0.055881
	H290	H	1.032461	0.047132	0.051884
	O291	O	0.535467	0.601711	0.570018
	H292	H	0.525838	0.593942	0.587408
	H293	H	0.538432	0.603526	0.570787
	O294	O	1.065345	0.000592	1.038665
	H295	H	1.060818	0.000653	1.033243
	H296	H	1.080340	-0.003077	1.040922
	O297	O	0.024103	-0.021718	-0.047269
	H298	H	0.007246	-0.023780	-0.048838
	H299	H	0.035474	-0.021621	-0.035685
	O300	O	1.075243	-0.040827	-0.052252
	H301	H	1.079284	-0.046417	-0.061834
	H302	H	1.079102	-0.046867	-0.056023
	O303	O	0.538328	0.574107	0.486251
	H304	H	0.534466	0.580494	0.491772
	H305	H	0.547638	0.583277	0.479848
	O306	O	1.029213	0.103067	0.084129
	H307	H	1.031761	0.093436	0.077836
	H308	H	1.033129	0.105720	0.085206
	O309	O	0.085919	0.019510	1.020589
	H310	H	0.092339	0.020240	1.023878
	H311	H	0.085037	0.027629	1.023237
	O312	O	0.962283	0.982226	0.901675
	H313	H	0.969993	0.979529	0.894539
	H314	H	0.969944	0.979191	0.906167
	O315	O	0.493472	0.495440	0.437212
	H316	H	0.492043	0.501870	0.439276
	H317	H	0.495766	0.499599	0.439480
	O318	O	0.062941	0.034702	-0.033981
	H319	H	0.058093	0.045523	-0.044759
	H320	H	0.059176	0.037360	-0.033946
	O321	O	0.033332	1.084574	0.914170
	H322	H	0.025080	1.090889	0.916607
	H323	H	0.029780	1.077411	0.904977
	O324	O	0.450171	0.514887	0.486876
	H325	H	0.457161	0.513475	0.482735
	H326	H	0.448977	0.515789	0.494773
	O327	O	0.465545	0.496088	0.527400
	H328	H	0.469745	0.497959	0.530349
	H329	H	0.471559	0.495941	0.523409
	O330	O	0.453739	0.541641	0.481642
	H331	H	0.444506	0.542415	0.490638
	H332	H	0.459843	0.539143	0.482902
	O333	O	0.494105	0.523460	0.478624
	H334	H	0.493065	0.530179	0.478072
	H335	H	0.492108	0.525336	0.469946
	O336	O	0.464430	0.486747	0.557773
	H337	H	0.459064	0.492951	0.575596
	H338	H	0.476575	0.476477	0.551497
	O339	O	0.954581	0.917667	0.061446
	H340	H	0.948550	0.915977	0.071286
	H341	H	0.962538	0.912046	0.065783
	O342	O	0.528688	0.523188	0.489859
	H343	H	0.528089	0.523361	0.491620
	H344	H	0.523176	0.516496	0.481452
	O345	O	0.956264	-0.056768	0.953930
	H346	H	0.952415	-0.069854	0.960915
	H347	H	0.952813	-0.052898	0.947665
	O348	O	0.047151	0.022386	-0.027763
	H349	H	0.053581	0.009622	-0.031298
	H350	H	0.035072	0.034894	-0.027879
	O351	O	-0.095358	1.045834	1.024889
	H352	H	-0.089737	1.063902	1.016588
	H353	H	-0.098733	1.034968	1.034570
	O354	O	0.506245	0.592107	0.531457
	H355	H	0.503926	0.590976	0.522849
	H356	H	0.512062	0.590136	0.530213
	O357	O	-0.044244	0.970267	1.103898
	H358	H	-0.041494	0.970317	1.114789
	H359	H	-0.049866	0.968138	1.099298
