data_Molecule from HDF5

_cell_length_a		16.125315
_cell_length_b		16.418463
_cell_length_c		16.341264
_cell_angle_alpha	90.326862
_cell_angle_beta	89.526047
_cell_angle_gamma	90.199752
_symmetry_space_group_name_H-M	'P 1'
_symmetry_Int_Tables_number		1

loop_
	_symmetry_equiv_pos_as_xyz
	x,y,z

loop_
	_atom_site_label
	_atom_site_type_symbol
	_atom_site_fract_x
	_atom_site_fract_y
	_atom_site_fract_z
	H0	H	0.394254	0.838899	0.711283
	H1	H	0.600344	0.160928	0.711643
	H2	H	0.598668	0.838163	0.273854
	H3	H	0.397575	0.161006	0.277755
	H4	H	0.715845	0.404254	0.831543
	H5	H	0.709506	0.600231	0.158603
	H6	H	0.286962	0.596640	0.830566
	H7	H	0.283291	0.403544	0.156821
	H8	H	0.834259	0.713865	0.396515
	H9	H	0.162237	0.718091	0.594225
	H10	H	0.834809	0.283663	0.597437
	H11	H	0.162753	0.285567	0.392884
	H12	H	0.834177	0.402481	0.710405
	H13	H	0.164086	0.600469	0.707886
	H14	H	0.834017	0.598034	0.283316
	H15	H	0.162953	0.402233	0.278937
	H16	H	0.399869	0.714970	0.830894
	H17	H	0.599181	0.720717	0.154625
	H18	H	0.605606	0.281339	0.832858
	H19	H	0.393695	0.282408	0.154941
	H20	H	0.712671	0.836714	0.393437
	H21	H	0.713489	0.161971	0.591767
	H22	H	0.281889	0.837332	0.591148
	H23	H	0.285765	0.162939	0.397550
	H24	H	0.895237	0.339363	0.211864
	H25	H	0.101346	0.661911	0.214106
	H26	H	0.103095	0.340372	0.773664
	H27	H	0.897129	0.661178	0.778119
	H28	H	0.211669	0.902910	0.331019
	H29	H	0.211808	0.099927	0.656750
	H30	H	0.785833	0.096264	0.330338
	H31	H	0.779187	0.900815	0.655353
	H32	H	0.335170	0.218067	0.893541
	H33	H	0.661974	0.219110	0.095786
	H34	H	0.333967	0.784065	0.093675
	H35	H	0.662901	0.785517	0.890641
	H36	H	0.333157	0.901450	0.207822
	H37	H	0.662530	0.100927	0.208325
	H38	H	0.333246	0.100076	0.780308
	H39	H	0.661962	0.899680	0.775433
	H40	H	0.895315	0.218172	0.333272
	H41	H	0.101294	0.220319	0.654706
	H42	H	0.101223	0.781763	0.332874
	H43	H	0.891294	0.782171	0.655535
	H44	H	0.215193	0.338730	0.893886
	H45	H	0.215036	0.663179	0.093972
	H46	H	0.780993	0.340587	0.094152
	H47	H	0.789178	0.665003	0.901138
	H48	H	0.412307	0.112681	0.588323
	H49	H	0.581358	0.889039	0.580546
	H50	H	0.593912	0.113518	0.405107
	H51	H	0.390013	0.881107	0.403411
	H52	H	0.585065	0.410241	0.107493
	H53	H	0.592420	0.598004	0.876667
	H54	H	0.398921	0.587446	0.109391
	H55	H	0.403405	0.407088	0.876316
	H56	H	0.114077	0.587244	0.403282
	H57	H	0.877349	0.595974	0.599926
	H58	H	0.116007	0.411076	0.586482
	H59	H	0.876445	0.407261	0.388572
	H60	H	0.116017	0.406437	0.582710
	H61	H	0.882030	0.601373	0.578693
	H62	H	0.118036	0.595287	0.399419
	H63	H	0.879280	0.393623	0.413476
	H64	H	0.417784	0.591170	0.105766
	H65	H	0.598623	0.595911	0.875781
	H66	H	0.588944	0.405251	0.110538
	H67	H	0.412134	0.413556	0.881258
	H68	H	0.593441	0.116664	0.396018
	H69	H	0.594790	0.884046	0.580589
	H70	H	0.403474	0.114044	0.582837
	H71	H	0.408612	0.881227	0.384303
	H72	H	0.907794	0.617659	0.093108
	H73	H	0.088463	0.388824	0.080556
	H74	H	0.084428	0.611604	0.909119
	H75	H	0.912783	0.385690	0.897285
	H76	H	0.085657	0.911348	0.608463
	H77	H	0.097053	0.097205	0.374515
	H78	H	0.903813	0.089774	0.609021
	H79	H	0.898292	0.914139	0.378874
	H80	H	0.615800	0.092869	0.901903
	H81	H	0.384158	0.086407	0.083851
	H82	H	0.616265	0.908290	0.087006
	H83	H	0.383060	0.904858	0.910821
	H84	H	0.614995	0.906633	0.079331
	H85	H	0.379939	0.093782	0.090426
	H86	H	0.613832	0.090544	0.903624
	H87	H	0.382651	0.914793	0.900393
	H88	H	0.911686	0.091577	0.607234
	H89	H	0.092677	0.086523	0.379964
	H90	H	0.085639	0.905363	0.610276
	H91	H	0.920834	0.907656	0.382900
	H92	H	0.102469	0.617652	0.904518
	H93	H	0.095422	0.384013	0.088253
	H94	H	0.908626	0.616749	0.090078
	H95	H	0.909857	0.389159	0.909333
	H96	H	0.403805	0.116964	0.592832
	H97	H	0.586570	0.882615	0.592749
	H98	H	0.585504	0.111822	0.399892
	H99	H	0.415527	0.890231	0.408266
	H100	H	0.592244	0.412347	0.109668
	H101	H	0.594068	0.591885	0.878593
	H102	H	0.406625	0.605125	0.112613
	H103	H	0.414534	0.402078	0.878608
	H104	H	0.115264	0.594626	0.408756
	H105	H	0.885851	0.580220	0.586188
	H106	H	0.113758	0.411429	0.581378
	H107	H	0.887712	0.420802	0.411512
	H108	H	0.904917	0.616304	0.091053
	H109	H	0.084806	0.387006	0.091493
	H110	H	0.088838	0.617422	0.891306
	H111	H	0.901310	0.383784	0.902012
	H112	H	0.091374	0.908922	0.611048
	H113	H	0.084754	0.097054	0.378983
	H114	H	0.905772	0.096761	0.609693
	H115	H	0.905046	0.893208	0.372648
	H116	H	0.614457	0.089654	0.900545
	H117	H	0.382016	0.096082	0.080231
	H118	H	0.613243	0.913883	0.082067
	H119	H	0.377916	0.900939	0.897658
	C120	C	0.375766	0.007772	0.616562
	C121	C	0.618756	0.991814	0.614550
	C122	C	0.620093	0.007477	0.370268
	C123	C	0.376282	0.991474	0.371199
	C124	C	0.620592	0.379693	0.002420
	C125	C	0.622317	0.624204	0.985072
	C126	C	0.378798	0.622343	0.001859
	C127	C	0.378100	0.378776	0.985789
	C128	C	0.007255	0.620899	0.374995
	C129	C	0.990151	0.622309	0.616864
	C130	C	0.007181	0.379583	0.615150
	C131	C	0.989792	0.378644	0.373566
	C132	C	0.876325	0.510189	0.119376
	C133	C	0.120256	0.492865	0.116636
	C134	C	0.122048	0.509138	0.871397
	C135	C	0.879028	0.493077	0.874565
	C136	C	0.118697	0.878670	0.502889
	C137	C	0.120959	0.123113	0.485033
	C138	C	0.877442	0.121059	0.501813
	C139	C	0.876096	0.876710	0.485106
	C140	C	0.506724	0.121361	0.872798
	C141	C	0.490175	0.121920	0.114607
	C142	C	0.506504	0.879573	0.112954
	C143	C	0.489874	0.878408	0.872159
	C144	C	0.375489	0.886798	0.672520
	C145	C	0.619449	0.112687	0.672610
	C146	C	0.619030	0.886210	0.312612
	C147	C	0.377988	0.113144	0.316243
	C148	C	0.677937	0.382713	0.880223
	C149	C	0.673834	0.621149	0.108762
	C150	C	0.324208	0.618194	0.879109
	C151	C	0.320603	0.381848	0.107856
	C152	C	0.883553	0.676253	0.376514
	C153	C	0.113537	0.679382	0.614772
	C154	C	0.883845	0.322702	0.615878
	C155	C	0.113556	0.323409	0.373294
	C156	C	0.883560	0.381537	0.672362
	C157	C	0.114344	0.620943	0.671085
	C158	C	0.883306	0.618605	0.320198
	C159	C	0.113612	0.381652	0.316863
	C160	C	0.380397	0.676796	0.879242
	C161	C	0.619181	0.681244	0.106871
	C162	C	0.623038	0.321658	0.880871
	C163	C	0.376081	0.322163	0.107189
	C164	C	0.675407	0.885550	0.372277
	C165	C	0.675954	0.113312	0.613140
	C166	C	0.319489	0.886094	0.612655
	C167	C	0.322373	0.113935	0.376008
	C168	C	0.876126	0.388060	0.174081
	C169	C	0.120669	0.613945	0.174636
	C170	C	0.121927	0.388306	0.813363
	C171	C	0.878975	0.613767	0.817725
	C172	C	0.174475	0.881346	0.380072
	C173	C	0.175142	0.120818	0.607714
	C174	C	0.822719	0.117548	0.379427
	C175	C	0.817642	0.879793	0.606910
	C176	C	0.383769	0.178412	0.874395
	C177	C	0.613007	0.179847	0.114733
	C178	C	0.383190	0.822384	0.113155
	C179	C	0.613529	0.823276	0.871601
	C180	C	0.382570	0.880791	0.169716
	C181	C	0.613434	0.120957	0.170601
	C182	C	0.382901	0.120020	0.817621
	C183	C	0.613015	0.880177	0.814104
	C184	C	0.877099	0.178131	0.380914
	C185	C	0.120108	0.180776	0.606593
	C186	C	0.119739	0.820966	0.381281
	C187	C	0.873534	0.820829	0.606833
	C188	C	0.177719	0.387277	0.873238
	C189	C	0.177070	0.614582	0.114646
	C190	C	0.819164	0.388668	0.115649
	C191	C	0.824816	0.615557	0.878712
	C192	C	0.399683	0.092727	0.594403
	C193	C	0.594741	0.907254	0.591287
	C194	C	0.597570	0.092145	0.393472
	C195	C	0.398128	0.906262	0.392442
	C196	C	0.595659	0.402454	0.087215
	C197	C	0.601323	0.601782	0.899254
	C198	C	0.401123	0.600881	0.087077
	C199	C	0.402797	0.401073	0.900729
	C200	C	0.093430	0.598902	0.397289
	C201	C	0.904046	0.599190	0.594888
	C202	C	0.093136	0.403005	0.590648
	C203	C	0.903399	0.400700	0.397662
	C204	C	0.900226	0.594860	0.097903
	C205	C	0.096523	0.408620	0.093562
	C206	C	0.098829	0.593542	0.894966
	C207	C	0.901482	0.408158	0.896402
	C208	C	0.094676	0.901875	0.588025
	C209	C	0.098169	0.100349	0.399879
	C210	C	0.900331	0.099129	0.586847
	C211	C	0.900775	0.898628	0.400245
	C212	C	0.592466	0.097944	0.895401
	C213	C	0.404364	0.098695	0.091583
	C214	C	0.592596	0.902765	0.089591
	C215	C	0.403548	0.900373	0.896138
	Zn216	Zn	0.497624	-0.000303	0.745200
	Zn217	Zn	0.497897	0.000262	0.241721
	Zn218	Zn	0.749665	0.501916	-0.004452
	Zn219	Zn	0.249874	0.500661	-0.006346
	Zn220	Zn	-0.001997	0.749441	0.494998
	Zn221	Zn	-0.001425	0.250577	0.493959
	Zn222	Zn	-0.000687	0.500789	0.743834
	Zn223	Zn	-0.001695	0.500659	0.246832
	Zn224	Zn	0.499237	0.750916	-0.007317
	Zn225	Zn	0.499020	0.250111	-0.006003
	Zn226	Zn	0.749040	-0.000582	0.492790
	Zn227	Zn	0.247575	0.000162	0.494050
	N228	N	0.409616	0.963595	0.674960
	N229	N	0.584814	0.036042	0.673672
	N230	N	0.585407	0.963066	0.311205
	N231	N	0.410796	0.035988	0.313082
	N232	N	0.676595	0.418098	0.956748
	N233	N	0.675861	0.586422	0.032110
	N234	N	0.322996	0.584903	0.956155
	N235	N	0.321868	0.416465	0.031415
	N236	N	0.961405	0.677621	0.410070
	N237	N	0.035324	0.680574	0.581898
	N238	N	0.961795	0.321312	0.581079
	N239	N	0.035452	0.321453	0.407702
	N240	N	0.961294	0.416205	0.671935
	N241	N	0.036625	0.586195	0.672327
	N242	N	0.961146	0.584725	0.319133
	N243	N	0.035423	0.414834	0.316708
	N244	N	0.413410	0.679545	0.956522
	N245	N	0.587777	0.683144	0.028985
	N246	N	0.588098	0.319790	0.957871
	N247	N	0.411150	0.320329	0.030210
	N248	N	0.676391	0.961887	0.407335
	N249	N	0.675678	0.037100	0.577568
	N250	N	0.319372	0.962656	0.578903
	N251	N	0.321143	0.037271	0.409534
	N252	N	0.910802	0.464722	0.176787
	N253	N	0.086092	0.537387	0.175980
	N254	N	0.088023	0.465015	0.812108
	N255	N	0.912014	0.536724	0.815071
	N256	N	0.173965	0.916643	0.456651
	N257	N	0.175943	0.085817	0.531046
	N258	N	0.823016	0.082581	0.455725
	N259	N	0.818914	0.913824	0.530214
	N260	N	0.461940	0.179749	0.907343
	N261	N	0.535430	0.180474	0.080594
	N262	N	0.461213	0.821679	0.078359
	N263	N	0.535917	0.822007	0.906818
	N264	N	0.460258	0.915664	0.169796
	N265	N	0.535879	0.085834	0.170984
	N266	N	0.460352	0.084936	0.816703
	N267	N	0.534941	0.913941	0.814409
	N268	N	0.910548	0.180431	0.458021
	N269	N	0.087104	0.182273	0.529254
	N270	N	0.085503	0.819441	0.458611
	N271	N	0.909168	0.818720	0.530074
	N272	N	0.177920	0.463502	0.908558
	N273	N	0.176934	0.538481	0.078927
	N274	N	0.819000	0.465385	0.082623
	N275	N	0.824838	0.539367	0.913612
	O276	O	0.958440	0.010150	1.090494
	H277	H	0.970113	0.009506	1.092161
	H278	H	0.966701	0.013937	1.075660
	O279	O	0.554165	0.381159	0.449846
	H280	H	0.547890	0.376977	0.456325
	H281	H	0.553753	0.371635	0.458361
	O282	O	0.471114	0.398234	0.553365
	H283	H	0.468056	0.387067	0.554662
	H284	H	0.464557	0.403555	0.559671
	O285	O	0.522020	0.499764	0.531089
	H286	H	0.517997	0.517101	0.519872
	H287	H	0.526606	0.488395	0.522299
	O288	O	0.597057	0.559445	0.428237
	H289	H	0.608752	0.554520	0.425233
	H290	H	0.603311	0.546522	0.435457
	O291	O	0.070776	-0.106166	0.887902
	H292	H	0.065337	-0.114017	0.873840
	H293	H	0.053285	-0.108446	0.896606
	O294	O	1.129804	1.095842	0.058331
	H295	H	1.126556	1.094077	0.047742
	H296	H	1.125322	1.085062	0.056569
	O297	O	1.067724	0.965122	-0.067780
	H298	H	1.065360	0.967311	-0.060196
	H299	H	1.057915	0.973788	-0.069954
	O300	O	0.597977	0.505633	0.463844
	H301	H	0.592010	0.500299	0.461747
	H302	H	0.603326	0.499080	0.458731
	O303	O	0.606190	0.464035	0.440326
	H304	H	0.608194	0.470948	0.441002
	H305	H	0.606564	0.472996	0.441735
	O306	O	0.006565	0.902528	1.101423
	H307	H	0.001413	0.909406	1.104223
	H308	H	0.005058	0.900231	1.096648
	O309	O	0.465753	0.490999	0.471991
	H310	H	0.462395	0.490032	0.476686
	H311	H	0.454036	0.495568	0.470240
	O312	O	0.985475	1.090064	0.979983
	H313	H	0.993826	1.072026	0.984590
	H314	H	0.984310	1.094353	0.975586
	O315	O	0.894866	1.138469	0.072715
	H316	H	0.900443	1.136701	0.077697
	H317	H	0.898071	1.148546	0.054165
	O318	O	0.742300	0.251871	0.826187
	H319	H	0.750887	0.243446	0.801798
	H320	H	0.735737	0.259645	0.817538
	O321	O	0.500215	0.442298	0.433414
	H322	H	0.503574	0.441922	0.441457
	H323	H	0.508244	0.445922	0.439836
	O324	O	-0.061103	0.961900	0.942696
	H325	H	-0.052886	0.956218	0.948841
	H326	H	-0.057299	0.949120	0.947064
	O327	O	-0.005868	0.987297	0.810350
	H328	H	-0.009325	0.988394	0.813307
	H329	H	0.001694	0.977252	0.816940
	O330	O	-0.069697	0.089337	-0.070677
	H331	H	-0.073232	0.082310	-0.074665
	H332	H	-0.064453	0.091575	-0.078219
	O333	O	0.433280	0.484181	0.596226
	H334	H	0.432913	0.486149	0.594188
	H335	H	0.438671	0.481159	0.590541
	O336	O	-0.010675	-0.018153	0.000746
	H337	H	-0.019162	-0.028624	-0.013602
	H338	H	-0.017493	-0.029635	0.002425
	O339	O	0.074719	-0.168131	-0.138483
	H340	H	0.078822	-0.173460	-0.116689
	H341	H	0.087544	-0.149629	-0.127853
	O342	O	0.468797	0.474997	0.445125
	H343	H	0.466268	0.457875	0.441375
	H344	H	0.465676	0.472940	0.465325
	O345	O	0.142414	1.022051	0.972700
	H346	H	0.140571	1.032362	0.973091
	H347	H	0.142502	1.026429	0.976091
	O348	O	0.588406	0.559999	0.432276
	H349	H	0.596769	0.563485	0.422830
	H350	H	0.585273	0.563283	0.443899
	O351	O	0.509742	0.450133	0.531030
	H352	H	0.502209	0.446869	0.526643
	H353	H	0.503101	0.444043	0.535997
	O354	O	0.000629	0.867501	-0.096939
	H355	H	0.005417	0.851111	-0.099994
	H356	H	0.024372	0.877220	-0.097005
	O357	O	0.527455	0.324494	0.442668
	H358	H	0.532946	0.331379	0.443343
	H359	H	0.535246	0.330249	0.451270
	O360	O	0.988568	-0.016225	1.168249
	H361	H	0.964574	-0.009480	1.175166
	H362	H	0.984078	-0.001824	1.168144
	O363	O	0.434594	0.459795	0.523997
	H364	H	0.432818	0.460147	0.517963
	H365	H	0.424223	0.454979	0.521265
	O366	O	0.465045	0.520827	0.535030
	H367	H	0.472700	0.509976	0.540183
	H368	H	0.455968	0.522801	0.538606
	O369	O	0.860104	-0.054782	0.026400
	H370	H	0.860190	-0.047210	0.018400
	H371	H	0.868504	-0.047871	0.034050
	O372	O	0.393843	0.483807	0.515078
	H373	H	0.399483	0.485926	0.501273
	H374	H	0.388201	0.490143	0.503036
	O375	O	0.897207	0.009950	1.077888
	H376	H	0.888446	0.028891	1.076844
	H377	H	0.877458	0.003037	1.088923
	O378	O	-0.082407	1.092174	-0.143719
	H379	H	-0.080900	1.078228	-0.145588
	H380	H	-0.074708	1.098593	-0.151025
	O381	O	0.158595	0.992321	0.940179
	H382	H	0.166897	0.975263	0.934369
	H383	H	0.140373	0.985508	0.953699
	O384	O	0.932390	1.152649	0.066651
	H385	H	0.922411	1.159181	0.063714
	H386	H	0.940247	1.159298	0.076717
	O387	O	1.162952	0.029135	1.100783
	H388	H	1.157701	0.040058	1.100505
	H389	H	1.165509	0.018693	1.106180
	O390	O	0.992556	0.979895	0.050579
	H391	H	0.984594	0.969344	0.052805
	H392	H	0.998604	0.983750	0.059590
	O393	O	0.395405	0.551179	0.491631
	H394	H	0.398282	0.565152	0.486533
	H395	H	0.395595	0.560694	0.492454
