data_Molecule from HDF5

_cell_length_a		16.416801
_cell_length_b		16.343083
_cell_length_c		16.104683
_cell_angle_alpha	90.210631
_cell_angle_beta	89.807012
_cell_angle_gamma	89.906007
_symmetry_space_group_name_H-M	'P 1'
_symmetry_Int_Tables_number		1

loop_
	_symmetry_equiv_pos_as_xyz
	x,y,z

loop_
	_atom_site_label
	_atom_site_type_symbol
	_atom_site_fract_x
	_atom_site_fract_y
	_atom_site_fract_z
	H0	H	0.398258	0.835726	0.705455
	H1	H	0.592590	0.162944	0.707060
	H2	H	0.592890	0.836395	0.277161
	H3	H	0.397841	0.163795	0.279947
	H4	H	0.713340	0.399843	0.830497
	H5	H	0.707893	0.600756	0.159897
	H6	H	0.278102	0.601459	0.830765
	H7	H	0.279129	0.399266	0.158315
	H8	H	0.833403	0.715825	0.397636
	H9	H	0.156341	0.719930	0.599941
	H10	H	0.834078	0.283036	0.598917
	H11	H	0.156247	0.281438	0.392218
	H12	H	0.832181	0.406053	0.709714
	H13	H	0.158116	0.598052	0.710122
	H14	H	0.833016	0.598195	0.282282
	H15	H	0.156892	0.400224	0.278331
	H16	H	0.397426	0.711894	0.827362
	H17	H	0.593113	0.715838	0.157819
	H18	H	0.596355	0.286651	0.828094
	H19	H	0.395758	0.284313	0.157789
	H20	H	0.713453	0.838096	0.388089
	H21	H	0.713116	0.161134	0.594660
	H22	H	0.278505	0.838357	0.593567
	H23	H	0.275523	0.160641	0.389429
	H24	H	0.897367	0.337563	0.210668
	H25	H	0.091383	0.663591	0.210550
	H26	H	0.094242	0.338344	0.779770
	H27	H	0.897959	0.664332	0.783636
	H28	H	0.211811	0.895811	0.330762
	H29	H	0.212197	0.102257	0.657121
	H30	H	0.780955	0.099797	0.327716
	H31	H	0.776215	0.899390	0.656064
	H32	H	0.335711	0.219812	0.888539
	H33	H	0.656946	0.218797	0.095215
	H34	H	0.334523	0.782284	0.094657
	H35	H	0.657244	0.782104	0.890406
	H36	H	0.333390	0.900878	0.208856
	H37	H	0.657953	0.098719	0.208391
	H38	H	0.332336	0.096311	0.780125
	H39	H	0.657950	0.900499	0.775991
	H40	H	0.892472	0.218799	0.331110
	H41	H	0.094964	0.215450	0.659501
	H42	H	0.094301	0.783215	0.331411
	H43	H	0.895899	0.790146	0.661033
	H44	H	0.215304	0.340692	0.888842
	H45	H	0.214498	0.661349	0.101030
	H46	H	0.775809	0.339431	0.101126
	H47	H	0.779015	0.662560	0.896023
	H48	H	0.403622	0.114204	0.583528
	H49	H	0.588864	0.882327	0.588726
	H50	H	0.590765	0.113574	0.406343
	H51	H	0.397688	0.879400	0.390902
	H52	H	0.590295	0.411697	0.111633
	H53	H	0.580850	0.604285	0.874566
	H54	H	0.408020	0.590156	0.109194
	H55	H	0.401174	0.405887	0.874784
	H56	H	0.111023	0.602381	0.412895
	H57	H	0.877696	0.595787	0.598034
	H58	H	0.111122	0.404256	0.589666
	H59	H	0.880413	0.412561	0.399741
	H60	H	0.109924	0.405362	0.583037
	H61	H	0.878658	0.602482	0.586572
	H62	H	0.105365	0.581914	0.408383
	H63	H	0.878691	0.401031	0.404323
	H64	H	0.404828	0.596060	0.111812
	H65	H	0.606421	0.591977	0.870430
	H66	H	0.582028	0.411056	0.109037
	H67	H	0.401954	0.415398	0.877920
	H68	H	0.591996	0.118059	0.397621
	H69	H	0.582702	0.886991	0.579992
	H70	H	0.400061	0.115813	0.583513
	H71	H	0.413959	0.888232	0.400842
	H72	H	0.904629	0.614043	0.086125
	H73	H	0.086781	0.387918	0.077293
	H74	H	0.083281	0.611682	0.915841
	H75	H	0.908689	0.382626	0.890830
	H76	H	0.084384	0.910215	0.611560
	H77	H	0.086710	0.082420	0.380242
	H78	H	0.899500	0.092828	0.611276
	H79	H	0.906941	0.899123	0.374485
	H80	H	0.612632	0.095116	0.897733
	H81	H	0.382078	0.089153	0.085107
	H82	H	0.608523	0.912236	0.083115
	H83	H	0.377988	0.903793	0.894363
	H84	H	0.611269	0.905566	0.086429
	H85	H	0.379604	0.096304	0.086441
	H86	H	0.610544	0.094681	0.901746
	H87	H	0.380392	0.901483	0.904536
	H88	H	0.900824	0.086544	0.608979
	H89	H	0.078454	0.093112	0.378835
	H90	H	0.088938	0.907383	0.612956
	H91	H	0.896546	0.907232	0.374617
	H92	H	0.099500	0.620035	0.905114
	H93	H	0.095570	0.382281	0.088061
	H94	H	0.895395	0.616771	0.086171
	H95	H	0.912543	0.391300	0.916528
	H96	H	0.401908	0.115488	0.586406
	H97	H	0.594647	0.883838	0.578736
	H98	H	0.584066	0.114124	0.399910
	H99	H	0.396086	0.885120	0.410971
	H100	H	0.586413	0.403567	0.112788
	H101	H	0.584368	0.576818	0.882377
	H102	H	0.400817	0.590247	0.110283
	H103	H	0.409947	0.409318	0.878228
	H104	H	0.114595	0.594404	0.392575
	H105	H	0.882607	0.589300	0.586583
	H106	H	0.109905	0.410561	0.587730
	H107	H	0.883274	0.409758	0.411893
	H108	H	0.901492	0.617613	0.093829
	H109	H	0.081372	0.385627	0.091318
	H110	H	0.081256	0.617075	0.895659
	H111	H	0.888668	0.382138	0.908031
	H112	H	0.089172	0.913121	0.611690
	H113	H	0.090199	0.093929	0.374597
	H114	H	0.905730	0.091279	0.609619
	H115	H	0.908453	0.910938	0.378353
	H116	H	0.609986	0.091411	0.898872
	H117	H	0.382389	0.094722	0.079572
	H118	H	0.609146	0.905627	0.077967
	H119	H	0.382916	0.910789	0.900861
	C120	C	0.373554	0.007902	0.613916
	C121	C	0.617638	0.991406	0.613286
	C122	C	0.617628	0.008009	0.370456
	C123	C	0.373016	0.991237	0.370971
	C124	C	0.616882	0.379217	0.002339
	C125	C	0.617103	0.620816	0.985254
	C126	C	0.374722	0.621128	0.002061
	C127	C	0.374625	0.380167	0.985660
	C128	C	0.003779	0.621712	0.375134
	C129	C	0.986993	0.624146	0.619361
	C130	C	0.003506	0.378537	0.617526
	C131	C	0.986893	0.378051	0.374102
	C132	C	0.872103	0.508921	0.118869
	C133	C	0.116714	0.492358	0.116460
	C134	C	0.117659	0.509549	0.874011
	C135	C	0.874565	0.492679	0.875866
	C136	C	0.116656	0.879001	0.503733
	C137	C	0.115314	0.120237	0.486489
	C138	C	0.873263	0.120731	0.501785
	C139	C	0.874274	0.878479	0.485055
	C140	C	0.504107	0.122256	0.870334
	C141	C	0.487808	0.122403	0.114097
	C142	C	0.503273	0.878294	0.113305
	C143	C	0.487285	0.876280	0.869862
	C144	C	0.377057	0.884964	0.668551
	C145	C	0.613923	0.114020	0.669186
	C146	C	0.614174	0.885449	0.314385
	C147	C	0.376306	0.114340	0.316567
	C148	C	0.674722	0.380035	0.879358
	C149	C	0.670737	0.620290	0.110099
	C150	C	0.317421	0.620357	0.879073
	C151	C	0.317927	0.380344	0.109149
	C152	C	0.881621	0.677327	0.377248
	C153	C	0.108327	0.680417	0.618470
	C154	C	0.882340	0.321776	0.618278
	C155	C	0.108045	0.320270	0.373104
	C156	C	0.881085	0.383274	0.672966
	C157	C	0.109172	0.620235	0.673669
	C158	C	0.881467	0.618757	0.319969
	C159	C	0.108571	0.379405	0.316550
	C160	C	0.376941	0.675069	0.877378
	C161	C	0.613686	0.677542	0.108967
	C162	C	0.616078	0.324086	0.877879
	C163	C	0.375679	0.322805	0.108796
	C164	C	0.674074	0.886202	0.369517
	C165	C	0.673840	0.113067	0.613157
	C166	C	0.317459	0.886063	0.612998
	C167	C	0.315404	0.112762	0.371016
	C168	C	0.875699	0.386569	0.173804
	C169	C	0.113362	0.614733	0.173079
	C170	C	0.115721	0.387444	0.816743
	C171	C	0.877487	0.615419	0.821210
	C172	C	0.173046	0.877761	0.380093
	C173	C	0.173095	0.120856	0.608746
	C174	C	0.818322	0.120029	0.377545
	C175	C	0.815758	0.880085	0.607926
	C176	C	0.383179	0.179588	0.870578
	C177	C	0.608970	0.179500	0.114179
	C178	C	0.382312	0.821339	0.113598
	C179	C	0.608784	0.820259	0.870534
	C180	C	0.381911	0.880279	0.170691
	C181	C	0.609457	0.120140	0.170605
	C182	C	0.381489	0.118135	0.816532
	C183	C	0.609361	0.879328	0.813986
	C184	C	0.873745	0.179167	0.379318
	C185	C	0.114491	0.177091	0.609914
	C186	C	0.114709	0.821425	0.380393
	C187	C	0.875433	0.825886	0.610400
	C188	C	0.175964	0.388677	0.871223
	C189	C	0.174218	0.613619	0.118339
	C190	C	0.815225	0.387569	0.119238
	C191	C	0.818045	0.614504	0.877040
	C192	C	0.395425	0.093136	0.591252
	C193	C	0.595370	0.906255	0.589442
	C194	C	0.595419	0.093183	0.394364
	C195	C	0.395739	0.906219	0.394159
	C196	C	0.593231	0.402062	0.088845
	C197	C	0.596699	0.597791	0.898440
	C198	C	0.397807	0.598730	0.088202
	C199	C	0.397663	0.403408	0.899396
	C200	C	0.088428	0.599394	0.397952
	C201	C	0.901781	0.602298	0.596767
	C202	C	0.088229	0.400360	0.593886
	C203	C	0.902650	0.401108	0.398334
	C204	C	0.894129	0.594121	0.095633
	C205	C	0.094488	0.407410	0.092470
	C206	C	0.094770	0.594343	0.898483
	C207	C	0.896830	0.407436	0.898529
	C208	C	0.094230	0.903355	0.589897
	C209	C	0.091909	0.096605	0.400135
	C210	C	0.895548	0.097102	0.587710
	C211	C	0.897172	0.899566	0.398432
	C212	C	0.589146	0.100303	0.892741
	C213	C	0.403159	0.099991	0.090511
	C214	C	0.587718	0.900903	0.089381
	C215	C	0.402506	0.898675	0.892989
	Zn216	Zn	0.495342	-0.000373	0.742145
	Zn217	Zn	0.495734	0.000512	0.243040
	Zn218	Zn	0.744479	0.500062	-0.003998
	Zn219	Zn	0.245738	0.501079	-0.005328
	Zn220	Zn	-0.004937	0.751630	0.496507
	Zn221	Zn	-0.005212	0.248551	0.495135
	Zn222	Zn	-0.004380	0.501461	0.746367
	Zn223	Zn	-0.004360	0.500441	0.245538
	Zn224	Zn	0.495851	0.747972	-0.007822
	Zn225	Zn	0.496072	0.251628	-0.007870
	Zn226	Zn	0.746507	-0.000809	0.491002
	Zn227	Zn	0.243962	0.000108	0.493299
	N228	N	0.411416	0.961695	0.669228
	N229	N	0.579544	0.037344	0.669255
	N230	N	0.579806	0.962243	0.314956
	N231	N	0.411481	0.037898	0.316388
	N232	N	0.675221	0.413501	0.957964
	N233	N	0.673085	0.585708	0.032234
	N234	N	0.315896	0.587426	0.957485
	N235	N	0.317253	0.415086	0.031482
	N236	N	0.958493	0.679506	0.410724
	N237	N	0.031078	0.683038	0.585592
	N238	N	0.959399	0.318763	0.584542
	N239	N	0.031500	0.319256	0.408175
	N240	N	0.957530	0.417628	0.672742
	N241	N	0.032739	0.586017	0.674251
	N242	N	0.958341	0.584952	0.318511
	N243	N	0.032363	0.414506	0.316923
	N244	N	0.411750	0.675915	0.954886
	N245	N	0.581254	0.678077	0.030289
	N246	N	0.580997	0.323433	0.955512
	N247	N	0.410108	0.322368	0.030903
	N248	N	0.676347	0.963435	0.403571
	N249	N	0.676291	0.035702	0.579462
	N250	N	0.315165	0.963399	0.579727
	N251	N	0.313301	0.035253	0.404177
	N252	N	0.910234	0.463245	0.173794
	N253	N	0.078518	0.538322	0.172130
	N254	N	0.080037	0.463656	0.818268
	N255	N	0.911932	0.538643	0.820217
	N256	N	0.174226	0.912940	0.457771
	N257	N	0.173370	0.086096	0.530829
	N258	N	0.817899	0.084337	0.454787
	N259	N	0.815091	0.912497	0.529192
	N260	N	0.460483	0.182408	0.903195
	N261	N	0.532259	0.181148	0.079870
	N262	N	0.458767	0.820055	0.078540
	N263	N	0.532026	0.818494	0.904697
	N264	N	0.458106	0.915121	0.170540
	N265	N	0.533121	0.085471	0.170764
	N266	N	0.457821	0.083320	0.816047
	N267	N	0.532790	0.913444	0.813228
	N268	N	0.907242	0.179811	0.457545
	N269	N	0.079245	0.176650	0.532760
	N270	N	0.080417	0.821925	0.458320
	N271	N	0.911112	0.824596	0.532942
	N272	N	0.176946	0.465433	0.906311
	N273	N	0.176151	0.536645	0.083670
	N274	N	0.812939	0.464744	0.085681
	N275	N	0.816403	0.537242	0.910459
	O276	O	1.176186	-0.006127	0.967696
	H277	H	1.172564	-0.001839	0.976971
	H278	H	1.195831	-0.002182	0.971504
	O279	O	0.496967	0.451960	0.440011
	H280	H	0.494367	0.451055	0.436875
	H281	H	0.499673	0.457640	0.449312
	O282	O	0.923476	0.841463	-0.030104
	H283	H	0.927470	0.842376	-0.035159
	H284	H	0.929998	0.840814	-0.040630
	O285	O	0.978197	-0.039723	1.113722
	H286	H	0.969736	-0.036899	1.121435
	H287	H	0.976772	-0.040031	1.105208
	O288	O	0.610227	0.417344	0.396356
	H289	H	0.598490	0.416213	0.397923
	H290	H	0.613533	0.411022	0.388390
	O291	O	0.467351	0.439526	0.542168
	H292	H	0.472942	0.428703	0.550154
	H293	H	0.466350	0.443904	0.538100
	O294	O	0.446321	0.479619	0.396931
	H295	H	0.448004	0.477085	0.403788
	H296	H	0.439379	0.488937	0.393938
	O297	O	0.059904	0.062825	0.898223
	H298	H	0.074890	0.070359	0.900057
	H299	H	0.060621	0.069606	0.912403
	O300	O	-0.088835	1.064097	0.010733
	H301	H	-0.097020	1.066467	0.009667
	H302	H	-0.090151	1.062470	0.006499
	O303	O	0.910038	0.984628	-0.027335
	H304	H	0.903787	0.992186	-0.039803
	H305	H	0.902931	0.977228	-0.032194
	O306	O	0.063830	0.880604	0.909459
	H307	H	0.072230	0.890599	0.917989
	H308	H	0.058142	0.879582	0.896709
	O309	O	0.524181	0.524812	0.483730
	H310	H	0.528378	0.518951	0.485912
	H311	H	0.521485	0.517567	0.483421
	O312	O	-0.027235	-0.017039	-0.034966
	H313	H	-0.015901	-0.016411	-0.022924
	H314	H	-0.014924	-0.022702	-0.047242
	O315	O	0.922173	-0.117450	-0.015273
	H316	H	0.933406	-0.127749	-0.020880
	H317	H	0.927664	-0.126694	-0.012028
	O318	O	1.025984	1.105058	1.121420
	H319	H	1.033500	1.105839	1.124320
	H320	H	1.010937	1.115287	1.119003
	O321	O	0.449434	0.501895	1.482493
	H322	H	0.441843	0.513241	1.478400
	H323	H	0.450742	0.496687	1.483504
	O324	O	0.448149	0.519155	0.505110
	H325	H	0.454896	0.518098	0.506884
	H326	H	0.449424	0.517195	0.506266
	O327	O	0.035812	-0.000281	-0.051007
	H328	H	0.040898	0.001261	-0.038085
	H329	H	0.033405	0.006631	-0.051320
	O330	O	0.607337	0.458621	0.517765
	H331	H	0.598704	0.462701	0.511911
	H332	H	0.605471	0.457328	0.510442
	O333	O	-0.163204	1.160438	0.954988
	H334	H	-0.159920	1.172435	0.935280
	H335	H	-0.175118	1.155331	0.951460
	O336	O	-0.069823	0.008581	-0.169054
	H337	H	-0.072504	-0.007090	-0.168652
	H338	H	-0.069454	0.011485	-0.176218
	O339	O	0.472577	0.464138	0.548786
	H340	H	0.484480	0.460467	0.548962
	H341	H	0.473010	0.460706	0.560465
	O342	O	1.123972	1.100380	1.115042
	H343	H	1.106024	1.099928	1.109430
	H344	H	1.122289	1.089712	1.122059
	O345	O	0.890218	1.045561	-0.049282
	H346	H	0.902806	1.048219	-0.060363
	H347	H	0.877511	1.036165	-0.055961
	O348	O	0.458730	0.538755	0.518388
	H349	H	0.463995	0.535439	0.514636
	H350	H	0.462251	0.536852	0.516298
	O351	O	1.052367	0.108723	0.961397
	H352	H	1.035157	0.108741	0.965751
	H353	H	1.044944	0.117980	0.962423
	O354	O	0.533130	0.485282	0.483097
	H355	H	0.526390	0.496597	0.485260
	H356	H	0.525855	0.482294	0.471185
	O357	O	1.135516	0.020800	1.155609
	H358	H	1.124795	0.018790	1.172811
	H359	H	1.138556	0.005102	1.139499
	O360	O	0.523966	0.474500	0.446076
	H361	H	0.519700	0.473718	0.443304
	H362	H	0.522181	0.480995	0.440767
	O363	O	0.483722	0.445974	0.557209
	H364	H	0.481937	0.448858	0.546140
	H365	H	0.484625	0.450069	0.549311
	O366	O	1.453925	0.606210	0.534842
	H367	H	1.451622	0.600776	0.537498
	H368	H	1.455253	0.608878	0.531139
	O369	O	0.991128	0.003364	1.002158
	H370	H	0.985342	0.009274	0.993525
	H371	H	0.985868	0.016641	1.004947
	O372	O	-0.030103	0.052642	-0.085944
	H373	H	-0.027413	0.054525	-0.088137
	H374	H	-0.024695	0.049286	-0.088593
	O375	O	0.947547	0.104251	0.061872
	H376	H	0.941678	0.116841	0.043794
	H377	H	0.941386	0.089052	0.067691
	O378	O	0.425730	0.463352	0.524333
	H379	H	0.427361	0.464471	0.520833
	H380	H	0.426579	0.462198	0.526510
	O381	O	0.047937	0.963202	1.126981
	H382	H	0.048033	0.960916	1.143698
	H383	H	0.046710	0.960559	1.115176
