data_Molecule from HDF5

_cell_length_a		16.377251
_cell_length_b		16.416461
_cell_length_c		16.452252
_cell_angle_alpha	89.880631
_cell_angle_beta	90.010164
_cell_angle_gamma	89.889062
_symmetry_space_group_name_H-M	'P 1'
_symmetry_Int_Tables_number		1

loop_
	_symmetry_equiv_pos_as_xyz
	x,y,z

loop_
	_atom_site_label
	_atom_site_type_symbol
	_atom_site_fract_x
	_atom_site_fract_y
	_atom_site_fract_z
	H0	H	0.396051	0.843226	0.732315
	H1	H	0.612140	0.159023	0.735029
	H2	H	0.606486	0.843764	0.288456
	H3	H	0.392793	0.160113	0.286438
	H4	H	0.724982	0.396885	0.851617
	H5	H	0.722779	0.605994	0.168285
	H6	H	0.276710	0.613204	0.853930
	H7	H	0.280602	0.397425	0.168469
	H8	H	0.843389	0.721990	0.406179
	H9	H	0.160080	0.725410	0.618755
	H10	H	0.843135	0.279898	0.614136
	H11	H	0.162413	0.280598	0.404924
	H12	H	0.842977	0.394519	0.731798
	H13	H	0.159066	0.610096	0.734957
	H14	H	0.842713	0.604243	0.291681
	H15	H	0.161981	0.395069	0.288140
	H16	H	0.395396	0.725577	0.852645
	H17	H	0.606017	0.721865	0.168746
	H18	H	0.611219	0.278876	0.852425
	H19	H	0.395676	0.280338	0.167466
	H20	H	0.722801	0.843217	0.404888
	H21	H	0.725738	0.159491	0.617757
	H22	H	0.282817	0.841480	0.613677
	H23	H	0.278681	0.159316	0.402230
	H24	H	0.897072	0.342739	0.230539
	H25	H	0.108719	0.658815	0.233753
	H26	H	0.112231	0.344943	0.786999
	H27	H	0.894024	0.659068	0.784794
	H28	H	0.222354	0.896214	0.350372
	H29	H	0.225599	0.106585	0.667087
	H30	H	0.781753	0.105480	0.351419
	H31	H	0.776457	0.890369	0.666910
	H32	H	0.344246	0.226854	0.902145
	H33	H	0.660896	0.222799	0.114758
	H34	H	0.343203	0.781180	0.116396
	H35	H	0.660940	0.779900	0.904795
	H36	H	0.341909	0.898327	0.229443
	H37	H	0.658998	0.108990	0.232767
	H38	H	0.344128	0.109920	0.787190
	H39	H	0.659912	0.893567	0.786788
	H40	H	0.897102	0.221791	0.351081
	H41	H	0.109952	0.223881	0.666617
	H42	H	0.106650	0.780913	0.351051
	H43	H	0.893717	0.776436	0.667647
	H44	H	0.227961	0.345868	0.903268
	H45	H	0.222316	0.661261	0.116212
	H46	H	0.782582	0.343429	0.113453
	H47	H	0.781742	0.661820	0.904000
	H48	H	0.412661	0.114604	0.598516
	H49	H	0.585076	0.893833	0.590492
	H50	H	0.586239	0.115155	0.417237
	H51	H	0.411912	0.889173	0.423498
	H52	H	0.595763	0.411405	0.123981
	H53	H	0.594027	0.593080	0.895172
	H54	H	0.411680	0.600362	0.126604
	H55	H	0.412157	0.422246	0.899183
	H56	H	0.117783	0.587222	0.415088
	H57	H	0.888485	0.593262	0.594947
	H58	H	0.113601	0.413483	0.595567
	H59	H	0.885633	0.403164	0.417530
	H60	H	0.114355	0.416375	0.600413
	H61	H	0.893174	0.585516	0.593156
	H62	H	0.117455	0.596159	0.423613
	H63	H	0.892246	0.412447	0.428403
	H64	H	0.407509	0.585452	0.123759
	H65	H	0.590823	0.589352	0.898182
	H66	H	0.591972	0.417549	0.120760
	H67	H	0.421771	0.417225	0.900656
	H68	H	0.590217	0.113082	0.426469
	H69	H	0.598750	0.886744	0.597143
	H70	H	0.416365	0.113239	0.598491
	H71	H	0.410006	0.886442	0.415904
	H72	H	0.910783	0.616008	0.097699
	H73	H	0.091563	0.391175	0.094197
	H74	H	0.075409	0.607627	0.928442
	H75	H	0.909834	0.387801	0.921168
	H76	H	0.088470	0.910025	0.622201
	H77	H	0.090880	0.093220	0.395534
	H78	H	0.909973	0.082064	0.621492
	H79	H	0.911942	0.913122	0.398392
	H80	H	0.615532	0.090028	0.919601
	H81	H	0.388144	0.091250	0.097303
	H82	H	0.615254	0.911432	0.098227
	H83	H	0.389473	0.915216	0.922452
	H84	H	0.614189	0.915360	0.099219
	H85	H	0.387834	0.091592	0.098240
	H86	H	0.615409	0.091942	0.923901
	H87	H	0.388975	0.914419	0.920692
	H88	H	0.922781	0.089726	0.620382
	H89	H	0.093500	0.088739	0.395501
	H90	H	0.094520	0.911454	0.623557
	H91	H	0.914481	0.914558	0.398898
	H92	H	0.099540	0.615247	0.930890
	H93	H	0.095401	0.385873	0.101639
	H94	H	0.910372	0.618181	0.105068
	H95	H	0.916019	0.388979	0.917916
	H96	H	0.414111	0.112888	0.595303
	H97	H	0.585152	0.888924	0.606229
	H98	H	0.595797	0.117756	0.418953
	H99	H	0.417790	0.889458	0.417352
	H100	H	0.587993	0.410943	0.121558
	H101	H	0.588658	0.594603	0.896232
	H102	H	0.421792	0.589999	0.119863
	H103	H	0.413550	0.411625	0.895601
	H104	H	0.112942	0.584698	0.426900
	H105	H	0.889399	0.586655	0.600718
	H106	H	0.116305	0.410871	0.599840
	H107	H	0.888749	0.418276	0.413750
	H108	H	0.916766	0.614440	0.102061
	H109	H	0.086117	0.389313	0.101500
	H110	H	0.087060	0.619091	0.908711
	H111	H	0.915455	0.390781	0.925075
	H112	H	0.090765	0.916051	0.621228
	H113	H	0.088920	0.089014	0.397819
	H114	H	0.911060	0.096551	0.626692
	H115	H	0.914703	0.911433	0.398097
	H116	H	0.613396	0.087940	0.923603
	H117	H	0.388068	0.092551	0.098055
	H118	H	0.616574	0.912577	0.102164
	H119	H	0.389313	0.913310	0.922618
	C120	C	0.381350	0.009133	0.630374
	C121	C	0.624032	0.993754	0.631914
	C122	C	0.622856	0.010612	0.388667
	C123	C	0.379756	0.992997	0.386869
	C124	C	0.624750	0.380614	0.017944
	C125	C	0.623705	0.624041	1.001409
	C126	C	0.380084	0.625197	0.019114
	C127	C	0.381853	0.382839	1.001855
	C128	C	0.011072	0.621804	0.389534
	C129	C	0.993958	0.622664	0.631078
	C130	C	0.010410	0.380104	0.631274
	C131	C	0.994491	0.379694	0.388200
	C132	C	0.880836	0.510838	0.132268
	C133	C	0.123438	0.493289	0.131910
	C134	C	0.123080	0.510630	0.888998
	C135	C	0.880662	0.493640	0.888337
	C136	C	0.123563	0.879948	0.517732
	C137	C	0.124594	0.122697	0.500578
	C138	C	0.881644	0.122050	0.518512
	C139	C	0.880254	0.879035	0.502278
	C140	C	0.510768	0.123768	0.888533
	C141	C	0.492714	0.124370	0.131233
	C142	C	0.509926	0.881610	0.131071
	C143	C	0.493688	0.880696	0.888856
	C144	C	0.378535	0.890432	0.691468
	C145	C	0.628725	0.111753	0.694012
	C146	C	0.624949	0.891294	0.328486
	C147	C	0.375903	0.112343	0.326479
	C148	C	0.685421	0.378488	0.899285
	C149	C	0.683159	0.624996	0.120818
	C150	C	0.318129	0.629414	0.900864
	C151	C	0.320731	0.379238	0.120793
	C152	C	0.891066	0.681819	0.387865
	C153	C	0.112444	0.684880	0.636161
	C154	C	0.890951	0.319526	0.632968
	C155	C	0.114618	0.320145	0.386587
	C156	C	0.890857	0.376757	0.691479
	C157	C	0.111922	0.627398	0.694172
	C158	C	0.890940	0.623589	0.330530
	C159	C	0.114306	0.377159	0.328416
	C160	C	0.377194	0.685870	0.900293
	C161	C	0.625252	0.682633	0.121016
	C162	C	0.628531	0.319627	0.899747
	C163	C	0.377954	0.320686	0.120109
	C164	C	0.682891	0.890886	0.386307
	C165	C	0.685639	0.112049	0.635500
	C166	C	0.321997	0.889556	0.632405
	C167	C	0.318975	0.112061	0.384434
	C168	C	0.878950	0.390709	0.190898
	C169	C	0.125988	0.611935	0.192886
	C170	C	0.128786	0.392250	0.827585
	C171	C	0.876971	0.612240	0.826233
	C172	C	0.182891	0.878089	0.398254
	C173	C	0.185660	0.125239	0.619481
	C174	C	0.821354	0.124000	0.399074
	C175	C	0.817741	0.874124	0.619873
	C176	C	0.391988	0.186239	0.884382
	C177	C	0.612755	0.183480	0.133461
	C178	C	0.390604	0.821633	0.133660
	C179	C	0.612967	0.819669	0.886258
	C180	C	0.390073	0.880056	0.190180
	C181	C	0.611838	0.126843	0.192251
	C182	C	0.391608	0.127561	0.827448
	C183	C	0.612616	0.876654	0.827621
	C184	C	0.878853	0.182018	0.398959
	C185	C	0.128059	0.183505	0.619371
	C186	C	0.125669	0.820057	0.398752
	C187	C	0.876407	0.817029	0.620202
	C188	C	0.186726	0.392854	0.885282
	C189	C	0.182907	0.613071	0.134525
	C190	C	0.821853	0.390946	0.132672
	C191	C	0.821189	0.613653	0.885780
	C192	C	0.406860	0.091968	0.604804
	C193	C	0.597388	0.911368	0.605623
	C194	C	0.597933	0.093557	0.413837
	C195	C	0.405784	0.910001	0.411868
	C196	C	0.598973	0.405973	0.100714
	C197	C	0.598515	0.599421	0.918161
	C198	C	0.406124	0.599287	0.101763
	C199	C	0.408103	0.409505	0.919902
	C200	C	0.094435	0.596706	0.414632
	C201	C	0.911743	0.595967	0.604096
	C202	C	0.093282	0.406107	0.606023
	C203	C	0.910733	0.404308	0.412883
	C204	C	0.905354	0.594491	0.108309
	C205	C	0.098328	0.410514	0.106216
	C206	C	0.095344	0.592695	0.915224
	C207	C	0.906301	0.410755	0.913975
	C208	C	0.098622	0.905248	0.600628
	C209	C	0.098685	0.097680	0.418073
	C210	C	0.907264	0.096635	0.601253
	C211	C	0.906342	0.905476	0.419800
	C212	C	0.593348	0.097487	0.914703
	C213	C	0.409748	0.099209	0.105511
	C214	C	0.593554	0.906134	0.106686
	C215	C	0.410852	0.906818	0.914357
	Zn216	Zn	0.502074	0.001714	0.760018
	Zn217	Zn	0.501167	0.002411	0.259252
	Zn218	Zn	0.753114	0.502977	0.009878
	Zn219	Zn	0.251749	0.503294	0.010583
	Zn220	Zn	0.002693	0.750798	0.510277
	Zn221	Zn	0.002721	0.251315	0.509135
	Zn222	Zn	0.001663	0.501591	0.760062
	Zn223	Zn	0.002308	0.501028	0.260448
	Zn224	Zn	0.502018	0.752772	0.010764
	Zn225	Zn	0.502135	0.252506	0.009792
	Zn226	Zn	0.752282	0.001630	0.509696
	Zn227	Zn	0.252403	0.000595	0.508523
	N228	N	0.414601	0.965943	0.690483
	N229	N	0.591168	0.036954	0.692043
	N230	N	0.588374	0.966823	0.329524
	N231	N	0.413038	0.037309	0.327873
	N232	N	0.683047	0.415771	0.973976
	N233	N	0.682627	0.589786	0.045236
	N234	N	0.319846	0.592345	0.975852
	N235	N	0.322992	0.417293	0.046352
	N236	N	0.966927	0.681011	0.423552
	N237	N	0.038150	0.681942	0.597588
	N238	N	0.966549	0.321157	0.596576
	N239	N	0.039120	0.321669	0.423173
	N240	N	0.966188	0.413662	0.690597
	N241	N	0.037227	0.589324	0.691032
	N242	N	0.966431	0.586934	0.331487
	N243	N	0.038562	0.413405	0.329180
	N244	N	0.415046	0.683174	0.974778
	N245	N	0.589101	0.682297	0.045520
	N246	N	0.591379	0.320922	0.974580
	N247	N	0.415386	0.322858	0.045306
	N248	N	0.681613	0.965906	0.423156
	N249	N	0.682903	0.037528	0.597753
	N250	N	0.323500	0.964527	0.595130
	N251	N	0.321371	0.037029	0.421520
	N252	N	0.914814	0.466304	0.190817
	N253	N	0.089987	0.536470	0.191459
	N254	N	0.090175	0.466667	0.829400
	N255	N	0.913017	0.536644	0.827542
	N256	N	0.181977	0.914152	0.473540
	N257	N	0.183698	0.088284	0.544643
	N258	N	0.822877	0.087556	0.474485
	N259	N	0.820207	0.912295	0.545474
	N260	N	0.467095	0.184043	0.921536
	N261	N	0.537613	0.182132	0.096261
	N262	N	0.466298	0.822467	0.097499
	N263	N	0.538156	0.822176	0.923748
	N264	N	0.465294	0.916770	0.188586
	N265	N	0.536074	0.091054	0.191094
	N266	N	0.466420	0.089596	0.829605
	N267	N	0.537528	0.914143	0.829385
	N268	N	0.915553	0.181072	0.474093
	N269	N	0.090778	0.181977	0.544675
	N270	N	0.089383	0.820953	0.474157
	N271	N	0.914657	0.820287	0.546056
	N272	N	0.183350	0.467574	0.922566
	N273	N	0.181421	0.538300	0.097168
	N274	N	0.822908	0.466594	0.096761
	N275	N	0.823634	0.539020	0.923778
	O276	O	0.322028	0.322981	0.676382
	H277	H	0.308453	0.316969	0.635281
	H278	H	0.326980	0.341389	0.684418
	O279	O	0.638958	0.671157	0.363329
	H280	H	0.638758	0.673212	0.362324
	H281	H	0.619319	0.666838	0.368477
	O282	O	0.572940	0.301774	0.387392
	H283	H	0.583308	0.303213	0.411257
	H284	H	0.574025	0.332501	0.377643
	O285	O	1.041362	0.986895	0.079041
	H286	H	1.036439	0.996987	0.080523
	H287	H	1.042115	0.984246	0.082959
	O288	O	0.496348	0.559987	0.667386
	H289	H	0.485506	0.560959	0.663923
	H290	H	0.507286	0.566511	0.672114
	O291	O	0.604444	0.401321	0.409399
	H292	H	0.617015	0.398860	0.406837
	H293	H	0.611829	0.388246	0.422388
	O294	O	0.891608	0.796645	0.975102
	H295	H	0.902999	0.806160	0.963761
	H296	H	0.899523	0.793928	0.988635
	O297	O	0.290026	0.499134	0.684876
	H298	H	0.284101	0.496749	0.705770
	H299	H	0.294778	0.477024	0.692517
	O300	O	0.567039	0.373086	0.645887
	H301	H	0.563683	0.352797	0.669595
	H302	H	0.578207	0.379257	0.643171
	O303	O	0.443072	0.580591	0.451021
	H304	H	0.442595	0.597162	0.450950
	H305	H	0.424162	0.568435	0.448849
	O306	O	-0.078746	-0.169200	1.207776
	H307	H	-0.078989	-0.177580	1.204797
	H308	H	-0.099423	-0.150929	1.208659
	O309	O	0.940611	0.070713	0.036181
	H310	H	0.950812	0.062108	0.034933
	H311	H	0.953300	0.067242	0.038702
	O312	O	0.302349	0.514575	0.406083
	H313	H	0.299112	0.510821	0.388015
	H314	H	0.305267	0.497875	0.414752
	O315	O	-0.053168	-0.142809	0.844886
	H316	H	-0.049308	-0.145171	0.849231
	H317	H	-0.064163	-0.128304	0.833882
	O318	O	-0.140381	0.023774	-0.014195
	H319	H	-0.128615	0.030069	-0.001551
	H320	H	-0.136125	0.017158	0.002963
	O321	O	1.143902	0.172636	0.194835
	H322	H	1.153741	0.165703	0.177284
	H323	H	1.149675	0.163202	0.183828
	O324	O	0.797792	-0.128073	1.056754
	H325	H	0.816416	-0.116556	1.035643
	H326	H	0.782383	-0.150594	1.057970
	O327	O	0.368368	0.418289	0.348721
	H328	H	0.380799	0.428494	0.345343
	H329	H	0.369280	0.425586	0.326828
	O330	O	-0.069685	1.196944	0.813830
	H331	H	-0.080700	1.196069	0.811153
	H332	H	-0.094904	1.208214	0.826345
	O333	O	0.181683	0.821307	-0.165715
	H334	H	0.189276	0.845763	-0.156963
	H335	H	0.138324	0.814309	-0.168793
	O336	O	1.173840	1.030352	0.201039
	H337	H	1.178576	1.025916	0.187502
	H338	H	1.168895	1.026104	0.205966
	O339	O	0.010433	1.052760	0.927356
	H340	H	0.017397	1.055754	0.940314
	H341	H	-0.003799	1.065529	0.927899
	O342	O	0.704999	0.528233	0.672265
	H343	H	0.705717	0.539342	0.649907
	H344	H	0.721619	0.532432	0.695495
	O345	O	0.117829	-0.139003	0.996486
	H346	H	0.124704	-0.136010	0.978366
	H347	H	0.131901	-0.151308	0.999791
	O348	O	0.491355	0.605346	0.329471
	H349	H	0.472219	0.610059	0.341450
	H350	H	0.501171	0.616148	0.339013
	O351	O	1.125423	1.030408	0.078316
	H352	H	1.117418	1.033223	0.083287
	H353	H	1.122892	1.037883	0.068194
	O354	O	1.098041	0.852481	1.058053
	H355	H	1.100924	0.860102	1.079965
	H356	H	1.109363	0.841537	1.054038
	O357	O	-0.138244	-0.183210	0.123107
	H358	H	-0.151032	-0.193356	0.136724
	H359	H	-0.141104	-0.188943	0.084128
	O360	O	0.691767	0.690480	0.603456
	H361	H	0.680496	0.703562	0.603141
	H362	H	0.683819	0.695879	0.604366
	O363	O	1.217664	0.000977	-0.143778
	H364	H	1.223265	-0.027463	-0.140856
	H365	H	1.220705	0.003563	-0.154441
	O366	O	0.003634	0.098981	0.798343
	H367	H	-0.024421	0.094385	0.806982
	H368	H	-0.002094	0.124153	0.786450
	O369	O	0.446828	0.646173	0.520820
	H370	H	0.440612	0.636944	0.530803
	H371	H	0.437619	0.640763	0.519470
	O372	O	0.699554	0.310367	0.506017
	H373	H	0.689364	0.305025	0.501245
	H374	H	0.711573	0.301405	0.495360
	O375	O	0.081785	0.121177	1.076349
	H376	H	0.094121	0.122000	1.068912
	H377	H	0.083721	0.109659	1.061943
	O378	O	-0.149339	-0.037692	0.130938
	H379	H	-0.163749	-0.042491	0.145528
	H380	H	-0.146176	-0.040089	0.139819
	O381	O	0.074337	1.005484	-0.020015
	H382	H	0.071511	1.013074	-0.021692
	H383	H	0.073906	1.004007	-0.020381
	O384	O	0.512129	0.641273	0.666521
	H385	H	0.502004	0.645370	0.671540
	H386	H	0.491524	0.637196	0.672599
	O387	O	0.571564	0.697864	0.658201
	H388	H	0.576102	0.687575	0.640807
	H389	H	0.539272	0.708196	0.668037
	O390	O	1.180802	1.046363	-0.006679
	H391	H	1.174957	1.031877	-0.017637
	H392	H	1.174029	1.046044	-0.017398
	O393	O	0.450055	0.396457	0.352806
	H394	H	0.463041	0.398184	0.351153
	H395	H	0.461068	0.390004	0.333780
	O396	O	0.434069	0.517458	0.596083
	H397	H	0.437220	0.525655	0.577843
	H398	H	0.439621	0.511611	0.613486
	O399	O	0.526000	0.373617	0.397633
	H400	H	0.515988	0.373275	0.421338
	H401	H	0.529498	0.341298	0.383371
	O402	O	0.881824	0.937208	-0.190378
	H403	H	0.875749	0.928564	-0.203901
	H404	H	0.863827	0.937331	-0.190139
	O405	O	0.336237	0.514052	0.457956
	H406	H	0.334620	0.515789	0.455391
	H407	H	0.322983	0.498641	0.461615
	O408	O	0.300257	0.635091	0.442287
	H409	H	0.292522	0.629895	0.458603
	H410	H	0.287919	0.614824	0.436514
	O411	O	1.114426	1.178950	0.937753
	H412	H	1.119756	1.162208	0.945664
	H413	H	1.091268	1.186084	0.908218
	O414	O	0.473192	0.287229	0.720606
	H415	H	0.461584	0.296183	0.729500
	H416	H	0.452980	0.267488	0.741176
	O417	O	-0.188947	1.119801	0.819544
	H418	H	-0.192785	1.096097	0.824313
	H419	H	-0.211572	1.128993	0.837151
	O420	O	-0.129551	1.111169	0.923409
	H421	H	-0.114303	1.126246	0.932976
	H422	H	-0.143229	1.115928	0.932350
	O423	O	-0.026335	1.150428	0.192846
	H424	H	0.002378	1.146599	0.194326
	H425	H	-0.022698	1.159504	0.202722
	O426	O	0.594704	0.400993	0.317186
	H427	H	0.575494	0.399641	0.315805
	H428	H	0.600465	0.400943	0.332162
	O429	O	0.474981	0.344951	0.572120
	H430	H	0.493546	0.344031	0.567430
	H431	H	0.464669	0.329117	0.562786
	O432	O	0.584393	0.521010	0.566624
	H433	H	0.591587	0.527360	0.557901
	H434	H	0.602934	0.507629	0.572344
	O435	O	-0.102282	0.001221	0.166766
	H436	H	-0.107816	-0.011894	0.177942
	H437	H	-0.105489	-0.013706	0.162827
	O438	O	0.657000	0.581758	0.451687
	H439	H	0.642890	0.580850	0.456268
	H440	H	0.652430	0.584268	0.458570
	O441	O	0.499014	0.643535	0.403517
	H442	H	0.502881	0.644287	0.407532
	H443	H	0.497333	0.634520	0.406995
