data_Molecule from HDF5

_cell_length_a		16.301606
_cell_length_b		16.348988
_cell_length_c		16.371793
_cell_angle_alpha	89.942121
_cell_angle_beta	90.008251
_cell_angle_gamma	90.183452
_symmetry_space_group_name_H-M	'P 1'
_symmetry_Int_Tables_number		1

loop_
	_symmetry_equiv_pos_as_xyz
	x,y,z

loop_
	_atom_site_label
	_atom_site_type_symbol
	_atom_site_fract_x
	_atom_site_fract_y
	_atom_site_fract_z
	H0	H	0.401677	0.841367	0.727853
	H1	H	0.606675	0.164568	0.728160
	H2	H	0.604801	0.842719	0.291488
	H3	H	0.398622	0.164204	0.290791
	H4	H	0.720372	0.404279	0.847010
	H5	H	0.723842	0.607483	0.169735
	H6	H	0.289270	0.605201	0.846676
	H7	H	0.285373	0.401410	0.169037
	H8	H	0.843520	0.720829	0.405474
	H9	H	0.166312	0.721416	0.611274
	H10	H	0.842791	0.284765	0.612771
	H11	H	0.166439	0.286058	0.408487
	H12	H	0.843814	0.398997	0.728324
	H13	H	0.166344	0.605332	0.726230
	H14	H	0.842789	0.605422	0.291054
	H15	H	0.165446	0.400413	0.289241
	H16	H	0.402621	0.723685	0.849116
	H17	H	0.605837	0.721762	0.171024
	H18	H	0.607393	0.285437	0.849071
	H19	H	0.401383	0.286071	0.169792
	H20	H	0.721129	0.842188	0.407842
	H21	H	0.723886	0.164306	0.612565
	H22	H	0.284456	0.841970	0.613871
	H23	H	0.285203	0.164568	0.410515
	H24	H	0.897949	0.343779	0.228676
	H25	H	0.107646	0.664671	0.227323
	H26	H	0.107874	0.342262	0.790452
	H27	H	0.903869	0.664450	0.789457
	H28	H	0.223987	0.900527	0.350107
	H29	H	0.221102	0.104784	0.672714
	H30	H	0.787867	0.104131	0.348138
	H31	H	0.786565	0.900163	0.670465
	H32	H	0.341468	0.221601	0.907486
	H33	H	0.663948	0.224692	0.114412
	H34	H	0.341923	0.785341	0.113654
	H35	H	0.666005	0.790140	0.911934
	H36	H	0.341761	0.900789	0.228866
	H37	H	0.663848	0.108495	0.229627
	H38	H	0.341805	0.106418	0.791243
	H39	H	0.664752	0.901078	0.791923
	H40	H	0.902820	0.220372	0.349238
	H41	H	0.108572	0.223587	0.670178
	H42	H	0.108229	0.784696	0.348617
	H43	H	0.901480	0.781795	0.669245
	H44	H	0.223425	0.342544	0.905921
	H45	H	0.222519	0.665585	0.108830
	H46	H	0.783141	0.344202	0.111523
	H47	H	0.789353	0.666416	0.907833
	H48	H	0.410773	0.118779	0.601220
	H49	H	0.596889	0.890466	0.595075
	H50	H	0.589952	0.118250	0.415695
	H51	H	0.407445	0.887917	0.422374
	H52	H	0.597122	0.409118	0.126464
	H53	H	0.594325	0.594564	0.895757
	H54	H	0.408881	0.600166	0.127085
	H55	H	0.415816	0.410116	0.893205
	H56	H	0.121007	0.599489	0.419105
	H57	H	0.889201	0.596555	0.597928
	H58	H	0.121056	0.403862	0.594792
	H59	H	0.890506	0.421672	0.411391
	H60	H	0.115644	0.420667	0.594444
	H61	H	0.892407	0.588432	0.593885
	H62	H	0.116793	0.589442	0.421220
	H63	H	0.885182	0.401774	0.414719
	H64	H	0.409700	0.588205	0.122622
	H65	H	0.593521	0.601639	0.894008
	H66	H	0.596998	0.422871	0.121575
	H67	H	0.410291	0.414139	0.893081
	H68	H	0.592857	0.115972	0.425918
	H69	H	0.599418	0.885335	0.607400
	H70	H	0.415660	0.116975	0.602420
	H71	H	0.415348	0.887369	0.412764
	H72	H	0.921682	0.613916	0.093148
	H73	H	0.098357	0.390152	0.095191
	H74	H	0.093793	0.617288	0.918048
	H75	H	0.916765	0.391391	0.919432
	H76	H	0.099898	0.914333	0.625688
	H77	H	0.090253	0.091617	0.398489
	H78	H	0.917513	0.098402	0.625136
	H79	H	0.917095	0.916136	0.397619
	H80	H	0.620889	0.097207	0.912661
	H81	H	0.390356	0.092747	0.096819
	H82	H	0.617709	0.913213	0.102015
	H83	H	0.390521	0.915399	0.926054
	H84	H	0.617972	0.914697	0.101505
	H85	H	0.388286	0.092591	0.103896
	H86	H	0.617137	0.100042	0.924059
	H87	H	0.388307	0.917246	0.913850
	H88	H	0.908152	0.093341	0.626675
	H89	H	0.095253	0.097987	0.395009
	H90	H	0.086917	0.916127	0.620688
	H91	H	0.915165	0.903882	0.392945
	H92	H	0.098787	0.618394	0.917489
	H93	H	0.093746	0.388207	0.104152
	H94	H	0.904191	0.620608	0.096349
	H95	H	0.909326	0.389000	0.921777
	H96	H	0.413529	0.116597	0.597471
	H97	H	0.587351	0.890061	0.603823
	H98	H	0.600635	0.120446	0.418721
	H99	H	0.418539	0.892980	0.424110
	H100	H	0.585078	0.414255	0.120341
	H101	H	0.599683	0.598658	0.893178
	H102	H	0.419647	0.596269	0.122162
	H103	H	0.416207	0.416243	0.896003
	H104	H	0.121539	0.592394	0.411426
	H105	H	0.889859	0.588950	0.603236
	H106	H	0.121233	0.414025	0.609549
	H107	H	0.894136	0.412895	0.430346
	H108	H	0.917593	0.621580	0.109854
	H109	H	0.088761	0.391887	0.096221
	H110	H	0.095450	0.619249	0.913495
	H111	H	0.911563	0.388184	0.914766
	H112	H	0.090824	0.904200	0.626003
	H113	H	0.098050	0.089773	0.396607
	H114	H	0.916310	0.088206	0.622244
	H115	H	0.905355	0.912854	0.392650
	H116	H	0.616378	0.088281	0.920181
	H117	H	0.387817	0.098481	0.100705
	H118	H	0.618326	0.914151	0.102750
	H119	H	0.385229	0.906806	0.919040
	C120	C	0.382208	0.011038	0.631902
	C121	C	0.625602	0.994977	0.632215
	C122	C	0.624635	0.011968	0.388989
	C123	C	0.381594	0.995211	0.388988
	C124	C	0.624575	0.384101	0.017120
	C125	C	0.626198	0.627722	1.000859
	C126	C	0.382925	0.625666	0.017595
	C127	C	0.382549	0.382569	1.000287
	C128	C	0.012969	0.624491	0.386677
	C129	C	0.996937	0.622974	0.629016
	C130	C	0.013189	0.381120	0.631108
	C131	C	0.996179	0.381317	0.387604
	C132	C	0.882283	0.512679	0.130691
	C133	C	0.124930	0.495897	0.129131
	C134	C	0.126468	0.511730	0.886393
	C135	C	0.882875	0.495808	0.887261
	C136	C	0.124809	0.881089	0.518179
	C137	C	0.125836	0.124568	0.502408
	C138	C	0.883094	0.124020	0.518448
	C139	C	0.881732	0.879697	0.500423
	C140	C	0.511389	0.125399	0.888612
	C141	C	0.495073	0.126110	0.131542
	C142	C	0.511269	0.882642	0.132389
	C143	C	0.494852	0.883210	0.889513
	C144	C	0.382156	0.889685	0.689417
	C145	C	0.626230	0.116311	0.689570
	C146	C	0.623962	0.890906	0.330870
	C147	C	0.380381	0.116302	0.330860
	C148	C	0.682282	0.384403	0.895764
	C149	C	0.684459	0.626975	0.121754
	C150	C	0.326753	0.625322	0.895737
	C151	C	0.324293	0.382255	0.120872
	C152	C	0.891745	0.682074	0.386800
	C153	C	0.118026	0.682244	0.629943
	C154	C	0.891663	0.323222	0.631775
	C155	C	0.117886	0.324210	0.388029
	C156	C	0.891864	0.380470	0.689230
	C157	C	0.118054	0.624619	0.687458
	C158	C	0.891418	0.624608	0.329640
	C159	C	0.117405	0.381166	0.328900
	C160	C	0.383560	0.683901	0.896686
	C161	C	0.625739	0.683643	0.122700
	C162	C	0.626291	0.325084	0.896736
	C163	C	0.381975	0.324817	0.121309
	C164	C	0.682016	0.890428	0.388430
	C165	C	0.684351	0.116043	0.631781
	C166	C	0.323908	0.889921	0.632343
	C167	C	0.323947	0.116273	0.390328
	C168	C	0.879693	0.392076	0.189384
	C169	C	0.126644	0.616793	0.187828
	C170	C	0.126808	0.390474	0.829176
	C171	C	0.883881	0.616450	0.828659
	C172	C	0.184494	0.881011	0.398040
	C173	C	0.183260	0.124773	0.623757
	C174	C	0.826181	0.123707	0.396616
	C175	C	0.824792	0.880236	0.621956
	C176	C	0.389899	0.183302	0.888058
	C177	C	0.615746	0.185272	0.132954
	C178	C	0.390299	0.824151	0.132745
	C179	C	0.617059	0.827189	0.891008
	C180	C	0.390000	0.881911	0.190025
	C181	C	0.615720	0.127601	0.190633
	C182	C	0.389982	0.125674	0.830406
	C183	C	0.616456	0.882780	0.831564
	C184	C	0.883181	0.181566	0.397188
	C185	C	0.126998	0.183624	0.622762
	C186	C	0.126787	0.823443	0.396936
	C187	C	0.882080	0.821504	0.621334
	C188	C	0.184389	0.390803	0.886840
	C189	C	0.183432	0.617226	0.128726
	C190	C	0.822803	0.392186	0.130637
	C191	C	0.827016	0.617631	0.887541
	C192	C	0.406361	0.095506	0.607372
	C193	C	0.601469	0.910604	0.608982
	C194	C	0.601292	0.096244	0.413132
	C195	C	0.406478	0.911162	0.412764
	C196	C	0.600263	0.408390	0.100907
	C197	C	0.602622	0.605080	0.916345
	C198	C	0.406083	0.601833	0.102121
	C199	C	0.407039	0.406606	0.915993
	C200	C	0.097845	0.600560	0.410289
	C201	C	0.912532	0.598412	0.605188
	C202	C	0.097471	0.405545	0.606476
	C203	C	0.911876	0.405243	0.411648
	C204	C	0.907473	0.597016	0.106796
	C205	C	0.100585	0.411947	0.105496
	C206	C	0.102803	0.596188	0.909420
	C207	C	0.905909	0.411279	0.911603
	C208	C	0.099746	0.904765	0.602188
	C209	C	0.101519	0.100298	0.418412
	C210	C	0.906791	0.100197	0.602611
	C211	C	0.905548	0.903829	0.416284
	C212	C	0.596014	0.102021	0.912273
	C213	C	0.410757	0.101638	0.107383
	C214	C	0.595950	0.907024	0.108933
	C215	C	0.410061	0.906582	0.912865
	Zn216	Zn	0.502955	0.003575	0.760540
	Zn217	Zn	0.503092	0.004530	0.260014
	Zn218	Zn	0.753632	0.505409	0.008596
	Zn219	Zn	0.254375	0.503982	0.007945
	Zn220	Zn	0.004690	0.751823	0.508351
	Zn221	Zn	0.004474	0.252792	0.510296
	Zn222	Zn	0.004908	0.502787	0.758531
	Zn223	Zn	0.004071	0.503576	0.258955
	Zn224	Zn	0.503758	0.755019	0.010553
	Zn225	Zn	0.503876	0.254547	0.009407
	Zn226	Zn	0.753986	0.003335	0.509626
	Zn227	Zn	0.253397	0.002975	0.511683
	N228	N	0.417555	0.966132	0.689167
	N229	N	0.590517	0.039960	0.690170
	N230	N	0.588949	0.967383	0.330984
	N231	N	0.415358	0.039859	0.329588
	N232	N	0.681328	0.420427	0.971561
	N233	N	0.684764	0.592878	0.045109
	N234	N	0.326404	0.589651	0.971896
	N235	N	0.324607	0.417296	0.044479
	N236	N	0.968455	0.681803	0.421679
	N237	N	0.041571	0.681375	0.594372
	N238	N	0.968128	0.323398	0.596236
	N239	N	0.041512	0.323995	0.423631
	N240	N	0.968486	0.415515	0.689068
	N241	N	0.042002	0.588277	0.686819
	N242	N	0.967967	0.589467	0.329539
	N243	N	0.040557	0.415697	0.328331
	N244	N	0.417554	0.684275	0.973480
	N245	N	0.590341	0.684303	0.046565
	N246	N	0.590888	0.324860	0.972905
	N247	N	0.417565	0.325067	0.045265
	N248	N	0.682598	0.966549	0.423854
	N249	N	0.684223	0.039571	0.596962
	N250	N	0.323995	0.966373	0.597383
	N251	N	0.324476	0.040048	0.425313
	N252	N	0.916042	0.468072	0.189305
	N253	N	0.091085	0.540440	0.188405
	N254	N	0.091338	0.466684	0.828881
	N255	N	0.917787	0.539380	0.828275
	N256	N	0.183264	0.916145	0.474314
	N257	N	0.182516	0.088736	0.547961
	N258	N	0.825936	0.088613	0.473100
	N259	N	0.824257	0.915416	0.545684
	N260	N	0.466381	0.183478	0.923550
	N261	N	0.539639	0.184537	0.096962
	N262	N	0.466935	0.824417	0.097752
	N263	N	0.540571	0.827447	0.926310
	N264	N	0.466368	0.917550	0.190027
	N265	N	0.539607	0.091581	0.189986
	N266	N	0.466372	0.090437	0.830545
	N267	N	0.539350	0.916892	0.830503
	N268	N	0.917847	0.182011	0.473666
	N269	N	0.092090	0.183630	0.546333
	N270	N	0.090592	0.823232	0.472715
	N271	N	0.916393	0.820795	0.544595
	N272	N	0.184281	0.467118	0.921515
	N273	N	0.182651	0.541146	0.093049
	N274	N	0.824145	0.468327	0.095031
	N275	N	0.826321	0.541673	0.923218
	O276	O	-0.085001	0.092915	-0.067479
	H277	H	-0.075330	0.088972	-0.059480
	H278	H	-0.089483	0.090475	-0.052626
	O279	O	0.538154	0.356285	0.369537
	H280	H	0.535850	0.362794	0.392392
	H281	H	0.548456	0.358425	0.365596
	O282	O	0.438746	-0.409631	0.547920
	H283	H	0.443587	-0.424703	0.538188
	H284	H	0.427517	-0.399376	0.564389
	O285	O	0.601178	0.436747	0.343008
	H286	H	0.609870	0.451250	0.351616
	H287	H	0.619484	0.437866	0.330414
	O288	O	1.161166	1.085215	1.039681
	H289	H	1.165764	1.080589	1.042805
	H290	H	1.165794	1.098141	1.038548
	O291	O	0.148887	1.002820	0.093601
	H292	H	0.151723	1.013952	0.086128
	H293	H	0.133569	1.000905	0.100649
	O294	O	0.650508	0.589549	0.448258
	H295	H	0.667222	0.600451	0.449804
	H296	H	0.649130	0.585236	0.476820
	O297	O	0.404362	0.358103	0.647805
	H298	H	0.398215	0.356469	0.647381
	H299	H	0.385795	0.349075	0.646221
	O300	O	0.422867	0.554203	0.617023
	H301	H	0.421760	0.547463	0.604206
	H302	H	0.411555	0.554472	0.599526
	O303	O	0.674353	0.430482	0.540768
	H304	H	0.680029	0.425605	0.538569
	H305	H	0.676564	0.426953	0.521469
	O306	O	0.341862	0.582146	0.574321
	H307	H	0.349076	0.589336	0.578027
	H308	H	0.341183	0.597883	0.551417
	O309	O	0.345071	0.576122	0.442451
	H310	H	0.359009	0.582464	0.436631
	H311	H	0.351151	0.589210	0.441177
	O312	O	0.100058	0.032256	0.186773
	H313	H	0.106630	0.013780	0.190398
	H314	H	0.107471	0.049777	0.202475
	O315	O	0.894090	-0.070934	1.018278
	H316	H	0.893425	-0.063501	1.024329
	H317	H	0.905368	-0.072010	1.006966
	O318	O	0.003675	1.040765	1.065673
	H319	H	0.008554	1.048703	1.073291
	H320	H	-0.003038	1.043879	1.063514
	O321	O	0.608423	0.387595	0.576666
	H322	H	0.590779	0.397938	0.590905
	H323	H	0.606982	0.380664	0.573912
	O324	O	-0.099217	1.128761	-0.166227
	H325	H	-0.115823	1.116685	-0.172755
	H326	H	-0.099712	1.140844	-0.145824
	O327	O	-0.010348	-0.160922	0.104236
	H328	H	-0.025981	-0.157806	0.101138
	H329	H	0.000721	-0.143406	0.111973
	O330	O	-0.124074	-0.098642	0.946214
	H331	H	-0.119076	-0.099945	0.953647
	H332	H	-0.113437	-0.094381	0.941497
	O333	O	-0.099804	0.046817	1.023533
	H334	H	-0.105036	0.036570	1.018548
	H335	H	-0.104428	0.051216	1.021808
	O336	O	0.668817	0.631390	0.448410
	H337	H	0.663722	0.616951	0.477736
	H338	H	0.697065	0.647794	0.457295
	O339	O	0.928237	-0.058852	-0.084580
	H340	H	0.924180	-0.057754	-0.092757
	H341	H	0.945152	-0.064743	-0.066804
	O342	O	-0.360541	-0.571164	0.432092
	H343	H	-0.378444	-0.572412	0.444662
	H344	H	-0.360033	-0.549886	0.425181
	O345	O	0.759361	0.371113	0.745649
	H346	H	0.749621	0.355456	0.734982
	H347	H	0.770285	0.355903	0.753293
	O348	O	1.098620	0.827248	-0.110077
	H349	H	1.100241	0.829409	-0.107014
	H350	H	1.089628	0.831633	-0.097660
	O351	O	0.612745	0.520994	0.582368
	H352	H	0.608490	0.512083	0.583298
	H353	H	0.594580	0.512316	0.583069
	O354	O	1.112152	0.128173	1.069178
	H355	H	1.127728	0.120457	1.065929
	H356	H	1.123311	0.129729	1.084179
	O357	O	0.396261	0.341079	0.527502
	H358	H	0.396726	0.334645	0.526969
	H359	H	0.402023	0.351414	0.523965
	O360	O	0.515249	0.511071	0.404841
	H361	H	0.519805	0.510504	0.395776
	H362	H	0.518061	0.503112	0.420969
	O363	O	0.095849	1.101912	0.992715
	H364	H	0.099008	1.101650	0.995831
	H365	H	0.108277	1.112517	0.988919
	O366	O	0.395072	0.655148	0.346277
	H367	H	0.408687	0.662377	0.362146
	H368	H	0.402430	0.664057	0.332062
	O369	O	-0.053884	0.988419	-0.158325
	H370	H	-0.066132	0.988183	-0.151746
	H371	H	-0.064733	0.978676	-0.152371
	O372	O	0.403983	0.542925	0.417238
	H373	H	0.414618	0.545750	0.414381
	H374	H	0.414469	0.549031	0.411491
	O375	O	0.688612	0.653207	0.678476
	H376	H	0.692492	0.636665	0.690153
	H377	H	0.676580	0.648461	0.695517
	O378	O	1.454413	0.626307	-0.407425
	H379	H	1.452445	0.633330	-0.405941
	H380	H	1.468326	0.638451	-0.410300
	O381	O	1.050603	0.111317	0.051368
	H382	H	1.048602	0.108968	0.057999
	H383	H	1.057241	0.119523	0.049357
	O384	O	0.867923	0.991700	0.098423
	H385	H	0.873344	0.997798	0.105126
	H386	H	0.878856	0.987884	0.101451
	O387	O	0.128782	0.050937	-0.029436
	H388	H	0.126527	0.052708	-0.034766
	H389	H	0.129846	0.046503	-0.027233
	O390	O	0.018288	0.887719	0.106100
	H391	H	0.029476	0.889269	0.107896
	H392	H	0.016347	0.886565	0.114197
	O393	O	0.932709	1.020054	1.100306
	H394	H	0.929554	1.027807	1.097675
	H395	H	0.940111	1.011376	1.108083
	O396	O	0.490089	0.389137	0.477382
	H397	H	0.496381	0.395993	0.481014
	H398	H	0.492532	0.382195	0.479473
	O399	O	0.025516	0.957976	1.151466
	H400	H	0.024980	0.972449	1.147037
	H401	H	0.015259	0.958253	1.144421
	O402	O	0.429452	0.424137	0.352622
	H403	H	0.434839	0.433214	0.378926
	H404	H	0.414146	0.442965	0.336830
	O405	O	0.999715	1.005523	0.192153
	H406	H	0.988666	1.012634	0.180325
	H407	H	1.000442	1.011284	0.200481
	O408	O	1.063149	1.046297	-0.194851
	H409	H	1.060417	1.050715	-0.206930
	H410	H	1.049351	1.043896	-0.194726
	O411	O	1.001160	-0.091663	0.949790
	H412	H	0.992008	-0.089409	0.959044
	H413	H	1.007040	-0.079534	0.953986
	O414	O	0.519425	0.517674	0.493242
	H415	H	0.518717	0.513377	0.493656
	H416	H	0.518328	0.519014	0.500113
	O417	O	0.396932	0.446403	0.689104
	H418	H	0.385035	0.448610	0.697169
	H419	H	0.386205	0.446932	0.694811
