data_Molecule from HDF5

_cell_length_a		16.626310
_cell_length_b		16.627764
_cell_length_c		16.530917
_cell_angle_alpha	90.011663
_cell_angle_beta	89.869066
_cell_angle_gamma	90.130842
_symmetry_space_group_name_H-M	'P 1'
_symmetry_Int_Tables_number		1

loop_
	_symmetry_equiv_pos_as_xyz
	x,y,z

loop_
	_atom_site_label
	_atom_site_type_symbol
	_atom_site_fract_x
	_atom_site_fract_y
	_atom_site_fract_z
	H0	H	0.396889	0.845863	0.716020
	H1	H	0.605113	0.158997	0.716511
	H2	H	0.607694	0.847464	0.274262
	H3	H	0.397277	0.156858	0.275446
	H4	H	0.724442	0.395370	0.840588
	H5	H	0.721001	0.606442	0.153430
	H6	H	0.282838	0.603855	0.839614
	H7	H	0.277023	0.393014	0.150889
	H8	H	0.846023	0.722266	0.392979
	H9	H	0.156620	0.725237	0.603351
	H10	H	0.845339	0.280749	0.601695
	H11	H	0.157056	0.280902	0.390070
	H12	H	0.844267	0.398584	0.716636
	H13	H	0.157120	0.607211	0.717737
	H14	H	0.846579	0.607384	0.275241
	H15	H	0.157381	0.397142	0.274890
	H16	H	0.399262	0.719987	0.839227
	H17	H	0.606851	0.723363	0.152157
	H18	H	0.608489	0.278328	0.840291
	H19	H	0.393537	0.277963	0.151819
	H20	H	0.723085	0.847276	0.391031
	H21	H	0.722650	0.158884	0.601416
	H22	H	0.278239	0.847816	0.602542
	H23	H	0.279312	0.156011	0.390603
	H24	H	0.893577	0.347662	0.219885
	H25	H	0.108456	0.656629	0.217781
	H26	H	0.104231	0.344949	0.775926
	H27	H	0.897599	0.657805	0.776760
	H28	H	0.223134	0.896378	0.340354
	H29	H	0.223914	0.110035	0.651989
	H30	H	0.779341	0.108617	0.341685
	H31	H	0.780327	0.896930	0.653512
	H32	H	0.346424	0.224244	0.888358
	H33	H	0.657074	0.222242	0.098831
	H34	H	0.348763	0.776142	0.104868
	H35	H	0.656491	0.779321	0.889017
	H36	H	0.348288	0.892716	0.220863
	H37	H	0.656948	0.106444	0.216243
	H38	H	0.345167	0.105594	0.774668
	H39	H	0.656964	0.896397	0.773121
	H40	H	0.892889	0.226223	0.341915
	H41	H	0.108734	0.226265	0.651739
	H42	H	0.106198	0.781206	0.340604
	H43	H	0.894916	0.780376	0.652109
	H44	H	0.223314	0.345725	0.889194
	H45	H	0.224649	0.656059	0.101634
	H46	H	0.777145	0.347795	0.104313
	H47	H	0.781666	0.657891	0.891614
	H48	H	0.411445	0.117381	0.594051
	H49	H	0.588867	0.891850	0.584311
	H50	H	0.594944	0.115328	0.409501
	H51	H	0.412269	0.889294	0.408198
	H52	H	0.586132	0.409039	0.107740
	H53	H	0.590433	0.592688	0.883142
	H54	H	0.409151	0.585675	0.108556
	H55	H	0.405073	0.418422	0.883707
	H56	H	0.110507	0.584058	0.408516
	H57	H	0.889665	0.593646	0.587019
	H58	H	0.115340	0.407034	0.585695
	H59	H	0.893801	0.417155	0.413796
	H60	H	0.110418	0.415309	0.579913
	H61	H	0.890937	0.591067	0.582769
	H62	H	0.117126	0.594104	0.398166
	H63	H	0.887989	0.416267	0.403139
	H64	H	0.418340	0.586334	0.106477
	H65	H	0.593957	0.590803	0.882617
	H66	H	0.593323	0.412799	0.110007
	H67	H	0.422001	0.417782	0.889387
	H68	H	0.589727	0.114661	0.403570
	H69	H	0.594169	0.890073	0.583524
	H70	H	0.420402	0.110506	0.582364
	H71	H	0.414321	0.891184	0.408650
	H72	H	0.912910	0.611363	0.079568
	H73	H	0.093611	0.386800	0.089046
	H74	H	0.088566	0.612148	0.907652
	H75	H	0.910934	0.389735	0.910065
	H76	H	0.094726	0.908231	0.612544
	H77	H	0.090778	0.089027	0.385301
	H78	H	0.915746	0.094918	0.608615
	H79	H	0.913346	0.911653	0.383502
	H80	H	0.612751	0.084538	0.900644
	H81	H	0.388635	0.089016	0.087564
	H82	H	0.611938	0.916606	0.085154
	H83	H	0.389234	0.909486	0.906833
	H84	H	0.614501	0.911312	0.084586
	H85	H	0.388669	0.092380	0.083178
	H86	H	0.615931	0.099594	0.905345
	H87	H	0.390766	0.910912	0.908643
	H88	H	0.908942	0.089220	0.608937
	H89	H	0.088241	0.090430	0.385738
	H90	H	0.092329	0.922262	0.606386
	H91	H	0.910695	0.912658	0.383998
	H92	H	0.094939	0.612764	0.909995
	H93	H	0.080338	0.392531	0.086175
	H94	H	0.906687	0.615693	0.086490
	H95	H	0.909887	0.388768	0.906684
	H96	H	0.404768	0.114543	0.578935
	H97	H	0.591944	0.889512	0.588099
	H98	H	0.588063	0.111687	0.410531
	H99	H	0.412726	0.890775	0.410400
	H100	H	0.587532	0.416641	0.105173
	H101	H	0.591153	0.589199	0.884939
	H102	H	0.414017	0.593770	0.110578
	H103	H	0.414648	0.403555	0.881143
	H104	H	0.114320	0.599158	0.413607
	H105	H	0.890494	0.588825	0.587099
	H106	H	0.113692	0.417166	0.590320
	H107	H	0.888993	0.407030	0.410879
	H108	H	0.916203	0.613360	0.088436
	H109	H	0.091072	0.392703	0.076193
	H110	H	0.093469	0.614302	0.903633
	H111	H	0.913110	0.390784	0.907403
	H112	H	0.080745	0.911563	0.606719
	H113	H	0.090491	0.092565	0.384217
	H114	H	0.916729	0.086348	0.605996
	H115	H	0.913164	0.914078	0.384371
	H116	H	0.609261	0.089044	0.915603
	H117	H	0.390524	0.087121	0.082917
	H118	H	0.611084	0.913649	0.079969
	H119	H	0.389908	0.911720	0.905910
	C120	C	0.379887	0.010856	0.617561
	C121	C	0.622902	0.993911	0.617393
	C122	C	0.623134	0.010895	0.375551
	C123	C	0.380500	0.992960	0.375809
	C124	C	0.622279	0.380362	0.004472
	C125	C	0.623524	0.623163	0.987229
	C126	C	0.381765	0.620849	0.004864
	C127	C	0.380396	0.379652	0.987469
	C128	C	0.010709	0.623755	0.375166
	C129	C	0.993050	0.623852	0.618244
	C130	C	0.009627	0.381046	0.617603
	C131	C	0.992809	0.381173	0.375591
	C132	C	0.879363	0.510935	0.118064
	C133	C	0.122150	0.492931	0.116689
	C134	C	0.123300	0.509690	0.874436
	C135	C	0.879852	0.493095	0.875839
	C136	C	0.122056	0.881503	0.505260
	C137	C	0.122715	0.123772	0.487978
	C138	C	0.880923	0.122916	0.504999
	C139	C	0.879898	0.880968	0.487634
	C140	C	0.509830	0.123003	0.874439
	C141	C	0.492338	0.122524	0.117105
	C142	C	0.510658	0.879897	0.117418
	C143	C	0.492972	0.879442	0.874587
	C144	C	0.378179	0.893151	0.676543
	C145	C	0.624148	0.111892	0.677054
	C146	C	0.625652	0.893939	0.314911
	C147	C	0.378455	0.110038	0.315334
	C148	C	0.683726	0.377323	0.887288
	C149	C	0.682058	0.625072	0.105937
	C150	C	0.322568	0.622356	0.886625
	C151	C	0.318227	0.375365	0.104461
	C152	C	0.892986	0.682664	0.374027
	C153	C	0.109827	0.684788	0.621366
	C154	C	0.891979	0.321432	0.619805
	C155	C	0.110108	0.320877	0.372225
	C156	C	0.891585	0.379650	0.677239
	C157	C	0.110156	0.625882	0.678109
	C158	C	0.893189	0.625314	0.315704
	C159	C	0.110378	0.379004	0.315014
	C160	C	0.380385	0.680139	0.886491
	C161	C	0.625202	0.683218	0.105282
	C162	C	0.625990	0.319319	0.887127
	C163	C	0.376221	0.318243	0.104681
	C164	C	0.683022	0.893813	0.372799
	C165	C	0.682685	0.111779	0.619993
	C166	C	0.319277	0.894099	0.620043
	C167	C	0.319988	0.109753	0.372474
	C168	C	0.875847	0.394280	0.179424
	C169	C	0.126132	0.609721	0.177479
	C170	C	0.123635	0.391896	0.815156
	C171	C	0.878771	0.610695	0.816259
	C172	C	0.182664	0.878540	0.387589
	C173	C	0.183272	0.127312	0.605224
	C174	C	0.819757	0.126368	0.388294
	C175	C	0.819827	0.878604	0.605717
	C176	C	0.392655	0.183356	0.870959
	C177	C	0.610040	0.182436	0.118042
	C178	C	0.394916	0.817380	0.122162
	C179	C	0.610011	0.819685	0.871220
	C180	C	0.394578	0.875424	0.179727
	C181	C	0.610117	0.124852	0.176247
	C182	C	0.392252	0.124432	0.814419
	C183	C	0.610281	0.878100	0.813875
	C184	C	0.876375	0.184964	0.388387
	C185	C	0.125957	0.185150	0.605155
	C186	C	0.124556	0.821289	0.387402
	C187	C	0.876762	0.820489	0.605223
	C188	C	0.182900	0.392488	0.871412
	C189	C	0.183989	0.609348	0.119756
	C190	C	0.817980	0.394230	0.121773
	C191	C	0.821010	0.610731	0.873592
	C192	C	0.405092	0.093001	0.592451
	C193	C	0.598572	0.911953	0.592630
	C194	C	0.598094	0.092732	0.400686
	C195	C	0.405674	0.911548	0.401652
	C196	C	0.596320	0.405643	0.086284
	C197	C	0.598914	0.598123	0.905005
	C198	C	0.406638	0.595810	0.087136
	C199	C	0.406587	0.405898	0.905803
	C200	C	0.092629	0.599313	0.399647
	C201	C	0.911413	0.598544	0.592806
	C202	C	0.091642	0.405927	0.592556
	C203	C	0.911592	0.406534	0.401610
	C204	C	0.904811	0.592352	0.092288
	C205	C	0.095631	0.411700	0.091124
	C206	C	0.099110	0.591655	0.899791
	C207	C	0.904354	0.411200	0.900933
	C208	C	0.096505	0.906889	0.587178
	C209	C	0.097116	0.097833	0.406262
	C210	C	0.906626	0.097309	0.586668
	C211	C	0.905294	0.905819	0.405284
	C212	C	0.591458	0.098255	0.900011
	C213	C	0.410698	0.096755	0.092041
	C214	C	0.591383	0.906382	0.090690
	C215	C	0.411179	0.903877	0.900031
	Zn216	Zn	0.501153	0.001481	0.746271
	Zn217	Zn	0.501971	0.001109	0.246863
	Zn218	Zn	0.750990	0.502095	-0.003529
	Zn219	Zn	0.251945	0.500162	-0.003743
	Zn220	Zn	0.001585	0.752727	0.497234
	Zn221	Zn	0.001265	0.251922	0.496457
	Zn222	Zn	0.001291	0.501836	0.746692
	Zn223	Zn	0.001549	0.501762	0.246362
	Zn224	Zn	0.501849	0.750547	-0.003737
	Zn225	Zn	0.500558	0.251514	-0.004479
	Zn226	Zn	0.751735	0.002306	0.496460
	Zn227	Zn	0.251036	0.002506	0.496397
	N228	N	0.415132	0.967023	0.675135
	N229	N	0.587691	0.037529	0.675892
	N230	N	0.589067	0.967680	0.316502
	N231	N	0.415175	0.036296	0.317012
	N232	N	0.681643	0.414677	0.961365
	N233	N	0.681315	0.588589	0.031408
	N234	N	0.323281	0.586224	0.961249
	N235	N	0.320591	0.412898	0.030451
	N236	N	0.967196	0.682102	0.410111
	N237	N	0.035826	0.683662	0.584760
	N238	N	0.966540	0.322000	0.583762
	N239	N	0.035982	0.321844	0.409095
	N240	N	0.965911	0.415953	0.676170
	N241	N	0.036450	0.588747	0.676438
	N242	N	0.967508	0.589637	0.315921
	N243	N	0.036383	0.415570	0.316642
	N244	N	0.416423	0.679405	0.961114
	N245	N	0.589461	0.682293	0.030478
	N246	N	0.588259	0.321228	0.961035
	N247	N	0.414010	0.320818	0.030860
	N248	N	0.681601	0.967784	0.409697
	N249	N	0.682340	0.037401	0.584026
	N250	N	0.320201	0.968577	0.584134
	N251	N	0.321004	0.035832	0.409149
	N252	N	0.913212	0.467961	0.177506
	N253	N	0.088240	0.536407	0.175738
	N254	N	0.087517	0.465961	0.816746
	N255	N	0.914862	0.536497	0.817383
	N256	N	0.181117	0.915523	0.461857
	N257	N	0.181285	0.089589	0.531341
	N258	N	0.822529	0.088304	0.461775
	N259	N	0.821609	0.915576	0.531467
	N260	N	0.466941	0.182788	0.907481
	N261	N	0.535662	0.181405	0.082202
	N262	N	0.468007	0.820120	0.084063
	N263	N	0.536069	0.820377	0.908258
	N264	N	0.467606	0.913930	0.176921
	N265	N	0.535990	0.088243	0.175737
	N266	N	0.466075	0.087802	0.816329
	N267	N	0.536376	0.914711	0.815812
	N268	N	0.914139	0.182697	0.461881
	N269	N	0.088913	0.183167	0.531068
	N270	N	0.087488	0.822940	0.461583
	N271	N	0.913197	0.821489	0.530582
	N272	N	0.182944	0.466826	0.907476
	N273	N	0.181760	0.535436	0.082744
	N274	N	0.819825	0.467895	0.084546
	N275	N	0.821338	0.536525	0.909685
	O276	O	0.136827	0.839505	-0.199043
	H277	H	0.126328	0.835913	-0.196821
	H278	H	0.152881	0.841475	-0.214293
	O279	O	0.339482	0.334547	0.305841
	H280	H	0.344603	0.355070	0.316486
	H281	H	0.345436	0.334507	0.307228
	O282	O	1.009696	0.089911	0.951771
	H283	H	1.008697	0.095386	0.938615
	H284	H	1.015048	0.093427	0.949774
	O285	O	0.323978	0.711127	0.450302
	H286	H	0.337054	0.705855	0.471460
	H287	H	0.311128	0.715528	0.474463
	O288	O	0.276565	0.479545	0.457801
	H289	H	0.284783	0.488451	0.457662
	H290	H	0.272736	0.485915	0.457738
	O291	O	0.314978	0.289112	0.506584
	H292	H	0.301008	0.309545	0.492008
	H293	H	0.314159	0.277158	0.504001
	O294	O	0.937138	-0.080170	1.210319
	H295	H	0.934899	-0.088217	1.207206
	H296	H	0.939454	-0.091065	1.203608
	O297	O	0.488474	0.705376	0.290001
	H298	H	0.457944	0.724435	0.274032
	H299	H	0.478471	0.716277	0.312914
	O300	O	-0.177835	-0.168850	0.823905
	H301	H	-0.165702	-0.152455	0.841436
	H302	H	-0.160749	-0.156400	0.839058
	O303	O	0.706401	0.704402	0.699804
	H304	H	0.712835	0.680421	0.688945
	H305	H	0.723174	0.732037	0.726861
	O306	O	0.619984	0.478000	0.619863
	H307	H	0.619374	0.476044	0.614578
	H308	H	0.606348	0.471969	0.612810
	O309	O	0.613943	0.378282	0.710182
	H310	H	0.612180	0.403741	0.699197
	H311	H	0.624439	0.365188	0.703364
	O312	O	0.533520	0.712630	0.700228
	H313	H	0.556407	0.691942	0.701219
	H314	H	0.541542	0.736736	0.718952
	O315	O	0.955590	0.789771	0.969401
	H316	H	0.958502	0.793434	0.966458
	H317	H	0.937268	0.789186	0.978999
	O318	O	0.576542	0.543578	0.318398
	H319	H	0.574001	0.574789	0.312506
	H320	H	0.587495	0.541309	0.316392
	O321	O	0.186569	1.026005	0.939951
	H322	H	0.190312	1.026650	0.917309
	H323	H	0.183081	1.044142	0.941033
	O324	O	0.981607	0.777234	0.189474
	H325	H	0.989298	0.749797	0.201526
	H326	H	0.966863	0.784085	0.176899
	O327	O	-0.003321	0.043304	1.067935
	H328	H	0.010427	0.039311	1.075145
	H329	H	0.005100	0.060596	1.061401
	O330	O	0.407252	0.485756	0.282467
	H331	H	0.414756	0.493253	0.289651
	H332	H	0.394056	0.492655	0.270431
	O333	O	0.464332	0.291638	0.707644
	H334	H	0.480667	0.303192	0.712954
	H335	H	0.466328	0.279682	0.723759
	O336	O	0.460958	0.436082	0.505645
	H337	H	0.456282	0.447942	0.498747
	H338	H	0.452119	0.420453	0.510654
	O339	O	0.858571	-0.089069	0.930743
	H340	H	0.857650	-0.094925	0.951686
	H341	H	0.858833	-0.079289	0.941789
	O342	O	-0.064366	0.231339	0.055886
	H343	H	-0.037336	0.237017	0.067990
	H344	H	-0.045371	0.228140	0.032261
	O345	O	0.033826	0.955278	1.215700
	H346	H	0.040273	0.947698	1.221265
	H347	H	0.044071	0.953780	1.207041
	O348	O	0.635444	0.479728	0.514925
	H349	H	0.639830	0.475938	0.523174
	H350	H	0.640887	0.479629	0.519957
	O351	O	0.704232	0.705089	0.297892
	H352	H	0.694264	0.677669	0.323036
	H353	H	0.675265	0.701256	0.305930
	O354	O	-0.033376	0.224891	0.774178
	H355	H	-0.054531	0.240659	0.757533
	H356	H	-0.064067	0.232900	0.764048
	O357	O	0.361840	0.603287	0.495123
	H358	H	0.357460	0.591403	0.518489
	H359	H	0.372754	0.591445	0.484972
	O360	O	0.197492	0.219427	1.002728
	H361	H	0.202354	0.221436	1.011257
	H362	H	0.198181	0.230700	1.019826
	O363	O	0.185194	-0.063071	0.056907
	H364	H	0.187226	-0.070778	0.050638
	H365	H	0.191731	-0.053740	0.035465
	O366	O	0.536225	0.381348	0.496488
	H367	H	0.545790	0.385364	0.484382
	H368	H	0.551096	0.375686	0.496914
	O369	O	0.795080	0.205491	0.199765
	H370	H	0.814568	0.174517	0.193617
	H371	H	0.806621	0.201839	0.173628
	O372	O	1.039537	0.872498	-0.120144
	H373	H	1.020632	0.878046	-0.115199
	H374	H	1.023666	0.867271	-0.118772
	O375	O	0.792411	0.021557	0.192593
	H376	H	0.799870	0.006373	0.206170
	H377	H	0.803430	0.009844	0.201128
	O378	O	0.458182	0.419703	0.514506
	H379	H	0.461962	0.416419	0.515987
	H380	H	0.462577	0.418452	0.515123
	O381	O	0.310965	0.687095	0.691819
	H382	H	0.317800	0.664760	0.687593
	H383	H	0.334433	0.690352	0.675713
	O384	O	0.789428	0.208574	0.959276
	H385	H	0.789817	0.212905	0.976340
	H386	H	0.795288	0.209089	0.979196
	O387	O	1.212677	0.783401	-0.029442
	H388	H	1.223625	0.780951	-0.042696
	H389	H	1.215511	0.774187	-0.045740
	O390	O	0.541028	0.282384	0.277372
	H391	H	0.525832	0.270615	0.266927
	H392	H	0.517357	0.288678	0.267219
	O393	O	0.617212	0.460309	0.424532
	H394	H	0.625835	0.445710	0.410099
	H395	H	0.611678	0.448862	0.435657
	O396	O	-0.217885	1.033812	0.774581
	H397	H	-0.222427	1.041715	0.759650
	H398	H	-0.235305	1.025676	0.770527
	O399	O	0.022994	-0.213396	0.781355
	H400	H	0.024716	-0.230888	0.775318
	H401	H	0.035544	-0.207370	0.776230
	O402	O	0.279655	0.466261	0.715657
	H403	H	0.266390	0.467357	0.744358
	H404	H	0.274746	0.428258	0.719756
	O405	O	1.072574	0.062721	0.772529
	H406	H	1.040111	0.071335	0.767726
	H407	H	1.081887	0.060117	0.773876
	O408	O	0.030082	0.221131	0.218998
	H409	H	0.035591	0.238815	0.238537
	H410	H	0.051303	0.220285	0.217184
	O411	O	0.489726	0.729625	0.503437
	H412	H	0.500929	0.723226	0.512520
	H413	H	0.504888	0.732732	0.523449
	O414	O	0.634996	0.321419	0.616257
	H415	H	0.631010	0.317752	0.598478
	H416	H	0.631188	0.324833	0.613517
	O417	O	0.707062	0.298530	0.481749
	H418	H	0.697828	0.292197	0.449411
	H419	H	0.720335	0.293999	0.466918
	O420	O	0.475965	0.542293	0.536217
	H421	H	0.487834	0.515947	0.525430
	H422	H	0.475908	0.542526	0.547634
	O423	O	-0.055062	0.021163	1.062336
	H424	H	-0.058171	0.006048	1.078833
	H425	H	-0.045973	0.029154	1.071089
	O426	O	0.658628	0.718473	0.496526
	H427	H	0.687179	0.724704	0.504771
	H428	H	0.665105	0.708238	0.488021
	O429	O	0.770212	1.039465	1.024374
	H430	H	0.783858	1.045580	1.037023
	H431	H	0.769155	1.039887	1.034744
	O432	O	0.569678	0.677534	0.553391
	H433	H	0.589685	0.689146	0.565331
	H434	H	0.579416	0.661356	0.571002
	O435	O	0.075435	0.859975	0.116533
	H436	H	0.069671	0.860498	0.104909
	H437	H	0.071040	0.864251	0.102928
	O438	O	0.213542	0.029280	0.211671
	H439	H	0.224318	0.022958	0.226778
	H440	H	0.213639	0.013761	0.204855
	O441	O	0.133846	0.126927	0.044620
	H442	H	0.159491	0.124482	0.046243
	H443	H	0.129376	0.118445	0.036010
	O444	O	0.230599	0.228299	0.228627
	H445	H	0.251587	0.229542	0.241211
	H446	H	0.217687	0.213871	0.236696
	O447	O	0.227494	0.923398	0.773006
	H448	H	0.227350	0.916265	0.758463
	H449	H	0.239723	0.924189	0.752497
	O450	O	0.033473	1.089926	0.932448
	H451	H	0.029070	1.087586	0.930343
	H452	H	0.041353	1.092643	0.921694
	O453	O	0.340298	0.469377	0.316099
	H454	H	0.331649	0.502041	0.319327
	H455	H	0.343097	0.485731	0.293302
	O456	O	0.161764	0.193843	0.835332
	H457	H	0.174133	0.198847	0.835767
	H458	H	0.139486	0.173824	0.829216
	O459	O	0.782675	0.786203	0.028118
	H460	H	0.771456	0.782923	0.043080
	H461	H	0.764723	0.782561	0.038867
	O462	O	0.706296	0.313436	0.310026
	H463	H	0.711618	0.289398	0.283618
	H464	H	0.671923	0.300570	0.298625
	O465	O	1.040163	-0.042237	-0.060762
	H466	H	1.045819	-0.055214	-0.056144
	H467	H	1.045607	-0.037124	-0.055784
	O468	O	0.307491	0.652730	0.291357
	H469	H	0.302305	0.653683	0.313673
	H470	H	0.293954	0.670099	0.284449
	O471	O	0.298284	0.299613	0.691562
	H472	H	0.316404	0.288119	0.708869
	H473	H	0.304420	0.296345	0.655939
	O474	O	0.225421	0.780441	0.220601
	H475	H	0.228254	0.793349	0.223468
	H476	H	0.205905	0.787446	0.205607
	O477	O	0.436226	0.535602	1.691470
	H478	H	0.422747	0.522496	1.701360
	H479	H	0.434610	0.538015	1.678398
	O480	O	0.721467	0.479445	0.288936
	H481	H	0.714068	0.445314	0.303002
	H482	H	0.752260	0.470049	0.255119
	O483	O	0.719092	0.533290	0.707816
	H484	H	0.712059	0.532336	0.715812
	H485	H	0.730577	0.540689	0.721373
	O486	O	0.799695	0.202374	0.793071
	H487	H	0.784232	0.178510	0.788173
	H488	H	0.787701	0.213714	0.834644
	O489	O	0.818194	0.854618	0.189972
	H490	H	0.845078	0.848198	0.189190
	H491	H	0.787734	0.835231	0.217750
