data_Molecule from HDF5

_cell_length_a		16.292908
_cell_length_b		16.277395
_cell_length_c		16.250388
_cell_angle_alpha	90.354145
_cell_angle_beta	89.728756
_cell_angle_gamma	89.751473
_symmetry_space_group_name_H-M	'P 1'
_symmetry_Int_Tables_number		1

loop_
	_symmetry_equiv_pos_as_xyz
	x,y,z

loop_
	_atom_site_label
	_atom_site_type_symbol
	_atom_site_fract_x
	_atom_site_fract_y
	_atom_site_fract_z
	H0	H	0.396324	0.840827	0.706507
	H1	H	0.592808	0.167449	0.708374
	H2	H	0.596139	0.841740	0.273773
	H3	H	0.394371	0.169463	0.279489
	H4	H	0.710241	0.404108	0.830161
	H5	H	0.705755	0.604615	0.157369
	H6	H	0.276658	0.605357	0.830889
	H7	H	0.277690	0.405513	0.157697
	H8	H	0.831029	0.720067	0.397012
	H9	H	0.157033	0.719218	0.596086
	H10	H	0.830458	0.289578	0.594443
	H11	H	0.157000	0.286750	0.393782
	H12	H	0.831161	0.405823	0.711505
	H13	H	0.156856	0.602649	0.710115
	H14	H	0.829255	0.601800	0.282950
	H15	H	0.155371	0.400353	0.275709
	H16	H	0.394513	0.718203	0.828890
	H17	H	0.591670	0.721113	0.156564
	H18	H	0.595007	0.288853	0.829223
	H19	H	0.394167	0.289859	0.156835
	H20	H	0.712089	0.841085	0.389935
	H21	H	0.708410	0.167470	0.592327
	H22	H	0.281338	0.840109	0.591768
	H23	H	0.275041	0.165709	0.392525
	H24	H	0.893229	0.340017	0.208431
	H25	H	0.089607	0.667343	0.211405
	H26	H	0.094484	0.341303	0.779121
	H27	H	0.893997	0.667658	0.780722
	H28	H	0.211055	0.900290	0.330242
	H29	H	0.208718	0.102466	0.657373
	H30	H	0.781497	0.102390	0.329370
	H31	H	0.777287	0.904823	0.656183
	H32	H	0.331051	0.222327	0.892310
	H33	H	0.657898	0.220467	0.090563
	H34	H	0.331114	0.790623	0.093364
	H35	H	0.657566	0.788007	0.891724
	H36	H	0.331829	0.906850	0.209013
	H37	H	0.657736	0.105684	0.207977
	H38	H	0.329749	0.102470	0.779275
	H39	H	0.658061	0.905979	0.776987
	H40	H	0.894441	0.219055	0.330687
	H41	H	0.093471	0.218723	0.657552
	H42	H	0.095777	0.784366	0.331837
	H43	H	0.895978	0.792332	0.658594
	H44	H	0.212109	0.343109	0.892497
	H45	H	0.207443	0.668197	0.096583
	H46	H	0.777838	0.340714	0.092087
	H47	H	0.779636	0.668312	0.897018
	H48	H	0.405485	0.120477	0.590949
	H49	H	0.584966	0.889836	0.579047
	H50	H	0.586713	0.118935	0.404496
	H51	H	0.411961	0.890006	0.395893
	H52	H	0.584014	0.404463	0.112094
	H53	H	0.588432	0.601601	0.874938
	H54	H	0.400103	0.599249	0.109856
	H55	H	0.388781	0.418574	0.875170
	H56	H	0.109732	0.592978	0.400045
	H57	H	0.873438	0.601778	0.598188
	H58	H	0.112232	0.408923	0.593998
	H59	H	0.881074	0.423086	0.401328
	H60	H	0.109648	0.404863	0.581648
	H61	H	0.877714	0.604910	0.579086
	H62	H	0.109301	0.594764	0.404117
	H63	H	0.872439	0.403601	0.390812
	H64	H	0.400193	0.598033	0.109305
	H65	H	0.591722	0.593933	0.875584
	H66	H	0.593518	0.415796	0.111046
	H67	H	0.412540	0.423361	0.884638
	H68	H	0.591993	0.121872	0.399701
	H69	H	0.592745	0.885682	0.584409
	H70	H	0.401898	0.118521	0.579402
	H71	H	0.404284	0.891682	0.407839
	H72	H	0.894700	0.622887	0.093119
	H73	H	0.085857	0.391698	0.075096
	H74	H	0.086870	0.625244	0.893559
	H75	H	0.900356	0.387374	0.901105
	H76	H	0.094225	0.917296	0.610915
	H77	H	0.081897	0.092104	0.379614
	H78	H	0.902542	0.101187	0.611684
	H79	H	0.904281	0.912444	0.378098
	H80	H	0.612611	0.110738	0.903154
	H81	H	0.381976	0.091113	0.082498
	H82	H	0.607371	0.917778	0.077458
	H83	H	0.376914	0.904783	0.903980
	H84	H	0.611346	0.914778	0.089219
	H85	H	0.375805	0.098754	0.093616
	H86	H	0.604433	0.088197	0.909173
	H87	H	0.380562	0.917839	0.902294
	H88	H	0.894305	0.097119	0.612073
	H89	H	0.086595	0.098407	0.376937
	H90	H	0.080591	0.912060	0.608217
	H91	H	0.906381	0.908860	0.377211
	H92	H	0.075925	0.617355	0.905006
	H93	H	0.095837	0.384815	0.086965
	H94	H	0.903607	0.619698	0.092407
	H95	H	0.902578	0.388677	0.901105
	H96	H	0.394013	0.122971	0.587485
	H97	H	0.584027	0.886989	0.589054
	H98	H	0.585067	0.121048	0.396758
	H99	H	0.397829	0.885127	0.395312
	H100	H	0.579560	0.417837	0.106755
	H101	H	0.583854	0.594907	0.877164
	H102	H	0.401458	0.599109	0.109695
	H103	H	0.406563	0.400516	0.874825
	H104	H	0.108181	0.590231	0.403507
	H105	H	0.881611	0.586881	0.586759
	H106	H	0.107866	0.417556	0.584572
	H107	H	0.878108	0.403074	0.414358
	H108	H	0.898003	0.619586	0.085136
	H109	H	0.079270	0.388748	0.090822
	H110	H	0.091677	0.621264	0.909563
	H111	H	0.901820	0.388084	0.903796
	H112	H	0.091034	0.903178	0.614044
	H113	H	0.090388	0.090437	0.377516
	H114	H	0.901618	0.092528	0.608501
	H115	H	0.902712	0.909419	0.376796
	H116	H	0.612452	0.092792	0.886608
	H117	H	0.378069	0.105120	0.080477
	H118	H	0.610991	0.905920	0.079673
	H119	H	0.375601	0.910558	0.891600
	C120	C	0.372632	0.012695	0.614459
	C121	C	0.615725	0.995577	0.613803
	C122	C	0.617274	0.012774	0.370063
	C123	C	0.373648	0.996299	0.370918
	C124	C	0.615239	0.383300	0.001544
	C125	C	0.615311	0.626350	0.984364
	C126	C	0.371513	0.627160	0.001608
	C127	C	0.372627	0.384321	0.985666
	C128	C	0.001706	0.623520	0.374316
	C129	C	0.985333	0.625907	0.616962
	C130	C	0.002391	0.381952	0.616409
	C131	C	0.984859	0.380300	0.372310
	C132	C	0.870607	0.512312	0.116971
	C133	C	0.114807	0.495963	0.115542
	C134	C	0.115456	0.513665	0.872783
	C135	C	0.872428	0.496155	0.873367
	C136	C	0.117381	0.880461	0.503039
	C137	C	0.115424	0.123747	0.485785
	C138	C	0.872021	0.125440	0.502181
	C139	C	0.874353	0.882382	0.485683
	C140	C	0.501799	0.126249	0.871182
	C141	C	0.486178	0.127572	0.114563
	C142	C	0.502778	0.884080	0.112786
	C143	C	0.485926	0.881926	0.870131
	C144	C	0.375657	0.889638	0.669212
	C145	C	0.613244	0.118626	0.670225
	C146	C	0.615997	0.890361	0.312500
	C147	C	0.374693	0.119692	0.316603
	C148	C	0.671771	0.384471	0.878797
	C149	C	0.669013	0.624908	0.108047
	C150	C	0.315226	0.625180	0.879236
	C151	C	0.316072	0.385893	0.108704
	C152	C	0.879452	0.681220	0.376585
	C153	C	0.108211	0.681009	0.615366
	C154	C	0.879353	0.327378	0.614917
	C155	C	0.107834	0.324419	0.373527
	C156	C	0.879556	0.385264	0.672912
	C157	C	0.108220	0.623030	0.672148
	C158	C	0.878416	0.622200	0.320041
	C159	C	0.107211	0.381130	0.315063
	C160	C	0.374029	0.681278	0.878325
	C161	C	0.612258	0.682797	0.107686
	C162	C	0.614580	0.327013	0.878454
	C163	C	0.373762	0.328149	0.108215
	C164	C	0.673435	0.889874	0.370433
	C165	C	0.670657	0.118582	0.612354
	C166	C	0.318686	0.889183	0.611824
	C167	C	0.315080	0.118007	0.372657
	C168	C	0.872911	0.389103	0.170848
	C169	C	0.110805	0.618624	0.172850
	C170	C	0.114654	0.390661	0.816677
	C171	C	0.874260	0.618837	0.818434
	C172	C	0.173260	0.880893	0.379622
	C173	C	0.170672	0.122183	0.608641
	C174	C	0.818227	0.122718	0.378829
	C175	C	0.816580	0.884788	0.607805
	C176	C	0.379192	0.182857	0.872911
	C177	C	0.609100	0.182903	0.111591
	C178	C	0.379716	0.828975	0.112253
	C179	C	0.608647	0.826083	0.871429
	C180	C	0.380234	0.886727	0.169775
	C181	C	0.609059	0.125733	0.169680
	C182	C	0.378851	0.123646	0.816434
	C183	C	0.609129	0.884724	0.814726
	C184	C	0.874759	0.180813	0.379458
	C185	C	0.113440	0.180240	0.608720
	C186	C	0.116096	0.822966	0.380341
	C187	C	0.875578	0.828695	0.609114
	C188	C	0.172924	0.391307	0.873306
	C189	C	0.169222	0.619373	0.115844
	C190	C	0.815655	0.389460	0.112894
	C191	C	0.817280	0.619248	0.876338
	C192	C	0.394304	0.098597	0.592507
	C193	C	0.593763	0.909792	0.590900
	C194	C	0.594552	0.098440	0.393385
	C195	C	0.397565	0.911085	0.393112
	C196	C	0.592374	0.406086	0.087731
	C197	C	0.594104	0.603522	0.898175
	C198	C	0.393949	0.605150	0.087425
	C199	C	0.395964	0.407438	0.900286
	C200	C	0.087085	0.599604	0.396223
	C201	C	0.899769	0.604250	0.594693
	C202	C	0.087879	0.403892	0.593368
	C203	C	0.899391	0.403305	0.395372
	C204	C	0.892300	0.598512	0.096172
	C205	C	0.093210	0.410522	0.091471
	C206	C	0.091676	0.599275	0.896051
	C207	C	0.895039	0.410197	0.895457
	C208	C	0.095204	0.903878	0.588776
	C209	C	0.092861	0.100513	0.400134
	C210	C	0.893456	0.103707	0.588477
	C211	C	0.897818	0.903814	0.399574
	C212	C	0.587675	0.103985	0.893132
	C213	C	0.400756	0.105141	0.092177
	C214	C	0.587896	0.906171	0.089042
	C215	C	0.399891	0.904378	0.892669
	Zn216	Zn	0.493944	0.004028	0.742338
	Zn217	Zn	0.495299	0.005209	0.241661
	Zn218	Zn	0.742915	0.504648	-0.006059
	Zn219	Zn	0.243737	0.505813	-0.005548
	Zn220	Zn	-0.005422	0.753457	0.495121
	Zn221	Zn	-0.006082	0.252682	0.494501
	Zn222	Zn	-0.006276	0.504427	0.745094
	Zn223	Zn	-0.007271	0.502431	0.244570
	Zn224	Zn	0.494048	0.754199	-0.007721
	Zn225	Zn	0.493913	0.255492	-0.007426
	Zn226	Zn	0.744935	0.003542	0.492672
	Zn227	Zn	0.245008	0.003040	0.493599
	N228	N	0.408532	0.967319	0.671083
	N229	N	0.579945	0.041109	0.671414
	N230	N	0.581734	0.967797	0.312250
	N231	N	0.410445	0.042836	0.315294
	N232	N	0.672473	0.418593	0.956516
	N233	N	0.671159	0.590604	0.030513
	N234	N	0.313656	0.592265	0.956929
	N235	N	0.315110	0.420041	0.031275
	N236	N	0.957094	0.682140	0.409748
	N237	N	0.030945	0.682817	0.581436
	N238	N	0.956642	0.325240	0.580503
	N239	N	0.030689	0.323843	0.408586
	N240	N	0.956944	0.418450	0.673852
	N241	N	0.031010	0.589440	0.673190
	N242	N	0.955340	0.587149	0.318410
	N243	N	0.029838	0.415096	0.314140
	N244	N	0.408298	0.682642	0.955532
	N245	N	0.579390	0.683694	0.029779
	N246	N	0.580242	0.326078	0.955917
	N247	N	0.408368	0.327243	0.031037
	N248	N	0.674722	0.967028	0.405118
	N249	N	0.672278	0.041170	0.577785
	N250	N	0.316716	0.966674	0.578436
	N251	N	0.314304	0.040467	0.405750
	N252	N	0.906138	0.466561	0.173681
	N253	N	0.077636	0.540942	0.172832
	N254	N	0.079635	0.467699	0.816330
	N255	N	0.907699	0.541264	0.816438
	N256	N	0.174314	0.915897	0.457006
	N257	N	0.172014	0.087838	0.531080
	N258	N	0.816468	0.089015	0.456227
	N259	N	0.815722	0.917515	0.529940
	N260	N	0.456602	0.184469	0.906418
	N261	N	0.531644	0.184149	0.077996
	N262	N	0.456905	0.827097	0.077535
	N263	N	0.531050	0.824416	0.905148
	N264	N	0.457519	0.920250	0.170241
	N265	N	0.531883	0.092236	0.171658
	N266	N	0.455921	0.089094	0.815480
	N267	N	0.531743	0.918825	0.813837
	N268	N	0.907461	0.182662	0.457375
	N269	N	0.079699	0.181288	0.531239
	N270	N	0.081993	0.822686	0.457796
	N271	N	0.910816	0.827294	0.532021
	N272	N	0.173635	0.468891	0.907473
	N273	N	0.171956	0.542173	0.081013
	N274	N	0.813917	0.467264	0.080325
	N275	N	0.816178	0.541822	0.909931
	O276	O	0.015103	-0.004427	0.059897
	H277	H	0.013329	0.014213	0.058233
	H278	H	0.019922	-0.006459	0.060125
	O279	O	0.394131	0.599937	0.417233
	H280	H	0.395096	0.590466	0.403360
	H281	H	0.393703	0.591422	0.420037
	O282	O	0.550611	0.475106	0.428356
	H283	H	0.547780	0.466640	0.427313
	H284	H	0.557198	0.476822	0.435833
	O285	O	0.098474	1.127594	1.004357
	H286	H	0.098501	1.122209	0.997406
	H287	H	0.101621	1.124804	0.999398
	O288	O	0.440138	0.547952	0.560313
	H289	H	0.429690	0.556164	0.557358
	H290	H	0.438142	0.552114	0.554151
	O291	O	0.453857	0.580880	0.483301
	H292	H	0.451882	0.576381	0.476447
	H293	H	0.456764	0.581427	0.486093
	O294	O	1.006722	1.004619	1.040423
	H295	H	1.005660	1.000780	1.032356
	H296	H	0.999397	0.997441	1.043597
	O297	O	0.955648	-0.052033	0.993058
	H298	H	0.958656	-0.059820	0.996283
	H299	H	0.960326	-0.065969	0.995118
	O300	O	0.534404	0.447698	0.473024
	H301	H	0.529110	0.441319	0.470149
	H302	H	0.538844	0.447864	0.473411
	O303	O	1.035114	-0.025396	-0.040345
	H304	H	1.027532	-0.013832	-0.033480
	H305	H	1.038887	-0.022973	-0.041477
	O306	O	-0.003030	0.970923	1.074920
	H307	H	0.003951	0.964657	1.087105
	H308	H	-0.005279	0.963038	1.068732
	O309	O	0.411023	0.479076	0.523878
	H310	H	0.409687	0.479774	0.516234
	H311	H	0.424395	0.481311	0.529698
	O312	O	0.976246	0.074308	1.049424
	H313	H	0.967312	0.072361	1.057694
	H314	H	0.977408	0.082623	1.041101
	O315	O	0.493832	0.508418	0.400111
	H316	H	0.483479	0.521517	0.398187
	H317	H	0.489959	0.498096	0.396427
	O318	O	0.520835	0.462445	0.402823
	H319	H	0.529349	0.447761	0.410041
	H320	H	0.521288	0.469479	0.414160
	O321	O	1.011232	1.032106	0.885256
	H322	H	1.008824	1.028471	0.875471
	H323	H	1.001897	1.031980	0.885351
	O324	O	1.067558	1.034891	1.014137
	H325	H	1.070970	1.047440	1.005615
	H326	H	1.062718	1.039233	1.031007
	O327	O	0.557816	0.435649	0.511305
	H328	H	0.537797	0.440707	0.521614
	H329	H	0.563178	0.433508	0.509120
	O330	O	0.926028	-0.016135	1.088537
	H331	H	0.924571	-0.021531	1.100978
	H332	H	0.925695	-0.012991	1.084105
	O333	O	1.004778	0.957904	0.047856
	H334	H	0.999058	0.957778	0.043136
	H335	H	1.011465	0.953393	0.047350
	O336	O	0.480702	0.512777	0.484842
	H337	H	0.474477	0.518807	0.488411
	H338	H	0.486400	0.514884	0.491570
	O339	O	0.416223	0.606427	0.489922
	H340	H	0.412950	0.613163	0.479086
	H341	H	0.417469	0.615089	0.490601
	O342	O	-0.051654	1.011937	-0.027395
	H343	H	-0.043631	1.025856	-0.017317
	H344	H	-0.049202	1.012824	-0.034271
	O345	O	-0.072139	0.100063	-0.003006
	H346	H	-0.067033	0.094432	-0.001687
	H347	H	-0.071098	0.104921	0.004105
	O348	O	0.476307	0.366227	0.464592
	H349	H	0.469336	0.379861	0.460976
	H350	H	0.464875	0.360688	0.464462
	O351	O	0.557253	0.439896	0.430252
	H352	H	0.567930	0.438194	0.435492
	H353	H	0.563104	0.435946	0.422385
	O354	O	0.479664	0.517398	0.645025
	H355	H	0.483730	0.521715	0.646692
	H356	H	0.472357	0.532455	0.639959
	O357	O	0.417069	0.433043	0.470072
	H358	H	0.419114	0.438381	0.472536
	H359	H	0.418364	0.424616	0.468654
	O360	O	0.468408	-0.477300	0.513076
	H361	H	0.473684	-0.483114	0.514711
	H362	H	0.462298	-0.483842	0.518814
	O363	O	0.601159	0.544406	0.517528
	H364	H	0.611921	0.539028	0.506176
	H365	H	0.603873	0.547865	0.516592
	O366	O	0.033011	-0.015199	0.982626
	H367	H	0.034000	-0.015197	0.984496
	H368	H	0.028469	-0.015692	0.977897
	O369	O	0.621299	0.521379	0.458922
	H370	H	0.633527	0.518257	0.461690
	H371	H	0.613687	0.518356	0.456977
