data_Molecule from HDF5

_cell_length_a		16.244416
_cell_length_b		16.223412
_cell_length_c		16.335342
_cell_angle_alpha	89.858904
_cell_angle_beta	90.211218
_cell_angle_gamma	89.803824
_symmetry_space_group_name_H-M	'P 1'
_symmetry_Int_Tables_number		1

loop_
	_symmetry_equiv_pos_as_xyz
	x,y,z

loop_
	_atom_site_label
	_atom_site_type_symbol
	_atom_site_fract_x
	_atom_site_fract_y
	_atom_site_fract_z
	H0	H	0.401071	0.831167	0.715322
	H1	H	0.601016	0.158265	0.716040
	H2	H	0.600945	0.830808	0.286098
	H3	H	0.399167	0.157257	0.283406
	H4	H	0.717677	0.393094	0.837074
	H5	H	0.718360	0.593300	0.162235
	H6	H	0.283691	0.595591	0.836838
	H7	H	0.286235	0.393235	0.161377
	H8	H	0.836526	0.710865	0.399533
	H9	H	0.165419	0.707404	0.596825
	H10	H	0.835790	0.280515	0.596997
	H11	H	0.164530	0.280301	0.401479
	H12	H	0.836602	0.394612	0.714519
	H13	H	0.163129	0.595542	0.716474
	H14	H	0.836760	0.597020	0.281602
	H15	H	0.163464	0.394379	0.283312
	H16	H	0.399688	0.711918	0.837208
	H17	H	0.601992	0.709111	0.163095
	H18	H	0.601111	0.277811	0.837047
	H19	H	0.404346	0.280459	0.163186
	H20	H	0.714167	0.830388	0.403707
	H21	H	0.715547	0.158670	0.600081
	H22	H	0.286823	0.830566	0.598922
	H23	H	0.286801	0.158934	0.400901
	H24	H	0.900127	0.332426	0.213790
	H25	H	0.101456	0.657890	0.215084
	H26	H	0.100480	0.330372	0.784380
	H27	H	0.898228	0.657850	0.781881
	H28	H	0.216596	0.895100	0.336605
	H29	H	0.216627	0.094504	0.662384
	H30	H	0.782671	0.095861	0.337282
	H31	H	0.787274	0.896252	0.663282
	H32	H	0.337944	0.210473	0.900737
	H33	H	0.665210	0.207723	0.099911
	H34	H	0.336889	0.779534	0.098876
	H35	H	0.665324	0.778986	0.902943
	H36	H	0.337443	0.894114	0.215362
	H37	H	0.663589	0.094681	0.217320
	H38	H	0.338638	0.097124	0.782668
	H39	H	0.664788	0.892103	0.784038
	H40	H	0.898600	0.211005	0.336127
	H41	H	0.099266	0.209170	0.662670
	H42	H	0.099519	0.780587	0.336130
	H43	H	0.904462	0.779997	0.662733
	H44	H	0.215487	0.330347	0.900251
	H45	H	0.216878	0.657869	0.099358
	H46	H	0.790059	0.330306	0.097219
	H47	H	0.783056	0.657955	0.896852
	H48	H	0.411720	0.109138	0.588514
	H49	H	0.589588	0.881520	0.586417
	H50	H	0.585875	0.108075	0.413450
	H51	H	0.407493	0.876315	0.407573
	H52	H	0.588834	0.406004	0.112211
	H53	H	0.586800	0.592582	0.884149
	H54	H	0.407806	0.587724	0.115561
	H55	H	0.397649	0.402780	0.880194
	H56	H	0.117427	0.582154	0.402080
	H57	H	0.885624	0.583067	0.587129
	H58	H	0.115979	0.399313	0.586518
	H59	H	0.883955	0.406629	0.401681
	H60	H	0.114665	0.408509	0.592715
	H61	H	0.882323	0.586640	0.596192
	H62	H	0.118720	0.592109	0.403598
	H63	H	0.881764	0.399141	0.403947
	H64	H	0.408269	0.583256	0.114473
	H65	H	0.599838	0.585680	0.881947
	H66	H	0.595446	0.392224	0.117696
	H67	H	0.413994	0.412013	0.888245
	H68	H	0.599270	0.113027	0.409841
	H69	H	0.603180	0.875398	0.592322
	H70	H	0.403402	0.112604	0.589518
	H71	H	0.409708	0.878441	0.406061
	H72	H	0.909749	0.612905	0.093624
	H73	H	0.083947	0.376692	0.102346
	H74	H	0.079670	0.604420	0.914336
	H75	H	0.905474	0.378052	0.911355
	H76	H	0.096520	0.893840	0.618163
	H77	H	0.095171	0.098351	0.379205
	H78	H	0.901460	0.094885	0.618723
	H79	H	0.904356	0.896481	0.381040
	H80	H	0.617389	0.084302	0.908783
	H81	H	0.384945	0.084733	0.091205
	H82	H	0.616782	0.908676	0.097658
	H83	H	0.384106	0.895088	0.912704
	H84	H	0.620115	0.894882	0.097655
	H85	H	0.383820	0.087575	0.094341
	H86	H	0.618541	0.086269	0.906783
	H87	H	0.389399	0.912721	0.913032
	H88	H	0.904741	0.076776	0.613096
	H89	H	0.101667	0.081099	0.382836
	H90	H	0.100041	0.907850	0.615035
	H91	H	0.902227	0.909435	0.383605
	H92	H	0.104868	0.612098	0.912960
	H93	H	0.088632	0.383990	0.078441
	H94	H	0.911566	0.610996	0.087531
	H95	H	0.907222	0.375891	0.900879
	H96	H	0.409318	0.112617	0.597204
	H97	H	0.590692	0.876842	0.602484
	H98	H	0.588520	0.112463	0.400057
	H99	H	0.408959	0.877967	0.409588
	H100	H	0.604562	0.405200	0.116420
	H101	H	0.588437	0.578692	0.887894
	H102	H	0.411696	0.586219	0.114082
	H103	H	0.415116	0.391663	0.881071
	H104	H	0.114051	0.586145	0.411693
	H105	H	0.883384	0.593093	0.588578
	H106	H	0.117958	0.398555	0.596967
	H107	H	0.885312	0.403999	0.409268
	H108	H	0.905142	0.612860	0.089486
	H109	H	0.107414	0.373477	0.092606
	H110	H	0.089725	0.614720	0.891629
	H111	H	0.915733	0.380187	0.906318
	H112	H	0.086523	0.902265	0.612302
	H113	H	0.084102	0.085210	0.387371
	H114	H	0.919009	0.090079	0.612999
	H115	H	0.914464	0.903707	0.385823
	H116	H	0.617783	0.086739	0.909147
	H117	H	0.384338	0.089245	0.091219
	H118	H	0.615371	0.900969	0.085495
	H119	H	0.382310	0.905431	0.897368
	C120	C	0.379250	0.003322	0.621210
	C121	C	0.622796	0.986476	0.622159
	C122	C	0.621129	0.003009	0.379189
	C123	C	0.379210	0.985849	0.378508
	C124	C	0.624958	0.371278	0.008103
	C125	C	0.622592	0.615111	0.991700
	C126	C	0.378894	0.616231	0.007686
	C127	C	0.380251	0.372893	0.990734
	C128	C	0.008611	0.616870	0.376428
	C129	C	0.992115	0.616186	0.619875
	C130	C	0.008289	0.373205	0.620559
	C131	C	0.991852	0.373376	0.376773
	C132	C	0.880482	0.503659	0.119242
	C133	C	0.122483	0.485982	0.120504
	C134	C	0.122009	0.502654	0.877086
	C135	C	0.878937	0.486120	0.876773
	C136	C	0.122497	0.873051	0.507556
	C137	C	0.122785	0.117035	0.490922
	C138	C	0.878607	0.116407	0.507425
	C139	C	0.879109	0.873592	0.491226
	C140	C	0.510296	0.116321	0.878422
	C141	C	0.492440	0.115963	0.121724
	C142	C	0.509439	0.872448	0.122361
	C143	C	0.492985	0.873420	0.878940
	C144	C	0.380973	0.880048	0.677115
	C145	C	0.621145	0.109504	0.677929
	C146	C	0.620488	0.879757	0.324119
	C147	C	0.379647	0.108682	0.321938
	C148	C	0.679681	0.373255	0.885727
	C149	C	0.679867	0.613440	0.113616
	C150	C	0.322011	0.615534	0.885570
	C151	C	0.324421	0.373871	0.112934
	C152	C	0.885827	0.673417	0.378349
	C153	C	0.115731	0.670633	0.617443
	C154	C	0.884755	0.318252	0.617568
	C155	C	0.115265	0.317892	0.380369
	C156	C	0.885018	0.375145	0.675864
	C157	C	0.114941	0.614882	0.676843
	C158	C	0.885661	0.616143	0.320232
	C159	C	0.114784	0.374661	0.321462
	C160	C	0.379646	0.673330	0.885692
	C161	C	0.621639	0.670731	0.114150
	C162	C	0.621734	0.315546	0.885950
	C163	C	0.383382	0.317837	0.113892
	C164	C	0.676697	0.879513	0.382655
	C165	C	0.677706	0.109752	0.619969
	C166	C	0.324531	0.879753	0.618905
	C167	C	0.323630	0.109237	0.380318
	C168	C	0.881035	0.380888	0.175541
	C169	C	0.121479	0.608877	0.176961
	C170	C	0.120425	0.379543	0.822059
	C171	C	0.878663	0.608944	0.820020
	C172	C	0.178413	0.875054	0.385189
	C173	C	0.178092	0.114169	0.613768
	C174	C	0.821603	0.115386	0.385427
	C175	C	0.824894	0.875554	0.614346
	C176	C	0.387234	0.172778	0.880140
	C177	C	0.615915	0.170360	0.120045
	C178	C	0.386167	0.816845	0.120029
	C179	C	0.616288	0.816824	0.881950
	C180	C	0.386325	0.874191	0.177608
	C181	C	0.615116	0.113906	0.178448
	C182	C	0.387588	0.116393	0.821302
	C183	C	0.615915	0.872993	0.822680
	C184	C	0.879379	0.172615	0.384972
	C185	C	0.119656	0.171498	0.613837
	C186	C	0.120234	0.817957	0.384865
	C187	C	0.882585	0.817364	0.613874
	C188	C	0.177879	0.379595	0.879540
	C189	C	0.178356	0.609039	0.119041
	C190	C	0.826296	0.379781	0.117256
	C191	C	0.821145	0.608891	0.877113
	C192	C	0.401835	0.089207	0.598754
	C193	C	0.600902	0.900248	0.600256
	C194	C	0.597956	0.089142	0.401305
	C195	C	0.402059	0.899923	0.401184
	C196	C	0.602825	0.394378	0.093513
	C197	C	0.598690	0.592423	0.906660
	C198	C	0.402341	0.592605	0.092706
	C199	C	0.402382	0.395509	0.905310
	C200	C	0.094634	0.593515	0.399057
	C201	C	0.906001	0.593976	0.597377
	C202	C	0.093970	0.395544	0.598648
	C203	C	0.905931	0.396378	0.398458
	C204	C	0.902499	0.589828	0.096761
	C205	C	0.099773	0.400300	0.097814
	C206	C	0.098362	0.588388	0.899697
	C207	C	0.902535	0.400305	0.899485
	C208	C	0.100762	0.894770	0.592997
	C209	C	0.100237	0.094888	0.405415
	C210	C	0.901670	0.093869	0.592874
	C211	C	0.900552	0.896580	0.405531
	C212	C	0.595643	0.092708	0.901299
	C213	C	0.406569	0.093648	0.098945
	C214	C	0.595221	0.895024	0.100169
	C215	C	0.407556	0.897429	0.901152
	Zn216	Zn	0.501339	-0.005273	0.749516
	Zn217	Zn	0.500278	-0.005835	0.250375
	Zn218	Zn	0.752797	0.494202	-0.000750
	Zn219	Zn	0.250513	0.493964	-0.001118
	Zn220	Zn	0.000986	0.744528	0.498533
	Zn221	Zn	0.000040	0.244867	0.498732
	Zn222	Zn	0.000081	0.495051	0.748886
	Zn223	Zn	-0.000199	0.495205	0.247590
	Zn224	Zn	0.500878	0.744568	0.000361
	Zn225	Zn	0.501677	0.244411	0.000697
	Zn226	Zn	0.749944	-0.004936	0.499690
	Zn227	Zn	0.251049	-0.005576	0.499334
	N228	N	0.414394	0.957875	0.678647
	N229	N	0.587734	0.031881	0.679322
	N230	N	0.586564	0.957629	0.322089
	N231	N	0.413428	0.030849	0.320513
	N232	N	0.681834	0.407066	0.962800
	N233	N	0.680555	0.579425	0.036458
	N234	N	0.321269	0.580893	0.962599
	N235	N	0.322295	0.407390	0.035435
	N236	N	0.963337	0.673884	0.412478
	N237	N	0.038391	0.671397	0.582780
	N238	N	0.962114	0.317103	0.583557
	N239	N	0.037753	0.317059	0.413964
	N240	N	0.962743	0.408547	0.678017
	N241	N	0.036975	0.581768	0.678570
	N242	N	0.963282	0.581834	0.318783
	N243	N	0.037030	0.408391	0.319005
	N244	N	0.414279	0.673900	0.962563
	N245	N	0.586639	0.671933	0.037288
	N246	N	0.588387	0.314500	0.963226
	N247	N	0.417168	0.316943	0.036870
	N248	N	0.677193	0.957328	0.416113
	N249	N	0.678967	0.032203	0.586071
	N250	N	0.323083	0.957455	0.584954
	N251	N	0.323191	0.031742	0.414528
	N252	N	0.914101	0.458796	0.176858
	N253	N	0.087209	0.531490	0.177933
	N254	N	0.086337	0.457250	0.820338
	N255	N	0.913739	0.531614	0.819647
	N256	N	0.180081	0.908537	0.462536
	N257	N	0.180370	0.081157	0.536237
	N258	N	0.820972	0.081087	0.462556
	N259	N	0.822505	0.909685	0.537038
	N260	N	0.464373	0.172699	0.914847
	N261	N	0.538687	0.171541	0.085226
	N262	N	0.463546	0.815729	0.086080
	N263	N	0.538835	0.816732	0.915867
	N264	N	0.463972	0.907955	0.179132
	N265	N	0.537213	0.080742	0.179676
	N266	N	0.465093	0.081744	0.819985
	N267	N	0.538389	0.907812	0.820750
	N268	N	0.914091	0.173493	0.461917
	N269	N	0.086040	0.173323	0.536441
	N270	N	0.086384	0.816529	0.461738
	N271	N	0.915440	0.816104	0.536338
	N272	N	0.178917	0.457137	0.913093
	N273	N	0.179367	0.531595	0.084767
	N274	N	0.825762	0.457217	0.082839
	N275	N	0.821151	0.531444	0.911442
	O276	O	0.535177	0.544705	0.538766
	H277	H	0.536744	0.550211	0.540297
	H278	H	0.534797	0.534577	0.528590
	O279	O	0.524805	0.605382	0.565000
	H280	H	0.535313	0.598076	0.550726
	H281	H	0.522291	0.604669	0.574556
	O282	O	0.890611	1.087030	-0.153738
	H283	H	0.892035	1.093506	-0.163620
	H284	H	0.889746	1.094913	-0.154127
	O285	O	1.043760	-0.028919	1.076693
	H286	H	1.043262	-0.029639	1.062633
	H287	H	1.049028	-0.019896	1.079083
	O288	O	0.477230	0.547673	0.523379
	H289	H	0.475186	0.546621	0.522041
	H290	H	0.481086	0.547864	0.521530
	O291	O	0.519623	0.484906	0.589070
	H292	H	0.525650	0.483792	0.576029
	H293	H	0.526629	0.487825	0.596081
	O294	O	0.397850	0.464935	0.440426
	H295	H	0.395065	0.467452	0.438569
	H296	H	0.401786	0.462892	0.442977
	O297	O	0.013775	-0.080235	0.856381
	H298	H	0.007584	-0.083391	0.863556
	H299	H	0.021733	-0.091830	0.860870
	O300	O	0.129078	0.999243	0.029385
	H301	H	0.128761	0.991384	0.034969
	H302	H	0.130052	0.992193	0.021208
	O303	O	1.010134	0.952654	0.020246
	H304	H	1.001346	0.972618	0.020751
	H305	H	0.992933	0.943714	0.020715
	O306	O	-0.097585	0.993375	0.980257
	H307	H	-0.100042	1.007539	0.980826
	H308	H	-0.093499	0.988314	0.972210
	O309	O	0.535783	0.459554	0.529796
	H310	H	0.532451	0.460970	0.527614
	H311	H	0.539800	0.460719	0.527298
	O312	O	-0.112345	-0.019871	0.049239
	H313	H	-0.112583	-0.013480	0.039783
	H314	H	-0.110335	-0.019481	0.037560
	O315	O	0.942874	-0.076801	0.046004
	H316	H	0.948404	-0.073754	0.037970
	H317	H	0.937097	-0.066464	0.055895
	O318	O	1.030894	1.034726	0.991623
	H319	H	1.029275	1.021566	0.984227
	H320	H	1.033042	1.040164	0.976985
	O321	O	0.559977	0.458906	1.588757
	H322	H	0.543993	0.460905	1.571965
	H323	H	0.556502	0.454279	1.595785
	O324	O	0.539620	0.489764	0.520539
	H325	H	0.532119	0.483647	0.517206
	H326	H	0.534327	0.490202	0.524394
	O327	O	0.071515	0.014553	0.110031
	H328	H	0.066067	0.022267	0.115736
	H329	H	0.075359	0.014373	0.111777
	O330	O	0.440737	0.451266	0.545237
	H331	H	0.443404	0.456828	0.551139
	H332	H	0.427191	0.441366	0.543939
	O333	O	0.015615	0.890067	0.934914
	H334	H	0.029338	0.881061	0.932494
	H335	H	0.015924	0.897071	0.946844
	O336	O	0.101825	-0.007389	-0.007633
	H337	H	0.106793	-0.006796	0.007452
	H338	H	0.097288	-0.017223	-0.017356
	O339	O	0.524574	0.557110	0.501589
	H340	H	0.523464	0.559059	0.497099
	H341	H	0.521207	0.548873	0.516338
	O342	O	1.054705	1.034404	0.912638
	H343	H	1.054106	1.034558	0.930858
	H344	H	1.058756	1.032354	0.908215
	O345	O	0.918730	0.992441	-0.037039
	H346	H	0.917467	0.988353	-0.040555
	H347	H	0.920886	0.989715	-0.032128
	O348	O	0.468257	0.506298	0.534557
	H349	H	0.465598	0.507588	0.538095
	H350	H	0.463847	0.497508	0.533882
	O351	O	0.496771	0.544976	0.447749
	H352	H	0.503001	0.545652	0.458878
	H353	H	0.491749	0.547634	0.445647
	O354	O	0.500115	0.544339	0.450795
	H355	H	0.497597	0.548356	0.460836
	H356	H	0.492482	0.551785	0.463827
	O357	O	0.935016	-0.026178	0.904643
	H358	H	0.939903	-0.035307	0.908236
	H359	H	0.928488	-0.031721	0.913534
	O360	O	0.526589	0.477847	0.474888
	H361	H	0.529657	0.488502	0.476830
	H362	H	0.531040	0.483055	0.475284
	O363	O	0.389193	0.477076	0.422511
	H364	H	0.408205	0.485567	0.415664
	H365	H	0.386557	0.475094	0.423930
	O366	O	1.066459	0.997940	1.079959
	H367	H	1.068748	0.995893	1.079350
	H368	H	1.070392	1.006237	1.081803
	O369	O	1.054564	0.012092	0.855187
	H370	H	1.049665	0.015874	0.856997
	H371	H	1.057017	0.001035	0.844907
	O372	O	0.041611	0.108789	0.086155
	H373	H	0.041719	0.113327	0.083944
	H374	H	0.036545	0.117054	0.077680
	O375	O	1.013871	0.058554	0.050397
	H376	H	1.011898	0.063865	0.052920
	H377	H	1.018482	0.053821	0.064801
	O378	O	0.470759	0.484240	0.524911
	H379	H	0.470397	0.483750	0.514515
	H380	H	0.464216	0.486416	0.533971
	O381	O	0.443923	0.406483	0.525630
	H382	H	0.457245	0.417014	0.536968
	H383	H	0.449403	0.399281	0.531664
