data_Molecule from HDF5

_cell_length_a		16.391863
_cell_length_b		16.499401
_cell_length_c		16.375668
_cell_angle_alpha	89.922910
_cell_angle_beta	89.987242
_cell_angle_gamma	90.228685
_symmetry_space_group_name_H-M	'P 1'
_symmetry_Int_Tables_number		1

loop_
	_symmetry_equiv_pos_as_xyz
	x,y,z

loop_
	_atom_site_label
	_atom_site_type_symbol
	_atom_site_fract_x
	_atom_site_fract_y
	_atom_site_fract_z
	H0	H	0.385491	0.841870	0.723474
	H1	H	0.596407	0.158300	0.724703
	H2	H	0.593442	0.841629	0.282472
	H3	H	0.383909	0.156647	0.277564
	H4	H	0.709461	0.397966	0.843317
	H5	H	0.710949	0.603609	0.162400
	H6	H	0.269353	0.604872	0.844617
	H7	H	0.267443	0.391018	0.161174
	H8	H	0.830763	0.718998	0.398613
	H9	H	0.146509	0.724026	0.610667
	H10	H	0.832001	0.278047	0.609207
	H11	H	0.148894	0.278839	0.396792
	H12	H	0.831130	0.395960	0.723797
	H13	H	0.149780	0.603463	0.722194
	H14	H	0.832103	0.603765	0.282070
	H15	H	0.149721	0.394932	0.282195
	H16	H	0.387255	0.719188	0.843542
	H17	H	0.597716	0.720805	0.161202
	H18	H	0.595899	0.280392	0.843890
	H19	H	0.381654	0.274499	0.160505
	H20	H	0.709252	0.841657	0.400202
	H21	H	0.711736	0.159287	0.607362
	H22	H	0.268773	0.842213	0.606746
	H23	H	0.269380	0.158138	0.395821
	H24	H	0.884655	0.342497	0.226897
	H25	H	0.096934	0.657969	0.224787
	H26	H	0.095749	0.342303	0.780844
	H27	H	0.888753	0.658570	0.783713
	H28	H	0.209600	0.895026	0.342829
	H29	H	0.212358	0.104990	0.661801
	H30	H	0.769889	0.104977	0.343214
	H31	H	0.767690	0.895241	0.661936
	H32	H	0.333944	0.224123	0.893003
	H33	H	0.647917	0.222761	0.111222
	H34	H	0.333649	0.773921	0.109209
	H35	H	0.650010	0.779717	0.896262
	H36	H	0.332134	0.890490	0.224031
	H37	H	0.649254	0.103995	0.223241
	H38	H	0.331494	0.104235	0.782231
	H39	H	0.649793	0.896889	0.781713
	H40	H	0.883874	0.222946	0.344918
	H41	H	0.096420	0.220855	0.662287
	H42	H	0.093709	0.779256	0.344368
	H43	H	0.882214	0.778257	0.662137
	H44	H	0.212849	0.341746	0.896114
	H45	H	0.215157	0.656793	0.109940
	H46	H	0.766529	0.342005	0.111382
	H47	H	0.770904	0.658042	0.898540
	H48	H	0.402481	0.111994	0.589038
	H49	H	0.576681	0.890373	0.588093
	H50	H	0.570757	0.108519	0.418464
	H51	H	0.401194	0.888143	0.415164
	H52	H	0.574825	0.413251	0.113939
	H53	H	0.578318	0.589658	0.889827
	H54	H	0.400309	0.586774	0.117349
	H55	H	0.401961	0.409596	0.889473
	H56	H	0.105731	0.595453	0.414330
	H57	H	0.877514	0.585970	0.591512
	H58	H	0.099532	0.415719	0.586599
	H59	H	0.876617	0.410791	0.411901
	H60	H	0.106075	0.413725	0.601059
	H61	H	0.873575	0.589235	0.598555
	H62	H	0.102571	0.590102	0.420510
	H63	H	0.878975	0.408279	0.420983
	H64	H	0.406219	0.581794	0.113608
	H65	H	0.583138	0.594456	0.886864
	H66	H	0.577985	0.405187	0.118997
	H67	H	0.402256	0.413290	0.891002
	H68	H	0.589750	0.114342	0.417560
	H69	H	0.583252	0.886193	0.592404
	H70	H	0.398620	0.113372	0.592859
	H71	H	0.397862	0.886893	0.414116
	H72	H	0.900141	0.611965	0.092129
	H73	H	0.074935	0.387610	0.094587
	H74	H	0.074619	0.607932	0.920618
	H75	H	0.900920	0.386829	0.913345
	H76	H	0.075201	0.916488	0.612941
	H77	H	0.082997	0.090335	0.388295
	H78	H	0.902009	0.085410	0.615099
	H79	H	0.897635	0.911901	0.389414
	H80	H	0.600909	0.085539	0.919306
	H81	H	0.375798	0.086823	0.094247
	H82	H	0.601923	0.915953	0.090354
	H83	H	0.376085	0.901779	0.915868
	H84	H	0.606572	0.908602	0.097783
	H85	H	0.378567	0.090870	0.084195
	H86	H	0.605043	0.086822	0.908472
	H87	H	0.380028	0.912543	0.918978
	H88	H	0.904519	0.091953	0.615602
	H89	H	0.077655	0.085274	0.391057
	H90	H	0.074720	0.906286	0.616698
	H91	H	0.903044	0.911742	0.391824
	H92	H	0.089186	0.613875	0.916754
	H93	H	0.077591	0.389653	0.087893
	H94	H	0.903202	0.612838	0.094319
	H95	H	0.900715	0.387040	0.915597
	H96	H	0.403748	0.113787	0.594520
	H97	H	0.575399	0.888311	0.596683
	H98	H	0.578162	0.116403	0.401366
	H99	H	0.400463	0.886793	0.411418
	H100	H	0.584230	0.412984	0.117629
	H101	H	0.584874	0.587296	0.888431
	H102	H	0.408092	0.589767	0.115094
	H103	H	0.405179	0.411116	0.891423
	H104	H	0.103924	0.586900	0.412100
	H105	H	0.874764	0.593919	0.591280
	H106	H	0.106849	0.401890	0.590696
	H107	H	0.880710	0.417325	0.417820
	H108	H	0.903276	0.610729	0.091161
	H109	H	0.081852	0.387044	0.093015
	H110	H	0.077657	0.613426	0.905769
	H111	H	0.899079	0.386492	0.914155
	H112	H	0.084171	0.912351	0.617735
	H113	H	0.075578	0.093085	0.389936
	H114	H	0.898141	0.090149	0.617898
	H115	H	0.900895	0.907256	0.388609
	H116	H	0.605686	0.095983	0.915966
	H117	H	0.380960	0.080515	0.086681
	H118	H	0.604869	0.905211	0.086720
	H119	H	0.376183	0.910731	0.907766
	C120	C	0.368865	0.008628	0.624025
	C121	C	0.611477	0.992631	0.624550
	C122	C	0.610936	0.008388	0.381148
	C123	C	0.367886	0.991320	0.380229
	C124	C	0.611230	0.379118	0.011463
	C125	C	0.613601	0.622058	0.993694
	C126	C	0.371895	0.618994	0.010926
	C127	C	0.368743	0.376917	0.994368
	C128	C	-0.000966	0.621646	0.382990
	C129	C	0.980601	0.621500	0.625277
	C130	C	-0.000773	0.378364	0.625196
	C131	C	0.982674	0.379372	0.383014
	C132	C	0.868978	0.507900	0.125553
	C133	C	0.112343	0.491747	0.125058
	C134	C	0.112642	0.507821	0.881460
	C135	C	0.869791	0.491430	0.882497
	C136	C	0.110182	0.879122	0.511003
	C137	C	0.112022	0.121765	0.494504
	C138	C	0.868932	0.121626	0.511201
	C139	C	0.867745	0.878293	0.495012
	C140	C	0.499274	0.121608	0.881458
	C141	C	0.482374	0.119757	0.122682
	C142	C	0.499645	0.876726	0.123893
	C143	C	0.482418	0.877768	0.881524
	C144	C	0.366802	0.889521	0.683567
	C145	C	0.614458	0.111311	0.684619
	C146	C	0.612173	0.889065	0.322253
	C147	C	0.365968	0.109626	0.318710
	C148	C	0.670295	0.378631	0.891465
	C149	C	0.671963	0.622651	0.114201
	C150	C	0.310548	0.621928	0.891730
	C151	C	0.307242	0.373220	0.113475
	C152	C	0.878876	0.680158	0.380049
	C153	C	0.099734	0.682921	0.628108
	C154	C	0.879447	0.318235	0.627286
	C155	C	0.101667	0.318994	0.379175
	C156	C	0.879060	0.376925	0.684307
	C157	C	0.101354	0.622979	0.683568
	C158	C	0.879494	0.622349	0.322443
	C159	C	0.101997	0.376856	0.322086
	C160	C	0.368893	0.679270	0.891300
	C161	C	0.615526	0.680963	0.113635
	C162	C	0.613691	0.319964	0.891796
	C163	C	0.364132	0.314978	0.112989
	C164	C	0.669794	0.889245	0.380700
	C165	C	0.672108	0.111339	0.626261
	C166	C	0.308723	0.889699	0.625615
	C167	C	0.308606	0.110406	0.377373
	C168	C	0.865909	0.389360	0.186781
	C169	C	0.115581	0.610159	0.185183
	C170	C	0.114305	0.389366	0.821047
	C171	C	0.869258	0.610976	0.823090
	C172	C	0.169841	0.876869	0.391059
	C173	C	0.172572	0.123688	0.613949
	C174	C	0.809172	0.123818	0.391494
	C175	C	0.807286	0.876255	0.614164
	C176	C	0.381003	0.182994	0.876494
	C177	C	0.600817	0.181621	0.127837
	C178	C	0.380923	0.814722	0.126922
	C179	C	0.602150	0.819170	0.878552
	C180	C	0.380077	0.873007	0.184020
	C181	C	0.601600	0.122099	0.183430
	C182	C	0.379507	0.123123	0.821285
	C183	C	0.602155	0.877621	0.821544
	C184	C	0.866127	0.182262	0.392029
	C185	C	0.114816	0.181454	0.614099
	C186	C	0.112619	0.818616	0.391965
	C187	C	0.864595	0.818251	0.614388
	C188	C	0.173058	0.389412	0.878292
	C189	C	0.174443	0.609582	0.127865
	C190	C	0.807351	0.389544	0.128978
	C191	C	0.810785	0.610731	0.880342
	C192	C	0.394326	0.091554	0.599237
	C193	C	0.585631	0.909856	0.599583
	C194	C	0.586402	0.091458	0.405428
	C195	C	0.392628	0.908772	0.406101
	C196	C	0.586027	0.403348	0.095094
	C197	C	0.589062	0.597625	0.910012
	C198	C	0.397591	0.593384	0.093712
	C199	C	0.395394	0.403506	0.912220
	C200	C	0.082232	0.597806	0.408415
	C201	C	0.897054	0.596878	0.600878
	C202	C	0.082479	0.403232	0.599937
	C203	C	0.900260	0.404736	0.409312
	C204	C	0.894726	0.590340	0.099853
	C205	C	0.085595	0.409213	0.099102
	C206	C	0.087744	0.590366	0.907014
	C207	C	0.893423	0.408430	0.907139
	C208	C	0.085186	0.904579	0.594117
	C209	C	0.086173	0.096695	0.411531
	C210	C	0.894221	0.096411	0.594589
	C211	C	0.893244	0.903251	0.411792
	C212	C	0.582308	0.096450	0.907087
	C213	C	0.399904	0.093648	0.095952
	C214	C	0.582844	0.902656	0.098906
	C215	C	0.398947	0.901537	0.906937
	Zn216	Zn	0.490361	0.000141	0.753789
	Zn217	Zn	0.489921	-0.000946	0.251395
	Zn218	Zn	0.740484	0.499679	0.003411
	Zn219	Zn	0.241435	0.499243	0.003298
	Zn220	Zn	-0.010943	0.749684	0.503785
	Zn221	Zn	-0.009425	0.250351	0.502907
	Zn222	Zn	-0.009333	0.500356	0.752972
	Zn223	Zn	-0.008789	0.499909	0.254463
	Zn224	Zn	0.492071	0.748698	0.002341
	Zn225	Zn	0.490494	0.249453	0.002959
	Zn226	Zn	0.740315	0.000410	0.502475
	Zn227	Zn	0.239507	0.000072	0.501958
	N228	N	0.403201	0.964788	0.682988
	N229	N	0.577421	0.036532	0.683497
	N230	N	0.576241	0.964153	0.322509
	N231	N	0.401697	0.034402	0.319855
	N232	N	0.668879	0.414632	0.966998
	N233	N	0.671015	0.586793	0.038597
	N234	N	0.312257	0.585110	0.966951
	N235	N	0.309864	0.411015	0.038706
	N236	N	0.954204	0.679935	0.416885
	N237	N	0.023688	0.682278	0.592755
	N238	N	0.955349	0.318877	0.591340
	N239	N	0.026647	0.320341	0.416343
	N240	N	0.954571	0.413206	0.683365
	N241	N	0.026387	0.585645	0.681831
	N242	N	0.955096	0.586690	0.323921
	N243	N	0.026877	0.413661	0.324226
	N244	N	0.406265	0.677586	0.966456
	N245	N	0.580003	0.680744	0.037552
	N246	N	0.577854	0.320012	0.967820
	N247	N	0.401589	0.316987	0.037960
	N248	N	0.669175	0.964514	0.416356
	N249	N	0.670514	0.036346	0.589743
	N250	N	0.309777	0.964824	0.589395
	N251	N	0.309607	0.035774	0.414699
	N252	N	0.903637	0.463756	0.184627
	N253	N	0.078001	0.535659	0.183573
	N254	N	0.077555	0.463898	0.822844
	N255	N	0.905120	0.535764	0.824223
	N256	N	0.168405	0.913996	0.465972
	N257	N	0.171085	0.087575	0.538403
	N258	N	0.810855	0.086817	0.466735
	N259	N	0.809205	0.912939	0.539032
	N260	N	0.456330	0.182256	0.913076
	N261	N	0.525715	0.180185	0.090552
	N262	N	0.456404	0.816927	0.090330
	N263	N	0.526877	0.819296	0.915274
	N264	N	0.454941	0.910759	0.182526
	N265	N	0.526848	0.084281	0.180368
	N266	N	0.454306	0.085723	0.824118
	N267	N	0.526524	0.913422	0.823100
	N268	N	0.902530	0.181233	0.467614
	N269	N	0.077766	0.180487	0.538730
	N270	N	0.076058	0.820018	0.467558
	N271	N	0.901485	0.819298	0.539041
	N272	N	0.172081	0.464259	0.915149
	N273	N	0.172388	0.534697	0.091177
	N274	N	0.809100	0.464280	0.091653
	N275	N	0.810933	0.535560	0.916539
	O276	O	0.427319	0.685607	0.616154
	H277	H	0.428572	0.676170	0.602476
	H278	H	0.427502	0.684409	0.619849
	O279	O	0.488873	0.368966	0.312142
	H280	H	0.463649	0.360325	0.293217
	H281	H	0.484928	0.400884	0.316619
	O282	O	0.497976	0.309131	0.683694
	H283	H	0.506995	0.318060	0.677027
	H284	H	0.496079	0.294334	0.694149
	O285	O	1.199803	0.980270	-0.193162
	H286	H	1.189235	0.986121	-0.172921
	H287	H	1.229266	0.981313	-0.220284
	O288	O	0.537071	0.365594	0.571508
	H289	H	0.539355	0.367797	0.574861
	H290	H	0.536711	0.370251	0.584434
	O291	O	1.058148	-0.158744	0.800501
	H292	H	1.048553	-0.156968	0.806429
	H293	H	1.062907	-0.149713	0.777625
	O294	O	0.886574	1.060587	0.972362
	H295	H	0.893036	1.052165	0.981542
	H296	H	0.874096	1.064217	0.960144
	O297	O	0.580964	0.561828	0.693190
	H298	H	0.587642	0.574998	0.700282
	H299	H	0.567639	0.551141	0.690053
	O300	O	0.338750	0.393171	0.462086
	H301	H	0.346739	0.400898	0.461075
	H302	H	0.351906	0.386407	0.469102
	O303	O	0.668534	0.354158	0.505929
	H304	H	0.658246	0.358209	0.496114
	H305	H	0.688858	0.342129	0.504292
	O306	O	0.308631	-0.522310	1.697691
	H307	H	0.290459	-0.523358	1.715743
	H308	H	0.325532	-0.540824	1.699954
	O309	O	0.968562	0.199962	-0.177068
	H310	H	0.970876	0.197074	-0.181672
	H311	H	0.978558	0.211544	-0.177569
	O312	O	0.467536	0.294110	0.532085
	H313	H	0.485122	0.291947	0.525105
	H314	H	0.477871	0.302907	0.546003
	O315	O	0.046625	0.103712	0.838795
	H316	H	0.052135	0.084011	0.845338
	H317	H	0.057833	0.105832	0.844258
	O318	O	0.004357	0.010009	0.181449
	H319	H	-0.011158	-0.004503	0.175502
	H320	H	-0.002726	0.022454	0.192877
	O321	O	0.834917	0.104358	0.077092
	H322	H	0.857754	0.106968	0.070044
	H323	H	0.821523	0.109682	0.065569
	O324	O	0.786050	-0.142225	1.015626
	H325	H	0.802048	-0.162655	1.010794
	H326	H	0.787134	-0.131647	1.018683
	O327	O	0.345625	0.636560	0.502286
	H328	H	0.354900	0.613969	0.512588
	H329	H	0.345229	0.624117	0.484338
	O330	O	0.019828	0.849093	1.087117
	H331	H	0.017963	0.848374	1.111674
	H332	H	0.008962	0.856748	1.087925
	O333	O	-0.202288	1.185221	-0.182392
	H334	H	-0.167781	1.185628	-0.185103
	H335	H	-0.190910	1.160577	-0.186081
	O336	O	1.191441	0.976078	-0.084002
	H337	H	1.189341	0.989439	-0.086748
	H338	H	1.192371	0.979460	-0.100586
	O339	O	-0.042560	0.944114	1.051633
	H340	H	-0.032254	0.943904	1.047654
	H341	H	-0.025459	0.954497	1.054104
	O342	O	0.518425	0.485596	0.379822
	H343	H	0.532698	0.485791	0.380150
	H344	H	0.518916	0.495589	0.373430
	O345	O	0.173067	0.174366	1.012155
	H346	H	0.177503	0.174243	1.031946
	H347	H	0.198526	0.182464	1.025089
	O348	O	0.458494	0.690140	0.613357
	H349	H	0.451674	0.697619	0.602699
	H350	H	0.464574	0.667379	0.598494
	O351	O	1.678644	1.442180	-0.488026
	H352	H	1.666683	1.447707	-0.499043
	H353	H	1.684824	1.428822	-0.493164
	O354	O	1.198344	0.792945	0.988266
	H355	H	1.204399	0.795252	0.960681
	H356	H	1.191100	0.774758	0.994665
	O357	O	-0.059303	-0.110430	-0.173956
	H358	H	-0.059801	-0.099236	-0.177887
	H359	H	-0.050742	-0.111324	-0.165110
	O360	O	0.676498	0.686184	0.538606
	H361	H	0.665044	0.692940	0.544727
	H362	H	0.692481	0.684350	0.532680
	O363	O	1.546335	0.457766	0.679588
	H364	H	1.534404	0.465092	0.687550
	H365	H	1.571616	0.470203	0.669903
	O366	O	-0.162741	0.030179	0.876596
	H367	H	-0.168322	0.015629	0.886622
	H368	H	-0.170522	0.015385	0.885406
	O369	O	0.841540	0.703520	0.851268
	H370	H	0.850786	0.697021	0.848407
	H371	H	0.851033	0.692103	0.855255
	O372	O	0.653263	0.484540	0.301012
	H373	H	0.660011	0.489548	0.284711
	H374	H	0.657413	0.481700	0.312985
	O375	O	-0.068147	-0.196670	1.197433
	H376	H	-0.082042	-0.189663	1.219849
	H377	H	-0.078112	-0.188132	1.177795
	O378	O	-0.070664	0.117907	0.158301
	H379	H	-0.082828	0.111576	0.163766
	H380	H	-0.061902	0.105937	0.139546
	O381	O	0.207680	0.986044	0.153402
	H382	H	0.211982	1.001088	0.153248
	H383	H	0.213617	0.987741	0.142604
	O384	O	-0.222038	1.185801	0.963162
	H385	H	-0.216331	1.187935	0.936165
	H386	H	-0.239471	1.204187	0.960786
	O387	O	0.592572	0.668162	0.415824
	H388	H	0.594260	0.684892	0.424920
	H389	H	0.584314	0.665310	0.410362
	O390	O	0.818109	1.012690	0.165435
	H391	H	0.818637	1.022013	0.166482
	H392	H	0.808785	1.005407	0.161607
	O393	O	0.615941	0.349540	0.317194
	H394	H	0.611444	0.353586	0.329212
	H395	H	0.592892	0.338838	0.309220
	O396	O	0.824385	-0.191180	0.116898
	H397	H	0.826885	-0.184049	0.101889
	H398	H	0.806881	-0.200193	0.119595
	O399	O	0.676150	0.593268	0.481694
	H400	H	0.683841	0.597855	0.487234
	H401	H	0.660938	0.590039	0.490007
	O402	O	1.170763	1.180127	0.179784
	H403	H	1.182040	1.165646	0.172318
	H404	H	1.118020	1.189735	0.190498
	O405	O	0.367837	0.437926	0.341063
	H406	H	0.355732	0.444002	0.345056
	H407	H	0.368188	0.452034	0.334660
	O408	O	0.396629	0.506866	0.674369
	H409	H	0.392609	0.489563	0.644199
	H410	H	0.414652	0.508239	0.673224
	O411	O	0.978989	0.864200	1.012848
	H412	H	0.990084	0.864392	1.010745
	H413	H	0.984803	0.872077	1.005704
	O414	O	0.501399	0.683816	0.498239
	H415	H	0.504720	0.681841	0.497676
	H416	H	0.492042	0.683182	0.513942
	O417	O	0.050359	0.969962	0.964617
	H418	H	0.056613	0.967827	0.975169
	H419	H	0.045424	0.975041	0.964844
	O420	O	0.086797	1.038310	0.882987
	H421	H	0.089490	1.046195	0.886578
	H422	H	0.081759	1.035352	0.895095
	O423	O	0.162654	1.002954	0.084619
	H424	H	0.174829	0.982935	0.095059
	H425	H	0.177442	0.992834	0.081325
	O426	O	0.295273	0.470576	0.459542
	H427	H	0.300654	0.457284	0.474647
	H428	H	0.289635	0.458276	0.466868
	O429	O	0.359166	0.596530	0.303750
	H430	H	0.367681	0.595294	0.303767
	H431	H	0.348142	0.606504	0.311820
	O432	O	0.410558	0.467520	0.448434
	H433	H	0.398243	0.455057	0.453115
	H434	H	0.403186	0.460755	0.445832
	O435	O	-0.021559	0.152639	0.132304
	H436	H	-0.036307	0.154610	0.145669
	H437	H	-0.020111	0.150154	0.130276
	O438	O	0.445353	0.673486	0.320611
	H439	H	0.443433	0.683893	0.323398
	H440	H	0.443304	0.690973	0.324811
	O441	O	0.302683	0.336751	0.611017
	H442	H	0.324671	0.343555	0.593662
	H443	H	0.283805	0.317591	0.616225
