data_Molecule from HDF5

_cell_length_a		16.209754
_cell_length_b		16.297254
_cell_length_c		16.296963
_cell_angle_alpha	90.196540
_cell_angle_beta	89.702225
_cell_angle_gamma	89.906541
_symmetry_space_group_name_H-M	'P 1'
_symmetry_Int_Tables_number		1

loop_
	_symmetry_equiv_pos_as_xyz
	x,y,z

loop_
	_atom_site_label
	_atom_site_type_symbol
	_atom_site_fract_x
	_atom_site_fract_y
	_atom_site_fract_z
	H0	H	0.397820	0.830968	0.713866
	H1	H	0.599426	0.155738	0.715442
	H2	H	0.603420	0.831329	0.279488
	H3	H	0.402865	0.158337	0.284931
	H4	H	0.715534	0.388974	0.836392
	H5	H	0.710970	0.590941	0.161978
	H6	H	0.285528	0.589794	0.834623
	H7	H	0.282938	0.394377	0.162157
	H8	H	0.837100	0.709704	0.398001
	H9	H	0.164425	0.707315	0.597854
	H10	H	0.835917	0.280167	0.596490
	H11	H	0.164275	0.277323	0.397087
	H12	H	0.836609	0.392504	0.714109
	H13	H	0.163937	0.590804	0.712962
	H14	H	0.835550	0.592578	0.285227
	H15	H	0.162996	0.392414	0.279633
	H16	H	0.396141	0.708973	0.835940
	H17	H	0.598194	0.709447	0.160267
	H18	H	0.598849	0.274591	0.836048
	H19	H	0.396979	0.276376	0.162032
	H20	H	0.717377	0.831047	0.396500
	H21	H	0.713198	0.157311	0.596705
	H22	H	0.286070	0.830079	0.597105
	H23	H	0.285759	0.157751	0.401901
	H24	H	0.897629	0.330080	0.214534
	H25	H	0.098652	0.656037	0.214526
	H26	H	0.101034	0.329721	0.780306
	H27	H	0.899096	0.655481	0.784316
	H28	H	0.217187	0.893570	0.335395
	H29	H	0.212702	0.092442	0.662893
	H30	H	0.786293	0.092770	0.334541
	H31	H	0.781952	0.893799	0.661198
	H32	H	0.334652	0.207172	0.900163
	H33	H	0.661878	0.208734	0.098274
	H34	H	0.333610	0.780193	0.097985
	H35	H	0.661149	0.774313	0.895601
	H36	H	0.336547	0.894461	0.215985
	H37	H	0.664404	0.092896	0.210589
	H38	H	0.334519	0.092441	0.784783
	H39	H	0.662439	0.890924	0.780999
	H40	H	0.900764	0.208682	0.335455
	H41	H	0.101082	0.210760	0.660807
	H42	H	0.102590	0.775698	0.336101
	H43	H	0.899745	0.778297	0.662073
	H44	H	0.214395	0.328671	0.899049
	H45	H	0.212777	0.656406	0.097230
	H46	H	0.783608	0.328585	0.097119
	H47	H	0.782360	0.654920	0.899600
	H48	H	0.394938	0.112561	0.589852
	H49	H	0.596944	0.873643	0.595744
	H50	H	0.601475	0.112131	0.406874
	H51	H	0.410003	0.878562	0.405515
	H52	H	0.595489	0.402684	0.115402
	H53	H	0.586748	0.578501	0.883718
	H54	H	0.405283	0.588463	0.115598
	H55	H	0.406295	0.395684	0.881626
	H56	H	0.114929	0.581597	0.406551
	H57	H	0.882838	0.589590	0.588379
	H58	H	0.115559	0.404001	0.589039
	H59	H	0.882476	0.398180	0.406448
	H60	H	0.118485	0.399983	0.592121
	H61	H	0.885454	0.580947	0.590285
	H62	H	0.117534	0.583270	0.402817
	H63	H	0.883980	0.399991	0.408428
	H64	H	0.403157	0.585976	0.115373
	H65	H	0.587850	0.586513	0.882204
	H66	H	0.585165	0.401365	0.112854
	H67	H	0.404636	0.400700	0.882931
	H68	H	0.591865	0.111420	0.396265
	H69	H	0.582381	0.879438	0.591380
	H70	H	0.410643	0.112867	0.604252
	H71	H	0.411077	0.878799	0.405793
	H72	H	0.906575	0.607491	0.089083
	H73	H	0.091743	0.378458	0.084484
	H74	H	0.099988	0.609316	0.908100
	H75	H	0.903398	0.376631	0.910943
	H76	H	0.089489	0.886558	0.617893
	H77	H	0.094367	0.095663	0.379118
	H78	H	0.905811	0.085463	0.613528
	H79	H	0.914756	0.897787	0.384234
	H80	H	0.614843	0.086606	0.908984
	H81	H	0.382241	0.084734	0.089819
	H82	H	0.617319	0.901749	0.095930
	H83	H	0.380656	0.897247	0.905223
	H84	H	0.616468	0.892704	0.084108
	H85	H	0.382946	0.082197	0.092347
	H86	H	0.613718	0.080093	0.906962
	H87	H	0.382472	0.901807	0.909528
	H88	H	0.908460	0.085943	0.613481
	H89	H	0.102256	0.078773	0.381381
	H90	H	0.104727	0.905437	0.616649
	H91	H	0.906267	0.898488	0.381132
	H92	H	0.089659	0.610413	0.896608
	H93	H	0.094352	0.374846	0.093477
	H94	H	0.901798	0.610024	0.091445
	H95	H	0.904700	0.373238	0.899142
	H96	H	0.413386	0.105229	0.584705
	H97	H	0.594361	0.879760	0.580528
	H98	H	0.588296	0.106460	0.409016
	H99	H	0.410007	0.878309	0.407034
	H100	H	0.590171	0.393365	0.117151
	H101	H	0.594276	0.581593	0.881563
	H102	H	0.406497	0.585480	0.113986
	H103	H	0.410822	0.398859	0.883671
	H104	H	0.116826	0.586053	0.406849
	H105	H	0.881279	0.585803	0.596093
	H106	H	0.117145	0.398132	0.586313
	H107	H	0.883680	0.401325	0.405815
	H108	H	0.906644	0.608463	0.095037
	H109	H	0.085342	0.377848	0.091644
	H110	H	0.085518	0.605212	0.910413
	H111	H	0.914692	0.378722	0.904992
	H112	H	0.081885	0.907721	0.609566
	H113	H	0.084752	0.081476	0.386228
	H114	H	0.906394	0.088126	0.615412
	H115	H	0.911057	0.905523	0.384709
	H116	H	0.617145	0.084522	0.902634
	H117	H	0.381131	0.085192	0.093576
	H118	H	0.611839	0.906189	0.082644
	H119	H	0.381700	0.903236	0.903503
	C120	C	0.377283	0.002202	0.620956
	C121	C	0.620373	0.985395	0.618996
	C122	C	0.623651	0.002590	0.374465
	C123	C	0.380091	0.985958	0.377238
	C124	C	0.620010	0.369151	0.007425
	C125	C	0.618903	0.612555	0.989889
	C126	C	0.376391	0.614576	0.006841
	C127	C	0.377128	0.369921	0.990782
	C128	C	0.008520	0.613420	0.377132
	C129	C	0.991796	0.614195	0.620129
	C130	C	0.008836	0.371542	0.619354
	C131	C	0.991351	0.370419	0.376115
	C132	C	0.876077	0.500556	0.120576
	C133	C	0.119545	0.484938	0.119064
	C134	C	0.121368	0.500812	0.875958
	C135	C	0.877345	0.483754	0.876414
	C136	C	0.122857	0.870460	0.507288
	C137	C	0.121852	0.114524	0.490357
	C138	C	0.878591	0.115062	0.506256
	C139	C	0.879377	0.871569	0.490358
	C140	C	0.506960	0.113400	0.877397
	C141	C	0.490437	0.113902	0.119789
	C142	C	0.507105	0.871729	0.118711
	C143	C	0.489856	0.870502	0.876010
	C144	C	0.378863	0.879459	0.675841
	C145	C	0.618931	0.107499	0.675892
	C146	C	0.623077	0.880007	0.317843
	C147	C	0.381830	0.109059	0.322178
	C148	C	0.676632	0.369881	0.884974
	C149	C	0.674022	0.611643	0.112670
	C150	C	0.322119	0.611040	0.883862
	C151	C	0.320988	0.373494	0.113425
	C152	C	0.885532	0.670737	0.378737
	C153	C	0.115268	0.669390	0.617903
	C154	C	0.885433	0.316628	0.617724
	C155	C	0.115026	0.315094	0.376854
	C156	C	0.885673	0.372936	0.675801
	C157	C	0.114937	0.611780	0.675551
	C158	C	0.884791	0.612560	0.322500
	C159	C	0.114333	0.372487	0.318749
	C160	C	0.377246	0.670219	0.884460
	C161	C	0.617799	0.670587	0.111765
	C162	C	0.618418	0.312883	0.884883
	C163	C	0.377796	0.314707	0.113336
	C164	C	0.679529	0.879743	0.376235
	C165	C	0.675643	0.108217	0.616905
	C166	C	0.322920	0.879115	0.617815
	C167	C	0.323668	0.108847	0.380360
	C168	C	0.877720	0.378641	0.176665
	C169	C	0.118104	0.607331	0.175673
	C170	C	0.120184	0.378072	0.819536
	C171	C	0.878565	0.606348	0.821686
	C172	C	0.179532	0.872695	0.384441
	C173	C	0.175935	0.112657	0.613588
	C174	C	0.823893	0.112571	0.383673
	C175	C	0.821470	0.873697	0.612638
	C176	C	0.383512	0.169316	0.879952
	C177	C	0.613382	0.170595	0.118168
	C178	C	0.383223	0.817504	0.117751
	C179	C	0.612479	0.813113	0.876200
	C180	C	0.385091	0.873803	0.177021
	C181	C	0.614820	0.112610	0.173664
	C182	C	0.383503	0.112223	0.822336
	C183	C	0.613035	0.871365	0.819064
	C184	C	0.880948	0.170520	0.384009
	C185	C	0.120156	0.171394	0.612663
	C186	C	0.122456	0.814018	0.384537
	C187	C	0.879801	0.816127	0.613194
	C188	C	0.176793	0.377754	0.878287
	C189	C	0.175156	0.607412	0.117500
	C190	C	0.821283	0.377723	0.117882
	C191	C	0.820541	0.606012	0.878985
	C192	C	0.399536	0.088095	0.599236
	C193	C	0.597904	0.899796	0.595912
	C194	C	0.600725	0.087760	0.397247
	C195	C	0.403430	0.900669	0.399741
	C196	C	0.597055	0.392412	0.093073
	C197	C	0.596192	0.588991	0.904691
	C198	C	0.398425	0.592881	0.092700
	C199	C	0.400418	0.391852	0.904871
	C200	C	0.094246	0.590327	0.399054
	C201	C	0.905503	0.592137	0.598060
	C202	C	0.094825	0.394134	0.596012
	C203	C	0.905744	0.392988	0.399976
	C204	C	0.898300	0.586417	0.098263
	C205	C	0.097019	0.399208	0.096336
	C206	C	0.098622	0.586177	0.898423
	C207	C	0.900742	0.398313	0.898635
	C208	C	0.099046	0.893212	0.592543
	C209	C	0.100224	0.091839	0.404575
	C210	C	0.900499	0.093046	0.592069
	C211	C	0.903573	0.894121	0.405366
	C212	C	0.592640	0.090535	0.899545
	C213	C	0.404558	0.090754	0.098341
	C214	C	0.593085	0.893720	0.094609
	C215	C	0.403854	0.893635	0.899416
	Zn216	Zn	0.498753	-0.006928	0.748161
	Zn217	Zn	0.501230	-0.005746	0.247426
	Zn218	Zn	0.748396	0.491675	-0.001303
	Zn219	Zn	0.248940	0.492822	-0.001560
	Zn220	Zn	0.000434	0.741474	0.498408
	Zn221	Zn	0.000553	0.242926	0.498579
	Zn222	Zn	-0.000535	0.492698	0.747921
	Zn223	Zn	-0.001348	0.492947	0.248594
	Zn224	Zn	0.497663	0.742217	-0.002242
	Zn225	Zn	0.498532	0.240969	-0.000200
	Zn226	Zn	0.749884	-0.006466	0.497675
	Zn227	Zn	0.250504	-0.006584	0.499614
	N228	N	0.411782	0.957097	0.678142
	N229	N	0.585524	0.030019	0.677439
	N230	N	0.588831	0.957331	0.316784
	N231	N	0.415969	0.031817	0.320110
	N232	N	0.677762	0.404184	0.962145
	N233	N	0.674901	0.576161	0.035846
	N234	N	0.321516	0.577177	0.961135
	N235	N	0.320194	0.406660	0.035898
	N236	N	0.963502	0.671619	0.411970
	N237	N	0.037509	0.671013	0.584563
	N238	N	0.963137	0.315379	0.583368
	N239	N	0.037674	0.313550	0.411716
	N240	N	0.963654	0.406162	0.677048
	N241	N	0.037135	0.578088	0.676917
	N242	N	0.962049	0.577674	0.321384
	N243	N	0.036581	0.406283	0.318330
	N244	N	0.410441	0.672520	0.961833
	N245	N	0.584309	0.671455	0.034366
	N246	N	0.583906	0.312385	0.962208
	N247	N	0.411948	0.312655	0.035851
	N248	N	0.680289	0.956849	0.410539
	N249	N	0.676613	0.031099	0.582210
	N250	N	0.322000	0.956423	0.584308
	N251	N	0.322638	0.031347	0.414039
	N252	N	0.911121	0.456201	0.178322
	N253	N	0.084171	0.529993	0.176827
	N254	N	0.086282	0.455461	0.817910
	N255	N	0.913013	0.529159	0.819813
	N256	N	0.179887	0.906930	0.461754
	N257	N	0.177146	0.077948	0.536588
	N258	N	0.822556	0.078739	0.460765
	N259	N	0.821013	0.907285	0.535312
	N260	N	0.461177	0.170227	0.913458
	N261	N	0.535402	0.171363	0.085324
	N262	N	0.460588	0.815790	0.082286
	N263	N	0.534825	0.812317	0.910601
	N264	N	0.463058	0.906739	0.177612
	N265	N	0.537389	0.077898	0.174879
	N266	N	0.461238	0.078200	0.820504
	N267	N	0.535777	0.906509	0.819004
	N268	N	0.914377	0.172089	0.461493
	N269	N	0.087070	0.172594	0.534980
	N270	N	0.087994	0.812421	0.461842
	N271	N	0.915080	0.814614	0.536098
	N272	N	0.177858	0.454914	0.912556
	N273	N	0.175970	0.530241	0.083074
	N274	N	0.820248	0.454695	0.083538
	N275	N	0.819597	0.528486	0.912119
	O276	O	0.552005	0.518233	0.565305
	H277	H	0.548600	0.525538	0.569897
	H278	H	0.545146	0.515447	0.565665
	O279	O	0.448550	0.521162	0.513977
	H280	H	0.453866	0.515024	0.502810
	H281	H	0.441250	0.526440	0.528464
	O282	O	1.071357	0.974143	0.104028
	H283	H	1.076964	0.974009	0.102995
	H284	H	1.063622	0.995499	0.112957
	O285	O	1.094254	-0.158790	0.927200
	H286	H	1.094471	-0.169349	0.932404
	H287	H	1.097878	-0.161869	0.927582
	O288	O	0.468255	0.416475	0.484177
	H289	H	0.473170	0.415309	0.486933
	H290	H	0.466038	0.422412	0.477315
	O291	O	0.499194	0.602001	0.542625
	H292	H	0.494146	0.591954	0.538948
	H293	H	0.490217	0.602021	0.546001
	O294	O	0.429564	0.457635	0.418871
	H295	H	0.430585	0.457542	0.425390
	H296	H	0.433346	0.463000	0.411875
	O297	O	-0.011134	0.010664	0.962735
	H298	H	-0.006953	0.021445	0.960323
	H299	H	-0.016755	0.014390	0.966802
	O300	O	0.014861	0.997238	-0.012987
	H301	H	0.010895	0.999857	-0.017229
	H302	H	0.007824	0.992488	-0.025291
	O303	O	0.955335	0.868508	-0.041420
	H304	H	0.966326	0.853941	-0.040654
	H305	H	0.963556	0.878373	-0.025269
	O306	O	0.088873	1.040033	1.005872
	H307	H	0.092777	1.038042	1.010069
	H308	H	0.091048	1.056867	1.003194
	O309	O	0.532244	0.650771	0.571674
	H310	H	0.517871	0.654383	0.587243
	H311	H	0.542577	0.660054	0.575581
	O312	O	0.031334	0.015357	-0.016948
	H313	H	0.027983	0.018174	-0.026659
	H314	H	0.036660	0.007344	-0.012392
	O315	O	1.052704	0.073099	-0.015947
	H316	H	1.060497	0.061068	-0.014467
	H317	H	1.044854	0.074088	-0.039567
	O318	O	1.028586	1.037410	1.030767
	H319	H	1.031465	1.029539	1.022808
	H320	H	1.023108	1.042394	1.043626
	O321	O	0.555704	0.398873	1.500587
	H322	H	0.553380	0.397931	1.477049
	H323	H	0.556855	0.393300	1.499684
	O324	O	0.490036	0.485441	0.647381
	H325	H	0.502125	0.483157	0.670925
	H326	H	0.499329	0.471025	0.637431
	O327	O	-0.047700	0.074225	-0.024630
	H328	H	-0.046757	0.092509	-0.027367
	H329	H	-0.051348	0.065267	-0.032062
	O330	O	0.535852	0.566957	0.457449
	H331	H	0.540770	0.567845	0.446071
	H332	H	0.531163	0.576841	0.468208
	O333	O	-0.008503	1.032595	1.090165
	H334	H	0.001964	1.044739	1.086546
	H335	H	0.002646	1.028664	1.087587
	O336	O	-0.010276	0.126177	-0.117259
	H337	H	-0.023863	0.117355	-0.117711
	H338	H	-0.023247	0.137368	-0.121923
	O339	O	0.596880	0.420053	0.396611
	H340	H	0.603728	0.419573	0.394567
	H341	H	0.605567	0.419092	0.386517
	O342	O	0.832873	1.003134	1.063487
	H343	H	0.843249	1.011393	1.055412
	H344	H	0.821390	1.011859	1.065625
	O345	O	1.041971	0.966912	0.065951
	H346	H	1.043111	0.977809	0.067325
	H347	H	1.041185	0.972251	0.080935
	O348	O	0.642197	0.585158	0.512721
	H349	H	0.647828	0.590488	0.521883
	H350	H	0.642770	0.595454	0.519519
	O351	O	0.462874	0.399779	0.481325
	H352	H	0.467342	0.394890	0.480387
	H353	H	0.456268	0.400355	0.493891
	O354	O	0.493001	0.544810	0.555433
	H355	H	0.489318	0.549890	0.557916
	H356	H	0.492410	0.537767	0.555530
	O357	O	0.935802	-0.029486	1.100871
	H358	H	0.929694	-0.029293	1.108859
	H359	H	0.939363	-0.024545	1.097278
	O360	O	0.587977	0.599712	0.545920
	H361	H	0.593137	0.603715	0.539931
	H362	H	0.581058	0.600325	0.547568
	O363	O	0.456624	0.475096	0.605023
	H364	H	0.458423	0.476898	0.599336
	H365	H	0.463284	0.482596	0.600134
	O366	O	1.032924	0.986811	0.960514
	H367	H	1.038173	0.986273	0.959086
	H368	H	1.033695	0.967156	0.958650
	O369	O	1.008327	-0.017452	0.975344
	H370	H	1.010256	-0.030994	0.974349
	H371	H	1.010429	-0.015735	0.980859
	O372	O	-0.021731	-0.069187	-0.063564
	H373	H	-0.026798	-0.086158	-0.060168
	H374	H	-0.015395	-0.055149	-0.060130
	O375	O	0.913273	0.017503	-0.006859
	H376	H	0.905534	0.011245	-0.011343
	H377	H	0.903796	0.013443	0.001914
	O378	O	0.530657	0.592153	0.398602
	H379	H	0.527733	0.598282	0.407107
	H380	H	0.520317	0.595270	0.388734
	O381	O	0.406929	0.549454	0.489213
	H382	H	0.392870	0.548988	0.497364
	H383	H	0.404997	0.546741	0.489751
