data_Molecule from HDF5

_cell_length_a		16.313917
_cell_length_b		16.313120
_cell_length_c		16.351192
_cell_angle_alpha	89.955064
_cell_angle_beta	90.041396
_cell_angle_gamma	89.946209
_symmetry_space_group_name_H-M	'P 1'
_symmetry_Int_Tables_number		1

loop_
	_symmetry_equiv_pos_as_xyz
	x,y,z

loop_
	_atom_site_label
	_atom_site_type_symbol
	_atom_site_fract_x
	_atom_site_fract_y
	_atom_site_fract_z
	H0	H	0.401904	0.836551	0.714336
	H1	H	0.598697	0.163479	0.715244
	H2	H	0.598603	0.836504	0.286197
	H3	H	0.400858	0.163323	0.284815
	H4	H	0.713451	0.403147	0.836597
	H5	H	0.714989	0.597670	0.163436
	H6	H	0.286160	0.597768	0.836317
	H7	H	0.285280	0.401304	0.162911
	H8	H	0.836474	0.714785	0.402007
	H9	H	0.163512	0.713440	0.597227
	H10	H	0.836096	0.286817	0.596395
	H11	H	0.163181	0.284468	0.401344
	H12	H	0.836231	0.401971	0.713871
	H13	H	0.163000	0.598232	0.715465
	H14	H	0.836666	0.598577	0.285465
	H15	H	0.162727	0.400345	0.284536
	H16	H	0.403479	0.713912	0.836353
	H17	H	0.598195	0.714343	0.163758
	H18	H	0.597372	0.285322	0.836734
	H19	H	0.402570	0.285978	0.163299
	H20	H	0.714046	0.836537	0.402816
	H21	H	0.713990	0.163463	0.597653
	H22	H	0.286172	0.836680	0.598149
	H23	H	0.285149	0.163022	0.401900
	H24	H	0.900939	0.336592	0.213448
	H25	H	0.098209	0.662772	0.214420
	H26	H	0.097281	0.336203	0.786654
	H27	H	0.901807	0.663034	0.785053
	H28	H	0.214106	0.901749	0.336702
	H29	H	0.214538	0.097159	0.663430
	H30	H	0.786376	0.097413	0.337117
	H31	H	0.786236	0.902793	0.663393
	H32	H	0.336552	0.214946	0.901776
	H33	H	0.663865	0.214314	0.098296
	H34	H	0.336177	0.786423	0.097181
	H35	H	0.664030	0.786619	0.902900
	H36	H	0.336738	0.902114	0.214250
	H37	H	0.663172	0.097944	0.214923
	H38	H	0.336383	0.098655	0.784949
	H39	H	0.663310	0.902016	0.785764
	H40	H	0.902221	0.214222	0.337493
	H41	H	0.099055	0.214830	0.663644
	H42	H	0.098549	0.784239	0.337361
	H43	H	0.902171	0.785529	0.663496
	H44	H	0.214624	0.336488	0.902183
	H45	H	0.214414	0.663244	0.097820
	H46	H	0.786664	0.336737	0.095704
	H47	H	0.785705	0.664029	0.901227
	H48	H	0.410007	0.114850	0.592107
	H49	H	0.594862	0.883501	0.594210
	H50	H	0.589046	0.114319	0.409888
	H51	H	0.403723	0.883508	0.409641
	H52	H	0.606690	0.403771	0.120215
	H53	H	0.586645	0.587013	0.888646
	H54	H	0.406167	0.597593	0.116706
	H55	H	0.417360	0.411369	0.888741
	H56	H	0.120373	0.600222	0.398912
	H57	H	0.885132	0.594729	0.587577
	H58	H	0.117386	0.403010	0.594313
	H59	H	0.884179	0.410428	0.404451
	H60	H	0.114490	0.407533	0.590207
	H61	H	0.884622	0.586879	0.594411
	H62	H	0.114025	0.596211	0.417958
	H63	H	0.882392	0.404294	0.404361
	H64	H	0.402992	0.591019	0.116168
	H65	H	0.590115	0.605145	0.882091
	H66	H	0.591520	0.419566	0.111729
	H67	H	0.406101	0.394938	0.880957
	H68	H	0.597297	0.116939	0.408594
	H69	H	0.591900	0.884032	0.595254
	H70	H	0.405324	0.116344	0.590680
	H71	H	0.405859	0.882531	0.401132
	H72	H	0.909743	0.615010	0.090592
	H73	H	0.088198	0.384010	0.098248
	H74	H	0.085299	0.612636	0.911127
	H75	H	0.900574	0.382038	0.904462
	H76	H	0.094640	0.901024	0.617475
	H77	H	0.088591	0.089981	0.387379
	H78	H	0.903317	0.098483	0.619407
	H79	H	0.910264	0.904214	0.384774
	H80	H	0.615350	0.094413	0.910793
	H81	H	0.386486	0.085442	0.091887
	H82	H	0.616175	0.898967	0.085821
	H83	H	0.386279	0.910731	0.909385
	H84	H	0.613144	0.917093	0.092101
	H85	H	0.381066	0.095727	0.099924
	H86	H	0.614836	0.089152	0.905951
	H87	H	0.382769	0.907671	0.902114
	H88	H	0.903451	0.088066	0.615990
	H89	H	0.091820	0.097421	0.384141
	H90	H	0.097552	0.909890	0.615852
	H91	H	0.903113	0.904534	0.382868
	H92	H	0.102098	0.617400	0.911581
	H93	H	0.091488	0.386465	0.086708
	H94	H	0.904011	0.616531	0.091516
	H95	H	0.911117	0.383984	0.902482
	H96	H	0.406756	0.117050	0.595211
	H97	H	0.592954	0.885291	0.592376
	H98	H	0.591864	0.116869	0.402012
	H99	H	0.411942	0.885132	0.406524
	H100	H	0.584083	0.397217	0.115624
	H101	H	0.604236	0.591725	0.881934
	H102	H	0.410150	0.592059	0.114425
	H103	H	0.396897	0.413375	0.883416
	H104	H	0.113529	0.581492	0.403641
	H105	H	0.881663	0.596471	0.597162
	H106	H	0.116267	0.409583	0.595956
	H107	H	0.885136	0.406688	0.409811
	H108	H	0.908297	0.616776	0.096434
	H109	H	0.100194	0.380954	0.094580
	H110	H	0.092870	0.618900	0.896606
	H111	H	0.907137	0.385589	0.912411
	H112	H	0.088156	0.907521	0.614448
	H113	H	0.096559	0.090120	0.384087
	H114	H	0.912348	0.094149	0.614736
	H115	H	0.906259	0.910312	0.385133
	H116	H	0.616671	0.095879	0.903900
	H117	H	0.384415	0.098300	0.086374
	H118	H	0.619364	0.903614	0.104442
	H119	H	0.383134	0.902223	0.908766
	C120	C	0.378836	0.008124	0.621237
	C121	C	0.621660	0.992083	0.621986
	C122	C	0.621295	0.008225	0.378673
	C123	C	0.378450	0.991794	0.377864
	C124	C	0.621792	0.378817	0.007816
	C125	C	0.622122	0.622236	0.991993
	C126	C	0.378295	0.622051	0.007972
	C127	C	0.378213	0.378261	0.992032
	C128	C	0.008018	0.621167	0.378361
	C129	C	0.991817	0.620990	0.621379
	C130	C	0.008084	0.378213	0.621749
	C131	C	0.991782	0.378502	0.378435
	C132	C	0.878716	0.508359	0.120786
	C133	C	0.121669	0.491627	0.121614
	C134	C	0.121134	0.508135	0.878528
	C135	C	0.878272	0.491913	0.878300
	C136	C	0.121736	0.877961	0.508197
	C137	C	0.121324	0.121477	0.492457
	C138	C	0.877973	0.121852	0.508821
	C139	C	0.878351	0.878371	0.492105
	C140	C	0.507590	0.121552	0.878580
	C141	C	0.491986	0.121405	0.121333
	C142	C	0.508460	0.878273	0.122042
	C143	C	0.492208	0.878999	0.878871
	C144	C	0.381467	0.885388	0.676353
	C145	C	0.619102	0.114679	0.676998
	C146	C	0.618637	0.885290	0.323989
	C147	C	0.380276	0.114489	0.322621
	C148	C	0.675928	0.382134	0.885017
	C149	C	0.677167	0.618843	0.114921
	C150	C	0.323970	0.618737	0.884920
	C151	C	0.323061	0.380790	0.114282
	C152	C	0.885228	0.676547	0.381113
	C153	C	0.114789	0.675690	0.618400
	C154	C	0.884911	0.324082	0.618113
	C155	C	0.114393	0.322604	0.381134
	C156	C	0.885244	0.381022	0.676603
	C157	C	0.114485	0.618324	0.676743
	C158	C	0.885368	0.619006	0.323108
	C159	C	0.114406	0.380269	0.323170
	C160	C	0.381971	0.676543	0.885150
	C161	C	0.618811	0.676302	0.115153
	C162	C	0.618235	0.323910	0.885234
	C163	C	0.381274	0.323436	0.114552
	C164	C	0.676049	0.885064	0.381861
	C165	C	0.676283	0.115009	0.618601
	C166	C	0.324217	0.885137	0.618549
	C167	C	0.322905	0.114475	0.380668
	C168	C	0.881095	0.385335	0.175627
	C169	C	0.118842	0.614338	0.176435
	C170	C	0.118178	0.384943	0.824106
	C171	C	0.881130	0.614704	0.823200
	C172	C	0.176425	0.880906	0.385497
	C173	C	0.177032	0.118525	0.614702
	C174	C	0.823932	0.118442	0.385846
	C175	C	0.823412	0.881243	0.614661
	C176	C	0.385031	0.176818	0.881096
	C177	C	0.615009	0.176516	0.118911
	C178	C	0.385251	0.823634	0.118596
	C179	C	0.615150	0.824185	0.881803
	C180	C	0.385232	0.881329	0.176449
	C181	C	0.614636	0.118891	0.176848
	C182	C	0.385176	0.119166	0.823039
	C183	C	0.614615	0.881213	0.823376
	C184	C	0.881361	0.176384	0.386056
	C185	C	0.119335	0.176781	0.614976
	C186	C	0.119294	0.822603	0.385827
	C187	C	0.881022	0.823189	0.614726
	C188	C	0.176091	0.385088	0.881702
	C189	C	0.176516	0.614401	0.118635
	C190	C	0.824294	0.385297	0.117171
	C191	C	0.823822	0.615115	0.881205
	C192	C	0.400854	0.093876	0.599093
	C193	C	0.599882	0.906347	0.600264
	C194	C	0.599193	0.093864	0.400360
	C195	C	0.400652	0.905951	0.399506
	C196	C	0.600305	0.400438	0.093635
	C197	C	0.600245	0.600886	0.906271
	C198	C	0.399967	0.600169	0.093634
	C199	C	0.400103	0.400294	0.906249
	C200	C	0.093882	0.599191	0.400313
	C201	C	0.905812	0.599090	0.599429
	C202	C	0.093871	0.400208	0.599965
	C203	C	0.905985	0.400640	0.399933
	C204	C	0.900885	0.594100	0.099231
	C205	C	0.099655	0.405925	0.099554
	C206	C	0.099658	0.594093	0.899979
	C207	C	0.899957	0.405976	0.900003
	C208	C	0.099813	0.899679	0.593745
	C209	C	0.098783	0.099181	0.407161
	C210	C	0.899762	0.100049	0.594612
	C211	C	0.900156	0.899914	0.406503
	C212	C	0.593448	0.099531	0.900612
	C213	C	0.406304	0.099679	0.099320
	C214	C	0.594157	0.900010	0.100564
	C215	C	0.406287	0.900475	0.900536
	Zn216	Zn	0.499645	0.000073	0.749828
	Zn217	Zn	0.500154	0.000054	0.249900
	Zn218	Zn	0.750269	0.500925	-0.000431
	Zn219	Zn	0.249982	0.500235	-0.000232
	Zn220	Zn	-0.000062	0.749686	0.500293
	Zn221	Zn	-0.000275	0.250136	0.500507
	Zn222	Zn	-0.000101	0.499792	0.750047
	Zn223	Zn	-0.000151	0.499778	0.249635
	Zn224	Zn	0.500311	0.750396	0.000352
	Zn225	Zn	0.499966	0.249989	0.000172
	Zn226	Zn	0.749919	0.000025	0.500133
	Zn227	Zn	0.250465	-0.000343	0.500005
	N228	N	0.414844	0.962808	0.677909
	N229	N	0.585653	0.037338	0.679012
	N230	N	0.585009	0.962670	0.322216
	N231	N	0.414104	0.037242	0.320856
	N232	N	0.678225	0.415389	0.962290
	N233	N	0.679107	0.586044	0.037381
	N234	N	0.321748	0.585512	0.962211
	N235	N	0.321058	0.414126	0.036833
	N236	N	0.962461	0.678026	0.414828
	N237	N	0.037391	0.677270	0.584653
	N238	N	0.962206	0.322368	0.584758
	N239	N	0.037178	0.321686	0.415076
	N240	N	0.962838	0.413956	0.678850
	N241	N	0.037022	0.585048	0.678542
	N242	N	0.962697	0.585247	0.321416
	N243	N	0.037253	0.414096	0.321233
	N244	N	0.414985	0.678637	0.962605
	N245	N	0.585437	0.678634	0.037907
	N246	N	0.585317	0.321766	0.962626
	N247	N	0.414964	0.322131	0.037642
	N248	N	0.678272	0.962622	0.414928
	N249	N	0.678082	0.037666	0.585219
	N250	N	0.322365	0.962520	0.584982
	N251	N	0.321772	0.037193	0.414356
	N252	N	0.914152	0.462993	0.178117
	N253	N	0.085676	0.536886	0.178472
	N254	N	0.084684	0.462400	0.822048
	N255	N	0.914116	0.537205	0.821167
	N256	N	0.177929	0.914889	0.462508
	N257	N	0.178261	0.084796	0.537567
	N258	N	0.821698	0.085102	0.463328
	N259	N	0.821741	0.914850	0.537497
	N260	N	0.462234	0.178409	0.914781
	N261	N	0.537701	0.178093	0.084943
	N262	N	0.462794	0.821666	0.085444
	N263	N	0.538022	0.822638	0.915618
	N264	N	0.462667	0.914564	0.178639
	N265	N	0.537402	0.085409	0.178364
	N266	N	0.462541	0.085645	0.821333
	N267	N	0.537194	0.914669	0.821576
	N268	N	0.914253	0.178403	0.463306
	N269	N	0.085531	0.178797	0.537870
	N270	N	0.085987	0.820608	0.463073
	N271	N	0.914478	0.821331	0.537515
	N272	N	0.178016	0.462615	0.914871
	N273	N	0.178095	0.537304	0.084944
	N274	N	0.822700	0.462615	0.083861
	N275	N	0.821835	0.537699	0.914581
