data_Molecule from HDF5

_cell_length_a		16.297136
_cell_length_b		16.105911
_cell_length_c		16.431603
_cell_angle_alpha	90.502518
_cell_angle_beta	89.895735
_cell_angle_gamma	89.691849
_symmetry_space_group_name_H-M	'P 1'
_symmetry_Int_Tables_number		1

loop_
	_symmetry_equiv_pos_as_xyz
	x,y,z

loop_
	_atom_site_label
	_atom_site_type_symbol
	_atom_site_fract_x
	_atom_site_fract_y
	_atom_site_fract_z
	H0	H	0.396744	0.835598	0.711449
	H1	H	0.598370	0.163628	0.715046
	H2	H	0.597598	0.835900	0.279453
	H3	H	0.396935	0.164923	0.284596
	H4	H	0.712805	0.397496	0.833154
	H5	H	0.714126	0.602125	0.155899
	H6	H	0.279142	0.602113	0.833177
	H7	H	0.277308	0.401875	0.156507
	H8	H	0.831911	0.714820	0.397973
	H9	H	0.160835	0.711686	0.589685
	H10	H	0.831470	0.291113	0.588398
	H11	H	0.159886	0.283812	0.395008
	H12	H	0.834154	0.399841	0.710492
	H13	H	0.157204	0.605190	0.713781
	H14	H	0.833396	0.602201	0.277040
	H15	H	0.158385	0.396195	0.275424
	H16	H	0.398631	0.714203	0.833473
	H17	H	0.592602	0.714876	0.158714
	H18	H	0.594843	0.283106	0.833950
	H19	H	0.399616	0.289620	0.160261
	H20	H	0.711178	0.835438	0.396907
	H21	H	0.707658	0.165938	0.594900
	H22	H	0.283180	0.835574	0.594895
	H23	H	0.282527	0.164988	0.401568
	H24	H	0.894314	0.336177	0.208066
	H25	H	0.097772	0.662578	0.212712
	H26	H	0.098240	0.336420	0.775976
	H27	H	0.893962	0.664843	0.780372
	H28	H	0.215975	0.896184	0.335437
	H29	H	0.212266	0.103830	0.657720
	H30	H	0.777719	0.100498	0.334265
	H31	H	0.779120	0.900492	0.657370
	H32	H	0.333246	0.213272	0.902084
	H33	H	0.661920	0.212146	0.093278
	H34	H	0.332104	0.788574	0.094198
	H35	H	0.659591	0.783282	0.898524
	H36	H	0.334421	0.899830	0.213917
	H37	H	0.659788	0.101713	0.214419
	H38	H	0.335554	0.104093	0.778805
	H39	H	0.658703	0.895249	0.778859
	H40	H	0.896626	0.213294	0.332130
	H41	H	0.092974	0.218173	0.657502
	H42	H	0.095162	0.783880	0.332623
	H43	H	0.898382	0.786301	0.658219
	H44	H	0.212528	0.335728	0.892719
	H45	H	0.208274	0.665000	0.095196
	H46	H	0.782981	0.335630	0.090955
	H47	H	0.779298	0.664269	0.895459
	H48	H	0.403356	0.116001	0.584453
	H49	H	0.590953	0.884242	0.581188
	H50	H	0.588844	0.117538	0.406733
	H51	H	0.408330	0.880385	0.397859
	H52	H	0.592367	0.412818	0.110251
	H53	H	0.591903	0.591520	0.878845
	H54	H	0.394812	0.601020	0.114185
	H55	H	0.397382	0.407118	0.879009
	H56	H	0.109509	0.585060	0.401304
	H57	H	0.884737	0.580316	0.584058
	H58	H	0.112236	0.406268	0.582926
	H59	H	0.883168	0.407991	0.409133
	H60	H	0.110789	0.413829	0.585853
	H61	H	0.875516	0.595138	0.600448
	H62	H	0.113726	0.590966	0.394261
	H63	H	0.880942	0.417481	0.394219
	H64	H	0.396929	0.585397	0.109705
	H65	H	0.588411	0.587226	0.881499
	H66	H	0.588623	0.406042	0.110407
	H67	H	0.407737	0.413382	0.883789
	H68	H	0.588908	0.119215	0.402267
	H69	H	0.593326	0.879478	0.592538
	H70	H	0.401983	0.119000	0.593675
	H71	H	0.411153	0.885538	0.407174
	H72	H	0.905363	0.619050	0.092989
	H73	H	0.089000	0.382603	0.080460
	H74	H	0.087270	0.617842	0.903806
	H75	H	0.902772	0.381258	0.899606
	H76	H	0.097320	0.907242	0.612815
	H77	H	0.087619	0.092302	0.381483
	H78	H	0.904735	0.094280	0.608622
	H79	H	0.901725	0.901966	0.378953
	H80	H	0.611464	0.087937	0.908396
	H81	H	0.380819	0.102593	0.085061
	H82	H	0.611124	0.909443	0.085810
	H83	H	0.380724	0.905566	0.907428
	H84	H	0.612204	0.911071	0.090748
	H85	H	0.384526	0.084227	0.089283
	H86	H	0.612801	0.085462	0.899590
	H87	H	0.382877	0.915768	0.903389
	H88	H	0.902020	0.099322	0.611689
	H89	H	0.094551	0.091656	0.378833
	H90	H	0.087638	0.914515	0.608371
	H91	H	0.898573	0.912641	0.380361
	H92	H	0.086749	0.618487	0.902259
	H93	H	0.090037	0.381679	0.085467
	H94	H	0.909364	0.615523	0.083364
	H95	H	0.909203	0.382926	0.896850
	H96	H	0.411297	0.115509	0.590806
	H97	H	0.581941	0.883782	0.590146
	H98	H	0.584866	0.117249	0.404329
	H99	H	0.401080	0.881360	0.405490
	H100	H	0.595230	0.406093	0.112915
	H101	H	0.585860	0.593462	0.881030
	H102	H	0.409606	0.595675	0.108680
	H103	H	0.408269	0.400062	0.879968
	H104	H	0.112562	0.594480	0.404122
	H105	H	0.879661	0.602473	0.578547
	H106	H	0.113683	0.408154	0.590150
	H107	H	0.876353	0.399799	0.394347
	H108	H	0.899631	0.618574	0.083921
	H109	H	0.085093	0.383234	0.084435
	H110	H	0.085828	0.617244	0.902811
	H111	H	0.907923	0.384620	0.903733
	H112	H	0.085286	0.901594	0.611809
	H113	H	0.090752	0.086088	0.381587
	H114	H	0.898497	0.093859	0.611114
	H115	H	0.909058	0.909367	0.382852
	H116	H	0.614511	0.094342	0.903220
	H117	H	0.376697	0.095888	0.102346
	H118	H	0.613068	0.905411	0.089600
	H119	H	0.378442	0.907418	0.896425
	C120	C	0.375989	0.008501	0.618358
	C121	C	0.617622	0.991625	0.617347
	C122	C	0.617582	0.008790	0.374864
	C123	C	0.376165	0.991339	0.375691
	C124	C	0.620644	0.377519	0.004152
	C125	C	0.617505	0.621052	0.987178
	C126	C	0.372608	0.623129	0.003723
	C127	C	0.375150	0.379127	0.987861
	C128	C	0.004195	0.620647	0.372183
	C129	C	0.987550	0.622087	0.616015
	C130	C	0.004476	0.380244	0.614545
	C131	C	0.987753	0.377226	0.370295
	C132	C	0.875354	0.508881	0.114966
	C133	C	0.116620	0.491146	0.114221
	C134	C	0.117267	0.509130	0.872640
	C135	C	0.875537	0.491671	0.872403
	C136	C	0.119060	0.877641	0.504090
	C137	C	0.118439	0.121359	0.487546
	C138	C	0.873220	0.123312	0.503383
	C139	C	0.874243	0.878836	0.487663
	C140	C	0.505684	0.120235	0.875312
	C141	C	0.488715	0.122976	0.120374
	C142	C	0.504767	0.879596	0.117998
	C143	C	0.488103	0.878128	0.873877
	C144	C	0.377256	0.884820	0.673455
	C145	C	0.616458	0.115081	0.674812
	C146	C	0.617014	0.885061	0.318064
	C147	C	0.377407	0.115707	0.322261
	C148	C	0.675177	0.377688	0.881903
	C149	C	0.674316	0.621001	0.108480
	C150	C	0.317230	0.621707	0.881893
	C151	C	0.317504	0.381978	0.109065
	C152	C	0.881011	0.677237	0.376042
	C153	C	0.111278	0.675814	0.612160
	C154	C	0.880881	0.326970	0.610339
	C155	C	0.110780	0.321299	0.373649
	C156	C	0.882347	0.381065	0.671197
	C157	C	0.109453	0.622648	0.673462
	C158	C	0.881650	0.620764	0.316429
	C159	C	0.109913	0.376855	0.314024
	C160	C	0.376361	0.677903	0.882055
	C161	C	0.613930	0.676982	0.109692
	C162	C	0.616659	0.320709	0.882299
	C163	C	0.378401	0.326303	0.110932
	C164	C	0.673499	0.884645	0.376437
	C165	C	0.671408	0.116092	0.615602
	C166	C	0.320822	0.884654	0.615500
	C167	C	0.320411	0.115598	0.380028
	C168	C	0.875528	0.385364	0.170058
	C169	C	0.116166	0.614102	0.172890
	C170	C	0.117335	0.385561	0.815144
	C171	C	0.874609	0.615481	0.817740
	C172	C	0.176613	0.877087	0.383047
	C173	C	0.173870	0.122780	0.609303
	C174	C	0.816466	0.120387	0.382290
	C175	C	0.817975	0.880527	0.609251
	C176	C	0.382456	0.176355	0.879321
	C177	C	0.612278	0.176347	0.115823
	C178	C	0.381365	0.825592	0.115177
	C179	C	0.610672	0.821094	0.877095
	C180	C	0.382667	0.880754	0.174762
	C181	C	0.611218	0.121189	0.175805
	C182	C	0.383635	0.121719	0.818387
	C183	C	0.610242	0.876707	0.817633
	C184	C	0.875898	0.176475	0.380971
	C185	C	0.114389	0.179530	0.609107
	C186	C	0.116566	0.821315	0.381759
	C187	C	0.877259	0.823758	0.609525
	C188	C	0.174438	0.385265	0.872826
	C189	C	0.171165	0.615426	0.114252
	C190	C	0.820233	0.384931	0.111696
	C191	C	0.817903	0.615163	0.875241
	C192	C	0.398916	0.094704	0.596063
	C193	C	0.595344	0.904943	0.594520
	C194	C	0.594442	0.095536	0.397800
	C195	C	0.399851	0.904804	0.397188
	C196	C	0.598690	0.401467	0.089289
	C197	C	0.595356	0.597579	0.902343
	C198	C	0.394078	0.600641	0.088865
	C199	C	0.397739	0.400494	0.903024
	C200	C	0.089600	0.597100	0.393609
	C201	C	0.902234	0.599357	0.594091
	C202	C	0.090155	0.402753	0.592644
	C203	C	0.902210	0.401413	0.392577
	C204	C	0.898182	0.595323	0.093207
	C205	C	0.094643	0.404957	0.090371
	C206	C	0.093648	0.595414	0.896110
	C207	C	0.899553	0.405195	0.893959
	C208	C	0.096717	0.900956	0.588903
	C209	C	0.097158	0.097179	0.402876
	C210	C	0.895390	0.102079	0.588538
	C211	C	0.896609	0.901382	0.402761
	C212	C	0.590831	0.096272	0.897328
	C213	C	0.402921	0.100748	0.098601
	C214	C	0.590064	0.902042	0.095371
	C215	C	0.402858	0.902397	0.895998
	Zn216	Zn	0.497127	-0.000604	0.745266
	Zn217	Zn	0.496653	0.000334	0.246832
	Zn218	Zn	0.748627	0.499978	-0.005827
	Zn219	Zn	0.244223	0.500797	-0.005725
	Zn220	Zn	-0.003695	0.749484	0.495074
	Zn221	Zn	-0.004264	0.251116	0.493915
	Zn222	Zn	-0.003998	0.501410	0.744606
	Zn223	Zn	-0.003917	0.499198	0.242337
	Zn224	Zn	0.495375	0.751055	-0.003620
	Zn225	Zn	0.497794	0.249587	-0.002522
	Zn226	Zn	0.745042	0.000735	0.496371
	Zn227	Zn	0.248406	-0.000510	0.497034
	N228	N	0.410599	0.962996	0.675400
	N229	N	0.583798	0.036553	0.675947
	N230	N	0.583018	0.963479	0.317127
	N231	N	0.411224	0.037307	0.319345
	N232	N	0.677750	0.412119	0.958744
	N233	N	0.676595	0.586954	0.031385
	N234	N	0.314621	0.588437	0.958752
	N235	N	0.315213	0.413841	0.031793
	N236	N	0.958170	0.677397	0.409921
	N237	N	0.034664	0.675643	0.577342
	N238	N	0.957910	0.326367	0.575868
	N239	N	0.033737	0.321244	0.407680
	N240	N	0.960293	0.413531	0.673928
	N241	N	0.031415	0.590141	0.676348
	N242	N	0.959168	0.586475	0.313753
	N243	N	0.032195	0.410803	0.311728
	N244	N	0.409942	0.678983	0.958791
	N245	N	0.579625	0.677454	0.033250
	N246	N	0.583464	0.320305	0.959405
	N247	N	0.413710	0.324457	0.034564
	N248	N	0.673908	0.962666	0.410969
	N249	N	0.672081	0.038303	0.580286
	N250	N	0.319969	0.962557	0.581948
	N251	N	0.319685	0.037182	0.412594
	N252	N	0.909351	0.463495	0.172157
	N253	N	0.082783	0.535853	0.172884
	N254	N	0.082537	0.463557	0.814961
	N255	N	0.909851	0.537774	0.815990
	N256	N	0.178283	0.911596	0.459912
	N257	N	0.176529	0.087234	0.532874
	N258	N	0.814762	0.088010	0.459533
	N259	N	0.816136	0.914146	0.532515
	N260	N	0.459130	0.175519	0.914242
	N261	N	0.535105	0.177679	0.082102
	N262	N	0.458164	0.824760	0.080456
	N263	N	0.533706	0.821937	0.911470
	N264	N	0.460410	0.913661	0.176651
	N265	N	0.533315	0.088764	0.178771
	N266	N	0.461177	0.087588	0.815679
	N267	N	0.533046	0.911541	0.815491
	N268	N	0.910210	0.178577	0.457352
	N269	N	0.080480	0.178726	0.532409
	N270	N	0.081379	0.821559	0.457919
	N271	N	0.911540	0.822673	0.532903
	N272	N	0.174556	0.463076	0.907991
	N273	N	0.171562	0.538017	0.078394
	N274	N	0.820205	0.462661	0.077969
	N275	N	0.818327	0.536918	0.908445
	O276	O	1.009008	0.085976	1.147059
	H277	H	1.018922	0.089695	1.149671
	H278	H	1.014058	0.094965	1.160906
	O279	O	0.441647	0.535084	0.483453
	H280	H	0.439741	0.522840	0.483676
	H281	H	0.434981	0.534274	0.480144
	O282	O	1.039711	0.967587	0.067050
	H283	H	1.028290	0.960061	0.076328
	H284	H	1.039565	0.956278	0.078228
	O285	O	0.964588	0.034935	0.902645
	H286	H	0.964488	0.041637	0.898299
	H287	H	0.974518	0.035746	0.909068
	O288	O	0.485935	0.453559	0.507576
	H289	H	0.485391	0.460327	0.507437
	H290	H	0.498483	0.464119	0.513231
	O291	O	0.444265	0.543315	0.547765
	H292	H	0.452751	0.540280	0.556212
	H293	H	0.442277	0.546082	0.555622
	O294	O	0.528160	0.442667	0.397114
	H295	H	0.531442	0.447374	0.388476
	H296	H	0.533531	0.445036	0.403363
	O297	O	-0.029289	-0.018676	0.987604
	H298	H	-0.035004	-0.022533	0.985348
	H299	H	-0.032599	-0.016533	0.995332
	O300	O	-0.122392	0.977435	-0.027637
	H301	H	-0.131407	0.988518	-0.027919
	H302	H	-0.113014	0.972274	-0.035247
	O303	O	1.071283	0.947730	-0.073947
	H304	H	1.067542	0.949814	-0.076323
	H305	H	1.077276	0.938239	-0.080519
	O306	O	-0.151715	1.031857	0.975779
	H307	H	-0.147345	1.031749	0.981017
	H308	H	-0.154550	1.033461	0.964270
	O309	O	0.603690	0.534487	0.504459
	H310	H	0.599459	0.546200	0.504908
	H311	H	0.595665	0.535176	0.501014
	O312	O	-0.009700	-0.092953	0.015000
	H313	H	-0.006501	-0.097747	0.020107
	H314	H	-0.003656	-0.090912	0.013082
	O315	O	1.130133	-0.035382	0.090709
	H316	H	1.137864	-0.053101	0.090572
	H317	H	1.131417	-0.042161	0.074267
	O318	O	1.121327	1.005905	0.965035
	H319	H	1.129765	1.015447	0.966519
	H320	H	1.128104	0.994478	0.966355
	O321	O	0.507426	0.477832	1.497495
	H322	H	0.512920	0.463750	1.488494
	H323	H	0.499517	0.480242	1.506026
	O324	O	0.524559	0.538790	0.458346
	H325	H	0.540719	0.540986	0.456123
	H326	H	0.515658	0.537261	0.460954
	O327	O	-0.334270	0.367927	-0.322917
	H328	H	-0.319217	0.364000	-0.322790
	H329	H	-0.333955	0.352806	-0.333288
	O330	O	0.507360	0.440926	0.507518
	H331	H	0.513318	0.435498	0.502421
	H332	H	0.487896	0.449419	0.517190
	O333	O	0.005462	0.962444	1.083415
	H334	H	0.003601	0.964732	1.081475
	H335	H	0.009030	0.964038	1.078584
	O336	O	-0.146522	-0.000512	0.136657
	H337	H	-0.149925	0.017031	0.136038
	H338	H	-0.152400	0.005006	0.146747
	O339	O	0.421815	0.497674	0.500922
	H340	H	0.431347	0.490399	0.512608
	H341	H	0.426175	0.508653	0.499410
	O342	O	0.964956	0.984929	0.920776
	H343	H	0.956639	0.994263	0.929544
	H344	H	0.955860	0.977603	0.913781
	O345	O	1.077871	0.878734	0.025512
	H346	H	1.082840	0.885728	0.018499
	H347	H	1.069837	0.876622	0.021804
	O348	O	0.482232	0.458783	0.436877
	H349	H	0.487570	0.453998	0.427024
	H350	H	0.485260	0.461877	0.455063
	O351	O	1.126961	0.032576	1.022241
	H352	H	1.130901	0.027879	1.032053
	H353	H	1.118233	0.023016	1.029334
	O354	O	0.513075	0.440879	0.473212
	H355	H	0.517485	0.438547	0.465314
	H356	H	0.509940	0.443866	0.468399
	O357	O	1.049004	0.162602	1.048818
	H358	H	1.049457	0.161494	1.057070
	H359	H	1.062616	0.165867	1.057092
	O360	O	0.483808	0.514551	0.526062
	H361	H	0.488328	0.511680	0.523504
	H362	H	0.485270	0.520284	0.526922
	O363	O	0.422906	0.539942	0.575560
	H364	H	0.426541	0.538483	0.583956
	H365	H	0.435110	0.540139	0.575228
	O366	O	1.461760	0.448388	0.468027
	H367	H	1.458508	0.446475	0.469033
	H368	H	1.461715	0.442593	0.470219
	O369	O	0.977319	0.037185	0.894344
	H370	H	0.988913	0.026674	0.896233
	H371	H	0.983496	0.039852	0.906023
	O372	O	0.009974	-0.010434	-0.087830
	H373	H	0.011263	-0.013649	-0.078899
	H374	H	-0.007943	-0.007431	-0.099806
	O375	O	1.070669	-0.099751	-0.091640
	H376	H	1.059477	-0.100611	-0.096920
	H377	H	1.064293	-0.079498	-0.085265
	O378	O	0.601439	0.384029	0.516041
	H379	H	0.586148	0.386694	0.507448
	H380	H	0.604369	0.372446	0.512633
	O381	O	-0.108791	1.120020	1.043296
	H382	H	-0.105772	1.126312	1.029300
	H383	H	-0.108025	1.126685	1.050861
