data_Molecule from HDF5

_cell_length_a		16.405902
_cell_length_b		16.260748
_cell_length_c		16.147901
_cell_angle_alpha	89.384098
_cell_angle_beta	89.914422
_cell_angle_gamma	89.599341
_symmetry_space_group_name_H-M	'P 1'
_symmetry_Int_Tables_number		1

loop_
	_symmetry_equiv_pos_as_xyz
	x,y,z

loop_
	_atom_site_label
	_atom_site_type_symbol
	_atom_site_fract_x
	_atom_site_fract_y
	_atom_site_fract_z
	H0	H	0.401292	0.841319	0.711377
	H1	H	0.592991	0.170340	0.706062
	H2	H	0.596292	0.839956	0.282974
	H3	H	0.397717	0.168642	0.280010
	H4	H	0.713589	0.406862	0.830684
	H5	H	0.711925	0.604566	0.158479
	H6	H	0.279016	0.609960	0.830423
	H7	H	0.280138	0.402245	0.157513
	H8	H	0.835507	0.724912	0.394068
	H9	H	0.159403	0.719248	0.595460
	H10	H	0.833649	0.288192	0.597236
	H11	H	0.157503	0.287494	0.395483
	H12	H	0.833568	0.405357	0.712476
	H13	H	0.160666	0.598158	0.707611
	H14	H	0.834032	0.606500	0.280128
	H15	H	0.158488	0.406060	0.280922
	H16	H	0.397370	0.722398	0.830043
	H17	H	0.592773	0.714681	0.160721
	H18	H	0.597567	0.292175	0.830099
	H19	H	0.398797	0.290543	0.159398
	H20	H	0.715456	0.842356	0.395023
	H21	H	0.712536	0.167866	0.594811
	H22	H	0.279305	0.842473	0.602043
	H23	H	0.277665	0.166461	0.391875
	H24	H	0.899261	0.341903	0.211388
	H25	H	0.092500	0.669918	0.207417
	H26	H	0.095477	0.339652	0.784305
	H27	H	0.898504	0.668233	0.778718
	H28	H	0.215212	0.903492	0.332624
	H29	H	0.210524	0.101242	0.660522
	H30	H	0.781048	0.108131	0.331528
	H31	H	0.781887	0.902629	0.659448
	H32	H	0.335020	0.225082	0.893374
	H33	H	0.658947	0.219015	0.093403
	H34	H	0.333848	0.788456	0.097168
	H35	H	0.657696	0.788010	0.896547
	H36	H	0.333863	0.906397	0.212156
	H37	H	0.659905	0.100504	0.208052
	H38	H	0.333541	0.106400	0.779272
	H39	H	0.659761	0.907102	0.782260
	H40	H	0.896782	0.221545	0.331206
	H41	H	0.092864	0.214881	0.660624
	H42	H	0.097037	0.792422	0.330068
	H43	H	0.901159	0.790726	0.659816
	H44	H	0.215850	0.342837	0.893886
	H45	H	0.213373	0.667247	0.096278
	H46	H	0.781858	0.342624	0.098073
	H47	H	0.779663	0.667965	0.891088
	H48	H	0.401244	0.122758	0.587438
	H49	H	0.593801	0.888461	0.587068
	H50	H	0.591734	0.123305	0.395813
	H51	H	0.410702	0.886523	0.394054
	H52	H	0.589210	0.412225	0.112075
	H53	H	0.587074	0.597696	0.877726
	H54	H	0.399641	0.594402	0.112017
	H55	H	0.404999	0.422610	0.879600
	H56	H	0.115835	0.602094	0.393463
	H57	H	0.879262	0.593720	0.597546
	H58	H	0.112111	0.406660	0.592046
	H59	H	0.877920	0.407601	0.399972
	H60	H	0.110678	0.406231	0.586210
	H61	H	0.879384	0.610148	0.584259
	H62	H	0.110873	0.603206	0.410526
	H63	H	0.882547	0.412010	0.411282
	H64	H	0.403856	0.593438	0.110571
	H65	H	0.589939	0.600012	0.875994
	H66	H	0.590466	0.410537	0.112813
	H67	H	0.410733	0.414601	0.878238
	H68	H	0.585045	0.118682	0.401864
	H69	H	0.591248	0.888827	0.591940
	H70	H	0.405221	0.120290	0.584938
	H71	H	0.413395	0.894289	0.416088
	H72	H	0.892378	0.624702	0.085047
	H73	H	0.080678	0.393552	0.081115
	H74	H	0.081486	0.619524	0.899597
	H75	H	0.905046	0.389574	0.909278
	H76	H	0.091157	0.902649	0.615519
	H77	H	0.091910	0.092385	0.379126
	H78	H	0.903135	0.097378	0.613448
	H79	H	0.906626	0.912177	0.378526
	H80	H	0.613739	0.104249	0.900163
	H81	H	0.382110	0.098171	0.084547
	H82	H	0.612112	0.908996	0.089708
	H83	H	0.379729	0.908936	0.904440
	H84	H	0.611665	0.907500	0.088038
	H85	H	0.380982	0.096444	0.089335
	H86	H	0.609849	0.097880	0.905811
	H87	H	0.383318	0.917370	0.908439
	H88	H	0.899756	0.093881	0.613833
	H89	H	0.083734	0.095180	0.380672
	H90	H	0.095843	0.917563	0.612709
	H91	H	0.900947	0.914710	0.376468
	H92	H	0.089081	0.619631	0.908240
	H93	H	0.099212	0.388249	0.082086
	H94	H	0.907215	0.623015	0.094187
	H95	H	0.898714	0.386584	0.905318
	H96	H	0.400563	0.120926	0.582009
	H97	H	0.588839	0.889577	0.587249
	H98	H	0.594163	0.121595	0.405031
	H99	H	0.393359	0.885105	0.409553
	H100	H	0.590502	0.412756	0.112056
	H101	H	0.590608	0.596618	0.877289
	H102	H	0.403169	0.597358	0.112338
	H103	H	0.402182	0.414310	0.875821
	H104	H	0.109478	0.588453	0.401888
	H105	H	0.886967	0.591157	0.578362
	H106	H	0.110648	0.411338	0.589074
	H107	H	0.881773	0.420355	0.401137
	H108	H	0.906963	0.618455	0.077381
	H109	H	0.088206	0.386645	0.098274
	H110	H	0.092764	0.623347	0.897630
	H111	H	0.906299	0.387847	0.901450
	H112	H	0.081080	0.913377	0.610195
	H113	H	0.089327	0.100098	0.376759
	H114	H	0.904391	0.093310	0.611701
	H115	H	0.906328	0.918609	0.379023
	H116	H	0.612234	0.095981	0.896749
	H117	H	0.380784	0.101335	0.087750
	H118	H	0.610621	0.909546	0.088326
	H119	H	0.380512	0.916603	0.899182
	C120	C	0.374654	0.013334	0.616389
	C121	C	0.618736	0.997118	0.616620
	C122	C	0.619333	0.013046	0.372979
	C123	C	0.375643	0.996151	0.375050
	C124	C	0.619216	0.383770	0.003422
	C125	C	0.616996	0.625712	0.986314
	C126	C	0.373633	0.626396	0.002637
	C127	C	0.376546	0.385674	0.986185
	C128	C	0.005099	0.628040	0.372569
	C129	C	0.989081	0.625902	0.616205
	C130	C	0.004072	0.380416	0.618467
	C131	C	0.987801	0.383613	0.374572
	C132	C	0.874347	0.514226	0.116398
	C133	C	0.117530	0.497235	0.115967
	C134	C	0.118030	0.513060	0.873217
	C135	C	0.874570	0.496042	0.874069
	C136	C	0.119091	0.882659	0.504187
	C137	C	0.117139	0.124493	0.487235
	C138	C	0.874194	0.126075	0.504077
	C139	C	0.875903	0.884373	0.486387
	C140	C	0.504534	0.129047	0.871715
	C141	C	0.488451	0.126190	0.116047
	C142	C	0.504439	0.880921	0.118561
	C143	C	0.488462	0.884586	0.874674
	C144	C	0.379112	0.890330	0.673501
	C145	C	0.614515	0.120826	0.669779
	C146	C	0.616515	0.889400	0.319880
	C147	C	0.377195	0.119228	0.317786
	C148	C	0.675520	0.386561	0.879869
	C149	C	0.672957	0.623837	0.109980
	C150	C	0.317442	0.628250	0.879468
	C151	C	0.318856	0.383803	0.108847
	C152	C	0.883546	0.685641	0.374190
	C153	C	0.111006	0.680675	0.614727
	C154	C	0.882133	0.325881	0.617232
	C155	C	0.109248	0.326529	0.375946
	C156	C	0.882055	0.384187	0.674456
	C157	C	0.111648	0.620618	0.670775
	C158	C	0.882788	0.627019	0.317389
	C159	C	0.109924	0.385668	0.319081
	C160	C	0.376044	0.684380	0.879291
	C161	C	0.613890	0.678864	0.110853
	C162	C	0.617759	0.329537	0.879494
	C163	C	0.378117	0.328255	0.109737
	C164	C	0.676075	0.890576	0.375426
	C165	C	0.673900	0.119665	0.614266
	C166	C	0.318758	0.890845	0.618779
	C167	C	0.317338	0.118206	0.373136
	C168	C	0.877931	0.390988	0.173324
	C169	C	0.113746	0.620447	0.170675
	C170	C	0.116471	0.389333	0.820069
	C171	C	0.877287	0.619244	0.816619
	C172	C	0.176140	0.884002	0.381251
	C173	C	0.172518	0.121552	0.611102
	C174	C	0.819050	0.126754	0.380581
	C175	C	0.820332	0.884053	0.610188
	C176	C	0.383083	0.186358	0.873231
	C177	C	0.610731	0.180678	0.113570
	C178	C	0.382303	0.826198	0.117442
	C179	C	0.609977	0.827559	0.876564
	C180	C	0.382500	0.884776	0.174597
	C181	C	0.611190	0.121551	0.170399
	C182	C	0.382431	0.127255	0.816398
	C183	C	0.610831	0.886552	0.819623
	C184	C	0.877003	0.182897	0.380350
	C185	C	0.114064	0.177966	0.611335
	C186	C	0.117012	0.829119	0.379888
	C187	C	0.879300	0.828161	0.610447
	C188	C	0.176464	0.391022	0.874506
	C189	C	0.173844	0.619398	0.115201
	C190	C	0.819329	0.391506	0.116994
	C191	C	0.818380	0.619157	0.872786
	C192	C	0.396075	0.099016	0.591907
	C193	C	0.597518	0.911236	0.595206
	C194	C	0.597095	0.099018	0.394575
	C195	C	0.398923	0.910715	0.399547
	C196	C	0.596763	0.405424	0.089750
	C197	C	0.595472	0.604424	0.899735
	C198	C	0.395728	0.602274	0.088982
	C199	C	0.399406	0.410136	0.900067
	C200	C	0.089935	0.604734	0.395333
	C201	C	0.903828	0.604496	0.593475
	C202	C	0.089159	0.401645	0.595651
	C203	C	0.902657	0.406532	0.397362
	C204	C	0.895835	0.600089	0.092404
	C205	C	0.095795	0.411545	0.093647
	C206	C	0.094609	0.598520	0.895330
	C207	C	0.896892	0.410251	0.898314
	C208	C	0.096018	0.904535	0.590289
	C209	C	0.094625	0.102443	0.400986
	C210	C	0.896090	0.101995	0.590666
	C211	C	0.898020	0.908280	0.400138
	C212	C	0.589809	0.106025	0.894368
	C213	C	0.403280	0.104877	0.093799
	C214	C	0.589458	0.902309	0.095312
	C215	C	0.403273	0.907749	0.897279
	Zn216	Zn	0.496689	0.006191	0.744583
	Zn217	Zn	0.496952	0.004439	0.245666
	Zn218	Zn	0.745964	0.506163	-0.004830
	Zn219	Zn	0.246277	0.505547	-0.006129
	Zn220	Zn	-0.002330	0.756042	0.494511
	Zn221	Zn	-0.004213	0.252755	0.495964
	Zn222	Zn	-0.003321	0.503498	0.745961
	Zn223	Zn	-0.004055	0.505444	0.244807
	Zn224	Zn	0.495628	0.753031	-0.004421
	Zn225	Zn	0.496930	0.256907	-0.005311
	Zn226	Zn	0.747139	0.005155	0.495261
	Zn227	Zn	0.246187	0.004031	0.495619
	N228	N	0.413254	0.967453	0.672213
	N229	N	0.580855	0.043601	0.671487
	N230	N	0.581957	0.966749	0.318223
	N231	N	0.412740	0.042303	0.318670
	N232	N	0.676758	0.419314	0.958058
	N233	N	0.675106	0.591721	0.031599
	N234	N	0.315791	0.593087	0.957393
	N235	N	0.317918	0.418954	0.030990
	N236	N	0.960547	0.686563	0.407647
	N237	N	0.033880	0.683904	0.581523
	N238	N	0.958955	0.323532	0.583193
	N239	N	0.032296	0.325471	0.409961
	N240	N	0.958803	0.417515	0.675515
	N241	N	0.034765	0.587123	0.671797
	N242	N	0.959198	0.591676	0.316530
	N243	N	0.033190	0.420201	0.317939
	N244	N	0.410223	0.683287	0.957041
	N245	N	0.579528	0.680087	0.032980
	N246	N	0.583345	0.327667	0.957274
	N247	N	0.413372	0.329326	0.032379
	N248	N	0.677930	0.968526	0.407663
	N249	N	0.676514	0.041735	0.581889
	N250	N	0.315938	0.968353	0.584117
	N251	N	0.316304	0.040675	0.408022
	N252	N	0.911328	0.468272	0.173205
	N253	N	0.079589	0.543351	0.171359
	N254	N	0.080687	0.465989	0.819059
	N255	N	0.911555	0.541778	0.817318
	N256	N	0.177694	0.916366	0.459567
	N257	N	0.174381	0.088911	0.532885
	N258	N	0.817354	0.091998	0.458561
	N259	N	0.818365	0.918587	0.531999
	N260	N	0.460173	0.187607	0.906710
	N261	N	0.533490	0.183681	0.080443
	N262	N	0.459302	0.823560	0.083281
	N263	N	0.532864	0.826266	0.910124
	N264	N	0.459330	0.917862	0.175527
	N265	N	0.534308	0.088387	0.171901
	N266	N	0.459008	0.092482	0.815478
	N267	N	0.534154	0.921517	0.818421
	N268	N	0.910563	0.182462	0.458366
	N269	N	0.080304	0.179913	0.533317
	N270	N	0.082223	0.828052	0.457431
	N271	N	0.913127	0.828324	0.532567
	N272	N	0.177524	0.469053	0.906577
	N273	N	0.176261	0.541835	0.082009
	N274	N	0.816950	0.469200	0.082309
	N275	N	0.816564	0.541661	0.907695
	O276	O	-0.063334	0.029021	-0.057768
	H277	H	-0.060204	0.030127	-0.064140
	H278	H	-0.063993	0.032532	-0.062620
	O279	O	0.533587	0.517887	0.465224
	H280	H	0.537513	0.509537	0.470840
	H281	H	0.541179	0.506949	0.460310
	O282	O	0.594523	0.533280	0.514372
	H283	H	0.605130	0.551153	0.525432
	H284	H	0.584989	0.524281	0.530093
	O285	O	0.003889	0.935831	0.902425
	H286	H	-0.000050	0.935014	0.905858
	H287	H	0.002036	0.939621	0.904355
	O288	O	0.548884	0.544351	0.399782
	H289	H	0.558988	0.541141	0.406706
	H290	H	0.563934	0.549149	0.397269
	O291	O	0.490913	0.515718	0.455476
	H292	H	0.494131	0.518562	0.458927
	H293	H	0.489513	0.524336	0.457631
	O294	O	1.103090	0.955295	0.943135
	H295	H	1.116766	0.948163	0.935427
	H296	H	1.102348	0.959281	0.931005
	O297	O	0.923176	0.065199	0.949264
	H298	H	0.918860	0.059140	0.951786
	H299	H	0.917192	0.076448	0.949130
	O300	O	0.625814	0.553628	0.530294
	H301	H	0.623626	0.541267	0.526274
	H302	H	0.628202	0.562108	0.538470
	O303	O	0.952726	-0.009618	-0.022690
	H304	H	0.944919	-0.009596	-0.024745
	H305	H	0.961727	-0.011115	-0.025935
	O306	O	0.020083	1.068656	0.974911
	H307	H	0.016804	1.069143	0.980275
	H308	H	0.014912	1.073168	0.975861
	O309	O	0.418891	0.403314	0.478417
	H310	H	0.408967	0.395143	0.479726
	H311	H	0.418761	0.401877	0.478390
	O312	O	0.930297	-0.001326	1.044277
	H313	H	0.935156	-0.000698	1.043109
	H314	H	0.922970	0.001362	1.048025
	O315	O	0.575361	0.559457	0.549680
	H316	H	0.572449	0.558447	0.548841
	H317	H	0.568103	0.571069	0.545242
	O318	O	0.445875	0.459220	0.498581
	H319	H	0.450014	0.453120	0.484551
	H320	H	0.433935	0.461503	0.482614
	O321	O	1.056286	0.939910	0.960838
	H322	H	1.059058	0.934177	0.963079
	H323	H	1.049860	0.942908	0.961839
	O324	O	0.956914	1.059621	0.967055
	H325	H	0.952123	1.068333	0.959837
	H326	H	0.955056	1.061758	0.967204
	O327	O	0.400941	0.577013	0.460889
	H328	H	0.401815	0.575979	0.450131
	H329	H	0.408689	0.580744	0.467859
	O330	O	0.974991	0.011107	1.080930
	H331	H	0.969132	0.009019	1.084826
	H332	H	0.982283	-0.010985	1.082612
	O333	O	0.974471	1.033150	0.031561
	H334	H	0.974880	1.030405	0.036910
	H335	H	0.980217	1.029600	0.034355
	O336	O	0.433454	0.389751	0.631322
	H337	H	0.431762	0.388417	0.622879
	H338	H	0.429869	0.382123	0.637209
	O339	O	0.491655	0.395618	0.440570
	H340	H	0.481445	0.390095	0.433579
	H341	H	0.496701	0.392148	0.439690
	O342	O	-0.048541	0.934458	-0.065022
	H343	H	-0.056068	0.940587	-0.076570
	H344	H	-0.062655	0.941208	-0.067078
	O345	O	-0.075079	0.022593	0.015903
	H346	H	-0.070493	0.026046	0.009851
	H347	H	-0.069115	0.013160	0.028777
	O348	O	0.408652	0.540717	0.478337
	H349	H	0.404734	0.547790	0.477054
	H350	H	0.402638	0.542118	0.486987
	O351	O	0.570412	0.591588	0.493175
	H352	H	0.590425	0.596086	0.499677
	H353	H	0.569438	0.597845	0.489867
	O354	O	0.389781	0.456885	0.610003
	H355	H	0.394503	0.448448	0.619018
	H356	H	0.379493	0.467120	0.605166
	O357	O	0.424556	0.637800	0.529971
	H358	H	0.425505	0.636687	0.531380
	H359	H	0.423456	0.637769	0.530095
	O360	O	0.433587	-0.467229	0.372142
	H361	H	0.426739	-0.468138	0.367372
	H362	H	0.434049	-0.446267	0.357079
	O363	O	0.497366	0.509229	0.388114
	H364	H	0.504708	0.504790	0.389332
	H365	H	0.493857	0.488864	0.382187
	O366	O	-0.036407	-0.061248	1.024759
	H367	H	-0.041462	-0.063442	1.035227
	H368	H	-0.037531	-0.056132	1.026232
	O369	O	0.543152	0.386292	0.556897
	H370	H	0.530460	0.383648	0.558660
	H371	H	0.535508	0.390480	0.564353
