data_Molecule from HDF5

_cell_length_a		16.507229
_cell_length_b		16.563686
_cell_length_c		16.451300
_cell_angle_alpha	89.974069
_cell_angle_beta	89.954066
_cell_angle_gamma	89.973121
_symmetry_space_group_name_H-M	'P 1'
_symmetry_Int_Tables_number		1

loop_
	_symmetry_equiv_pos_as_xyz
	x,y,z

loop_
	_atom_site_label
	_atom_site_type_symbol
	_atom_site_fract_x
	_atom_site_fract_y
	_atom_site_fract_z
	H0	H	0.392989	0.844368	0.729246
	H1	H	0.608289	0.155613	0.730941
	H2	H	0.603945	0.843984	0.284645
	H3	H	0.391687	0.156736	0.281955
	H4	H	0.721263	0.394352	0.847949
	H5	H	0.719624	0.603986	0.163895
	H6	H	0.279445	0.603352	0.848312
	H7	H	0.274148	0.389022	0.162926
	H8	H	0.844143	0.723576	0.396645
	H9	H	0.154999	0.723698	0.612256
	H10	H	0.842594	0.278408	0.612530
	H11	H	0.154684	0.272413	0.394189
	H12	H	0.842487	0.395812	0.727337
	H13	H	0.156540	0.606880	0.727984
	H14	H	0.843144	0.606335	0.282090
	H15	H	0.154692	0.388116	0.278381
	H16	H	0.393209	0.721159	0.849104
	H17	H	0.604194	0.721080	0.163835
	H18	H	0.608192	0.274841	0.849696
	H19	H	0.390735	0.274210	0.162067
	H20	H	0.720625	0.844085	0.400117
	H21	H	0.724526	0.155415	0.615462
	H22	H	0.274052	0.845286	0.615665
	H23	H	0.272639	0.154697	0.395589
	H24	H	0.890129	0.344058	0.231055
	H25	H	0.106381	0.655792	0.228303
	H26	H	0.109874	0.343407	0.780076
	H27	H	0.896901	0.656179	0.784914
	H28	H	0.228967	0.887593	0.350922
	H29	H	0.223025	0.106934	0.662978
	H30	H	0.776013	0.108128	0.349205
	H31	H	0.778803	0.894230	0.662992
	H32	H	0.343503	0.226528	0.894264
	H33	H	0.653308	0.225942	0.116248
	H34	H	0.342075	0.776128	0.115814
	H35	H	0.654311	0.776536	0.899053
	H36	H	0.341539	0.894215	0.229512
	H37	H	0.654594	0.108759	0.230084
	H38	H	0.343658	0.110301	0.779038
	H39	H	0.655181	0.893926	0.784405
	H40	H	0.892438	0.223681	0.349709
	H41	H	0.108880	0.223520	0.662546
	H42	H	0.111664	0.773372	0.349452
	H43	H	0.893018	0.776352	0.661144
	H44	H	0.225515	0.343521	0.896172
	H45	H	0.222083	0.655388	0.112325
	H46	H	0.772761	0.344131	0.115621
	H47	H	0.777273	0.655280	0.899278
	H48	H	0.409184	0.115227	0.600728
	H49	H	0.590523	0.889667	0.589185
	H50	H	0.586162	0.112276	0.417194
	H51	H	0.415059	0.889892	0.416502
	H52	H	0.588336	0.413458	0.118551
	H53	H	0.582771	0.588394	0.895004
	H54	H	0.409867	0.588810	0.120175
	H55	H	0.409178	0.412217	0.894341
	H56	H	0.111983	0.588599	0.418385
	H57	H	0.887664	0.587188	0.594922
	H58	H	0.112140	0.411443	0.595220
	H59	H	0.890983	0.409660	0.425077
	H60	H	0.112600	0.407868	0.592546
	H61	H	0.886104	0.589295	0.595343
	H62	H	0.109370	0.584324	0.421889
	H63	H	0.891491	0.417752	0.418705
	H64	H	0.410266	0.587097	0.118632
	H65	H	0.588828	0.595317	0.890572
	H66	H	0.582806	0.415095	0.115184
	H67	H	0.414976	0.417394	0.897681
	H68	H	0.587845	0.112484	0.419127
	H69	H	0.592738	0.885292	0.598964
	H70	H	0.422168	0.107892	0.591480
	H71	H	0.413174	0.890676	0.421180
	H72	H	0.905733	0.613143	0.097222
	H73	H	0.086706	0.388586	0.090348
	H74	H	0.085213	0.610993	0.910309
	H75	H	0.909705	0.386730	0.917999
	H76	H	0.087505	0.904084	0.619419
	H77	H	0.085741	0.091799	0.392616
	H78	H	0.911679	0.083879	0.617364
	H79	H	0.908649	0.915208	0.393030
	H80	H	0.608504	0.087999	0.920971
	H81	H	0.387513	0.084898	0.094847
	H82	H	0.611333	0.905371	0.093012
	H83	H	0.384319	0.910488	0.913856
	H84	H	0.609120	0.913603	0.092616
	H85	H	0.387288	0.088916	0.091197
	H86	H	0.609114	0.085502	0.918608
	H87	H	0.385906	0.908643	0.922164
	H88	H	0.914340	0.091424	0.618327
	H89	H	0.089860	0.081554	0.394906
	H90	H	0.092090	0.919251	0.615632
	H91	H	0.915579	0.912061	0.393638
	H92	H	0.085653	0.606947	0.923688
	H93	H	0.086509	0.387791	0.093100
	H94	H	0.915014	0.609001	0.096336
	H95	H	0.912327	0.387622	0.916551
	H96	H	0.405974	0.109993	0.584272
	H97	H	0.583394	0.889682	0.597145
	H98	H	0.588353	0.112783	0.416654
	H99	H	0.410407	0.888095	0.417701
	H100	H	0.583507	0.409001	0.117958
	H101	H	0.592228	0.586012	0.891987
	H102	H	0.412089	0.588178	0.119689
	H103	H	0.417212	0.409684	0.895495
	H104	H	0.110869	0.583358	0.415475
	H105	H	0.887476	0.588946	0.593101
	H106	H	0.110823	0.412100	0.590594
	H107	H	0.887301	0.409125	0.415947
	H108	H	0.909262	0.609131	0.088722
	H109	H	0.083818	0.388945	0.091782
	H110	H	0.096588	0.612564	0.918473
	H111	H	0.911368	0.388576	0.918828
	H112	H	0.076848	0.914480	0.612040
	H113	H	0.079356	0.083951	0.398034
	H114	H	0.907054	0.090003	0.620459
	H115	H	0.910054	0.908894	0.390274
	H116	H	0.610832	0.088778	0.918098
	H117	H	0.389130	0.084353	0.089928
	H118	H	0.612816	0.910393	0.099916
	H119	H	0.388006	0.916598	0.918929
	C120	C	0.378767	0.008193	0.626493
	C121	C	0.621918	0.991411	0.628621
	C122	C	0.620537	0.009221	0.384675
	C123	C	0.377613	0.991825	0.383957
	C124	C	0.619426	0.378658	0.013761
	C125	C	0.620279	0.621578	0.997239
	C126	C	0.377970	0.620502	0.015326
	C127	C	0.378190	0.377881	0.998078
	C128	C	0.007887	0.619717	0.384480
	C129	C	0.991061	0.621025	0.626771
	C130	C	0.008292	0.378163	0.626920
	C131	C	0.991775	0.377145	0.384150
	C132	C	0.876757	0.507561	0.127802
	C133	C	0.119896	0.491016	0.126367
	C134	C	0.122547	0.507397	0.883312
	C135	C	0.878670	0.490872	0.884702
	C136	C	0.121148	0.877912	0.513294
	C137	C	0.119982	0.120042	0.497926
	C138	C	0.877491	0.121695	0.515076
	C139	C	0.878759	0.878979	0.496455
	C140	C	0.506940	0.121980	0.884182
	C141	C	0.490851	0.120143	0.125951
	C142	C	0.507123	0.877475	0.128705
	C143	C	0.489859	0.879329	0.885634
	C144	C	0.374851	0.891260	0.688805
	C145	C	0.625733	0.108482	0.690552
	C146	C	0.622876	0.891290	0.324328
	C147	C	0.373422	0.109348	0.322226
	C148	C	0.681141	0.375632	0.895473
	C149	C	0.680160	0.623125	0.116214
	C150	C	0.318946	0.622021	0.895888
	C151	C	0.315238	0.372507	0.115547
	C152	C	0.890731	0.682287	0.379614
	C153	C	0.108254	0.682909	0.629962
	C154	C	0.889827	0.318302	0.630529
	C155	C	0.107937	0.313450	0.377904
	C156	C	0.889861	0.376750	0.687665
	C157	C	0.109196	0.624588	0.687420
	C158	C	0.890158	0.623973	0.322575
	C159	C	0.107897	0.371206	0.319872
	C160	C	0.375282	0.680812	0.896434
	C161	C	0.622659	0.681293	0.116218
	C162	C	0.624947	0.316335	0.896256
	C163	C	0.373094	0.314940	0.115379
	C164	C	0.681099	0.891425	0.381741
	C165	C	0.683675	0.108546	0.632794
	C166	C	0.315924	0.891585	0.631753
	C167	C	0.314290	0.108407	0.378870
	C168	C	0.872462	0.390810	0.190338
	C169	C	0.123949	0.608408	0.188158
	C170	C	0.127108	0.390460	0.820759
	C171	C	0.877571	0.609071	0.824800
	C172	C	0.186368	0.871592	0.397214
	C173	C	0.182691	0.124409	0.615640
	C174	C	0.816346	0.125700	0.396703
	C175	C	0.818828	0.876369	0.615336
	C176	C	0.390259	0.185147	0.878055
	C177	C	0.607130	0.183853	0.132111
	C178	C	0.389142	0.816729	0.132753
	C179	C	0.607389	0.817713	0.881738
	C180	C	0.388849	0.875716	0.189421
	C181	C	0.607884	0.125275	0.188828
	C182	C	0.390475	0.127427	0.820249
	C183	C	0.607983	0.876281	0.824648
	C184	C	0.874634	0.182860	0.396736
	C185	C	0.125554	0.182599	0.615508
	C186	C	0.127896	0.814297	0.396600
	C187	C	0.875429	0.817456	0.614368
	C188	C	0.184753	0.390462	0.878879
	C189	C	0.181668	0.608287	0.130258
	C190	C	0.814352	0.390743	0.132454
	C191	C	0.818136	0.608518	0.881538
	C192	C	0.404895	0.089674	0.599680
	C193	C	0.596312	0.909781	0.602514
	C194	C	0.594731	0.091259	0.410345
	C195	C	0.404978	0.910922	0.410858
	C196	C	0.592548	0.405054	0.095613
	C197	C	0.595245	0.596899	0.914138
	C198	C	0.403501	0.595344	0.097925
	C199	C	0.405810	0.405346	0.916906
	C200	C	0.089396	0.593105	0.410963
	C201	C	0.908553	0.595492	0.601635
	C202	C	0.090346	0.403290	0.600531
	C203	C	0.910888	0.404497	0.411888
	C204	C	0.902773	0.589156	0.101425
	C205	C	0.093243	0.409743	0.099628
	C206	C	0.096422	0.588850	0.909737
	C207	C	0.903937	0.408963	0.910278
	C208	C	0.093349	0.905034	0.594365
	C209	C	0.092828	0.093221	0.416513
	C210	C	0.903418	0.095873	0.597242
	C211	C	0.904365	0.904747	0.414050
	C212	C	0.588292	0.095134	0.911465
	C213	C	0.409205	0.093562	0.099354
	C214	C	0.589444	0.902537	0.102619
	C215	C	0.407681	0.904816	0.911222
	Zn216	Zn	0.499089	0.000480	0.756541
	Zn217	Zn	0.498997	0.000941	0.255394
	Zn218	Zn	0.748421	0.499222	0.005554
	Zn219	Zn	0.249995	0.499027	0.006565
	Zn220	Zn	-0.000632	0.749103	0.504409
	Zn221	Zn	0.000032	0.249041	0.506783
	Zn222	Zn	0.000653	0.499275	0.755255
	Zn223	Zn	-0.000342	0.498857	0.255690
	Zn224	Zn	0.497750	0.749652	0.006580
	Zn225	Zn	0.498850	0.249485	0.005799
	Zn226	Zn	0.749446	0.000201	0.505705
	Zn227	Zn	0.249161	0.000142	0.505917
	N228	N	0.413162	0.964820	0.685633
	N229	N	0.587757	0.034705	0.687925
	N230	N	0.586135	0.965680	0.325769
	N231	N	0.411691	0.035779	0.325067
	N232	N	0.678055	0.413353	0.969723
	N233	N	0.678948	0.586772	0.041129
	N234	N	0.320203	0.585376	0.970860
	N235	N	0.317988	0.410690	0.041445
	N236	N	0.964920	0.679889	0.417095
	N237	N	0.033640	0.681091	0.593183
	N238	N	0.964539	0.318815	0.593717
	N239	N	0.034597	0.316901	0.417222
	N240	N	0.964761	0.412837	0.685774
	N241	N	0.035239	0.586930	0.685575
	N242	N	0.964193	0.585900	0.325129
	N243	N	0.034571	0.410133	0.323603
	N244	N	0.410954	0.680289	0.971881
	N245	N	0.586377	0.680674	0.040992
	N246	N	0.587362	0.317937	0.970850
	N247	N	0.411500	0.318281	0.041379
	N248	N	0.679811	0.965974	0.418507
	N249	N	0.681857	0.034693	0.595255
	N250	N	0.318480	0.965268	0.593595
	N251	N	0.316502	0.034253	0.416462
	N252	N	0.910584	0.464500	0.187519
	N253	N	0.086517	0.534299	0.186006
	N254	N	0.089389	0.464488	0.823064
	N255	N	0.914570	0.534740	0.826588
	N256	N	0.182564	0.910340	0.470835
	N257	N	0.179366	0.086267	0.541366
	N258	N	0.817744	0.088630	0.471471
	N259	N	0.820643	0.913879	0.540944
	N260	N	0.463809	0.181963	0.917074
	N261	N	0.533568	0.180498	0.093245
	N262	N	0.463776	0.817718	0.095501
	N263	N	0.532994	0.819585	0.919148
	N264	N	0.463371	0.912441	0.187270
	N265	N	0.534487	0.086208	0.184988
	N266	N	0.464066	0.088984	0.823953
	N267	N	0.533817	0.913951	0.826805
	N268	N	0.911802	0.180624	0.471466
	N269	N	0.087423	0.180211	0.541326
	N270	N	0.087842	0.818171	0.469792
	N271	N	0.911827	0.818661	0.539231
	N272	N	0.182070	0.464171	0.917090
	N273	N	0.179539	0.534266	0.092710
	N274	N	0.816776	0.464446	0.094341
	N275	N	0.818690	0.534111	0.918139
	O276	O	0.650269	0.524633	0.567094
	H277	H	0.656721	0.517169	0.578607
	H278	H	0.653922	0.529164	0.557851
	O279	O	0.605412	0.709408	0.457673
	H280	H	0.626806	0.706512	0.445332
	H281	H	0.621311	0.708410	0.473069
	O282	O	0.997988	1.082551	0.096929
	H283	H	0.990506	1.085248	0.091173
	H284	H	1.001241	1.079194	0.105732
	O285	O	0.420947	0.698623	0.303520
	H286	H	0.425496	0.718621	0.296270
	H287	H	0.456553	0.682647	0.301727
	O288	O	-0.221217	0.221263	-0.014205
	H289	H	-0.218586	0.203624	-0.042294
	H290	H	-0.253946	0.247730	-0.016275
	O291	O	1.051078	1.067159	-0.055184
	H292	H	1.055573	1.065050	-0.076022
	H293	H	1.058452	1.068078	-0.058611
	O294	O	-0.219944	1.221836	-0.211247
	H295	H	-0.205878	1.202619	-0.215825
	H296	H	-0.205730	1.212784	-0.219387
	O297	O	0.694002	0.648324	0.700173
	H298	H	0.708447	0.620558	0.705658
	H299	H	0.680108	0.644766	0.711732
	O300	O	0.389090	0.324988	0.438795
	H301	H	0.380773	0.351525	0.424880
	H302	H	0.401895	0.324607	0.428899
	O303	O	0.293384	0.708144	0.542862
	H304	H	0.279909	0.731926	0.536331
	H305	H	0.331211	0.713450	0.558867
	O306	O	0.017989	0.799234	1.011986
	H307	H	0.020920	0.790267	1.009742
	H308	H	0.022749	0.803862	1.002287
	O309	O	0.501854	0.517667	0.567347
	H310	H	0.496602	0.524757	0.564881
	H311	H	0.498487	0.521940	0.567777
	O312	O	0.515496	0.304285	0.310399
	H313	H	0.502782	0.329849	0.297841
	H314	H	0.506622	0.298213	0.316799
	O315	O	-0.280552	0.501721	0.354856
	H316	H	-0.273879	0.477188	0.367230
	H317	H	-0.265169	0.501567	0.342580
	O318	O	0.214370	0.947128	-0.203573
	H319	H	0.210215	0.932708	-0.208818
	H320	H	0.238232	0.943022	-0.217619
	O321	O	0.716178	0.280294	0.478262
	H322	H	0.694434	0.278685	0.474885
	H323	H	0.741432	0.244325	0.480276
	O324	O	1.299908	0.562851	1.582450
	H325	H	1.303204	0.589288	1.574165
	H326	H	1.313431	0.561645	1.571974
	O327	O	0.972289	0.223023	1.033842
	H328	H	0.945271	0.223249	1.029418
	H329	H	0.990866	0.215421	1.017458
	O330	O	1.209257	-0.056096	0.068372
	H331	H	1.198656	-0.036549	0.038164
	H332	H	1.212431	-0.053292	0.091072
	O333	O	0.776395	0.824386	1.012419
	H334	H	0.761103	0.801426	1.019017
	H335	H	0.773268	0.826117	1.008925
	O336	O	1.219552	0.220458	1.023622
	H337	H	1.214529	0.212483	1.064355
	H338	H	1.249015	0.249751	1.036285
	O339	O	0.537943	0.453058	0.290947
	H340	H	0.535593	0.468523	0.314767
	H341	H	0.527189	0.462774	0.271147
	O342	O	0.929349	-0.215942	0.173541
	H343	H	0.932345	-0.216426	0.168102
	H344	H	0.923411	-0.243139	0.191682
	O345	O	-0.167345	-0.036411	0.049255
	H346	H	-0.164109	-0.051998	0.054865
	H347	H	-0.173958	-0.018143	0.064870
	O348	O	1.178404	0.182189	1.179738
	H349	H	1.129943	0.189616	1.187030
	H350	H	1.192399	0.130760	1.195552
	O351	O	0.292242	0.477391	0.697705
	H352	H	0.293116	0.479463	0.675115
	H353	H	0.259150	0.480480	0.728982
	O354	O	0.342676	0.510699	0.398160
	H355	H	0.350722	0.525790	0.396703
	H356	H	0.345181	0.519136	0.380809
	O357	O	1.031595	0.974437	1.235434
	H358	H	1.023128	0.983131	1.224836
	H359	H	1.024848	0.951154	1.226949
	O360	O	0.565435	0.563139	0.302873
	H361	H	0.593536	0.555809	0.310999
	H362	H	0.554359	0.539794	0.309109
	O363	O	0.362703	0.623659	0.762975
	H364	H	0.379994	0.611126	0.753853
	H365	H	0.354175	0.612430	0.762760
	O366	O	0.860931	1.079573	0.167654
	H367	H	0.885801	1.093021	0.164488
	H368	H	0.870579	1.089001	0.147880
	O369	O	0.616091	0.587134	0.419359
	H370	H	0.618939	0.572417	0.415139
	H371	H	0.613644	0.583169	0.427592
	O372	O	0.481499	0.282864	0.719115
	H373	H	0.446180	0.279702	0.720858
	H374	H	0.485024	0.261409	0.733468
	O375	O	-0.169183	1.006064	1.003963
	H376	H	-0.164349	1.015511	0.978633
	H377	H	-0.161968	0.994969	1.015020
	O378	O	0.788387	0.025498	-0.204074
	H379	H	0.798253	0.005979	-0.212496
	H380	H	0.777324	0.025287	-0.219910
	O381	O	0.286922	0.284571	-0.472794
	H382	H	0.268967	0.296738	-0.491521
	H383	H	0.278995	0.270351	-0.488822
	O384	O	-0.214462	-1.027184	1.216896
	H385	H	-0.222431	-1.012748	1.219186
	H386	H	-0.212553	-1.011441	1.230218
	O387	O	-0.102895	0.888086	0.779768
	H388	H	-0.093199	0.895266	0.785819
	H389	H	-0.086703	0.874642	0.779458
	O390	O	0.215565	-0.216687	0.977289
	H391	H	0.233265	-0.237427	0.979075
	H392	H	0.222224	-0.201044	0.981223
	O393	O	1.018241	1.204748	0.211419
	H394	H	1.001789	1.207109	0.181401
	H395	H	1.014368	1.227698	0.231917
	O396	O	0.440035	0.730613	0.553476
	H397	H	0.472173	0.726599	0.547412
	H398	H	0.462599	0.737622	0.566433
	O399	O	0.309063	0.678695	0.376815
	H400	H	0.298302	0.696840	0.414965
	H401	H	0.355734	0.691583	0.373274
	O402	O	0.008949	-0.112889	0.951886
	H403	H	0.014456	-0.106421	0.945581
	H404	H	0.004058	-0.105553	0.954812
	O405	O	-0.248786	-0.228200	0.256131
	H406	H	-0.227939	-0.219413	0.273659
	H407	H	-0.250554	-0.206576	0.240724
	O408	O	0.628310	0.474304	0.533556
	H409	H	0.620124	0.464970	0.523776
	H410	H	0.628317	0.466966	0.520835
	O411	O	0.558649	0.380330	0.626881
	H412	H	0.545744	0.352398	0.624190
	H413	H	0.565832	0.386878	0.616076
	O414	O	0.865236	0.865538	0.887474
	H415	H	0.870613	0.874738	0.900201
	H416	H	0.871350	0.877679	0.882526
	O417	O	0.275687	0.517744	0.283065
	H418	H	0.275857	0.558395	0.284752
	H419	H	0.249991	0.536278	0.258091
	O420	O	0.912494	0.905130	1.090489
	H421	H	0.904961	0.917845	1.084483
	H422	H	0.919237	0.906576	1.103360
	O423	O	-0.024535	1.218855	-0.211666
	H424	H	-0.025311	1.219314	-0.180454
	H425	H	-0.028396	1.251657	-0.244572
	O426	O	1.078209	0.864482	1.156545
	H427	H	1.067362	0.881244	1.154951
	H428	H	1.076129	0.861588	1.149040
	O429	O	0.409567	0.501022	0.451079
	H430	H	0.400444	0.519395	0.446252
	H431	H	0.410936	0.516137	0.462673
	O432	O	0.168747	0.050882	-0.095511
	H433	H	0.166632	0.085160	-0.093450
	H434	H	0.174105	0.050434	-0.109098
	O435	O	-0.032301	0.153411	-0.139536
	H436	H	-0.035781	0.131163	-0.129688
	H437	H	-0.015882	0.162163	-0.119058
	O438	O	1.134516	-0.156311	-0.187043
	H439	H	1.133152	-0.149033	-0.196134
	H440	H	1.140594	-0.167153	-0.153073
	O441	O	0.682163	0.309820	0.317249
	H442	H	0.643433	0.302294	0.324447
	H443	H	0.696614	0.329847	0.328392
	O444	O	-0.018498	0.794604	0.803248
	H445	H	-0.009157	0.797887	0.817862
	H446	H	-0.002542	0.775637	0.785389
	O447	O	0.495565	0.661716	0.705602
	H448	H	0.498746	0.647948	0.712813
	H449	H	0.504070	0.665081	0.715268
	O450	O	0.325676	0.319685	0.684577
	H451	H	0.311619	0.306827	0.632459
	H452	H	0.329946	0.351680	0.695708
	O453	O	0.660736	0.506748	0.719394
	H454	H	0.665560	0.501782	0.733366
	H455	H	0.649812	0.482215	0.713816
	O456	O	1.068998	0.098039	-0.114544
	H457	H	1.075723	0.091726	-0.115249
	H458	H	1.069586	0.120938	-0.100782
	O459	O	0.530142	0.285692	0.531489
	H460	H	0.518662	0.288636	0.558586
	H461	H	0.499341	0.286603	0.528853
	O462	O	0.682856	0.705376	0.563604
	H463	H	0.691337	0.698960	0.587232
	H464	H	0.706195	0.710690	0.579660
	O465	O	1.215859	0.025817	0.223296
	H466	H	1.247152	0.021645	0.249718
	H467	H	1.188603	0.000827	0.230869
