data_Molecule from HDF5

_cell_length_a		16.287558
_cell_length_b		16.332754
_cell_length_c		16.323601
_cell_angle_alpha	90.047345
_cell_angle_beta	90.024447
_cell_angle_gamma	90.026635
_symmetry_space_group_name_H-M	'P 1'
_symmetry_Int_Tables_number		1

loop_
	_symmetry_equiv_pos_as_xyz
	x,y,z

loop_
	_atom_site_label
	_atom_site_type_symbol
	_atom_site_fract_x
	_atom_site_fract_y
	_atom_site_fract_z
	H0	H	0.404577	0.837088	0.719059
	H1	H	0.603465	0.162885	0.719408
	H2	H	0.602473	0.836788	0.288612
	H3	H	0.404309	0.162572	0.288668
	H4	H	0.718697	0.401493	0.840589
	H5	H	0.719470	0.599722	0.167185
	H6	H	0.290440	0.596980	0.840178
	H7	H	0.287866	0.400661	0.166071
	H8	H	0.841164	0.714084	0.406042
	H9	H	0.167700	0.714842	0.603082
	H10	H	0.840387	0.286398	0.601898
	H11	H	0.168417	0.285247	0.405508
	H12	H	0.839902	0.402945	0.717490
	H13	H	0.167982	0.598148	0.718090
	H14	H	0.840607	0.598264	0.290785
	H15	H	0.167802	0.401021	0.289021
	H16	H	0.405847	0.714571	0.840082
	H17	H	0.602976	0.715795	0.166595
	H18	H	0.603615	0.284912	0.841256
	H19	H	0.403320	0.284425	0.166276
	H20	H	0.718737	0.836649	0.404234
	H21	H	0.718693	0.163389	0.602637
	H22	H	0.289562	0.836197	0.601376
	H23	H	0.289464	0.163386	0.406143
	H24	H	0.904605	0.337363	0.219501
	H25	H	0.103497	0.663152	0.219358
	H26	H	0.101779	0.337055	0.790288
	H27	H	0.904772	0.663492	0.789084
	H28	H	0.217259	0.902044	0.340711
	H29	H	0.219147	0.098309	0.667397
	H30	H	0.790602	0.096898	0.339711
	H31	H	0.789742	0.901268	0.667142
	H32	H	0.340789	0.215388	0.904975
	H33	H	0.667352	0.216423	0.103867
	H34	H	0.340170	0.785676	0.101484
	H35	H	0.667414	0.784949	0.903764
	H36	H	0.340072	0.902239	0.217412
	H37	H	0.667300	0.099828	0.219161
	H38	H	0.341476	0.099933	0.787993
	H39	H	0.667396	0.901775	0.788698
	H40	H	0.905059	0.215449	0.341074
	H41	H	0.102601	0.214661	0.667686
	H42	H	0.104350	0.784063	0.341971
	H43	H	0.905289	0.785086	0.667038
	H44	H	0.219113	0.337484	0.904964
	H45	H	0.218047	0.663837	0.102123
	H46	H	0.788712	0.337625	0.102319
	H47	H	0.791190	0.663836	0.907703
	H48	H	0.413085	0.112627	0.588957
	H49	H	0.587388	0.883795	0.607585
	H50	H	0.597291	0.114060	0.415418
	H51	H	0.412786	0.886888	0.418025
	H52	H	0.594906	0.407112	0.119050
	H53	H	0.597257	0.598569	0.886599
	H54	H	0.407403	0.603926	0.123712
	H55	H	0.407447	0.405940	0.886146
	H56	H	0.119185	0.589232	0.412305
	H57	H	0.887329	0.593124	0.600312
	H58	H	0.121519	0.410156	0.603328
	H59	H	0.885806	0.398265	0.408889
	H60	H	0.122259	0.400040	0.598329
	H61	H	0.887110	0.596119	0.596234
	H62	H	0.121930	0.593815	0.409750
	H63	H	0.891449	0.408725	0.420576
	H64	H	0.404570	0.584866	0.119633
	H65	H	0.601256	0.591426	0.887165
	H66	H	0.597511	0.407386	0.119977
	H67	H	0.411787	0.412394	0.888811
	H68	H	0.601330	0.117053	0.409579
	H69	H	0.593133	0.889572	0.584023
	H70	H	0.404270	0.118138	0.597952
	H71	H	0.401826	0.880913	0.408685
	H72	H	0.913994	0.613622	0.091727
	H73	H	0.097981	0.383876	0.098071
	H74	H	0.095646	0.617510	0.904840
	H75	H	0.909717	0.385449	0.916289
	H76	H	0.096663	0.909843	0.619238
	H77	H	0.102963	0.091388	0.386601
	H78	H	0.912294	0.098050	0.621132
	H79	H	0.917217	0.908651	0.390423
	H80	H	0.619175	0.079378	0.902075
	H81	H	0.386530	0.089022	0.107921
	H82	H	0.618777	0.913695	0.096457
	H83	H	0.388612	0.914641	0.906828
	H84	H	0.622847	0.904790	0.102394
	H85	H	0.384957	0.104970	0.094563
	H86	H	0.626412	0.107580	0.906699
	H87	H	0.385006	0.900798	0.906761
	H88	H	0.905156	0.091175	0.620666
	H89	H	0.092046	0.088331	0.390618
	H90	H	0.095427	0.904785	0.620209
	H91	H	0.910822	0.899686	0.385782
	H92	H	0.093018	0.614207	0.914828
	H93	H	0.094300	0.385496	0.097878
	H94	H	0.905304	0.618498	0.097858
	H95	H	0.906921	0.382263	0.907059
	H96	H	0.417903	0.115694	0.601879
	H97	H	0.610981	0.879671	0.598419
	H98	H	0.593612	0.114959	0.408443
	H99	H	0.415638	0.883322	0.403344
	H100	H	0.596447	0.409952	0.119448
	H101	H	0.593118	0.591206	0.889446
	H102	H	0.422101	0.593356	0.116190
	H103	H	0.415380	0.404819	0.888386
	H104	H	0.120326	0.593441	0.415435
	H105	H	0.889251	0.590940	0.595952
	H106	H	0.118552	0.409270	0.592396
	H107	H	0.889084	0.414313	0.405129
	H108	H	0.915159	0.616629	0.102878
	H109	H	0.097109	0.384913	0.094399
	H110	H	0.102621	0.617988	0.912938
	H111	H	0.916994	0.385169	0.908411
	H112	H	0.100229	0.906842	0.621682
	H113	H	0.094436	0.099433	0.387105
	H114	H	0.914578	0.089185	0.617642
	H115	H	0.905909	0.910458	0.388248
	H116	H	0.614637	0.091084	0.928144
	H117	H	0.392938	0.086351	0.088332
	H118	H	0.619242	0.903585	0.091055
	H119	H	0.390148	0.906373	0.918911
	C120	C	0.382531	0.007868	0.625208
	C121	C	0.625887	0.991802	0.625358
	C122	C	0.625675	0.007822	0.382130
	C123	C	0.381655	0.991545	0.381854
	C124	C	0.625457	0.379154	0.012094
	C125	C	0.626002	0.622227	0.995425
	C126	C	0.382553	0.622317	0.012004
	C127	C	0.382835	0.378940	0.995604
	C128	C	0.012523	0.621184	0.383275
	C129	C	0.996013	0.621725	0.626013
	C130	C	0.012319	0.378425	0.625890
	C131	C	0.996509	0.378492	0.382731
	C132	C	0.882301	0.508945	0.126164
	C133	C	0.125844	0.492001	0.125785
	C134	C	0.125712	0.508592	0.882350
	C135	C	0.882397	0.492139	0.882250
	C136	C	0.125743	0.878529	0.512632
	C137	C	0.125481	0.121266	0.496065
	C138	C	0.882218	0.121671	0.512002
	C139	C	0.882901	0.878335	0.496016
	C140	C	0.512300	0.121360	0.883199
	C141	C	0.495929	0.122433	0.125843
	C142	C	0.512108	0.878934	0.124925
	C143	C	0.495924	0.878777	0.882207
	C144	C	0.384559	0.885520	0.680725
	C145	C	0.623775	0.114348	0.681139
	C146	C	0.622879	0.885412	0.326406
	C147	C	0.383879	0.114020	0.326699
	C148	C	0.680825	0.381197	0.889293
	C149	C	0.681137	0.619827	0.118496
	C150	C	0.327930	0.618522	0.889014
	C151	C	0.326678	0.380611	0.117633
	C152	C	0.889904	0.676305	0.385673
	C153	C	0.118972	0.676946	0.623683
	C154	C	0.889200	0.324126	0.622717
	C155	C	0.119442	0.323095	0.385112
	C156	C	0.888995	0.381926	0.680066
	C157	C	0.119000	0.619186	0.681092
	C158	C	0.889798	0.618778	0.328163
	C159	C	0.119296	0.380940	0.327525
	C160	C	0.385297	0.676722	0.888887
	C161	C	0.623448	0.677666	0.118110
	C162	C	0.623845	0.322981	0.889665
	C163	C	0.384017	0.322824	0.117668
	C164	C	0.680566	0.885213	0.384098
	C165	C	0.681042	0.114544	0.622879
	C166	C	0.327500	0.885050	0.622231
	C167	C	0.326760	0.114306	0.385021
	C168	C	0.884532	0.386091	0.181470
	C169	C	0.123603	0.614754	0.180979
	C170	C	0.122558	0.385857	0.827910
	C171	C	0.884862	0.614691	0.827380
	C172	C	0.180107	0.881275	0.389634
	C173	C	0.180626	0.118548	0.618935
	C174	C	0.827927	0.118115	0.388698
	C175	C	0.827487	0.880868	0.618531
	C176	C	0.389561	0.177267	0.884731
	C177	C	0.618512	0.178331	0.124054
	C178	C	0.388970	0.823824	0.121980
	C179	C	0.618825	0.823444	0.884070
	C180	C	0.388889	0.881653	0.179491
	C181	C	0.618482	0.120531	0.181503
	C182	C	0.390029	0.120074	0.826579
	C183	C	0.618761	0.881330	0.826789
	C184	C	0.884601	0.177058	0.389363
	C185	C	0.122964	0.176424	0.619043
	C186	C	0.123721	0.822798	0.390186
	C187	C	0.884800	0.823052	0.618358
	C188	C	0.181191	0.386188	0.884669
	C189	C	0.180759	0.614911	0.122954
	C190	C	0.826861	0.386145	0.123304
	C191	C	0.828000	0.614866	0.885750
	C192	C	0.405151	0.093501	0.602838
	C193	C	0.603696	0.906349	0.603243
	C194	C	0.603789	0.093220	0.404577
	C195	C	0.403793	0.905807	0.403604
	C196	C	0.602974	0.401691	0.097435
	C197	C	0.604065	0.600056	0.910024
	C198	C	0.404644	0.600472	0.097746
	C199	C	0.405225	0.401040	0.909851
	C200	C	0.098366	0.598732	0.405899
	C201	C	0.910085	0.599810	0.603869
	C202	C	0.098700	0.400182	0.604373
	C203	C	0.910833	0.400692	0.405116
	C204	C	0.904852	0.594069	0.104023
	C205	C	0.103213	0.406920	0.103480
	C206	C	0.103629	0.594431	0.904323
	C207	C	0.904572	0.406331	0.904358
	C208	C	0.103805	0.900548	0.598321
	C209	C	0.103015	0.099333	0.410280
	C210	C	0.904400	0.099570	0.597632
	C211	C	0.904767	0.899970	0.410250
	C212	C	0.597923	0.099100	0.905740
	C213	C	0.410250	0.100127	0.103498
	C214	C	0.597959	0.900998	0.103173
	C215	C	0.409988	0.900804	0.904336
	Zn216	Zn	0.504158	0.000264	0.753909
	Zn217	Zn	0.503911	0.000330	0.253560
	Zn218	Zn	0.754171	0.500130	0.003749
	Zn219	Zn	0.253972	0.500442	0.003878
	Zn220	Zn	0.004611	0.750036	0.504324
	Zn221	Zn	0.004525	0.250079	0.504299
	Zn222	Zn	0.004143	0.500339	0.753921
	Zn223	Zn	0.004656	0.500429	0.254518
	Zn224	Zn	0.504300	0.750824	0.003254
	Zn225	Zn	0.504187	0.250562	0.003793
	Zn226	Zn	0.754555	-0.000577	0.503861
	Zn227	Zn	0.253775	-0.000273	0.504114
	N228	N	0.418090	0.962974	0.682624
	N229	N	0.590008	0.037162	0.682700
	N230	N	0.589369	0.962749	0.325108
	N231	N	0.417408	0.036706	0.324509
	N232	N	0.681893	0.415340	0.966331
	N233	N	0.682810	0.585956	0.041235
	N234	N	0.326191	0.585453	0.966576
	N235	N	0.325873	0.414874	0.040777
	N236	N	0.967369	0.677884	0.419253
	N237	N	0.041500	0.678676	0.590088
	N238	N	0.966882	0.321852	0.589781
	N239	N	0.041932	0.321284	0.418589
	N240	N	0.966718	0.415010	0.682107
	N241	N	0.041637	0.585383	0.682494
	N242	N	0.967185	0.585106	0.326666
	N243	N	0.041882	0.414562	0.325878
	N244	N	0.418655	0.679075	0.966348
	N245	N	0.589743	0.679202	0.040894
	N246	N	0.589875	0.321735	0.966859
	N247	N	0.418285	0.321773	0.040608
	N248	N	0.682671	0.962242	0.417776
	N249	N	0.682497	0.037301	0.589003
	N250	N	0.326124	0.962246	0.588634
	N251	N	0.325295	0.037104	0.418544
	N252	N	0.918221	0.463405	0.183498
	N253	N	0.090045	0.537490	0.182901
	N254	N	0.088784	0.462978	0.826550
	N255	N	0.917953	0.537147	0.825113
	N256	N	0.181337	0.915396	0.466694
	N257	N	0.182205	0.085043	0.541507
	N258	N	0.826032	0.084759	0.466027
	N259	N	0.826207	0.914506	0.541305
	N260	N	0.466616	0.177970	0.919564
	N261	N	0.541118	0.179699	0.090252
	N262	N	0.466642	0.822017	0.088917
	N263	N	0.541359	0.822107	0.917943
	N264	N	0.466315	0.915542	0.181140
	N265	N	0.541262	0.086377	0.182695
	N266	N	0.467159	0.085909	0.825670
	N267	N	0.541504	0.915077	0.825518
	N268	N	0.917723	0.179279	0.466854
	N269	N	0.089488	0.178270	0.541688
	N270	N	0.090391	0.821102	0.467579
	N271	N	0.918564	0.821318	0.541214
	N272	N	0.182913	0.463566	0.918135
	N273	N	0.182286	0.537702	0.089220
	N274	N	0.825291	0.463243	0.089721
	N275	N	0.826476	0.537598	0.919172
	O276	O	0.552983	0.416041	0.433772
	H277	H	0.562996	0.421598	0.433524
	H278	H	0.557416	0.412776	0.437419
	O279	O	-0.005688	0.015765	0.052950
	H280	H	0.003225	0.016429	0.060395
	H281	H	-0.008868	0.012429	0.047842
	O282	O	0.519553	0.490385	0.407578
	H283	H	0.524126	0.492059	0.401778
	H284	H	0.517908	0.484429	0.397609
	O285	O	0.507819	0.549397	0.453205
	H286	H	0.507843	0.547764	0.448262
	H287	H	0.497722	0.557166	0.442412
	O288	O	0.988692	0.030984	0.048008
	H289	H	0.994662	0.038233	0.041832
	H290	H	0.994011	0.039858	0.053146
	O291	O	-0.437745	0.437722	-0.538059
	H292	H	-0.440534	0.445706	-0.542668
	H293	H	-0.438638	0.430060	-0.541237
	O294	O	-0.010972	0.971222	0.051251
	H295	H	-0.013364	0.976223	0.040457
	H296	H	-0.017306	0.966012	0.055334
	O297	O	0.023394	1.048704	0.093257
	H298	H	0.019331	1.040017	0.091823
	H299	H	0.027491	1.040829	0.098457
	O300	O	0.987493	0.046723	1.047539
	H301	H	0.984057	0.043432	1.053887
	H302	H	0.989561	0.053905	1.053065
	O303	O	0.510606	0.463911	0.436520
	H304	H	0.507819	0.448434	0.438065
	H305	H	0.510145	0.460531	0.431560
	O306	O	0.575039	1.435184	1.410096
	H307	H	0.586733	1.444662	1.408030
	H308	H	0.573646	1.422801	1.413665
	O309	O	0.521651	0.438804	0.457813
	H310	H	0.522408	0.432607	0.463326
	H311	H	0.518623	0.450841	0.463275
