data_Molecule from HDF5

_cell_length_a		16.303163
_cell_length_b		16.338177
_cell_length_c		16.305916
_cell_angle_alpha	90.014533
_cell_angle_beta	90.048739
_cell_angle_gamma	90.054572
_symmetry_space_group_name_H-M	'P 1'
_symmetry_Int_Tables_number		1

loop_
	_symmetry_equiv_pos_as_xyz
	x,y,z

loop_
	_atom_site_label
	_atom_site_type_symbol
	_atom_site_fract_x
	_atom_site_fract_y
	_atom_site_fract_z
	H0	H	0.405272	0.838161	0.717435
	H1	H	0.603627	0.163368	0.716306
	H2	H	0.604055	0.837126	0.286799
	H3	H	0.406346	0.163385	0.286992
	H4	H	0.717818	0.403641	0.837868
	H5	H	0.720521	0.598859	0.164568
	H6	H	0.290902	0.599492	0.838043
	H7	H	0.290638	0.402956	0.165216
	H8	H	0.842149	0.713902	0.403240
	H9	H	0.168705	0.715889	0.600781
	H10	H	0.841871	0.285395	0.599940
	H11	H	0.168663	0.284451	0.402452
	H12	H	0.841796	0.401379	0.716223
	H13	H	0.168818	0.599081	0.716211
	H14	H	0.842601	0.598460	0.286017
	H15	H	0.169511	0.401343	0.286354
	H16	H	0.406282	0.716094	0.838461
	H17	H	0.605162	0.715422	0.164670
	H18	H	0.604288	0.284712	0.838647
	H19	H	0.406012	0.286179	0.165306
	H20	H	0.719652	0.837121	0.402862
	H21	H	0.721698	0.162497	0.601710
	H22	H	0.289913	0.837461	0.600956
	H23	H	0.290579	0.163299	0.403633
	H24	H	0.907595	0.337196	0.215021
	H25	H	0.104528	0.663881	0.215717
	H26	H	0.104036	0.336956	0.786619
	H27	H	0.906896	0.663072	0.786131
	H28	H	0.220109	0.901767	0.338021
	H29	H	0.219502	0.098218	0.665510
	H30	H	0.791412	0.097478	0.337707
	H31	H	0.790351	0.901045	0.664767
	H32	H	0.341160	0.215072	0.904425
	H33	H	0.668620	0.216351	0.102100
	H34	H	0.342489	0.785504	0.100142
	H35	H	0.668227	0.786159	0.903021
	H36	H	0.342070	0.903162	0.215121
	H37	H	0.668981	0.098999	0.216263
	H38	H	0.341224	0.099601	0.786918
	H39	H	0.668688	0.903281	0.787574
	H40	H	0.906028	0.215114	0.338018
	H41	H	0.105008	0.216401	0.664697
	H42	H	0.104421	0.785538	0.337757
	H43	H	0.906304	0.784486	0.664605
	H44	H	0.220885	0.337635	0.901944
	H45	H	0.220785	0.663306	0.099976
	H46	H	0.790556	0.337317	0.098821
	H47	H	0.790799	0.663318	0.901397
	H48	H	0.410532	0.115603	0.593240
	H49	H	0.601070	0.881086	0.602173
	H50	H	0.606460	0.118293	0.409790
	H51	H	0.408537	0.883803	0.409311
	H52	H	0.603190	0.408828	0.119126
	H53	H	0.599392	0.605920	0.881823
	H54	H	0.410489	0.595655	0.118372
	H55	H	0.411766	0.399079	0.882916
	H56	H	0.121263	0.595773	0.411651
	H57	H	0.890723	0.593358	0.589736
	H58	H	0.120502	0.412354	0.599030
	H59	H	0.890889	0.409710	0.408189
	H60	H	0.123582	0.401235	0.595145
	H61	H	0.890339	0.589586	0.595759
	H62	H	0.120628	0.589617	0.408272
	H63	H	0.889474	0.407231	0.405838
	H64	H	0.412798	0.590432	0.116651
	H65	H	0.607072	0.585883	0.885102
	H66	H	0.594980	0.412089	0.115654
	H67	H	0.406288	0.412891	0.886393
	H68	H	0.595256	0.117470	0.402129
	H69	H	0.589332	0.886709	0.594600
	H70	H	0.412656	0.116645	0.595102
	H71	H	0.412665	0.883507	0.404796
	H72	H	0.914448	0.616971	0.097570
	H73	H	0.100571	0.382456	0.098955
	H74	H	0.101052	0.616966	0.907755
	H75	H	0.905270	0.383452	0.910301
	H76	H	0.099207	0.912091	0.616026
	H77	H	0.104777	0.086582	0.385951
	H78	H	0.913627	0.097535	0.618528
	H79	H	0.913634	0.904918	0.385294
	H80	H	0.620184	0.087961	0.906006
	H81	H	0.391542	0.089397	0.093284
	H82	H	0.624564	0.899599	0.095813
	H83	H	0.386437	0.905346	0.903338
	H84	H	0.619098	0.910007	0.087098
	H85	H	0.387865	0.094894	0.099155
	H86	H	0.622828	0.098824	0.906124
	H87	H	0.389644	0.904272	0.915333
	H88	H	0.908551	0.091956	0.618048
	H89	H	0.089605	0.091710	0.388836
	H90	H	0.092274	0.905789	0.616235
	H91	H	0.910030	0.906425	0.384766
	H92	H	0.096591	0.616093	0.905824
	H93	H	0.091814	0.387184	0.094403
	H94	H	0.915153	0.614661	0.090603
	H95	H	0.913536	0.383120	0.900846
	H96	H	0.413361	0.116510	0.593217
	H97	H	0.602025	0.885182	0.587016
	H98	H	0.595277	0.112816	0.415094
	H99	H	0.414991	0.885533	0.410455
	H100	H	0.595000	0.403035	0.118801
	H101	H	0.586261	0.590801	0.889247
	H102	H	0.415896	0.595089	0.117739
	H103	H	0.421135	0.410416	0.888668
	H104	H	0.123853	0.594549	0.405031
	H105	H	0.888173	0.596470	0.595657
	H106	H	0.118535	0.409182	0.587643
	H107	H	0.889539	0.405951	0.409555
	H108	H	0.908781	0.617247	0.092324
	H109	H	0.101053	0.385497	0.087948
	H110	H	0.098248	0.614829	0.910511
	H111	H	0.916960	0.387071	0.912900
	H112	H	0.100676	0.904178	0.619289
	H113	H	0.100072	0.101548	0.382371
	H114	H	0.915757	0.090458	0.615726
	H115	H	0.912588	0.908994	0.386279
	H116	H	0.619424	0.094204	0.915520
	H117	H	0.389008	0.096831	0.090708
	H118	H	0.622205	0.913350	0.101035
	H119	H	0.391595	0.915523	0.909453
	C120	C	0.383308	0.008847	0.623020
	C121	C	0.626138	0.992124	0.622991
	C122	C	0.626928	0.008468	0.380299
	C123	C	0.383356	0.992001	0.379611
	C124	C	0.626337	0.379068	0.010004
	C125	C	0.626935	0.622318	0.993165
	C126	C	0.384138	0.622376	0.009844
	C127	C	0.383881	0.379039	0.993712
	C128	C	0.014083	0.621712	0.379600
	C129	C	0.997411	0.621973	0.622629
	C130	C	0.013222	0.378936	0.622481
	C131	C	0.997337	0.378491	0.379133
	C132	C	0.884064	0.508643	0.122222
	C133	C	0.126835	0.492495	0.122654
	C134	C	0.127371	0.508390	0.879192
	C135	C	0.883241	0.492202	0.879182
	C136	C	0.126165	0.878969	0.509228
	C137	C	0.126653	0.121779	0.493680
	C138	C	0.883707	0.121524	0.509466
	C139	C	0.883463	0.878121	0.493226
	C140	C	0.512883	0.122659	0.880311
	C141	C	0.497283	0.122570	0.123705
	C142	C	0.513991	0.879152	0.123252
	C143	C	0.496829	0.879840	0.880173
	C144	C	0.385371	0.886403	0.678824
	C145	C	0.624154	0.114830	0.678309
	C146	C	0.624338	0.885784	0.324870
	C147	C	0.386278	0.114693	0.325173
	C148	C	0.680780	0.382045	0.886868
	C149	C	0.682442	0.619447	0.115928
	C150	C	0.328932	0.619622	0.886919
	C151	C	0.328536	0.382431	0.116614
	C152	C	0.891105	0.676715	0.382009
	C153	C	0.119944	0.678068	0.621132
	C154	C	0.890558	0.323253	0.620483
	C155	C	0.119983	0.322821	0.381779
	C156	C	0.890443	0.380844	0.678226
	C157	C	0.119938	0.620004	0.678511
	C158	C	0.891228	0.619146	0.324236
	C159	C	0.120533	0.380953	0.324178
	C160	C	0.386275	0.677728	0.887024
	C161	C	0.625205	0.677395	0.115941
	C162	C	0.624043	0.323392	0.887203
	C163	C	0.385663	0.324151	0.116506
	C164	C	0.681775	0.885865	0.382570
	C165	C	0.682439	0.114305	0.621110
	C166	C	0.327908	0.886098	0.621113
	C167	C	0.328229	0.114432	0.382703
	C168	C	0.886231	0.386156	0.177696
	C169	C	0.125004	0.615169	0.178052
	C170	C	0.124693	0.385837	0.824199
	C171	C	0.886252	0.614626	0.824198
	C172	C	0.181966	0.881174	0.386570
	C173	C	0.181688	0.119015	0.616744
	C174	C	0.828548	0.118819	0.386658
	C175	C	0.828332	0.880730	0.616126
	C176	C	0.389985	0.177345	0.883612
	C177	C	0.619840	0.178090	0.121728
	C178	C	0.391149	0.823879	0.120621
	C179	C	0.619824	0.824752	0.882548
	C180	C	0.391143	0.881893	0.178040
	C181	C	0.620046	0.120083	0.178890
	C182	C	0.390125	0.120301	0.825002
	C183	C	0.619849	0.882663	0.825037
	C184	C	0.885778	0.177023	0.386847
	C185	C	0.124735	0.177558	0.616286
	C186	C	0.124589	0.823473	0.386513
	C187	C	0.885712	0.822548	0.615894
	C188	C	0.182805	0.386086	0.881623
	C189	C	0.182570	0.614946	0.120331
	C190	C	0.828617	0.386150	0.119498
	C191	C	0.828236	0.614409	0.881218
	C192	C	0.405694	0.094174	0.600560
	C193	C	0.604004	0.906544	0.601047
	C194	C	0.605190	0.094079	0.402352
	C195	C	0.405615	0.906347	0.401757
	C196	C	0.604204	0.401394	0.095737
	C197	C	0.604390	0.600557	0.907407
	C198	C	0.406507	0.600444	0.095320
	C199	C	0.406445	0.400877	0.908281
	C200	C	0.099703	0.599794	0.401919
	C201	C	0.911822	0.599524	0.600293
	C202	C	0.098757	0.401227	0.600469
	C203	C	0.911885	0.401095	0.401381
	C204	C	0.906381	0.594243	0.099967
	C205	C	0.104426	0.407135	0.100175
	C206	C	0.105013	0.593939	0.901450
	C207	C	0.905486	0.406576	0.901463
	C208	C	0.104109	0.900948	0.594932
	C209	C	0.104660	0.099691	0.407943
	C210	C	0.905998	0.099619	0.595407
	C211	C	0.905491	0.900271	0.407502
	C212	C	0.598638	0.100292	0.902667
	C213	C	0.411544	0.100299	0.100929
	C214	C	0.599843	0.901112	0.101099
	C215	C	0.411339	0.901976	0.902701
	Zn216	Zn	0.504550	0.000820	0.751608
	Zn217	Zn	0.505766	0.000627	0.251558
	Zn218	Zn	0.754940	0.500667	0.000730
	Zn219	Zn	0.255686	0.500347	0.001282
	Zn220	Zn	0.005668	0.750218	0.501174
	Zn221	Zn	0.005199	0.250173	0.501450
	Zn222	Zn	0.005203	0.500140	0.751211
	Zn223	Zn	0.006096	0.500749	0.250797
	Zn224	Zn	0.505846	0.750704	0.001585
	Zn225	Zn	0.505187	0.250886	0.002190
	Zn226	Zn	0.755248	-0.000068	0.501858
	Zn227	Zn	0.254795	-0.000157	0.501865
	N228	N	0.419074	0.963650	0.680144
	N229	N	0.590029	0.037774	0.679814
	N230	N	0.590632	0.963086	0.323500
	N231	N	0.419838	0.037439	0.323174
	N232	N	0.682066	0.416075	0.963920
	N233	N	0.683493	0.585834	0.038557
	N234	N	0.327592	0.585766	0.964127
	N235	N	0.327291	0.415813	0.039178
	N236	N	0.968470	0.678165	0.415872
	N237	N	0.042749	0.679427	0.587167
	N238	N	0.967735	0.321897	0.586670
	N239	N	0.042707	0.321459	0.415451
	N240	N	0.967602	0.414903	0.679583
	N241	N	0.042862	0.585652	0.679462
	N242	N	0.968615	0.585755	0.322448
	N243	N	0.043174	0.414691	0.322243
	N244	N	0.419873	0.679622	0.964398
	N245	N	0.591302	0.679306	0.038644
	N246	N	0.591083	0.321228	0.965012
	N247	N	0.419337	0.322006	0.039241
	N248	N	0.683645	0.962989	0.416224
	N249	N	0.683771	0.037021	0.587575
	N250	N	0.326622	0.962998	0.586933
	N251	N	0.326434	0.037122	0.416055
	N252	N	0.920064	0.463321	0.179555
	N253	N	0.091048	0.537988	0.179501
	N254	N	0.090984	0.462998	0.822625
	N255	N	0.919828	0.537503	0.822653
	N256	N	0.183134	0.914869	0.463888
	N257	N	0.183129	0.085140	0.539484
	N258	N	0.827218	0.085010	0.463880
	N259	N	0.827050	0.914681	0.538948
	N260	N	0.467579	0.179147	0.917041
	N261	N	0.542292	0.179876	0.088237
	N262	N	0.468722	0.822067	0.087257
	N263	N	0.542441	0.822702	0.916115
	N264	N	0.468486	0.915517	0.179609
	N265	N	0.542821	0.086223	0.180088
	N266	N	0.467509	0.087006	0.823074
	N267	N	0.542423	0.916080	0.823509
	N268	N	0.919330	0.178742	0.464291
	N269	N	0.091236	0.179294	0.538816
	N270	N	0.090570	0.822072	0.463699
	N271	N	0.919355	0.820827	0.538455
	N272	N	0.184595	0.463397	0.915116
	N273	N	0.183870	0.537816	0.086691
	N274	N	0.827137	0.463466	0.085929
	N275	N	0.826702	0.537296	0.914825
	O276	O	0.490499	0.410754	0.483558
	H277	H	0.498250	0.409625	0.478788
	H278	H	0.485872	0.404681	0.480062
	O279	O	0.063627	0.028733	0.008437
	H280	H	0.057659	0.024112	0.008667
	H281	H	0.074956	0.033303	0.012935
	O282	O	0.469367	0.434911	0.479423
	H283	H	0.470213	0.435552	0.460278
	H284	H	0.464036	0.445429	0.481898
	O285	O	0.460336	0.463677	0.557634
	H286	H	0.462028	0.458482	0.563047
	H287	H	0.447324	0.459564	0.563365
	O288	O	0.994706	0.026710	0.035639
	H289	H	0.999062	0.027976	0.031499
	H290	H	1.001241	0.021472	0.034210
	O291	O	-0.504025	0.490681	-0.453075
	H292	H	-0.496769	0.497524	-0.448541
	H293	H	-0.502846	0.484040	-0.441782
	O294	O	0.038169	1.023953	0.028085
	H295	H	0.033376	1.022661	0.023485
	H296	H	0.039908	1.018142	0.030864
	O297	O	0.036861	1.017781	0.024374
	H298	H	0.040325	1.021893	0.034823
	H299	H	0.037360	1.024433	0.016476
	O300	O	1.021130	0.036037	1.047981
	H301	H	1.022197	0.042073	1.048993
	H302	H	1.010666	0.028392	1.047890
	O303	O	0.478293	0.437255	0.502470
	H304	H	0.484399	0.431235	0.499744
	H305	H	0.476780	0.425743	0.496860
	O306	O	0.512775	1.448975	1.538630
	H307	H	0.508746	1.437362	1.540764
	H308	H	0.515911	1.446868	1.545492
	O309	O	0.495543	0.483599	0.484643
	H310	H	0.492460	0.488117	0.490814
	H311	H	0.495057	0.496608	0.486462
