data_Molecule from HDF5

_cell_length_a		16.480973
_cell_length_b		16.526573
_cell_length_c		16.518014
_cell_angle_alpha	89.917049
_cell_angle_beta	89.928714
_cell_angle_gamma	89.903207
_symmetry_space_group_name_H-M	'P 1'
_symmetry_Int_Tables_number		1

loop_
	_symmetry_equiv_pos_as_xyz
	x,y,z

loop_
	_atom_site_label
	_atom_site_type_symbol
	_atom_site_fract_x
	_atom_site_fract_y
	_atom_site_fract_z
	H0	H	0.386750	0.843199	0.727520
	H1	H	0.596520	0.157383	0.727810
	H2	H	0.595254	0.842517	0.286224
	H3	H	0.386432	0.157702	0.284347
	H4	H	0.711494	0.396129	0.847699
	H5	H	0.710828	0.601813	0.164518
	H6	H	0.271613	0.602916	0.848971
	H7	H	0.269303	0.393213	0.163421
	H8	H	0.832318	0.718351	0.404133
	H9	H	0.150955	0.717532	0.607862
	H10	H	0.833153	0.279986	0.609575
	H11	H	0.150179	0.278779	0.402038
	H12	H	0.833165	0.395858	0.725847
	H13	H	0.149963	0.602150	0.725046
	H14	H	0.832060	0.601505	0.288954
	H15	H	0.150218	0.395452	0.285576
	H16	H	0.386133	0.721106	0.849702
	H17	H	0.595468	0.719047	0.164574
	H18	H	0.594673	0.280530	0.847724
	H19	H	0.386292	0.276977	0.163623
	H20	H	0.711589	0.842786	0.402252
	H21	H	0.712228	0.157636	0.610458
	H22	H	0.272718	0.842086	0.608634
	H23	H	0.271083	0.158363	0.401464
	H24	H	0.888975	0.341281	0.225453
	H25	H	0.096271	0.657076	0.227075
	H26	H	0.100915	0.343264	0.781477
	H27	H	0.889149	0.657480	0.786730
	H28	H	0.211605	0.896249	0.347912
	H29	H	0.212896	0.105362	0.663815
	H30	H	0.770774	0.105024	0.348929
	H31	H	0.770312	0.896912	0.663049
	H32	H	0.334501	0.224003	0.900195
	H33	H	0.649941	0.218577	0.109675
	H34	H	0.333618	0.778394	0.112606
	H35	H	0.649673	0.780575	0.903526
	H36	H	0.333635	0.895839	0.227387
	H37	H	0.648878	0.103462	0.226675
	H38	H	0.333597	0.106968	0.785259
	H39	H	0.649361	0.898364	0.787498
	H40	H	0.884447	0.223554	0.350059
	H41	H	0.096460	0.221703	0.664104
	H42	H	0.096100	0.779288	0.348291
	H43	H	0.888265	0.781247	0.664377
	H44	H	0.215753	0.342900	0.899278
	H45	H	0.211937	0.656628	0.111119
	H46	H	0.773614	0.340250	0.107775
	H47	H	0.772628	0.657338	0.904090
	H48	H	0.399916	0.111529	0.591104
	H49	H	0.578263	0.888617	0.598256
	H50	H	0.580917	0.113685	0.415274
	H51	H	0.407154	0.890658	0.419260
	H52	H	0.582023	0.410818	0.118305
	H53	H	0.574633	0.591956	0.895562
	H54	H	0.398652	0.586986	0.120094
	H55	H	0.402935	0.416689	0.896311
	H56	H	0.108016	0.593490	0.410142
	H57	H	0.878598	0.585398	0.601537
	H58	H	0.101780	0.410906	0.587279
	H59	H	0.879464	0.414022	0.413577
	H60	H	0.102734	0.417056	0.596631
	H61	H	0.874874	0.597401	0.599580
	H62	H	0.103337	0.593896	0.421707
	H63	H	0.877680	0.406712	0.415066
	H64	H	0.404128	0.588660	0.118223
	H65	H	0.585964	0.594866	0.890275
	H66	H	0.580462	0.406686	0.119237
	H67	H	0.409420	0.411406	0.896530
	H68	H	0.578725	0.112570	0.415874
	H69	H	0.579898	0.889043	0.593578
	H70	H	0.399740	0.114738	0.598735
	H71	H	0.398269	0.888321	0.420822
	H72	H	0.900663	0.612103	0.096867
	H73	H	0.079404	0.386415	0.096925
	H74	H	0.078801	0.608761	0.920839
	H75	H	0.898356	0.385327	0.916556
	H76	H	0.080195	0.909417	0.617789
	H77	H	0.079331	0.088716	0.394881
	H78	H	0.899430	0.094219	0.621306
	H79	H	0.906238	0.907099	0.393445
	H80	H	0.601722	0.086994	0.920073
	H81	H	0.380210	0.087894	0.091976
	H82	H	0.606242	0.897370	0.090150
	H83	H	0.378726	0.911043	0.918643
	H84	H	0.598887	0.918891	0.088718
	H85	H	0.379415	0.087358	0.095420
	H86	H	0.605241	0.087507	0.909695
	H87	H	0.377894	0.911053	0.916280
	H88	H	0.898751	0.083640	0.618068
	H89	H	0.080103	0.091129	0.393782
	H90	H	0.082542	0.908208	0.619135
	H91	H	0.897305	0.907043	0.390933
	H92	H	0.083908	0.612185	0.917274
	H93	H	0.078035	0.388461	0.094320
	H94	H	0.898746	0.613221	0.097092
	H95	H	0.902794	0.385485	0.911906
	H96	H	0.406790	0.111991	0.595652
	H97	H	0.582790	0.887052	0.597070
	H98	H	0.581021	0.113034	0.417340
	H99	H	0.402216	0.886869	0.412303
	H100	H	0.584963	0.407680	0.121074
	H101	H	0.583622	0.583312	0.895619
	H102	H	0.400808	0.592725	0.121156
	H103	H	0.401529	0.409004	0.893399
	H104	H	0.103622	0.583262	0.415721
	H105	H	0.880499	0.590732	0.589859
	H106	H	0.105871	0.406411	0.596422
	H107	H	0.880438	0.411441	0.420657
	H108	H	0.899742	0.612986	0.098518
	H109	H	0.081756	0.388041	0.093501
	H110	H	0.077748	0.610674	0.913893
	H111	H	0.904291	0.387218	0.917468
	H112	H	0.082522	0.911250	0.618442
	H113	H	0.081548	0.089137	0.394289
	H114	H	0.907789	0.089290	0.616512
	H115	H	0.901065	0.914745	0.393787
	H116	H	0.605889	0.096306	0.916239
	H117	H	0.378366	0.090320	0.094190
	H118	H	0.607598	0.910903	0.108334
	H119	H	0.377229	0.909186	0.918016
	C120	C	0.369908	0.008958	0.627284
	C121	C	0.612236	0.992508	0.627451
	C122	C	0.612150	0.009130	0.384488
	C123	C	0.370094	0.992228	0.384777
	C124	C	0.613925	0.377355	0.014832
	C125	C	0.612729	0.620442	0.998428
	C126	C	0.369471	0.621315	0.015333
	C127	C	0.371215	0.378938	0.998814
	C128	C	-0.000212	0.620908	0.385122
	C129	C	0.982936	0.621557	0.627511
	C130	C	-0.000416	0.379147	0.626220
	C131	C	0.983586	0.378192	0.384519
	C132	C	0.869700	0.507863	0.127903
	C133	C	0.112371	0.491330	0.127423
	C134	C	0.113449	0.507094	0.884514
	C135	C	0.870503	0.490822	0.884604
	C136	C	0.112981	0.878548	0.514130
	C137	C	0.112537	0.121495	0.498499
	C138	C	0.870037	0.121454	0.514613
	C139	C	0.869691	0.878391	0.496983
	C140	C	0.500209	0.122967	0.883761
	C141	C	0.483595	0.120048	0.126137
	C142	C	0.499937	0.877690	0.127992
	C143	C	0.482556	0.878859	0.885798
	C144	C	0.368179	0.890407	0.687276
	C145	C	0.614406	0.110559	0.687209
	C146	C	0.613703	0.890098	0.325503
	C147	C	0.367909	0.110635	0.324492
	C148	C	0.672450	0.376953	0.895353
	C149	C	0.671250	0.620622	0.117207
	C150	C	0.310518	0.622447	0.896699
	C151	C	0.309766	0.375150	0.116515
	C152	C	0.880091	0.679171	0.384942
	C153	C	0.102879	0.678792	0.627265
	C154	C	0.880480	0.319782	0.628132
	C155	C	0.102609	0.318676	0.383109
	C156	C	0.880632	0.377411	0.685938
	C157	C	0.102586	0.621352	0.685601
	C158	C	0.879941	0.620799	0.327774
	C159	C	0.102719	0.376761	0.325325
	C160	C	0.367722	0.680904	0.896872
	C161	C	0.613758	0.678978	0.117278
	C162	C	0.614239	0.319566	0.895351
	C163	C	0.367971	0.317502	0.116553
	C164	C	0.671815	0.890270	0.383026
	C165	C	0.672082	0.110765	0.629004
	C166	C	0.311542	0.889776	0.628075
	C167	C	0.310491	0.110901	0.382764
	C168	C	0.869545	0.388620	0.186159
	C169	C	0.114654	0.609739	0.187271
	C170	C	0.117650	0.389812	0.822832
	C171	C	0.869782	0.609992	0.826196
	C172	C	0.172267	0.877342	0.395352
	C173	C	0.172666	0.123493	0.616747
	C174	C	0.810350	0.123572	0.396054
	C175	C	0.810300	0.877742	0.615908
	C176	C	0.381647	0.183712	0.881833
	C177	C	0.602613	0.178864	0.128036
	C178	C	0.381067	0.818417	0.130396
	C179	C	0.602009	0.820292	0.884358
	C180	C	0.380906	0.876773	0.187529
	C181	C	0.602133	0.121605	0.186135
	C182	C	0.381155	0.125471	0.824674
	C183	C	0.601872	0.878775	0.826977
	C184	C	0.866955	0.182493	0.396818
	C185	C	0.114823	0.181400	0.616812
	C186	C	0.114832	0.819128	0.395542
	C187	C	0.868676	0.820112	0.616422
	C188	C	0.175013	0.389564	0.881257
	C189	C	0.172345	0.609514	0.129553
	C190	C	0.812375	0.388055	0.127662
	C191	C	0.811785	0.609902	0.884246
	C192	C	0.394839	0.091355	0.602464
	C193	C	0.587478	0.909858	0.603112
	C194	C	0.587455	0.091470	0.408990
	C195	C	0.395434	0.910015	0.410124
	C196	C	0.589469	0.401384	0.097950
	C197	C	0.588276	0.596764	0.915330
	C198	C	0.394150	0.596805	0.098212
	C199	C	0.397098	0.405009	0.916921
	C200	C	0.083272	0.597078	0.408930
	C201	C	0.899580	0.598151	0.603793
	C202	C	0.081973	0.404206	0.600702
	C203	C	0.900611	0.403423	0.409229
	C204	C	0.892935	0.590929	0.104196
	C205	C	0.086987	0.409007	0.102265
	C206	C	0.087469	0.589200	0.909903
	C207	C	0.894762	0.407596	0.908462
	C208	C	0.088542	0.902756	0.597094
	C209	C	0.087537	0.096871	0.415887
	C210	C	0.894905	0.096216	0.597234
	C211	C	0.894454	0.902657	0.414234
	C212	C	0.582688	0.097645	0.908275
	C213	C	0.400914	0.095640	0.101134
	C214	C	0.582695	0.901974	0.102900
	C215	C	0.399623	0.903275	0.910702
	Zn216	Zn	0.490329	0.000581	0.756733
	Zn217	Zn	0.491482	0.000251	0.255705
	Zn218	Zn	0.741373	0.499092	0.005960
	Zn219	Zn	0.241297	0.499204	0.006390
	Zn220	Zn	-0.008388	0.749999	0.505955
	Zn221	Zn	-0.008621	0.250077	0.506134
	Zn222	Zn	-0.007781	0.499304	0.755598
	Zn223	Zn	-0.008591	0.499761	0.256306
	Zn224	Zn	0.491406	0.749548	0.007054
	Zn225	Zn	0.491728	0.249608	0.006504
	Zn226	Zn	0.741009	0.001025	0.506102
	Zn227	Zn	0.241253	0.000170	0.505762
	N228	N	0.403320	0.965604	0.687254
	N229	N	0.577700	0.036053	0.686276
	N230	N	0.577747	0.965132	0.326029
	N231	N	0.403879	0.035790	0.325252
	N232	N	0.672298	0.412029	0.970684
	N233	N	0.670795	0.585005	0.042074
	N234	N	0.311673	0.586107	0.971508
	N235	N	0.311610	0.412545	0.042231
	N236	N	0.955877	0.679606	0.419667
	N237	N	0.027440	0.679301	0.592178
	N238	N	0.955551	0.320577	0.591936
	N239	N	0.027405	0.319494	0.419185
	N240	N	0.955660	0.413543	0.685048
	N241	N	0.026983	0.586550	0.685973
	N242	N	0.955485	0.585550	0.327524
	N243	N	0.027529	0.412805	0.326024
	N244	N	0.403426	0.680626	0.971911
	N245	N	0.577988	0.679040	0.042276
	N246	N	0.578719	0.319503	0.970739
	N247	N	0.405522	0.319670	0.042469
	N248	N	0.671282	0.965175	0.419050
	N249	N	0.670756	0.036158	0.592518
	N250	N	0.312467	0.964494	0.591490
	N251	N	0.311595	0.036286	0.419489
	N252	N	0.904192	0.464062	0.186733
	N253	N	0.077848	0.535291	0.185977
	N254	N	0.080064	0.463990	0.824776
	N255	N	0.905131	0.534636	0.826064
	N256	N	0.171255	0.913642	0.470192
	N257	N	0.171621	0.087154	0.541939
	N258	N	0.812120	0.086272	0.470376
	N259	N	0.810341	0.912937	0.540520
	N260	N	0.456573	0.182338	0.917730
	N261	N	0.527994	0.177883	0.091109
	N262	N	0.456263	0.818616	0.094387
	N263	N	0.526649	0.820001	0.919951
	N264	N	0.455787	0.913033	0.186179
	N265	N	0.527203	0.085531	0.184716
	N266	N	0.455782	0.088257	0.825827
	N267	N	0.526443	0.914346	0.827498
	N268	N	0.903440	0.181133	0.471410
	N269	N	0.078250	0.180379	0.542160
	N270	N	0.078466	0.820017	0.470368
	N271	N	0.904795	0.820313	0.541387
	N272	N	0.172442	0.463456	0.918874
	N273	N	0.171246	0.534813	0.093193
	N274	N	0.812090	0.463245	0.092104
	N275	N	0.811925	0.534578	0.919528
	O276	O	0.575594	0.654759	0.409254
	H277	H	0.570690	0.648089	0.405445
	H278	H	0.569881	0.636237	0.408294
	O279	O	0.406774	0.455723	0.681344
	H280	H	0.418529	0.447201	0.682377
	H281	H	0.430747	0.461001	0.672053
	O282	O	1.189782	0.815304	0.077393
	H283	H	1.201477	0.811470	0.086282
	H284	H	1.184654	0.804127	0.067132
	O285	O	0.541601	0.596239	0.676150
	H286	H	0.555912	0.595783	0.675054
	H287	H	0.550118	0.596713	0.688356
	O288	O	-0.005106	-0.195532	0.029152
	H289	H	0.003895	-0.203261	0.041372
	H290	H	-0.009833	-0.200612	0.047715
	O291	O	0.977772	0.867308	-0.164293
	H292	H	0.976512	0.865757	-0.163783
	H293	H	0.988706	0.857741	-0.170365
	O294	O	-0.199223	1.194558	0.017420
	H295	H	-0.200705	1.205892	0.026186
	H296	H	-0.212755	1.202667	-0.001009
	O297	O	0.578325	0.304025	0.589878
	H298	H	0.594521	0.316388	0.586081
	H299	H	0.568650	0.299420	0.578050
	O300	O	0.426097	0.480853	0.636072
	H301	H	0.420099	0.477994	0.638673
	H302	H	0.425680	0.481038	0.625874
	O303	O	0.379927	0.641988	0.433869
	H304	H	0.400628	0.643770	0.442388
	H305	H	0.352257	0.638902	0.433658
	O306	O	-0.034430	0.835180	0.912014
	H307	H	-0.033788	0.821363	0.911508
	H308	H	-0.017050	0.834531	0.927568
	O309	O	0.573051	0.523860	0.367758
	H310	H	0.559155	0.516549	0.374310
	H311	H	0.564064	0.511206	0.382781
	O312	O	0.468789	0.711482	0.547286
	H313	H	0.481115	0.712008	0.557867
	H314	H	0.481273	0.707307	0.549607
	O315	O	-0.201325	0.191346	0.810510
	H316	H	-0.199050	0.190992	0.833119
	H317	H	-0.183530	0.177903	0.800733
	O318	O	0.071368	1.211267	-0.047327
	H319	H	0.079284	1.218234	-0.048195
	H320	H	0.079679	1.207374	-0.039224
	O321	O	0.671710	0.494469	0.470935
	H322	H	0.678795	0.492347	0.482520
	H323	H	0.675114	0.474199	0.465961
	O324	O	1.320396	0.666840	1.662159
	H325	H	1.340285	0.656046	1.662305
	H326	H	1.336452	0.662008	1.639543
	O327	O	0.887067	0.112099	1.158701
	H328	H	0.895284	0.112368	1.146541
	H329	H	0.896265	0.110627	1.151651
	O330	O	1.142538	0.139378	0.013806
	H331	H	1.134312	0.129974	0.026345
	H332	H	1.142042	0.143990	0.017936
	O333	O	1.203078	1.031099	1.214911
	H334	H	1.223826	1.014464	1.236571
	H335	H	1.195277	1.010607	1.202893
	O336	O	1.054824	0.209385	1.219875
	H337	H	1.074029	0.216271	1.236112
	H338	H	1.067397	0.222001	1.221021
	O339	O	0.331172	0.389428	0.449521
	H340	H	0.339274	0.391992	0.474095
	H341	H	0.305377	0.372559	0.459568
	O342	O	0.786508	-0.003280	0.022679
	H343	H	0.782739	-0.012548	0.015109
	H344	H	0.788509	0.011488	0.024607
	O345	O	0.158990	0.157481	0.201935
	H346	H	0.172253	0.163417	0.168896
	H347	H	0.162430	0.107636	0.206998
	O348	O	0.981844	0.214936	1.008408
	H349	H	0.964715	0.222895	1.008320
	H350	H	0.981390	0.204726	0.995725
	O351	O	0.964759	0.782454	0.223429
	H352	H	0.943721	0.763075	0.247479
	H353	H	0.940596	0.788619	0.228046
	O354	O	0.338434	0.500036	0.459355
	H355	H	0.341439	0.499329	0.446354
	H356	H	0.334776	0.482535	0.454014
	O357	O	0.825130	1.005210	0.816546
	H358	H	0.818397	1.012981	0.819106
	H359	H	0.849256	1.006539	0.812146
	O360	O	0.290387	0.381700	0.708675
	H361	H	0.322115	0.362997	0.702809
	H362	H	0.275327	0.406320	0.723364
	O363	O	0.493208	0.325525	0.350707
	H364	H	0.474468	0.323326	0.372175
	H365	H	0.480750	0.317492	0.333629
	O366	O	0.780760	0.795509	0.036501
	H367	H	0.782983	0.791118	0.043755
	H368	H	0.766691	0.789883	0.045328
	O369	O	0.548770	0.387828	0.614954
	H370	H	0.557037	0.377085	0.606882
	H371	H	0.548012	0.388867	0.610957
	O372	O	0.590155	0.509209	0.347903
	H373	H	0.608946	0.504555	0.330599
	H374	H	0.569204	0.494482	0.348682
	O375	O	0.060912	0.963719	1.119199
	H376	H	0.057110	0.951827	1.113949
	H377	H	0.060022	0.960795	1.099929
	O378	O	0.975411	0.177517	-0.156721
	H379	H	0.981172	0.183602	-0.168481
	H380	H	0.966942	0.173872	-0.151529
	O381	O	0.321579	0.320421	-0.562913
	H382	H	0.324173	0.326966	-0.559142
	H383	H	0.291715	0.314417	-0.569171
	O384	O	0.170028	-1.161810	0.829058
	H385	H	0.160752	-1.161988	0.844156
	H386	H	0.172491	-1.175626	0.814058
	O387	O	0.208452	0.943749	0.786403
	H388	H	0.227572	0.934959	0.772285
	H389	H	0.212427	0.912549	0.783500
	O390	O	-0.085124	0.001668	0.898785
	H391	H	-0.088733	0.003109	0.891384
	H392	H	-0.080565	-0.002149	0.907966
	O393	O	0.938835	1.009042	0.041600
	H394	H	0.938776	1.007080	0.037875
	H395	H	0.950553	1.026054	0.041727
	O396	O	0.408287	0.705298	0.362049
	H397	H	0.418115	0.726167	0.343232
	H398	H	0.422778	0.668103	0.368287
	O399	O	0.277768	0.524626	0.302821
	H400	H	0.259520	0.547434	0.292116
	H401	H	0.271194	0.555282	0.302886
	O402	O	0.058117	0.086739	0.824996
	H403	H	0.058861	0.061462	0.815388
	H404	H	0.073443	0.099528	0.827827
	O405	O	-0.204566	-0.192967	0.204894
	H406	H	-0.215317	-0.153373	0.215637
	H407	H	-0.219809	-0.198190	0.202364
	O408	O	0.638378	0.501902	0.570833
	H409	H	0.657665	0.483703	0.590010
	H410	H	0.639295	0.499774	0.567213
	O411	O	0.294463	0.694875	0.317627
	H412	H	0.296502	0.699686	0.355159
	H413	H	0.317545	0.707272	0.314123
	O414	O	0.647198	0.673149	0.530620
	H415	H	0.643418	0.671023	0.514532
	H416	H	0.638833	0.694554	0.525450
	O417	O	0.564772	0.459881	0.392764
	H418	H	0.562539	0.450703	0.406418
	H419	H	0.567678	0.462384	0.399092
	O420	O	0.794703	0.966006	1.217684
	H421	H	0.810983	0.996369	1.215422
	H422	H	0.782148	0.976080	1.233418
	O423	O	0.001311	1.047399	0.172801
	H424	H	0.005873	1.062614	0.163150
	H425	H	0.016328	1.038616	0.176227
	O426	O	0.806652	0.812994	0.829901
	H427	H	0.819207	0.831960	0.844541
	H428	H	0.828837	0.812267	0.839669
	O429	O	0.408472	0.301289	0.697774
	H430	H	0.428124	0.288282	0.704054
	H431	H	0.418822	0.289904	0.690079
	O432	O	0.598593	0.528272	0.422615
	H433	H	0.606451	0.530761	0.425538
	H434	H	0.603600	0.531956	0.415245
	O435	O	-0.125807	0.059928	-0.031255
	H436	H	-0.131501	0.069785	-0.022628
	H437	H	-0.124326	0.036200	-0.031338
	O438	O	1.147543	-0.127762	0.114623
	H439	H	1.152537	-0.110933	0.099135
	H440	H	1.120960	-0.129628	0.122354
	O441	O	0.675491	0.296429	0.493076
	H442	H	0.665609	0.296871	0.469710
	H443	H	0.687743	0.288977	0.488095
	O444	O	0.095845	1.048425	0.888661
	H445	H	0.092217	1.038352	0.881274
	H446	H	0.119716	1.053022	0.890311
	O447	O	0.692863	0.703125	0.685800
	H448	H	0.707588	0.733255	0.707120
	H449	H	0.694011	0.708339	0.651597
	O450	O	0.371648	0.421958	0.374565
	H451	H	0.356770	0.432294	0.364253
	H452	H	0.360514	0.426364	0.386552
	O453	O	0.666781	0.537955	0.728107
	H454	H	0.699517	0.537852	0.754106
	H455	H	0.662768	0.586951	0.722584
	O456	O	1.185970	0.001838	-0.084332
	H457	H	1.181438	0.014303	-0.084514
	H458	H	1.188024	-0.009399	-0.101227
	O459	O	0.505568	0.651310	0.684629
	H460	H	0.499918	0.623407	0.697163
	H461	H	0.524219	0.672424	0.700263
	O462	O	0.685894	0.296742	0.310368
	H463	H	0.664933	0.290376	0.306547
	H464	H	0.695426	0.303276	0.305079
	O465	O	1.090155	-0.139783	-0.030784
	H466	H	1.086766	-0.132816	-0.023195
	H467	H	1.103466	-0.141599	-0.019131
