data_Molecule from HDF5

_cell_length_a		16.501265
_cell_length_b		16.165879
_cell_length_c		16.219915
_cell_angle_alpha	89.908448
_cell_angle_beta	89.812339
_cell_angle_gamma	89.586072
_symmetry_space_group_name_H-M	'P 1'
_symmetry_Int_Tables_number		1

loop_
	_symmetry_equiv_pos_as_xyz
	x,y,z

loop_
	_atom_site_label
	_atom_site_type_symbol
	_atom_site_fract_x
	_atom_site_fract_y
	_atom_site_fract_z
	H0	H	0.404138	0.837683	0.703707
	H1	H	0.596693	0.166930	0.703557
	H2	H	0.601304	0.837910	0.276830
	H3	H	0.404608	0.168210	0.277166
	H4	H	0.721371	0.397966	0.827341
	H5	H	0.719097	0.604999	0.152407
	H6	H	0.283638	0.605144	0.827169
	H7	H	0.284972	0.397955	0.151345
	H8	H	0.840469	0.720663	0.392363
	H9	H	0.163848	0.718643	0.590094
	H10	H	0.840158	0.287725	0.591029
	H11	H	0.163021	0.285477	0.391549
	H12	H	0.841393	0.402963	0.708590
	H13	H	0.163994	0.600767	0.706347
	H14	H	0.840507	0.605640	0.273219
	H15	H	0.163077	0.400919	0.273633
	H16	H	0.403444	0.716930	0.825677
	H17	H	0.598834	0.716260	0.153854
	H18	H	0.599705	0.289410	0.824601
	H19	H	0.406239	0.290131	0.154160
	H20	H	0.721757	0.840574	0.387426
	H21	H	0.715667	0.167330	0.591706
	H22	H	0.284544	0.840325	0.592703
	H23	H	0.282911	0.165420	0.386152
	H24	H	0.906231	0.337307	0.205116
	H25	H	0.099389	0.666238	0.203807
	H26	H	0.102164	0.336390	0.775733
	H27	H	0.902816	0.665925	0.775571
	H28	H	0.220027	0.899828	0.327529
	H29	H	0.219159	0.107183	0.652054
	H30	H	0.783331	0.107842	0.327893
	H31	H	0.784802	0.901906	0.653396
	H32	H	0.339783	0.221177	0.889854
	H33	H	0.663303	0.217115	0.087975
	H34	H	0.340351	0.786806	0.091978
	H35	H	0.661625	0.783619	0.888284
	H36	H	0.341242	0.903179	0.208509
	H37	H	0.663049	0.102052	0.206466
	H38	H	0.340715	0.105429	0.772356
	H39	H	0.662534	0.901321	0.773709
	H40	H	0.904815	0.217786	0.326426
	H41	H	0.095907	0.214202	0.655517
	H42	H	0.100977	0.788717	0.326142
	H43	H	0.903885	0.789668	0.655094
	H44	H	0.221770	0.338943	0.886517
	H45	H	0.219496	0.663523	0.093898
	H46	H	0.785670	0.338330	0.093278
	H47	H	0.782194	0.663816	0.885417
	H48	H	0.412920	0.120042	0.586201
	H49	H	0.600427	0.885348	0.579335
	H50	H	0.597796	0.121873	0.396042
	H51	H	0.417756	0.890259	0.404307
	H52	H	0.600148	0.410995	0.107353
	H53	H	0.590848	0.594828	0.873969
	H54	H	0.402670	0.586644	0.106105
	H55	H	0.413149	0.407192	0.870996
	H56	H	0.115971	0.599341	0.402065
	H57	H	0.889134	0.590653	0.586000
	H58	H	0.116690	0.410815	0.587739
	H59	H	0.892006	0.417514	0.405878
	H60	H	0.118190	0.403686	0.583159
	H61	H	0.887118	0.599669	0.586288
	H62	H	0.114296	0.589053	0.395967
	H63	H	0.885955	0.416090	0.388607
	H64	H	0.415598	0.591990	0.103138
	H65	H	0.598183	0.592033	0.872879
	H66	H	0.593362	0.413457	0.104609
	H67	H	0.404129	0.413014	0.872054
	H68	H	0.588757	0.118818	0.396542
	H69	H	0.594657	0.885160	0.584622
	H70	H	0.411081	0.117030	0.573402
	H71	H	0.403199	0.885614	0.404823
	H72	H	0.905243	0.618989	0.079726
	H73	H	0.100672	0.380304	0.090948
	H74	H	0.097078	0.614160	0.914178
	H75	H	0.908430	0.382761	0.893857
	H76	H	0.103508	0.910318	0.609408
	H77	H	0.095469	0.087209	0.375473
	H78	H	0.910682	0.097517	0.606775
	H79	H	0.902270	0.914379	0.372506
	H80	H	0.612108	0.092578	0.903817
	H81	H	0.384728	0.098416	0.091278
	H82	H	0.617677	0.907754	0.087892
	H83	H	0.384362	0.904215	0.896644
	H84	H	0.615837	0.905001	0.076661
	H85	H	0.387387	0.101703	0.077321
	H86	H	0.615359	0.088178	0.890379
	H87	H	0.388924	0.912780	0.902698
	H88	H	0.903164	0.095054	0.608896
	H89	H	0.088140	0.096257	0.375095
	H90	H	0.093175	0.920854	0.603467
	H91	H	0.914413	0.921060	0.377666
	H92	H	0.102548	0.623325	0.891142
	H93	H	0.086028	0.387563	0.082199
	H94	H	0.908842	0.619316	0.083444
	H95	H	0.920340	0.388868	0.901599
	H96	H	0.401137	0.122012	0.580929
	H97	H	0.593554	0.887600	0.577757
	H98	H	0.594591	0.118617	0.404390
	H99	H	0.410656	0.884033	0.391819
	H100	H	0.593669	0.406276	0.106904
	H101	H	0.592460	0.586649	0.876425
	H102	H	0.405183	0.600077	0.108876
	H103	H	0.413624	0.417361	0.875165
	H104	H	0.118975	0.598601	0.390355
	H105	H	0.889956	0.595739	0.578503
	H106	H	0.114322	0.410523	0.579116
	H107	H	0.885059	0.402139	0.399860
	H108	H	0.910253	0.616932	0.078684
	H109	H	0.101979	0.384457	0.073166
	H110	H	0.080362	0.614499	0.895002
	H111	H	0.907308	0.386772	0.908438
	H112	H	0.088546	0.905725	0.606729
	H113	H	0.098445	0.097188	0.371490
	H114	H	0.908025	0.089984	0.604455
	H115	H	0.914723	0.906645	0.373767
	H116	H	0.618304	0.102378	0.893945
	H117	H	0.390903	0.088494	0.081744
	H118	H	0.613880	0.916065	0.081099
	H119	H	0.386032	0.914396	0.891164
	C120	C	0.379731	0.011619	0.610854
	C121	C	0.623378	0.994253	0.610657
	C122	C	0.623751	0.011597	0.368883
	C123	C	0.380739	0.994642	0.369543
	C124	C	0.624681	0.380222	-0.001882
	C125	C	0.623023	0.622232	0.981919
	C126	C	0.379092	0.623524	-0.001607
	C127	C	0.381365	0.381995	0.980729
	C128	C	0.009920	0.625918	0.367219
	C129	C	0.994643	0.624769	0.612850
	C130	C	0.010090	0.379787	0.613272
	C131	C	0.993971	0.381166	0.368794
	C132	C	0.880073	0.510286	0.111200
	C133	C	0.123777	0.492732	0.111205
	C134	C	0.123611	0.509652	0.869145
	C135	C	0.881107	0.493317	0.869744
	C136	C	0.124178	0.881874	0.498796
	C137	C	0.122364	0.123410	0.481917
	C138	C	0.878519	0.125255	0.498920
	C139	C	0.880805	0.883442	0.482368
	C140	C	0.509219	0.125230	0.867279
	C141	C	0.493925	0.125002	0.111982
	C142	C	0.509632	0.880268	0.112416
	C143	C	0.492732	0.879879	0.867205
	C144	C	0.383109	0.887445	0.666430
	C145	C	0.618757	0.117899	0.666507
	C146	C	0.622388	0.887689	0.313468
	C147	C	0.383382	0.118566	0.314183
	C148	C	0.681850	0.379722	0.875728
	C149	C	0.679801	0.623156	0.103922
	C150	C	0.322657	0.623808	0.875673
	C151	C	0.324521	0.380385	0.103357
	C152	C	0.888762	0.682606	0.370808
	C153	C	0.115637	0.680490	0.610570
	C154	C	0.888549	0.325163	0.611495
	C155	C	0.114919	0.324024	0.370894
	C156	C	0.889281	0.382046	0.670319
	C157	C	0.115624	0.622080	0.668695
	C158	C	0.889068	0.625404	0.311332
	C159	C	0.115024	0.381647	0.312512
	C160	C	0.382167	0.679415	0.874928
	C161	C	0.620036	0.678757	0.104722
	C162	C	0.621420	0.325667	0.874228
	C163	C	0.384606	0.326504	0.104434
	C164	C	0.682042	0.889059	0.368617
	C165	C	0.677528	0.118167	0.610588
	C166	C	0.323828	0.888646	0.611126
	C167	C	0.323000	0.117213	0.368545
	C168	C	0.884204	0.386447	0.167428
	C169	C	0.120588	0.616615	0.166540
	C170	C	0.122133	0.385918	0.813434
	C171	C	0.882426	0.616844	0.813309
	C172	C	0.181183	0.881284	0.376100
	C173	C	0.179686	0.124651	0.603974
	C174	C	0.822128	0.126437	0.376495
	C175	C	0.824131	0.882976	0.605074
	C176	C	0.388294	0.182772	0.869361
	C177	C	0.615093	0.179668	0.108976
	C178	C	0.388843	0.824546	0.111781
	C179	C	0.613662	0.822918	0.868877
	C180	C	0.389097	0.882686	0.169664
	C181	C	0.614792	0.122441	0.168127
	C182	C	0.388655	0.125295	0.810652
	C183	C	0.614124	0.881598	0.811698
	C184	C	0.882442	0.180968	0.375599
	C185	C	0.118367	0.178077	0.605791
	C186	C	0.121860	0.826111	0.375365
	C187	C	0.883150	0.826970	0.605777
	C188	C	0.181859	0.387175	0.868325
	C189	C	0.179854	0.615492	0.111468
	C190	C	0.824544	0.387150	0.111886
	C191	C	0.822436	0.615592	0.868047
	C192	C	0.401852	0.097441	0.587122
	C193	C	0.602536	0.908405	0.587292
	C194	C	0.600531	0.097389	0.392270
	C195	C	0.403742	0.908710	0.393310
	C196	C	0.602304	0.403320	0.083954
	C197	C	0.600389	0.598250	0.896492
	C198	C	0.401279	0.599789	0.084002
	C199	C	0.403729	0.405700	0.895089
	C200	C	0.094461	0.602415	0.389613
	C201	C	0.910397	0.602202	0.590081
	C202	C	0.094425	0.401877	0.590114
	C203	C	0.909590	0.405045	0.391592
	C204	C	0.901653	0.596190	0.087415
	C205	C	0.102619	0.406482	0.088613
	C206	C	0.100028	0.595218	0.893093
	C207	C	0.905086	0.408091	0.894137
	C208	C	0.101601	0.905322	0.584242
	C209	C	0.100462	0.100246	0.396351
	C210	C	0.900751	0.101077	0.584734
	C211	C	0.903684	0.907055	0.396804
	C212	C	0.593415	0.101355	0.889507
	C213	C	0.409473	0.102711	0.089857
	C214	C	0.593848	0.903023	0.088631
	C215	C	0.408333	0.903573	0.890195
	Zn216	Zn	0.500733	0.002050	0.738193
	Zn217	Zn	0.501968	0.002314	0.241871
	Zn218	Zn	0.752028	0.501549	-0.009924
	Zn219	Zn	0.251747	0.501302	-0.009960
	Zn220	Zn	0.002300	0.754777	0.490595
	Zn221	Zn	0.001330	0.251350	0.490440
	Zn222	Zn	0.002679	0.501599	0.742075
	Zn223	Zn	0.002064	0.502246	0.238514
	Zn224	Zn	0.500995	0.751027	-0.010386
	Zn225	Zn	0.502131	0.254441	-0.010857
	Zn226	Zn	0.751676	0.003997	0.490250
	Zn227	Zn	0.251801	0.003213	0.489994
	N228	N	0.417123	0.964964	0.666389
	N229	N	0.585648	0.039993	0.666718
	N230	N	0.586823	0.964949	0.313553
	N231	N	0.418510	0.041191	0.314600
	N232	N	0.684038	0.412913	0.953746
	N233	N	0.681593	0.588866	0.026519
	N234	N	0.320364	0.590000	0.953638
	N235	N	0.322366	0.414230	0.025457
	N236	N	0.965055	0.683217	0.404671
	N237	N	0.039234	0.682348	0.576651
	N238	N	0.964605	0.323462	0.576818
	N239	N	0.038631	0.323690	0.405164
	N240	N	0.965769	0.415357	0.671271
	N241	N	0.039458	0.588325	0.670303
	N242	N	0.965472	0.590874	0.309192
	N243	N	0.038873	0.416640	0.311225
	N244	N	0.416271	0.679550	0.952072
	N245	N	0.585323	0.678251	0.027708
	N246	N	0.586608	0.325902	0.951415
	N247	N	0.419401	0.327608	0.027268
	N248	N	0.683045	0.967157	0.402250
	N249	N	0.680529	0.040328	0.576670
	N250	N	0.321486	0.966672	0.577433
	N251	N	0.321307	0.039120	0.402322
	N252	N	0.917864	0.464047	0.167339
	N253	N	0.086359	0.539420	0.166436
	N254	N	0.086800	0.463227	0.813788
	N255	N	0.918385	0.539826	0.814253
	N256	N	0.182795	0.915229	0.453957
	N257	N	0.181986	0.091215	0.525992
	N258	N	0.819768	0.092675	0.454365
	N259	N	0.822339	0.916953	0.527376
	N260	N	0.464333	0.182828	0.903766
	N261	N	0.539085	0.181377	0.074907
	N262	N	0.464927	0.822886	0.076798
	N263	N	0.537238	0.822052	0.902732
	N264	N	0.465212	0.916407	0.170224
	N265	N	0.538302	0.089175	0.170247
	N266	N	0.464598	0.089951	0.809280
	N267	N	0.537798	0.916452	0.810633
	N268	N	0.916568	0.180563	0.452826
	N269	N	0.083707	0.177715	0.528874
	N270	N	0.086963	0.826315	0.452343
	N271	N	0.917982	0.827296	0.528337
	N272	N	0.183001	0.465193	0.902180
	N273	N	0.182168	0.537404	0.077860
	N274	N	0.821749	0.465187	0.077962
	N275	N	0.821840	0.537963	0.902643
	O276	O	1.021324	-0.083280	0.894856
	H277	H	1.011243	-0.087214	0.889243
	H278	H	1.007335	-0.063183	0.906777
	O279	O	0.491750	0.512912	0.562835
	H280	H	0.491950	0.514068	0.562738
	H281	H	0.502178	0.522505	0.560930
	O282	O	0.561118	0.453833	0.373528
	H283	H	0.553218	0.454965	0.371634
	H284	H	0.561408	0.447647	0.364571
	O285	O	0.461590	0.463668	0.379482
	H286	H	0.452159	0.479211	0.382024
	H287	H	0.459283	0.470950	0.386695
	O288	O	0.560692	0.599649	0.614429
	H289	H	0.568330	0.603280	0.619185
	H290	H	0.562441	0.592208	0.626767
	O291	O	0.090481	-0.091941	0.932917
	H292	H	0.109736	-0.114307	0.921718
	H293	H	0.083546	-0.095902	0.928789
	O294	O	0.973643	0.958144	0.056349
	H295	H	0.970593	0.951460	0.053324
	H296	H	0.984334	0.948448	0.051363
	O297	O	0.995931	0.959458	0.095653
	H298	H	0.995049	0.969686	0.105962
	H299	H	0.996247	0.943041	0.112086
	O300	O	0.469285	0.524138	0.507005
	H301	H	0.480848	0.534780	0.505458
	H302	H	0.464442	0.520652	0.511840
	O303	O	0.499080	0.515970	0.424892
	H304	H	0.501509	0.513307	0.423776
	H305	H	0.500740	0.523119	0.425877
	O306	O	0.044411	0.927588	0.897605
	H307	H	0.038329	0.919032	0.895501
	H308	H	0.037689	0.923708	0.893573
	O309	O	0.492273	0.569465	0.485229
	H310	H	0.487910	0.565149	0.488297
	H311	H	0.500231	0.563622	0.491946
	O312	O	0.917795	1.069210	0.935897
	H313	H	0.908643	1.066453	0.929547
	H314	H	0.932695	1.064880	0.927530
	O315	O	1.094502	0.836235	-0.077049
	H316	H	1.092429	0.839358	-0.096423
	H317	H	1.090896	0.825098	-0.077572
	O318	O	1.016093	0.007089	1.010987
	H319	H	1.015594	0.007318	1.019852
	H320	H	1.026224	0.004140	1.019012
	O321	O	0.534744	0.443586	0.477329
	H322	H	0.532263	0.450969	0.461995
	H323	H	0.541706	0.455555	0.469160
	O324	O	0.099949	0.968454	0.992130
	H325	H	0.106669	0.978679	0.996202
	H326	H	0.100751	0.964595	0.987427
	O327	O	0.087752	1.114576	1.076033
	H328	H	0.091800	1.108809	1.069704
	H329	H	0.097521	1.112554	1.077621
	O330	O	-0.545460	-0.527000	-0.479930
	H331	H	-0.550569	-0.526268	-0.490188
	H332	H	-0.540810	-0.535443	-0.494764
	O333	O	0.415652	0.480906	0.547172
	H334	H	0.416379	0.469397	0.549872
	H335	H	0.408049	0.475077	0.560839
	O336	O	-0.086405	0.106912	-0.088065
	H337	H	-0.083423	0.105770	-0.090535
	H338	H	-0.084022	0.108819	-0.082084
	O339	O	-0.046056	-0.119952	-0.025156
	H340	H	-0.045365	-0.132169	-0.016766
	H341	H	-0.045261	-0.112382	-0.020034
	O342	O	0.928752	0.168125	0.949430
	H343	H	0.926545	0.174295	0.930739
	H344	H	0.924592	0.170504	0.952752
	O345	O	0.148114	1.022085	0.955476
	H346	H	0.147448	1.032780	0.967193
	H347	H	0.152133	1.012702	0.956218
	O348	O	0.504159	0.546786	0.525228
	H349	H	0.503102	0.547484	0.526139
	H350	H	0.500546	0.544050	0.513581
	O351	O	0.363865	0.439583	0.544800
	H352	H	0.359234	0.435235	0.546800
	H353	H	0.367219	0.458180	0.544284
	O354	O	-0.370468	1.464013	0.376421
	H355	H	-0.383158	1.463510	0.370958
	H356	H	-0.367984	1.462346	0.360687
	O357	O	0.473815	0.508230	0.423300
	H358	H	0.467017	0.516441	0.439822
	H359	H	0.481265	0.519506	0.412187
	O360	O	1.083050	0.053997	1.018767
	H361	H	1.086849	0.045041	1.003351
	H362	H	1.072433	0.039240	1.017677
	O363	O	0.568637	0.513233	0.381031
	H364	H	0.568228	0.510053	0.371317
	H365	H	0.565523	0.503696	0.384092
	O366	O	0.585683	0.486580	0.482539
	H367	H	0.584224	0.483024	0.486294
	H368	H	0.594480	0.476881	0.472513
	O369	O	0.941547	0.047366	0.041219
	H370	H	0.944428	0.057997	0.027330
	H371	H	0.942307	0.052730	0.038147
	O372	O	0.430811	0.560932	0.561451
	H373	H	0.431566	0.549974	0.551222
	H374	H	0.432066	0.556493	0.567582
	O375	O	0.861669	-0.142726	1.058436
	H376	H	0.855226	-0.125725	1.052946
	H377	H	0.859543	-0.148358	1.068937
	O378	O	0.054426	1.045751	-0.141526
	H379	H	0.052500	1.042964	-0.141562
	H380	H	0.051044	1.043756	-0.132357
	O381	O	-0.199216	1.161155	1.253173
	H382	H	-0.211948	1.173691	1.240282
	H383	H	-0.178146	1.157302	1.238654
	O384	O	0.982143	0.909953	0.074772
	H385	H	0.972432	0.896478	0.082686
	H386	H	0.980644	0.903843	0.074851
	O387	O	0.907375	0.009948	1.146637
	H388	H	0.903860	0.010835	1.144689
	H389	H	0.905555	0.014915	1.149515
	O390	O	0.934369	0.949618	-0.180127
	H391	H	0.935066	0.940739	-0.178154
	H392	H	0.932283	0.960243	-0.178796
	O393	O	0.531547	0.572764	0.479983
	H394	H	0.539930	0.575838	0.476238
	H395	H	0.529008	0.557920	0.490770
