data_Molecule from HDF5

_cell_length_a		16.336553
_cell_length_b		16.340325
_cell_length_c		16.234791
_cell_angle_alpha	89.759887
_cell_angle_beta	89.882679
_cell_angle_gamma	89.965103
_symmetry_space_group_name_H-M	'P 1'
_symmetry_Int_Tables_number		1

loop_
	_symmetry_equiv_pos_as_xyz
	x,y,z

loop_
	_atom_site_label
	_atom_site_type_symbol
	_atom_site_fract_x
	_atom_site_fract_y
	_atom_site_fract_z
	H0	H	0.405543	0.838730	0.717607
	H1	H	0.599756	0.165579	0.714175
	H2	H	0.602382	0.838069	0.289282
	H3	H	0.405455	0.164632	0.286886
	H4	H	0.719063	0.402354	0.837143
	H5	H	0.720329	0.600375	0.164236
	H6	H	0.289995	0.600995	0.836318
	H7	H	0.288825	0.402197	0.163830
	H8	H	0.841680	0.719573	0.399894
	H9	H	0.167502	0.717183	0.599653
	H10	H	0.841216	0.287840	0.599280
	H11	H	0.166950	0.286916	0.400949
	H12	H	0.841201	0.404133	0.714799
	H13	H	0.167539	0.600006	0.714349
	H14	H	0.840416	0.600877	0.285659
	H15	H	0.167228	0.404777	0.286031
	H16	H	0.403949	0.718861	0.838362
	H17	H	0.603329	0.714663	0.165910
	H18	H	0.603528	0.286935	0.837696
	H19	H	0.404935	0.286282	0.164538
	H20	H	0.719706	0.838694	0.403497
	H21	H	0.718798	0.164336	0.601242
	H22	H	0.287617	0.838975	0.602885
	H23	H	0.289191	0.164918	0.402503
	H24	H	0.905987	0.338947	0.216234
	H25	H	0.103617	0.664388	0.214357
	H26	H	0.102360	0.337506	0.786898
	H27	H	0.906240	0.664485	0.784252
	H28	H	0.221541	0.902002	0.338374
	H29	H	0.216403	0.099353	0.665507
	H30	H	0.788612	0.100948	0.338054
	H31	H	0.790275	0.903298	0.666781
	H32	H	0.341157	0.216613	0.904556
	H33	H	0.666829	0.216649	0.101063
	H34	H	0.340880	0.785431	0.101966
	H35	H	0.666580	0.786134	0.902869
	H36	H	0.340829	0.903017	0.217661
	H37	H	0.667353	0.098034	0.215927
	H38	H	0.340012	0.099603	0.788981
	H39	H	0.667390	0.904086	0.787988
	H40	H	0.905333	0.215849	0.336855
	H41	H	0.101390	0.216687	0.664542
	H42	H	0.103751	0.789040	0.337339
	H43	H	0.905612	0.785897	0.665327
	H44	H	0.220297	0.338932	0.900211
	H45	H	0.219618	0.664247	0.098375
	H46	H	0.789612	0.338645	0.100723
	H47	H	0.787642	0.663754	0.899058
	H48	H	0.410660	0.114309	0.585521
	H49	H	0.602762	0.884331	0.597216
	H50	H	0.596525	0.117140	0.409637
	H51	H	0.412772	0.889794	0.419861
	H52	H	0.593255	0.418378	0.113937
	H53	H	0.592845	0.595485	0.885894
	H54	H	0.417035	0.600238	0.117842
	H55	H	0.415243	0.409757	0.884474
	H56	H	0.118343	0.595061	0.410958
	H57	H	0.890474	0.588174	0.594089
	H58	H	0.119974	0.410704	0.591839
	H59	H	0.885974	0.400386	0.407254
	H60	H	0.121306	0.407129	0.595557
	H61	H	0.886892	0.599471	0.594108
	H62	H	0.119176	0.592726	0.404869
	H63	H	0.891047	0.411501	0.414647
	H64	H	0.401447	0.593466	0.120252
	H65	H	0.597771	0.596754	0.883977
	H66	H	0.590151	0.400755	0.118416
	H67	H	0.411845	0.403884	0.881880
	H68	H	0.596553	0.117486	0.409342
	H69	H	0.592483	0.885247	0.600114
	H70	H	0.399667	0.121030	0.598156
	H71	H	0.404153	0.882973	0.409450
	H72	H	0.908827	0.617473	0.090760
	H73	H	0.097493	0.384520	0.096768
	H74	H	0.097382	0.617375	0.903531
	H75	H	0.913590	0.387936	0.912152
	H76	H	0.102529	0.903415	0.620916
	H77	H	0.099916	0.099954	0.381811
	H78	H	0.907848	0.099838	0.620848
	H79	H	0.911381	0.907411	0.383888
	H80	H	0.615114	0.087028	0.916647
	H81	H	0.389130	0.095221	0.088964
	H82	H	0.624165	0.893101	0.096416
	H83	H	0.390783	0.913104	0.914267
	H84	H	0.614384	0.912774	0.081115
	H85	H	0.389069	0.088802	0.096498
	H86	H	0.622968	0.091698	0.895688
	H87	H	0.386904	0.911207	0.904878
	H88	H	0.907662	0.090492	0.618313
	H89	H	0.100789	0.089322	0.385745
	H90	H	0.097139	0.917872	0.615964
	H91	H	0.907400	0.912895	0.385197
	H92	H	0.095286	0.616168	0.907844
	H93	H	0.093157	0.387107	0.092150
	H94	H	0.911495	0.618626	0.093720
	H95	H	0.905586	0.384052	0.907743
	H96	H	0.417547	0.117746	0.602070
	H97	H	0.595655	0.887536	0.589779
	H98	H	0.596838	0.116681	0.408786
	H99	H	0.417972	0.887349	0.406578
	H100	H	0.606383	0.408020	0.120866
	H101	H	0.596466	0.590932	0.885599
	H102	H	0.413957	0.583947	0.112877
	H103	H	0.407427	0.409899	0.883491
	H104	H	0.121143	0.599307	0.405646
	H105	H	0.891266	0.594436	0.585290
	H106	H	0.120800	0.405085	0.590716
	H107	H	0.886959	0.413037	0.400582
	H108	H	0.912633	0.616158	0.089720
	H109	H	0.099728	0.385118	0.089931
	H110	H	0.100236	0.617844	0.907615
	H111	H	0.913908	0.384965	0.902371
	H112	H	0.087272	0.904925	0.615804
	H113	H	0.091000	0.094928	0.385505
	H114	H	0.915951	0.095587	0.616512
	H115	H	0.913985	0.912795	0.387027
	H116	H	0.622835	0.107667	0.911270
	H117	H	0.386418	0.098436	0.097702
	H118	H	0.620176	0.917566	0.107255
	H119	H	0.387185	0.903287	0.912067
	C120	C	0.381035	0.010198	0.624442
	C121	C	0.625231	0.993481	0.623837
	C122	C	0.625905	0.009623	0.380658
	C123	C	0.382811	0.993822	0.381701
	C124	C	0.625662	0.380074	0.009565
	C125	C	0.625550	0.622938	0.993058
	C126	C	0.382044	0.622828	0.009302
	C127	C	0.382843	0.379693	0.992041
	C128	C	0.012254	0.624922	0.377890
	C129	C	0.996852	0.622775	0.620612
	C130	C	0.012827	0.379751	0.621569
	C131	C	0.995630	0.380264	0.378485
	C132	C	0.882465	0.510087	0.121701
	C133	C	0.125683	0.493478	0.121113
	C134	C	0.126020	0.509377	0.878186
	C135	C	0.882362	0.493173	0.877888
	C136	C	0.125325	0.880694	0.509494
	C137	C	0.125303	0.123195	0.492769
	C138	C	0.881784	0.123893	0.509970
	C139	C	0.882550	0.881032	0.493691
	C140	C	0.512476	0.123567	0.879959
	C141	C	0.495863	0.122681	0.123237
	C142	C	0.512078	0.879008	0.124178
	C143	C	0.495752	0.880296	0.881319
	C144	C	0.383930	0.887418	0.680110
	C145	C	0.621400	0.116695	0.677385
	C146	C	0.623044	0.886803	0.326777
	C147	C	0.385194	0.116198	0.325279
	C148	C	0.681301	0.382166	0.886394
	C149	C	0.682186	0.620824	0.115698
	C150	C	0.327359	0.621400	0.885701
	C151	C	0.327123	0.382008	0.115115
	C152	C	0.890061	0.680773	0.379830
	C153	C	0.118927	0.678674	0.619411
	C154	C	0.889837	0.325720	0.619488
	C155	C	0.118214	0.324979	0.380643
	C156	C	0.889984	0.383333	0.676998
	C157	C	0.118840	0.620489	0.676569
	C158	C	0.889652	0.622127	0.322749
	C159	C	0.118635	0.383911	0.324062
	C160	C	0.383889	0.679993	0.886713
	C161	C	0.623525	0.677057	0.116686
	C162	C	0.623620	0.324911	0.886481
	C163	C	0.385002	0.324716	0.115596
	C164	C	0.681609	0.887251	0.383405
	C165	C	0.680513	0.116008	0.621390
	C166	C	0.325668	0.887780	0.622828
	C167	C	0.327462	0.116341	0.382718
	C168	C	0.885575	0.387424	0.177794
	C169	C	0.123853	0.615907	0.176210
	C170	C	0.123188	0.386576	0.823762
	C171	C	0.885371	0.615801	0.822397
	C172	C	0.182218	0.882661	0.386802
	C173	C	0.179434	0.120398	0.616356
	C174	C	0.826661	0.121097	0.386830
	C175	C	0.827926	0.882540	0.617529
	C176	C	0.389708	0.178680	0.883554
	C177	C	0.618200	0.178279	0.121332
	C178	C	0.389692	0.823102	0.122816
	C179	C	0.618173	0.824412	0.882747
	C180	C	0.389512	0.881319	0.180187
	C181	C	0.618554	0.119457	0.178350
	C182	C	0.389067	0.120495	0.826452
	C183	C	0.618521	0.882914	0.825544
	C184	C	0.884382	0.178575	0.386246
	C185	C	0.121902	0.178092	0.616050
	C186	C	0.123887	0.826211	0.386315
	C187	C	0.884950	0.824073	0.616623
	C188	C	0.181634	0.387083	0.880111
	C189	C	0.181609	0.615614	0.118714
	C190	C	0.827514	0.387385	0.120627
	C191	C	0.826169	0.615291	0.879028
	C192	C	0.403102	0.095566	0.601786
	C193	C	0.603404	0.907791	0.602114
	C194	C	0.603483	0.095070	0.402819
	C195	C	0.405168	0.908625	0.405038
	C196	C	0.603087	0.402362	0.095606
	C197	C	0.602515	0.600964	0.907480
	C198	C	0.404364	0.599489	0.094869
	C199	C	0.404988	0.401492	0.905559
	C200	C	0.097587	0.602376	0.400438
	C201	C	0.911509	0.600514	0.597787
	C202	C	0.098544	0.401054	0.599191
	C203	C	0.910049	0.402033	0.400780
	C204	C	0.904464	0.595324	0.098402
	C205	C	0.103387	0.407756	0.099291
	C206	C	0.104088	0.594879	0.900075
	C207	C	0.904461	0.407737	0.900699
	C208	C	0.102471	0.902526	0.595595
	C209	C	0.103481	0.101420	0.406579
	C210	C	0.903943	0.101845	0.596133
	C211	C	0.904437	0.904074	0.407616
	C212	C	0.598294	0.101847	0.901456
	C213	C	0.410360	0.100631	0.101028
	C214	C	0.597418	0.901238	0.101625
	C215	C	0.410363	0.902615	0.903631
	Zn216	Zn	0.503572	0.002060	0.752229
	Zn217	Zn	0.503949	0.000854	0.252546
	Zn218	Zn	0.753789	0.501551	0.000496
	Zn219	Zn	0.254164	0.501036	-0.000271
	Zn220	Zn	0.004525	0.752826	0.500340
	Zn221	Zn	0.003881	0.251117	0.500411
	Zn222	Zn	0.004977	0.501005	0.749735
	Zn223	Zn	0.004240	0.502396	0.249760
	Zn224	Zn	0.503952	0.750667	0.002482
	Zn225	Zn	0.504597	0.251862	0.001572
	Zn226	Zn	0.753812	0.001795	0.502648
	Zn227	Zn	0.253015	0.002031	0.501774
	N228	N	0.417929	0.964417	0.681126
	N229	N	0.587894	0.039546	0.678984
	N230	N	0.589139	0.963759	0.324976
	N231	N	0.418871	0.038966	0.324606
	N232	N	0.682380	0.415998	0.963838
	N233	N	0.683439	0.587586	0.037984
	N234	N	0.326088	0.586414	0.962898
	N235	N	0.325706	0.415510	0.037241
	N236	N	0.967235	0.682491	0.413354
	N237	N	0.041877	0.680129	0.585305
	N238	N	0.967033	0.323488	0.585645
	N239	N	0.040716	0.322674	0.414005
	N240	N	0.967463	0.416311	0.678441
	N241	N	0.041926	0.586421	0.677485
	N242	N	0.966790	0.588240	0.321246
	N243	N	0.041457	0.417529	0.322645
	N244	N	0.417273	0.680849	0.964387
	N245	N	0.589079	0.678515	0.039379
	N246	N	0.589776	0.323410	0.964175
	N247	N	0.419035	0.323300	0.038038
	N248	N	0.683116	0.964664	0.416463
	N249	N	0.682954	0.038477	0.588746
	N250	N	0.323815	0.965067	0.588909
	N251	N	0.325931	0.039395	0.417217
	N252	N	0.918757	0.464777	0.178656
	N253	N	0.089641	0.538938	0.177786
	N254	N	0.089260	0.463602	0.822441
	N255	N	0.919452	0.538847	0.821556
	N256	N	0.183161	0.915690	0.464623
	N257	N	0.181216	0.086743	0.538875
	N258	N	0.824820	0.087869	0.464821
	N259	N	0.826334	0.917254	0.540228
	N260	N	0.467441	0.180814	0.915963
	N261	N	0.540988	0.180302	0.087818
	N262	N	0.466900	0.821473	0.088842
	N263	N	0.540875	0.822385	0.916454
	N264	N	0.466458	0.915275	0.181173
	N265	N	0.541450	0.085647	0.179710
	N266	N	0.466377	0.087185	0.824023
	N267	N	0.541545	0.917052	0.824653
	N268	N	0.917934	0.180306	0.463915
	N269	N	0.089220	0.180103	0.538108
	N270	N	0.089133	0.825004	0.463516
	N271	N	0.918106	0.823044	0.538555
	N272	N	0.183756	0.464431	0.913135
	N273	N	0.182940	0.538366	0.085438
	N274	N	0.825353	0.464584	0.086436
	N275	N	0.824185	0.538007	0.912871
	O276	O	0.541931	0.491030	-0.466428
	H277	H	0.539292	0.488528	-0.468212
	H278	H	0.547068	0.486934	-0.459158
	O279	O	-0.014402	-0.078922	0.067350
	H280	H	-0.013713	-0.085817	0.075303
	H281	H	-0.025576	-0.073684	0.063952
	O282	O	-0.053922	-0.053026	1.050249
	H283	H	-0.057700	-0.047161	1.058741
	H284	H	-0.043893	-0.054214	1.053042
	O285	O	0.548570	0.525549	0.506145
	H286	H	0.555571	0.531431	0.504553
	H287	H	0.552250	0.521916	0.497166
	O288	O	0.481635	0.555076	0.531581
	H289	H	0.477443	0.551810	0.539826
	H290	H	0.487346	0.551354	0.531986
	O291	O	0.484903	0.520855	0.530055
	H292	H	0.483379	0.520816	0.526844
	H293	H	0.484489	0.511949	0.534137
	O294	O	-0.052590	-0.030980	-0.001143
	H295	H	-0.061338	-0.034846	-0.008567
	H296	H	-0.057174	-0.021062	-0.005340
	O297	O	0.513067	0.499004	0.479598
	H298	H	0.513946	0.500918	0.485406
	H299	H	0.510670	0.494933	0.481428
	O300	O	-0.035529	0.980622	0.996177
	H301	H	-0.038379	0.979168	0.995129
	H302	H	-0.043207	0.982989	0.991171
	O303	O	0.534778	0.531387	0.530451
	H304	H	0.533006	0.531547	0.528735
	H305	H	0.537827	0.535692	0.536819
	O306	O	-0.027903	-0.025421	0.986423
	H307	H	-0.030853	-0.027556	0.990496
	H308	H	-0.029074	-0.028642	0.986020
	O309	O	1.013488	0.994793	0.999045
	H310	H	1.019940	0.992696	1.002182
	H311	H	1.018214	0.989717	1.005349
	O312	O	0.502081	0.517174	0.515610
	H313	H	0.497753	0.518418	0.519119
	H314	H	0.499178	0.521589	0.517570
	O315	O	0.569946	0.527861	0.506939
	H316	H	0.567446	0.534932	0.502151
	H317	H	0.571904	0.530710	0.499400
	O318	O	0.005963	0.949668	-0.013535
	H319	H	0.001984	0.949478	-0.006374
	H320	H	0.010050	0.943344	-0.022899
	O321	O	1.040741	0.989814	0.054643
	H322	H	1.042650	0.983868	0.049238
	H323	H	1.046437	0.989904	0.052670
