data_Molecule from HDF5

_cell_length_a		16.256184
_cell_length_b		16.285002
_cell_length_c		16.351342
_cell_angle_alpha	90.029300
_cell_angle_beta	90.153635
_cell_angle_gamma	90.105600
_symmetry_space_group_name_H-M	'P 1'
_symmetry_Int_Tables_number		1

loop_
	_symmetry_equiv_pos_as_xyz
	x,y,z

loop_
	_atom_site_label
	_atom_site_type_symbol
	_atom_site_fract_x
	_atom_site_fract_y
	_atom_site_fract_z
	H0	H	0.407604	0.833692	0.713878
	H1	H	0.605056	0.159984	0.717501
	H2	H	0.605160	0.834794	0.284507
	H3	H	0.404715	0.160795	0.285670
	H4	H	0.716374	0.400674	0.836500
	H5	H	0.720452	0.595388	0.164338
	H6	H	0.289557	0.595051	0.836887
	H7	H	0.289382	0.398879	0.163660
	H8	H	0.839815	0.709945	0.403565
	H9	H	0.167542	0.712325	0.600414
	H10	H	0.839809	0.283556	0.597804
	H11	H	0.168123	0.283593	0.404467
	H12	H	0.839674	0.399481	0.713060
	H13	H	0.167325	0.597054	0.716846
	H14	H	0.839967	0.595329	0.286521
	H15	H	0.167616	0.397496	0.285750
	H16	H	0.405990	0.711567	0.837201
	H17	H	0.602979	0.712212	0.164504
	H18	H	0.600982	0.282857	0.837143
	H19	H	0.405111	0.281565	0.163988
	H20	H	0.718824	0.833894	0.403592
	H21	H	0.718554	0.161465	0.600523
	H22	H	0.290639	0.834800	0.599306
	H23	H	0.291040	0.162257	0.404387
	H24	H	0.904656	0.333480	0.215326
	H25	H	0.105600	0.660760	0.217068
	H26	H	0.100633	0.333807	0.786659
	H27	H	0.903479	0.660166	0.784273
	H28	H	0.220491	0.897882	0.338408
	H29	H	0.219012	0.095229	0.665159
	H30	H	0.788300	0.095844	0.339297
	H31	H	0.790639	0.899068	0.664619
	H32	H	0.340724	0.209646	0.903736
	H33	H	0.668827	0.212562	0.099679
	H34	H	0.340122	0.782566	0.098954
	H35	H	0.668416	0.783185	0.904195
	H36	H	0.341000	0.897737	0.215793
	H37	H	0.667524	0.098324	0.218253
	H38	H	0.341182	0.095135	0.787028
	H39	H	0.668748	0.898568	0.787369
	H40	H	0.905380	0.211354	0.338748
	H41	H	0.104951	0.214187	0.664203
	H42	H	0.102869	0.782233	0.337965
	H43	H	0.906387	0.781856	0.664367
	H44	H	0.217729	0.333751	0.901979
	H45	H	0.219958	0.660616	0.099377
	H46	H	0.791277	0.332529	0.096211
	H47	H	0.791026	0.661437	0.902558
	H48	H	0.405150	0.118407	0.598874
	H49	H	0.601391	0.882596	0.584336
	H50	H	0.589513	0.112446	0.405172
	H51	H	0.417683	0.883735	0.408139
	H52	H	0.592298	0.400165	0.115685
	H53	H	0.602574	0.596208	0.881892
	H54	H	0.415600	0.588769	0.114873
	H55	H	0.411081	0.409582	0.886453
	H56	H	0.122914	0.592310	0.402047
	H57	H	0.884006	0.595395	0.597061
	H58	H	0.120898	0.400342	0.593879
	H59	H	0.884769	0.397105	0.406853
	H60	H	0.119517	0.408762	0.591761
	H61	H	0.889692	0.591180	0.585574
	H62	H	0.120081	0.594242	0.412559
	H63	H	0.890233	0.406198	0.414331
	H64	H	0.412357	0.592804	0.117297
	H65	H	0.600333	0.584222	0.886259
	H66	H	0.603694	0.402018	0.119116
	H67	H	0.415582	0.397840	0.884859
	H68	H	0.595998	0.110894	0.417656
	H69	H	0.603747	0.877191	0.602304
	H70	H	0.418186	0.114115	0.600242
	H71	H	0.409919	0.882931	0.413859
	H72	H	0.913175	0.611557	0.089811
	H73	H	0.090835	0.383480	0.092096
	H74	H	0.110305	0.617233	0.911355
	H75	H	0.910001	0.377217	0.894402
	H76	H	0.098569	0.909479	0.615352
	H77	H	0.088370	0.091844	0.388517
	H78	H	0.909529	0.092119	0.619082
	H79	H	0.903363	0.906089	0.383848
	H80	H	0.623025	0.093695	0.909545
	H81	H	0.389172	0.081604	0.099824
	H82	H	0.617139	0.914123	0.091260
	H83	H	0.388617	0.910942	0.902951
	H84	H	0.623868	0.903722	0.103119
	H85	H	0.384507	0.098869	0.096159
	H86	H	0.620533	0.088446	0.909685
	H87	H	0.385125	0.897465	0.904065
	H88	H	0.912331	0.087610	0.616910
	H89	H	0.102551	0.097144	0.382766
	H90	H	0.093385	0.903174	0.615250
	H91	H	0.915772	0.909059	0.388597
	H92	H	0.092087	0.615632	0.894307
	H93	H	0.099058	0.381836	0.089628
	H94	H	0.906616	0.615578	0.094975
	H95	H	0.919641	0.384633	0.911012
	H96	H	0.412134	0.112639	0.588485
	H97	H	0.586953	0.883378	0.596828
	H98	H	0.602657	0.116241	0.406245
	H99	H	0.409919	0.879925	0.404402
	H100	H	0.597190	0.410691	0.114637
	H101	H	0.590087	0.593003	0.886905
	H102	H	0.409554	0.587846	0.115186
	H103	H	0.403388	0.400589	0.882702
	H104	H	0.119124	0.584602	0.408395
	H105	H	0.888758	0.582664	0.595808
	H106	H	0.121913	0.405955	0.599502
	H107	H	0.886974	0.409042	0.401482
	H108	H	0.915283	0.614050	0.098414
	H109	H	0.096568	0.380744	0.097856
	H110	H	0.087533	0.608367	0.917301
	H111	H	0.900173	0.379956	0.912348
	H112	H	0.100956	0.901540	0.618783
	H113	H	0.101204	0.081938	0.387320
	H114	H	0.915012	0.093212	0.617930
	H115	H	0.913250	0.896666	0.384585
	H116	H	0.623011	0.090467	0.905384
	H117	H	0.391907	0.087840	0.082428
	H118	H	0.620804	0.898122	0.087366
	H119	H	0.390323	0.904343	0.914909
	C120	C	0.383661	0.006422	0.623177
	C121	C	0.626332	0.989216	0.623145
	C122	C	0.625923	0.005669	0.380126
	C123	C	0.383013	0.989864	0.379793
	C124	C	0.625401	0.376083	0.008369
	C125	C	0.626686	0.619701	0.992856
	C126	C	0.383397	0.618645	0.008358
	C127	C	0.381687	0.374403	0.992444
	C128	C	0.012317	0.618547	0.379058
	C129	C	0.995551	0.618826	0.622563
	C130	C	0.012261	0.376334	0.622250
	C131	C	0.995673	0.375650	0.379412
	C132	C	0.883107	0.505280	0.121907
	C133	C	0.125915	0.489197	0.122957
	C134	C	0.124968	0.505712	0.879059
	C135	C	0.882003	0.488727	0.878169
	C136	C	0.126361	0.875899	0.509134
	C137	C	0.126260	0.119165	0.493692
	C138	C	0.882917	0.118889	0.510311
	C139	C	0.882879	0.875719	0.493205
	C140	C	0.513656	0.118940	0.879756
	C141	C	0.496397	0.119160	0.122496
	C142	C	0.512523	0.876142	0.122607
	C143	C	0.496389	0.875842	0.879470
	C144	C	0.386401	0.883069	0.677437
	C145	C	0.624523	0.111764	0.678644
	C146	C	0.624587	0.883242	0.323594
	C147	C	0.384671	0.112403	0.324014
	C148	C	0.679183	0.379479	0.885384
	C149	C	0.682068	0.616149	0.115572
	C150	C	0.327746	0.615754	0.885717
	C151	C	0.326873	0.377614	0.115034
	C152	C	0.888977	0.672826	0.382385
	C153	C	0.118751	0.674214	0.620702
	C154	C	0.888835	0.321081	0.618785
	C155	C	0.119305	0.321371	0.383136
	C156	C	0.888681	0.378447	0.676130
	C157	C	0.118329	0.617070	0.678665
	C158	C	0.888928	0.615793	0.324359
	C159	C	0.118789	0.377824	0.324131
	C160	C	0.385477	0.673780	0.885812
	C161	C	0.624038	0.674439	0.115701
	C162	C	0.621745	0.321227	0.885751
	C163	C	0.384737	0.319714	0.115159
	C164	C	0.681036	0.882718	0.382691
	C165	C	0.681579	0.112176	0.620886
	C166	C	0.328566	0.883306	0.620138
	C167	C	0.328426	0.113266	0.383125
	C168	C	0.885330	0.382088	0.176628
	C169	C	0.124939	0.611975	0.178764
	C170	C	0.121995	0.382612	0.824284
	C171	C	0.883767	0.611697	0.822791
	C172	C	0.182156	0.878092	0.386838
	C173	C	0.181446	0.116635	0.616441
	C174	C	0.826382	0.116751	0.387868
	C175	C	0.828028	0.878035	0.615863
	C176	C	0.389855	0.172684	0.882795
	C177	C	0.619662	0.174982	0.120761
	C178	C	0.389503	0.820063	0.120231
	C179	C	0.619783	0.821206	0.883138
	C180	C	0.389656	0.877533	0.177967
	C181	C	0.619203	0.118085	0.179217
	C182	C	0.390246	0.115893	0.824609
	C183	C	0.619754	0.878071	0.824884
	C184	C	0.884588	0.174170	0.387592
	C185	C	0.124353	0.175219	0.615888
	C186	C	0.123778	0.820353	0.386733
	C187	C	0.885448	0.819744	0.615640
	C188	C	0.179962	0.382564	0.881475
	C189	C	0.181628	0.612063	0.120028
	C190	C	0.828745	0.381587	0.117525
	C191	C	0.827887	0.612244	0.881656
	C192	C	0.405321	0.092676	0.601963
	C193	C	0.603903	0.903161	0.601008
	C194	C	0.602823	0.091180	0.403012
	C195	C	0.405754	0.904377	0.402198
	C196	C	0.604002	0.397764	0.094472
	C197	C	0.604148	0.597800	0.907142
	C198	C	0.405951	0.596450	0.093562
	C199	C	0.403626	0.396337	0.906975
	C200	C	0.098405	0.596716	0.401178
	C201	C	0.909533	0.596098	0.599766
	C202	C	0.098444	0.398506	0.601156
	C203	C	0.909505	0.397684	0.401263
	C204	C	0.905162	0.591455	0.100565
	C205	C	0.102371	0.403995	0.100163
	C206	C	0.103204	0.591546	0.901097
	C207	C	0.903815	0.402664	0.899386
	C208	C	0.104247	0.898186	0.594339
	C209	C	0.104043	0.096853	0.408181
	C210	C	0.905539	0.097184	0.595780
	C211	C	0.904407	0.897585	0.407781
	C212	C	0.599972	0.097150	0.901683
	C213	C	0.410764	0.095994	0.099682
	C214	C	0.598361	0.898795	0.100425
	C215	C	0.410204	0.897773	0.900882
	Zn216	Zn	0.505351	-0.002660	0.751366
	Zn217	Zn	0.504489	-0.002250	0.250923
	Zn218	Zn	0.754757	0.497214	-0.000020
	Zn219	Zn	0.253919	0.497391	0.000372
	Zn220	Zn	0.004208	0.746695	0.501032
	Zn221	Zn	0.004163	0.247871	0.501646
	Zn222	Zn	0.003496	0.497307	0.750294
	Zn223	Zn	0.004059	0.497259	0.250921
	Zn224	Zn	0.504180	0.748123	0.000874
	Zn225	Zn	0.504411	0.246788	0.000892
	Zn226	Zn	0.754467	-0.002386	0.502205
	Zn227	Zn	0.255305	-0.001684	0.501786
	N228	N	0.420000	0.960732	0.679430
	N229	N	0.590752	0.034226	0.680115
	N230	N	0.590752	0.960728	0.322053
	N231	N	0.417858	0.034759	0.321972
	N232	N	0.681350	0.412986	0.962650
	N233	N	0.683657	0.582904	0.038258
	N234	N	0.326195	0.582128	0.962854
	N235	N	0.324770	0.410867	0.037732
	N236	N	0.966718	0.674499	0.415791
	N237	N	0.041590	0.675280	0.586350
	N238	N	0.966646	0.319672	0.586134
	N239	N	0.041782	0.319765	0.416512
	N240	N	0.966154	0.412398	0.678252
	N241	N	0.040430	0.583358	0.679770
	N242	N	0.966826	0.582971	0.322011
	N243	N	0.040787	0.410751	0.321720
	N244	N	0.419373	0.675589	0.963047
	N245	N	0.590553	0.676769	0.038247
	N246	N	0.589148	0.319118	0.963455
	N247	N	0.417817	0.317471	0.037863
	N248	N	0.681994	0.959824	0.416992
	N249	N	0.682486	0.034886	0.586987
	N250	N	0.326961	0.960841	0.587051
	N251	N	0.326901	0.035869	0.416737
	N252	N	0.918164	0.460051	0.179478
	N253	N	0.090797	0.534561	0.180612
	N254	N	0.088690	0.460015	0.822584
	N255	N	0.916711	0.533948	0.820508
	N256	N	0.184074	0.911806	0.464021
	N257	N	0.182355	0.082230	0.539593
	N258	N	0.825499	0.083167	0.464946
	N259	N	0.826686	0.912413	0.539070
	N260	N	0.467523	0.174645	0.916170
	N261	N	0.542429	0.175775	0.086305
	N262	N	0.466830	0.819346	0.086402
	N263	N	0.542101	0.819679	0.916236
	N264	N	0.467259	0.911469	0.179796
	N265	N	0.541485	0.084071	0.180492
	N266	N	0.468218	0.082999	0.822695
	N267	N	0.542017	0.911341	0.822481
	N268	N	0.919212	0.175570	0.464550
	N269	N	0.091014	0.177100	0.538417
	N270	N	0.089890	0.818948	0.463660
	N271	N	0.918647	0.818038	0.538377
	N272	N	0.181635	0.460071	0.915303
	N273	N	0.182325	0.534838	0.086032
	N274	N	0.827340	0.459262	0.084298
	N275	N	0.826655	0.534881	0.915369
	O276	O	0.443476	0.584889	-0.533815
	H277	H	0.444714	0.592297	-0.534769
	H278	H	0.436602	0.582347	-0.535040
	O279	O	0.032446	0.062679	0.080205
	H280	H	0.032888	0.057231	0.078479
	H281	H	0.030494	0.069354	0.083378
	O282	O	0.096587	0.062968	1.091196
	H283	H	0.116254	0.074923	1.096996
	H284	H	0.095840	0.053548	1.090668
	O285	O	0.489810	0.546396	0.499883
	H286	H	0.484719	0.553072	0.498054
	H287	H	0.483417	0.539331	0.497940
	O288	O	0.472308	0.548044	0.469406
	H289	H	0.476484	0.543140	0.464977
	H290	H	0.480684	0.550497	0.462742
	O291	O	0.464049	0.545815	0.375307
	H292	H	0.455639	0.544438	0.378754
	H293	H	0.459917	0.564529	0.374606
	O294	O	0.030721	-0.026835	0.084373
	H295	H	0.026967	-0.024057	0.082506
	H296	H	0.027963	-0.031724	0.091586
	O297	O	0.526249	0.534803	0.455501
	H298	H	0.537368	0.547539	0.464047
	H299	H	0.528934	0.542307	0.442398
	O300	O	0.514550	1.489733	0.474646
	H301	H	0.511210	1.487607	0.475486
	H302	H	0.517246	1.485310	0.467366
	O303	O	0.481006	0.494856	0.515421
	H304	H	0.481085	0.487486	0.526010
	H305	H	0.485926	0.489453	0.512094
	O306	O	-0.000955	-0.043922	1.071786
	H307	H	-0.012759	-0.036281	1.080329
	H308	H	-0.000574	-0.052763	1.075580
	O309	O	1.036296	1.013180	1.082466
	H310	H	1.034065	1.005597	1.082967
	H311	H	1.035548	1.004176	1.083432
	O312	O	0.483009	0.560452	0.538548
	H313	H	0.483020	0.557378	0.537417
	H314	H	0.476945	0.557319	0.539245
	O315	O	0.465967	0.525254	0.491545
	H316	H	0.469840	0.521646	0.486908
	H317	H	0.460017	0.527624	0.490229
	O318	O	0.032930	1.027897	0.124556
	H319	H	0.034772	1.041296	0.121828
	H320	H	0.041942	1.032670	0.123346
	O321	O	0.430760	0.609860	0.472033
	H322	H	0.425304	0.621718	0.478776
	H323	H	0.431065	0.600074	0.475191
