data_Molecule from HDF5

_cell_length_a		16.500772
_cell_length_b		16.501890
_cell_length_c		16.531407
_cell_angle_alpha	89.813377
_cell_angle_beta	89.911446
_cell_angle_gamma	89.973327
_symmetry_space_group_name_H-M	'P 1'
_symmetry_Int_Tables_number		1

loop_
	_symmetry_equiv_pos_as_xyz
	x,y,z

loop_
	_atom_site_label
	_atom_site_type_symbol
	_atom_site_fract_x
	_atom_site_fract_y
	_atom_site_fract_z
	H0	H	0.386145	0.850319	0.733607
	H1	H	0.602829	0.161927	0.727507
	H2	H	0.602086	0.848006	0.285791
	H3	H	0.389147	0.160908	0.283351
	H4	H	0.718981	0.400003	0.848990
	H5	H	0.717379	0.608520	0.162963
	H6	H	0.271292	0.616228	0.850645
	H7	H	0.275534	0.400412	0.162637
	H8	H	0.839236	0.722027	0.406739
	H9	H	0.154474	0.728367	0.613455
	H10	H	0.840393	0.284297	0.612537
	H11	H	0.153142	0.280100	0.398459
	H12	H	0.840915	0.399393	0.728373
	H13	H	0.153900	0.613615	0.731162
	H14	H	0.839533	0.608590	0.288045
	H15	H	0.152972	0.396848	0.281380
	H16	H	0.386895	0.732837	0.851232
	H17	H	0.602495	0.726870	0.162267
	H18	H	0.602027	0.284074	0.848257
	H19	H	0.392631	0.283903	0.162692
	H20	H	0.717553	0.847734	0.402931
	H21	H	0.719213	0.161554	0.611964
	H22	H	0.271785	0.848450	0.616978
	H23	H	0.272703	0.160477	0.399257
	H24	H	0.895330	0.346432	0.225678
	H25	H	0.104127	0.662098	0.229022
	H26	H	0.105751	0.348346	0.783551
	H27	H	0.893215	0.662144	0.785301
	H28	H	0.219468	0.898250	0.350358
	H29	H	0.221015	0.111533	0.663943
	H30	H	0.779652	0.106872	0.348626
	H31	H	0.774659	0.898055	0.662907
	H32	H	0.338016	0.227729	0.898722
	H33	H	0.654644	0.221644	0.105887
	H34	H	0.339812	0.781737	0.113046
	H35	H	0.653242	0.784570	0.900926
	H36	H	0.339075	0.897477	0.228955
	H37	H	0.654486	0.105291	0.223416
	H38	H	0.338933	0.113742	0.781334
	H39	H	0.652270	0.899360	0.783392
	H40	H	0.895360	0.224674	0.349476
	H41	H	0.107315	0.229934	0.663511
	H42	H	0.101942	0.783569	0.349344
	H43	H	0.890791	0.781361	0.663202
	H44	H	0.220882	0.348546	0.899339
	H45	H	0.221894	0.661921	0.114357
	H46	H	0.778925	0.346433	0.109042
	H47	H	0.778160	0.662904	0.902533
	H48	H	0.412908	0.114545	0.594363
	H49	H	0.587330	0.892983	0.591578
	H50	H	0.593018	0.118101	0.422598
	H51	H	0.410818	0.892610	0.416209
	H52	H	0.593270	0.410898	0.120832
	H53	H	0.593642	0.592450	0.891014
	H54	H	0.410748	0.590754	0.116220
	H55	H	0.402938	0.413800	0.890030
	H56	H	0.111496	0.593863	0.417005
	H57	H	0.882685	0.596965	0.601417
	H58	H	0.108570	0.417336	0.590404
	H59	H	0.883757	0.414953	0.415438
	H60	H	0.109229	0.421498	0.596623
	H61	H	0.888120	0.595120	0.588629
	H62	H	0.110555	0.592711	0.417613
	H63	H	0.885766	0.414627	0.418813
	H64	H	0.410273	0.592559	0.116081
	H65	H	0.582238	0.589682	0.897135
	H66	H	0.586892	0.418747	0.116998
	H67	H	0.408433	0.424873	0.896272
	H68	H	0.590144	0.121572	0.407626
	H69	H	0.585558	0.891983	0.597886
	H70	H	0.409470	0.114184	0.587901
	H71	H	0.409134	0.893308	0.421357
	H72	H	0.908514	0.618292	0.097316
	H73	H	0.088731	0.394301	0.088060
	H74	H	0.079529	0.614475	0.918870
	H75	H	0.913913	0.393290	0.917223
	H76	H	0.083049	0.915123	0.618671
	H77	H	0.081683	0.093201	0.398535
	H78	H	0.908542	0.095889	0.620865
	H79	H	0.914099	0.917270	0.397231
	H80	H	0.608386	0.090348	0.908434
	H81	H	0.382867	0.093092	0.096481
	H82	H	0.606210	0.923252	0.094925
	H83	H	0.386376	0.919690	0.925615
	H84	H	0.611346	0.913750	0.102981
	H85	H	0.382625	0.094741	0.095554
	H86	H	0.610488	0.101950	0.916365
	H87	H	0.386083	0.924676	0.917215
	H88	H	0.905106	0.092816	0.620307
	H89	H	0.085874	0.094734	0.395006
	H90	H	0.086123	0.915630	0.618669
	H91	H	0.907734	0.906322	0.391173
	H92	H	0.086342	0.615472	0.923352
	H93	H	0.088242	0.391527	0.099413
	H94	H	0.904647	0.618709	0.095277
	H95	H	0.904617	0.393206	0.923181
	H96	H	0.405806	0.117256	0.594049
	H97	H	0.581381	0.895034	0.594100
	H98	H	0.578528	0.115504	0.416484
	H99	H	0.406124	0.891894	0.417088
	H100	H	0.582641	0.408923	0.118521
	H101	H	0.583840	0.602013	0.891804
	H102	H	0.409502	0.591729	0.116587
	H103	H	0.416378	0.413418	0.894747
	H104	H	0.110575	0.593510	0.415602
	H105	H	0.888578	0.584711	0.597634
	H106	H	0.111457	0.414562	0.596530
	H107	H	0.885139	0.417636	0.417034
	H108	H	0.905252	0.619426	0.099093
	H109	H	0.078818	0.396346	0.094711
	H110	H	0.086290	0.618005	0.915555
	H111	H	0.904992	0.388833	0.913170
	H112	H	0.084093	0.918086	0.617903
	H113	H	0.085914	0.090132	0.397922
	H114	H	0.909379	0.092099	0.618914
	H115	H	0.900811	0.918044	0.392780
	H116	H	0.603792	0.090694	0.921720
	H117	H	0.382595	0.093217	0.094599
	H118	H	0.609328	0.911069	0.089884
	H119	H	0.382779	0.915965	0.918078
	C120	C	0.375438	0.012653	0.627205
	C121	C	0.617844	0.996650	0.627413
	C122	C	0.618819	0.013983	0.384675
	C123	C	0.375041	0.995903	0.384798
	C124	C	0.618825	0.382225	0.014404
	C125	C	0.618037	0.626027	0.997397
	C126	C	0.375510	0.626873	0.014062
	C127	C	0.375902	0.384166	0.997131
	C128	C	0.006238	0.625126	0.385831
	C129	C	0.989468	0.626320	0.628826
	C130	C	0.006079	0.384701	0.627549
	C131	C	0.988760	0.382942	0.384509
	C132	C	0.875498	0.513698	0.128073
	C133	C	0.118277	0.497609	0.127003
	C134	C	0.118289	0.513012	0.885644
	C135	C	0.876321	0.496080	0.885439
	C136	C	0.117821	0.883166	0.515259
	C137	C	0.118801	0.126480	0.499814
	C138	C	0.876493	0.125615	0.515716
	C139	C	0.875552	0.882508	0.497921
	C140	C	0.504181	0.127629	0.882684
	C141	C	0.487501	0.124853	0.126317
	C142	C	0.505068	0.883033	0.128391
	C143	C	0.487929	0.886041	0.886358
	C144	C	0.369931	0.896550	0.691639
	C145	C	0.620781	0.114622	0.687558
	C146	C	0.620186	0.895175	0.325996
	C147	C	0.371260	0.113684	0.323341
	C148	C	0.678916	0.381054	0.896157
	C149	C	0.677552	0.627310	0.115764
	C150	C	0.312960	0.632651	0.897040
	C151	C	0.315857	0.381832	0.115570
	C152	C	0.887021	0.683609	0.386047
	C153	C	0.107333	0.687884	0.631665
	C154	C	0.887738	0.324208	0.630471
	C155	C	0.106290	0.321088	0.380649
	C156	C	0.888030	0.381468	0.688293
	C157	C	0.107132	0.630865	0.690250
	C158	C	0.887189	0.626996	0.327370
	C159	C	0.106338	0.379100	0.322551
	C160	C	0.370446	0.690798	0.897628
	C161	C	0.620497	0.686269	0.115279
	C162	C	0.620611	0.323495	0.895737
	C163	C	0.373803	0.323823	0.115497
	C164	C	0.677843	0.895031	0.384095
	C165	C	0.679049	0.114380	0.630173
	C166	C	0.312713	0.895731	0.633578
	C167	C	0.313501	0.113364	0.381312
	C168	C	0.875838	0.393950	0.186224
	C169	C	0.122052	0.615214	0.188513
	C170	C	0.122882	0.395533	0.824153
	C171	C	0.874841	0.614892	0.825472
	C172	C	0.178900	0.880351	0.397285
	C173	C	0.180816	0.129460	0.617067
	C174	C	0.818524	0.126771	0.396480
	C175	C	0.815217	0.880158	0.616055
	C176	C	0.385499	0.187967	0.880434
	C177	C	0.607081	0.182566	0.125619
	C178	C	0.386884	0.822075	0.131145
	C179	C	0.605792	0.824508	0.882568
	C180	C	0.386743	0.879463	0.189273
	C181	C	0.607061	0.124974	0.184011
	C182	C	0.386067	0.131226	0.821855
	C183	C	0.605452	0.881979	0.824383
	C184	C	0.876464	0.184750	0.396636
	C185	C	0.123990	0.188456	0.616780
	C186	C	0.120515	0.823162	0.396961
	C187	C	0.872897	0.822077	0.616176
	C188	C	0.180535	0.395530	0.881712
	C189	C	0.180474	0.615141	0.131233
	C190	C	0.817946	0.394026	0.128444
	C191	C	0.817310	0.615203	0.883735
	C192	C	0.402066	0.094113	0.599846
	C193	C	0.592119	0.914552	0.601811
	C194	C	0.594343	0.096982	0.408704
	C195	C	0.401302	0.913877	0.410828
	C196	C	0.594346	0.405925	0.097293
	C197	C	0.593443	0.601555	0.914856
	C198	C	0.402433	0.599321	0.095150
	C199	C	0.401667	0.410026	0.914902
	C200	C	0.089339	0.600503	0.409824
	C201	C	0.907686	0.599830	0.603284
	C202	C	0.088314	0.410425	0.601799
	C203	C	0.906391	0.408390	0.410107
	C204	C	0.899212	0.596964	0.104135
	C205	C	0.092748	0.415605	0.101332
	C206	C	0.091624	0.594621	0.911686
	C207	C	0.900874	0.413516	0.910645
	C208	C	0.091905	0.908908	0.597028
	C209	C	0.092182	0.100338	0.418368
	C210	C	0.900698	0.100916	0.598468
	C211	C	0.900462	0.907025	0.415236
	C212	C	0.586190	0.101865	0.908192
	C213	C	0.404314	0.100469	0.102377
	C214	C	0.587440	0.908598	0.103139
	C215	C	0.406260	0.912503	0.912884
	Zn216	Zn	0.495447	0.005345	0.755922
	Zn217	Zn	0.496451	0.004793	0.256376
	Zn218	Zn	0.747462	0.504471	0.005911
	Zn219	Zn	0.246833	0.505825	0.005752
	Zn220	Zn	-0.002918	0.753995	0.507051
	Zn221	Zn	-0.002143	0.255557	0.507899
	Zn222	Zn	-0.001735	0.504544	0.756634
	Zn223	Zn	-0.002603	0.505085	0.256082
	Zn224	Zn	0.496425	0.755753	0.006290
	Zn225	Zn	0.495917	0.254278	0.004830
	Zn226	Zn	0.747266	0.004497	0.506466
	Zn227	Zn	0.246636	0.004024	0.506974
	N228	N	0.408340	0.970265	0.687558
	N229	N	0.583494	0.040301	0.686056
	N230	N	0.584006	0.970102	0.326297
	N231	N	0.408891	0.039354	0.325382
	N232	N	0.678112	0.416677	0.971048
	N233	N	0.676432	0.590697	0.041263
	N234	N	0.316197	0.593290	0.970275
	N235	N	0.316868	0.418496	0.040772
	N236	N	0.962129	0.682657	0.421613
	N237	N	0.033093	0.685220	0.594169
	N238	N	0.962245	0.326026	0.593420
	N239	N	0.032130	0.323328	0.418390
	N240	N	0.962768	0.418165	0.686763
	N241	N	0.032940	0.593291	0.688663
	N242	N	0.962575	0.591499	0.326732
	N243	N	0.032164	0.416739	0.324766
	N244	N	0.408762	0.687095	0.971259
	N245	N	0.584169	0.685542	0.040747
	N246	N	0.583985	0.323962	0.970458
	N247	N	0.410169	0.325097	0.040704
	N248	N	0.677175	0.970106	0.419759
	N249	N	0.677546	0.039875	0.593515
	N250	N	0.316180	0.968853	0.593882
	N251	N	0.315599	0.039102	0.418714
	N252	N	0.910518	0.469601	0.186468
	N253	N	0.084085	0.541240	0.186069
	N254	N	0.084876	0.469661	0.826373
	N255	N	0.910850	0.539862	0.826446
	N256	N	0.177396	0.916938	0.471812
	N257	N	0.177704	0.091554	0.543171
	N258	N	0.818374	0.090763	0.471474
	N259	N	0.816756	0.916955	0.541531
	N260	N	0.459970	0.186047	0.917474
	N261	N	0.531525	0.182758	0.090702
	N262	N	0.461507	0.823949	0.094377
	N263	N	0.531547	0.826801	0.920338
	N264	N	0.461358	0.916478	0.187912
	N265	N	0.531430	0.090390	0.184912
	N266	N	0.460862	0.094591	0.822977
	N267	N	0.531181	0.919334	0.826555
	N268	N	0.911614	0.184372	0.472009
	N269	N	0.086124	0.186693	0.542946
	N270	N	0.083512	0.824495	0.471404
	N271	N	0.909891	0.823639	0.541760
	N272	N	0.177966	0.469777	0.918965
	N273	N	0.178338	0.540863	0.093715
	N274	N	0.817209	0.469634	0.093424
	N275	N	0.818026	0.540378	0.920317
	O276	O	0.485765	0.286412	0.486855
	H277	H	0.485295	0.283959	0.484137
	H278	H	0.491009	0.285642	0.502994
	O279	O	0.517604	0.716986	0.719003
	H280	H	0.527370	0.738782	0.727863
	H281	H	0.537826	0.716980	0.723280
	O282	O	1.031829	0.974267	-0.113049
	H283	H	1.039416	0.988398	-0.097199
	H284	H	1.036648	0.970306	-0.124582
	O285	O	0.479870	0.412715	0.465070
	H286	H	0.492431	0.423007	0.461257
	H287	H	0.481441	0.407828	0.467062
	O288	O	0.120692	0.090441	0.081239
	H289	H	0.147852	0.104191	0.099295
	H290	H	0.107178	0.101963	0.072569
	O291	O	1.108119	1.016800	0.172693
	H292	H	1.118055	1.015769	0.185466
	H293	H	1.116953	1.014172	0.154818
	O294	O	0.209338	1.154622	0.077488
	H295	H	0.220919	1.171305	0.102321
	H296	H	0.208423	1.169724	0.064664
	O297	O	0.530467	0.394513	0.507574
	H298	H	0.531641	0.392320	0.514748
	H299	H	0.550638	0.396515	0.504773
	O300	O	0.474998	0.292266	0.719226
	H301	H	0.479762	0.308455	0.707864
	H302	H	0.482861	0.262316	0.744055
	O303	O	0.458377	0.589492	0.639163
	H304	H	0.460266	0.601809	0.628220
	H305	H	0.476462	0.583638	0.636501
	O306	O	-0.088719	1.112842	1.183306
	H307	H	-0.062644	1.103935	1.191513
	H308	H	-0.085638	1.104814	1.172472
	O309	O	0.452988	0.524378	0.577327
	H310	H	0.452377	0.504880	0.584294
	H311	H	0.467894	0.508626	0.587722
	O312	O	0.306270	0.368324	0.362597
	H313	H	0.314914	0.373857	0.388924
	H314	H	0.306279	0.370864	0.369719
	O315	O	-0.009139	-0.212772	0.966867
	H316	H	-0.023944	-0.211558	0.986400
	H317	H	0.002733	-0.205554	0.988029
	O318	O	0.066598	0.899773	0.163711
	H319	H	0.069097	0.881034	0.168715
	H320	H	0.045703	0.902682	0.143079
	O321	O	0.531880	0.286765	0.291917
	H322	H	0.513887	0.279942	0.288539
	H323	H	0.514672	0.284535	0.289997
	O324	O	0.791130	0.214366	0.989412
	H325	H	0.767595	0.226010	0.972186
	H326	H	0.795140	0.207383	0.968258
	O327	O	0.806035	0.094015	1.127613
	H328	H	0.819858	0.100827	1.111865
	H329	H	0.814902	0.094109	1.120109
	O330	O	1.092445	0.154168	0.208233
	H331	H	1.088759	0.138333	0.217123
	H332	H	1.077906	0.145935	0.216169
	O333	O	0.788790	1.043598	0.823857
	H334	H	0.796730	1.025714	0.822893
	H335	H	0.779795	1.026323	0.816697
	O336	O	0.965923	0.164583	1.046971
	H337	H	0.959313	0.162295	1.031849
	H338	H	0.972548	0.167824	1.033847
	O339	O	0.316166	0.325460	0.685190
	H340	H	0.307427	0.351967	0.671115
	H341	H	0.354316	0.326509	0.697877
	O342	O	0.593094	0.482988	0.548012
	H343	H	0.594171	0.495080	0.533818
	H344	H	0.614124	0.471134	0.546401
	O345	O	0.040779	0.209798	0.092927
	H346	H	0.034613	0.221988	0.107819
	H347	H	0.038105	0.201579	0.083015
	O348	O	1.166148	-0.086211	0.840078
	H349	H	1.160347	-0.082792	0.821237
	H350	H	1.158059	-0.091220	0.839837
	O351	O	1.196668	0.796185	-0.008866
	H352	H	1.195759	0.807846	-0.027098
	H353	H	1.215107	0.775947	-0.012956
	O354	O	0.284033	0.483259	0.717666
	H355	H	0.289833	0.486335	0.715896
	H356	H	0.278591	0.495591	0.746805
	O357	O	0.883522	0.953026	0.928369
	H358	H	0.881895	0.961007	0.933054
	H359	H	0.884228	0.958153	0.940723
	O360	O	0.514824	0.720851	0.477612
	H361	H	0.513913	0.714034	0.468185
	H362	H	0.506803	0.718794	0.483799
	O363	O	0.699207	0.306612	0.559359
	H364	H	0.695119	0.312772	0.530226
	H365	H	0.715723	0.306453	0.549486
	O366	O	0.582471	0.595227	0.405950
	H367	H	0.594240	0.592573	0.403747
	H368	H	0.567085	0.589687	0.391851
	O369	O	0.445347	0.573711	0.320687
	H370	H	0.448206	0.569184	0.316813
	H371	H	0.432469	0.588392	0.316063
	O372	O	0.280760	0.291852	0.526343
	H373	H	0.257437	0.265476	0.525496
	H374	H	0.283419	0.306046	0.549800
	O375	O	-0.198505	0.999909	1.014453
	H376	H	-0.198346	0.989926	1.015279
	H377	H	-0.195908	0.999830	1.038489
	O378	O	0.859811	-0.045629	-0.088474
	H379	H	0.876413	-0.029386	-0.086880
	H380	H	0.866423	-0.045351	-0.081742
	O381	O	0.970636	0.220060	-0.205178
	H382	H	0.963933	0.244632	-0.229254
	H383	H	0.963306	0.209124	-0.195158
	O384	O	0.647607	-0.380122	0.530644
	H385	H	0.659111	-0.384295	0.524013
	H386	H	0.637655	-0.382465	0.516296
	O387	O	0.020453	0.803691	0.799245
	H388	H	0.005908	0.789208	0.794007
	H389	H	0.008475	0.791916	0.812721
	O390	O	0.183488	0.222252	1.028226
	H391	H	0.192154	0.226873	1.021568
	H392	H	0.192896	0.230803	1.043294
	O393	O	0.793944	0.977607	0.210629
	H394	H	0.790064	0.964718	0.219645
	H395	H	0.796582	0.979815	0.220225
	O396	O	0.304158	0.525085	0.299042
	H397	H	0.305894	0.532294	0.305738
	H398	H	0.294839	0.513843	0.291962
	O399	O	0.592638	0.687496	0.413185
	H400	H	0.582962	0.680222	0.414387
	H401	H	0.580683	0.672094	0.405579
	O402	O	0.065094	-0.146862	1.116185
	H403	H	0.070911	-0.141229	1.103910
	H404	H	0.072332	-0.146852	1.115589
	O405	O	0.141335	0.011604	0.161369
	H406	H	0.152348	-0.003067	0.173379
	H407	H	0.152032	0.000415	0.151099
	O408	O	0.696722	0.573918	0.709321
	H409	H	0.705186	0.583017	0.709001
	H410	H	0.701840	0.579251	0.711333
	O411	O	0.283672	0.720914	0.483810
	H412	H	0.277543	0.731006	0.493550
	H413	H	0.275129	0.722344	0.494496
	O414	O	0.316078	0.682900	0.323399
	H415	H	0.316033	0.678986	0.357912
	H416	H	0.320577	0.667286	0.326592
	O417	O	0.571749	0.568189	0.320778
	H418	H	0.566374	0.556083	0.319382
	H419	H	0.576968	0.553400	0.328142
	O420	O	0.687919	0.699062	0.655070
	H421	H	0.691172	0.706465	0.644740
	H422	H	0.685230	0.693494	0.637162
	O423	O	0.079109	1.040600	-0.130996
	H424	H	0.078240	1.047472	-0.137232
	H425	H	0.083071	1.043575	-0.116495
	O426	O	0.825461	1.186034	0.812095
	H427	H	0.807052	1.177534	0.816669
	H428	H	0.847705	1.162976	0.805531
	O429	O	0.453683	0.517382	0.677563
	H430	H	0.453893	0.522231	0.672051
	H431	H	0.453347	0.523396	0.689417
	O432	O	0.700879	0.300305	0.303141
	H433	H	0.649558	0.292109	0.297857
	H434	H	0.722121	0.285419	0.278805
	O435	O	-0.018842	-0.123988	0.067016
	H436	H	-0.013521	-0.134933	0.059242
	H437	H	-0.006918	-0.119672	0.060717
	O438	O	1.191896	-0.086227	-0.168199
	H439	H	1.197294	-0.076469	-0.139966
	H440	H	1.170718	-0.080974	-0.183513
	O441	O	0.612765	0.397134	0.677137
	H442	H	0.604492	0.398067	0.665480
	H443	H	0.615549	0.404071	0.674012
	O444	O	-0.103159	0.885745	0.918571
	H445	H	-0.125387	0.869297	0.922212
	H446	H	-0.100218	0.882905	0.930832
	O447	O	0.671410	0.485104	0.493733
	H448	H	0.670417	0.487351	0.505408
	H449	H	0.666562	0.484837	0.489957
	O450	O	0.582110	0.503509	0.467631
	H451	H	0.565683	0.509470	0.471815
	H452	H	0.591864	0.497855	0.470747
	O453	O	0.388669	0.598909	0.355309
	H454	H	0.385465	0.630916	0.350362
	H455	H	0.366266	0.595972	0.349429
	O456	O	0.799008	-0.194577	0.207166
	H457	H	0.807419	-0.183009	0.216377
	H458	H	0.797141	-0.214042	0.212564
	O459	O	0.689899	0.477861	0.281469
	H460	H	0.697292	0.464401	0.267881
	H461	H	0.699305	0.452617	0.278244
	O462	O	0.333392	0.545660	0.525644
	H463	H	0.349312	0.557509	0.529964
	H464	H	0.323174	0.529456	0.536356
	O465	O	0.895893	-0.136366	0.011602
	H466	H	0.882537	-0.126761	0.018754
	H467	H	0.893951	-0.137125	0.009524
