data_Molecule from HDF5

_cell_length_a		16.297092
_cell_length_b		16.277856
_cell_length_c		16.474340
_cell_angle_alpha	90.135787
_cell_angle_beta	89.922388
_cell_angle_gamma	89.850778
_symmetry_space_group_name_H-M	'P 1'
_symmetry_Int_Tables_number		1

loop_
	_symmetry_equiv_pos_as_xyz
	x,y,z

loop_
	_atom_site_label
	_atom_site_type_symbol
	_atom_site_fract_x
	_atom_site_fract_y
	_atom_site_fract_z
	H0	H	0.397592	0.834408	0.728789
	H1	H	0.607930	0.154865	0.727123
	H2	H	0.609546	0.833810	0.285661
	H3	H	0.400146	0.155468	0.290941
	H4	H	0.722091	0.393002	0.848138
	H5	H	0.720238	0.598489	0.169199
	H6	H	0.282011	0.597551	0.848426
	H7	H	0.283709	0.392930	0.168831
	H8	H	0.839763	0.710174	0.410045
	H9	H	0.165029	0.710403	0.610951
	H10	H	0.840933	0.277423	0.609196
	H11	H	0.166237	0.278247	0.409369
	H12	H	0.841771	0.390696	0.727453
	H13	H	0.163654	0.596341	0.727887
	H14	H	0.840530	0.597044	0.291915
	H15	H	0.163359	0.389335	0.288796
	H16	H	0.398482	0.713202	0.847802
	H17	H	0.602836	0.714236	0.168272
	H18	H	0.604408	0.277949	0.847064
	H19	H	0.399829	0.276102	0.167805
	H20	H	0.720920	0.831590	0.405553
	H21	H	0.719881	0.156020	0.607710
	H22	H	0.287442	0.831189	0.608783
	H23	H	0.285838	0.154908	0.407233
	H24	H	0.898310	0.333833	0.227196
	H25	H	0.105261	0.655974	0.228916
	H26	H	0.108359	0.333276	0.788814
	H27	H	0.899280	0.654749	0.789022
	H28	H	0.222513	0.888078	0.348142
	H29	H	0.222121	0.094460	0.668305
	H30	H	0.786631	0.093812	0.347919
	H31	H	0.781967	0.890053	0.667296
	H32	H	0.339698	0.213127	0.906487
	H33	H	0.664486	0.211841	0.106690
	H34	H	0.339911	0.780238	0.108476
	H35	H	0.663335	0.775399	0.904050
	H36	H	0.343128	0.889269	0.229496
	H37	H	0.664133	0.099000	0.226296
	H38	H	0.342294	0.100333	0.786534
	H39	H	0.663444	0.890985	0.788340
	H40	H	0.901344	0.212105	0.349276
	H41	H	0.106179	0.212035	0.668714
	H42	H	0.105358	0.772223	0.349698
	H43	H	0.901630	0.776917	0.669889
	H44	H	0.220392	0.332242	0.907985
	H45	H	0.217979	0.657162	0.110200
	H46	H	0.784994	0.333372	0.108739
	H47	H	0.786924	0.656899	0.907918
	H48	H	0.420504	0.109119	0.606730
	H49	H	0.590494	0.881290	0.595104
	H50	H	0.595845	0.108159	0.419260
	H51	H	0.421051	0.875887	0.403430
	H52	H	0.591460	0.405139	0.121091
	H53	H	0.594868	0.575586	0.897563
	H54	H	0.415668	0.585183	0.119748
	H55	H	0.416764	0.405142	0.897124
	H56	H	0.114126	0.581204	0.426951
	H57	H	0.885305	0.583348	0.608189
	H58	H	0.119678	0.406871	0.606406
	H59	H	0.888521	0.400651	0.422945
	H60	H	0.120083	0.396686	0.598803
	H61	H	0.887007	0.590984	0.597107
	H62	H	0.116390	0.574663	0.413037
	H63	H	0.888912	0.409344	0.415810
	H64	H	0.409751	0.593504	0.124089
	H65	H	0.585418	0.589881	0.896244
	H66	H	0.593159	0.402077	0.122274
	H67	H	0.409413	0.399815	0.892116
	H68	H	0.597007	0.111497	0.413601
	H69	H	0.595347	0.878645	0.597094
	H70	H	0.417566	0.103637	0.586592
	H71	H	0.422684	0.884155	0.426706
	H72	H	0.912730	0.610065	0.101081
	H73	H	0.094984	0.378826	0.099202
	H74	H	0.089060	0.608004	0.918052
	H75	H	0.915740	0.379252	0.916663
	H76	H	0.092037	0.895835	0.623479
	H77	H	0.088911	0.094430	0.393708
	H78	H	0.914023	0.077782	0.619617
	H79	H	0.919935	0.901720	0.396946
	H80	H	0.618186	0.086443	0.913390
	H81	H	0.389817	0.081912	0.097606
	H82	H	0.617062	0.901844	0.092632
	H83	H	0.386109	0.903481	0.913691
	H84	H	0.614237	0.911133	0.094997
	H85	H	0.387401	0.084030	0.102371
	H86	H	0.616594	0.086920	0.918270
	H87	H	0.389173	0.904922	0.922002
	H88	H	0.916948	0.090731	0.622850
	H89	H	0.105415	0.084180	0.390604
	H90	H	0.102131	0.904347	0.623676
	H91	H	0.910865	0.895516	0.392623
	H92	H	0.093491	0.609237	0.918749
	H93	H	0.090577	0.379171	0.101771
	H94	H	0.912051	0.610377	0.100777
	H95	H	0.912466	0.380210	0.920509
	H96	H	0.402459	0.111931	0.597492
	H97	H	0.590444	0.878771	0.600005
	H98	H	0.591077	0.108695	0.414729
	H99	H	0.401263	0.874481	0.419076
	H100	H	0.594881	0.404589	0.121427
	H101	H	0.601513	0.590156	0.891135
	H102	H	0.404709	0.583436	0.122441
	H103	H	0.407583	0.409452	0.894772
	H104	H	0.120002	0.589705	0.415021
	H105	H	0.890985	0.578031	0.596989
	H106	H	0.115619	0.407415	0.594778
	H107	H	0.885228	0.398964	0.412827
	H108	H	0.911769	0.610653	0.101062
	H109	H	0.090769	0.380989	0.097219
	H110	H	0.091376	0.610331	0.914803
	H111	H	0.910742	0.377922	0.916711
	H112	H	0.090299	0.907904	0.618493
	H113	H	0.089771	0.075285	0.398760
	H114	H	0.904272	0.085783	0.625078
	H115	H	0.909416	0.907238	0.395310
	H116	H	0.615562	0.082314	0.915708
	H117	H	0.387114	0.086896	0.098032
	H118	H	0.619049	0.905102	0.101776
	H119	H	0.389457	0.911572	0.915505
	C120	C	0.382089	0.002137	0.628516
	C121	C	0.623827	0.985832	0.628295
	C122	C	0.625638	0.002906	0.384912
	C123	C	0.383279	0.985162	0.386682
	C124	C	0.624364	0.373291	0.015986
	C125	C	0.624059	0.617019	1.000326
	C126	C	0.379365	0.617715	0.015985
	C127	C	0.380259	0.373556	1.000106
	C128	C	0.010078	0.613743	0.388390
	C129	C	0.994511	0.614717	0.630657
	C130	C	0.011659	0.372452	0.630467
	C131	C	0.994368	0.372111	0.386841
	C132	C	0.881105	0.503643	0.130651
	C133	C	0.122863	0.486342	0.130173
	C134	C	0.123462	0.502463	0.887071
	C135	C	0.882110	0.485702	0.887489
	C136	C	0.125710	0.870845	0.516933
	C137	C	0.125422	0.114718	0.500253
	C138	C	0.881884	0.114986	0.516638
	C139	C	0.881673	0.871232	0.500392
	C140	C	0.510375	0.116722	0.885393
	C141	C	0.494703	0.115600	0.128876
	C142	C	0.510968	0.874387	0.128369
	C143	C	0.494115	0.874300	0.885691
	C144	C	0.380266	0.881781	0.688113
	C145	C	0.625480	0.106935	0.686946
	C146	C	0.627350	0.881679	0.325871
	C147	C	0.381719	0.106755	0.329271
	C148	C	0.682492	0.373910	0.895910
	C149	C	0.681575	0.617721	0.120690
	C150	C	0.321055	0.617152	0.896263
	C151	C	0.322335	0.373354	0.120382
	C152	C	0.888675	0.671916	0.389739
	C153	C	0.116308	0.671961	0.630064
	C154	C	0.889663	0.315479	0.629267
	C155	C	0.116950	0.315847	0.388669
	C156	C	0.890153	0.371703	0.688323
	C157	C	0.115636	0.615472	0.688669
	C158	C	0.889010	0.615760	0.330596
	C159	C	0.115447	0.371101	0.328472
	C160	C	0.379129	0.674777	0.895963
	C161	C	0.622967	0.675404	0.120258
	C162	C	0.623913	0.316486	0.895204
	C163	C	0.379987	0.315050	0.119968
	C164	C	0.682973	0.880560	0.385339
	C165	C	0.681856	0.107360	0.628210
	C166	C	0.325062	0.880180	0.628697
	C167	C	0.324536	0.106451	0.387106
	C168	C	0.879944	0.381995	0.187951
	C169	C	0.123602	0.607730	0.189064
	C170	C	0.126236	0.381297	0.828614
	C171	C	0.880665	0.606734	0.828614
	C172	C	0.183711	0.869219	0.396432
	C173	C	0.183405	0.114386	0.620411
	C174	C	0.825067	0.113876	0.395892
	C175	C	0.822441	0.871465	0.620219
	C176	C	0.388793	0.175072	0.886103
	C177	C	0.616174	0.173279	0.127031
	C178	C	0.389075	0.817085	0.128573
	C179	C	0.615079	0.815045	0.885246
	C180	C	0.390755	0.871640	0.188837
	C181	C	0.615897	0.117358	0.186721
	C182	C	0.389895	0.118649	0.826666
	C183	C	0.615146	0.872420	0.827521
	C184	C	0.882195	0.172634	0.396576
	C185	C	0.125788	0.173136	0.620468
	C186	C	0.125499	0.811485	0.397149
	C187	C	0.881618	0.814931	0.621373
	C188	C	0.181951	0.381025	0.888048
	C189	C	0.179268	0.608700	0.129651
	C190	C	0.823598	0.381733	0.129145
	C191	C	0.824731	0.607816	0.887805
	C192	C	0.406370	0.086443	0.604077
	C193	C	0.599266	0.901422	0.604173
	C194	C	0.601485	0.087446	0.408919
	C195	C	0.407742	0.900406	0.409780
	C196	C	0.600282	0.396985	0.099774
	C197	C	0.600798	0.592415	0.916637
	C198	C	0.403183	0.594244	0.100126
	C199	C	0.404304	0.397660	0.916399
	C200	C	0.095040	0.588910	0.411554
	C201	C	0.909819	0.590958	0.607432
	C202	C	0.096444	0.396601	0.606932
	C203	C	0.909648	0.395960	0.410324
	C204	C	0.905116	0.588255	0.107508
	C205	C	0.099072	0.401866	0.106242
	C206	C	0.098483	0.587224	0.910326
	C207	C	0.906095	0.401169	0.911164
	C208	C	0.101892	0.895575	0.600128
	C209	C	0.101510	0.091347	0.416177
	C210	C	0.905135	0.091690	0.600700
	C211	C	0.906170	0.894615	0.416699
	C212	C	0.594871	0.092240	0.908904
	C213	C	0.410173	0.091261	0.105922
	C214	C	0.594811	0.898900	0.103628
	C215	C	0.409954	0.899396	0.910063
	Zn216	Zn	0.502641	-0.005255	0.756571
	Zn217	Zn	0.503668	-0.005804	0.257827
	Zn218	Zn	0.753826	0.495235	0.008724
	Zn219	Zn	0.251174	0.495795	0.009012
	Zn220	Zn	0.003002	0.742486	0.509747
	Zn221	Zn	0.003289	0.244397	0.508830
	Zn222	Zn	0.002692	0.493362	0.758534
	Zn223	Zn	0.002281	0.494100	0.259085
	Zn224	Zn	0.501707	0.746129	0.007525
	Zn225	Zn	0.502147	0.244375	0.007669
	Zn226	Zn	0.752754	-0.006630	0.507866
	Zn227	Zn	0.254730	-0.007544	0.507457
	N228	N	0.415039	0.958675	0.688037
	N229	N	0.590135	0.030324	0.687116
	N230	N	0.592649	0.958678	0.325402
	N231	N	0.417502	0.030158	0.328759
	N232	N	0.682908	0.408536	0.972101
	N233	N	0.682442	0.582097	0.044979
	N234	N	0.321168	0.582570	0.972191
	N235	N	0.322425	0.408939	0.044770
	N236	N	0.965217	0.670788	0.424832
	N237	N	0.039949	0.671487	0.594685
	N238	N	0.966488	0.315624	0.594378
	N239	N	0.040573	0.316262	0.424184
	N240	N	0.967062	0.406337	0.689019
	N241	N	0.038920	0.580715	0.689225
	N242	N	0.965633	0.580390	0.329707
	N243	N	0.038175	0.405161	0.327112
	N244	N	0.414848	0.675097	0.971541
	N245	N	0.588096	0.675006	0.044344
	N246	N	0.588464	0.316040	0.970954
	N247	N	0.415211	0.315016	0.044091
	N248	N	0.682278	0.956895	0.421318
	N249	N	0.680749	0.031131	0.592277
	N250	N	0.326028	0.956175	0.592386
	N251	N	0.325243	0.029852	0.421985
	N252	N	0.914856	0.458834	0.189086
	N253	N	0.089163	0.530680	0.189495
	N254	N	0.090460	0.457833	0.827935
	N255	N	0.915632	0.529694	0.828258
	N256	N	0.184212	0.905238	0.471974
	N257	N	0.183518	0.079118	0.544533
	N258	N	0.824721	0.078685	0.471663
	N259	N	0.822218	0.905611	0.543993
	N260	N	0.464942	0.174010	0.921763
	N261	N	0.539703	0.172531	0.092123
	N262	N	0.464709	0.818638	0.091493
	N263	N	0.538831	0.816007	0.920808
	N264	N	0.467304	0.906506	0.188846
	N265	N	0.539144	0.082384	0.188280
	N266	N	0.466583	0.083487	0.825993
	N267	N	0.538818	0.908566	0.827652
	N268	N	0.916789	0.173285	0.472563
	N269	N	0.090507	0.173386	0.544691
	N270	N	0.090102	0.812315	0.472838
	N271	N	0.917692	0.814572	0.545885
	N272	N	0.180206	0.457378	0.923792
	N273	N	0.179244	0.532367	0.093936
	N274	N	0.823987	0.458351	0.094465
	N275	N	0.825477	0.531739	0.923716
	O276	O	0.050025	0.114363	-0.091178
	H277	H	0.047862	0.127007	-0.083080
	H278	H	0.048421	0.128295	-0.085694
	O279	O	0.567388	0.622389	0.578550
	H280	H	0.557506	0.608738	0.589233
	H281	H	0.565161	0.619898	0.576369
	O282	O	0.358284	-0.421968	0.354930
	H283	H	0.369365	-0.403490	0.362336
	H284	H	0.353112	-0.421045	0.357256
	O285	O	0.565156	0.439548	0.348967
	H286	H	0.576246	0.433160	0.345945
	H287	H	0.570952	0.439040	0.349405
	O288	O	1.078281	1.085981	0.969460
	H289	H	1.082643	1.071662	0.956820
	H290	H	1.073470	1.083751	0.967864
	O291	O	-0.098289	1.159250	0.048530
	H292	H	-0.105357	1.153975	0.049399
	H293	H	-0.087817	1.166518	0.057800
	O294	O	0.345416	0.541445	0.501375
	H295	H	0.338607	0.540270	0.509451
	H296	H	0.356390	0.537844	0.503584
	O297	O	0.595744	0.380154	0.372474
	H298	H	0.598996	0.374695	0.359821
	H299	H	0.600683	0.380583	0.371647
	O300	O	0.638296	0.678184	0.601301
	H301	H	0.647867	0.675917	0.604064
	H302	H	0.612648	0.688549	0.601308
	O303	O	0.472479	0.589108	0.346642
	H304	H	0.463944	0.592183	0.346972
	H305	H	0.461264	0.599447	0.338378
	O306	O	0.630909	0.370261	0.450590
	H307	H	0.634307	0.360844	0.439914
	H308	H	0.639410	0.380576	0.466462
	O309	O	0.514311	0.504422	0.607478
	H310	H	0.500895	0.493308	0.610053
	H311	H	0.513156	0.499586	0.598416
	O312	O	0.171804	-0.014808	-0.063970
	H313	H	0.171665	-0.031668	-0.069678
	H314	H	0.173527	-0.022643	-0.054877
	O315	O	0.590999	0.375040	0.563411
	H316	H	0.597516	0.389266	0.566842
	H317	H	0.581207	0.371344	0.563023
	O318	O	0.042374	1.195913	0.967122
	H319	H	0.039381	1.187836	0.968286
	H320	H	0.034327	1.203841	0.976936
	O321	O	0.438368	0.335086	0.631430
	H322	H	0.423398	0.336806	0.611600
	H323	H	0.426482	0.322679	0.634193
	O324	O	-0.062875	0.871142	0.116822
	H325	H	-0.058186	0.874623	0.121458
	H326	H	-0.074362	0.864504	0.125324
	O327	O	0.385260	0.641303	0.431515
	H328	H	0.373014	0.634970	0.433859
	H329	H	0.378996	0.646685	0.442484
	O330	O	-0.053900	-0.083758	1.004328
	H331	H	-0.049418	-0.099496	1.008817
	H332	H	-0.052659	-0.068618	0.999059
	O333	O	0.064247	0.188787	1.181596
	H334	H	0.091088	0.198338	1.181420
	H335	H	0.058722	0.197620	1.195568
	O336	O	0.508067	0.528476	0.576215
	H337	H	0.515042	0.525538	0.586827
	H338	H	0.504278	0.523011	0.585550
	O339	O	0.847475	-0.104176	0.027578
	H340	H	0.851929	-0.105236	0.007394
	H341	H	0.839166	-0.113833	0.038986
	O342	O	-0.093807	-0.078892	0.008895
	H343	H	-0.086544	-0.079192	0.011307
	H344	H	-0.098190	-0.074317	0.001337
	O345	O	1.176396	0.085323	1.091305
	H346	H	1.189850	0.085769	1.069440
	H347	H	1.178608	0.075191	1.091035
	O348	O	1.111675	1.006370	0.180548
	H349	H	1.122544	0.998313	0.185528
	H350	H	1.094594	1.020901	0.174433
	O351	O	0.562456	0.451330	0.517990
	H352	H	0.560154	0.452209	0.528551
	H353	H	0.564287	0.455837	0.527775
	O354	O	0.964311	-0.074240	0.970308
	H355	H	0.962728	-0.066884	0.975823
	H356	H	0.980693	-0.069941	0.974242
	O357	O	0.362432	0.476764	0.520363
	H358	H	0.363490	0.479747	0.512608
	H359	H	0.371093	0.490858	0.509343
	O360	O	0.574296	0.616657	0.633235
	H361	H	0.575267	0.617152	0.632972
	H362	H	0.589996	0.618310	0.632802
	O363	O	-0.029933	1.000643	1.016420
	H364	H	-0.032153	1.013892	1.021270
	H365	H	-0.030902	0.988156	1.016923
	O366	O	0.609579	0.486752	0.354503
	H367	H	0.616252	0.486162	0.345184
	H368	H	0.611025	0.473567	0.346503
	O369	O	0.074681	1.063171	-0.102587
	H370	H	0.066087	1.068974	-0.106657
	H371	H	0.090108	1.064929	-0.106391
	O372	O	0.458694	0.423826	0.668640
	H373	H	0.464842	0.411902	0.681977
	H374	H	0.443534	0.408434	0.656116
	O375	O	0.569987	0.592245	0.423453
	H376	H	0.561401	0.593966	0.429438
	H377	H	0.585858	0.587197	0.427352
	O378	O	0.897110	1.169716	-0.163566
	H379	H	0.899153	1.182883	-0.179108
	H380	H	0.906265	1.153575	-0.154822
	O381	O	1.152350	-0.071528	-0.007525
	H382	H	1.147585	-0.078422	-0.005991
	H383	H	1.152033	-0.077594	-0.010649
	O384	O	1.157561	0.877781	-0.105672
	H385	H	1.144643	0.869985	-0.113951
	H386	H	1.168495	0.872531	-0.116198
	O387	O	-0.118846	0.055048	0.003666
	H388	H	-0.118728	0.053954	-0.008254
	H389	H	-0.122436	0.057969	0.000635
	O390	O	-0.066570	1.000358	0.088138
	H391	H	-0.055478	0.997400	0.091252
	H392	H	-0.078849	0.992603	0.101802
	O393	O	1.008667	0.852352	0.964794
	H394	H	1.002821	0.851555	0.971671
	H395	H	0.999253	0.843435	0.963137
	O396	O	0.367069	0.375796	0.543296
	H397	H	0.369981	0.387716	0.526083
	H398	H	0.356072	0.380000	0.542922
	O399	O	-0.145695	0.951829	1.085258
	H400	H	-0.144020	0.950143	1.081642
	H401	H	-0.149077	0.956962	1.083009
	O402	O	0.563183	0.449976	0.628076
	H403	H	0.573378	0.459863	0.626650
	H404	H	0.554409	0.447021	0.634921
	O405	O	0.897806	0.928241	-0.147835
	H406	H	0.901870	0.933675	-0.137008
	H407	H	0.887082	0.938691	-0.150116
	O408	O	1.021528	1.006785	0.201821
	H409	H	1.028005	1.004550	0.188894
	H410	H	1.007784	1.024550	0.208881
	O411	O	1.101623	-0.148449	1.013974
	H412	H	1.103274	-0.144187	1.025202
	H413	H	1.090439	-0.143713	0.994064
	O414	O	0.370183	0.486295	0.633259
	H415	H	0.369668	0.470153	0.634569
	H416	H	0.371770	0.471975	0.637055
	O417	O	0.539148	0.442517	0.345413
	H418	H	0.549990	0.450283	0.345549
	H419	H	0.546061	0.454124	0.341855
