data_Molecule from HDF5

_cell_length_a		16.509727
_cell_length_b		16.477096
_cell_length_c		16.540827
_cell_angle_alpha	90.007888
_cell_angle_beta	89.990994
_cell_angle_gamma	90.088185
_symmetry_space_group_name_H-M	'P 1'
_symmetry_Int_Tables_number		1

loop_
	_symmetry_equiv_pos_as_xyz
	x,y,z

loop_
	_atom_site_label
	_atom_site_type_symbol
	_atom_site_fract_x
	_atom_site_fract_y
	_atom_site_fract_z
	H0	H	0.384808	0.848040	0.732447
	H1	H	0.604077	0.160127	0.729994
	H2	H	0.604910	0.848353	0.281226
	H3	H	0.387728	0.158468	0.281626
	H4	H	0.719001	0.396304	0.847807
	H5	H	0.716078	0.607721	0.160995
	H6	H	0.268660	0.613105	0.850019
	H7	H	0.275153	0.398080	0.162177
	H8	H	0.839181	0.724087	0.402768
	H9	H	0.151802	0.728081	0.617343
	H10	H	0.839367	0.278777	0.612670
	H11	H	0.153360	0.281386	0.399093
	H12	H	0.840361	0.391375	0.731684
	H13	H	0.150769	0.612329	0.732863
	H14	H	0.839280	0.607706	0.285629
	H15	H	0.151961	0.395950	0.281738
	H16	H	0.385113	0.729334	0.848852
	H17	H	0.599409	0.724136	0.161790
	H18	H	0.605156	0.278267	0.849405
	H19	H	0.391949	0.282064	0.161696
	H20	H	0.719864	0.847275	0.398891
	H21	H	0.719984	0.160053	0.614302
	H22	H	0.268384	0.848038	0.617035
	H23	H	0.273880	0.160297	0.399767
	H24	H	0.888628	0.347292	0.228100
	H25	H	0.100142	0.662565	0.225579
	H26	H	0.104453	0.346802	0.781768
	H27	H	0.889006	0.659443	0.781785
	H28	H	0.216824	0.897889	0.349963
	H29	H	0.220379	0.113527	0.661609
	H30	H	0.775045	0.107842	0.350192
	H31	H	0.771392	0.895440	0.663452
	H32	H	0.339127	0.227021	0.898178
	H33	H	0.653255	0.223555	0.109762
	H34	H	0.338628	0.781556	0.111287
	H35	H	0.653000	0.781924	0.898521
	H36	H	0.340389	0.893587	0.230993
	H37	H	0.651773	0.109290	0.227964
	H38	H	0.339096	0.111070	0.781970
	H39	H	0.651429	0.895107	0.780017
	H40	H	0.891231	0.223752	0.348845
	H41	H	0.103855	0.228957	0.661232
	H42	H	0.102354	0.780177	0.351297
	H43	H	0.888178	0.779972	0.663965
	H44	H	0.221075	0.347392	0.897021
	H45	H	0.218121	0.661456	0.111917
	H46	H	0.773379	0.346986	0.110621
	H47	H	0.773464	0.661077	0.898559
	H48	H	0.413611	0.112455	0.592124
	H49	H	0.576932	0.895443	0.589606
	H50	H	0.587353	0.118682	0.414135
	H51	H	0.407243	0.891589	0.419305
	H52	H	0.580756	0.414372	0.115992
	H53	H	0.582601	0.587004	0.894024
	H54	H	0.404081	0.592640	0.117425
	H55	H	0.412034	0.411103	0.893663
	H56	H	0.110801	0.590845	0.410382
	H57	H	0.886083	0.585358	0.595198
	H58	H	0.103454	0.422766	0.591972
	H59	H	0.883292	0.413537	0.415987
	H60	H	0.108493	0.415647	0.597869
	H61	H	0.882534	0.593730	0.597314
	H62	H	0.110648	0.597547	0.419429
	H63	H	0.883297	0.413749	0.416959
	H64	H	0.408431	0.590926	0.115061
	H65	H	0.580207	0.597318	0.891042
	H66	H	0.587331	0.410963	0.118251
	H67	H	0.403470	0.416923	0.892150
	H68	H	0.579073	0.114109	0.416919
	H69	H	0.587383	0.892074	0.588744
	H70	H	0.404520	0.114852	0.588847
	H71	H	0.406261	0.891361	0.417939
	H72	H	0.905341	0.618912	0.099650
	H73	H	0.082204	0.392879	0.093963
	H74	H	0.088723	0.614229	0.923074
	H75	H	0.910735	0.392194	0.916554
	H76	H	0.083437	0.914276	0.619547
	H77	H	0.089874	0.088331	0.393405
	H78	H	0.910820	0.093980	0.618678
	H79	H	0.908258	0.909917	0.395235
	H80	H	0.609165	0.094923	0.915774
	H81	H	0.382056	0.094356	0.095246
	H82	H	0.606293	0.914997	0.088791
	H83	H	0.383333	0.913568	0.919045
	H84	H	0.606969	0.920127	0.096581
	H85	H	0.384734	0.091388	0.090008
	H86	H	0.604443	0.090154	0.923268
	H87	H	0.386753	0.918361	0.920982
	H88	H	0.904828	0.091164	0.619773
	H89	H	0.078897	0.089941	0.396360
	H90	H	0.084511	0.920115	0.617795
	H91	H	0.903273	0.915106	0.394590
	H92	H	0.078667	0.615561	0.913289
	H93	H	0.088409	0.390466	0.093005
	H94	H	0.911669	0.614947	0.093308
	H95	H	0.908255	0.393310	0.922869
	H96	H	0.407270	0.116918	0.598581
	H97	H	0.582126	0.890898	0.598470
	H98	H	0.586849	0.114396	0.422493
	H99	H	0.407988	0.890316	0.417697
	H100	H	0.587476	0.418175	0.116002
	H101	H	0.590342	0.593346	0.889839
	H102	H	0.408336	0.596028	0.116427
	H103	H	0.412355	0.421292	0.896165
	H104	H	0.105943	0.587380	0.420348
	H105	H	0.885602	0.591804	0.588956
	H106	H	0.106272	0.413539	0.587987
	H107	H	0.883844	0.414353	0.416733
	H108	H	0.902533	0.617041	0.090623
	H109	H	0.086139	0.389474	0.099267
	H110	H	0.075513	0.609526	0.925612
	H111	H	0.903886	0.390274	0.918099
	H112	H	0.078828	0.917337	0.617078
	H113	H	0.085170	0.098870	0.391635
	H114	H	0.909823	0.087980	0.617052
	H115	H	0.910222	0.917003	0.396941
	H116	H	0.606222	0.084912	0.914136
	H117	H	0.383876	0.088587	0.095946
	H118	H	0.610337	0.911174	0.096073
	H119	H	0.383932	0.918446	0.914847
	C120	C	0.373575	0.011806	0.627646
	C121	C	0.616377	0.995635	0.626711
	C122	C	0.617472	0.012100	0.384680
	C123	C	0.374190	0.994296	0.384915
	C124	C	0.618696	0.380802	0.013520
	C125	C	0.616341	0.624719	0.995577
	C126	C	0.373102	0.626448	0.013474
	C127	C	0.375889	0.383322	0.997157
	C128	C	0.004985	0.624262	0.385436
	C129	C	0.987464	0.624235	0.628281
	C130	C	0.003516	0.382228	0.626460
	C131	C	0.987156	0.381599	0.383570
	C132	C	0.874241	0.512637	0.126613
	C133	C	0.117555	0.495364	0.127452
	C134	C	0.116134	0.510561	0.885824
	C135	C	0.874096	0.494951	0.884590
	C136	C	0.116567	0.882543	0.515556
	C137	C	0.118253	0.126241	0.497030
	C138	C	0.875934	0.123488	0.514643
	C139	C	0.873190	0.880653	0.498843
	C140	C	0.503700	0.124377	0.884272
	C141	C	0.487214	0.124070	0.126242
	C142	C	0.504159	0.882252	0.127041
	C143	C	0.487499	0.882546	0.883500
	C144	C	0.368045	0.894785	0.691068
	C145	C	0.621169	0.112988	0.689232
	C146	C	0.621775	0.894806	0.322543
	C147	C	0.370420	0.111869	0.322672
	C148	C	0.679218	0.377989	0.895321
	C149	C	0.676413	0.626812	0.113943
	C150	C	0.310007	0.630670	0.896403
	C151	C	0.315182	0.380079	0.114973
	C152	C	0.886372	0.683960	0.383976
	C153	C	0.104701	0.687087	0.633956
	C154	C	0.886296	0.319516	0.630689
	C155	C	0.105480	0.321239	0.381137
	C156	C	0.886900	0.375826	0.689867
	C157	C	0.104246	0.629358	0.691623
	C158	C	0.886271	0.626456	0.325683
	C159	C	0.105138	0.378479	0.322638
	C160	C	0.368258	0.688339	0.895789
	C161	C	0.618220	0.684505	0.114104
	C162	C	0.622817	0.318764	0.896413
	C163	C	0.373226	0.322374	0.114880
	C164	C	0.679376	0.894726	0.380842
	C165	C	0.678935	0.113064	0.631596
	C166	C	0.309756	0.895050	0.633640
	C167	C	0.313414	0.112506	0.381222
	C168	C	0.871245	0.394228	0.187125
	C169	C	0.119048	0.614548	0.186722
	C170	C	0.121618	0.393810	0.822511
	C171	C	0.871044	0.612706	0.822598
	C172	C	0.177282	0.879292	0.397676
	C173	C	0.179499	0.130415	0.614533
	C174	C	0.815528	0.125952	0.396816
	C175	C	0.811924	0.877633	0.616408
	C176	C	0.386183	0.186504	0.880568
	C177	C	0.605654	0.183933	0.128436
	C178	C	0.386089	0.821330	0.129650
	C179	C	0.605527	0.821640	0.880020
	C180	C	0.387034	0.877298	0.189469
	C181	C	0.605054	0.126897	0.187127
	C182	C	0.386063	0.128717	0.822668
	C183	C	0.604648	0.878227	0.821066
	C184	C	0.873431	0.183476	0.396197
	C185	C	0.121851	0.188235	0.614442
	C186	C	0.120237	0.820614	0.398335
	C187	C	0.869924	0.819868	0.616594
	C188	C	0.179513	0.394093	0.880255
	C189	C	0.177807	0.613935	0.129914
	C190	C	0.813593	0.394312	0.128859
	C191	C	0.813425	0.613448	0.880547
	C192	C	0.400634	0.093228	0.600833
	C193	C	0.589655	0.914030	0.599939
	C194	C	0.591666	0.094325	0.410526
	C195	C	0.399810	0.912426	0.410944
	C196	C	0.592631	0.407090	0.095349
	C197	C	0.591340	0.599804	0.913119
	C198	C	0.399388	0.600556	0.094876
	C199	C	0.401811	0.409250	0.915429
	C200	C	0.087549	0.599174	0.409803
	C201	C	0.906148	0.597757	0.601455
	C202	C	0.084783	0.409673	0.600017
	C203	C	0.904991	0.406830	0.408832
	C204	C	0.899429	0.595391	0.101687
	C205	C	0.092568	0.412513	0.102630
	C206	C	0.088769	0.591923	0.912944
	C207	C	0.900157	0.413208	0.911443
	C208	C	0.089907	0.909453	0.596946
	C209	C	0.092214	0.099818	0.415057
	C210	C	0.901205	0.098269	0.596975
	C211	C	0.899567	0.906463	0.417111
	C212	C	0.585513	0.097767	0.910236
	C213	C	0.404844	0.098788	0.100952
	C214	C	0.586345	0.908141	0.101227
	C215	C	0.405710	0.909117	0.910397
	Zn216	Zn	0.495613	0.003876	0.755301
	Zn217	Zn	0.495675	0.003478	0.255993
	Zn218	Zn	0.745553	0.503860	0.004629
	Zn219	Zn	0.245617	0.503489	0.005555
	Zn220	Zn	-0.003876	0.752945	0.507931
	Zn221	Zn	-0.004428	0.253111	0.506051
	Zn222	Zn	-0.004176	0.502192	0.756287
	Zn223	Zn	-0.004318	0.504066	0.255713
	Zn224	Zn	0.495470	0.754240	0.004419
	Zn225	Zn	0.496050	0.253532	0.004960
	Zn226	Zn	0.745945	0.003754	0.506953
	Zn227	Zn	0.245280	0.003639	0.506367
	N228	N	0.406993	0.968451	0.687567
	N229	N	0.582866	0.038914	0.686194
	N230	N	0.583897	0.968901	0.324982
	N231	N	0.407571	0.037286	0.324675
	N232	N	0.676999	0.415748	0.969562
	N233	N	0.675420	0.590587	0.039110
	N234	N	0.312774	0.592982	0.970509
	N235	N	0.316599	0.417069	0.040617
	N236	N	0.961140	0.682821	0.420344
	N237	N	0.030998	0.684064	0.595212
	N238	N	0.959628	0.323597	0.591726
	N239	N	0.031067	0.322844	0.418357
	N240	N	0.960827	0.414312	0.687328
	N241	N	0.030481	0.590915	0.688346
	N242	N	0.961198	0.590216	0.326257
	N243	N	0.030598	0.415190	0.323810
	N244	N	0.406519	0.686180	0.969566
	N245	N	0.581865	0.683627	0.039409
	N246	N	0.585791	0.320425	0.970714
	N247	N	0.410171	0.324115	0.040573
	N248	N	0.676690	0.968723	0.418943
	N249	N	0.676225	0.039114	0.593447
	N250	N	0.313174	0.968836	0.595059
	N251	N	0.315610	0.038510	0.419226
	N252	N	0.908699	0.468692	0.185521
	N253	N	0.082594	0.539424	0.185648
	N254	N	0.082835	0.467392	0.825915
	N255	N	0.908014	0.537994	0.824824
	N256	N	0.175259	0.916900	0.471728
	N257	N	0.177370	0.092678	0.540352
	N258	N	0.816840	0.089565	0.471502
	N259	N	0.813366	0.914275	0.541814
	N260	N	0.460513	0.184063	0.918079
	N261	N	0.531166	0.182435	0.091460
	N262	N	0.460068	0.824066	0.091710
	N263	N	0.531521	0.824093	0.917965
	N264	N	0.461650	0.914231	0.188177
	N265	N	0.530260	0.090519	0.186060
	N266	N	0.460010	0.090881	0.824882
	N267	N	0.529915	0.915081	0.823004
	N268	N	0.910220	0.182001	0.470524
	N269	N	0.084539	0.185804	0.540254
	N270	N	0.083589	0.822197	0.472953
	N271	N	0.907348	0.821562	0.542350
	N272	N	0.176031	0.467793	0.918940
	N273	N	0.177233	0.538760	0.093995
	N274	N	0.815458	0.468892	0.091793
	N275	N	0.815223	0.539201	0.918297
	O276	O	0.469412	0.307612	0.487072
	H277	H	0.466335	0.315069	0.492049
	H278	H	0.479801	0.309095	0.481317
	O279	O	0.535559	0.716488	0.722148
	H280	H	0.525300	0.726245	0.699812
	H281	H	0.540596	0.742161	0.737894
	O282	O	0.811521	1.206063	-0.016294
	H283	H	0.802275	1.215170	-0.008802
	H284	H	0.798377	1.195395	-0.004448
	O285	O	0.487750	0.525451	0.533175
	H286	H	0.483836	0.510976	0.543194
	H287	H	0.507420	0.517061	0.521484
	O288	O	-0.120571	0.154459	0.132612
	H289	H	-0.109994	0.163482	0.120546
	H290	H	-0.124520	0.143056	0.121142
	O291	O	0.963977	1.171344	0.076034
	H292	H	0.956721	1.170311	0.045968
	H293	H	0.987137	1.187091	0.072826
	O294	O	0.054983	1.191528	-0.067867
	H295	H	0.065483	1.189080	-0.070843
	H296	H	0.059218	1.194526	-0.083928
	O297	O	0.691439	0.407272	0.574639
	H298	H	0.684411	0.403902	0.569501
	H299	H	0.702080	0.374529	0.566738
	O300	O	0.460192	0.387719	0.624905
	H301	H	0.443067	0.395357	0.619037
	H302	H	0.451209	0.369380	0.644343
	O303	O	0.652292	0.546509	0.429326
	H304	H	0.652346	0.569490	0.439946
	H305	H	0.642461	0.532214	0.438173
	O306	O	-0.094786	1.014965	1.153385
	H307	H	-0.102306	1.034944	1.147172
	H308	H	-0.085964	1.015754	1.149468
	O309	O	0.485669	0.705143	0.353343
	H310	H	0.487971	0.728369	0.339344
	H311	H	0.510632	0.711372	0.381123
	O312	O	0.319533	0.629581	0.598503
	H313	H	0.333608	0.615623	0.589508
	H314	H	0.321845	0.619631	0.623234
	O315	O	-0.092349	-0.094889	0.808126
	H316	H	-0.088538	-0.084070	0.812011
	H317	H	-0.113292	-0.107278	0.821092
	O318	O	0.209862	1.066615	-0.044302
	H319	H	0.203946	1.044015	-0.043752
	H320	H	0.219722	1.084404	-0.039068
	O321	O	0.522692	0.287947	0.291724
	H322	H	0.530010	0.286655	0.298804
	H323	H	0.531837	0.269497	0.278886
	O324	O	0.814633	0.190256	0.821109
	H325	H	0.808154	0.186487	0.852715
	H326	H	0.798311	0.164164	0.819098
	O327	O	0.971329	0.049183	0.960571
	H328	H	0.985004	0.052128	0.968425
	H329	H	0.972361	0.044079	0.967404
	O330	O	1.181872	0.188364	0.188398
	H331	H	1.195543	0.144942	0.202721
	H332	H	1.153716	0.186511	0.177631
	O333	O	0.779402	0.826527	1.013869
	H334	H	0.757192	0.804874	1.025400
	H335	H	0.779756	0.829835	1.052503
	O336	O	0.876803	0.056684	1.055872
	H337	H	0.871293	0.045024	1.064096
	H338	H	0.886881	0.043351	1.049249
	O339	O	0.317299	0.319067	0.690641
	H340	H	0.299053	0.347451	0.696556
	H341	H	0.308372	0.318128	0.650916
	O342	O	0.715589	0.290144	0.482251
	H343	H	0.732449	0.268583	0.463055
	H344	H	0.703906	0.281691	0.463397
	O345	O	0.023162	0.218876	0.223924
	H346	H	0.030022	0.231315	0.217210
	H347	H	0.020563	0.239577	0.234150
	O348	O	1.210217	-0.052481	0.824068
	H349	H	1.201431	-0.051645	0.814079
	H350	H	1.221440	-0.045363	0.797169
	O351	O	1.088703	0.920715	0.199623
	H352	H	1.080190	0.930488	0.197873
	H353	H	1.092219	0.940935	0.200988
	O354	O	0.284886	0.485759	0.713672
	H355	H	0.311620	0.507957	0.720578
	H356	H	0.265841	0.485223	0.732865
	O357	O	1.191176	0.943210	1.071115
	H358	H	1.196813	0.938038	1.051408
	H359	H	1.178554	0.928130	1.067477
	O360	O	0.532076	0.422873	0.600271
	H361	H	0.522624	0.406647	0.603485
	H362	H	0.498880	0.424983	0.601534
	O363	O	0.562812	0.440020	0.721687
	H364	H	0.553402	0.424326	0.722116
	H365	H	0.572529	0.425414	0.718207
	O366	O	0.712392	0.722431	0.530862
	H367	H	0.725395	0.733279	0.538217
	H368	H	0.721662	0.733943	0.557007
	O369	O	0.286700	0.677387	0.482316
	H370	H	0.263852	0.679286	0.484128
	H371	H	0.273317	0.659319	0.487188
	O372	O	0.425813	0.426887	0.407868
	H373	H	0.422456	0.404858	0.411120
	H374	H	0.417534	0.428779	0.402596
	O375	O	-0.108352	0.964888	1.013084
	H376	H	-0.105167	0.967091	1.004582
	H377	H	-0.096527	0.948945	1.023127
	O378	O	0.796887	0.018527	-0.196750
	H379	H	0.800831	0.011780	-0.191645
	H380	H	0.786457	0.010321	-0.203739
	O381	O	0.966759	0.211163	-0.189885
	H382	H	0.941130	0.214938	-0.190490
	H383	H	0.944831	0.223802	-0.202795
	O384	O	0.286071	-0.663064	0.536951
	H385	H	0.275601	-0.664867	0.527404
	H386	H	0.275916	-0.656976	0.516818
	O387	O	0.014309	0.799582	0.837887
	H388	H	0.005608	0.791126	0.828750
	H389	H	-0.005263	0.798094	0.852342
	O390	O	0.212989	0.218556	1.028456
	H391	H	0.215150	0.205531	1.051444
	H392	H	0.235013	0.242478	1.035287
	O393	O	0.784184	0.996431	0.195834
	H394	H	0.780734	0.990060	0.204271
	H395	H	0.780957	0.963686	0.197590
	O396	O	0.272788	0.491858	0.450710
	H397	H	0.275631	0.493183	0.439312
	H398	H	0.285236	0.493219	0.432312
	O399	O	0.541663	0.332811	0.473971
	H400	H	0.529291	0.345511	0.493164
	H401	H	0.527234	0.335206	0.462439
	O402	O	0.182632	-0.199147	1.010308
	H403	H	0.200072	-0.215050	0.995980
	H404	H	0.183261	-0.201503	0.979403
	O405	O	0.212135	0.028301	0.216292
	H406	H	0.240360	0.026330	0.247487
	H407	H	0.204707	0.000676	0.185981
	O408	O	0.710294	0.527653	0.718434
	H409	H	0.717575	0.502902	0.696258
	H410	H	0.728129	0.519105	0.739710
	O411	O	0.304528	0.696985	0.346434
	H412	H	0.288838	0.718333	0.379625
	H413	H	0.348373	0.703317	0.347105
	O414	O	0.274470	0.562670	0.289205
	H415	H	0.251347	0.576595	0.275521
	H416	H	0.276548	0.586059	0.288971
	O417	O	0.316868	0.350334	0.361055
	H418	H	0.330042	0.344180	0.378757
	H419	H	0.321732	0.349516	0.337087
	O420	O	0.704967	0.702332	0.717121
	H421	H	0.719817	0.670298	0.716672
	H422	H	0.667696	0.692787	0.728822
	O423	O	0.137607	1.056394	-0.194260
	H424	H	0.115323	1.051586	-0.190957
	H425	H	0.133272	1.075310	-0.183953
	O426	O	0.930214	0.853668	0.944209
	H427	H	0.934204	0.848641	0.945374
	H428	H	0.907997	0.851485	0.955725
	O429	O	0.431676	0.580147	0.718653
	H430	H	0.448703	0.610578	0.717704
	H431	H	0.460684	0.565483	0.719294
	O432	O	0.690980	0.308683	0.312627
	H433	H	0.679583	0.342281	0.304710
	H434	H	0.708960	0.293737	0.292902
	O435	O	-0.037655	-0.207607	0.218592
	H436	H	-0.017282	-0.206353	0.231464
	H437	H	-0.017549	-0.215266	0.211647
	O438	O	1.173775	-0.179526	-0.151171
	H439	H	1.143872	-0.180628	-0.162443
	H440	H	1.165012	-0.147874	-0.162178
	O441	O	0.527264	0.659844	0.493417
	H442	H	0.529726	0.651040	0.515213
	H443	H	0.538597	0.667385	0.513443
	O444	O	-0.207699	0.806682	1.166942
	H445	H	-0.229841	0.787706	1.195987
	H446	H	-0.156279	0.798781	1.177069
	O447	O	0.648206	0.505500	0.489054
	H448	H	0.647690	0.513446	0.481391
	H449	H	0.649139	0.506315	0.499834
	O450	O	0.700080	0.477951	0.304654
	H451	H	0.685074	0.488742	0.295705
	H452	H	0.698703	0.484322	0.304488
	O453	O	0.635433	0.700833	0.305006
	H454	H	0.625362	0.689931	0.311863
	H455	H	0.617155	0.685866	0.316800
	O456	O	1.017793	-0.199960	0.035086
	H457	H	1.009684	-0.185089	0.040491
	H458	H	1.049149	-0.213091	0.015752
	O459	O	0.498092	0.514447	0.289440
	H460	H	0.466531	0.506623	0.293079
	H461	H	0.498011	0.530059	0.288259
	O462	O	0.447381	0.698466	0.540693
	H463	H	0.444969	0.675726	0.532245
	H464	H	0.422455	0.699280	0.526778
	O465	O	0.974279	-0.001828	0.013013
	H466	H	0.985918	0.017540	0.029407
	H467	H	0.966760	0.007165	0.005485
