data_Molecule from HDF5

_cell_length_a		16.306988
_cell_length_b		16.260860
_cell_length_c		16.273501
_cell_angle_alpha	90.217879
_cell_angle_beta	90.176098
_cell_angle_gamma	89.824047
_symmetry_space_group_name_H-M	'P 1'
_symmetry_Int_Tables_number		1

loop_
	_symmetry_equiv_pos_as_xyz
	x,y,z

loop_
	_atom_site_label
	_atom_site_type_symbol
	_atom_site_fract_x
	_atom_site_fract_y
	_atom_site_fract_z
	H0	H	0.402269	0.834516	0.710872
	H1	H	0.598790	0.162269	0.713355
	H2	H	0.598225	0.834991	0.283765
	H3	H	0.398876	0.162682	0.281769
	H4	H	0.715217	0.397047	0.832790
	H5	H	0.716095	0.596969	0.160325
	H6	H	0.284340	0.596840	0.833772
	H7	H	0.284736	0.397564	0.160385
	H8	H	0.837834	0.713319	0.398671
	H9	H	0.164196	0.713750	0.597082
	H10	H	0.836738	0.286884	0.594373
	H11	H	0.163811	0.282998	0.398291
	H12	H	0.837131	0.402836	0.709436
	H13	H	0.163548	0.598947	0.714203
	H14	H	0.838070	0.598949	0.281453
	H15	H	0.164549	0.399342	0.282630
	H16	H	0.400323	0.711913	0.833513
	H17	H	0.598701	0.711454	0.161262
	H18	H	0.598645	0.282108	0.833091
	H19	H	0.403778	0.284050	0.161330
	H20	H	0.715100	0.835655	0.397361
	H21	H	0.714774	0.162719	0.597571
	H22	H	0.285367	0.834733	0.595602
	H23	H	0.283136	0.162302	0.398047
	H24	H	0.903252	0.334591	0.212135
	H25	H	0.098794	0.662584	0.211580
	H26	H	0.097915	0.334495	0.782776
	H27	H	0.900959	0.662470	0.784316
	H28	H	0.214937	0.898725	0.333841
	H29	H	0.215942	0.099871	0.659816
	H30	H	0.785054	0.097751	0.333123
	H31	H	0.787058	0.902106	0.660463
	H32	H	0.337693	0.212294	0.898646
	H33	H	0.664035	0.211649	0.096991
	H34	H	0.337075	0.783118	0.095510
	H35	H	0.664262	0.782250	0.899577
	H36	H	0.336294	0.900804	0.210583
	H37	H	0.663180	0.097489	0.214084
	H38	H	0.337364	0.097682	0.782272
	H39	H	0.663901	0.898054	0.782203
	H40	H	0.900365	0.214353	0.333196
	H41	H	0.098371	0.213240	0.661098
	H42	H	0.100226	0.783554	0.333960
	H43	H	0.903198	0.785687	0.660671
	H44	H	0.215247	0.334479	0.897198
	H45	H	0.215734	0.661459	0.097243
	H46	H	0.788060	0.332904	0.093540
	H47	H	0.784653	0.661254	0.898454
	H48	H	0.405081	0.116279	0.593664
	H49	H	0.591829	0.884183	0.583395
	H50	H	0.593871	0.115277	0.409516
	H51	H	0.417453	0.886341	0.402640
	H52	H	0.585346	0.406011	0.110677
	H53	H	0.591317	0.589132	0.881058
	H54	H	0.412910	0.588855	0.111618
	H55	H	0.409038	0.399730	0.879898
	H56	H	0.117377	0.580424	0.394003
	H57	H	0.881049	0.590566	0.604918
	H58	H	0.115180	0.406249	0.584358
	H59	H	0.885456	0.415619	0.399801
	H60	H	0.116471	0.412003	0.594489
	H61	H	0.881974	0.607214	0.586028
	H62	H	0.122810	0.605385	0.401066
	H63	H	0.881452	0.399624	0.398571
	H64	H	0.406701	0.596364	0.115903
	H65	H	0.592233	0.590744	0.879937
	H66	H	0.598645	0.395817	0.116716
	H67	H	0.402416	0.405727	0.879760
	H68	H	0.594812	0.117818	0.401334
	H69	H	0.601164	0.880224	0.590358
	H70	H	0.411610	0.113273	0.590413
	H71	H	0.402419	0.883985	0.412955
	H72	H	0.907250	0.611462	0.082216
	H73	H	0.089999	0.382375	0.089935
	H74	H	0.079685	0.609781	0.910670
	H75	H	0.903409	0.379713	0.900807
	H76	H	0.088364	0.901858	0.613945
	H77	H	0.090493	0.091734	0.380956
	H78	H	0.905824	0.098299	0.615281
	H79	H	0.908621	0.912377	0.381575
	H80	H	0.615704	0.089104	0.909177
	H81	H	0.380842	0.103587	0.089289
	H82	H	0.615830	0.908899	0.094618
	H83	H	0.383444	0.910381	0.895786
	H84	H	0.618665	0.899327	0.093373
	H85	H	0.388806	0.085685	0.079016
	H86	H	0.616671	0.084961	0.900881
	H87	H	0.381209	0.895744	0.902556
	H88	H	0.903251	0.090415	0.613394
	H89	H	0.092464	0.093338	0.380070
	H90	H	0.100403	0.905110	0.615863
	H91	H	0.912408	0.901722	0.380946
	H92	H	0.105770	0.616419	0.914700
	H93	H	0.094612	0.381541	0.086573
	H94	H	0.901917	0.616502	0.092218
	H95	H	0.910718	0.381442	0.899152
	H96	H	0.405363	0.114297	0.585640
	H97	H	0.589650	0.881581	0.595085
	H98	H	0.587254	0.114923	0.404443
	H99	H	0.402133	0.879054	0.395909
	H100	H	0.601868	0.412019	0.112893
	H101	H	0.593785	0.589254	0.881290
	H102	H	0.402753	0.587346	0.113140
	H103	H	0.409646	0.408043	0.882942
	H104	H	0.112623	0.588721	0.417982
	H105	H	0.889823	0.583619	0.582633
	H106	H	0.120576	0.400319	0.593784
	H107	H	0.887842	0.405845	0.413016
	H108	H	0.913129	0.613678	0.092920
	H109	H	0.094653	0.381191	0.091639
	H110	H	0.094330	0.619719	0.890785
	H111	H	0.908236	0.382542	0.906544
	H112	H	0.092067	0.913525	0.611148
	H113	H	0.092602	0.089208	0.380297
	H114	H	0.910965	0.092867	0.612114
	H115	H	0.900815	0.903494	0.378089
	H116	H	0.619145	0.093921	0.902771
	H117	H	0.382731	0.085157	0.100728
	H118	H	0.614633	0.904716	0.085294
	H119	H	0.388526	0.907665	0.911485
	C120	C	0.378750	0.006461	0.618371
	C121	C	0.622327	0.990332	0.618799
	C122	C	0.620923	0.007439	0.376244
	C123	C	0.377780	0.990757	0.374776
	C124	C	0.623415	0.375248	0.005369
	C125	C	0.621551	0.618575	0.988724
	C126	C	0.378552	0.619293	0.005318
	C127	C	0.378991	0.375781	0.989126
	C128	C	0.009548	0.620298	0.375618
	C129	C	0.992241	0.621941	0.620004
	C130	C	0.009272	0.378207	0.618458
	C131	C	0.992749	0.377296	0.375145
	C132	C	0.878930	0.505985	0.118168
	C133	C	0.122063	0.489755	0.118646
	C134	C	0.121791	0.506894	0.875894
	C135	C	0.878644	0.489568	0.874834
	C136	C	0.122172	0.877487	0.505650
	C137	C	0.120931	0.120549	0.488694
	C138	C	0.877631	0.122055	0.505420
	C139	C	0.879074	0.877975	0.488144
	C140	C	0.509124	0.118785	0.875713
	C141	C	0.492296	0.119727	0.118754
	C142	C	0.508626	0.876308	0.119077
	C143	C	0.492080	0.875352	0.875116
	C144	C	0.381805	0.883211	0.673008
	C145	C	0.619052	0.113534	0.674964
	C146	C	0.618516	0.884102	0.321106
	C147	C	0.379310	0.113807	0.319838
	C148	C	0.677511	0.377033	0.881697
	C149	C	0.677661	0.616746	0.111646
	C150	C	0.322904	0.616835	0.882472
	C151	C	0.323420	0.377779	0.111752
	C152	C	0.886647	0.675453	0.378393
	C153	C	0.115246	0.676419	0.617710
	C154	C	0.885769	0.324263	0.615070
	C155	C	0.115474	0.321519	0.377996
	C156	C	0.885812	0.382032	0.672221
	C157	C	0.115097	0.619556	0.676013
	C158	C	0.886727	0.618582	0.319944
	C159	C	0.115517	0.378870	0.320000
	C160	C	0.380667	0.674079	0.882526
	C161	C	0.619504	0.673919	0.112200
	C162	C	0.619824	0.319836	0.882042
	C163	C	0.382542	0.321445	0.112344
	C164	C	0.676787	0.884378	0.377618
	C165	C	0.676687	0.113879	0.617410
	C166	C	0.323535	0.883526	0.615909
	C167	C	0.321526	0.113618	0.377279
	C168	C	0.882037	0.383102	0.173734
	C169	C	0.119400	0.613309	0.173930
	C170	C	0.118920	0.383436	0.820484
	C171	C	0.880735	0.613291	0.821285
	C172	C	0.177021	0.878994	0.382685
	C173	C	0.177541	0.119607	0.611219
	C174	C	0.822313	0.119048	0.382172
	C175	C	0.824520	0.881310	0.611536
	C176	C	0.386616	0.174911	0.877722
	C177	C	0.615192	0.174230	0.117049
	C178	C	0.385607	0.821322	0.116141
	C179	C	0.615253	0.819843	0.878367
	C180	C	0.385424	0.879318	0.173710
	C181	C	0.614726	0.117379	0.175382
	C182	C	0.386264	0.117313	0.820311
	C183	C	0.615079	0.877229	0.819974
	C184	C	0.879932	0.176833	0.382244
	C185	C	0.119300	0.176056	0.611783
	C186	C	0.120237	0.821264	0.382975
	C187	C	0.882117	0.823376	0.611553
	C188	C	0.177253	0.383598	0.877201
	C189	C	0.177700	0.612794	0.117373
	C190	C	0.825104	0.382353	0.114754
	C191	C	0.822995	0.612741	0.878166
	C192	C	0.400785	0.092376	0.596325
	C193	C	0.600667	0.904417	0.596211
	C194	C	0.598545	0.093797	0.398603
	C195	C	0.400747	0.905096	0.397279
	C196	C	0.601707	0.398036	0.091186
	C197	C	0.599207	0.596372	0.902998
	C198	C	0.401003	0.597157	0.091412
	C199	C	0.400698	0.397947	0.903054
	C200	C	0.095397	0.598020	0.397797
	C201	C	0.906543	0.600049	0.597968
	C202	C	0.095097	0.399717	0.597139
	C203	C	0.907104	0.400400	0.397381
	C204	C	0.900945	0.591627	0.095738
	C205	C	0.099744	0.403918	0.096046
	C206	C	0.099607	0.593007	0.898531
	C207	C	0.900941	0.403552	0.895918
	C208	C	0.100175	0.900312	0.591500
	C209	C	0.098287	0.098028	0.402583
	C210	C	0.899975	0.100201	0.591360
	C211	C	0.900801	0.899528	0.402432
	C212	C	0.595034	0.095972	0.897987
	C213	C	0.406294	0.097911	0.096065
	C214	C	0.594152	0.897928	0.097523
	C215	C	0.406652	0.897825	0.896828
	Zn216	Zn	0.500454	-0.002201	0.747013
	Zn217	Zn	0.499699	-0.001268	0.247395
	Zn218	Zn	0.750462	0.497024	-0.004105
	Zn219	Zn	0.250197	0.497783	-0.002795
	Zn220	Zn	0.000995	0.749341	0.497423
	Zn221	Zn	0.000527	0.249418	0.497105
	Zn222	Zn	0.000718	0.499277	0.747421
	Zn223	Zn	0.001154	0.498861	0.246723
	Zn224	Zn	0.500353	0.747043	-0.002448
	Zn225	Zn	0.501029	0.247788	-0.002712
	Zn226	Zn	0.749824	-0.000337	0.496833
	Zn227	Zn	0.249384	-0.000933	0.496887
	N228	N	0.415123	0.960690	0.674801
	N229	N	0.585883	0.035626	0.675970
	N230	N	0.584401	0.961679	0.320064
	N231	N	0.413488	0.036287	0.318182
	N232	N	0.679891	0.410685	0.959347
	N233	N	0.679129	0.583031	0.033982
	N234	N	0.321513	0.583698	0.959988
	N235	N	0.321064	0.410840	0.034063
	N236	N	0.964105	0.676710	0.412218
	N237	N	0.038066	0.677970	0.583618
	N238	N	0.963315	0.321866	0.582099
	N239	N	0.038101	0.320278	0.411368
	N240	N	0.963593	0.414915	0.674547
	N241	N	0.037645	0.586360	0.677630
	N242	N	0.964172	0.584924	0.318250
	N243	N	0.038142	0.413101	0.318478
	N244	N	0.414436	0.675920	0.960180
	N245	N	0.585134	0.674939	0.034946
	N246	N	0.586989	0.318461	0.959776
	N247	N	0.416222	0.320055	0.034900
	N248	N	0.678157	0.962159	0.411177
	N249	N	0.678812	0.036425	0.583214
	N250	N	0.321372	0.961256	0.582556
	N251	N	0.320486	0.036246	0.410824
	N252	N	0.914907	0.460800	0.175754
	N253	N	0.085585	0.535782	0.174992
	N254	N	0.085113	0.461091	0.819647
	N255	N	0.914994	0.535816	0.819192
	N256	N	0.178499	0.913268	0.460032
	N257	N	0.178400	0.085512	0.533721
	N258	N	0.821021	0.085636	0.459753
	N259	N	0.822536	0.914511	0.533978
	N260	N	0.463997	0.175913	0.911545
	N261	N	0.537936	0.175780	0.082611
	N262	N	0.462952	0.819300	0.082834
	N263	N	0.537755	0.818389	0.911861
	N264	N	0.462800	0.912751	0.175715
	N265	N	0.537187	0.084438	0.176585
	N266	N	0.463627	0.083300	0.818891
	N267	N	0.537827	0.911138	0.817873
	N268	N	0.913396	0.179135	0.460017
	N269	N	0.084823	0.176649	0.534474
	N270	N	0.086767	0.820337	0.460529
	N271	N	0.915414	0.821203	0.533958
	N272	N	0.178943	0.461315	0.911132
	N273	N	0.179238	0.535208	0.083447
	N274	N	0.823021	0.459839	0.081005
	N275	N	0.821355	0.534868	0.910393
	O276	O	1.042978	0.926892	-0.003502
	H277	H	1.042068	0.933642	0.009173
	H278	H	1.035932	0.936378	-0.009428
	O279	O	-0.032286	0.024035	0.964140
	H280	H	-0.032418	0.015033	0.954388
	H281	H	-0.022078	0.022416	0.954826
	O282	O	0.038230	-0.020364	0.012443
	H283	H	0.032761	-0.005034	0.012843
	H284	H	0.038470	-0.014031	0.021540
	O285	O	0.549416	0.433372	0.439416
	H286	H	0.548408	0.434914	0.425411
	H287	H	0.552963	0.431756	0.440580
	O288	O	-0.028652	0.003740	-0.067121
	H289	H	-0.038538	0.005355	-0.067918
	H290	H	-0.028318	0.006959	-0.055232
	O291	O	-0.038027	0.898662	-0.030861
	H292	H	-0.038417	0.892847	-0.037181
	H293	H	-0.030262	0.885504	-0.034458
	O294	O	-0.007171	0.985595	0.005009
	H295	H	-0.003989	0.994138	0.010124
	H296	H	-0.004328	0.979707	0.013351
	O297	O	0.542535	0.505807	0.427093
	H298	H	0.547862	0.495409	0.429104
	H299	H	0.544576	0.512941	0.426618
	O300	O	0.542801	0.489002	0.496428
	H301	H	0.542308	0.478590	0.505364
	H302	H	0.538683	0.490070	0.495835
	O303	O	1.002357	0.018041	0.976519
	H304	H	1.009259	0.021035	0.981406
	H305	H	0.992950	0.015206	0.988664
	O306	O	0.057295	0.929772	0.866742
	H307	H	0.065127	0.924220	0.872477
	H308	H	0.065029	0.923512	0.851378
	O309	O	0.078249	1.008853	1.072096
	H310	H	0.077567	1.015574	1.081210
	H311	H	0.075754	1.012766	1.066605
	O312	O	0.051539	-0.069976	1.009647
	H313	H	0.055010	-0.066999	1.016281
	H314	H	0.054365	-0.071625	1.008927
	O315	O	0.494907	0.602598	0.454034
	H316	H	0.498278	0.596497	0.447228
	H317	H	0.515637	0.610875	0.462700
	O318	O	-0.007018	0.009859	1.020863
	H319	H	-0.001529	0.003986	1.024126
	H320	H	-0.015180	0.000404	1.016276
	O321	O	0.533947	0.480501	0.454474
	H322	H	0.542158	0.464015	0.453331
	H323	H	0.538287	0.491700	0.451861
	O324	O	1.064746	0.061737	1.041738
	H325	H	1.061211	0.053835	1.029702
	H326	H	1.063836	0.066987	1.050443
	O327	O	0.931583	0.979614	1.006458
	H328	H	0.927419	0.982635	1.006604
	H329	H	0.940854	0.980874	0.996708
	O330	O	0.531989	0.480105	0.554782
	H331	H	0.523221	0.472643	0.555796
	H332	H	0.528942	0.480020	0.559184
	O333	O	0.538051	0.525490	0.459614
	H334	H	0.535310	0.530304	0.456220
	H335	H	0.536152	0.525227	0.457038
	O336	O	0.545071	0.592876	0.416540
	H337	H	0.549063	0.594387	0.421981
	H338	H	0.549959	0.589202	0.427522
	O339	O	0.538611	0.472586	0.469473
	H340	H	0.543410	0.473451	0.471004
	H341	H	0.530777	0.479043	0.474420
	O342	O	0.484361	0.569657	0.458891
	H343	H	0.482520	0.574621	0.452794
	H344	H	0.472177	0.584296	0.451291
	O345	O	0.509014	0.486089	0.528452
	H346	H	0.502929	0.494082	0.525016
	H347	H	0.519556	0.481579	0.531981
