data_Molecule from HDF5

_cell_length_a		16.245911
_cell_length_b		16.291476
_cell_length_c		16.372578
_cell_angle_alpha	90.043257
_cell_angle_beta	90.001855
_cell_angle_gamma	89.946905
_symmetry_space_group_name_H-M	'P 1'
_symmetry_Int_Tables_number		1

loop_
	_symmetry_equiv_pos_as_xyz
	x,y,z

loop_
	_atom_site_label
	_atom_site_type_symbol
	_atom_site_fract_x
	_atom_site_fract_y
	_atom_site_fract_z
	H0	H	0.403154	0.836422	0.718141
	H1	H	0.602726	0.162480	0.718221
	H2	H	0.603362	0.836760	0.287784
	H3	H	0.403496	0.162553	0.287485
	H4	H	0.719155	0.401043	0.840109
	H5	H	0.718981	0.599995	0.165932
	H6	H	0.288979	0.598822	0.840200
	H7	H	0.288726	0.402891	0.165890
	H8	H	0.839785	0.713151	0.405845
	H9	H	0.166918	0.715285	0.602228
	H10	H	0.839167	0.286340	0.601003
	H11	H	0.167248	0.286041	0.405719
	H12	H	0.839830	0.400839	0.718239
	H13	H	0.166693	0.600016	0.718590
	H14	H	0.840823	0.600610	0.287423
	H15	H	0.167148	0.399293	0.287772
	H16	H	0.404734	0.715787	0.840005
	H17	H	0.601783	0.715959	0.165553
	H18	H	0.602823	0.284164	0.840309
	H19	H	0.403454	0.285791	0.166011
	H20	H	0.718146	0.836615	0.404466
	H21	H	0.716426	0.164061	0.599845
	H22	H	0.289915	0.835999	0.599626
	H23	H	0.289470	0.163665	0.405269
	H24	H	0.903110	0.338675	0.219716
	H25	H	0.102993	0.663488	0.219359
	H26	H	0.103466	0.337408	0.788294
	H27	H	0.903363	0.663327	0.787592
	H28	H	0.218342	0.899874	0.340148
	H29	H	0.217411	0.096502	0.665781
	H30	H	0.788979	0.097772	0.339382
	H31	H	0.788991	0.903024	0.666014
	H32	H	0.339424	0.215520	0.904051
	H33	H	0.666920	0.214921	0.101556
	H34	H	0.339645	0.786817	0.100259
	H35	H	0.667622	0.786555	0.904464
	H36	H	0.340285	0.900703	0.218827
	H37	H	0.666918	0.099962	0.218061
	H38	H	0.340004	0.100997	0.786453
	H39	H	0.666558	0.900538	0.787896
	H40	H	0.904710	0.215263	0.339798
	H41	H	0.101716	0.214153	0.666175
	H42	H	0.101182	0.785563	0.339677
	H43	H	0.904118	0.785370	0.665726
	H44	H	0.218329	0.337680	0.905235
	H45	H	0.215627	0.665383	0.100138
	H46	H	0.788936	0.337795	0.101577
	H47	H	0.790008	0.664450	0.905692
	H48	H	0.408731	0.117181	0.599301
	H49	H	0.597688	0.883809	0.593795
	H50	H	0.589332	0.113717	0.412878
	H51	H	0.408521	0.882903	0.409565
	H52	H	0.593606	0.402942	0.118693
	H53	H	0.592366	0.593411	0.888999
	H54	H	0.402508	0.588950	0.119487
	H55	H	0.410894	0.402849	0.886640
	H56	H	0.120906	0.602439	0.415669
	H57	H	0.887249	0.586208	0.601562
	H58	H	0.118652	0.405366	0.590570
	H59	H	0.887067	0.404667	0.414020
	H60	H	0.118621	0.413092	0.600137
	H61	H	0.883834	0.600655	0.598172
	H62	H	0.117458	0.584777	0.415351
	H63	H	0.889205	0.413915	0.414028
	H64	H	0.418448	0.590735	0.115831
	H65	H	0.598091	0.597883	0.885630
	H66	H	0.600955	0.407563	0.119113
	H67	H	0.407017	0.410011	0.886818
	H68	H	0.600886	0.117157	0.414017
	H69	H	0.597566	0.882814	0.597993
	H70	H	0.415537	0.114543	0.596890
	H71	H	0.411557	0.882735	0.407154
	H72	H	0.914094	0.614313	0.091382
	H73	H	0.108025	0.382391	0.093477
	H74	H	0.096893	0.616489	0.911842
	H75	H	0.918104	0.388529	0.917003
	H76	H	0.093699	0.892125	0.621568
	H77	H	0.097390	0.095374	0.385965
	H78	H	0.905990	0.094535	0.620158
	H79	H	0.912716	0.909714	0.388454
	H80	H	0.618755	0.088559	0.907992
	H81	H	0.389890	0.092776	0.088116
	H82	H	0.618643	0.908473	0.090313
	H83	H	0.385105	0.905839	0.907204
	H84	H	0.619512	0.913510	0.098992
	H85	H	0.387175	0.085870	0.100926
	H86	H	0.620890	0.096191	0.908468
	H87	H	0.387410	0.907632	0.913816
	H88	H	0.910535	0.090153	0.616808
	H89	H	0.098105	0.090883	0.387853
	H90	H	0.110767	0.913085	0.620727
	H91	H	0.912017	0.902266	0.386074
	H92	H	0.097349	0.618270	0.907319
	H93	H	0.091178	0.382399	0.108051
	H94	H	0.905165	0.619023	0.096550
	H95	H	0.902167	0.382622	0.912616
	H96	H	0.409227	0.114498	0.591591
	H97	H	0.593780	0.883904	0.596448
	H98	H	0.595276	0.117855	0.403550
	H99	H	0.412111	0.883609	0.410552
	H100	H	0.593748	0.410933	0.116173
	H101	H	0.599729	0.589999	0.887638
	H102	H	0.409907	0.604178	0.121285
	H103	H	0.414570	0.408933	0.889373
	H104	H	0.124273	0.592688	0.400284
	H105	H	0.890103	0.591367	0.587909
	H106	H	0.123412	0.401518	0.600884
	H107	H	0.886814	0.409383	0.406187
	H108	H	0.914838	0.618281	0.102046
	H109	H	0.087713	0.389790	0.086640
	H110	H	0.093328	0.616926	0.909335
	H111	H	0.914838	0.381933	0.900492
	H112	H	0.085475	0.916272	0.612159
	H113	H	0.094227	0.092517	0.388407
	H114	H	0.912028	0.096921	0.618959
	H115	H	0.905807	0.907347	0.385350
	H116	H	0.618124	0.092104	0.914555
	H117	H	0.383336	0.100330	0.099656
	H118	H	0.622234	0.903875	0.098514
	H119	H	0.387841	0.912341	0.908039
	C120	C	0.382319	0.007659	0.624206
	C121	C	0.624931	0.991429	0.624423
	C122	C	0.624271	0.008078	0.381638
	C123	C	0.381744	0.991094	0.380593
	C124	C	0.625467	0.377863	0.010972
	C125	C	0.625339	0.622541	0.994839
	C126	C	0.381578	0.623021	0.011162
	C127	C	0.381653	0.378745	0.995219
	C128	C	0.012480	0.621568	0.381959
	C129	C	0.995028	0.621695	0.624763
	C130	C	0.011683	0.378285	0.625278
	C131	C	0.995560	0.379469	0.382172
	C132	C	0.882104	0.509738	0.125203
	C133	C	0.124578	0.492760	0.124673
	C134	C	0.125083	0.509233	0.881253
	C135	C	0.882331	0.492220	0.881495
	C136	C	0.125360	0.878094	0.510785
	C137	C	0.125062	0.121308	0.495038
	C138	C	0.881097	0.122248	0.510947
	C139	C	0.881514	0.878368	0.494494
	C140	C	0.511182	0.121435	0.881503
	C141	C	0.494920	0.121772	0.124671
	C142	C	0.512128	0.879218	0.124643
	C143	C	0.495235	0.879682	0.881661
	C144	C	0.383739	0.884840	0.679681
	C145	C	0.622845	0.114157	0.679793
	C146	C	0.622998	0.885582	0.325879
	C147	C	0.383230	0.114129	0.325839
	C148	C	0.681180	0.380451	0.888733
	C149	C	0.680626	0.620095	0.117299
	C150	C	0.326558	0.620023	0.888867
	C151	C	0.326623	0.381978	0.117446
	C152	C	0.888886	0.676276	0.384791
	C153	C	0.118196	0.676975	0.622275
	C154	C	0.888512	0.323493	0.622271
	C155	C	0.118200	0.323257	0.384254
	C156	C	0.888850	0.380247	0.680592
	C157	C	0.117940	0.619707	0.680059
	C158	C	0.889302	0.620042	0.326367
	C159	C	0.118057	0.379818	0.325876
	C160	C	0.384294	0.677961	0.888800
	C161	C	0.622752	0.677962	0.117129
	C162	C	0.623157	0.322542	0.888591
	C163	C	0.383756	0.323744	0.117387
	C164	C	0.679658	0.885222	0.383902
	C165	C	0.679377	0.114845	0.621048
	C166	C	0.327369	0.884686	0.621073
	C167	C	0.326796	0.114419	0.384281
	C168	C	0.883069	0.387053	0.181240
	C169	C	0.123146	0.615294	0.180525
	C170	C	0.123629	0.386279	0.826247
	C171	C	0.883668	0.614787	0.825510
	C172	C	0.180577	0.880109	0.388525
	C173	C	0.180055	0.117917	0.617345
	C174	C	0.826068	0.119297	0.388186
	C175	C	0.826480	0.881837	0.617244
	C176	C	0.388232	0.177394	0.883604
	C177	C	0.618067	0.176990	0.122189
	C178	C	0.388563	0.824428	0.121598
	C179	C	0.618530	0.824275	0.884085
	C180	C	0.389058	0.880860	0.180375
	C181	C	0.617945	0.120189	0.180345
	C182	C	0.388569	0.120578	0.825077
	C183	C	0.618240	0.880845	0.826239
	C184	C	0.883811	0.177321	0.388213
	C185	C	0.122089	0.176054	0.617616
	C186	C	0.122441	0.822853	0.388448
	C187	C	0.883742	0.823431	0.617202
	C188	C	0.180555	0.386278	0.884363
	C189	C	0.179189	0.616102	0.121533
	C190	C	0.826911	0.386613	0.122137
	C191	C	0.827340	0.615497	0.884306
	C192	C	0.404697	0.093169	0.602377
	C193	C	0.602831	0.905603	0.602565
	C194	C	0.601789	0.094085	0.403723
	C195	C	0.404176	0.905197	0.402491
	C196	C	0.602737	0.400409	0.095958
	C197	C	0.603247	0.600292	0.909372
	C198	C	0.403936	0.601172	0.096801
	C199	C	0.404117	0.400947	0.909669
	C200	C	0.098562	0.599467	0.403949
	C201	C	0.909143	0.599264	0.602288
	C202	C	0.098050	0.400098	0.603563
	C203	C	0.909841	0.402709	0.404681
	C204	C	0.904737	0.595117	0.103153
	C205	C	0.102289	0.407096	0.102515
	C206	C	0.102491	0.595076	0.903105
	C207	C	0.905056	0.406560	0.903508
	C208	C	0.103228	0.900484	0.596174
	C209	C	0.102903	0.099470	0.409509
	C210	C	0.903101	0.100494	0.596390
	C211	C	0.903746	0.899818	0.408965
	C212	C	0.597003	0.098885	0.903847
	C213	C	0.408894	0.099578	0.102717
	C214	C	0.597886	0.901846	0.102334
	C215	C	0.409150	0.902030	0.903372
	Zn216	Zn	0.503080	-0.000407	0.752702
	Zn217	Zn	0.503409	0.000389	0.253274
	Zn218	Zn	0.753986	0.500936	0.003008
	Zn219	Zn	0.253175	0.501373	0.003242
	Zn220	Zn	0.003401	0.749763	0.503020
	Zn221	Zn	0.003196	0.250730	0.502714
	Zn222	Zn	0.003544	0.500287	0.752997
	Zn223	Zn	0.004030	0.500720	0.253741
	Zn224	Zn	0.503580	0.751744	0.002665
	Zn225	Zn	0.503026	0.249718	0.003199
	Zn226	Zn	0.753029	-0.000076	0.502421
	Zn227	Zn	0.254096	-0.000656	0.502583
	N228	N	0.417287	0.962391	0.681679
	N229	N	0.589620	0.036490	0.681876
	N230	N	0.589254	0.963232	0.324351
	N231	N	0.416639	0.036762	0.323602
	N232	N	0.682715	0.414227	0.965824
	N233	N	0.682182	0.586329	0.040271
	N234	N	0.324926	0.586684	0.965936
	N235	N	0.325017	0.415414	0.040405
	N236	N	0.966270	0.677122	0.418950
	N237	N	0.040659	0.678150	0.588256
	N238	N	0.965954	0.322244	0.588590
	N239	N	0.041122	0.323116	0.418610
	N240	N	0.966621	0.413765	0.682395
	N241	N	0.040494	0.585976	0.681524
	N242	N	0.967173	0.586709	0.324602
	N243	N	0.040621	0.414122	0.324536
	N244	N	0.418135	0.679501	0.965951
	N245	N	0.589197	0.679692	0.040064
	N246	N	0.589388	0.320731	0.965521
	N247	N	0.417218	0.321660	0.040082
	N248	N	0.680702	0.962400	0.417771
	N249	N	0.680766	0.037520	0.587413
	N250	N	0.326488	0.961790	0.587258
	N251	N	0.325549	0.036651	0.417544
	N252	N	0.916622	0.464469	0.183341
	N253	N	0.089942	0.537722	0.182565
	N254	N	0.089914	0.463659	0.824157
	N255	N	0.917195	0.537107	0.823775
	N256	N	0.182278	0.913767	0.465600
	N257	N	0.181847	0.084613	0.540241
	N258	N	0.824476	0.085710	0.465188
	N259	N	0.825067	0.915321	0.540104
	N260	N	0.465389	0.177983	0.918058
	N261	N	0.540692	0.178035	0.088290
	N262	N	0.466043	0.823128	0.087791
	N263	N	0.540959	0.823461	0.917919
	N264	N	0.466843	0.914252	0.182230
	N265	N	0.540222	0.086441	0.182015
	N266	N	0.466059	0.086426	0.823693
	N267	N	0.540744	0.914651	0.824698
	N268	N	0.917137	0.179518	0.465454
	N269	N	0.088743	0.178397	0.540363
	N270	N	0.088708	0.821505	0.465467
	N271	N	0.917274	0.821249	0.540034
	N272	N	0.181626	0.463707	0.917839
	N273	N	0.180157	0.538823	0.087392
	N274	N	0.826005	0.463797	0.088137
	N275	N	0.826222	0.538409	0.918252
	O276	O	0.440693	0.464095	-0.524760
	H277	H	0.441646	0.468063	-0.533686
	H278	H	0.443253	0.474479	-0.522474
	O279	O	0.074655	0.010171	0.003365
	H280	H	0.072494	0.013475	-0.001744
	H281	H	0.077608	0.001236	0.003615
	O282	O	-0.052384	0.040183	0.983207
	H283	H	-0.045279	0.046755	0.991334
	H284	H	-0.058652	0.042240	0.977154
	O285	O	0.516490	0.460803	0.493656
	H286	H	0.522496	0.456558	0.493445
	H287	H	0.522390	0.454197	0.493227
	O288	O	0.516041	0.485682	0.521402
	H289	H	0.515453	0.483719	0.523927
	H290	H	0.521068	0.486129	0.520102
	O291	O	0.510494	0.421235	0.510553
	H292	H	0.509982	0.414759	0.516108
	H293	H	0.505509	0.413331	0.510453
	O294	O	-0.010054	0.071243	0.013978
	H295	H	-0.010324	0.074500	0.012037
	H296	H	-0.010498	0.072244	0.016330
	O297	O	0.522775	0.467492	0.475125
	H298	H	0.522676	0.473263	0.475922
	H299	H	0.522563	0.468452	0.469361
	O300	O	-0.021211	1.073169	0.984942
	H301	H	-0.025964	1.072848	0.990266
	H302	H	-0.021665	1.071100	0.975843
	O303	O	0.527519	0.464580	0.525125
	H304	H	0.524355	0.464843	0.528533
	H305	H	0.529482	0.451155	0.520910
	O306	O	0.037242	0.022025	0.995675
	H307	H	0.029456	0.014021	0.993552
	H308	H	0.040031	0.026954	0.993727
	O309	O	1.010772	1.019185	1.062014
	H310	H	1.014461	1.022249	1.068217
	H311	H	1.007377	1.025275	1.056880
	O312	O	0.501967	0.406015	0.522206
	H313	H	0.507182	0.404064	0.519098
	H314	H	0.496369	0.411521	0.517178
	O315	O	0.533727	0.502183	0.472521
	H316	H	0.530957	0.505980	0.477031
	H317	H	0.536605	0.493423	0.472152
	O318	O	0.038494	1.103618	-0.008433
	H319	H	0.041059	1.109401	-0.014081
	H320	H	0.039600	1.104505	-0.010811
	O321	O	0.992626	1.082124	-0.035456
	H322	H	0.990642	1.081157	-0.034004
	H323	H	1.003196	1.077253	-0.033537
