data_Molecule from HDF5

_cell_length_a		16.391480
_cell_length_b		16.378183
_cell_length_c		16.272628
_cell_angle_alpha	90.015508
_cell_angle_beta	90.513731
_cell_angle_gamma	90.151386
_symmetry_space_group_name_H-M	'P 1'
_symmetry_Int_Tables_number		1

loop_
	_symmetry_equiv_pos_as_xyz
	x,y,z

loop_
	_atom_site_label
	_atom_site_type_symbol
	_atom_site_fract_x
	_atom_site_fract_y
	_atom_site_fract_z
	H0	H	0.403119	0.833677	0.722879
	H1	H	0.605409	0.157157	0.725661
	H2	H	0.601259	0.833835	0.290938
	H3	H	0.403580	0.158316	0.290513
	H4	H	0.718411	0.390110	0.845928
	H5	H	0.720063	0.594942	0.169947
	H6	H	0.283630	0.593981	0.846038
	H7	H	0.286901	0.393041	0.170497
	H8	H	0.842402	0.713156	0.404936
	H9	H	0.164268	0.713733	0.613112
	H10	H	0.842601	0.275912	0.608819
	H11	H	0.164635	0.278272	0.408350
	H12	H	0.839214	0.395240	0.720148
	H13	H	0.163047	0.595654	0.728997
	H14	H	0.842403	0.596538	0.288768
	H15	H	0.163681	0.392105	0.289788
	H16	H	0.397731	0.710823	0.845198
	H17	H	0.603406	0.711312	0.170452
	H18	H	0.600839	0.276372	0.844810
	H19	H	0.400905	0.276443	0.168511
	H20	H	0.721636	0.835389	0.403818
	H21	H	0.722596	0.157567	0.609507
	H22	H	0.282836	0.836095	0.610675
	H23	H	0.284483	0.157204	0.403139
	H24	H	0.901107	0.333060	0.226746
	H25	H	0.106036	0.655524	0.227533
	H26	H	0.097856	0.332346	0.794718
	H27	H	0.900501	0.656345	0.791767
	H28	H	0.219466	0.893171	0.344988
	H29	H	0.224508	0.098854	0.668902
	H30	H	0.783960	0.100718	0.346174
	H31	H	0.787093	0.893812	0.669113
	H32	H	0.340896	0.210854	0.902628
	H33	H	0.662083	0.213854	0.110709
	H34	H	0.340290	0.776989	0.108445
	H35	H	0.662443	0.775886	0.907615
	H36	H	0.340634	0.893784	0.223847
	H37	H	0.662740	0.097780	0.225674
	H38	H	0.341841	0.094610	0.786852
	H39	H	0.664692	0.893962	0.792129
	H40	H	0.902030	0.214580	0.346368
	H41	H	0.107797	0.212679	0.670337
	H42	H	0.106488	0.774594	0.347157
	H43	H	0.902142	0.777349	0.668933
	H44	H	0.218795	0.334290	0.905677
	H45	H	0.222602	0.655239	0.112713
	H46	H	0.782852	0.332802	0.110972
	H47	H	0.783655	0.656174	0.906913
	H48	H	0.410940	0.112518	0.600811
	H49	H	0.593350	0.884363	0.590633
	H50	H	0.595051	0.108665	0.421627
	H51	H	0.411671	0.881067	0.412561
	H52	H	0.585485	0.404570	0.119131
	H53	H	0.588624	0.585228	0.892929
	H54	H	0.410676	0.591174	0.125685
	H55	H	0.410493	0.397548	0.891571
	H56	H	0.120411	0.590061	0.416177
	H57	H	0.888363	0.592122	0.592535
	H58	H	0.119315	0.403961	0.605627
	H59	H	0.890473	0.408748	0.415274
	H60	H	0.118487	0.400673	0.602764
	H61	H	0.889974	0.580381	0.597951
	H62	H	0.115078	0.586908	0.425398
	H63	H	0.888140	0.401097	0.418201
	H64	H	0.408833	0.582712	0.123177
	H65	H	0.592353	0.587733	0.892266
	H66	H	0.593221	0.398454	0.124130
	H67	H	0.402534	0.404875	0.890559
	H68	H	0.598111	0.111687	0.414647
	H69	H	0.604556	0.878855	0.599583
	H70	H	0.419704	0.108504	0.596931
	H71	H	0.411503	0.883399	0.418204
	H72	H	0.902117	0.610529	0.096803
	H73	H	0.091605	0.380640	0.100567
	H74	H	0.094282	0.607854	0.925804
	H75	H	0.904721	0.378928	0.917034
	H76	H	0.093038	0.909932	0.620191
	H77	H	0.090555	0.086262	0.393336
	H78	H	0.910348	0.086476	0.623938
	H79	H	0.918358	0.904281	0.394605
	H80	H	0.616741	0.082414	0.915087
	H81	H	0.386842	0.083257	0.098820
	H82	H	0.620845	0.898968	0.109030
	H83	H	0.390347	0.903991	0.921144
	H84	H	0.614636	0.896422	0.087859
	H85	H	0.384675	0.088934	0.100035
	H86	H	0.617646	0.090978	0.916137
	H87	H	0.388346	0.909121	0.909940
	H88	H	0.915439	0.081602	0.621307
	H89	H	0.093007	0.091048	0.391785
	H90	H	0.092351	0.903027	0.622329
	H91	H	0.909687	0.899866	0.389868
	H92	H	0.097466	0.611921	0.914480
	H93	H	0.092693	0.381825	0.097342
	H94	H	0.915913	0.608729	0.104846
	H95	H	0.906637	0.378138	0.911841
	H96	H	0.411574	0.108718	0.590644
	H97	H	0.591065	0.881106	0.605330
	H98	H	0.590833	0.109929	0.415096
	H99	H	0.407161	0.880908	0.415739
	H100	H	0.595700	0.409239	0.121471
	H101	H	0.592559	0.583200	0.893376
	H102	H	0.416370	0.586095	0.122254
	H103	H	0.412185	0.407473	0.894700
	H104	H	0.116386	0.580100	0.417127
	H105	H	0.884828	0.589799	0.605203
	H106	H	0.117258	0.405039	0.601735
	H107	H	0.891779	0.406773	0.423518
	H108	H	0.914851	0.603331	0.089589
	H109	H	0.094633	0.379177	0.098869
	H110	H	0.085781	0.608315	0.916544
	H111	H	0.909794	0.379857	0.915678
	H112	H	0.098693	0.906414	0.622917
	H113	H	0.095490	0.085923	0.392005
	H114	H	0.916715	0.088573	0.622892
	H115	H	0.910036	0.910275	0.392788
	H116	H	0.615189	0.086330	0.922617
	H117	H	0.388462	0.088467	0.094377
	H118	H	0.611580	0.915565	0.097521
	H119	H	0.385334	0.897145	0.911379
	C120	C	0.382895	0.003636	0.626928
	C121	C	0.626508	0.987905	0.629412
	C122	C	0.624473	0.004064	0.385954
	C123	C	0.380341	0.987924	0.384638
	C124	C	0.621634	0.372887	0.015278
	C125	C	0.622485	0.615793	0.999717
	C126	C	0.380186	0.616293	0.016457
	C127	C	0.379850	0.373170	0.999157
	C128	C	0.011513	0.616673	0.387094
	C129	C	0.994209	0.617428	0.630475
	C130	C	0.011167	0.373544	0.630583
	C131	C	0.995558	0.374059	0.387705
	C132	C	0.880709	0.501580	0.128967
	C133	C	0.124219	0.486483	0.130508
	C134	C	0.121769	0.503030	0.888387
	C135	C	0.877297	0.485616	0.885397
	C136	C	0.124869	0.874692	0.515777
	C137	C	0.125189	0.117632	0.499472
	C138	C	0.883032	0.117373	0.516017
	C139	C	0.882452	0.874306	0.499207
	C140	C	0.510569	0.116297	0.885796
	C141	C	0.493175	0.117303	0.128859
	C142	C	0.509731	0.873770	0.128309
	C143	C	0.494123	0.873053	0.885001
	C144	C	0.383689	0.882114	0.684374
	C145	C	0.625682	0.109008	0.686862
	C146	C	0.622265	0.882609	0.329008
	C147	C	0.382828	0.109783	0.328320
	C148	C	0.679337	0.371479	0.893944
	C149	C	0.680601	0.614583	0.121761
	C150	C	0.322541	0.614274	0.894508
	C151	C	0.325002	0.373949	0.121683
	C152	C	0.890545	0.674015	0.385996
	C153	C	0.115613	0.674869	0.632074
	C154	C	0.890365	0.315297	0.628663
	C155	C	0.116475	0.316547	0.388170
	C156	C	0.888523	0.374813	0.683934
	C157	C	0.115264	0.616154	0.689584
	C158	C	0.890584	0.616167	0.328157
	C159	C	0.116013	0.373424	0.329546
	C160	C	0.379361	0.672363	0.894088
	C161	C	0.622925	0.672643	0.121794
	C162	C	0.620712	0.314956	0.893417
	C163	C	0.381427	0.315541	0.120692
	C164	C	0.682287	0.883388	0.385134
	C165	C	0.683651	0.109219	0.628841
	C166	C	0.323598	0.883517	0.628575
	C167	C	0.323693	0.109132	0.384443
	C168	C	0.881427	0.381029	0.187253
	C169	C	0.125058	0.607333	0.188796
	C170	C	0.118933	0.380992	0.832477
	C171	C	0.879712	0.607762	0.829370
	C172	C	0.181482	0.873663	0.393932
	C173	C	0.184772	0.117607	0.620670
	C174	C	0.823885	0.119310	0.394505
	C175	C	0.825368	0.874186	0.620594
	C176	C	0.389292	0.172625	0.883688
	C177	C	0.614000	0.175427	0.129637
	C178	C	0.388582	0.816020	0.127843
	C179	C	0.614756	0.814900	0.886866
	C180	C	0.388587	0.874303	0.185054
	C181	C	0.614482	0.117386	0.186848
	C182	C	0.389617	0.114960	0.826217
	C183	C	0.615929	0.873877	0.829793
	C184	C	0.882748	0.175892	0.394721
	C185	C	0.126645	0.174224	0.621622
	C186	C	0.125012	0.814837	0.395028
	C187	C	0.882725	0.816271	0.620673
	C188	C	0.179454	0.382197	0.887498
	C189	C	0.183035	0.607153	0.131670
	C190	C	0.822268	0.380936	0.129928
	C191	C	0.821682	0.607640	0.886874
	C192	C	0.407041	0.088099	0.602914
	C193	C	0.603237	0.903210	0.605469
	C194	C	0.601337	0.088105	0.410058
	C195	C	0.403285	0.903605	0.408403
	C196	C	0.598250	0.397103	0.099583
	C197	C	0.598054	0.592130	0.914908
	C198	C	0.404743	0.593387	0.101614
	C199	C	0.401931	0.396498	0.914276
	C200	C	0.095533	0.592690	0.412222
	C201	C	0.909798	0.594346	0.605709
	C202	C	0.096069	0.396453	0.609464
	C203	C	0.912024	0.398227	0.411930
	C204	C	0.904237	0.585700	0.104250
	C205	C	0.100116	0.402377	0.106031
	C206	C	0.099001	0.587524	0.912017
	C207	C	0.900190	0.400946	0.908304
	C208	C	0.101411	0.899456	0.600018
	C209	C	0.100290	0.094270	0.414514
	C210	C	0.907301	0.092719	0.600746
	C211	C	0.905913	0.898023	0.414485
	C212	C	0.594749	0.093328	0.910662
	C213	C	0.408564	0.093666	0.104805
	C214	C	0.593805	0.897013	0.105076
	C215	C	0.409926	0.896517	0.907597
	Zn216	Zn	0.503507	-0.004288	0.756679
	Zn217	Zn	0.501792	-0.004333	0.256592
	Zn218	Zn	0.750186	0.493565	0.007797
	Zn219	Zn	0.252260	0.494739	0.008879
	Zn220	Zn	0.003809	0.745554	0.508183
	Zn221	Zn	0.004508	0.245405	0.509206
	Zn222	Zn	0.000742	0.494741	0.758581
	Zn223	Zn	0.003157	0.494721	0.258566
	Zn224	Zn	0.500910	0.744209	0.007394
	Zn225	Zn	0.500695	0.244368	0.006738
	Zn226	Zn	0.754707	-0.003912	0.507259
	Zn227	Zn	0.252752	-0.003484	0.506617
	N228	N	0.419856	0.958052	0.683424
	N229	N	0.590977	0.032542	0.687320
	N230	N	0.587278	0.958629	0.329109
	N231	N	0.417388	0.033434	0.328410
	N232	N	0.679887	0.407021	0.970490
	N233	N	0.680483	0.580142	0.044759
	N234	N	0.322984	0.580156	0.971601
	N235	N	0.323784	0.409116	0.045048
	N236	N	0.966750	0.674279	0.421875
	N237	N	0.039365	0.675567	0.596049
	N238	N	0.967499	0.314299	0.596289
	N239	N	0.040710	0.316924	0.423768
	N240	N	0.964586	0.410407	0.685314
	N241	N	0.038778	0.581264	0.688773
	N242	N	0.966864	0.581541	0.328550
	N243	N	0.039878	0.408232	0.328965
	N244	N	0.414504	0.673670	0.971106
	N245	N	0.587367	0.673456	0.044870
	N246	N	0.585549	0.315813	0.969805
	N247	N	0.414632	0.314774	0.043580
	N248	N	0.683826	0.959953	0.419573
	N249	N	0.683971	0.032759	0.593661
	N250	N	0.323347	0.959886	0.593651
	N251	N	0.321643	0.032257	0.418514
	N252	N	0.916882	0.457085	0.186736
	N253	N	0.089062	0.531326	0.188141
	N254	N	0.083773	0.457126	0.832775
	N255	N	0.913438	0.531000	0.828049
	N256	N	0.181402	0.910410	0.469882
	N257	N	0.183779	0.083304	0.543579
	N258	N	0.824073	0.083492	0.470813
	N259	N	0.825281	0.909667	0.544028
	N260	N	0.465351	0.173479	0.919999
	N261	N	0.537485	0.175332	0.094287
	N262	N	0.464766	0.815521	0.093248
	N263	N	0.537979	0.814054	0.920316
	N264	N	0.464753	0.909677	0.185464
	N265	N	0.538416	0.081954	0.186501
	N266	N	0.466028	0.080596	0.827274
	N267	N	0.539954	0.909141	0.828387
	N268	N	0.918795	0.174633	0.471341
	N269	N	0.090205	0.174443	0.545267
	N270	N	0.090592	0.815228	0.471774
	N271	N	0.917457	0.816232	0.544054
	N272	N	0.181350	0.459030	0.921699
	N273	N	0.182654	0.531008	0.096160
	N274	N	0.821811	0.457059	0.094255
	N275	N	0.819738	0.530677	0.920459
	O276	O	0.100089	0.059122	-0.053585
	H277	H	0.080879	0.062970	-0.055874
	H278	H	0.109487	0.063926	-0.045770
	O279	O	0.666807	0.539583	0.629190
	H280	H	0.681549	0.553107	0.633750
	H281	H	0.680747	0.546304	0.637182
	O282	O	0.490312	-0.424954	0.511160
	H283	H	0.478310	-0.428887	0.523403
	H284	H	0.497717	-0.419135	0.500270
	O285	O	0.641210	0.432347	0.415895
	H286	H	0.640049	0.423149	0.412635
	H287	H	0.640396	0.424815	0.414808
	O288	O	0.940510	1.176864	1.039966
	H289	H	0.934902	1.170081	1.049552
	H290	H	0.946917	1.177487	1.039494
	O291	O	-0.106017	0.981299	0.031549
	H292	H	-0.103242	0.974984	0.022681
	H293	H	-0.107713	0.980640	0.036855
	O294	O	0.485014	0.339515	0.351517
	H295	H	0.481760	0.337322	0.342003
	H296	H	0.479791	0.337153	0.356514
	O297	O	0.670227	0.452093	0.479475
	H298	H	0.686619	0.450111	0.482761
	H299	H	0.667930	0.449140	0.487741
	O300	O	0.474650	0.452556	0.498214
	H301	H	0.474314	0.439331	0.496289
	H302	H	0.474533	0.456789	0.497521
	O303	O	0.504535	0.634167	0.340052
	H304	H	0.488346	0.638741	0.343349
	H305	H	0.508488	0.616707	0.341549
	O306	O	0.623862	0.610081	0.469952
	H307	H	0.624075	0.579371	0.458883
	H308	H	0.618026	0.629158	0.474116
	O309	O	0.457294	0.638497	0.372392
	H310	H	0.450527	0.631889	0.380662
	H311	H	0.453295	0.630178	0.360097
	O312	O	0.023712	-0.067430	0.150563
	H313	H	0.024565	-0.079387	0.146010
	H314	H	0.016023	-0.079615	0.158297
	O315	O	0.514059	0.427559	0.504831
	H316	H	0.517151	0.423406	0.494329
	H317	H	0.509364	0.421108	0.509415
	O318	O	-0.006542	1.012631	0.900459
	H319	H	-0.009400	1.029255	0.887089
	H320	H	-0.004057	1.008594	0.908585
	O321	O	0.397983	0.468149	0.573250
	H322	H	0.402763	0.468194	0.572569
	H323	H	0.401597	0.463772	0.585936
	O324	O	-0.053163	1.089575	0.065430
	H325	H	-0.061307	1.081589	0.075819
	H326	H	-0.040151	1.099100	0.074457
	O327	O	0.347806	0.568610	0.445429
	H328	H	0.342992	0.571042	0.432847
	H329	H	0.342636	0.575581	0.439873
	O330	O	0.059898	-0.034549	0.998370
	H331	H	0.061052	-0.036175	1.002300
	H332	H	0.066437	-0.033022	0.997300
	O333	O	0.016825	0.100604	1.201238
	H334	H	0.007651	0.075723	1.206231
	H335	H	-0.008504	0.090307	1.213949
	O336	O	0.424132	0.463149	0.403558
	H337	H	0.425924	0.460266	0.409252
	H338	H	0.413539	0.458274	0.410004
	O339	O	0.820000	-0.139614	0.005230
	H340	H	0.825659	-0.153083	0.012586
	H341	H	0.830230	-0.130668	-0.012630
	O342	O	0.006287	-0.074365	0.145566
	H343	H	-0.003727	-0.073155	0.150769
	H344	H	0.000952	-0.071890	0.140625
	O345	O	1.183144	-0.073911	1.038559
	H346	H	1.175489	-0.080491	1.057465
	H347	H	1.191602	-0.053862	1.042547
	O348	O	1.056572	0.988109	0.119468
	H349	H	1.050583	1.008508	0.118373
	H350	H	1.041287	0.977160	0.118416
	O351	O	0.332027	0.410788	0.530757
	H352	H	0.333675	0.421067	0.546314
	H353	H	0.316746	0.414577	0.528355
	O354	O	0.849003	-0.011980	0.937718
	H355	H	0.858494	0.001778	0.924194
	H356	H	0.833889	-0.012231	0.932841
	O357	O	0.695749	0.652502	0.618821
	H358	H	0.694597	0.655956	0.620630
	H359	H	0.707505	0.662758	0.611658
	O360	O	0.440783	0.465248	0.598446
	H361	H	0.434079	0.469361	0.589104
	H362	H	0.436830	0.469663	0.616742
	O363	O	-0.046430	1.118069	0.876018
	H364	H	-0.050007	1.104671	0.894321
	H365	H	-0.042563	1.131931	0.869056
	O366	O	0.453954	0.645436	0.455991
	H367	H	0.455097	0.651282	0.468600
	H368	H	0.461935	0.651531	0.455809
	O369	O	0.139203	1.122699	0.077792
	H370	H	0.133267	1.130741	0.095093
	H371	H	0.138026	1.110410	0.087672
	O372	O	0.439726	0.471770	0.628578
	H373	H	0.446876	0.480430	0.632933
	H374	H	0.433919	0.467328	0.634947
	O375	O	0.451815	0.469003	0.604080
	H376	H	0.451075	0.467413	0.611933
	H377	H	0.466106	0.485979	0.609809
	O378	O	0.854448	0.993417	0.025486
	H379	H	0.845231	0.994402	0.010498
	H380	H	0.855623	0.980120	0.021502
	O381	O	1.167640	-0.185492	-0.071899
	H382	H	1.182201	-0.196390	-0.058333
	H383	H	1.176448	-0.165830	-0.073881
	O384	O	1.096484	0.802223	-0.192773
	H385	H	1.092520	0.788217	-0.215338
	H386	H	1.112621	0.804498	-0.176118
	O387	O	-0.136021	0.022923	0.093742
	H388	H	-0.136835	0.012670	0.097969
	H389	H	-0.144443	0.023648	0.097310
	O390	O	-0.093431	0.827251	0.217722
	H391	H	-0.103135	0.810159	0.230762
	H392	H	-0.111008	0.807529	0.205322
	O393	O	1.078592	0.952352	0.897327
	H394	H	1.092043	0.959055	0.895109
	H395	H	1.073142	0.962718	0.914381
	O396	O	0.570170	0.432560	0.600576
	H397	H	0.571274	0.440366	0.606613
	H398	H	0.576274	0.444832	0.598655
	O399	O	0.091657	0.880652	0.981827
	H400	H	0.085575	0.875706	0.969443
	H401	H	0.105532	0.883434	0.996671
	O402	O	0.599696	0.484579	0.631337
	H403	H	0.591190	0.487793	0.632194
	H404	H	0.604767	0.497751	0.643330
	O405	O	0.875909	1.056933	-0.144313
	H406	H	0.890706	1.061308	-0.133150
	H407	H	0.872774	1.057869	-0.150516
	O408	O	1.175829	1.169086	0.082331
	H409	H	1.187513	1.177950	0.079565
	H410	H	1.169674	1.171637	0.107064
	O411	O	0.889786	-0.105236	0.854628
	H412	H	0.877608	-0.088668	0.849193
	H413	H	0.907627	-0.092388	0.850863
	O414	O	0.488338	0.568874	0.603533
	H415	H	0.490324	0.569540	0.601034
	H416	H	0.508105	0.576314	0.622063
	O417	O	0.638603	0.425818	0.401496
	H418	H	0.635560	0.418457	0.401966
	H419	H	0.644577	0.416715	0.388990
