data_Molecule from HDF5

_cell_length_a		16.539953
_cell_length_b		16.553613
_cell_length_c		16.424830
_cell_angle_alpha	90.052418
_cell_angle_beta	89.942333
_cell_angle_gamma	89.832531
_symmetry_space_group_name_H-M	'P 1'
_symmetry_Int_Tables_number		1

loop_
	_symmetry_equiv_pos_as_xyz
	x,y,z

loop_
	_atom_site_label
	_atom_site_type_symbol
	_atom_site_fract_x
	_atom_site_fract_y
	_atom_site_fract_z
	H0	H	0.388041	0.843093	0.728777
	H1	H	0.596098	0.157374	0.731051
	H2	H	0.594289	0.842879	0.290380
	H3	H	0.384930	0.157814	0.287380
	H4	H	0.713759	0.391886	0.852132
	H5	H	0.712423	0.606538	0.166554
	H6	H	0.268937	0.605506	0.852166
	H7	H	0.267593	0.393554	0.166928
	H8	H	0.835846	0.722944	0.404487
	H9	H	0.149245	0.720798	0.615179
	H10	H	0.834849	0.276739	0.616534
	H11	H	0.147557	0.276817	0.401434
	H12	H	0.834074	0.393919	0.731892
	H13	H	0.149856	0.601922	0.729049
	H14	H	0.833733	0.605163	0.290001
	H15	H	0.147576	0.394646	0.286777
	H16	H	0.384175	0.721289	0.851839
	H17	H	0.595810	0.721850	0.166698
	H18	H	0.598455	0.275675	0.853182
	H19	H	0.382160	0.276863	0.166347
	H20	H	0.711010	0.842780	0.406608
	H21	H	0.713807	0.155974	0.616489
	H22	H	0.271197	0.843729	0.614150
	H23	H	0.265486	0.156573	0.400151
	H24	H	0.884493	0.343686	0.231498
	H25	H	0.096440	0.655716	0.232069
	H26	H	0.098699	0.344084	0.785726
	H27	H	0.885813	0.656780	0.787612
	H28	H	0.212362	0.896254	0.351640
	H29	H	0.214381	0.108711	0.666358
	H30	H	0.769692	0.105803	0.352122
	H31	H	0.770327	0.894802	0.667054
	H32	H	0.334927	0.225039	0.901394
	H33	H	0.646934	0.224158	0.116017
	H34	H	0.334300	0.779513	0.116093
	H35	H	0.646799	0.777206	0.902852
	H36	H	0.334325	0.896976	0.231704
	H37	H	0.648956	0.105566	0.230281
	H38	H	0.334441	0.106709	0.786882
	H39	H	0.649537	0.899030	0.791556
	H40	H	0.884454	0.221762	0.352199
	H41	H	0.098209	0.223705	0.666191
	H42	H	0.097586	0.778899	0.352089
	H43	H	0.886596	0.779116	0.666915
	H44	H	0.216207	0.344988	0.901134
	H45	H	0.213586	0.655789	0.118164
	H46	H	0.767754	0.344775	0.116360
	H47	H	0.768062	0.655966	0.901880
	H48	H	0.401231	0.112740	0.595575
	H49	H	0.590733	0.885924	0.597543
	H50	H	0.581580	0.111616	0.426658
	H51	H	0.390800	0.887340	0.426212
	H52	H	0.577224	0.412810	0.121974
	H53	H	0.577367	0.590793	0.895743
	H54	H	0.397588	0.590611	0.124888
	H55	H	0.411448	0.421052	0.903610
	H56	H	0.101553	0.586185	0.426164
	H57	H	0.878530	0.590629	0.601392
	H58	H	0.101611	0.414079	0.595601
	H59	H	0.879891	0.412066	0.421115
	H60	H	0.103014	0.411492	0.598666
	H61	H	0.879099	0.594213	0.596675
	H62	H	0.105076	0.584732	0.414594
	H63	H	0.877897	0.410266	0.420234
	H64	H	0.402248	0.585983	0.121059
	H65	H	0.582058	0.589140	0.894939
	H66	H	0.579559	0.413086	0.122066
	H67	H	0.407087	0.402906	0.895371
	H68	H	0.586332	0.115337	0.418371
	H69	H	0.577842	0.886325	0.607410
	H70	H	0.401397	0.113582	0.599489
	H71	H	0.405776	0.886092	0.409462
	H72	H	0.912741	0.606161	0.093177
	H73	H	0.077964	0.390876	0.091979
	H74	H	0.081052	0.614951	0.911844
	H75	H	0.894316	0.387167	0.925793
	H76	H	0.079807	0.915872	0.620485
	H77	H	0.085827	0.090565	0.393449
	H78	H	0.892265	0.086408	0.625804
	H79	H	0.897494	0.915768	0.396422
	H80	H	0.605106	0.094305	0.920012
	H81	H	0.381961	0.089294	0.092797
	H82	H	0.604908	0.906326	0.098779
	H83	H	0.377410	0.910164	0.918540
	H84	H	0.601811	0.912177	0.094339
	H85	H	0.380276	0.084657	0.100770
	H86	H	0.600542	0.088226	0.926411
	H87	H	0.377817	0.909540	0.920735
	H88	H	0.908767	0.079566	0.617630
	H89	H	0.079318	0.079575	0.400015
	H90	H	0.078022	0.907040	0.624220
	H91	H	0.908606	0.912385	0.398495
	H92	H	0.071734	0.608223	0.923568
	H93	H	0.083430	0.386238	0.096485
	H94	H	0.890428	0.613346	0.089601
	H95	H	0.902525	0.385132	0.912339
	H96	H	0.404465	0.112124	0.597782
	H97	H	0.577016	0.891669	0.592375
	H98	H	0.576032	0.112411	0.418208
	H99	H	0.411731	0.895219	0.428772
	H100	H	0.578426	0.414525	0.120582
	H101	H	0.578511	0.586049	0.897114
	H102	H	0.404691	0.592607	0.123505
	H103	H	0.393009	0.417934	0.894796
	H104	H	0.105983	0.595524	0.420199
	H105	H	0.881075	0.588488	0.596772
	H106	H	0.102091	0.409838	0.594563
	H107	H	0.878828	0.410038	0.422503
	H108	H	0.900722	0.617422	0.110551
	H109	H	0.075934	0.388077	0.099963
	H110	H	0.087157	0.612389	0.926576
	H111	H	0.909423	0.391436	0.924957
	H112	H	0.086946	0.910862	0.624518
	H113	H	0.071980	0.092013	0.397988
	H114	H	0.908124	0.098453	0.624020
	H115	H	0.901121	0.904648	0.393397
	H116	H	0.603377	0.085234	0.917077
	H117	H	0.377193	0.093075	0.099728
	H118	H	0.603990	0.913839	0.102281
	H119	H	0.378294	0.911848	0.919817
	C120	C	0.370349	0.009352	0.630331
	C121	C	0.613605	0.991580	0.631556
	C122	C	0.612706	0.008841	0.389016
	C123	C	0.369450	0.992928	0.388010
	C124	C	0.611835	0.379617	0.017738
	C125	C	0.611802	0.621191	1.000474
	C126	C	0.368871	0.621834	0.018561
	C127	C	0.369636	0.379789	1.001435
	C128	C	0.000343	0.621359	0.388495
	C129	C	0.983529	0.622068	0.630824
	C130	C	-0.001095	0.378914	0.629805
	C131	C	0.982213	0.377765	0.387587
	C132	C	0.868544	0.508917	0.131173
	C133	C	0.111650	0.491546	0.129680
	C134	C	0.113166	0.508618	0.887417
	C135	C	0.869342	0.491209	0.887677
	C136	C	0.113244	0.879290	0.518477
	C137	C	0.112370	0.121469	0.500971
	C138	C	0.870298	0.120914	0.518306
	C139	C	0.870841	0.879128	0.500898
	C140	C	0.499180	0.121888	0.888417
	C141	C	0.483144	0.122314	0.130891
	C142	C	0.499672	0.879118	0.130902
	C143	C	0.482115	0.878779	0.887712
	C144	C	0.369230	0.890743	0.689560
	C145	C	0.614833	0.109800	0.691368
	C146	C	0.613498	0.890197	0.329820
	C147	C	0.366442	0.110737	0.327441
	C148	C	0.673198	0.374933	0.899375
	C149	C	0.672409	0.624357	0.118986
	C150	C	0.308723	0.624044	0.899692
	C151	C	0.308152	0.375963	0.119727
	C152	C	0.882543	0.682257	0.386411
	C153	C	0.102027	0.680902	0.633345
	C154	C	0.881575	0.317458	0.633968
	C155	C	0.100160	0.316921	0.383749
	C156	C	0.881182	0.375936	0.691295
	C157	C	0.102203	0.621873	0.690117
	C158	C	0.881481	0.623613	0.329387
	C159	C	0.100340	0.375542	0.326512
	C160	C	0.366097	0.681768	0.899650
	C161	C	0.614358	0.681865	0.119079
	C162	C	0.615583	0.317388	0.899834
	C163	C	0.365179	0.317674	0.119210
	C164	C	0.671404	0.890012	0.387731
	C165	C	0.673644	0.109341	0.634460
	C166	C	0.310873	0.890980	0.632548
	C167	C	0.306845	0.109893	0.383606
	C168	C	0.866061	0.391201	0.191803
	C169	C	0.114207	0.608796	0.191231
	C170	C	0.116409	0.390994	0.826316
	C171	C	0.867059	0.609241	0.827222
	C172	C	0.172690	0.877254	0.399109
	C173	C	0.173952	0.125928	0.618929
	C174	C	0.809560	0.123952	0.399473
	C175	C	0.810503	0.876663	0.619567
	C176	C	0.381633	0.183730	0.884304
	C177	C	0.600379	0.183352	0.134037
	C178	C	0.381510	0.819467	0.134070
	C179	C	0.600226	0.818256	0.885369
	C180	C	0.381470	0.877943	0.191506
	C181	C	0.601299	0.124591	0.190989
	C182	C	0.381467	0.125023	0.827182
	C183	C	0.601562	0.878545	0.829858
	C184	C	0.866738	0.181730	0.399712
	C185	C	0.116113	0.183457	0.618900
	C186	C	0.115654	0.819137	0.399296
	C187	C	0.868705	0.819354	0.619621
	C188	C	0.175046	0.391442	0.883537
	C189	C	0.172869	0.608807	0.134562
	C190	C	0.807921	0.391490	0.134369
	C191	C	0.808427	0.608962	0.884163
	C192	C	0.395111	0.091488	0.604851
	C193	C	0.588918	0.909256	0.606370
	C194	C	0.588228	0.091519	0.413866
	C195	C	0.395274	0.910999	0.414019
	C196	C	0.585972	0.406033	0.100033
	C197	C	0.586601	0.595683	0.917626
	C198	C	0.394075	0.596959	0.101445
	C199	C	0.396378	0.406364	0.919304
	C200	C	0.082762	0.595962	0.413281
	C201	C	0.901119	0.597996	0.605621
	C202	C	0.080771	0.404456	0.603894
	C203	C	0.900238	0.403395	0.413705
	C204	C	0.894058	0.590839	0.105273
	C205	C	0.086321	0.409662	0.103499
	C206	C	0.087362	0.590493	0.913349
	C207	C	0.894861	0.409391	0.913513
	C208	C	0.088597	0.904235	0.601425
	C209	C	0.086600	0.095130	0.418710
	C210	C	0.895729	0.095612	0.600985
	C211	C	0.895519	0.903951	0.417603
	C212	C	0.581258	0.096443	0.913934
	C213	C	0.401171	0.096610	0.105037
	C214	C	0.581945	0.903705	0.105637
	C215	C	0.399418	0.903400	0.912700
	Zn216	Zn	0.491227	0.000498	0.759304
	Zn217	Zn	0.491631	0.001026	0.259835
	Zn218	Zn	0.740236	0.500084	0.008902
	Zn219	Zn	0.241126	0.500267	0.010006
	Zn220	Zn	-0.007173	0.750841	0.509303
	Zn221	Zn	-0.009356	0.249367	0.508998
	Zn222	Zn	-0.008545	0.499481	0.759019
	Zn223	Zn	-0.008999	0.499784	0.259371
	Zn224	Zn	0.490365	0.749867	0.009334
	Zn225	Zn	0.490575	0.251275	0.009648
	Zn226	Zn	0.742471	0.000487	0.510009
	Zn227	Zn	0.241293	0.000504	0.509638
	N228	N	0.405296	0.965363	0.688494
	N229	N	0.578302	0.035522	0.689670
	N230	N	0.577950	0.965216	0.330303
	N231	N	0.404730	0.037099	0.329939
	N232	N	0.670921	0.413124	0.973759
	N233	N	0.671078	0.587454	0.044002
	N234	N	0.309841	0.587857	0.974962
	N235	N	0.310512	0.413597	0.045262
	N236	N	0.957457	0.680992	0.422378
	N237	N	0.027180	0.681244	0.597339
	N238	N	0.955701	0.319274	0.596395
	N239	N	0.025590	0.317982	0.420620
	N240	N	0.955241	0.413397	0.689044
	N241	N	0.027443	0.586317	0.689002
	N242	N	0.955920	0.586368	0.330410
	N243	N	0.026057	0.412569	0.328668
	N244	N	0.402555	0.680775	0.974728
	N245	N	0.577503	0.680066	0.044179
	N246	N	0.578103	0.320031	0.974436
	N247	N	0.402559	0.319914	0.044452
	N248	N	0.671157	0.964906	0.423831
	N249	N	0.673046	0.034808	0.597888
	N250	N	0.311122	0.965885	0.596502
	N251	N	0.308765	0.035506	0.420605
	N252	N	0.902746	0.465487	0.190144
	N253	N	0.076708	0.534972	0.188415
	N254	N	0.078544	0.464854	0.828728
	N255	N	0.904211	0.535103	0.829240
	N256	N	0.171578	0.913814	0.474083
	N257	N	0.171959	0.088125	0.544418
	N258	N	0.811323	0.087082	0.474387
	N259	N	0.811985	0.913364	0.544593
	N260	N	0.455942	0.182157	0.921559
	N261	N	0.525636	0.182350	0.097860
	N262	N	0.455991	0.820031	0.097118
	N263	N	0.524803	0.818221	0.920564
	N264	N	0.456064	0.914346	0.189831
	N265	N	0.527137	0.087486	0.189355
	N266	N	0.455514	0.087360	0.829567
	N267	N	0.527090	0.915224	0.831037
	N268	N	0.903684	0.180030	0.474605
	N269	N	0.078588	0.180814	0.544454
	N270	N	0.079556	0.820224	0.474681
	N271	N	0.905545	0.820810	0.544758
	N272	N	0.173050	0.465582	0.921031
	N273	N	0.171381	0.534791	0.096878
	N274	N	0.809238	0.465791	0.097294
	N275	N	0.809429	0.534464	0.920987
	O276	O	0.519500	0.282083	0.294926
	H277	H	0.521893	0.266347	0.283253
	H278	H	0.535866	0.280516	0.285049
	O279	O	0.679446	0.310292	0.363619
	H280	H	0.673043	0.326959	0.358702
	H281	H	0.675283	0.303647	0.384794
	O282	O	0.793844	1.027451	-0.189342
	H283	H	0.802935	1.033525	-0.179669
	H284	H	0.784745	1.021535	-0.204468
	O285	O	0.345359	0.692204	0.312538
	H286	H	0.334371	0.681560	0.325817
	H287	H	0.350816	0.678641	0.301237
	O288	O	-0.533872	-0.710623	-0.281385
	H289	H	-0.536188	-0.709952	-0.268006
	H290	H	-0.524995	-0.718083	-0.273282
	O291	O	0.794687	1.196503	-0.184788
	H292	H	0.822048	1.192483	-0.182349
	H293	H	0.797571	1.184579	-0.156907
	O294	O	0.047664	1.018232	-0.886152
	H295	H	0.033871	1.026309	-0.891320
	H296	H	0.037204	1.025919	-0.858125
	O297	O	0.656357	0.685651	0.520770
	H298	H	0.650939	0.678986	0.516031
	H299	H	0.667298	0.689110	0.513721
	O300	O	0.626226	0.396512	0.675527
	H301	H	0.643764	0.384632	0.685245
	H302	H	0.627684	0.391599	0.668047
	O303	O	0.860250	0.924121	0.161105
	H304	H	0.847576	0.915591	0.163042
	H305	H	0.862586	0.918932	0.149123
	O306	O	0.155953	1.067872	1.055613
	H307	H	0.135221	1.058606	1.052705
	H308	H	0.154784	1.055156	1.062387
	O309	O	0.580903	0.626254	0.324360
	H310	H	0.579363	0.628250	0.316454
	H311	H	0.575120	0.630313	0.337484
	O312	O	0.699171	0.456200	0.554618
	H313	H	0.694887	0.443155	0.560441
	H314	H	0.702029	0.439683	0.568657
	O315	O	-0.198842	0.821039	1.064346
	H316	H	-0.202505	0.798290	1.059455
	H317	H	-0.203264	0.821659	1.064131
	O318	O	0.469525	0.439118	-0.567876
	H319	H	0.467518	0.434165	-0.581591
	H320	H	0.473950	0.445076	-0.566374
	O321	O	1.130689	0.086505	1.210143
	H322	H	1.140447	0.096379	1.222403
	H323	H	1.139020	0.085758	1.207398
	O324	O	1.402653	0.562093	1.349646
	H325	H	1.401317	0.560250	1.340247
	H326	H	1.387930	0.563579	1.347551
	O327	O	0.811571	-0.175742	1.195101
	H328	H	0.807012	-0.183954	1.159280
	H329	H	0.825679	-0.180096	1.204607
	O330	O	0.894454	-0.140123	-0.052649
	H331	H	0.897095	-0.148022	-0.073912
	H332	H	0.914661	-0.141719	-0.061141
	O333	O	0.689334	1.697385	1.696025
	H334	H	0.694821	1.697427	1.679004
	H335	H	0.669676	1.701290	1.683505
	O336	O	0.769915	0.024883	1.977013
	H337	H	0.770678	0.008505	1.987394
	H338	H	0.764910	0.029376	1.980786
	O339	O	-0.054787	0.880961	0.975841
	H340	H	-0.059332	0.891243	0.977858
	H341	H	-0.060286	0.875716	0.960806
	O342	O	1.012466	0.207405	-0.161548
	H343	H	1.036573	0.195056	-0.144772
	H344	H	0.996432	0.229413	-0.170040
	O345	O	-0.153901	0.001516	0.169938
	H346	H	-0.162954	-0.008245	0.184488
	H347	H	-0.146788	-0.010753	0.165632
	O348	O	0.971474	-0.211437	1.216469
	H349	H	0.967063	-0.215111	1.230861
	H350	H	0.964326	-0.209352	1.215379
	O351	O	0.285792	0.712722	0.486468
	H352	H	0.303687	0.698203	0.489661
	H353	H	0.259830	0.739991	0.473240
	O354	O	0.812745	0.202614	0.137287
	H355	H	0.818216	0.210456	0.145215
	H356	H	0.798122	0.207356	0.133918
	O357	O	1.351997	0.632526	0.676773
	H358	H	1.366048	0.619098	0.669496
	H359	H	1.349585	0.618317	0.659030
	O360	O	0.663413	0.612467	0.339732
	H361	H	0.662541	0.616748	0.335382
	H362	H	0.661782	0.615323	0.347463
	O363	O	0.168618	-0.138424	0.149210
	H364	H	0.154250	-0.135276	0.157436
	H365	H	0.152760	-0.138935	0.148902
	O366	O	1.020284	0.780171	-0.206307
	H367	H	1.033996	0.759911	-0.221764
	H368	H	1.044165	0.773391	-0.212775
	O369	O	0.566284	0.450748	0.605343
	H370	H	0.565313	0.436792	0.596825
	H371	H	0.576162	0.452215	0.620302
	O372	O	0.278141	0.290715	0.531499
	H373	H	0.282030	0.294340	0.517631
	H374	H	0.262257	0.275320	0.528820
	O375	O	0.030364	1.044919	1.105822
	H376	H	0.016099	1.050597	1.106378
	H377	H	0.027156	1.056024	1.123733
	O378	O	0.851479	0.175740	-0.037522
	H379	H	0.860172	0.166600	-0.027868
	H380	H	0.832051	0.186419	-0.022407
	O381	O	0.665014	0.530002	-0.613921
	H382	H	0.668806	0.525440	-0.604828
	H383	H	0.681253	0.521293	-0.621864
	O384	O	0.183593	-1.189710	0.817281
	H385	H	0.202755	-1.197489	0.829522
	H386	H	0.186839	-1.170768	0.810595
	O387	O	-0.067048	1.059551	1.172148
	H388	H	-0.074762	1.060790	1.164482
	H389	H	-0.070410	1.053464	1.168183
	O390	O	0.149349	0.075414	0.936167
	H391	H	0.144439	0.054181	0.939194
	H392	H	0.138913	0.079867	0.950158
	O393	O	1.202730	0.979305	-0.199758
	H394	H	1.205573	0.979934	-0.212143
	H395	H	1.200962	0.982891	-0.202508
	O396	O	0.435484	0.644340	0.517305
	H397	H	0.435032	0.640679	0.528402
	H398	H	0.449931	0.646931	0.523463
	O399	O	-0.082500	0.801165	-0.061830
	H400	H	-0.076493	0.814680	-0.064111
	H401	H	-0.083721	0.799233	-0.059740
	O402	O	0.201479	0.193929	1.020926
	H403	H	0.213810	0.191306	1.016758
	H404	H	0.211144	0.190896	1.012814
	O405	O	-0.509247	-0.464516	0.721690
	H406	H	-0.494956	-0.488640	0.724532
	H407	H	-0.516453	-0.464664	0.722788
	O408	O	0.477881	0.654952	0.486150
	H409	H	0.483462	0.647452	0.499692
	H410	H	0.475262	0.653541	0.503238
	O411	O	0.308299	0.511589	0.616334
	H412	H	0.307506	0.509728	0.622195
	H413	H	0.290712	0.503481	0.629380
	O414	O	1.207483	0.781573	0.984856
	H415	H	1.237445	0.751110	0.984376
	H416	H	1.192059	0.783156	0.979836
	O417	O	0.283806	0.443243	0.430636
	H418	H	0.293970	0.447954	0.440821
	H419	H	0.276597	0.441152	0.431458
	O420	O	0.873454	1.075571	1.166047
	H421	H	0.883990	1.067692	1.153775
	H422	H	0.865206	1.094218	1.172837
	O423	O	0.087273	1.070431	-0.015539
	H424	H	0.079895	1.065615	-0.005698
	H425	H	0.095348	1.058970	-0.010860
	O426	O	0.931406	0.958294	0.888796
	H427	H	0.944783	0.978774	0.886296
	H428	H	0.931043	0.934466	0.887729
	O429	O	0.482349	0.595769	0.290457
	H430	H	0.493100	0.609858	0.272024
	H431	H	0.492784	0.597594	0.315943
	O432	O	-0.033260	-0.017755	-0.196441
	H433	H	-0.015136	-0.013605	-0.183584
	H434	H	-0.032213	-0.019847	-0.199104
	O435	O	0.069938	0.213705	0.218587
	H436	H	0.087362	0.198473	0.198523
	H437	H	0.078770	0.226806	0.248590
	O438	O	1.302106	0.312740	-0.299747
	H439	H	1.322560	0.302361	-0.319325
	H440	H	1.288345	0.292494	-0.301590
	O441	O	0.705907	0.549500	0.705022
	H442	H	0.710737	0.574056	0.701059
	H443	H	0.716277	0.554785	0.727106
	O444	O	0.128599	1.034531	0.906467
	H445	H	0.120179	1.050981	0.913558
	H446	H	0.118217	1.020934	0.917740
	O447	O	0.524123	0.710967	0.718998
	H448	H	0.528180	0.691576	0.720895
	H449	H	0.519745	0.731503	0.739866
	O450	O	0.422920	0.332860	0.434951
	H451	H	0.417533	0.346550	0.432314
	H452	H	0.423284	0.339859	0.421120
	O453	O	0.705567	0.344751	0.488901
	H454	H	0.694358	0.332029	0.492413
	H455	H	0.704934	0.332902	0.503392
	O456	O	1.491331	0.327219	0.461216
	H457	H	1.488917	0.331702	0.460569
	H458	H	1.483596	0.329322	0.456686
	O459	O	0.469589	0.419835	0.437529
	H460	H	0.476168	0.428821	0.441861
	H461	H	0.471296	0.410309	0.442348
	O462	O	0.294096	0.489716	0.634374
	H463	H	0.283588	0.471185	0.647022
	H464	H	0.304093	0.493266	0.635090
	O465	O	1.141761	0.073510	0.140107
	H466	H	1.133358	0.053934	0.147949
	H467	H	1.149969	0.079338	0.123481
