data_Molecule from HDF5

_cell_length_a		16.360435
_cell_length_b		16.317048
_cell_length_c		16.267694
_cell_angle_alpha	89.978872
_cell_angle_beta	89.877899
_cell_angle_gamma	90.063826
_symmetry_space_group_name_H-M	'P 1'
_symmetry_Int_Tables_number		1

loop_
	_symmetry_equiv_pos_as_xyz
	x,y,z

loop_
	_atom_site_label
	_atom_site_type_symbol
	_atom_site_fract_x
	_atom_site_fract_y
	_atom_site_fract_z
	H0	H	0.403687	0.836652	0.726898
	H1	H	0.602960	0.162331	0.720764
	H2	H	0.605725	0.838430	0.288036
	H3	H	0.405562	0.162622	0.294820
	H4	H	0.722260	0.397529	0.846490
	H5	H	0.720852	0.600459	0.170944
	H6	H	0.286630	0.602046	0.845172
	H7	H	0.288359	0.398769	0.170564
	H8	H	0.843578	0.714302	0.405717
	H9	H	0.165867	0.713978	0.609888
	H10	H	0.843000	0.277534	0.610504
	H11	H	0.166437	0.280226	0.408188
	H12	H	0.841442	0.395065	0.724744
	H13	H	0.166640	0.595567	0.722614
	H14	H	0.842703	0.595502	0.292263
	H15	H	0.165727	0.393478	0.289334
	H16	H	0.405665	0.715658	0.844194
	H17	H	0.604285	0.715901	0.171261
	H18	H	0.605989	0.284057	0.845066
	H19	H	0.403932	0.283587	0.170272
	H20	H	0.721002	0.836428	0.403343
	H21	H	0.722442	0.160144	0.608542
	H22	H	0.287345	0.835417	0.612057
	H23	H	0.286484	0.159416	0.408216
	H24	H	0.903704	0.333911	0.222813
	H25	H	0.104974	0.658085	0.226254
	H26	H	0.105576	0.334409	0.791598
	H27	H	0.902424	0.658959	0.788920
	H28	H	0.223912	0.893590	0.346975
	H29	H	0.221407	0.097919	0.670590
	H30	H	0.788772	0.098077	0.344926
	H31	H	0.784726	0.894539	0.669502
	H32	H	0.342030	0.216314	0.907186
	H33	H	0.666498	0.217262	0.107823
	H34	H	0.343522	0.781439	0.111279
	H35	H	0.665801	0.780952	0.903688
	H36	H	0.342000	0.901130	0.224358
	H37	H	0.665240	0.104068	0.226617
	H38	H	0.342616	0.100342	0.790721
	H39	H	0.667192	0.899999	0.790815
	H40	H	0.903555	0.213625	0.345586
	H41	H	0.106751	0.214100	0.670093
	H42	H	0.105517	0.781122	0.345348
	H43	H	0.901993	0.779375	0.670461
	H44	H	0.223507	0.336847	0.905710
	H45	H	0.219064	0.660331	0.108303
	H46	H	0.784362	0.336974	0.110512
	H47	H	0.786755	0.659837	0.904964
	H48	H	0.410866	0.111565	0.594226
	H49	H	0.596433	0.883239	0.598195
	H50	H	0.589256	0.111735	0.416973
	H51	H	0.418353	0.884507	0.416742
	H52	H	0.603026	0.408108	0.126958
	H53	H	0.595735	0.594574	0.890807
	H54	H	0.411382	0.587877	0.121459
	H55	H	0.407936	0.411273	0.890618
	H56	H	0.119659	0.586700	0.417823
	H57	H	0.888321	0.599842	0.588471
	H58	H	0.122101	0.404857	0.608107
	H59	H	0.891948	0.413041	0.413464
	H60	H	0.119706	0.396049	0.593295
	H61	H	0.895848	0.573752	0.593625
	H62	H	0.119131	0.587616	0.415665
	H63	H	0.885641	0.397340	0.410178
	H64	H	0.415421	0.592934	0.122661
	H65	H	0.600612	0.587776	0.892818
	H66	H	0.591112	0.415989	0.120466
	H67	H	0.417575	0.412485	0.894048
	H68	H	0.602459	0.113830	0.424951
	H69	H	0.594405	0.883096	0.600231
	H70	H	0.409569	0.114218	0.600731
	H71	H	0.412151	0.884375	0.420491
	H72	H	0.919061	0.611774	0.102919
	H73	H	0.093819	0.380683	0.105332
	H74	H	0.097143	0.612687	0.917154
	H75	H	0.911290	0.383300	0.920205
	H76	H	0.087053	0.906602	0.620111
	H77	H	0.098675	0.081903	0.393452
	H78	H	0.921872	0.093905	0.622288
	H79	H	0.905717	0.908712	0.391115
	H80	H	0.625513	0.103178	0.906060
	H81	H	0.389713	0.094947	0.097744
	H82	H	0.614356	0.915694	0.090162
	H83	H	0.388409	0.906644	0.910966
	H84	H	0.619860	0.913497	0.107195
	H85	H	0.390652	0.089342	0.100347
	H86	H	0.616792	0.095647	0.928019
	H87	H	0.390363	0.904389	0.922232
	H88	H	0.903162	0.088158	0.627108
	H89	H	0.090218	0.088264	0.394588
	H90	H	0.096707	0.897841	0.627002
	H91	H	0.918772	0.908571	0.394965
	H92	H	0.094600	0.613503	0.913193
	H93	H	0.093340	0.384937	0.093005
	H94	H	0.913319	0.610726	0.093539
	H95	H	0.911761	0.382346	0.916154
	H96	H	0.415986	0.112290	0.598836
	H97	H	0.593567	0.883936	0.597491
	H98	H	0.601906	0.118365	0.409555
	H99	H	0.411626	0.881775	0.413169
	H100	H	0.589132	0.400817	0.124487
	H101	H	0.592002	0.587558	0.895371
	H102	H	0.409117	0.592528	0.124537
	H103	H	0.414060	0.402940	0.890785
	H104	H	0.119051	0.588854	0.417388
	H105	H	0.884609	0.589545	0.613478
	H106	H	0.114475	0.412454	0.594533
	H107	H	0.890666	0.401636	0.426319
	H108	H	0.908565	0.615443	0.103233
	H109	H	0.104163	0.379604	0.097140
	H110	H	0.092999	0.610950	0.917150
	H111	H	0.915257	0.383465	0.918871
	H112	H	0.100707	0.911955	0.623893
	H113	H	0.098690	0.090931	0.389854
	H114	H	0.915966	0.075462	0.618300
	H115	H	0.912614	0.896709	0.389552
	H116	H	0.617402	0.079561	0.909645
	H117	H	0.388033	0.093878	0.103702
	H118	H	0.621758	0.900057	0.095698
	H119	H	0.392306	0.914756	0.917886
	C120	C	0.382565	0.006027	0.629728
	C121	C	0.625452	0.990381	0.628654
	C122	C	0.626641	0.007543	0.385956
	C123	C	0.383756	0.990638	0.387302
	C124	C	0.624841	0.378580	0.016472
	C125	C	0.626352	0.621017	0.999774
	C126	C	0.382205	0.621879	0.015689
	C127	C	0.382938	0.378512	0.999232
	C128	C	0.012675	0.617561	0.386606
	C129	C	0.996168	0.617996	0.629014
	C130	C	0.012314	0.373811	0.629881
	C131	C	0.996088	0.373924	0.386239
	C132	C	0.882895	0.505723	0.129864
	C133	C	0.126041	0.488652	0.129088
	C134	C	0.125894	0.505927	0.885717
	C135	C	0.882561	0.489588	0.886877
	C136	C	0.125743	0.875065	0.516848
	C137	C	0.126062	0.117461	0.499931
	C138	C	0.883575	0.116898	0.515830
	C139	C	0.881687	0.874165	0.499199
	C140	C	0.512920	0.122446	0.884985
	C141	C	0.496104	0.122601	0.129910
	C142	C	0.512303	0.879186	0.129127
	C143	C	0.496928	0.878521	0.886240
	C144	C	0.383824	0.884841	0.688121
	C145	C	0.623816	0.113064	0.683812
	C146	C	0.625313	0.886353	0.327560
	C147	C	0.384935	0.113382	0.332163
	C148	C	0.683087	0.378655	0.894817
	C149	C	0.682686	0.620352	0.122231
	C150	C	0.325483	0.621363	0.893725
	C151	C	0.327041	0.379807	0.122006
	C152	C	0.891519	0.674811	0.386844
	C153	C	0.117553	0.675238	0.628972
	C154	C	0.890942	0.316252	0.630126
	C155	C	0.117641	0.317792	0.387359
	C156	C	0.890401	0.374858	0.687014
	C157	C	0.118018	0.616329	0.685240
	C158	C	0.891153	0.616052	0.330132
	C159	C	0.117378	0.374213	0.328376
	C160	C	0.384623	0.678035	0.893247
	C161	C	0.624633	0.677545	0.122356
	C162	C	0.624787	0.322263	0.893885
	C163	C	0.383760	0.321603	0.121379
	C164	C	0.682738	0.885320	0.385104
	C165	C	0.683026	0.111993	0.627670
	C166	C	0.326058	0.884145	0.630779
	C167	C	0.325712	0.111799	0.388305
	C168	C	0.883557	0.383196	0.185587
	C169	C	0.124792	0.610080	0.187045
	C170	C	0.125529	0.383535	0.829557
	C171	C	0.883159	0.610637	0.828173
	C172	C	0.184383	0.874715	0.395244
	C173	C	0.183031	0.117204	0.621911
	C174	C	0.827083	0.117349	0.393643
	C175	C	0.824170	0.874943	0.621134
	C176	C	0.390931	0.178376	0.886623
	C177	C	0.617861	0.179226	0.128078
	C178	C	0.391509	0.820672	0.130399
	C179	C	0.617971	0.820488	0.885352
	C180	C	0.390707	0.880454	0.186431
	C181	C	0.617266	0.122711	0.187100
	C182	C	0.390793	0.120558	0.828948
	C183	C	0.618512	0.879442	0.828903
	C184	C	0.884256	0.174773	0.393954
	C185	C	0.125911	0.175035	0.621605
	C186	C	0.125494	0.818893	0.394430
	C187	C	0.882365	0.817359	0.621406
	C188	C	0.184183	0.384737	0.886298
	C189	C	0.181594	0.611383	0.128581
	C190	C	0.824054	0.384737	0.129827
	C191	C	0.825546	0.611193	0.885904
	C192	C	0.405586	0.090849	0.605241
	C193	C	0.601665	0.905323	0.605474
	C194	C	0.604475	0.092403	0.410075
	C195	C	0.407213	0.905671	0.409948
	C196	C	0.601244	0.401649	0.101915
	C197	C	0.603069	0.597075	0.915100
	C198	C	0.405220	0.598100	0.100805
	C199	C	0.406223	0.402012	0.913942
	C200	C	0.097358	0.594582	0.410142
	C201	C	0.911603	0.594561	0.605414
	C202	C	0.096734	0.397407	0.605731
	C203	C	0.911390	0.397330	0.409889
	C204	C	0.906714	0.590627	0.106588
	C205	C	0.103799	0.403670	0.105452
	C206	C	0.102015	0.590489	0.908941
	C207	C	0.905903	0.404875	0.911382
	C208	C	0.101780	0.898690	0.601669
	C209	C	0.102661	0.093831	0.414780
	C210	C	0.906806	0.092821	0.600674
	C211	C	0.905349	0.897707	0.414082
	C212	C	0.597652	0.099534	0.907748
	C213	C	0.411278	0.099353	0.107293
	C214	C	0.596765	0.902828	0.104727
	C215	C	0.412182	0.901890	0.910122
	Zn216	Zn	0.504482	-0.000481	0.757548
	Zn217	Zn	0.504605	0.000755	0.258398
	Zn218	Zn	0.754114	0.499006	0.008870
	Zn219	Zn	0.254566	0.498866	0.007600
	Zn220	Zn	0.004746	0.746918	0.507990
	Zn221	Zn	0.004152	0.245455	0.508149
	Zn222	Zn	0.003895	0.496115	0.757479
	Zn223	Zn	0.004554	0.495845	0.257840
	Zn224	Zn	0.505285	0.749864	0.007667
	Zn225	Zn	0.504488	0.250477	0.007065
	Zn226	Zn	0.754427	-0.002531	0.507217
	Zn227	Zn	0.254214	-0.003516	0.508236
	N228	N	0.418267	0.961663	0.687510
	N229	N	0.588854	0.036497	0.684418
	N230	N	0.591202	0.963249	0.327975
	N231	N	0.420399	0.037054	0.331514
	N232	N	0.683283	0.412942	0.971963
	N233	N	0.683979	0.586155	0.044986
	N234	N	0.324005	0.587138	0.970951
	N235	N	0.326138	0.414226	0.044723
	N236	N	0.968213	0.675966	0.421087
	N237	N	0.040576	0.676542	0.594920
	N238	N	0.967680	0.315402	0.595503
	N239	N	0.041208	0.317482	0.422389
	N240	N	0.967037	0.409715	0.687198
	N241	N	0.041546	0.581415	0.685455
	N242	N	0.967570	0.581136	0.329841
	N243	N	0.040511	0.408305	0.327338
	N244	N	0.418946	0.678752	0.970253
	N245	N	0.590451	0.678333	0.045327
	N246	N	0.589557	0.321974	0.970579
	N247	N	0.418071	0.320954	0.044232
	N248	N	0.683589	0.961684	0.420857
	N249	N	0.684424	0.034415	0.594198
	N250	N	0.325228	0.960515	0.595172
	N251	N	0.324893	0.034593	0.422110
	N252	N	0.919464	0.459502	0.185619
	N253	N	0.091318	0.532738	0.187794
	N254	N	0.090093	0.459808	0.828971
	N255	N	0.917817	0.533941	0.828571
	N256	N	0.184888	0.908886	0.472497
	N257	N	0.183113	0.082022	0.545067
	N258	N	0.826627	0.081967	0.470254
	N259	N	0.823406	0.909259	0.544008
	N260	N	0.467689	0.179539	0.920778
	N261	N	0.541430	0.179300	0.093093
	N262	N	0.468064	0.819907	0.095385
	N263	N	0.541308	0.819673	0.920283
	N264	N	0.466930	0.916016	0.185855
	N265	N	0.540642	0.088335	0.188454
	N266	N	0.467609	0.086445	0.827732
	N267	N	0.542276	0.914817	0.829510
	N268	N	0.918786	0.174623	0.470998
	N269	N	0.091309	0.175417	0.544738
	N270	N	0.090005	0.818833	0.471089
	N271	N	0.917419	0.816812	0.544449
	N272	N	0.184728	0.461907	0.920355
	N273	N	0.182553	0.534861	0.093361
	N274	N	0.823520	0.461971	0.096077
	N275	N	0.825280	0.534892	0.921972
	O276	O	0.068764	-0.017024	-0.061482
	H277	H	0.081191	-0.018244	-0.062794
	H278	H	0.060042	-0.004961	-0.063444
	O279	O	0.504537	0.524183	0.507499
	H280	H	0.517273	0.515151	0.504078
	H281	H	0.499460	0.529348	0.514837
	O282	O	0.842850	-0.166623	0.176206
	H283	H	0.855176	-0.147245	0.184164
	H284	H	0.847324	-0.163203	0.182256
	O285	O	-0.557644	1.542285	-0.504844
	H286	H	-0.563357	1.549927	-0.512885
	H287	H	-0.561586	1.549730	-0.508506
	O288	O	0.494485	0.359730	0.614342
	H289	H	0.487425	0.366378	0.616575
	H290	H	0.486410	0.350562	0.606088
	O291	O	0.419350	0.573914	0.440868
	H292	H	0.412749	0.577146	0.442889
	H293	H	0.424843	0.567143	0.448547
	O294	O	1.181512	0.892106	1.015757
	H295	H	1.171738	0.894866	1.009171
	H296	H	1.187347	0.873077	1.014948
	O297	O	0.048821	-0.062695	0.065443
	H298	H	0.059143	-0.077820	0.048888
	H299	H	0.056765	-0.061054	0.074394
	O300	O	0.550881	0.483839	0.612333
	H301	H	0.543449	0.483282	0.609992
	H302	H	0.551762	0.467660	0.616719
	O303	O	0.001251	1.099288	1.156575
	H304	H	0.008399	1.104532	1.145712
	H305	H	-0.003491	1.100916	1.151514
	O306	O	0.624030	0.618804	0.612416
	H307	H	0.614547	0.617992	0.629066
	H308	H	0.637829	0.630642	0.620989
	O309	O	0.981794	-0.098016	-0.081590
	H310	H	0.977024	-0.081092	-0.085470
	H311	H	0.980745	-0.113335	-0.086786
	O312	O	-0.579148	0.455385	0.537159
	H313	H	-0.577560	0.458945	0.527595
	H314	H	-0.578274	0.456628	0.539283
	O315	O	0.396027	0.617190	0.365660
	H316	H	0.415606	0.621251	0.370224
	H317	H	0.388924	0.618958	0.355785
	O318	O	1.054531	0.859512	1.037048
	H319	H	1.036076	0.855706	1.042771
	H320	H	1.055339	0.868244	1.030763
	O321	O	0.463990	0.520099	0.529777
	H322	H	0.461947	0.510660	0.514630
	H323	H	0.455877	0.517920	0.528531
	O324	O	0.506902	0.627511	0.501309
	H325	H	0.508134	0.638197	0.501716
	H326	H	0.501459	0.638748	0.496571
	O327	O	0.040755	0.858054	0.943403
	H328	H	0.035610	0.836798	0.939459
	H329	H	0.039815	0.862633	0.952805
	O330	O	0.538164	0.446399	0.610469
	H331	H	0.542554	0.453750	0.613364
	H332	H	0.545992	0.439878	0.608668
	O333	O	0.065411	1.101530	1.094400
	H334	H	0.063859	1.103464	1.104744
	H335	H	0.072379	1.092333	1.084347
	O336	O	0.817773	0.824265	1.042077
	H337	H	0.812062	0.831485	1.061174
	H338	H	0.807023	0.809366	1.056138
	O339	O	0.617746	0.447241	0.517974
	H340	H	0.618126	0.465473	0.495956
	H341	H	0.610283	0.454575	0.513200
	O342	O	0.952334	0.035126	0.040984
	H343	H	0.951906	0.044577	0.033763
	H344	H	0.952699	0.027245	0.046212
	O345	O	0.587766	0.621232	0.485531
	H346	H	0.600614	0.619152	0.493431
	H347	H	0.585064	0.626884	0.500558
	O348	O	1.097667	0.965077	0.904934
	H349	H	1.094060	0.965001	0.907580
	H350	H	1.084197	0.972588	0.889126
	O351	O	0.967395	1.024278	0.081545
	H352	H	0.967590	1.018761	0.066610
	H353	H	0.966624	1.024637	0.079935
	O354	O	0.558012	0.458310	0.626993
	H355	H	0.547001	0.444098	0.637543
	H356	H	0.564851	0.455981	0.621653
	O357	O	0.553316	0.518799	0.527847
	H358	H	0.537598	0.504808	0.538617
	H359	H	0.557923	0.527196	0.512020
	O360	O	0.167854	0.042835	-0.080569
	H361	H	0.159414	0.032258	-0.085216
	H362	H	0.186863	0.044855	-0.087414
	O363	O	0.467044	0.380449	0.420061
	H364	H	0.469085	0.395987	0.420478
	H365	H	0.475582	0.393782	0.420480
	O366	O	0.512994	0.563614	0.475077
	H367	H	0.504859	0.561510	0.482235
	H368	H	0.511085	0.563941	0.470772
	O369	O	-0.051694	0.170655	-0.154401
	H370	H	-0.048942	0.154955	-0.152140
	H371	H	-0.058752	0.181646	-0.149948
	O372	O	0.518058	0.537678	0.505721
	H373	H	0.523524	0.531620	0.518285
	H374	H	0.518279	0.525855	0.502203
	O375	O	0.456914	0.389192	0.505701
	H376	H	0.461797	0.397577	0.510821
	H377	H	0.457781	0.407561	0.494835
	O378	O	0.530029	0.388873	0.347888
	H379	H	0.513151	0.401114	0.346876
	H380	H	0.526711	0.383197	0.349261
	O381	O	-0.155618	1.074486	0.933179
	H382	H	-0.150339	1.077533	0.946983
	H383	H	-0.162791	1.086922	0.926893
	O384	O	0.110591	0.959408	-0.162633
	H385	H	0.112187	0.950974	-0.163284
	H386	H	0.103913	0.966183	-0.162747
	O387	O	1.051193	0.088755	1.099575
	H388	H	1.045446	0.096751	1.086169
	H389	H	1.051563	0.094296	1.106358
	O390	O	0.007721	1.002429	0.056673
	H391	H	0.020452	1.006501	0.054131
	H392	H	0.012779	0.993751	0.046850
	O393	O	0.881317	1.098980	0.060056
	H394	H	0.889577	1.107049	0.068141
	H395	H	0.889207	1.113874	0.051399
	O396	O	0.373792	0.491956	0.510314
	H397	H	0.368706	0.491465	0.510583
	H398	H	0.376428	0.487842	0.501837
	O399	O	-0.056874	0.957390	0.960916
	H400	H	-0.063001	0.948512	0.962031
	H401	H	-0.059300	0.961193	0.969027
	O402	O	0.922016	0.006287	0.069846
	H403	H	0.922586	0.020303	0.066187
	H404	H	0.917835	-0.002130	0.073460
	O405	O	1.052560	0.072318	-0.038150
	H406	H	1.054448	0.062131	-0.049239
	H407	H	1.049270	0.074632	-0.031013
