data_Molecule from HDF5

_cell_length_a		16.572094
_cell_length_b		16.776834
_cell_length_c		16.634390
_cell_angle_alpha	89.859841
_cell_angle_beta	89.856281
_cell_angle_gamma	89.865232
_symmetry_space_group_name_H-M	'P 1'
_symmetry_Int_Tables_number		1

loop_
	_symmetry_equiv_pos_as_xyz
	x,y,z

loop_
	_atom_site_label
	_atom_site_type_symbol
	_atom_site_fract_x
	_atom_site_fract_y
	_atom_site_fract_z
	H0	H	0.369641	0.838173	0.714520
	H1	H	0.584968	0.143327	0.710634
	H2	H	0.585015	0.835955	0.266425
	H3	H	0.374456	0.143027	0.267145
	H4	H	0.699076	0.386354	0.832674
	H5	H	0.698526	0.594870	0.142850
	H6	H	0.257653	0.593218	0.831568
	H7	H	0.258663	0.387842	0.144341
	H8	H	0.823476	0.712402	0.380906
	H9	H	0.134363	0.708303	0.591467
	H10	H	0.820533	0.271166	0.591823
	H11	H	0.132054	0.266660	0.381164
	H12	H	0.819637	0.388523	0.706374
	H13	H	0.135068	0.590416	0.705004
	H14	H	0.822006	0.595062	0.268163
	H15	H	0.132415	0.383222	0.266073
	H16	H	0.369267	0.713244	0.834006
	H17	H	0.583271	0.711083	0.142847
	H18	H	0.585516	0.267383	0.834478
	H19	H	0.373974	0.270507	0.144073
	H20	H	0.699135	0.834478	0.384982
	H21	H	0.700640	0.143872	0.593017
	H22	H	0.251988	0.838528	0.599446
	H23	H	0.256280	0.142317	0.383136
	H24	H	0.870446	0.337088	0.211374
	H25	H	0.083891	0.642227	0.210706
	H26	H	0.079447	0.333592	0.769551
	H27	H	0.872469	0.644196	0.766181
	H28	H	0.197974	0.888409	0.332670
	H29	H	0.201139	0.096180	0.642679
	H30	H	0.759714	0.093016	0.332164
	H31	H	0.759332	0.886726	0.644342
	H32	H	0.323867	0.213839	0.880148
	H33	H	0.635440	0.207028	0.089897
	H34	H	0.320842	0.770781	0.092857
	H35	H	0.630447	0.766814	0.881363
	H36	H	0.320734	0.887853	0.207100
	H37	H	0.635872	0.089016	0.204180
	H38	H	0.323913	0.098554	0.764390
	H39	H	0.632452	0.884527	0.767379
	H40	H	0.872428	0.211894	0.334515
	H41	H	0.084579	0.211461	0.642903
	H42	H	0.084102	0.769927	0.333268
	H43	H	0.872907	0.767589	0.642807
	H44	H	0.196258	0.333958	0.886213
	H45	H	0.198035	0.643510	0.091744
	H46	H	0.755565	0.336553	0.093737
	H47	H	0.754965	0.643541	0.882545
	H48	H	0.384750	0.101314	0.576392
	H49	H	0.568326	0.877615	0.582965
	H50	H	0.565307	0.100441	0.395009
	H51	H	0.387870	0.878051	0.398620
	H52	H	0.566614	0.402546	0.098769
	H53	H	0.564650	0.576783	0.878033
	H54	H	0.381652	0.576436	0.099870
	H55	H	0.385895	0.399075	0.875304
	H56	H	0.091623	0.581712	0.398345
	H57	H	0.862790	0.584431	0.578866
	H58	H	0.089833	0.400422	0.578421
	H59	H	0.865947	0.400860	0.399150
	H60	H	0.090559	0.397282	0.578709
	H61	H	0.868204	0.580049	0.570439
	H62	H	0.089276	0.578783	0.400830
	H63	H	0.866756	0.400352	0.403370
	H64	H	0.393432	0.575529	0.095518
	H65	H	0.562748	0.579465	0.878071
	H66	H	0.564321	0.397249	0.099834
	H67	H	0.390066	0.402738	0.876748
	H68	H	0.568479	0.099630	0.400230
	H69	H	0.564130	0.881187	0.576641
	H70	H	0.397552	0.098044	0.579315
	H71	H	0.391504	0.878663	0.397529
	H72	H	0.886189	0.598678	0.071723
	H73	H	0.066219	0.376947	0.082134
	H74	H	0.060293	0.597608	0.900172
	H75	H	0.884213	0.377323	0.897549
	H76	H	0.063819	0.899524	0.599601
	H77	H	0.069439	0.077494	0.376510
	H78	H	0.891664	0.080737	0.599998
	H79	H	0.887706	0.903702	0.376943
	H80	H	0.588025	0.075504	0.899831
	H81	H	0.364451	0.082915	0.077641
	H82	H	0.592336	0.893073	0.079071
	H83	H	0.364530	0.902897	0.900712
	H84	H	0.588335	0.898607	0.071879
	H85	H	0.365357	0.079860	0.076866
	H86	H	0.590385	0.079616	0.897302
	H87	H	0.366361	0.902081	0.902615
	H88	H	0.887441	0.080148	0.601811
	H89	H	0.062754	0.073920	0.380784
	H90	H	0.065143	0.897641	0.600771
	H91	H	0.894230	0.898125	0.376738
	H92	H	0.076881	0.602572	0.900203
	H93	H	0.061502	0.382185	0.075048
	H94	H	0.886424	0.601963	0.081248
	H95	H	0.891280	0.379150	0.894026
	H96	H	0.392383	0.095192	0.567242
	H97	H	0.572303	0.878921	0.575491
	H98	H	0.571370	0.102200	0.395588
	H99	H	0.390548	0.879643	0.400732
	H100	H	0.569684	0.398460	0.101656
	H101	H	0.565654	0.579518	0.876871
	H102	H	0.389306	0.585628	0.101339
	H103	H	0.391028	0.397562	0.875924
	H104	H	0.090223	0.578052	0.396645
	H105	H	0.866377	0.574070	0.579320
	H106	H	0.089048	0.398263	0.575651
	H107	H	0.867257	0.403946	0.401786
	H108	H	0.894960	0.598514	0.076692
	H109	H	0.070659	0.379181	0.073556
	H110	H	0.067532	0.603834	0.886007
	H111	H	0.890030	0.380761	0.901868
	H112	H	0.066260	0.900342	0.599872
	H113	H	0.062334	0.082447	0.377804
	H114	H	0.889514	0.076881	0.599716
	H115	H	0.886749	0.895649	0.374008
	H116	H	0.589650	0.080247	0.902584
	H117	H	0.364675	0.080994	0.080192
	H118	H	0.589606	0.902035	0.080819
	H119	H	0.365635	0.904535	0.901643
	C120	C	0.357267	-0.002318	0.609240
	C121	C	0.600208	0.981458	0.609934
	C122	C	0.600486	-0.001943	0.365879
	C123	C	0.357237	0.980671	0.366671
	C124	C	0.599464	0.368220	-0.002815
	C125	C	0.597280	0.610931	0.979958
	C126	C	0.355903	0.610876	-0.003906
	C127	C	0.356996	0.368671	0.979436
	C128	C	-0.012978	0.611614	0.366500
	C129	C	0.969452	0.610165	0.607520
	C130	C	-0.014133	0.368081	0.609296
	C131	C	0.969214	0.369251	0.368092
	C132	C	0.856230	0.498342	0.109365
	C133	C	0.098600	0.480980	0.108843
	C134	C	0.099540	0.498013	0.865104
	C135	C	0.855964	0.481349	0.865871
	C136	C	0.098832	0.868276	0.497224
	C137	C	0.098677	0.110898	0.480328
	C138	C	0.857335	0.110774	0.497509
	C139	C	0.857296	0.868004	0.479312
	C140	C	0.487039	0.111908	0.866668
	C141	C	0.469671	0.110580	0.108592
	C142	C	0.486720	0.867460	0.109428
	C143	C	0.468180	0.869872	0.868287
	C144	C	0.352431	0.883787	0.672777
	C145	C	0.602648	0.097263	0.669978
	C146	C	0.602978	0.881956	0.306593
	C147	C	0.355265	0.096736	0.307012
	C148	C	0.659316	0.367086	0.879628
	C149	C	0.658202	0.613072	0.096251
	C150	C	0.296712	0.612471	0.878856
	C151	C	0.298091	0.368580	0.097330
	C152	C	0.870117	0.672063	0.363525
	C153	C	0.087549	0.668418	0.609345
	C154	C	0.867630	0.310240	0.610668
	C155	C	0.085596	0.307621	0.363615
	C156	C	0.867241	0.368640	0.667372
	C157	C	0.087959	0.609926	0.665805
	C158	C	0.869486	0.613645	0.307200
	C159	C	0.086050	0.365811	0.306700
	C160	C	0.352340	0.671891	0.879884
	C161	C	0.600807	0.670919	0.096215
	C162	C	0.602903	0.308237	0.880559
	C163	C	0.355477	0.310338	0.097138
	C164	C	0.659788	0.881419	0.365430
	C165	C	0.660250	0.097490	0.611598
	C166	C	0.294036	0.883689	0.615534
	C167	C	0.297003	0.096395	0.364745
	C168	C	0.852959	0.383057	0.170547
	C169	C	0.101377	0.596584	0.169388
	C170	C	0.099233	0.380570	0.808298
	C171	C	0.853863	0.597745	0.806213
	C172	C	0.158819	0.868269	0.379753
	C173	C	0.160345	0.113876	0.596162
	C174	C	0.798815	0.112226	0.379526
	C175	C	0.798524	0.867260	0.597134
	C176	C	0.370487	0.173489	0.862443
	C177	C	0.588121	0.167899	0.108983
	C178	C	0.367930	0.810054	0.111222
	C179	C	0.584374	0.808117	0.864117
	C180	C	0.368124	0.867802	0.168221
	C181	C	0.588514	0.109168	0.165547
	C182	C	0.370567	0.116044	0.805051
	C183	C	0.585504	0.866562	0.807485
	C184	C	0.854787	0.171186	0.380601
	C185	C	0.102458	0.171393	0.596350
	C186	C	0.102384	0.809595	0.379897
	C187	C	0.854665	0.807932	0.596369
	C188	C	0.157152	0.380611	0.866180
	C189	C	0.158322	0.597085	0.110467
	C190	C	0.795881	0.382813	0.111894
	C191	C	0.795538	0.597360	0.863877
	C192	C	0.383855	0.077547	0.581856
	C193	C	0.575281	0.900496	0.585464
	C194	C	0.575644	0.079439	0.390022
	C195	C	0.382823	0.899695	0.391944
	C196	C	0.574145	0.392618	0.078799
	C197	C	0.571552	0.585794	0.898711
	C198	C	0.380963	0.586240	0.077760
	C199	C	0.381826	0.392835	0.897284
	C200	C	0.069133	0.586607	0.391572
	C201	C	0.887377	0.586408	0.583064
	C202	C	0.068486	0.391812	0.584715
	C203	C	0.887902	0.394641	0.394013
	C204	C	0.881850	0.578890	0.083803
	C205	C	0.073403	0.400365	0.084007
	C206	C	0.075362	0.579934	0.888631
	C207	C	0.881215	0.400265	0.890788
	C208	C	0.072511	0.892282	0.578774
	C209	C	0.072379	0.085201	0.399324
	C210	C	0.882197	0.086217	0.579169
	C211	C	0.882333	0.892388	0.397267
	C212	C	0.568270	0.085973	0.892643
	C213	C	0.386631	0.087766	0.085089
	C214	C	0.568686	0.890976	0.084467
	C215	C	0.386722	0.895774	0.894393
	Zn216	Zn	0.477776	-0.009579	0.739431
	Zn217	Zn	0.478386	-0.011227	0.237049
	Zn218	Zn	0.726832	0.490390	-0.011878
	Zn219	Zn	0.227792	0.489444	-0.012675
	Zn220	Zn	-0.021358	0.739392	0.487429
	Zn221	Zn	-0.022239	0.239959	0.488739
	Zn222	Zn	-0.022568	0.489956	0.736403
	Zn223	Zn	-0.022709	0.489764	0.238828
	Zn224	Zn	0.475960	0.739766	-0.012004
	Zn225	Zn	0.477915	0.239736	-0.011923
	Zn226	Zn	0.729257	-0.010428	0.487788
	Zn227	Zn	0.227137	-0.010236	0.488597
	N228	N	0.391079	0.955809	0.668873
	N229	N	0.566028	0.023974	0.669156
	N230	N	0.566842	0.955618	0.306540
	N231	N	0.392016	0.023568	0.308035
	N232	N	0.657379	0.403807	0.953207
	N233	N	0.656298	0.576345	0.022707
	N234	N	0.298690	0.575086	0.952154
	N235	N	0.298786	0.403932	0.022769
	N236	N	0.944468	0.670939	0.399568
	N237	N	0.012873	0.668825	0.573883
	N238	N	0.942619	0.309624	0.575437
	N239	N	0.011942	0.309401	0.401115
	N240	N	0.942111	0.403548	0.666876
	N241	N	0.013560	0.574172	0.664979
	N242	N	0.943566	0.576891	0.308537
	N243	N	0.012651	0.403480	0.309271
	N244	N	0.388523	0.670946	0.954014
	N245	N	0.563464	0.669619	0.022726
	N246	N	0.566493	0.308704	0.954672
	N247	N	0.391325	0.310113	0.022678
	N248	N	0.658673	0.954855	0.401482
	N249	N	0.659078	0.024298	0.575036
	N250	N	0.296909	0.955707	0.576395
	N251	N	0.298019	0.023074	0.401132
	N252	N	0.889669	0.456150	0.169289
	N253	N	0.064950	0.523426	0.168758
	N254	N	0.064480	0.454889	0.807153
	N255	N	0.890407	0.524350	0.806953
	N256	N	0.157052	0.903854	0.453931
	N257	N	0.158226	0.077042	0.522749
	N258	N	0.799934	0.075619	0.453244
	N259	N	0.799909	0.903592	0.523168
	N260	N	0.444108	0.171325	0.900088
	N261	N	0.512840	0.169206	0.074752
	N262	N	0.442697	0.809224	0.075683
	N263	N	0.510255	0.809920	0.901075
	N264	N	0.442965	0.902726	0.167559
	N265	N	0.513583	0.074399	0.165745
	N266	N	0.444103	0.078412	0.807464
	N267	N	0.512051	0.904231	0.809740
	N268	N	0.890238	0.170827	0.455171
	N269	N	0.065018	0.169846	0.522973
	N270	N	0.066002	0.809275	0.454079
	N271	N	0.890380	0.807965	0.521796
	N272	N	0.157792	0.454871	0.900524
	N273	N	0.156925	0.524124	0.073652
	N274	N	0.797751	0.455486	0.074414
	N275	N	0.796560	0.523852	0.900282
	O276	O	0.178170	1.010547	-0.103761
	H277	H	0.184469	1.014197	-0.098787
	H278	H	0.180724	1.020389	-0.103023
	O279	O	0.699659	0.433532	0.497781
	H280	H	0.710410	0.423770	0.505193
	H281	H	0.690481	0.416357	0.501602
	O282	O	0.898678	-0.139856	1.097937
	H283	H	0.917396	-0.139007	1.097420
	H284	H	0.881665	-0.150331	1.096446
	O285	O	0.251078	0.474757	0.364473
	H286	H	0.244441	0.459265	0.358577
	H287	H	0.256150	0.451427	0.377801
	O288	O	0.625526	0.626294	0.294721
	H289	H	0.635928	0.603577	0.289613
	H290	H	0.596137	0.621223	0.298248
	O291	O	0.508758	0.708255	0.707546
	H292	H	0.526480	0.729660	0.725603
	H293	H	0.538039	0.709636	0.707843
	O294	O	0.990531	-0.221851	0.785197
	H295	H	0.980310	-0.213828	0.779728
	H296	H	0.996059	-0.219323	0.777903
	O297	O	0.804840	0.767431	-0.012381
	H298	H	0.803476	0.787808	-0.002262
	H299	H	0.801834	0.756587	-0.007439
	O300	O	-0.209008	0.208185	0.968115
	H301	H	-0.202572	0.221665	0.970269
	H302	H	-0.202460	0.219516	0.986383
	O303	O	0.698232	0.556274	0.432700
	H304	H	0.697542	0.542994	0.429016
	H305	H	0.706259	0.527630	0.414652
	O306	O	0.551847	0.514251	0.509889
	H307	H	0.543320	0.514492	0.520949
	H308	H	0.550606	0.512424	0.507939
	O309	O	0.259980	0.266813	0.514967
	H310	H	0.238618	0.231814	0.514720
	H311	H	0.276128	0.269345	0.542064
	O312	O	0.475877	0.567735	0.386295
	H313	H	0.486443	0.577957	0.393019
	H314	H	0.477207	0.576809	0.381410
	O315	O	1.185844	1.104182	1.199833
	H316	H	1.206404	1.105731	1.214576
	H317	H	1.193368	1.067139	1.191156
	O318	O	0.413355	0.259782	0.433108
	H319	H	0.409411	0.254752	0.440579
	H320	H	0.432890	0.252799	0.430937
	O321	O	0.033048	1.025486	0.765340
	H322	H	0.040815	1.031987	0.767676
	H323	H	0.046351	1.039719	0.769113
	O324	O	0.785261	0.973981	0.176895
	H325	H	0.779266	0.979031	0.180127
	H326	H	0.784655	0.962730	0.184888
	O327	O	-0.101227	0.067104	1.057890
	H328	H	-0.105634	0.060361	1.044528
	H329	H	-0.087302	0.071099	1.054840
	O330	O	0.502048	0.433569	0.494917
	H331	H	0.490766	0.430322	0.504098
	H332	H	0.508495	0.435658	0.493331
	O333	O	0.309980	0.570628	0.432672
	H334	H	0.341049	0.565134	0.424541
	H335	H	0.300522	0.564402	0.435474
	O336	O	0.695927	0.266744	0.454039
	H337	H	0.696909	0.267103	0.444592
	H338	H	0.706641	0.252140	0.466575
	O339	O	1.186083	-0.130572	0.942332
	H340	H	1.188915	-0.153859	0.946563
	H341	H	1.175361	-0.135453	0.949579
	O342	O	0.518579	0.441395	-0.282955
	H343	H	0.538967	0.459880	-0.284077
	H344	H	0.524324	0.462505	-0.280320
	O345	O	0.208508	0.761423	1.221394
	H346	H	0.240914	0.739721	1.237152
	H347	H	0.204961	0.768527	1.237057
	O348	O	0.227757	0.239367	0.238432
	H349	H	0.230223	0.214938	0.258203
	H350	H	0.259937	0.265953	0.260351
	O351	O	0.787707	1.182788	0.179982
	H352	H	0.812466	1.165688	0.165484
	H353	H	0.808601	1.168990	0.160476
	O354	O	-0.249778	-0.072919	0.930557
	H355	H	-0.253536	-0.054644	0.931659
	H356	H	-0.247273	-0.073409	0.928786
	O357	O	1.192377	-0.031010	0.770283
	H358	H	1.202138	-0.034843	0.769621
	H359	H	1.192513	-0.052601	0.760683
	O360	O	0.736898	0.749048	0.750190
	H361	H	0.762936	0.769164	0.777664
	H362	H	0.750657	0.766771	0.731831
	O363	O	-0.047657	-0.233561	0.207762
	H364	H	-0.055733	-0.238003	0.218286
	H365	H	-0.051885	-0.248433	0.221953
	O366	O	0.287319	0.533003	0.593751
	H367	H	0.280277	0.541082	0.590442
	H368	H	0.282707	0.536412	0.588629
	O369	O	0.694907	0.708815	0.524549
	H370	H	0.718872	0.703943	0.509588
	H371	H	0.703389	0.697489	0.507467
	O372	O	0.971362	0.780298	-0.001859
	H373	H	0.946496	0.778072	0.012634
	H374	H	0.980163	0.782087	-0.005719
	O375	O	1.056956	0.030058	0.036584
	H376	H	1.062509	0.037835	0.036146
	H377	H	1.055984	0.027530	0.033517
	O378	O	0.411974	0.495759	0.368593
	H379	H	0.426558	0.471083	0.368845
	H380	H	0.392653	0.515002	0.367796
	O381	O	0.173200	0.787000	0.802607
	H382	H	0.159171	0.789522	0.794362
	H383	H	0.187079	0.780003	0.803716
	O384	O	0.899483	-0.063721	0.781745
	H385	H	0.882631	-0.045619	0.782485
	H386	H	0.922130	-0.046461	0.778692
	O387	O	1.435121	0.544666	0.701727
	H388	H	1.431230	0.553074	0.694861
	H389	H	1.442954	0.563353	0.703535
	O390	O	0.271013	0.596438	0.276368
	H391	H	0.264165	0.596526	0.311990
	H392	H	0.259307	0.580098	0.267314
	O393	O	0.458877	0.275742	0.692667
	H394	H	0.463951	0.275818	0.715423
	H395	H	0.459752	0.285127	0.695043
	O396	O	0.173840	1.190451	0.788710
	H397	H	0.174298	1.164505	0.808748
	H398	H	0.206900	1.220548	0.761320
	O399	O	-0.181115	-0.152525	1.199720
	H400	H	-0.183934	-0.174232	1.199614
	H401	H	-0.165890	-0.125680	1.202438
	O402	O	0.542023	0.254667	0.536705
	H403	H	0.541555	0.251211	0.566217
	H404	H	0.553311	0.262092	0.522209
	O405	O	0.901658	0.214103	0.992366
	H406	H	0.924511	0.217398	0.980460
	H407	H	0.917283	0.206532	1.003881
	O408	O	-0.229429	0.196619	-0.221487
	H409	H	-0.236157	0.195063	-0.172842
	H410	H	-0.224744	0.202396	-0.232801
	O411	O	1.021078	0.965361	1.191284
	H412	H	1.028895	0.963484	1.186149
	H413	H	1.017025	0.971219	1.192443
	O414	O	0.758887	0.022095	0.765454
	H415	H	0.746776	0.040287	0.750225
	H416	H	0.750935	0.033696	0.761963
	O417	O	0.661839	0.485680	0.269072
	H418	H	0.655438	0.450662	0.283572
	H419	H	0.686472	0.481389	0.242101
	O420	O	0.375277	0.429733	0.488359
	H421	H	0.370431	0.418118	0.493676
	H422	H	0.390190	0.429623	0.504898
	O423	O	0.202158	0.215010	1.021517
	H424	H	0.229964	0.240842	1.035585
	H425	H	0.198398	0.213924	1.059287
	O426	O	0.285331	0.276154	0.696228
	H427	H	0.282483	0.315687	0.697753
	H428	H	0.316466	0.278762	0.686348
	O429	O	0.850541	1.052118	1.144530
	H430	H	0.853366	1.051847	1.138831
	H431	H	0.857969	1.041437	1.165522
	O432	O	0.273759	0.696352	0.669999
	H433	H	0.298253	0.706696	0.662421
	H434	H	0.242671	0.702476	0.665347
	O435	O	1.006526	1.209852	1.201330
	H436	H	1.018869	1.224991	1.217072
	H437	H	1.037588	1.216704	1.204441
	O438	O	0.259661	-0.280137	0.458274
	H439	H	0.250010	-0.275912	0.449366
	H440	H	0.262491	-0.257428	0.468390
	O441	O	-0.333829	0.296903	-0.322300
	H442	H	-0.358147	0.316606	-0.318560
	H443	H	-0.323701	0.285824	-0.315042
	O444	O	0.260566	0.441603	0.707138
	H445	H	0.253057	0.462995	0.720327
	H446	H	0.255692	0.462946	0.710195
	O447	O	-0.578135	1.733844	0.544408
	H448	H	-0.570881	1.738810	0.560086
	H449	H	-0.571586	1.728281	0.551989
	O450	O	-0.339039	0.726495	1.302637
	H451	H	-0.343968	0.724999	1.299635
	H452	H	-0.358813	0.709431	1.314191
	O453	O	0.685003	0.277601	0.278779
	H454	H	0.683605	0.265647	0.304602
	H455	H	0.703107	0.247716	0.252030
	O456	O	0.689820	-0.378315	0.701322
	H457	H	0.714610	-0.347668	0.724110
	H458	H	0.700627	-0.361980	0.678322
	O459	O	1.131082	0.811078	0.100898
	H460	H	1.130934	0.794737	0.116619
	H461	H	1.133043	0.816256	0.101955
	O462	O	0.515260	0.262246	0.263597
	H463	H	0.529007	0.248103	0.244325
	H464	H	0.521920	0.266614	0.252405
	O465	O	0.884152	-0.112856	-0.083444
	H466	H	0.890282	-0.094817	-0.080802
	H467	H	0.894511	-0.110492	-0.070112
	O468	O	0.352554	0.333865	0.295328
	H469	H	0.371018	0.348693	0.317153
	H470	H	0.375096	0.326682	0.297839
	O471	O	0.998777	1.125200	0.898967
	H472	H	1.020606	1.121808	0.903802
	H473	H	0.991672	1.130375	0.871618
	O474	O	0.629324	0.536229	0.634966
	H475	H	0.646051	0.537084	0.655980
	H476	H	0.637067	0.558631	0.631054
	O477	O	1.109552	0.798219	1.002930
	H478	H	1.092250	0.784330	1.014434
	H479	H	1.121034	0.794813	0.999701
	O480	O	0.495527	0.413049	0.340058
	H481	H	0.500949	0.427366	0.353200
	H482	H	0.479213	0.411848	0.329097
	O483	O	0.445165	0.716080	0.265148
	H484	H	0.432184	0.728731	0.250584
	H485	H	0.453851	0.723823	0.263869
	O486	O	1.006077	-0.024254	0.925498
	H487	H	1.018093	-0.032799	0.929270
	H488	H	1.022670	-0.029134	0.929252
	O489	O	0.861479	1.033256	-0.051910
	H490	H	0.874180	1.037075	-0.051434
	H491	H	0.859462	1.048545	-0.054658
	O492	O	0.039161	0.038713	-0.071799
	H493	H	0.038674	0.045447	-0.087884
	H494	H	0.055209	0.050504	-0.074332
	O495	O	0.194132	0.985920	1.124405
	H496	H	0.187633	0.961014	1.110612
	H497	H	0.199407	0.981021	1.110087
	O498	O	0.939032	1.212810	0.762827
	H499	H	0.927007	1.216986	0.749916
	H500	H	0.933322	1.230631	0.751662
	O501	O	0.552454	0.635452	0.457498
	H502	H	0.551050	0.640206	0.456879
	H503	H	0.559751	0.638010	0.466631
