data_Molecule from HDF5

_cell_length_a		16.342927
_cell_length_b		16.230394
_cell_length_c		16.257871
_cell_angle_alpha	89.491469
_cell_angle_beta	90.626183
_cell_angle_gamma	89.430064
_symmetry_space_group_name_H-M	'P 1'
_symmetry_Int_Tables_number		1

loop_
	_symmetry_equiv_pos_as_xyz
	x,y,z

loop_
	_atom_site_label
	_atom_site_type_symbol
	_atom_site_fract_x
	_atom_site_fract_y
	_atom_site_fract_z
	H0	H	0.401644	0.834981	0.713691
	H1	H	0.598094	0.162549	0.712854
	H2	H	0.598892	0.833288	0.285691
	H3	H	0.397206	0.161581	0.280804
	H4	H	0.713222	0.395006	0.833549
	H5	H	0.715793	0.597604	0.158192
	H6	H	0.276910	0.600992	0.834602
	H7	H	0.284919	0.398501	0.160709
	H8	H	0.837337	0.719836	0.391924
	H9	H	0.163102	0.706803	0.595423
	H10	H	0.834801	0.281594	0.596045
	H11	H	0.160440	0.281181	0.400389
	H12	H	0.833625	0.397745	0.710641
	H13	H	0.159462	0.593729	0.715003
	H14	H	0.835697	0.602032	0.278105
	H15	H	0.161009	0.397607	0.284368
	H16	H	0.391965	0.717272	0.834642
	H17	H	0.594828	0.707579	0.161483
	H18	H	0.594033	0.283394	0.833012
	H19	H	0.401137	0.283480	0.160829
	H20	H	0.715775	0.835363	0.399607
	H21	H	0.713968	0.162181	0.598237
	H22	H	0.288453	0.833190	0.596101
	H23	H	0.280336	0.160785	0.394240
	H24	H	0.898429	0.335498	0.214916
	H25	H	0.095286	0.661811	0.210638
	H26	H	0.094370	0.332727	0.786828
	H27	H	0.893056	0.660405	0.776714
	H28	H	0.214298	0.898499	0.333663
	H29	H	0.216935	0.095484	0.659869
	H30	H	0.776939	0.103711	0.334803
	H31	H	0.785300	0.896038	0.660625
	H32	H	0.334254	0.215327	0.895390
	H33	H	0.659982	0.212157	0.097934
	H34	H	0.333675	0.784584	0.096095
	H35	H	0.658707	0.778238	0.899931
	H36	H	0.334914	0.899308	0.212945
	H37	H	0.660444	0.096119	0.214146
	H38	H	0.336055	0.101486	0.777029
	H39	H	0.661370	0.895897	0.784434
	H40	H	0.895942	0.215996	0.333866
	H41	H	0.098236	0.207902	0.661914
	H42	H	0.100290	0.782304	0.333600
	H43	H	0.905356	0.782413	0.661033
	H44	H	0.212183	0.333853	0.900066
	H45	H	0.210996	0.661411	0.097264
	H46	H	0.783749	0.333836	0.097451
	H47	H	0.775741	0.660250	0.890637
	H48	H	0.407476	0.113399	0.582761
	H49	H	0.594002	0.879330	0.600143
	H50	H	0.582069	0.113320	0.398890
	H51	H	0.407341	0.880981	0.403560
	H52	H	0.596759	0.408450	0.112873
	H53	H	0.577140	0.589841	0.882995
	H54	H	0.405001	0.584932	0.112290
	H55	H	0.399444	0.411194	0.880762
	H56	H	0.113293	0.590846	0.405874
	H57	H	0.884605	0.586934	0.584033
	H58	H	0.111868	0.401903	0.589655
	H59	H	0.881180	0.408285	0.399881
	H60	H	0.112715	0.405771	0.595333
	H61	H	0.880661	0.592124	0.589560
	H62	H	0.113916	0.587976	0.403803
	H63	H	0.882355	0.404572	0.408187
	H64	H	0.406511	0.594615	0.114767
	H65	H	0.589091	0.595825	0.877879
	H66	H	0.585126	0.407634	0.110508
	H67	H	0.405758	0.407654	0.882427
	H68	H	0.586128	0.112128	0.411887
	H69	H	0.584477	0.886715	0.588001
	H70	H	0.403788	0.116011	0.586626
	H71	H	0.405687	0.879632	0.406515
	H72	H	0.917389	0.606474	0.076541
	H73	H	0.089520	0.379115	0.101805
	H74	H	0.088670	0.615284	0.903554
	H75	H	0.902469	0.381053	0.905342
	H76	H	0.091328	0.900645	0.612985
	H77	H	0.089276	0.090806	0.381066
	H78	H	0.900396	0.088401	0.615120
	H79	H	0.904043	0.908328	0.380608
	H80	H	0.614112	0.093598	0.905406
	H81	H	0.382312	0.093954	0.085978
	H82	H	0.612251	0.906696	0.093526
	H83	H	0.383754	0.903168	0.914760
	H84	H	0.615429	0.898219	0.096180
	H85	H	0.383192	0.086584	0.087912
	H86	H	0.610510	0.089348	0.910868
	H87	H	0.386492	0.921276	0.903224
	H88	H	0.910126	0.082449	0.609516
	H89	H	0.089917	0.090563	0.380833
	H90	H	0.098681	0.899196	0.615380
	H91	H	0.906168	0.912995	0.382819
	H92	H	0.082133	0.613730	0.902473
	H93	H	0.083843	0.385480	0.085096
	H94	H	0.890351	0.615712	0.077317
	H95	H	0.905574	0.380979	0.902975
	H96	H	0.408416	0.113548	0.588213
	H97	H	0.600881	0.881403	0.585466
	H98	H	0.594809	0.117170	0.403055
	H99	H	0.404354	0.880189	0.403670
	H100	H	0.591887	0.398197	0.114163
	H101	H	0.588081	0.582142	0.881981
	H102	H	0.397383	0.590630	0.115102
	H103	H	0.400352	0.403947	0.877575
	H104	H	0.115831	0.591261	0.402583
	H105	H	0.882316	0.594836	0.582372
	H106	H	0.115014	0.399173	0.595128
	H107	H	0.884950	0.412736	0.406732
	H108	H	0.907005	0.617735	0.099593
	H109	H	0.101097	0.378822	0.088062
	H110	H	0.085913	0.612689	0.908358
	H111	H	0.906002	0.382458	0.906139
	H112	H	0.096216	0.907143	0.613134
	H113	H	0.088838	0.089947	0.381284
	H114	H	0.911664	0.094090	0.613239
	H115	H	0.909288	0.907917	0.382237
	H116	H	0.612300	0.085852	0.904778
	H117	H	0.380573	0.092211	0.092378
	H118	H	0.611852	0.900635	0.087102
	H119	H	0.377543	0.903958	0.894237
	C120	C	0.378515	0.006251	0.616765
	C121	C	0.621503	0.990474	0.620114
	C122	C	0.618796	0.006339	0.376782
	C123	C	0.375872	0.988829	0.374702
	C124	C	0.619293	0.375569	0.004775
	C125	C	0.615764	0.617511	0.988580
	C126	C	0.372624	0.620608	0.005994
	C127	C	0.375231	0.377387	0.988427
	C128	C	0.007274	0.621437	0.373555
	C129	C	0.989809	0.618266	0.616743
	C130	C	0.005471	0.373924	0.620549
	C131	C	0.989954	0.377559	0.376814
	C132	C	0.876250	0.505906	0.116310
	C133	C	0.119267	0.489451	0.119330
	C134	C	0.116016	0.505669	0.876908
	C135	C	0.873494	0.488881	0.873482
	C136	C	0.122473	0.874766	0.505518
	C137	C	0.119664	0.118287	0.489046
	C138	C	0.875940	0.120077	0.505469
	C139	C	0.878804	0.878098	0.489358
	C140	C	0.505584	0.120414	0.875114
	C141	C	0.489404	0.119286	0.118773
	C142	C	0.505599	0.874808	0.120322
	C143	C	0.489465	0.877404	0.876151
	C144	C	0.381511	0.883343	0.674363
	C145	C	0.618805	0.113614	0.675254
	C146	C	0.618497	0.882630	0.322949
	C147	C	0.377064	0.112164	0.318370
	C148	C	0.674887	0.376022	0.882282
	C149	C	0.675370	0.616240	0.110279
	C150	C	0.315503	0.620715	0.883295
	C151	C	0.322270	0.378624	0.111908
	C152	C	0.885487	0.680138	0.373234
	C153	C	0.113459	0.670593	0.616045
	C154	C	0.883406	0.319217	0.616725
	C155	C	0.112007	0.319997	0.379677
	C156	C	0.882733	0.377175	0.673788
	C157	C	0.111456	0.614576	0.675542
	C158	C	0.884617	0.621658	0.316463
	C159	C	0.112220	0.378219	0.322062
	C160	C	0.372360	0.678898	0.883592
	C161	C	0.615135	0.671082	0.112032
	C162	C	0.615418	0.320691	0.881988
	C163	C	0.379930	0.321468	0.111800
	C164	C	0.676803	0.883666	0.379244
	C165	C	0.676527	0.113344	0.618242
	C166	C	0.324914	0.882678	0.616116
	C167	C	0.318738	0.111693	0.374595
	C168	C	0.878777	0.383592	0.174978
	C169	C	0.116101	0.612691	0.173334
	C170	C	0.114927	0.382164	0.823243
	C171	C	0.873163	0.611681	0.815439
	C172	C	0.176878	0.877717	0.382530
	C173	C	0.177788	0.115780	0.611334
	C174	C	0.816651	0.122110	0.383382
	C175	C	0.823739	0.877230	0.611913
	C176	C	0.383109	0.177073	0.875381
	C177	C	0.611433	0.174596	0.117833
	C178	C	0.382668	0.821345	0.117098
	C179	C	0.610900	0.818163	0.879420
	C180	C	0.383429	0.878351	0.175135
	C181	C	0.611825	0.116428	0.175430
	C182	C	0.384166	0.120508	0.816435
	C183	C	0.612051	0.876813	0.821904
	C184	C	0.875730	0.177949	0.382836
	C185	C	0.118793	0.171949	0.612281
	C186	C	0.120063	0.820047	0.382404
	C187	C	0.883221	0.820511	0.612181
	C188	C	0.173581	0.382788	0.879626
	C189	C	0.173826	0.612480	0.117039
	C190	C	0.821307	0.383062	0.116773
	C191	C	0.815420	0.611644	0.872523
	C192	C	0.400155	0.092092	0.592951
	C193	C	0.599581	0.904719	0.597778
	C194	C	0.594753	0.091926	0.398293
	C195	C	0.399104	0.902479	0.397779
	C196	C	0.597581	0.398014	0.090276
	C197	C	0.591853	0.595521	0.903130
	C198	C	0.396071	0.597039	0.091686
	C199	C	0.396022	0.400646	0.902394
	C200	C	0.092288	0.597166	0.397272
	C201	C	0.904512	0.597238	0.592396
	C202	C	0.091209	0.395709	0.599542
	C203	C	0.904786	0.401609	0.398676
	C204	C	0.898427	0.591078	0.091698
	C205	C	0.097753	0.403224	0.097895
	C206	C	0.092324	0.591572	0.898516
	C207	C	0.897628	0.403569	0.897802
	C208	C	0.101411	0.896033	0.591451
	C209	C	0.096137	0.096694	0.403236
	C210	C	0.900341	0.095506	0.590488
	C211	C	0.900171	0.902654	0.403926
	C212	C	0.590530	0.096389	0.899677
	C213	C	0.404110	0.097359	0.095421
	C214	C	0.590833	0.895710	0.098793
	C215	C	0.404627	0.902062	0.897952
	Zn216	Zn	0.498973	-0.001003	0.746276
	Zn217	Zn	0.498240	-0.003012	0.247915
	Zn218	Zn	0.746186	0.497337	-0.004920
	Zn219	Zn	0.245700	0.498082	-0.002532
	Zn220	Zn	0.000229	0.748222	0.496198
	Zn221	Zn	-0.001911	0.247468	0.497892
	Zn222	Zn	-0.003981	0.497116	0.747194
	Zn223	Zn	-0.002086	0.498573	0.246414
	Zn224	Zn	0.495746	0.747300	-0.001988
	Zn225	Zn	0.496862	0.248748	-0.003196
	Zn226	Zn	0.747868	-0.000983	0.497425
	Zn227	Zn	0.249024	-0.002865	0.496498
	N228	N	0.414144	0.961081	0.674837
	N229	N	0.585545	0.036099	0.676837
	N230	N	0.583328	0.959928	0.321178
	N231	N	0.411808	0.034616	0.318123
	N232	N	0.677513	0.409264	0.959664
	N233	N	0.675601	0.583542	0.032435
	N234	N	0.315193	0.585637	0.960410
	N235	N	0.319216	0.412694	0.034194
	N236	N	0.962765	0.680262	0.407732
	N237	N	0.036926	0.673042	0.580158
	N238	N	0.961049	0.316793	0.584809
	N239	N	0.035131	0.319676	0.412966
	N240	N	0.959713	0.410450	0.676284
	N241	N	0.033610	0.582805	0.675936
	N242	N	0.961210	0.585862	0.316408
	N243	N	0.035138	0.413229	0.320037
	N244	N	0.407320	0.678906	0.961044
	N245	N	0.578850	0.672173	0.035361
	N246	N	0.581827	0.319973	0.959221
	N247	N	0.412056	0.320514	0.033984
	N248	N	0.677161	0.961659	0.412045
	N249	N	0.678412	0.035707	0.584929
	N250	N	0.322925	0.960251	0.581167
	N251	N	0.317810	0.033882	0.408796
	N252	N	0.912210	0.461072	0.174851
	N253	N	0.082939	0.535359	0.174933
	N254	N	0.079721	0.459511	0.821596
	N255	N	0.908645	0.534488	0.815985
	N256	N	0.178722	0.910870	0.459915
	N257	N	0.178454	0.083220	0.533632
	N258	N	0.816843	0.086619	0.460627
	N259	N	0.820866	0.912315	0.534501
	N260	N	0.459634	0.176967	0.911228
	N261	N	0.534271	0.176250	0.083046
	N262	N	0.459638	0.818759	0.083763
	N263	N	0.533631	0.818443	0.912394
	N264	N	0.460744	0.910856	0.177290
	N265	N	0.534917	0.082867	0.176108
	N266	N	0.461411	0.085884	0.816296
	N267	N	0.535586	0.912818	0.819743
	N268	N	0.911678	0.177040	0.459738
	N269	N	0.083227	0.173766	0.535200
	N270	N	0.086969	0.818057	0.459850
	N271	N	0.916776	0.821130	0.534979
	N272	N	0.174385	0.460738	0.912118
	N273	N	0.175903	0.534633	0.083931
	N274	N	0.819638	0.460046	0.080914
	N275	N	0.815350	0.534198	0.907632
	O276	O	1.126170	-0.003276	1.068592
	H277	H	1.135474	-0.005354	1.066115
	H278	H	1.111072	0.006335	1.069684
	O279	O	0.463724	0.599859	0.402850
	H280	H	0.480239	0.594364	0.411086
	H281	H	0.459225	0.605641	0.403032
	O282	O	0.906171	1.020057	0.077947
	H283	H	0.886704	1.030257	0.074563
	H284	H	0.906995	1.029496	0.059676
	O285	O	1.023619	0.104121	0.976445
	H286	H	1.009679	0.108043	0.975846
	H287	H	1.021730	0.117960	0.976514
	O288	O	0.449369	0.507450	0.498856
	H289	H	0.449187	0.500983	0.504994
	H290	H	0.444639	0.522068	0.491688
	O291	O	0.425422	0.478214	0.522898
	H292	H	0.424565	0.485799	0.530230
	H293	H	0.433166	0.488082	0.527357
	O294	O	0.374660	0.462250	0.497055
	H295	H	0.375031	0.466159	0.502321
	H296	H	0.364674	0.457767	0.512701
	O297	O	-0.018116	0.038289	1.086479
	H298	H	-0.009841	0.036597	1.084330
	H299	H	-0.000768	0.040720	1.084847
	O300	O	-0.131832	0.839212	0.121812
	H301	H	-0.136773	0.844672	0.103528
	H302	H	-0.139486	0.849943	0.132876
	O303	O	0.898859	1.130009	0.010734
	H304	H	0.891901	1.138847	-0.004486
	H305	H	0.898253	1.126908	0.007320
	O306	O	0.086268	0.989568	1.009963
	H307	H	0.104440	0.980638	1.023136
	H308	H	0.077701	0.997501	0.998156
	O309	O	0.567383	0.482677	0.438606
	H310	H	0.558681	0.486387	0.433345
	H311	H	0.574730	0.493185	0.432739
	O312	O	0.132917	-0.088160	-0.117764
	H313	H	0.139167	-0.092646	-0.123216
	H314	H	0.134787	-0.086616	-0.115979
	O315	O	1.130854	-0.015621	-0.077647
	H316	H	1.132872	-0.020803	-0.072086
	H317	H	1.134304	-0.022769	-0.067841
	O318	O	0.966449	0.901116	0.954343
	H319	H	0.963319	0.903984	0.957385
	H320	H	0.964055	0.913868	0.953834
	O321	O	0.492254	0.486096	1.521032
	H322	H	0.483566	0.490224	1.525836
	H323	H	0.507285	0.476971	1.520287
	O324	O	0.618148	0.550360	0.604923
	H325	H	0.629962	0.545921	0.611345
	H326	H	0.615249	0.555533	0.601315
	O327	O	-0.514024	0.511260	-0.404188
	H328	H	-0.512965	0.509974	-0.407067
	H329	H	-0.506431	0.511871	-0.387377
	O330	O	0.524007	0.469286	0.461549
	H331	H	0.513191	0.471099	0.448053
	H332	H	0.510969	0.458677	0.466402
	O333	O	-0.007611	0.951262	0.889407
	H334	H	-0.003006	0.955096	0.906812
	H335	H	-0.012286	0.965965	0.871975
	O336	O	-0.005975	0.117221	-0.117405
	H337	H	0.005367	0.119285	-0.126668
	H338	H	-0.008093	0.114653	-0.112472
	O339	O	0.502252	0.578183	0.435310
	H340	H	0.503808	0.585778	0.420913
	H341	H	0.517411	0.576648	0.429810
	O342	O	0.977430	0.959696	0.848623
	H343	H	0.974940	0.945917	0.861886
	H344	H	0.996936	0.968387	0.851508
	O345	O	1.042847	0.963982	0.048335
	H346	H	1.036551	0.966944	0.044276
	H347	H	1.026321	0.952380	0.051167
	O348	O	0.614367	0.499917	0.501685
	H349	H	0.613994	0.499065	0.495389
	H350	H	0.620448	0.497751	0.502482
	O351	O	0.852278	0.113973	0.905702
	H352	H	0.857298	0.105592	0.911923
	H353	H	0.861328	0.120286	0.898146
	O354	O	0.597611	0.441209	0.531741
	H355	H	0.587019	0.431989	0.538877
	H356	H	0.587664	0.440241	0.525289
	O357	O	0.968252	-0.116887	1.126991
	H358	H	0.943148	-0.125832	1.123683
	H359	H	0.968332	-0.136651	1.131613
	O360	O	0.572201	0.524145	0.474535
	H361	H	0.577397	0.519618	0.479111
	H362	H	0.574128	0.522307	0.473262
	O363	O	0.461125	0.527888	0.422599
	H364	H	0.450874	0.531781	0.414551
	H365	H	0.460073	0.523694	0.408317
	O366	O	1.549807	0.473209	0.521089
	H367	H	1.557929	0.461694	0.517784
	H368	H	1.547442	0.473849	0.532340
	O369	O	1.006365	0.031520	0.971929
	H370	H	1.012272	0.039407	0.986137
	H371	H	1.008638	0.027103	0.964448
	O372	O	-0.015841	0.037143	-0.016674
	H373	H	-0.010599	0.032889	-0.015929
	H374	H	-0.009280	0.027946	-0.011583
	O375	O	0.993718	-0.050969	0.051000
	H376	H	0.989928	-0.044981	0.062057
	H377	H	0.986094	-0.057565	0.059018
	O378	O	0.465896	0.387971	0.577292
	H379	H	0.459785	0.392727	0.582734
	H380	H	0.473755	0.395732	0.574437
	O381	O	-0.131963	1.047416	1.040493
	H382	H	-0.129376	1.068963	1.033012
	H383	H	-0.135271	1.041485	1.034698
