data_Molecule from HDF5

_cell_length_a		16.257302
_cell_length_b		16.211715
_cell_length_c		16.373887
_cell_angle_alpha	89.925837
_cell_angle_beta	90.040579
_cell_angle_gamma	89.875213
_symmetry_space_group_name_H-M	'P 1'
_symmetry_Int_Tables_number		1

loop_
	_symmetry_equiv_pos_as_xyz
	x,y,z

loop_
	_atom_site_label
	_atom_site_type_symbol
	_atom_site_fract_x
	_atom_site_fract_y
	_atom_site_fract_z
	H0	H	0.403680	0.833902	0.710109
	H1	H	0.602803	0.161945	0.708167
	H2	H	0.604029	0.834757	0.278343
	H3	H	0.402315	0.161908	0.279162
	H4	H	0.717214	0.399844	0.830971
	H5	H	0.717670	0.596401	0.156806
	H6	H	0.286422	0.598875	0.831753
	H7	H	0.287312	0.399159	0.157158
	H8	H	0.838951	0.712884	0.396569
	H9	H	0.167474	0.710703	0.591554
	H10	H	0.837866	0.286102	0.588822
	H11	H	0.167761	0.284585	0.396377
	H12	H	0.839272	0.397986	0.709498
	H13	H	0.166639	0.596070	0.709110
	H14	H	0.838576	0.598173	0.279318
	H15	H	0.165692	0.396631	0.277535
	H16	H	0.403626	0.714016	0.831579
	H17	H	0.600174	0.711702	0.157957
	H18	H	0.600734	0.284442	0.830778
	H19	H	0.404115	0.283083	0.157406
	H20	H	0.716999	0.833238	0.396180
	H21	H	0.715883	0.162199	0.590078
	H22	H	0.289743	0.833108	0.592440
	H23	H	0.288885	0.162117	0.397033
	H24	H	0.902428	0.334157	0.209166
	H25	H	0.102340	0.661963	0.210056
	H26	H	0.101902	0.333104	0.781397
	H27	H	0.901986	0.661682	0.777740
	H28	H	0.219483	0.897369	0.332031
	H29	H	0.217774	0.095878	0.657070
	H30	H	0.787469	0.096317	0.330596
	H31	H	0.789112	0.899736	0.657161
	H32	H	0.337724	0.211782	0.895962
	H33	H	0.667519	0.211877	0.091302
	H34	H	0.338291	0.785455	0.092546
	H35	H	0.666642	0.784842	0.897797
	H36	H	0.340192	0.897816	0.211318
	H37	H	0.666822	0.098542	0.209918
	H38	H	0.340079	0.100825	0.776716
	H39	H	0.666748	0.898947	0.780644
	H40	H	0.904531	0.212311	0.330442
	H41	H	0.101188	0.211303	0.656905
	H42	H	0.101689	0.782964	0.331022
	H43	H	0.904651	0.782769	0.657155
	H44	H	0.217097	0.334513	0.897259
	H45	H	0.214624	0.663251	0.091660
	H46	H	0.788833	0.334004	0.091520
	H47	H	0.789283	0.663304	0.896555
	H48	H	0.398177	0.117316	0.584668
	H49	H	0.588160	0.882693	0.588559
	H50	H	0.595672	0.117393	0.393526
	H51	H	0.409403	0.880481	0.403099
	H52	H	0.591221	0.394498	0.111559
	H53	H	0.592123	0.593304	0.879040
	H54	H	0.403203	0.588203	0.110791
	H55	H	0.414683	0.389291	0.875937
	H56	H	0.121219	0.587512	0.393396
	H57	H	0.887410	0.584555	0.589891
	H58	H	0.118854	0.404687	0.587515
	H59	H	0.885997	0.411995	0.392083
	H60	H	0.120030	0.405269	0.589804
	H61	H	0.884535	0.593801	0.590345
	H62	H	0.119839	0.596036	0.403639
	H63	H	0.882858	0.395771	0.400477
	H64	H	0.413921	0.588758	0.107359
	H65	H	0.597490	0.595703	0.876616
	H66	H	0.606698	0.406814	0.112272
	H67	H	0.392631	0.411117	0.875206
	H68	H	0.588754	0.112240	0.404771
	H69	H	0.600548	0.881216	0.581067
	H70	H	0.415435	0.115657	0.597769
	H71	H	0.411893	0.880633	0.399036
	H72	H	0.913808	0.615074	0.089465
	H73	H	0.091019	0.384369	0.082631
	H74	H	0.102042	0.617556	0.900778
	H75	H	0.908662	0.380667	0.901643
	H76	H	0.096736	0.912881	0.607216
	H77	H	0.101561	0.088579	0.376970
	H78	H	0.909634	0.084407	0.607178
	H79	H	0.912791	0.907260	0.379843
	H80	H	0.620974	0.103026	0.905450
	H81	H	0.388180	0.092137	0.082105
	H82	H	0.619116	0.908812	0.090319
	H83	H	0.391586	0.917032	0.910993
	H84	H	0.620081	0.902394	0.086704
	H85	H	0.387700	0.084661	0.088261
	H86	H	0.614076	0.082276	0.908700
	H87	H	0.383781	0.910681	0.887496
	H88	H	0.914586	0.095230	0.609184
	H89	H	0.091947	0.086001	0.380437
	H90	H	0.089053	0.899241	0.609006
	H91	H	0.911119	0.900779	0.377526
	H92	H	0.089791	0.616514	0.893429
	H93	H	0.100629	0.379885	0.085700
	H94	H	0.909010	0.614100	0.082944
	H95	H	0.909886	0.381035	0.900602
	H96	H	0.417648	0.109820	0.577131
	H97	H	0.599475	0.878190	0.595338
	H98	H	0.602262	0.115197	0.405608
	H99	H	0.414527	0.882101	0.403077
	H100	H	0.589356	0.413602	0.105524
	H101	H	0.598019	0.590148	0.878357
	H102	H	0.408674	0.598571	0.112498
	H103	H	0.420011	0.418007	0.885759
	H104	H	0.115958	0.583026	0.405149
	H105	H	0.887970	0.590225	0.581302
	H106	H	0.120673	0.402665	0.588847
	H107	H	0.890497	0.410342	0.409921
	H108	H	0.906046	0.617435	0.090333
	H109	H	0.091905	0.380001	0.092255
	H110	H	0.089368	0.612070	0.907392
	H111	H	0.910027	0.381245	0.901428
	H112	H	0.104497	0.899258	0.613432
	H113	H	0.093930	0.096063	0.377412
	H114	H	0.903161	0.093414	0.612443
	H115	H	0.906176	0.906148	0.377353
	H116	H	0.622219	0.088629	0.888826
	H117	H	0.384136	0.093947	0.091904
	H118	H	0.616430	0.908159	0.083280
	H119	H	0.382828	0.893696	0.905614
	C120	C	0.381834	0.006003	0.615497
	C121	C	0.624611	0.989294	0.616008
	C122	C	0.624637	0.006561	0.372628
	C123	C	0.382306	0.989648	0.373053
	C124	C	0.624351	0.376448	0.002191
	C125	C	0.624196	0.620531	0.985919
	C126	C	0.380146	0.620829	0.002597
	C127	C	0.380210	0.376680	0.986211
	C128	C	0.010626	0.618421	0.372623
	C129	C	0.994665	0.618584	0.615777
	C130	C	0.011375	0.375778	0.616318
	C131	C	0.994623	0.376289	0.371938
	C132	C	0.880915	0.506602	0.115753
	C133	C	0.123212	0.489918	0.115565
	C134	C	0.123050	0.506699	0.873017
	C135	C	0.880699	0.489688	0.872115
	C136	C	0.125559	0.875193	0.502427
	C137	C	0.124636	0.118879	0.485742
	C138	C	0.880514	0.119948	0.501899
	C139	C	0.881624	0.875994	0.485759
	C140	C	0.510880	0.120396	0.872021
	C141	C	0.494986	0.119591	0.116025
	C142	C	0.510921	0.877132	0.116187
	C143	C	0.494117	0.877629	0.873052
	C144	C	0.383620	0.882712	0.671689
	C145	C	0.622521	0.112913	0.670178
	C146	C	0.623335	0.883261	0.316953
	C147	C	0.382830	0.113007	0.317398
	C148	C	0.679779	0.379034	0.879717
	C149	C	0.679298	0.617292	0.108457
	C150	C	0.324393	0.619034	0.880348
	C151	C	0.325149	0.378799	0.108574
	C152	C	0.887645	0.674625	0.375690
	C153	C	0.118347	0.673265	0.612546
	C154	C	0.887404	0.322103	0.611658
	C155	C	0.118167	0.321549	0.375336
	C156	C	0.888090	0.378059	0.671235
	C157	C	0.117855	0.616696	0.671251
	C158	C	0.887578	0.617782	0.317388
	C159	C	0.117200	0.377381	0.316113
	C160	C	0.382870	0.676109	0.880182
	C161	C	0.621088	0.674541	0.108971
	C162	C	0.621867	0.321512	0.879510
	C163	C	0.383105	0.320955	0.108581
	C164	C	0.679322	0.882415	0.375543
	C165	C	0.678970	0.112936	0.611661
	C166	C	0.327397	0.882190	0.613049
	C167	C	0.326208	0.112959	0.375549
	C168	C	0.882603	0.383159	0.170840
	C169	C	0.121504	0.613414	0.171223
	C170	C	0.121978	0.382729	0.818621
	C171	C	0.882379	0.612952	0.816308
	C172	C	0.181261	0.877231	0.380400
	C173	C	0.179623	0.116219	0.608440
	C174	C	0.825382	0.117123	0.379317
	C175	C	0.826420	0.878533	0.608354
	C176	C	0.387221	0.175071	0.875025
	C177	C	0.618438	0.174214	0.112164
	C178	C	0.387611	0.822184	0.113643
	C179	C	0.617594	0.822471	0.876637
	C180	C	0.388364	0.878324	0.172513
	C181	C	0.617784	0.118373	0.171724
	C182	C	0.388498	0.119590	0.815829
	C183	C	0.617646	0.879267	0.818420
	C184	C	0.883528	0.174638	0.379141
	C185	C	0.121974	0.174056	0.608285
	C186	C	0.122913	0.820055	0.379899
	C187	C	0.883992	0.820553	0.608423
	C188	C	0.179030	0.383374	0.876271
	C189	C	0.177840	0.613811	0.112726
	C190	C	0.826122	0.383091	0.112627
	C191	C	0.826526	0.613858	0.875505
	C192	C	0.404101	0.092033	0.593145
	C193	C	0.602509	0.902817	0.594504
	C194	C	0.602320	0.092700	0.394892
	C195	C	0.405377	0.903566	0.395264
	C196	C	0.602175	0.398430	0.087466
	C197	C	0.602289	0.599288	0.900185
	C198	C	0.402039	0.598394	0.088092
	C199	C	0.402570	0.399446	0.901039
	C200	C	0.096771	0.595535	0.394277
	C201	C	0.908770	0.596254	0.593549
	C202	C	0.097507	0.397521	0.595001
	C203	C	0.908585	0.399236	0.394225
	C204	C	0.903004	0.593071	0.094101
	C205	C	0.100925	0.403831	0.093413
	C206	C	0.100364	0.593017	0.894221
	C207	C	0.902879	0.403266	0.894568
	C208	C	0.103333	0.897313	0.587687
	C209	C	0.102448	0.096647	0.400534
	C210	C	0.902601	0.097697	0.587393
	C211	C	0.903578	0.898135	0.400411
	C212	C	0.596956	0.098022	0.894401
	C213	C	0.408981	0.096961	0.093823
	C214	C	0.596403	0.899757	0.093582
	C215	C	0.408225	0.900463	0.894806
	Zn216	Zn	0.503015	-0.001663	0.744036
	Zn217	Zn	0.503252	-0.001949	0.244813
	Zn218	Zn	0.753356	0.498514	-0.005905
	Zn219	Zn	0.251333	0.499063	-0.005619
	Zn220	Zn	0.003287	0.746950	0.494293
	Zn221	Zn	0.003036	0.248046	0.493710
	Zn222	Zn	0.002605	0.497629	0.744820
	Zn223	Zn	0.002204	0.498129	0.243610
	Zn224	Zn	0.502201	0.749087	-0.005315
	Zn225	Zn	0.502289	0.247808	-0.006412
	Zn226	Zn	0.752526	-0.003006	0.494045
	Zn227	Zn	0.253819	-0.002994	0.494120
	N228	N	0.416904	0.960722	0.673344
	N229	N	0.589528	0.034898	0.672938
	N230	N	0.590076	0.961372	0.315058
	N231	N	0.417131	0.035274	0.315796
	N232	N	0.681381	0.412749	0.956923
	N233	N	0.681396	0.584460	0.031128
	N234	N	0.322304	0.585814	0.957729
	N235	N	0.323249	0.412827	0.031568
	N236	N	0.965217	0.675087	0.409299
	N237	N	0.040720	0.674549	0.578754
	N238	N	0.965221	0.320423	0.578314
	N239	N	0.040785	0.320853	0.409424
	N240	N	0.966120	0.410457	0.674212
	N241	N	0.040180	0.583260	0.673132
	N242	N	0.965221	0.583792	0.315293
	N243	N	0.039246	0.410655	0.313972
	N244	N	0.416649	0.677491	0.957119
	N245	N	0.587497	0.676839	0.031609
	N246	N	0.588108	0.319775	0.956463
	N247	N	0.416816	0.319603	0.031500
	N248	N	0.680275	0.960072	0.409432
	N249	N	0.680322	0.035027	0.578568
	N250	N	0.326058	0.959772	0.579035
	N251	N	0.325616	0.035251	0.409236
	N252	N	0.915784	0.461044	0.173122
	N253	N	0.088252	0.535337	0.173050
	N254	N	0.087923	0.460531	0.816500
	N255	N	0.915293	0.534620	0.814230
	N256	N	0.182991	0.910763	0.457457
	N257	N	0.181729	0.083018	0.531232
	N258	N	0.823266	0.084015	0.456725
	N259	N	0.824855	0.912388	0.531277
	N260	N	0.464409	0.175483	0.909562
	N261	N	0.540846	0.175382	0.078409
	N262	N	0.464702	0.821509	0.079019
	N263	N	0.539895	0.821339	0.909925
	N264	N	0.465950	0.911865	0.173896
	N265	N	0.540066	0.085030	0.173984
	N266	N	0.466344	0.086222	0.813942
	N267	N	0.539887	0.913207	0.816388
	N268	N	0.916990	0.176698	0.456380
	N269	N	0.088445	0.175983	0.531099
	N270	N	0.089016	0.818527	0.456815
	N271	N	0.917549	0.818814	0.531317
	N272	N	0.179855	0.461275	0.909382
	N273	N	0.179050	0.536094	0.079121
	N274	N	0.824918	0.460987	0.079222
	N275	N	0.825349	0.536074	0.909312
	O276	O	1.055764	1.032677	-0.044052
	H277	H	1.062023	1.034550	-0.040165
	H278	H	1.047089	1.034041	-0.046702
	O279	O	0.558949	0.498824	0.443583
	H280	H	0.558852	0.493067	0.435635
	H281	H	0.556375	0.485716	0.435256
	O282	O	0.015088	0.096043	0.070972
	H283	H	0.020365	0.091108	0.059940
	H284	H	0.010693	0.095053	0.075027
	O285	O	0.583380	0.510949	0.497848
	H286	H	0.584414	0.516363	0.502922
	H287	H	0.582322	0.507553	0.501623
	O288	O	-0.016218	-0.051366	-0.041846
	H289	H	-0.012495	-0.042110	-0.042138
	H290	H	-0.022717	-0.051163	-0.043254
	O291	O	-0.049211	0.956381	0.009396
	H292	H	-0.054863	0.953364	0.012774
	H293	H	-0.037902	0.948248	0.003820
	O294	O	0.065170	1.075169	-0.036138
	H295	H	0.077316	1.085743	-0.047176
	H296	H	0.062270	1.072377	-0.034805
	O297	O	0.452305	0.449866	0.529266
	H298	H	0.448056	0.443315	0.525562
	H299	H	0.462087	0.445209	0.527395
	O300	O	0.510541	0.510802	0.498883
	H301	H	0.505981	0.521366	0.494698
	H302	H	0.520736	0.510313	0.502682
	O303	O	0.983145	0.079931	0.990381
	H304	H	0.979058	0.071358	0.991335
	H305	H	0.982370	0.091724	0.993329
	O306	O	-0.035160	0.938187	1.054851
	H307	H	-0.033198	0.941214	1.054985
	H308	H	-0.037494	0.936168	1.054116
	O309	O	-0.007453	1.117284	0.984593
	H310	H	-0.006711	1.128887	0.987462
	H311	H	0.003700	1.114637	0.990799
	O312	O	0.041818	-0.027047	1.020258
	H313	H	0.037304	-0.029063	1.017053
	H314	H	0.044507	-0.028283	1.021806
	O315	O	0.475715	0.519635	0.534143
	H316	H	0.478143	0.512798	0.526301
	H317	H	0.478261	0.517654	0.533234
	O318	O	-0.018079	0.016360	1.033925
	H319	H	-0.010668	0.014589	1.024874
	H320	H	-0.021685	0.014911	1.031268
	O321	O	0.049334	0.015801	0.918660
	H322	H	0.045023	0.024583	0.920772
	H323	H	0.046021	0.015724	0.926881
	O324	O	0.982142	-0.036234	1.032656
	H325	H	0.979435	-0.045688	1.029751
	H326	H	0.969175	-0.030958	1.023396
	O327	O	0.869137	1.010306	0.952756
	H328	H	0.865278	1.019102	0.949321
	H329	H	0.871192	1.015376	0.955218
	O330	O	0.492477	0.407002	0.432164
	H331	H	0.493540	0.403162	0.433796
	H332	H	0.487911	0.404213	0.423828
	O333	O	0.493625	0.435720	0.520992
	H334	H	0.484160	0.425346	0.520268
	H335	H	0.489488	0.437327	0.516912
	O336	O	0.549050	0.542157	0.517097
	H337	H	0.561678	0.548501	0.512734
	H338	H	0.553949	0.551770	0.514379
	O339	O	0.499627	0.444208	0.538331
	H340	H	0.499424	0.447967	0.533330
	H341	H	0.496723	0.444710	0.539441
	O342	O	0.514935	0.505502	0.543344
	H343	H	0.507512	0.510193	0.550139
	H344	H	0.516666	0.511529	0.546660
	O345	O	0.548232	0.413072	0.477809
	H346	H	0.541665	0.418532	0.481935
	H347	H	0.553884	0.408547	0.480603
