data_Molecule from HDF5

_cell_length_a		16.315320
_cell_length_b		16.285517
_cell_length_c		16.330165
_cell_angle_alpha	89.980070
_cell_angle_beta	90.153371
_cell_angle_gamma	89.971558
_symmetry_space_group_name_H-M	'P 1'
_symmetry_Int_Tables_number		1

loop_
	_symmetry_equiv_pos_as_xyz
	x,y,z

loop_
	_atom_site_label
	_atom_site_type_symbol
	_atom_site_fract_x
	_atom_site_fract_y
	_atom_site_fract_z
	H0	H	0.405365	0.834964	0.711470
	H1	H	0.600337	0.163456	0.714336
	H2	H	0.600672	0.835301	0.285074
	H3	H	0.401917	0.162014	0.282604
	H4	H	0.716930	0.399795	0.835736
	H5	H	0.717419	0.596803	0.163111
	H6	H	0.286164	0.598518	0.836790
	H7	H	0.287567	0.398748	0.162329
	H8	H	0.838515	0.713851	0.400873
	H9	H	0.165838	0.713822	0.598485
	H10	H	0.838186	0.286064	0.595675
	H11	H	0.164995	0.283402	0.400930
	H12	H	0.838773	0.400256	0.713996
	H13	H	0.165386	0.598175	0.715028
	H14	H	0.838852	0.599485	0.282919
	H15	H	0.165912	0.400568	0.285720
	H16	H	0.402910	0.713767	0.836618
	H17	H	0.602007	0.713398	0.163279
	H18	H	0.599656	0.284283	0.835852
	H19	H	0.405358	0.284267	0.162907
	H20	H	0.716526	0.835610	0.401461
	H21	H	0.716260	0.163313	0.598341
	H22	H	0.288980	0.835829	0.595898
	H23	H	0.286069	0.163122	0.398947
	H24	H	0.905609	0.335237	0.213546
	H25	H	0.100597	0.662497	0.214286
	H26	H	0.100397	0.335712	0.784714
	H27	H	0.902820	0.662772	0.784468
	H28	H	0.215540	0.901750	0.335514
	H29	H	0.216273	0.096427	0.662669
	H30	H	0.785836	0.098391	0.336895
	H31	H	0.787768	0.901763	0.663131
	H32	H	0.339365	0.215334	0.898606
	H33	H	0.665675	0.211978	0.097051
	H34	H	0.338560	0.784459	0.095831
	H35	H	0.666116	0.784055	0.901686
	H36	H	0.338621	0.899001	0.213907
	H37	H	0.665043	0.097168	0.214922
	H38	H	0.338236	0.097556	0.784448
	H39	H	0.665803	0.900352	0.784549
	H40	H	0.903443	0.213451	0.336033
	H41	H	0.101059	0.213841	0.662166
	H42	H	0.099575	0.784447	0.335609
	H43	H	0.904231	0.785126	0.662475
	H44	H	0.215922	0.334667	0.902031
	H45	H	0.217545	0.662572	0.098580
	H46	H	0.789152	0.335093	0.098008
	H47	H	0.786599	0.662061	0.900130
	H48	H	0.413449	0.112800	0.586092
	H49	H	0.596921	0.883478	0.593078
	H50	H	0.590542	0.114481	0.404118
	H51	H	0.405113	0.884249	0.410794
	H52	H	0.599550	0.409764	0.114985
	H53	H	0.595331	0.584064	0.886864
	H54	H	0.412388	0.595586	0.116594
	H55	H	0.409124	0.411148	0.885183
	H56	H	0.116428	0.586328	0.404204
	H57	H	0.885571	0.597340	0.590492
	H58	H	0.116263	0.412064	0.593025
	H59	H	0.882513	0.405287	0.394683
	H60	H	0.120020	0.404459	0.596453
	H61	H	0.888042	0.588786	0.588956
	H62	H	0.120352	0.596643	0.403047
	H63	H	0.885203	0.397536	0.412690
	H64	H	0.404748	0.589065	0.116426
	H65	H	0.588839	0.596148	0.885384
	H66	H	0.591695	0.405662	0.113514
	H67	H	0.412554	0.403188	0.883410
	H68	H	0.593016	0.114205	0.410627
	H69	H	0.593844	0.883549	0.593245
	H70	H	0.399969	0.118645	0.591388
	H71	H	0.406199	0.881571	0.401385
	H72	H	0.902378	0.614506	0.082615
	H73	H	0.102044	0.380410	0.094280
	H74	H	0.094494	0.612058	0.915191
	H75	H	0.905872	0.381160	0.903526
	H76	H	0.094275	0.903314	0.615276
	H77	H	0.083368	0.075930	0.391350
	H78	H	0.904672	0.091079	0.616192
	H79	H	0.912100	0.902606	0.383849
	H80	H	0.615354	0.086314	0.908844
	H81	H	0.385444	0.092125	0.094180
	H82	H	0.615063	0.907811	0.087463
	H83	H	0.386169	0.912574	0.897081
	H84	H	0.618725	0.909626	0.097685
	H85	H	0.386527	0.092949	0.087936
	H86	H	0.620171	0.091143	0.900421
	H87	H	0.382857	0.895492	0.902411
	H88	H	0.910759	0.089458	0.613638
	H89	H	0.085000	0.109863	0.380349
	H90	H	0.099855	0.906292	0.615666
	H91	H	0.902542	0.906670	0.382206
	H92	H	0.100581	0.617657	0.904582
	H93	H	0.091606	0.382808	0.098018
	H94	H	0.905160	0.620040	0.101876
	H95	H	0.914123	0.383518	0.904266
	H96	H	0.412457	0.117445	0.600820
	H97	H	0.595297	0.883409	0.590613
	H98	H	0.596970	0.116143	0.405829
	H99	H	0.413397	0.884814	0.406658
	H100	H	0.598754	0.400877	0.117076
	H101	H	0.601911	0.594970	0.880886
	H102	H	0.413991	0.586500	0.112899
	H103	H	0.404204	0.404405	0.881759
	H104	H	0.116510	0.593853	0.412912
	H105	H	0.885001	0.591523	0.597505
	H106	H	0.116885	0.404862	0.587533
	H107	H	0.890206	0.416350	0.408427
	H108	H	0.919945	0.611191	0.091510
	H109	H	0.094166	0.384741	0.087259
	H110	H	0.088168	0.613876	0.904100
	H111	H	0.908880	0.383657	0.911182
	H112	H	0.094189	0.909676	0.614004
	H113	H	0.113810	0.089487	0.378526
	H114	H	0.910320	0.095592	0.616096
	H115	H	0.910240	0.912748	0.385743
	H116	H	0.618205	0.096707	0.909174
	H117	H	0.387248	0.087331	0.090803
	H118	H	0.619495	0.900198	0.093619
	H119	H	0.389888	0.907495	0.914238
	C120	C	0.380855	0.007564	0.620314
	C121	C	0.623451	0.991407	0.621135
	C122	C	0.622548	0.007098	0.378367
	C123	C	0.379686	0.991271	0.377054
	C124	C	0.624642	0.376584	0.007450
	C125	C	0.623972	0.620597	0.991794
	C126	C	0.381317	0.619744	0.007614
	C127	C	0.380331	0.376925	0.991104
	C128	C	0.009891	0.621183	0.377637
	C129	C	0.994008	0.621453	0.621439
	C130	C	0.010033	0.377881	0.620798
	C131	C	0.993959	0.377435	0.377383
	C132	C	0.881253	0.507249	0.120626
	C133	C	0.124615	0.490547	0.121662
	C134	C	0.123794	0.507087	0.878468
	C135	C	0.880850	0.490971	0.877917
	C136	C	0.123850	0.877830	0.507210
	C137	C	0.123351	0.120840	0.490797
	C138	C	0.879915	0.120934	0.507404
	C139	C	0.879818	0.878124	0.491351
	C140	C	0.509880	0.120085	0.877410
	C141	C	0.494036	0.119638	0.120115
	C142	C	0.510246	0.877004	0.120891
	C143	C	0.494222	0.876620	0.876851
	C144	C	0.384155	0.884390	0.674609
	C145	C	0.620899	0.114584	0.676445
	C146	C	0.620664	0.884074	0.323258
	C147	C	0.381711	0.113682	0.320951
	C148	C	0.679409	0.379156	0.884617
	C149	C	0.678954	0.617191	0.114656
	C150	C	0.324800	0.618253	0.885249
	C151	C	0.325658	0.378515	0.113652
	C152	C	0.887204	0.676187	0.380018
	C153	C	0.116921	0.676037	0.618796
	C154	C	0.887278	0.322874	0.617629
	C155	C	0.116465	0.321721	0.380422
	C156	C	0.887584	0.379596	0.676412
	C157	C	0.116713	0.618688	0.677066
	C158	C	0.887518	0.619119	0.321659
	C159	C	0.117132	0.380161	0.323303
	C160	C	0.382885	0.675646	0.885314
	C161	C	0.621766	0.675524	0.114515
	C162	C	0.621191	0.321608	0.884626
	C163	C	0.384126	0.321632	0.113941
	C164	C	0.678218	0.884170	0.380972
	C165	C	0.678516	0.114522	0.619018
	C166	C	0.326513	0.884491	0.616836
	C167	C	0.324112	0.114225	0.378765
	C168	C	0.884434	0.384118	0.175779
	C169	C	0.121425	0.613963	0.176225
	C170	C	0.121380	0.384286	0.822778
	C171	C	0.882680	0.613734	0.822361
	C172	C	0.178310	0.880195	0.384249
	C173	C	0.178920	0.117790	0.613956
	C174	C	0.824064	0.118870	0.385208
	C175	C	0.825338	0.880937	0.614274
	C176	C	0.387493	0.176153	0.879246
	C177	C	0.616886	0.174455	0.117995
	C178	C	0.387211	0.822030	0.117139
	C179	C	0.617013	0.821414	0.880330
	C180	C	0.387278	0.879033	0.175671
	C181	C	0.616488	0.117314	0.176313
	C182	C	0.387102	0.117825	0.822228
	C183	C	0.617148	0.879539	0.822663
	C184	C	0.882390	0.176054	0.384913
	C185	C	0.121386	0.175743	0.613909
	C186	C	0.120401	0.822422	0.384413
	C187	C	0.883038	0.823034	0.613993
	C188	C	0.178292	0.383563	0.881217
	C189	C	0.179596	0.613728	0.118914
	C190	C	0.826942	0.383852	0.118144
	C191	C	0.825242	0.613691	0.880069
	C192	C	0.402209	0.094051	0.598921
	C193	C	0.601610	0.905667	0.598974
	C194	C	0.600159	0.092649	0.400389
	C195	C	0.401706	0.905522	0.399760
	C196	C	0.603098	0.398678	0.093004
	C197	C	0.601873	0.598264	0.906295
	C198	C	0.403793	0.597083	0.093263
	C199	C	0.402188	0.399493	0.905470
	C200	C	0.095629	0.598852	0.400124
	C201	C	0.908428	0.599044	0.598932
	C202	C	0.095656	0.400490	0.598655
	C203	C	0.908162	0.399796	0.398914
	C204	C	0.902851	0.593072	0.098526
	C205	C	0.102541	0.404801	0.099803
	C206	C	0.101096	0.592439	0.901430
	C207	C	0.903111	0.404966	0.899911
	C208	C	0.102498	0.899976	0.592803
	C209	C	0.100828	0.098338	0.405547
	C210	C	0.902080	0.098714	0.593250
	C211	C	0.901812	0.900596	0.406117
	C212	C	0.595697	0.097801	0.899600
	C213	C	0.408505	0.097385	0.097451
	C214	C	0.595716	0.899365	0.099206
	C215	C	0.408361	0.898646	0.898268
	Zn216	Zn	0.502140	-0.000820	0.748612
	Zn217	Zn	0.501726	-0.001540	0.249219
	Zn218	Zn	0.752725	0.498795	-0.000627
	Zn219	Zn	0.252212	0.498605	-0.000589
	Zn220	Zn	0.001650	0.749344	0.499140
	Zn221	Zn	0.002118	0.248937	0.499474
	Zn222	Zn	0.002150	0.499641	0.749471
	Zn223	Zn	0.002479	0.499370	0.249424
	Zn224	Zn	0.502578	0.748857	-0.000401
	Zn225	Zn	0.502175	0.248423	-0.000735
	Zn226	Zn	0.751209	-0.000429	0.499161
	Zn227	Zn	0.252283	-0.000092	0.498744
	N228	N	0.417079	0.962155	0.676864
	N229	N	0.587414	0.037013	0.677925
	N230	N	0.586662	0.961398	0.321585
	N231	N	0.415688	0.036429	0.320055
	N232	N	0.681530	0.412726	0.961921
	N233	N	0.680753	0.583695	0.037286
	N234	N	0.323732	0.584137	0.962406
	N235	N	0.323640	0.412460	0.036594
	N236	N	0.964242	0.677365	0.414226
	N237	N	0.039705	0.677726	0.584884
	N238	N	0.964395	0.322039	0.583635
	N239	N	0.039042	0.320256	0.413549
	N240	N	0.964938	0.413333	0.678332
	N241	N	0.039349	0.585185	0.678502
	N242	N	0.964827	0.585304	0.320282
	N243	N	0.039895	0.414192	0.321378
	N244	N	0.417419	0.676482	0.962217
	N245	N	0.588174	0.677336	0.037203
	N246	N	0.587824	0.320031	0.961834
	N247	N	0.417681	0.320664	0.036577
	N248	N	0.679419	0.961543	0.414583
	N249	N	0.680187	0.037130	0.585318
	N250	N	0.324470	0.962075	0.583798
	N251	N	0.322805	0.037020	0.413037
	N252	N	0.917644	0.461746	0.177217
	N253	N	0.088134	0.536530	0.178116
	N254	N	0.087908	0.461888	0.821114
	N255	N	0.916820	0.536483	0.821261
	N256	N	0.180538	0.914049	0.461317
	N257	N	0.180235	0.084315	0.536459
	N258	N	0.822599	0.085235	0.462437
	N259	N	0.823131	0.914516	0.536953
	N260	N	0.464889	0.177689	0.912950
	N261	N	0.539802	0.175926	0.083687
	N262	N	0.464663	0.820560	0.084046
	N263	N	0.539478	0.819796	0.913445
	N264	N	0.464639	0.912463	0.178145
	N265	N	0.539068	0.084014	0.177809
	N266	N	0.464186	0.083623	0.821247
	N267	N	0.539954	0.913190	0.820345
	N268	N	0.916611	0.177149	0.461899
	N269	N	0.087570	0.177478	0.536728
	N270	N	0.087237	0.820926	0.461788
	N271	N	0.916233	0.821294	0.536708
	N272	N	0.180202	0.461011	0.914837
	N273	N	0.181646	0.535983	0.085718
	N274	N	0.824716	0.461280	0.084516
	N275	N	0.823793	0.536187	0.913687
	O276	O	-0.020708	0.028932	0.964554
	H277	H	-0.014806	0.025523	0.967655
	H278	H	-0.019248	0.032908	0.960172
	O279	O	0.470857	0.612561	0.489701
	H280	H	0.486739	0.617667	0.493741
	H281	H	0.466280	0.622653	0.487611
	O282	O	0.513883	0.589722	0.516922
	H283	H	0.514773	0.580616	0.526261
	H284	H	0.516021	0.596442	0.510245
	O285	O	0.473981	0.571048	0.515655
	H286	H	0.475952	0.573395	0.512360
	H287	H	0.471928	0.569665	0.520007
	O288	O	0.467067	0.521361	0.518685
	H289	H	0.459176	0.520373	0.516697
	H290	H	0.462974	0.528208	0.522870
	O291	O	-0.031959	1.021832	0.954002
	H292	H	-0.033814	1.026158	0.953421
	H293	H	-0.029010	1.025901	0.954670
	O294	O	0.508061	0.586194	0.495806
	H295	H	0.503697	0.580280	0.494117
	H296	H	0.507698	0.586463	0.496030
	O297	O	0.963078	0.028443	-0.050101
	H298	H	0.960799	0.028512	-0.053678
	H299	H	0.957470	0.031250	-0.051534
