data_Molecule from HDF5

_cell_length_a		16.362457
_cell_length_b		16.360936
_cell_length_c		16.208649
_cell_angle_alpha	89.998386
_cell_angle_beta	90.029957
_cell_angle_gamma	90.022689
_symmetry_space_group_name_H-M	'P 1'
_symmetry_Int_Tables_number		1

loop_
	_symmetry_equiv_pos_as_xyz
	x,y,z

loop_
	_atom_site_label
	_atom_site_type_symbol
	_atom_site_fract_x
	_atom_site_fract_y
	_atom_site_fract_z
	H0	H	0.404877	0.831404	0.714533
	H1	H	0.599540	0.158199	0.712989
	H2	H	0.600396	0.831527	0.286207
	H3	H	0.406819	0.159062	0.286405
	H4	H	0.718244	0.397552	0.835511
	H5	H	0.718719	0.592780	0.165447
	H6	H	0.290369	0.593140	0.835968
	H7	H	0.291134	0.395680	0.163994
	H8	H	0.840859	0.710337	0.401160
	H9	H	0.166084	0.710926	0.600258
	H10	H	0.840887	0.278027	0.601180
	H11	H	0.167122	0.280138	0.403462
	H12	H	0.840346	0.398168	0.714001
	H13	H	0.168263	0.591199	0.713073
	H14	H	0.840325	0.591951	0.286137
	H15	H	0.168474	0.398901	0.288928
	H16	H	0.407476	0.707455	0.834478
	H17	H	0.604326	0.710401	0.163656
	H18	H	0.603310	0.280214	0.835829
	H19	H	0.404862	0.279581	0.163650
	H20	H	0.718885	0.831940	0.399759
	H21	H	0.718591	0.157294	0.599462
	H22	H	0.286352	0.832365	0.599983
	H23	H	0.287954	0.157748	0.400664
	H24	H	0.909045	0.329993	0.212811
	H25	H	0.101317	0.658618	0.214514
	H26	H	0.100758	0.330442	0.787707
	H27	H	0.908453	0.658404	0.787952
	H28	H	0.215454	0.897489	0.334827
	H29	H	0.217508	0.092236	0.663900
	H30	H	0.789000	0.093000	0.335483
	H31	H	0.788835	0.895834	0.664790
	H32	H	0.342096	0.210852	0.899681
	H33	H	0.666291	0.210359	0.100124
	H34	H	0.341306	0.778143	0.098541
	H35	H	0.667779	0.779441	0.899846
	H36	H	0.339421	0.897478	0.212879
	H37	H	0.667003	0.091793	0.213760
	H38	H	0.339039	0.090303	0.787698
	H39	H	0.667201	0.897680	0.785269
	H40	H	0.904853	0.209308	0.335888
	H41	H	0.100694	0.206998	0.664931
	H42	H	0.100722	0.781111	0.335598
	H43	H	0.905304	0.780714	0.665517
	H44	H	0.220486	0.331774	0.901502
	H45	H	0.220939	0.657798	0.100655
	H46	H	0.788202	0.331800	0.100798
	H47	H	0.788974	0.657929	0.901071
	H48	H	0.419028	0.105912	0.587377
	H49	H	0.598343	0.876809	0.598572
	H50	H	0.603058	0.112975	0.406000
	H51	H	0.404985	0.877746	0.402413
	H52	H	0.596024	0.402715	0.116304
	H53	H	0.602203	0.594790	0.879704
	H54	H	0.413808	0.590061	0.116953
	H55	H	0.411970	0.399460	0.882002
	H56	H	0.118584	0.583994	0.405108
	H57	H	0.887476	0.583707	0.601033
	H58	H	0.119736	0.397793	0.594486
	H59	H	0.888083	0.398973	0.408118
	H60	H	0.119036	0.399535	0.591297
	H61	H	0.885641	0.596310	0.594336
	H62	H	0.121580	0.593446	0.407050
	H63	H	0.888923	0.402862	0.407704
	H64	H	0.409430	0.586724	0.117015
	H65	H	0.602307	0.578168	0.884710
	H66	H	0.596129	0.401347	0.116602
	H67	H	0.409680	0.403988	0.883011
	H68	H	0.591782	0.110247	0.402874
	H69	H	0.589713	0.881473	0.591223
	H70	H	0.399630	0.111346	0.586903
	H71	H	0.414121	0.879327	0.404662
	H72	H	0.909720	0.608767	0.088624
	H73	H	0.097417	0.381227	0.089360
	H74	H	0.098456	0.608284	0.913264
	H75	H	0.912229	0.378898	0.906760
	H76	H	0.097529	0.901806	0.616976
	H77	H	0.089389	0.082747	0.385904
	H78	H	0.915712	0.084683	0.614167
	H79	H	0.915415	0.905440	0.386986
	H80	H	0.619649	0.090536	0.909791
	H81	H	0.386543	0.099120	0.085273
	H82	H	0.619539	0.908433	0.099303
	H83	H	0.390658	0.902784	0.909877
	H84	H	0.621753	0.892970	0.095154
	H85	H	0.393154	0.076974	0.085955
	H86	H	0.618744	0.084299	0.907217
	H87	H	0.388111	0.900882	0.903733
	H88	H	0.909352	0.091541	0.618480
	H89	H	0.094970	0.097550	0.380403
	H90	H	0.095474	0.903982	0.616419
	H91	H	0.910997	0.895547	0.382933
	H92	H	0.104057	0.612916	0.905757
	H93	H	0.104572	0.377552	0.095171
	H94	H	0.908181	0.611706	0.096252
	H95	H	0.909045	0.379165	0.910167
	H96	H	0.410110	0.113497	0.603757
	H97	H	0.601455	0.879414	0.586695
	H98	H	0.595260	0.107795	0.414270
	H99	H	0.407446	0.880911	0.411410
	H100	H	0.597255	0.402266	0.116450
	H101	H	0.588299	0.587629	0.886858
	H102	H	0.414254	0.584791	0.115345
	H103	H	0.415077	0.403314	0.884303
	H104	H	0.116661	0.587733	0.414670
	H105	H	0.890663	0.585146	0.586950
	H106	H	0.119536	0.401519	0.594628
	H107	H	0.887980	0.399960	0.404815
	H108	H	0.915939	0.608767	0.094054
	H109	H	0.095689	0.379106	0.098582
	H110	H	0.093963	0.609498	0.904417
	H111	H	0.907950	0.377976	0.905908
	H112	H	0.094721	0.900992	0.617012
	H113	H	0.105823	0.084356	0.381268
	H114	H	0.906049	0.082419	0.616988
	H115	H	0.904489	0.904618	0.382761
	H116	H	0.619776	0.089204	0.903076
	H117	H	0.384646	0.087365	0.105388
	H118	H	0.616078	0.903760	0.084543
	H119	H	0.387899	0.896600	0.908897
	C120	C	0.381324	0.002652	0.621372
	C121	C	0.624480	0.986662	0.621106
	C122	C	0.625047	0.002673	0.378536
	C123	C	0.381064	0.986900	0.377903
	C124	C	0.625809	0.373604	0.008259
	C125	C	0.626473	0.615879	0.992027
	C126	C	0.384016	0.615686	0.007773
	C127	C	0.383603	0.373277	0.991588
	C128	C	0.011611	0.616624	0.379432
	C129	C	0.995953	0.616473	0.622399
	C130	C	0.011590	0.371960	0.622392
	C131	C	0.995921	0.372457	0.378950
	C132	C	0.883315	0.502175	0.121906
	C133	C	0.127469	0.486871	0.123150
	C134	C	0.126409	0.502342	0.879429
	C135	C	0.882355	0.486766	0.879212
	C136	C	0.124383	0.873644	0.508133
	C137	C	0.124991	0.116218	0.491555
	C138	C	0.882151	0.114999	0.508163
	C139	C	0.881793	0.873231	0.492686
	C140	C	0.511789	0.115920	0.878245
	C141	C	0.495690	0.116310	0.121284
	C142	C	0.511532	0.872685	0.121545
	C143	C	0.496358	0.872538	0.878337
	C144	C	0.384276	0.880029	0.676362
	C145	C	0.620842	0.109488	0.675570
	C146	C	0.621879	0.880369	0.323268
	C147	C	0.384895	0.110099	0.323551
	C148	C	0.680814	0.376293	0.884641
	C149	C	0.681036	0.613267	0.116039
	C150	C	0.328700	0.613457	0.884397
	C151	C	0.328788	0.375596	0.115008
	C152	C	0.889315	0.672068	0.380833
	C153	C	0.117943	0.672151	0.620371
	C154	C	0.889379	0.316650	0.620794
	C155	C	0.118559	0.317623	0.381864
	C156	C	0.888947	0.376465	0.676749
	C157	C	0.118975	0.612556	0.676273
	C158	C	0.889193	0.613140	0.323812
	C159	C	0.119251	0.376730	0.325264
	C160	C	0.386493	0.670579	0.884081
	C161	C	0.624360	0.671816	0.115147
	C162	C	0.623671	0.318283	0.884804
	C163	C	0.385495	0.317706	0.114698
	C164	C	0.680530	0.880496	0.380110
	C165	C	0.680119	0.109000	0.619331
	C166	C	0.325288	0.880638	0.619390
	C167	C	0.326183	0.109385	0.380353
	C168	C	0.887146	0.379186	0.176305
	C169	C	0.123285	0.609815	0.177361
	C170	C	0.122512	0.379475	0.824704
	C171	C	0.886728	0.609683	0.825096
	C172	C	0.178887	0.876181	0.384446
	C173	C	0.179788	0.113086	0.614981
	C174	C	0.826830	0.113187	0.384491
	C175	C	0.826873	0.875552	0.616042
	C176	C	0.389859	0.171865	0.879772
	C177	C	0.618016	0.171683	0.119424
	C178	C	0.389628	0.816866	0.118797
	C179	C	0.619036	0.817748	0.880004
	C180	C	0.388579	0.876181	0.175707
	C181	C	0.618136	0.113277	0.176494
	C182	C	0.388613	0.112071	0.824049
	C183	C	0.618663	0.876086	0.822674
	C184	C	0.884445	0.170731	0.384553
	C185	C	0.121753	0.169957	0.615486
	C186	C	0.121335	0.818779	0.384628
	C187	C	0.884567	0.818172	0.616182
	C188	C	0.181835	0.379967	0.881423
	C189	C	0.182758	0.609212	0.120976
	C190	C	0.827457	0.379845	0.120301
	C191	C	0.827480	0.609332	0.881333
	C192	C	0.403198	0.088201	0.599225
	C193	C	0.602931	0.901183	0.598653
	C194	C	0.603202	0.088317	0.401241
	C195	C	0.402563	0.901538	0.399697
	C196	C	0.603185	0.395655	0.094214
	C197	C	0.604181	0.593486	0.906053
	C198	C	0.405980	0.593749	0.094132
	C199	C	0.405845	0.395663	0.905336
	C200	C	0.096922	0.594786	0.402371
	C201	C	0.910024	0.594676	0.600566
	C202	C	0.097271	0.393374	0.600020
	C203	C	0.910467	0.394132	0.400483
	C204	C	0.904932	0.587571	0.099455
	C205	C	0.105755	0.401544	0.100801
	C206	C	0.105175	0.588083	0.901615
	C207	C	0.903620	0.401002	0.901051
	C208	C	0.102567	0.895865	0.594641
	C209	C	0.103080	0.094726	0.404942
	C210	C	0.904078	0.092916	0.594245
	C211	C	0.903908	0.895332	0.406480
	C212	C	0.597288	0.094400	0.900196
	C213	C	0.410190	0.094410	0.098647
	C214	C	0.596938	0.895053	0.099403
	C215	C	0.410950	0.893894	0.900818
	Zn216	Zn	0.503474	-0.005726	0.749829
	Zn217	Zn	0.503283	-0.004794	0.250260
	Zn218	Zn	0.754040	0.494542	0.000916
	Zn219	Zn	0.255908	0.494999	0.000427
	Zn220	Zn	0.003255	0.745264	0.501001
	Zn221	Zn	0.003235	0.243479	0.500474
	Zn222	Zn	0.004079	0.494422	0.750686
	Zn223	Zn	0.004552	0.494674	0.250811
	Zn224	Zn	0.505079	0.743598	-0.000518
	Zn225	Zn	0.504280	0.245222	-0.000414
	Zn226	Zn	0.753610	-0.005564	0.500239
	Zn227	Zn	0.252358	-0.005344	0.499236
	N228	N	0.418293	0.956853	0.677633
	N229	N	0.587215	0.032506	0.676812
	N230	N	0.588073	0.957407	0.322257
	N231	N	0.418305	0.033048	0.321764
	N232	N	0.682400	0.409749	0.962421
	N233	N	0.682621	0.579385	0.038360
	N234	N	0.327187	0.579874	0.962235
	N235	N	0.327645	0.409624	0.037513
	N236	N	0.966399	0.674276	0.414633
	N237	N	0.040454	0.674708	0.587645
	N238	N	0.966669	0.314089	0.587496
	N239	N	0.040917	0.314818	0.414448
	N240	N	0.965993	0.410032	0.677866
	N241	N	0.041832	0.578797	0.677745
	N242	N	0.966241	0.579439	0.322910
	N243	N	0.042192	0.410360	0.323659
	N244	N	0.420204	0.671820	0.961850
	N245	N	0.591273	0.673422	0.037224
	N246	N	0.590419	0.316207	0.962754
	N247	N	0.418808	0.316104	0.036705
	N248	N	0.682577	0.957759	0.413620
	N249	N	0.682417	0.031592	0.586092
	N250	N	0.323455	0.957860	0.585773
	N251	N	0.323934	0.032041	0.413598
	N252	N	0.921059	0.456112	0.177318
	N253	N	0.089837	0.532787	0.178992
	N254	N	0.088931	0.456566	0.823202
	N255	N	0.920231	0.532482	0.823745
	N256	N	0.180644	0.909786	0.462217
	N257	N	0.181840	0.080414	0.536887
	N258	N	0.825222	0.079329	0.462239
	N259	N	0.824984	0.908968	0.538226
	N260	N	0.467154	0.174309	0.912845
	N261	N	0.540694	0.173725	0.085775
	N262	N	0.467255	0.814257	0.086377
	N263	N	0.541971	0.815411	0.913827
	N264	N	0.465429	0.910412	0.177201
	N265	N	0.541235	0.079464	0.177619
	N266	N	0.465499	0.077684	0.823365
	N267	N	0.541573	0.909394	0.821627
	N268	N	0.918218	0.171827	0.462269
	N269	N	0.088395	0.171843	0.537592
	N270	N	0.088395	0.816827	0.462746
	N271	N	0.917902	0.816677	0.538231
	N272	N	0.184285	0.457277	0.914798
	N273	N	0.185597	0.531778	0.088046
	N274	N	0.824778	0.457322	0.087249
	N275	N	0.824794	0.531863	0.914451
	O276	O	0.468361	0.549875	0.433532
	H277	H	0.461044	0.553566	0.425927
	H278	H	0.467342	0.551058	0.436054
	O279	O	-0.100711	-0.070441	-0.006547
	H280	H	-0.105123	-0.069112	-0.004900
	H281	H	-0.099164	-0.077677	-0.009448
	O282	O	0.515348	0.563873	0.466833
	H283	H	0.516425	0.568940	0.479361
	H284	H	0.516996	0.560097	0.469205
	O285	O	0.553312	0.569660	0.529111
	H286	H	0.554375	0.571275	0.517775
	H287	H	0.568235	0.570510	0.526623
	O288	O	1.541674	0.522627	0.487991
	H289	H	1.531933	0.515697	0.478051
	H290	H	1.548133	0.530601	0.488568
	O291	O	-0.528283	0.533681	-0.496032
	H292	H	-0.533631	0.532531	-0.501501
	H293	H	-0.530199	0.541123	-0.493035
	O294	O	-0.080898	0.975512	0.023950
	H295	H	-0.090788	0.977066	0.025299
	H296	H	-0.088178	0.966351	0.021529
	O297	O	-0.087074	0.923257	-0.001970
	H298	H	-0.082551	0.918790	0.001837
	H299	H	-0.083979	0.920978	-0.010248
	O300	O	0.955638	-0.042687	0.997512
	H301	H	0.952691	-0.038647	1.001844
	H302	H	0.957952	-0.032923	1.003018
	O303	O	0.518574	0.565313	0.462161
	H304	H	0.522404	0.572555	0.453609
	H305	H	0.525764	0.558763	0.463025
	O306	O	0.520407	1.582528	1.526579
	H307	H	0.518150	1.584839	1.538687
	H308	H	0.518381	1.581661	1.527673
	O309	O	0.486911	0.521903	0.501590
	H310	H	0.490221	0.525282	0.498250
	H311	H	0.481735	0.521689	0.510424
