data_Molecule from HDF5

_cell_length_a		16.272776
_cell_length_b		16.340605
_cell_length_c		16.336285
_cell_angle_alpha	90.051390
_cell_angle_beta	89.982638
_cell_angle_gamma	90.101088
_symmetry_space_group_name_H-M	'P 1'
_symmetry_Int_Tables_number		1

loop_
	_symmetry_equiv_pos_as_xyz
	x,y,z

loop_
	_atom_site_label
	_atom_site_type_symbol
	_atom_site_fract_x
	_atom_site_fract_y
	_atom_site_fract_z
	H0	H	0.414580	0.858028	0.714736
	H1	H	0.613793	0.183680	0.714823
	H2	H	0.613535	0.857813	0.283083
	H3	H	0.415438	0.184134	0.284179
	H4	H	0.727156	0.423577	0.836484
	H5	H	0.730258	0.620019	0.162848
	H6	H	0.301471	0.616780	0.835510
	H7	H	0.299961	0.423920	0.162919
	H8	H	0.851297	0.736303	0.398903
	H9	H	0.179059	0.734671	0.595500
	H10	H	0.850647	0.305850	0.596507
	H11	H	0.178336	0.307352	0.401242
	H12	H	0.851140	0.421043	0.713430
	H13	H	0.178590	0.620112	0.713280
	H14	H	0.850405	0.618728	0.284279
	H15	H	0.178525	0.423485	0.285069
	H16	H	0.413686	0.737238	0.837520
	H17	H	0.613675	0.736073	0.163168
	H18	H	0.612094	0.306506	0.836661
	H19	H	0.415311	0.306643	0.163190
	H20	H	0.728660	0.857731	0.400935
	H21	H	0.728261	0.184225	0.597081
	H22	H	0.300449	0.857455	0.596500
	H23	H	0.301531	0.184774	0.403313
	H24	H	0.914151	0.357740	0.214083
	H25	H	0.112374	0.683698	0.213593
	H26	H	0.111534	0.357346	0.785083
	H27	H	0.916368	0.684250	0.784199
	H28	H	0.228266	0.924612	0.335386
	H29	H	0.227947	0.118470	0.662951
	H30	H	0.800314	0.118038	0.335721
	H31	H	0.800049	0.923101	0.662564
	H32	H	0.350457	0.233911	0.902782
	H33	H	0.677940	0.234482	0.097439
	H34	H	0.350224	0.806927	0.096095
	H35	H	0.677820	0.804507	0.900732
	H36	H	0.350177	0.922712	0.212493
	H37	H	0.678103	0.117849	0.212236
	H38	H	0.349752	0.116327	0.787697
	H39	H	0.678825	0.922678	0.784620
	H40	H	0.916247	0.235635	0.335747
	H41	H	0.113998	0.236838	0.662011
	H42	H	0.112054	0.807939	0.334918
	H43	H	0.915824	0.805953	0.662048
	H44	H	0.227273	0.357201	0.902499
	H45	H	0.228661	0.683803	0.097015
	H46	H	0.800716	0.357269	0.096280
	H47	H	0.801154	0.684825	0.902565
	H48	H	0.415160	0.137568	0.590047
	H49	H	0.603093	0.906928	0.591013
	H50	H	0.610643	0.138759	0.402266
	H51	H	0.425049	0.907015	0.407940
	H52	H	0.612768	0.424793	0.118257
	H53	H	0.610038	0.614146	0.882956
	H54	H	0.413465	0.619356	0.119324
	H55	H	0.425259	0.431559	0.886830
	H56	H	0.132617	0.623332	0.408477
	H57	H	0.902692	0.600821	0.592465
	H58	H	0.132599	0.430379	0.598773
	H59	H	0.897417	0.428625	0.401644
	H60	H	0.132554	0.421288	0.589734
	H61	H	0.893827	0.619071	0.601606
	H62	H	0.126477	0.607582	0.410577
	H63	H	0.897088	0.423325	0.407785
	H64	H	0.419619	0.604131	0.112864
	H65	H	0.605585	0.608676	0.887151
	H66	H	0.607437	0.432433	0.114987
	H67	H	0.424151	0.419360	0.882627
	H68	H	0.601932	0.135014	0.404571
	H69	H	0.609918	0.905212	0.589786
	H70	H	0.421343	0.139333	0.600848
	H71	H	0.417046	0.904669	0.407928
	H72	H	0.930464	0.633074	0.086486
	H73	H	0.109773	0.401931	0.097827
	H74	H	0.117371	0.637908	0.911557
	H75	H	0.913374	0.403703	0.907256
	H76	H	0.109300	0.929338	0.614590
	H77	H	0.094369	0.108458	0.389068
	H78	H	0.920077	0.111707	0.614423
	H79	H	0.924164	0.921777	0.382148
	H80	H	0.629865	0.113956	0.906693
	H81	H	0.395496	0.115295	0.096177
	H82	H	0.635255	0.923023	0.100149
	H83	H	0.397682	0.924184	0.907684
	H84	H	0.628762	0.923978	0.082605
	H85	H	0.397013	0.116609	0.091206
	H86	H	0.631332	0.114227	0.905218
	H87	H	0.399880	0.930028	0.908600
	H88	H	0.924738	0.113159	0.614054
	H89	H	0.108323	0.129629	0.378824
	H90	H	0.104770	0.926447	0.613972
	H91	H	0.915406	0.927420	0.381505
	H92	H	0.109162	0.640587	0.893766
	H93	H	0.100926	0.406025	0.092595
	H94	H	0.912822	0.637100	0.088024
	H95	H	0.922252	0.403459	0.897587
	H96	H	0.427777	0.134563	0.591058
	H97	H	0.607173	0.903853	0.596226
	H98	H	0.608674	0.135049	0.411141
	H99	H	0.421426	0.903658	0.400771
	H100	H	0.603262	0.423078	0.115557
	H101	H	0.602263	0.615527	0.884976
	H102	H	0.430239	0.617426	0.114180
	H103	H	0.413830	0.427551	0.881549
	H104	H	0.132745	0.612265	0.395482
	H105	H	0.899853	0.619884	0.580752
	H106	H	0.128126	0.432893	0.587239
	H107	H	0.899692	0.430458	0.408838
	H108	H	0.923836	0.638985	0.102430
	H109	H	0.110316	0.404471	0.087161
	H110	H	0.098108	0.633462	0.908625
	H111	H	0.925609	0.407960	0.909659
	H112	H	0.109195	0.923924	0.616250
	H113	H	0.120303	0.105605	0.381841
	H114	H	0.921235	0.116521	0.615376
	H115	H	0.924133	0.931606	0.385067
	H116	H	0.631347	0.114795	0.906787
	H117	H	0.398092	0.112140	0.092754
	H118	H	0.627548	0.938794	0.093263
	H119	H	0.397922	0.928177	0.902950
	C120	C	0.392929	0.029294	0.621566
	C121	C	0.635640	1.012826	0.621006
	C122	C	0.635720	0.028543	0.377207
	C123	C	0.392766	1.013033	0.377485
	C124	C	0.635712	0.398732	0.008336
	C125	C	0.635577	0.641937	0.992319
	C126	C	0.392199	0.641868	0.007840
	C127	C	0.392293	0.398543	0.991568
	C128	C	0.022760	0.642607	0.376324
	C129	C	1.006917	0.641987	0.619831
	C130	C	0.022919	0.399077	0.620327
	C131	C	1.006364	0.399409	0.377786
	C132	C	0.893080	0.528677	0.120784
	C133	C	0.135529	0.512013	0.120634
	C134	C	0.136059	0.529137	0.877267
	C135	C	0.892134	0.513028	0.876727
	C136	C	0.136106	0.899072	0.507076
	C137	C	0.136146	0.143065	0.491003
	C138	C	0.893496	0.142315	0.506889
	C139	C	0.892257	0.898396	0.490588
	C140	C	0.522324	0.141970	0.878776
	C141	C	0.505547	0.142238	0.121170
	C142	C	0.522559	0.899386	0.120747
	C143	C	0.506372	0.898710	0.877883
	C144	C	0.394803	0.906373	0.676172
	C145	C	0.633937	0.135077	0.676764
	C146	C	0.633590	0.906329	0.321591
	C147	C	0.395128	0.135510	0.322394
	C148	C	0.689759	0.402264	0.885252
	C149	C	0.692337	0.640600	0.114120
	C150	C	0.338218	0.638507	0.884596
	C151	C	0.337103	0.402134	0.114258
	C152	C	0.899918	0.698051	0.378626
	C153	C	0.130059	0.697135	0.616601
	C154	C	0.899563	0.343874	0.617248
	C155	C	0.129316	0.344483	0.379939
	C156	C	0.899685	0.401069	0.675216
	C157	C	0.129811	0.639888	0.674889
	C158	C	0.899545	0.639750	0.321658
	C159	C	0.129286	0.402210	0.322379
	C160	C	0.394622	0.697667	0.885577
	C161	C	0.634293	0.698150	0.114462
	C162	C	0.633011	0.343792	0.885624
	C163	C	0.394901	0.344366	0.114413
	C164	C	0.691124	0.906471	0.379811
	C165	C	0.690697	0.135449	0.618009
	C166	C	0.337806	0.906428	0.617872
	C167	C	0.338431	0.135858	0.381301
	C168	C	0.894879	0.406377	0.175617
	C169	C	0.132926	0.635004	0.175593
	C170	C	0.132768	0.406182	0.822622
	C171	C	0.895729	0.635595	0.822243
	C172	C	0.190411	0.903359	0.383948
	C173	C	0.190591	0.139675	0.614008
	C174	C	0.838150	0.139282	0.384221
	C175	C	0.837666	0.902067	0.613645
	C176	C	0.399125	0.196309	0.882220
	C177	C	0.629020	0.196650	0.117898
	C178	C	0.399183	0.844500	0.117400
	C179	C	0.629433	0.843120	0.880244
	C180	C	0.399109	0.901909	0.175079
	C181	C	0.629084	0.138912	0.175035
	C182	C	0.398709	0.137987	0.824965
	C183	C	0.629627	0.901532	0.822414
	C184	C	0.895661	0.197499	0.384351
	C185	C	0.134039	0.198451	0.613466
	C186	C	0.132948	0.845444	0.383732
	C187	C	0.895246	0.843886	0.613409
	C188	C	0.189946	0.405991	0.880965
	C189	C	0.190534	0.635217	0.117915
	C190	C	0.838307	0.406053	0.117227
	C191	C	0.838335	0.635926	0.880919
	C192	C	0.415096	0.114910	0.600270
	C193	C	0.613227	0.927290	0.598836
	C194	C	0.613476	0.114162	0.399381
	C195	C	0.414741	0.927213	0.399105
	C196	C	0.614312	0.420399	0.094054
	C197	C	0.612744	0.619284	0.906930
	C198	C	0.414405	0.620129	0.093383
	C199	C	0.414565	0.420042	0.905870
	C200	C	0.108431	0.620808	0.398329
	C201	C	0.921067	0.619872	0.598033
	C202	C	0.108738	0.421580	0.598352
	C203	C	0.920262	0.421206	0.399719
	C204	C	0.915617	0.614468	0.098596
	C205	C	0.113543	0.426339	0.098797
	C206	C	0.114527	0.615074	0.898486
	C207	C	0.914037	0.427126	0.898418
	C208	C	0.114336	0.920131	0.592755
	C209	C	0.114152	0.121026	0.405433
	C210	C	0.915645	0.120231	0.592493
	C211	C	0.914502	0.920463	0.405049
	C212	C	0.608701	0.120514	0.900001
	C213	C	0.419299	0.120908	0.099675
	C214	C	0.608253	0.921895	0.098593
	C215	C	0.420689	0.920786	0.899968
	Zn216	Zn	0.514017	0.020881	0.749875
	Zn217	Zn	0.514038	0.020794	0.248941
	Zn218	Zn	0.764144	0.520387	-0.000497
	Zn219	Zn	0.263967	0.520340	-0.000389
	Zn220	Zn	0.014749	0.770494	0.498498
	Zn221	Zn	0.014751	0.271106	0.499022
	Zn222	Zn	0.014466	0.520804	0.748256
	Zn223	Zn	0.014061	0.520548	0.249044
	Zn224	Zn	0.514479	0.770399	0.000264
	Zn225	Zn	0.514214	0.270241	0.000232
	Zn226	Zn	0.764459	0.021108	0.499039
	Zn227	Zn	0.264557	0.021012	0.499374
	N228	N	0.428216	0.983673	0.678649
	N229	N	0.600209	0.057906	0.678480
	N230	N	0.599896	0.983389	0.320039
	N231	N	0.428057	0.058019	0.319909
	N232	N	0.691581	0.435920	0.962409
	N233	N	0.692914	0.606024	0.037217
	N234	N	0.336807	0.604352	0.961531
	N235	N	0.335615	0.435128	0.036930
	N236	N	0.977458	0.699867	0.412194
	N237	N	0.052567	0.698603	0.583001
	N238	N	0.977195	0.342641	0.583888
	N239	N	0.051982	0.342784	0.413807
	N240	N	0.977268	0.434836	0.677200
	N241	N	0.052428	0.606126	0.676750
	N242	N	0.976717	0.605980	0.320198
	N243	N	0.051728	0.435819	0.320999
	N244	N	0.427526	0.699813	0.963031
	N245	N	0.599806	0.698888	0.037653
	N246	N	0.600212	0.341515	0.963150
	N247	N	0.428489	0.342039	0.037197
	N248	N	0.692327	0.983455	0.413921
	N249	N	0.691848	0.058332	0.583956
	N250	N	0.336560	0.983747	0.584519
	N251	N	0.337004	0.058696	0.414858
	N252	N	0.927967	0.483742	0.177948
	N253	N	0.099473	0.557555	0.177422
	N254	N	0.099967	0.483634	0.820231
	N255	N	0.928335	0.558056	0.819697
	N256	N	0.192760	0.935648	0.461628
	N257	N	0.192138	0.105867	0.536988
	N258	N	0.836545	0.105709	0.461414
	N259	N	0.835769	0.935204	0.536239
	N260	N	0.477048	0.198867	0.914735
	N261	N	0.551304	0.198726	0.085117
	N262	N	0.476990	0.842849	0.084389
	N263	N	0.551990	0.841176	0.913819
	N264	N	0.476752	0.935502	0.177176
	N265	N	0.551363	0.105688	0.177249
	N266	N	0.476283	0.105054	0.822667
	N267	N	0.552026	0.934790	0.820461
	N268	N	0.929173	0.199341	0.461578
	N269	N	0.100914	0.200511	0.536005
	N270	N	0.099583	0.842798	0.461165
	N271	N	0.928301	0.841360	0.535902
	N272	N	0.192282	0.483366	0.914053
	N273	N	0.192090	0.558009	0.084355
	N274	N	0.837196	0.483352	0.083574
	N275	N	0.836011	0.558550	0.913968
	O276	O	-0.413533	-0.413594	0.528312
	H277	H	-0.417309	-0.403100	0.523899
	H278	H	-0.416520	-0.408971	0.539724
	O279	O	0.531740	-0.423258	0.532185
	H280	H	0.532839	-0.427005	0.528859
	H281	H	0.530268	-0.415298	0.544960
	O282	O	0.539468	0.559228	0.542012
	H283	H	0.543055	0.560692	0.541520
	H284	H	0.546880	0.561066	0.541245
	O285	O	-0.429369	-0.416876	0.564834
	H286	H	-0.421943	-0.420116	0.565539
	H287	H	-0.418368	-0.416713	0.566004
	O288	O	0.525706	0.585335	0.570643
	H289	H	0.520462	0.572670	0.573065
	H290	H	0.515943	0.586074	0.570022
	O291	O	-0.403128	0.605848	0.547330
	H292	H	-0.404330	0.607896	0.549353
	H293	H	-0.412002	0.604764	0.543430
	O294	O	0.518148	0.572885	0.555795
	H295	H	0.514609	0.572317	0.559604
	H296	H	0.527478	0.564149	0.561809
	O297	O	0.622811	-0.397962	0.573790
	H298	H	0.625892	-0.386811	0.583821
	H299	H	0.625675	-0.388150	0.573326
