data_Molecule from HDF5

_cell_length_a		16.298831
_cell_length_b		16.364483
_cell_length_c		16.259685
_cell_angle_alpha	89.856263
_cell_angle_beta	89.976277
_cell_angle_gamma	90.018372
_symmetry_space_group_name_H-M	'P 1'
_symmetry_Int_Tables_number		1

loop_
	_symmetry_equiv_pos_as_xyz
	x,y,z

loop_
	_atom_site_label
	_atom_site_type_symbol
	_atom_site_fract_x
	_atom_site_fract_y
	_atom_site_fract_z
	H0	H	0.408618	0.832535	0.715594
	H1	H	0.604129	0.159878	0.712559
	H2	H	0.606514	0.832730	0.284645
	H3	H	0.408844	0.158883	0.284025
	H4	H	0.719811	0.397925	0.835147
	H5	H	0.720111	0.592532	0.162860
	H6	H	0.292836	0.594977	0.835118
	H7	H	0.291798	0.396272	0.162097
	H8	H	0.844350	0.713386	0.397099
	H9	H	0.170132	0.710241	0.597816
	H10	H	0.844100	0.279841	0.598422
	H11	H	0.169954	0.279628	0.398890
	H12	H	0.842795	0.398989	0.711489
	H13	H	0.170305	0.593023	0.712105
	H14	H	0.842314	0.593679	0.284279
	H15	H	0.170553	0.398221	0.285062
	H16	H	0.407615	0.711166	0.835640
	H17	H	0.606911	0.710288	0.162533
	H18	H	0.604300	0.281953	0.835253
	H19	H	0.407067	0.280074	0.162177
	H20	H	0.722475	0.832715	0.402461
	H21	H	0.722961	0.159423	0.598478
	H22	H	0.291226	0.832795	0.599743
	H23	H	0.292435	0.158823	0.400888
	H24	H	0.908457	0.332525	0.214724
	H25	H	0.104383	0.658996	0.212761
	H26	H	0.104499	0.331809	0.785737
	H27	H	0.909695	0.658930	0.783992
	H28	H	0.222530	0.898157	0.335388
	H29	H	0.219782	0.092460	0.663215
	H30	H	0.792654	0.094433	0.335443
	H31	H	0.793204	0.897454	0.663223
	H32	H	0.343201	0.211275	0.899738
	H33	H	0.670269	0.209928	0.097148
	H34	H	0.343693	0.779701	0.099657
	H35	H	0.669790	0.780280	0.900701
	H36	H	0.343352	0.897497	0.214007
	H37	H	0.671133	0.091359	0.210664
	H38	H	0.342999	0.093478	0.785492
	H39	H	0.671141	0.898296	0.785849
	H40	H	0.908419	0.210102	0.334892
	H41	H	0.106504	0.210057	0.662076
	H42	H	0.106819	0.781600	0.334823
	H43	H	0.907799	0.780622	0.662598
	H44	H	0.222331	0.333242	0.900488
	H45	H	0.222198	0.658546	0.096987
	H46	H	0.790958	0.332289	0.099074
	H47	H	0.791112	0.658285	0.899296
	H48	H	0.415231	0.109322	0.589019
	H49	H	0.606941	0.878338	0.597117
	H50	H	0.606148	0.110756	0.414102
	H51	H	0.409005	0.880020	0.410367
	H52	H	0.599710	0.398066	0.117342
	H53	H	0.604192	0.587341	0.880971
	H54	H	0.417195	0.589120	0.114863
	H55	H	0.414439	0.408370	0.883806
	H56	H	0.122205	0.588366	0.402916
	H57	H	0.889771	0.590537	0.593946
	H58	H	0.126025	0.397581	0.595373
	H59	H	0.891797	0.399916	0.412459
	H60	H	0.122249	0.399939	0.586718
	H61	H	0.890046	0.590550	0.589254
	H62	H	0.122791	0.591303	0.406608
	H63	H	0.892094	0.408082	0.405218
	H64	H	0.412711	0.587189	0.115042
	H65	H	0.595236	0.585832	0.885098
	H66	H	0.602738	0.403598	0.116673
	H67	H	0.419295	0.399751	0.882914
	H68	H	0.606604	0.115429	0.396660
	H69	H	0.593374	0.881747	0.595937
	H70	H	0.409490	0.112161	0.592444
	H71	H	0.415119	0.878666	0.401577
	H72	H	0.913060	0.610364	0.090662
	H73	H	0.108335	0.377761	0.094009
	H74	H	0.099047	0.611902	0.901538
	H75	H	0.921005	0.379268	0.896656
	H76	H	0.100288	0.889386	0.619479
	H77	H	0.094076	0.090941	0.383591
	H78	H	0.922325	0.089344	0.613359
	H79	H	0.912257	0.913786	0.385245
	H80	H	0.624324	0.092243	0.905539
	H81	H	0.388346	0.091193	0.094635
	H82	H	0.622992	0.900638	0.089301
	H83	H	0.388536	0.903007	0.900992
	H84	H	0.621962	0.904307	0.090539
	H85	H	0.390860	0.090737	0.087091
	H86	H	0.621898	0.089526	0.908640
	H87	H	0.391047	0.897890	0.911636
	H88	H	0.912223	0.094086	0.618118
	H89	H	0.103900	0.092753	0.380193
	H90	H	0.109626	0.909494	0.615827
	H91	H	0.924499	0.900835	0.384863
	H92	H	0.098334	0.610405	0.907650
	H93	H	0.094674	0.379917	0.098276
	H94	H	0.914345	0.609871	0.090423
	H95	H	0.915366	0.383527	0.915219
	H96	H	0.416242	0.111634	0.596084
	H97	H	0.601801	0.882626	0.584668
	H98	H	0.591362	0.108995	0.404089
	H99	H	0.419469	0.882693	0.410335
	H100	H	0.596379	0.402754	0.114435
	H101	H	0.597511	0.594208	0.881050
	H102	H	0.416621	0.584259	0.113989
	H103	H	0.410193	0.400474	0.880168
	H104	H	0.121655	0.587008	0.407484
	H105	H	0.891107	0.586351	0.591486
	H106	H	0.122632	0.406274	0.593158
	H107	H	0.887383	0.398808	0.401963
	H108	H	0.913767	0.610236	0.089869
	H109	H	0.098164	0.382518	0.084385
	H110	H	0.103941	0.612043	0.905434
	H111	H	0.902321	0.375908	0.902509
	H112	H	0.088304	0.906459	0.610385
	H113	H	0.101116	0.082620	0.383938
	H114	H	0.912142	0.082623	0.614233
	H115	H	0.907741	0.897879	0.379027
	H116	H	0.623040	0.087999	0.904662
	H117	H	0.392525	0.084068	0.091863
	H118	H	0.623029	0.901845	0.093154
	H119	H	0.393795	0.908871	0.910182
	C120	C	0.385126	0.003587	0.621482
	C121	C	0.629189	0.988561	0.621225
	C122	C	0.629916	0.004059	0.377105
	C123	C	0.385868	0.987829	0.377920
	C124	C	0.627639	0.373953	0.007477
	C125	C	0.627849	0.616884	0.990647
	C126	C	0.386216	0.616276	0.007032
	C127	C	0.385435	0.374090	0.990329
	C128	C	0.014463	0.617460	0.376911
	C129	C	0.998417	0.616938	0.619637
	C130	C	0.015401	0.373626	0.620376
	C131	C	0.998693	0.374260	0.377616
	C132	C	0.884956	0.503034	0.120002
	C133	C	0.128834	0.487413	0.120576
	C134	C	0.128618	0.503800	0.876971
	C135	C	0.884530	0.487228	0.876035
	C136	C	0.128636	0.873799	0.506966
	C137	C	0.128679	0.116993	0.490707
	C138	C	0.886346	0.117206	0.507193
	C139	C	0.885838	0.874670	0.490932
	C140	C	0.514830	0.117928	0.877513
	C141	C	0.498445	0.116902	0.119925
	C142	C	0.515062	0.873214	0.120828
	C143	C	0.498904	0.874353	0.878248
	C144	C	0.387871	0.881037	0.677242
	C145	C	0.625632	0.111144	0.675424
	C146	C	0.626945	0.881435	0.322677
	C147	C	0.388248	0.110297	0.322202
	C148	C	0.681794	0.377502	0.883974
	C149	C	0.682783	0.613691	0.113866
	C150	C	0.330542	0.614999	0.884032
	C151	C	0.329830	0.376026	0.113431
	C152	C	0.892268	0.674176	0.377719
	C153	C	0.121288	0.672343	0.617597
	C154	C	0.892488	0.318338	0.618527
	C155	C	0.121390	0.318490	0.379463
	C156	C	0.892045	0.377355	0.674803
	C157	C	0.121508	0.614234	0.674595
	C158	C	0.891519	0.614898	0.321515
	C159	C	0.121599	0.377308	0.322659
	C160	C	0.387675	0.672664	0.884176
	C161	C	0.626213	0.672092	0.113673
	C162	C	0.624817	0.319576	0.884098
	C163	C	0.386762	0.318080	0.113435
	C164	C	0.684521	0.881366	0.381113
	C165	C	0.684560	0.110840	0.618679
	C166	C	0.329277	0.881261	0.620119
	C167	C	0.330156	0.110130	0.379877
	C168	C	0.887800	0.380856	0.176414
	C169	C	0.125656	0.610446	0.174985
	C170	C	0.125556	0.380805	0.822773
	C171	C	0.887960	0.610118	0.821354
	C172	C	0.184111	0.877446	0.383972
	C173	C	0.183038	0.113512	0.614055
	C174	C	0.830795	0.114505	0.384102
	C175	C	0.830768	0.876795	0.614222
	C176	C	0.392000	0.173239	0.879502
	C177	C	0.621404	0.172015	0.117530
	C178	C	0.392375	0.817731	0.119547
	C179	C	0.621497	0.818881	0.880196
	C180	C	0.392269	0.876232	0.176473
	C181	C	0.622030	0.113126	0.173981
	C182	C	0.391936	0.114884	0.822575
	C183	C	0.621989	0.877625	0.823323
	C184	C	0.887859	0.172422	0.383872
	C185	C	0.126542	0.171907	0.613513
	C186	C	0.126743	0.819516	0.383712
	C187	C	0.887472	0.818527	0.613742
	C188	C	0.183961	0.381316	0.879978
	C189	C	0.184091	0.610105	0.117511
	C190	C	0.829574	0.380716	0.118817
	C191	C	0.828789	0.609517	0.878392
	C192	C	0.407120	0.088906	0.598967
	C193	C	0.607114	0.902798	0.599191
	C194	C	0.607891	0.089602	0.398504
	C195	C	0.408099	0.902685	0.400657
	C196	C	0.606036	0.395157	0.093830
	C197	C	0.605533	0.595358	0.904582
	C198	C	0.408861	0.593350	0.092458
	C199	C	0.408191	0.396346	0.904599
	C200	C	0.100092	0.595247	0.399148
	C201	C	0.912552	0.595591	0.597895
	C202	C	0.101395	0.394951	0.598217
	C203	C	0.912586	0.395788	0.399981
	C204	C	0.907221	0.587993	0.097000
	C205	C	0.106832	0.402194	0.098733
	C206	C	0.106861	0.589299	0.898420
	C207	C	0.906372	0.401639	0.898345
	C208	C	0.106106	0.895487	0.593045
	C209	C	0.106382	0.095031	0.404683
	C210	C	0.908993	0.095301	0.593107
	C211	C	0.908342	0.897317	0.405140
	C212	C	0.600873	0.096185	0.899748
	C213	C	0.412403	0.094936	0.097846
	C214	C	0.600597	0.895522	0.097866
	C215	C	0.413060	0.896593	0.900964
	Zn216	Zn	0.507136	-0.003772	0.749934
	Zn217	Zn	0.507181	-0.004356	0.248417
	Zn218	Zn	0.755607	0.494908	-0.001097
	Zn219	Zn	0.257834	0.495766	-0.001624
	Zn220	Zn	0.006662	0.745629	0.498364
	Zn221	Zn	0.006943	0.245258	0.498792
	Zn222	Zn	0.007240	0.495587	0.748077
	Zn223	Zn	0.006491	0.495954	0.249045
	Zn224	Zn	0.506244	0.744931	-0.000726
	Zn225	Zn	0.506412	0.245758	-0.000942
	Zn226	Zn	0.758209	-0.003852	0.499464
	Zn227	Zn	0.256884	-0.004418	0.499588
	N228	N	0.421952	0.958003	0.678385
	N229	N	0.592098	0.034115	0.677164
	N230	N	0.593788	0.958758	0.319924
	N231	N	0.422159	0.033272	0.320836
	N232	N	0.683599	0.410650	0.961592
	N233	N	0.683940	0.580175	0.036360
	N234	N	0.329458	0.580892	0.961370
	N235	N	0.328676	0.409928	0.035899
	N236	N	0.969731	0.675982	0.411240
	N237	N	0.043708	0.674087	0.584084
	N238	N	0.970089	0.315931	0.585266
	N239	N	0.043848	0.316635	0.413073
	N240	N	0.969445	0.411049	0.675763
	N241	N	0.044391	0.580126	0.675715
	N242	N	0.968487	0.580370	0.321107
	N243	N	0.044408	0.411146	0.321592
	N244	N	0.421715	0.673453	0.961583
	N245	N	0.592788	0.674241	0.035922
	N246	N	0.592034	0.317282	0.962000
	N247	N	0.420855	0.317048	0.036032
	N248	N	0.686383	0.958561	0.414289
	N249	N	0.686773	0.033408	0.585639
	N250	N	0.327896	0.958272	0.585768
	N251	N	0.328794	0.033076	0.413982
	N252	N	0.921607	0.457841	0.177116
	N253	N	0.092116	0.533502	0.177096
	N254	N	0.091967	0.457882	0.820778
	N255	N	0.921637	0.533037	0.819764
	N256	N	0.185471	0.910492	0.461694
	N257	N	0.184548	0.080286	0.536437
	N258	N	0.829695	0.081031	0.461842
	N259	N	0.829681	0.910975	0.536832
	N260	N	0.469565	0.175216	0.912917
	N261	N	0.543495	0.174421	0.084782
	N262	N	0.469822	0.815822	0.085622
	N263	N	0.543868	0.816736	0.913523
	N264	N	0.469540	0.909998	0.177288
	N265	N	0.544564	0.079709	0.175579
	N266	N	0.469307	0.081084	0.821490
	N267	N	0.544616	0.911358	0.822150
	N268	N	0.921745	0.173939	0.461247
	N269	N	0.093368	0.174200	0.535801
	N270	N	0.092837	0.817354	0.461155
	N271	N	0.921151	0.817255	0.536127
	N272	N	0.186004	0.458664	0.912932
	N273	N	0.186360	0.532613	0.084596
	N274	N	0.827649	0.457516	0.084384
	N275	N	0.826782	0.532217	0.911967
	O276	O	0.485653	0.533496	0.508637
	H277	H	0.486906	0.540514	0.506796
	H278	H	0.474412	0.537221	0.514844
	O279	O	-0.071215	-0.033514	0.025197
	H280	H	-0.065814	-0.027573	0.021040
	H281	H	-0.071870	-0.031473	0.032868
	O282	O	0.484237	0.527390	0.510348
	H283	H	0.493471	0.521095	0.519595
	H284	H	0.483962	0.532179	0.512432
	O285	O	0.389999	0.523558	0.447397
	H286	H	0.404470	0.522468	0.449202
	H287	H	0.387035	0.523039	0.428261
	O288	O	1.469872	0.492748	0.495714
	H289	H	1.466208	0.490425	0.490842
	H290	H	1.461531	0.492272	0.497566
	O291	O	-0.566718	0.508497	-0.537791
	H292	H	-0.565975	0.512346	-0.536123
	H293	H	-0.570064	0.515943	-0.536783
	O294	O	-0.103053	0.960401	0.056418
	H295	H	-0.111026	0.961110	0.063380
	H296	H	-0.112293	0.955776	0.045183
	O297	O	-0.071653	0.982531	0.055746
	H298	H	-0.070302	0.971976	0.065468
	H299	H	-0.083144	0.995031	0.061424
	O300	O	0.903608	-0.005076	1.036575
	H301	H	0.906307	-0.008667	1.036687
	H302	H	0.906448	-0.005314	1.030919
	O303	O	0.446933	0.523676	0.525614
	H304	H	0.429614	0.524341	0.531051
	H305	H	0.450930	0.522051	0.531738
	O306	O	0.516173	1.506960	1.489936
	H307	H	0.524793	1.508821	1.500270
	H308	H	0.517689	1.503705	1.479538
	O309	O	0.428003	0.515838	0.505210
	H310	H	0.416005	0.518693	0.503000
	H311	H	0.428515	0.511386	0.496969
