data_Molecule from HDF5

_cell_length_a		16.145727
_cell_length_b		16.405669
_cell_length_c		16.240376
_cell_angle_alpha	90.056693
_cell_angle_beta	90.368359
_cell_angle_gamma	90.080400
_symmetry_space_group_name_H-M	'P 1'
_symmetry_Int_Tables_number		1

loop_
	_symmetry_equiv_pos_as_xyz
	x,y,z

loop_
	_atom_site_label
	_atom_site_type_symbol
	_atom_site_fract_x
	_atom_site_fract_y
	_atom_site_fract_z
	H0	H	0.398094	0.833134	0.713337
	H1	H	0.602528	0.156420	0.715657
	H2	H	0.598104	0.833171	0.282217
	H3	H	0.399364	0.158066	0.281573
	H4	H	0.711437	0.399877	0.834177
	H5	H	0.714463	0.593524	0.163747
	H6	H	0.284666	0.592556	0.835262
	H7	H	0.288563	0.397042	0.164242
	H8	H	0.836162	0.709720	0.398565
	H9	H	0.164011	0.712819	0.602677
	H10	H	0.836191	0.277882	0.600149
	H11	H	0.164233	0.279739	0.400818
	H12	H	0.834070	0.398512	0.710608
	H13	H	0.164360	0.594384	0.715879
	H14	H	0.835205	0.592284	0.286095
	H15	H	0.165323	0.397149	0.287493
	H16	H	0.395977	0.712154	0.836791
	H17	H	0.603148	0.713159	0.161253
	H18	H	0.600636	0.279250	0.835970
	H19	H	0.401191	0.278172	0.162432
	H20	H	0.714090	0.832338	0.398037
	H21	H	0.716187	0.156653	0.598091
	H22	H	0.286050	0.832220	0.593437
	H23	H	0.283245	0.158712	0.398241
	H24	H	0.899760	0.333619	0.215481
	H25	H	0.102457	0.657777	0.217792
	H26	H	0.099110	0.333076	0.783829
	H27	H	0.897930	0.657835	0.781121
	H28	H	0.210134	0.898290	0.333509
	H29	H	0.215559	0.093836	0.662279
	H30	H	0.784897	0.091591	0.334107
	H31	H	0.785707	0.895352	0.662270
	H32	H	0.335666	0.211467	0.895596
	H33	H	0.664838	0.210288	0.100037
	H34	H	0.336427	0.779195	0.097913
	H35	H	0.663987	0.778562	0.897487
	H36	H	0.334111	0.897568	0.208898
	H37	H	0.664327	0.095279	0.214386
	H38	H	0.334293	0.091553	0.783684
	H39	H	0.664134	0.895743	0.783817
	H40	H	0.896142	0.212486	0.336221
	H41	H	0.104117	0.211110	0.661861
	H42	H	0.100900	0.777662	0.336751
	H43	H	0.899787	0.778598	0.661920
	H44	H	0.213592	0.332884	0.902000
	H45	H	0.218946	0.657561	0.101570
	H46	H	0.786384	0.333156	0.095762
	H47	H	0.785330	0.659815	0.900525
	H48	H	0.409841	0.108587	0.584681
	H49	H	0.590241	0.880568	0.588299
	H50	H	0.591937	0.110625	0.403931
	H51	H	0.412431	0.882227	0.403460
	H52	H	0.593293	0.392305	0.118081
	H53	H	0.584003	0.597054	0.881950
	H54	H	0.420154	0.595183	0.114318
	H55	H	0.413256	0.397657	0.884036
	H56	H	0.118691	0.593528	0.411336
	H57	H	0.887658	0.582546	0.580024
	H58	H	0.117387	0.404952	0.594833
	H59	H	0.881743	0.400221	0.407596
	H60	H	0.118992	0.398967	0.594470
	H61	H	0.882784	0.580648	0.597991
	H62	H	0.116162	0.584087	0.412546
	H63	H	0.883952	0.402665	0.409208
	H64	H	0.401152	0.592758	0.120438
	H65	H	0.602201	0.589261	0.879154
	H66	H	0.601382	0.407328	0.116490
	H67	H	0.400978	0.399986	0.880076
	H68	H	0.589472	0.108946	0.407619
	H69	H	0.596776	0.878159	0.592017
	H70	H	0.402108	0.112688	0.592261
	H71	H	0.399283	0.881474	0.408742
	H72	H	0.902124	0.613213	0.093212
	H73	H	0.093688	0.380713	0.094930
	H74	H	0.091711	0.609085	0.910975
	H75	H	0.905412	0.382687	0.910088
	H76	H	0.093447	0.895793	0.618041
	H77	H	0.088378	0.086051	0.382594
	H78	H	0.908885	0.081598	0.613471
	H79	H	0.915379	0.898787	0.384458
	H80	H	0.616122	0.083245	0.901613
	H81	H	0.381603	0.092226	0.087952
	H82	H	0.614806	0.903948	0.082138
	H83	H	0.388749	0.910097	0.915121
	H84	H	0.616919	0.909555	0.096099
	H85	H	0.384270	0.086367	0.084995
	H86	H	0.619356	0.095539	0.906203
	H87	H	0.380721	0.906635	0.894306
	H88	H	0.914338	0.088792	0.613273
	H89	H	0.088145	0.092451	0.381336
	H90	H	0.098170	0.907607	0.616653
	H91	H	0.902259	0.894873	0.378213
	H92	H	0.094718	0.611937	0.906607
	H93	H	0.092556	0.381090	0.094243
	H94	H	0.912675	0.611863	0.099018
	H95	H	0.903118	0.379782	0.902368
	H96	H	0.412551	0.110101	0.595314
	H97	H	0.590504	0.877854	0.595901
	H98	H	0.594207	0.110637	0.408084
	H99	H	0.401979	0.877249	0.395782
	H100	H	0.584635	0.405937	0.112308
	H101	H	0.586828	0.578545	0.886351
	H102	H	0.411722	0.577283	0.113004
	H103	H	0.408300	0.409285	0.885719
	H104	H	0.119104	0.586886	0.403396
	H105	H	0.880788	0.597586	0.588773
	H106	H	0.116497	0.401685	0.589712
	H107	H	0.881888	0.403168	0.406447
	H108	H	0.911620	0.609298	0.086852
	H109	H	0.093337	0.380781	0.093286
	H110	H	0.088905	0.610293	0.906222
	H111	H	0.910548	0.381275	0.903365
	H112	H	0.086114	0.905422	0.612811
	H113	H	0.093802	0.089707	0.380536
	H114	H	0.905247	0.090472	0.617004
	H115	H	0.904346	0.909282	0.383091
	H116	H	0.613813	0.086794	0.914617
	H117	H	0.382905	0.086276	0.091590
	H118	H	0.620294	0.895855	0.093612
	H119	H	0.380148	0.889733	0.909345
	C120	C	0.378570	0.003337	0.618957
	C121	C	0.622240	0.985943	0.621066
	C122	C	0.620437	0.002999	0.377045
	C123	C	0.376011	0.987585	0.374317
	C124	C	0.622076	0.373563	0.007502
	C125	C	0.621560	0.617480	0.990496
	C126	C	0.379503	0.616832	0.007880
	C127	C	0.379064	0.372832	0.991082
	C128	C	0.009109	0.616618	0.378855
	C129	C	0.991637	0.616906	0.620337
	C130	C	0.008635	0.373236	0.621442
	C131	C	0.991695	0.373768	0.379340
	C132	C	0.879155	0.504235	0.121322
	C133	C	0.123484	0.487791	0.123448
	C134	C	0.120907	0.503430	0.878487
	C135	C	0.877065	0.488417	0.876295
	C136	C	0.121112	0.873927	0.507458
	C137	C	0.121083	0.117252	0.489991
	C138	C	0.878520	0.115979	0.506950
	C139	C	0.878218	0.872279	0.490036
	C140	C	0.508046	0.116877	0.876956
	C141	C	0.491708	0.117262	0.118940
	C142	C	0.508454	0.874509	0.118989
	C143	C	0.491405	0.873215	0.876875
	C144	C	0.379480	0.881428	0.674646
	C145	C	0.621616	0.108061	0.676930
	C146	C	0.618273	0.881244	0.320610
	C147	C	0.378512	0.109629	0.319342
	C148	C	0.675722	0.377470	0.883910
	C149	C	0.677305	0.614553	0.114120
	C150	C	0.322471	0.613490	0.884517
	C151	C	0.325298	0.375804	0.114857
	C152	C	0.885261	0.671833	0.379070
	C153	C	0.115121	0.673556	0.621310
	C154	C	0.884923	0.317103	0.619447
	C155	C	0.115411	0.318127	0.381007
	C156	C	0.883851	0.376855	0.674362
	C157	C	0.115210	0.615228	0.677954
	C158	C	0.884776	0.613513	0.323247
	C159	C	0.115883	0.376667	0.324941
	C160	C	0.377862	0.672924	0.885126
	C161	C	0.622197	0.674087	0.113051
	C162	C	0.620464	0.317775	0.884571
	C163	C	0.381235	0.316630	0.113936
	C164	C	0.676035	0.880842	0.378240
	C165	C	0.678449	0.108024	0.618600
	C166	C	0.323092	0.881098	0.615369
	C167	C	0.320673	0.109832	0.377225
	C168	C	0.880257	0.382083	0.176940
	C169	C	0.122748	0.609224	0.179902
	C170	C	0.118675	0.381547	0.822670
	C171	C	0.878701	0.610006	0.820211
	C172	C	0.174047	0.877125	0.383223
	C173	C	0.177746	0.114213	0.613223
	C174	C	0.822293	0.112996	0.383530
	C175	C	0.823054	0.874621	0.613184
	C176	C	0.384570	0.172876	0.876807
	C177	C	0.615389	0.172503	0.119174
	C178	C	0.385148	0.818036	0.117374
	C179	C	0.614882	0.816792	0.877963
	C180	C	0.384127	0.877059	0.172779
	C181	C	0.615086	0.115234	0.176276
	C182	C	0.383913	0.113475	0.820827
	C183	C	0.615081	0.875284	0.821518
	C184	C	0.877542	0.173332	0.384710
	C185	C	0.122140	0.172596	0.613010
	C186	C	0.120040	0.817024	0.384955
	C187	C	0.879796	0.816425	0.613063
	C188	C	0.175806	0.381262	0.881368
	C189	C	0.180333	0.609138	0.121646
	C190	C	0.823824	0.381751	0.117456
	C191	C	0.822451	0.610687	0.879721
	C192	C	0.401513	0.088423	0.597212
	C193	C	0.599145	0.900920	0.598747
	C194	C	0.598171	0.088050	0.399866
	C195	C	0.398086	0.902417	0.396228
	C196	C	0.599650	0.395547	0.093337
	C197	C	0.597870	0.594820	0.904630
	C198	C	0.403878	0.594899	0.093718
	C199	C	0.401032	0.395468	0.905512
	C200	C	0.095619	0.594653	0.402335
	C201	C	0.905959	0.593627	0.595998
	C202	C	0.095118	0.395417	0.599539
	C203	C	0.905182	0.395539	0.401353
	C204	C	0.902108	0.589274	0.099520
	C205	C	0.100057	0.402726	0.100901
	C206	C	0.098396	0.588562	0.901132
	C207	C	0.899714	0.403279	0.898543
	C208	C	0.099053	0.896337	0.593242
	C209	C	0.097237	0.095555	0.403673
	C210	C	0.902437	0.093636	0.592588
	C211	C	0.900692	0.894517	0.404159
	C212	C	0.594234	0.094973	0.900452
	C213	C	0.405198	0.094835	0.095045
	C214	C	0.594964	0.896683	0.097046
	C215	C	0.405426	0.895474	0.899516
	Zn216	Zn	0.499562	-0.005140	0.749293
	Zn217	Zn	0.499512	-0.004278	0.246339
	Zn218	Zn	0.749271	0.496432	-0.000787
	Zn219	Zn	0.251206	0.495289	-0.000089
	Zn220	Zn	0.000293	0.745037	0.498823
	Zn221	Zn	0.000225	0.245015	0.499851
	Zn222	Zn	-0.000330	0.495566	0.748156
	Zn223	Zn	0.000614	0.495493	0.251965
	Zn224	Zn	0.500645	0.745424	-0.001316
	Zn225	Zn	0.500695	0.245068	-0.001374
	Zn226	Zn	0.750293	-0.006093	0.498412
	Zn227	Zn	0.248560	-0.003973	0.497790
	N228	N	0.413141	0.958615	0.677120
	N229	N	0.587554	0.031247	0.678838
	N230	N	0.584408	0.958187	0.319718
	N231	N	0.412228	0.032829	0.317412
	N232	N	0.676757	0.411560	0.961252
	N233	N	0.676819	0.580023	0.036799
	N234	N	0.323412	0.579324	0.961930
	N235	N	0.323678	0.410111	0.037672
	N236	N	0.963673	0.673914	0.412818
	N237	N	0.037305	0.674881	0.586286
	N238	N	0.963589	0.314643	0.587323
	N239	N	0.037160	0.316007	0.413998
	N240	N	0.961659	0.410891	0.675823
	N241	N	0.037527	0.580637	0.677378
	N242	N	0.962684	0.579693	0.323286
	N243	N	0.037776	0.410345	0.323540
	N244	N	0.412665	0.675160	0.962699
	N245	N	0.588567	0.676086	0.035050
	N246	N	0.588163	0.314843	0.962594
	N247	N	0.413750	0.314609	0.035905
	N248	N	0.677350	0.957468	0.412746
	N249	N	0.679156	0.031161	0.584615
	N250	N	0.322652	0.957588	0.581152
	N251	N	0.318875	0.032787	0.410764
	N252	N	0.913969	0.459013	0.179425
	N253	N	0.087639	0.532733	0.180793
	N254	N	0.085421	0.458771	0.820675
	N255	N	0.911936	0.532883	0.818040
	N256	N	0.175062	0.911877	0.460385
	N257	N	0.177056	0.080358	0.535645
	N258	N	0.822664	0.078168	0.460521
	N259	N	0.821959	0.908465	0.535812
	N260	N	0.462901	0.175128	0.910801
	N261	N	0.537464	0.173699	0.084291
	N262	N	0.463583	0.816105	0.084860
	N263	N	0.537022	0.815647	0.911978
	N264	N	0.461808	0.911613	0.173833
	N265	N	0.536992	0.081546	0.176047
	N266	N	0.461689	0.079321	0.820949
	N267	N	0.537500	0.909572	0.820788
	N268	N	0.912162	0.175049	0.462367
	N269	N	0.087346	0.174340	0.535448
	N270	N	0.087829	0.814716	0.463180
	N271	N	0.913286	0.814585	0.535402
	N272	N	0.177220	0.457967	0.915480
	N273	N	0.180975	0.532565	0.087345
	N274	N	0.822786	0.458762	0.083728
	N275	N	0.821297	0.533967	0.913663
	O276	O	0.615289	0.339611	0.606349
	H277	H	0.622473	0.337468	0.616285
	H278	H	0.621444	0.338924	0.597995
	O279	O	0.438639	0.585880	0.421377
	H280	H	0.435250	0.590306	0.426453
	H281	H	0.440430	0.579282	0.424619
	O282	O	1.006762	1.009919	0.023246
	H283	H	0.995484	1.015385	0.014580
	H284	H	1.008049	1.004606	0.024882
	O285	O	0.946722	0.087250	0.977519
	H286	H	0.924265	0.084897	0.966363
	H287	H	0.952629	0.086289	0.957641
	O288	O	0.382130	0.509615	0.494112
	H289	H	0.380460	0.512191	0.501180
	H290	H	0.378219	0.521217	0.500479
	O291	O	0.528889	0.565739	0.455775
	H292	H	0.529641	0.568477	0.449775
	H293	H	0.536302	0.572663	0.456910
	O294	O	0.570318	0.535664	0.505834
	H295	H	0.574623	0.533522	0.506891
	H296	H	0.565143	0.534490	0.503658
	O297	O	-0.039276	0.013881	0.933182
	H298	H	-0.043978	0.032469	0.925702
	H299	H	-0.026402	0.010506	0.926943
	O300	O	0.058632	1.016145	0.010534
	H301	H	0.059339	1.025144	0.009466
	H302	H	0.057941	1.017081	0.015229
	O303	O	1.009425	1.031137	0.040811
	H304	H	1.000085	1.013446	0.034436
	H305	H	1.009637	1.027297	0.047732
	O306	O	0.035618	0.940557	0.989158
	H307	H	0.046482	0.938511	1.001134
	H308	H	0.028021	0.947173	0.994842
	O309	O	0.518959	0.477284	0.430486
	H310	H	0.513691	0.480924	0.427310
	H311	H	0.518244	0.467297	0.428871
	O312	O	0.025915	0.050887	-0.107898
	H313	H	0.029835	0.048544	-0.102272
	H314	H	0.026122	0.045436	-0.090248
	O315	O	1.019041	-0.058294	-0.049694
	H316	H	1.028039	-0.066836	-0.048398
	H317	H	1.028797	-0.063205	-0.061964
	O318	O	1.063046	1.019675	1.116212
	H319	H	1.060621	1.017122	1.123603
	H320	H	1.055218	1.029689	1.122012
	O321	O	0.469530	0.555024	1.463661
	H322	H	0.459682	0.564436	1.453656
	H323	H	0.476032	0.556329	1.470498
	O324	O	0.549855	0.428337	0.527817
	H325	H	0.557739	0.411005	0.525761
	H326	H	0.550403	0.437329	0.536916
	O327	O	-0.061781	-0.007136	0.006442
	H328	H	-0.066089	0.000701	0.007996
	H329	H	-0.059823	-0.010759	0.004621
	O330	O	0.503299	0.464468	0.556920
	H331	H	0.507930	0.467920	0.555289
	H332	H	0.497202	0.469763	0.558944
	O333	O	0.043017	1.003244	0.995096
	H334	H	0.040095	1.011010	1.006331
	H335	H	0.051903	1.005439	0.991956
	O336	O	0.001406	-0.007402	-0.143383
	H337	H	-0.001961	-0.017096	-0.146772
	H338	H	0.017835	-0.006280	-0.145666
	O339	O	0.402206	0.498316	0.534630
	H340	H	0.404708	0.497548	0.530415
	H341	H	0.414678	0.504547	0.539198
	O342	O	1.065229	0.987684	0.963170
	H343	H	1.066982	0.982588	0.954519
	H344	H	1.057348	0.979517	0.954431
	O345	O	0.972125	0.955436	0.062768
	H346	H	0.975657	0.968949	0.067669
	H347	H	0.980361	0.961656	0.059530
	O348	O	0.567494	0.578266	0.449976
	H349	H	0.572579	0.577610	0.441054
	H350	H	0.570144	0.567193	0.440110
	O351	O	0.504915	0.429985	0.526014
	H352	H	0.507407	0.421917	0.528938
	H353	H	0.501243	0.427206	0.530341
	O354	O	0.444139	0.466091	0.484304
	H355	H	0.442069	0.473640	0.479437
	H356	H	0.434160	0.457885	0.495143
	O357	O	1.032936	-0.029839	1.015338
	H358	H	1.031800	-0.033477	1.016941
	H359	H	1.045165	-0.023355	1.022554
	O360	O	0.511798	0.420009	0.556053
	H361	H	0.504756	0.416815	0.559640
	H362	H	0.510563	0.427222	0.558967
	O363	O	0.525904	0.610688	0.562384
	H364	H	0.538380	0.614643	0.557424
	H365	H	0.532650	0.618142	0.577793
	O366	O	0.869063	1.041927	0.979384
	H367	H	0.854356	1.034066	0.972474
	H368	H	0.877408	1.044848	0.971409
	O369	O	0.946851	0.019180	1.023434
	H370	H	0.942563	0.023141	1.016996
	H371	H	0.945829	0.028684	1.036569
	O372	O	0.009428	-0.012715	0.020261
	H373	H	0.006817	0.001324	0.021638
	H374	H	-0.001270	-0.023760	0.017647
	O375	O	1.040236	-0.112884	0.060618
	H376	H	1.037779	-0.104852	0.059966
	H377	H	1.035046	-0.119126	0.064307
	O378	O	0.435786	0.470873	0.534823
	H379	H	0.423336	0.471231	0.532433
	H380	H	0.437542	0.484294	0.527093
	O381	O	0.591101	0.456951	0.553385
	H382	H	0.584138	0.443277	0.554702
	H383	H	0.586321	0.455672	0.552309
