data_Molecule from HDF5

_cell_length_a		16.724943
_cell_length_b		16.639477
_cell_length_c		16.597135
_cell_angle_alpha	90.105552
_cell_angle_beta	90.168755
_cell_angle_gamma	90.119781
_symmetry_space_group_name_H-M	'P 1'
_symmetry_Int_Tables_number		1

loop_
	_symmetry_equiv_pos_as_xyz
	x,y,z

loop_
	_atom_site_label
	_atom_site_type_symbol
	_atom_site_fract_x
	_atom_site_fract_y
	_atom_site_fract_z
	H0	H	0.389474	0.845540	0.718347
	H1	H	0.609912	0.150723	0.714640
	H2	H	0.605003	0.841276	0.270435
	H3	H	0.398362	0.152352	0.270676
	H4	H	0.725810	0.388469	0.836119
	H5	H	0.726930	0.605120	0.144491
	H6	H	0.281387	0.601308	0.835987
	H7	H	0.287056	0.395245	0.148666
	H8	H	0.848050	0.718571	0.384267
	H9	H	0.157780	0.717452	0.594327
	H10	H	0.850107	0.272168	0.599527
	H11	H	0.149784	0.266606	0.377316
	H12	H	0.849768	0.389478	0.714846
	H13	H	0.159394	0.600057	0.708984
	H14	H	0.847079	0.600937	0.269689
	H15	H	0.152420	0.385928	0.264838
	H16	H	0.398160	0.715890	0.835315
	H17	H	0.609997	0.720085	0.144487
	H18	H	0.610750	0.272442	0.837266
	H19	H	0.404165	0.281144	0.149592
	H20	H	0.722995	0.841780	0.385061
	H21	H	0.727002	0.149841	0.600639
	H22	H	0.274111	0.846044	0.601919
	H23	H	0.279493	0.151265	0.382996
	H24	H	0.897228	0.342516	0.212676
	H25	H	0.107781	0.651583	0.212407
	H26	H	0.106403	0.341712	0.769919
	H27	H	0.899828	0.653266	0.771148
	H28	H	0.222577	0.891920	0.336257
	H29	H	0.233042	0.114648	0.638886
	H30	H	0.777001	0.104594	0.337471
	H31	H	0.779601	0.889646	0.646147
	H32	H	0.350206	0.219098	0.884822
	H33	H	0.659608	0.214642	0.094097
	H34	H	0.348681	0.772561	0.097717
	H35	H	0.652029	0.766713	0.876644
	H36	H	0.348478	0.888896	0.213055
	H37	H	0.658567	0.098263	0.210418
	H38	H	0.351968	0.106471	0.765525
	H39	H	0.653279	0.884040	0.762516
	H40	H	0.889941	0.222924	0.338644
	H41	H	0.112296	0.224175	0.642405
	H42	H	0.106527	0.776643	0.336438
	H43	H	0.898073	0.777302	0.647607
	H44	H	0.222034	0.340183	0.886581
	H45	H	0.225813	0.650419	0.098398
	H46	H	0.780399	0.342879	0.097418
	H47	H	0.782351	0.651575	0.885609
	H48	H	0.417869	0.105369	0.574346
	H49	H	0.593745	0.881826	0.584124
	H50	H	0.590216	0.108356	0.402943
	H51	H	0.408911	0.884339	0.401667
	H52	H	0.595447	0.406602	0.104617
	H53	H	0.579571	0.586594	0.881666
	H54	H	0.417008	0.591830	0.104191
	H55	H	0.404015	0.413367	0.878468
	H56	H	0.113250	0.589060	0.401503
	H57	H	0.888283	0.592656	0.584730
	H58	H	0.110899	0.410786	0.577467
	H59	H	0.888168	0.403355	0.399856
	H60	H	0.112405	0.410387	0.577690
	H61	H	0.892224	0.588730	0.575895
	H62	H	0.112150	0.587193	0.403411
	H63	H	0.895463	0.410072	0.414635
	H64	H	0.407711	0.582913	0.104844
	H65	H	0.598917	0.587489	0.875733
	H66	H	0.593980	0.411445	0.101422
	H67	H	0.422096	0.408457	0.882448
	H68	H	0.594866	0.109345	0.403112
	H69	H	0.580217	0.888938	0.578028
	H70	H	0.416415	0.106204	0.576804
	H71	H	0.414756	0.886022	0.399926
	H72	H	0.917946	0.607415	0.078889
	H73	H	0.091591	0.387597	0.072584
	H74	H	0.091894	0.608315	0.899402
	H75	H	0.911152	0.384642	0.903111
	H76	H	0.088778	0.915100	0.600286
	H77	H	0.088469	0.071078	0.384525
	H78	H	0.915627	0.073880	0.597977
	H79	H	0.912377	0.908107	0.378887
	H80	H	0.611109	0.081848	0.908016
	H81	H	0.390844	0.087197	0.080802
	H82	H	0.611413	0.911795	0.080006
	H83	H	0.396491	0.904332	0.915343
	H84	H	0.614243	0.907246	0.081537
	H85	H	0.389471	0.089658	0.085549
	H86	H	0.613835	0.081406	0.900457
	H87	H	0.399647	0.921550	0.907128
	H88	H	0.924078	0.086753	0.599849
	H89	H	0.077316	0.085182	0.383635
	H90	H	0.087317	0.905491	0.603664
	H91	H	0.911311	0.906266	0.379106
	H92	H	0.095943	0.608672	0.904987
	H93	H	0.100078	0.381608	0.081317
	H94	H	0.912667	0.608112	0.076798
	H95	H	0.916239	0.385164	0.899394
	H96	H	0.419575	0.105542	0.577327
	H97	H	0.593745	0.887907	0.568799
	H98	H	0.592594	0.109586	0.398882
	H99	H	0.412810	0.887838	0.406287
	H100	H	0.590212	0.407200	0.101581
	H101	H	0.591594	0.570594	0.884003
	H102	H	0.419252	0.580400	0.099805
	H103	H	0.410637	0.395904	0.874359
	H104	H	0.112884	0.585858	0.400406
	H105	H	0.891609	0.582612	0.584204
	H106	H	0.111482	0.409997	0.576487
	H107	H	0.893651	0.419775	0.399685
	H108	H	0.913479	0.608764	0.082023
	H109	H	0.086978	0.383914	0.085013
	H110	H	0.097843	0.611373	0.899548
	H111	H	0.916445	0.387019	0.905756
	H112	H	0.096562	0.909647	0.605115
	H113	H	0.093533	0.086528	0.376452
	H114	H	0.909124	0.086570	0.604617
	H115	H	0.910175	0.908080	0.379212
	H116	H	0.615182	0.088318	0.904794
	H117	H	0.390256	0.092571	0.080660
	H118	H	0.611779	0.907152	0.076383
	H119	H	0.390575	0.908077	0.897388
	C120	C	0.381357	0.005857	0.611913
	C121	C	0.623414	0.988005	0.611821
	C122	C	0.623512	0.005800	0.370063
	C123	C	0.380526	0.988741	0.369409
	C124	C	0.625471	0.375299	-0.000023
	C125	C	0.623916	0.617018	0.981953
	C126	C	0.381831	0.617037	-0.000054
	C127	C	0.382651	0.375226	0.982548
	C128	C	0.010618	0.619077	0.369178
	C129	C	0.993858	0.618903	0.612340
	C130	C	0.010749	0.376432	0.611512
	C131	C	0.992527	0.375794	0.369535
	C132	C	0.881951	0.505479	0.111811
	C133	C	0.124578	0.487050	0.112739
	C134	C	0.125866	0.505995	0.869381
	C135	C	0.882767	0.488450	0.870175
	C136	C	0.123112	0.877251	0.500198
	C137	C	0.122838	0.118374	0.481289
	C138	C	0.881389	0.116695	0.499408
	C139	C	0.879887	0.875311	0.482254
	C140	C	0.512161	0.117745	0.870660
	C141	C	0.493998	0.118816	0.113005
	C142	C	0.510727	0.875120	0.112203
	C143	C	0.494597	0.875280	0.869688
	C144	C	0.373610	0.891519	0.676397
	C145	C	0.627599	0.103867	0.674152
	C146	C	0.624355	0.888150	0.310265
	C147	C	0.379100	0.105406	0.309480
	C148	C	0.685664	0.371278	0.883056
	C149	C	0.685983	0.622220	0.098011
	C150	C	0.321709	0.619247	0.882691
	C151	C	0.325854	0.375711	0.101378
	C152	C	0.894637	0.678785	0.366087
	C153	C	0.111167	0.677717	0.613006
	C154	C	0.895968	0.313604	0.616744
	C155	C	0.105357	0.309904	0.361847
	C156	C	0.896088	0.371883	0.674261
	C157	C	0.111920	0.619364	0.670052
	C158	C	0.894168	0.620329	0.308904
	C159	C	0.106678	0.369163	0.305914
	C160	C	0.379853	0.676253	0.882404
	C161	C	0.628045	0.679374	0.098074
	C162	C	0.628287	0.313543	0.883474
	C163	C	0.383969	0.318913	0.101623
	C164	C	0.682806	0.888333	0.367222
	C165	C	0.685909	0.103551	0.617378
	C166	C	0.316150	0.891819	0.618401
	C167	C	0.320131	0.104745	0.365479
	C168	C	0.879041	0.388900	0.172451
	C169	C	0.126594	0.604479	0.172848
	C170	C	0.125567	0.388475	0.809982
	C171	C	0.881158	0.605981	0.810770
	C172	C	0.182566	0.874318	0.383094
	C173	C	0.189166	0.128364	0.594391
	C174	C	0.817888	0.122043	0.383975
	C175	C	0.820055	0.872092	0.599548
	C176	C	0.396694	0.179139	0.866865
	C177	C	0.612322	0.175575	0.113277
	C178	C	0.395153	0.813366	0.115220
	C179	C	0.607277	0.809602	0.861314
	C180	C	0.395040	0.871413	0.172837
	C181	C	0.611982	0.117709	0.170889
	C182	C	0.397295	0.122518	0.807949
	C183	C	0.607630	0.867834	0.804281
	C184	C	0.874662	0.180423	0.384325
	C185	C	0.129414	0.183311	0.595866
	C186	C	0.124747	0.816986	0.383198
	C187	C	0.879134	0.816313	0.600189
	C188	C	0.183076	0.387865	0.867913
	C189	C	0.184951	0.604093	0.116074
	C190	C	0.821081	0.389208	0.115079
	C191	C	0.822706	0.605396	0.867429
	C192	C	0.409868	0.085027	0.584171
	C193	C	0.596672	0.907347	0.584633
	C194	C	0.599547	0.087592	0.394786
	C195	C	0.405230	0.907215	0.395339
	C196	C	0.600280	0.401276	0.081422
	C197	C	0.597442	0.589532	0.901349
	C198	C	0.407203	0.592038	0.081604
	C199	C	0.405710	0.399075	0.900080
	C200	C	0.091932	0.594308	0.394648
	C201	C	0.912021	0.594928	0.588466
	C202	C	0.090724	0.403060	0.584778
	C203	C	0.913111	0.403292	0.396936
	C204	C	0.907399	0.586795	0.086452
	C205	C	0.100016	0.405840	0.087099
	C206	C	0.102031	0.588148	0.894233
	C207	C	0.907340	0.407004	0.895476
	C208	C	0.098273	0.902958	0.581758
	C209	C	0.094514	0.089103	0.402163
	C210	C	0.908437	0.089948	0.579959
	C211	C	0.904171	0.900357	0.400443
	C212	C	0.592492	0.091415	0.897035
	C213	C	0.411740	0.096098	0.089115
	C214	C	0.591517	0.901313	0.086484
	C215	C	0.416023	0.903558	0.898479
	Zn216	Zn	0.502821	-0.003900	0.741196
	Zn217	Zn	0.501881	-0.002929	0.240946
	Zn218	Zn	0.753330	0.496816	-0.009669
	Zn219	Zn	0.253322	0.495677	-0.008130
	Zn220	Zn	0.001769	0.748246	0.491209
	Zn221	Zn	0.001232	0.246454	0.490334
	Zn222	Zn	0.003386	0.497765	0.741510
	Zn223	Zn	0.002476	0.497119	0.240655
	Zn224	Zn	0.502926	0.745721	-0.009460
	Zn225	Zn	0.503802	0.247238	-0.008298
	Zn226	Zn	0.751792	-0.003750	0.491373
	Zn227	Zn	0.252003	-0.001638	0.490622
	N228	N	0.413521	0.963414	0.672775
	N229	N	0.589472	0.030732	0.671029
	N230	N	0.588099	0.962155	0.311668
	N231	N	0.415554	0.031775	0.311221
	N232	N	0.684087	0.409101	0.956565
	N233	N	0.683664	0.584186	0.024582
	N234	N	0.322328	0.583392	0.957060
	N235	N	0.324532	0.410007	0.026230
	N236	N	0.968207	0.678348	0.402843
	N237	N	0.036705	0.677885	0.577899
	N238	N	0.968489	0.316054	0.578540
	N239	N	0.033405	0.313759	0.400906
	N240	N	0.968576	0.410423	0.671102
	N241	N	0.037958	0.583549	0.670108
	N242	N	0.967642	0.584008	0.310436
	N243	N	0.035522	0.409524	0.310350
	N244	N	0.416567	0.675096	0.956430
	N245	N	0.590365	0.676689	0.024675
	N246	N	0.591501	0.315723	0.957312
	N247	N	0.418201	0.318064	0.026551
	N248	N	0.682594	0.962449	0.403550
	N249	N	0.683572	0.030213	0.579434
	N250	N	0.320538	0.964103	0.578956
	N251	N	0.320846	0.030941	0.402099
	N252	N	0.916183	0.462386	0.170621
	N253	N	0.089837	0.530626	0.171360
	N254	N	0.090760	0.463200	0.810507
	N255	N	0.917562	0.532161	0.811973
	N256	N	0.181832	0.910947	0.457083
	N257	N	0.185245	0.088482	0.522131
	N258	N	0.822000	0.082759	0.456517
	N259	N	0.820159	0.908047	0.525093
	N260	N	0.469048	0.176217	0.905486
	N261	N	0.537933	0.176551	0.078123
	N262	N	0.468271	0.815627	0.077849
	N263	N	0.536061	0.814257	0.901707
	N264	N	0.467867	0.909515	0.170752
	N265	N	0.537294	0.083254	0.171136
	N266	N	0.470037	0.084821	0.810197
	N267	N	0.536534	0.908321	0.809558
	N268	N	0.913552	0.177151	0.457063
	N269	N	0.088600	0.177355	0.524427
	N270	N	0.088471	0.818343	0.457229
	N271	N	0.915336	0.817744	0.526070
	N272	N	0.183512	0.462187	0.904079
	N273	N	0.184067	0.530201	0.079440
	N274	N	0.822478	0.462974	0.078305
	N275	N	0.823175	0.531131	0.903443
	O276	O	-0.069562	0.864210	0.050042
	H277	H	-0.065598	0.879499	0.053464
	H278	H	-0.075240	0.857677	0.061150
	O279	O	0.308613	0.306558	0.301160
	H280	H	0.277821	0.284283	0.279352
	H281	H	0.293608	0.311670	0.321253
	O282	O	1.018535	0.219796	0.954900
	H283	H	1.039707	0.215329	0.946551
	H284	H	1.017043	0.218647	0.948309
	O285	O	0.431504	0.536438	0.711208
	H286	H	0.437002	0.519868	0.702447
	H287	H	0.449700	0.552962	0.717015
	O288	O	0.490660	0.611150	0.513470
	H289	H	0.499468	0.600584	0.523659
	H290	H	0.487676	0.606948	0.506081
	O291	O	0.273147	0.318275	0.492740
	H292	H	0.279304	0.314520	0.514936
	H293	H	0.266871	0.298861	0.507294
	O294	O	0.834097	0.204117	0.918332
	H295	H	0.841488	0.211896	0.922371
	H296	H	0.824725	0.201387	0.921630
	O297	O	0.539859	0.726215	0.406504
	H298	H	0.545698	0.707660	0.410714
	H299	H	0.548462	0.736685	0.403803
	O300	O	0.012615	0.208778	0.775354
	H301	H	0.009729	0.232891	0.762009
	H302	H	0.013385	0.187011	0.777444
	O303	O	0.723592	0.719222	0.512023
	H304	H	0.731943	0.730141	0.535837
	H305	H	0.734523	0.725781	0.539822
	O306	O	0.718327	0.282228	0.468280
	H307	H	0.717279	0.281594	0.438326
	H308	H	0.733657	0.269158	0.446206
	O309	O	0.249178	0.746042	0.736274
	H310	H	0.272054	0.730998	0.727847
	H311	H	0.261098	0.748924	0.764547
	O312	O	0.520222	0.712114	0.699877
	H313	H	0.538010	0.716029	0.706030
	H314	H	0.529394	0.725555	0.698429
	O315	O	0.934484	1.100757	0.958267
	H316	H	0.937194	1.109439	0.959654
	H317	H	0.930502	1.099479	0.961380
	O318	O	0.730669	0.553558	0.429789
	H319	H	0.723182	0.559928	0.443229
	H320	H	0.731653	0.561599	0.433340
	O321	O	0.217668	0.899947	0.776108
	H322	H	0.218200	0.873995	0.802760
	H323	H	0.226309	0.901193	0.756903
	O324	O	1.037459	0.925976	0.215630
	H325	H	1.045038	0.916779	0.223483
	H326	H	1.041826	0.916516	0.211935
	O327	O	-0.092903	0.221090	1.054366
	H328	H	-0.083686	0.217006	1.051498
	H329	H	-0.080966	0.215814	1.028205
	O330	O	0.621188	0.555727	0.650776
	H331	H	0.624435	0.551086	0.655326
	H332	H	0.638631	0.536967	0.641188
	O333	O	0.461906	0.279643	0.699140
	H334	H	0.472624	0.262367	0.703058
	H335	H	0.475700	0.274302	0.695778
	O336	O	0.722188	0.452205	0.275574
	H337	H	0.727628	0.469200	0.258450
	H338	H	0.724043	0.466511	0.284638
	O339	O	0.844297	-0.165820	0.823259
	H340	H	0.859612	-0.162725	0.830698
	H341	H	0.858850	-0.144827	0.827450
	O342	O	0.172027	0.051089	0.000443
	H343	H	0.169474	0.036330	0.001484
	H344	H	0.178982	0.032227	-0.002784
	O345	O	0.125686	0.977074	0.862529
	H346	H	0.120408	0.964920	0.855940
	H347	H	0.139022	0.982891	0.858366
	O348	O	0.209562	0.209598	0.200201
	H349	H	0.166216	0.195244	0.203299
	H350	H	0.217281	0.212998	0.147721
	O351	O	0.687656	0.685796	0.307628
	H352	H	0.674255	0.675253	0.323018
	H353	H	0.672918	0.668053	0.322791
	O354	O	0.130220	-0.082305	1.053995
	H355	H	0.125098	-0.085099	1.067723
	H356	H	0.129027	-0.079793	1.062640
	O357	O	0.597109	0.395574	0.597299
	H358	H	0.584885	0.392623	0.566907
	H359	H	0.597861	0.389517	0.593472
	O360	O	0.295468	0.286419	0.664492
	H361	H	0.336209	0.278815	0.665048
	H362	H	0.287538	0.332141	0.670129
	O363	O	-0.196133	0.200018	0.190545
	H364	H	-0.178627	0.190200	0.173332
	H365	H	-0.186978	0.171848	0.168758
	O366	O	0.341598	0.447207	0.653909
	H367	H	0.340463	0.464449	0.651184
	H368	H	0.332289	0.445761	0.673407
	O369	O	0.705733	0.293881	0.297250
	H370	H	0.726072	0.299368	0.277330
	H371	H	0.722715	0.310229	0.278777
	O372	O	0.776841	0.779322	0.012363
	H373	H	0.778718	0.788354	0.013109
	H374	H	0.760524	0.754640	0.020887
	O375	O	0.785071	-0.035708	0.206893
	H376	H	0.784312	-0.037393	0.215248
	H377	H	0.774719	-0.041131	0.212326
	O378	O	0.517237	0.445603	0.371663
	H379	H	0.510096	0.436048	0.367783
	H380	H	0.499939	0.448941	0.369856
	O381	O	0.036996	0.779090	0.768298
	H382	H	0.076012	0.787924	0.769455
	H383	H	0.042408	0.752116	0.748830
	O384	O	0.774938	0.020240	0.772754
	H385	H	0.768559	0.041096	0.754778
	H386	H	0.772493	0.023986	0.756687
	O387	O	1.158056	0.801727	0.131805
	H388	H	1.147597	0.804352	0.140989
	H389	H	1.165502	0.800643	0.147687
	O390	O	0.547033	0.273673	0.274928
	H391	H	0.559054	0.270372	0.270345
	H392	H	0.565821	0.258073	0.254126
	O393	O	0.561081	0.459147	0.712239
	H394	H	0.566107	0.453222	0.709640
	H395	H	0.573893	0.451144	0.710631
	O396	O	0.213986	1.193574	0.782602
	H397	H	0.224074	1.203170	0.773506
	H398	H	0.214932	1.184028	0.770781
	O399	O	0.054205	0.056041	0.754972
	H400	H	0.061397	0.058001	0.753469
	H401	H	0.067990	0.046480	0.762227
	O402	O	0.452062	0.686423	0.299991
	H403	H	0.451120	0.681011	0.302569
	H404	H	0.457863	0.681736	0.305362
	O405	O	0.858344	0.132608	0.848856
	H406	H	0.854450	0.127589	0.863025
	H407	H	0.871560	0.122422	0.846346
	O408	O	0.224402	0.216779	0.030525
	H409	H	0.228334	0.211415	0.008960
	H410	H	0.245879	0.218443	0.014048
	O411	O	0.713374	0.704046	0.698502
	H412	H	0.715156	0.676448	0.708347
	H413	H	0.724556	0.715096	0.723560
	O414	O	0.690867	0.270038	0.675765
	H415	H	0.690836	0.267151	0.660195
	H416	H	0.705191	0.272257	0.672918
	O417	O	0.451751	0.436905	0.312780
	H418	H	0.448931	0.413388	0.312635
	H419	H	0.428512	0.423198	0.309012
	O420	O	0.276053	0.449284	0.407759
	H421	H	0.280171	0.429080	0.432448
	H422	H	0.272335	0.450556	0.437847
	O423	O	0.206157	0.009316	1.014283
	H424	H	0.218023	0.000689	1.008283
	H425	H	0.205453	-0.008948	1.023370
	O426	O	0.281900	0.719441	0.459308
	H427	H	0.287333	0.732623	0.452715
	H428	H	0.271546	0.734147	0.450151
	O429	O	0.775427	0.915753	0.906759
	H430	H	0.772722	0.918872	0.897982
	H431	H	0.781228	0.904986	0.897345
	O432	O	0.458923	0.728244	0.525485
	H433	H	0.455042	0.732691	0.515749
	H434	H	0.474223	0.730205	0.522715
	O435	O	0.265440	0.732423	0.256768
	H436	H	0.258794	0.721376	0.267738
	H437	H	0.294522	0.713487	0.265235
	O438	O	-0.023869	-0.213237	0.212045
	H439	H	-0.041644	-0.216378	0.210980
	H440	H	-0.037422	-0.229163	0.230920
	O441	O	0.026857	0.200445	0.198680
	H442	H	0.011726	0.192363	0.198985
	H443	H	0.031739	0.200121	0.206803
	O444	O	0.482702	0.264312	0.495508
	H445	H	0.485877	0.266681	0.469159
	H446	H	0.473822	0.273752	0.488410
	O447	O	0.119165	1.070729	1.082084
	H448	H	0.114598	1.052627	1.078540
	H449	H	0.118038	1.075349	1.079478
	O450	O	0.122245	0.816765	0.915818
	H451	H	0.113810	0.800838	0.931787
	H452	H	0.130280	0.808085	0.926911
	O453	O	0.300819	0.597592	0.693282
	H454	H	0.306874	0.588806	0.699676
	H455	H	0.321643	0.601390	0.677017
	O456	O	0.152535	-0.164059	0.960317
	H457	H	0.151910	-0.184182	0.973921
	H458	H	0.135274	-0.174009	0.978601
	O459	O	0.792426	0.792251	0.200657
	H460	H	0.771131	0.765138	0.227900
	H461	H	0.787277	0.812934	0.179817
	O462	O	0.533649	0.532043	0.457069
	H463	H	0.527718	0.527298	0.447414
	H464	H	0.539887	0.526017	0.459187
	O465	O	0.902509	0.046447	0.194383
	H466	H	0.915427	0.035078	0.182765
	H467	H	0.900704	0.043467	0.202320
	O468	O	0.274987	0.530440	0.273724
	H469	H	0.255779	0.510610	0.296457
	H470	H	0.252101	0.520493	0.259472
	O471	O	0.283447	0.564884	0.550359
	H472	H	0.291972	0.588459	0.540691
	H473	H	0.291278	0.566912	0.562346
	O474	O	0.372054	0.512559	0.469756
	H475	H	0.391921	0.515593	0.480517
	H476	H	0.381115	0.493649	0.455909
	O477	O	0.569055	0.556689	1.261423
	H478	H	0.557764	0.553685	1.261038
	H479	H	0.548747	0.540062	1.259402
	O480	O	0.515341	0.337084	0.412725
	H481	H	0.513936	0.322149	0.401241
	H482	H	0.505445	0.330857	0.407922
	O483	O	0.688612	0.452153	0.696683
	H484	H	0.696984	0.458839	0.705890
	H485	H	0.695637	0.437751	0.685705
	O486	O	0.916698	-0.015767	0.776756
	H487	H	0.919241	-0.033964	0.783077
	H488	H	0.931580	0.002939	0.778167
	O489	O	1.061031	0.865761	-0.043017
	H490	H	1.061387	0.878760	-0.041629
	H491	H	1.058216	0.864949	-0.019410
	O492	O	0.225223	0.023010	0.209048
	H493	H	0.241266	0.036184	0.229899
	H494	H	0.227117	0.048440	0.202665
	O495	O	-0.031628	0.882694	0.993150
	H496	H	-0.043834	0.876938	0.978096
	H497	H	-0.032132	0.895073	0.975574
	O498	O	0.784003	1.044756	1.000207
	H499	H	0.800249	1.039579	0.999855
	H500	H	0.773867	1.039641	0.990031
	O501	O	0.734594	0.451618	0.555707
	H502	H	0.737805	0.438825	0.548684
	H503	H	0.725971	0.446610	0.541912
