data_Molecule from HDF5

_cell_length_a		16.653296
_cell_length_b		16.646291
_cell_length_c		16.683115
_cell_angle_alpha	89.861119
_cell_angle_beta	90.152660
_cell_angle_gamma	89.922081
_symmetry_space_group_name_H-M	'P 1'
_symmetry_Int_Tables_number		1

loop_
	_symmetry_equiv_pos_as_xyz
	x,y,z

loop_
	_atom_site_label
	_atom_site_type_symbol
	_atom_site_fract_x
	_atom_site_fract_y
	_atom_site_fract_z
	H0	H	0.369467	0.838907	0.715949
	H1	H	0.585113	0.146248	0.714899
	H2	H	0.588008	0.840347	0.265743
	H3	H	0.372408	0.146784	0.270260
	H4	H	0.704634	0.376391	0.841414
	H5	H	0.700381	0.598356	0.143532
	H6	H	0.248555	0.604001	0.839073
	H7	H	0.251385	0.383559	0.143608
	H8	H	0.821863	0.713477	0.384320
	H9	H	0.130043	0.716406	0.600113
	H10	H	0.821642	0.271250	0.593367
	H11	H	0.133522	0.273946	0.386172
	H12	H	0.823911	0.382630	0.712502
	H13	H	0.129070	0.600974	0.716324
	H14	H	0.820036	0.596084	0.270670
	H15	H	0.132068	0.389788	0.269649
	H16	H	0.364437	0.720171	0.839605
	H17	H	0.587959	0.716566	0.141905
	H18	H	0.585622	0.264655	0.838957
	H19	H	0.367978	0.267787	0.144267
	H20	H	0.702933	0.839563	0.382487
	H21	H	0.699103	0.147274	0.597859
	H22	H	0.252999	0.838934	0.600031
	H23	H	0.257634	0.147724	0.387351
	H24	H	0.872765	0.335906	0.209441
	H25	H	0.078554	0.649286	0.207592
	H26	H	0.082496	0.337047	0.767814
	H27	H	0.865701	0.644077	0.763772
	H28	H	0.196804	0.889604	0.335143
	H29	H	0.196404	0.095982	0.647238
	H30	H	0.759700	0.092705	0.333835
	H31	H	0.756079	0.884992	0.645056
	H32	H	0.321117	0.212905	0.885433
	H33	H	0.631804	0.211173	0.094090
	H34	H	0.324722	0.765329	0.102259
	H35	H	0.630603	0.768990	0.885462
	H36	H	0.324372	0.881802	0.217202
	H37	H	0.632258	0.096178	0.210951
	H38	H	0.322574	0.100135	0.766780
	H39	H	0.631082	0.885430	0.769894
	H40	H	0.877104	0.207186	0.332375
	H41	H	0.079463	0.211838	0.646717
	H42	H	0.081511	0.772800	0.335374
	H43	H	0.870543	0.767090	0.643370
	H44	H	0.197846	0.337204	0.884827
	H45	H	0.196637	0.647648	0.093003
	H46	H	0.756843	0.335529	0.093325
	H47	H	0.750056	0.643623	0.879747
	H48	H	0.386118	0.103619	0.578364
	H49	H	0.567387	0.880120	0.583829
	H50	H	0.570307	0.104047	0.401344
	H51	H	0.390566	0.880122	0.399812
	H52	H	0.564703	0.405365	0.100224
	H53	H	0.561985	0.577535	0.880859
	H54	H	0.393359	0.576830	0.098387
	H55	H	0.388525	0.401902	0.879892
	H56	H	0.086391	0.578856	0.401798
	H57	H	0.867401	0.577977	0.575223
	H58	H	0.089263	0.396683	0.574953
	H59	H	0.865218	0.399569	0.400793
	H60	H	0.084295	0.408918	0.572271
	H61	H	0.868372	0.578370	0.572941
	H62	H	0.090263	0.581225	0.392972
	H63	H	0.863718	0.402943	0.396400
	H64	H	0.388163	0.580820	0.101521
	H65	H	0.560490	0.578563	0.881397
	H66	H	0.561884	0.403410	0.099731
	H67	H	0.385594	0.403452	0.879475
	H68	H	0.563370	0.103778	0.398780
	H69	H	0.562922	0.882841	0.579601
	H70	H	0.390243	0.103809	0.582337
	H71	H	0.391625	0.883266	0.407158
	H72	H	0.887686	0.602906	0.078846
	H73	H	0.066711	0.377561	0.088677
	H74	H	0.061623	0.600701	0.904513
	H75	H	0.886423	0.380510	0.904662
	H76	H	0.066444	0.905481	0.601734
	H77	H	0.070951	0.086538	0.377073
	H78	H	0.887982	0.087839	0.603915
	H79	H	0.885763	0.900520	0.377865
	H80	H	0.586163	0.072959	0.899679
	H81	H	0.368725	0.074189	0.075183
	H82	H	0.586714	0.907677	0.083138
	H83	H	0.367337	0.903285	0.908735
	H84	H	0.587820	0.899847	0.077284
	H85	H	0.362145	0.077858	0.089756
	H86	H	0.589618	0.085270	0.901237
	H87	H	0.368494	0.911347	0.905499
	H88	H	0.882367	0.081412	0.603801
	H89	H	0.071337	0.081185	0.378692
	H90	H	0.062979	0.905774	0.599881
	H91	H	0.887098	0.911389	0.381566
	H92	H	0.063697	0.603065	0.902148
	H93	H	0.056725	0.383776	0.077673
	H94	H	0.884807	0.603774	0.076528
	H95	H	0.891245	0.380523	0.898238
	H96	H	0.391098	0.101199	0.576840
	H97	H	0.568866	0.881608	0.577924
	H98	H	0.564572	0.102474	0.406050
	H99	H	0.384964	0.880111	0.404722
	H100	H	0.564689	0.402081	0.101392
	H101	H	0.562114	0.579506	0.880258
	H102	H	0.387093	0.573685	0.099697
	H103	H	0.388022	0.405118	0.881242
	H104	H	0.090193	0.587474	0.400612
	H105	H	0.868897	0.575978	0.574418
	H106	H	0.089363	0.405962	0.584820
	H107	H	0.862536	0.397371	0.396339
	H108	H	0.884344	0.604648	0.080492
	H109	H	0.071745	0.379937	0.073421
	H110	H	0.060338	0.601603	0.900973
	H111	H	0.893784	0.383509	0.905064
	H112	H	0.064348	0.901820	0.601420
	H113	H	0.066203	0.083337	0.379432
	H114	H	0.890440	0.079729	0.601919
	H115	H	0.895731	0.903865	0.382334
	H116	H	0.584633	0.078831	0.911193
	H117	H	0.362091	0.089210	0.077753
	H118	H	0.583111	0.907972	0.073520
	H119	H	0.364657	0.905285	0.900564
	C120	C	0.355806	0.000984	0.612736
	C121	C	0.599075	0.984096	0.613080
	C122	C	0.598771	0.001336	0.369835
	C123	C	0.356414	0.983522	0.370474
	C124	C	0.597355	0.369364	-0.000808
	C125	C	0.596670	0.611895	0.981857
	C126	C	0.354376	0.613333	-0.000748
	C127	C	0.354218	0.370122	0.981856
	C128	C	-0.014509	0.614352	0.367385
	C129	C	0.969010	0.611561	0.609695
	C130	C	-0.014802	0.370900	0.609854
	C131	C	0.967651	0.370464	0.367266
	C132	C	0.854589	0.500476	0.110473
	C133	C	0.096555	0.483897	0.110710
	C134	C	0.096097	0.499972	0.869174
	C135	C	0.854393	0.482405	0.867756
	C136	C	0.097719	0.871870	0.498979
	C137	C	0.099628	0.114622	0.482024
	C138	C	0.856299	0.113259	0.499054
	C139	C	0.856074	0.870790	0.481822
	C140	C	0.484894	0.112919	0.869873
	C141	C	0.467535	0.112634	0.112453
	C142	C	0.485312	0.870191	0.113226
	C143	C	0.468348	0.872048	0.871346
	C144	C	0.351579	0.885205	0.675125
	C145	C	0.602498	0.099834	0.674243
	C146	C	0.604288	0.885844	0.307747
	C147	C	0.354078	0.100118	0.310254
	C148	C	0.661553	0.361830	0.885777
	C149	C	0.659603	0.615867	0.096935
	C150	C	0.290503	0.620172	0.884760
	C151	C	0.292525	0.366090	0.097590
	C152	C	0.868289	0.673195	0.366548
	C153	C	0.083851	0.675031	0.616233
	C154	C	0.868506	0.310704	0.612033
	C155	C	0.086068	0.312935	0.367127
	C156	C	0.869720	0.366572	0.671117
	C157	C	0.083383	0.617657	0.674205
	C158	C	0.867439	0.615044	0.309721
	C159	C	0.085420	0.370463	0.309219
	C160	C	0.348101	0.678008	0.885314
	C161	C	0.603147	0.674561	0.096523
	C162	C	0.602527	0.305983	0.884871
	C163	C	0.350454	0.308477	0.097846
	C164	C	0.661565	0.885738	0.365535
	C165	C	0.659346	0.100400	0.615869
	C166	C	0.293769	0.885135	0.617595
	C167	C	0.297055	0.100681	0.368471
	C168	C	0.853611	0.382958	0.169805
	C169	C	0.097577	0.602037	0.168548
	C170	C	0.100270	0.383577	0.808219
	C171	C	0.848583	0.597631	0.804760
	C172	C	0.157128	0.870643	0.381955
	C173	C	0.157071	0.114978	0.600121
	C174	C	0.798890	0.112178	0.380846
	C175	C	0.795834	0.866853	0.598175
	C176	C	0.368004	0.173331	0.866537
	C177	C	0.584952	0.171703	0.113389
	C178	C	0.370415	0.807027	0.118891
	C179	C	0.584217	0.809933	0.867782
	C180	C	0.370349	0.864779	0.176163
	C181	C	0.585033	0.114504	0.171497
	C182	C	0.368974	0.117067	0.807775
	C183	C	0.584388	0.867651	0.810119
	C184	C	0.857042	0.169307	0.380065
	C185	C	0.098925	0.172531	0.599757
	C186	C	0.100083	0.812328	0.382120
	C187	C	0.852888	0.808399	0.597513
	C188	C	0.157619	0.383648	0.866293
	C189	C	0.156264	0.601261	0.111899
	C190	C	0.796241	0.382581	0.111903
	C191	C	0.791106	0.597436	0.862487
	C192	C	0.381724	0.081752	0.586452
	C193	C	0.573627	0.902721	0.587723
	C194	C	0.573363	0.082278	0.394942
	C195	C	0.381754	0.902188	0.396421
	C196	C	0.570989	0.396315	0.079623
	C197	C	0.569107	0.585722	0.901727
	C198	C	0.381817	0.585030	0.079074
	C199	C	0.379999	0.396273	0.901292
	C200	C	0.067686	0.589354	0.391419
	C201	C	0.888903	0.584899	0.582164
	C202	C	0.066567	0.396536	0.584456
	C203	C	0.885306	0.393495	0.390877
	C204	C	0.878678	0.582423	0.085702
	C205	C	0.072056	0.401977	0.086738
	C206	C	0.069446	0.580867	0.894978
	C207	C	0.882396	0.402414	0.894820
	C208	C	0.072076	0.897043	0.579834
	C209	C	0.076163	0.090719	0.399700
	C210	C	0.880211	0.089973	0.581794
	C211	C	0.882153	0.897524	0.401418
	C212	C	0.565718	0.086598	0.896386
	C213	C	0.385552	0.087694	0.087822
	C214	C	0.565064	0.897543	0.085733
	C215	C	0.387834	0.898987	0.897474
	Zn216	Zn	0.477317	-0.007610	0.741262
	Zn217	Zn	0.477078	-0.008547	0.241148
	Zn218	Zn	0.725607	0.490664	-0.010760
	Zn219	Zn	0.225594	0.491937	-0.009731
	Zn220	Zn	-0.022937	0.741641	0.489833
	Zn221	Zn	-0.023124	0.242286	0.489441
	Zn222	Zn	-0.023696	0.491243	0.739494
	Zn223	Zn	-0.024110	0.492691	0.239262
	Zn224	Zn	0.475819	0.741870	-0.008294
	Zn225	Zn	0.475802	0.241209	-0.009196
	Zn226	Zn	0.727328	-0.007605	0.491504
	Zn227	Zn	0.227689	-0.007941	0.491611
	N228	N	0.389567	0.958233	0.672243
	N229	N	0.565570	0.026265	0.672652
	N230	N	0.565886	0.958687	0.310009
	N231	N	0.390269	0.026103	0.311364
	N232	N	0.658099	0.401090	0.957761
	N233	N	0.655728	0.577318	0.024506
	N234	N	0.294460	0.580149	0.956619
	N235	N	0.294710	0.404040	0.024537
	N236	N	0.943059	0.673283	0.401313
	N237	N	0.011600	0.671339	0.576548
	N238	N	0.941609	0.313150	0.574538
	N239	N	0.011741	0.312477	0.402512
	N240	N	0.943283	0.403411	0.669808
	N241	N	0.010947	0.578897	0.670401
	N242	N	0.941686	0.579191	0.309875
	N243	N	0.010788	0.405430	0.308977
	N244	N	0.387341	0.673642	0.957608
	N245	N	0.564287	0.672141	0.024010
	N246	N	0.562805	0.310751	0.956583
	N247	N	0.388214	0.310785	0.024873
	N248	N	0.658304	0.958498	0.403700
	N249	N	0.657530	0.027163	0.578408
	N250	N	0.296184	0.958246	0.579524
	N251	N	0.298175	0.026935	0.405285
	N252	N	0.889055	0.457441	0.169343
	N253	N	0.061142	0.528066	0.167978
	N254	N	0.062930	0.456999	0.809803
	N255	N	0.887332	0.524962	0.807770
	N256	N	0.156129	0.906867	0.455747
	N257	N	0.157916	0.080022	0.525713
	N258	N	0.797952	0.078538	0.456119
	N259	N	0.797556	0.905122	0.525314
	N260	N	0.441251	0.171035	0.904468
	N261	N	0.510685	0.170953	0.077549
	N262	N	0.442915	0.810020	0.080461
	N263	N	0.510904	0.812412	0.905250
	N264	N	0.442894	0.903474	0.172778
	N265	N	0.510759	0.078670	0.171197
	N266	N	0.442749	0.080384	0.809642
	N267	N	0.511128	0.905304	0.811844
	N268	N	0.891687	0.170519	0.454856
	N269	N	0.064094	0.172710	0.524999
	N270	N	0.063935	0.812703	0.455961
	N271	N	0.889588	0.810604	0.524047
	N272	N	0.155535	0.457217	0.903314
	N273	N	0.155896	0.526753	0.076751
	N274	N	0.796465	0.456864	0.075943
	N275	N	0.794307	0.524460	0.900874
	O276	O	0.002929	0.903536	-0.077178
	H277	H	-0.005064	0.915601	-0.084025
	H278	H	0.007510	0.900461	-0.083546
	O279	O	0.298035	0.522989	0.403846
	H280	H	0.300588	0.502487	0.398244
	H281	H	0.287266	0.512113	0.412897
	O282	O	0.932854	-0.129017	1.098222
	H283	H	0.939560	-0.133268	1.092861
	H284	H	0.936665	-0.126933	1.096250
	O285	O	0.287948	0.344222	0.472683
	H286	H	0.291962	0.355964	0.480676
	H287	H	0.269889	0.317455	0.487159
	O288	O	0.508873	0.628575	0.262643
	H289	H	0.493192	0.638280	0.264146
	H290	H	0.504055	0.629198	0.262711
	O291	O	0.492992	0.673421	0.687380
	H292	H	0.495026	0.693362	0.704567
	H293	H	0.495476	0.676875	0.680136
	O294	O	0.958955	-0.115456	0.766027
	H295	H	0.966178	-0.109245	0.766403
	H296	H	0.958448	-0.132759	0.752168
	O297	O	0.862145	0.978560	-0.000590
	H298	H	0.849450	0.966355	-0.007105
	H299	H	0.860292	0.970205	0.023887
	O300	O	-0.239029	-0.212051	1.027993
	H301	H	-0.250256	-0.237877	1.026316
	H302	H	-0.242060	-0.209400	1.050417
	O303	O	0.506793	0.383397	0.725964
	H304	H	0.514416	0.378575	0.724790
	H305	H	0.495791	0.384449	0.723051
	O306	O	0.661541	0.299278	0.660737
	H307	H	0.653385	0.304489	0.672741
	H308	H	0.666766	0.289822	0.679038
	O309	O	0.594824	0.369456	0.534522
	H310	H	0.591014	0.364000	0.531551
	H311	H	0.609792	0.351162	0.533506
	O312	O	0.565094	0.550896	0.573670
	H313	H	0.563737	0.557616	0.563979
	H314	H	0.571099	0.532995	0.583747
	O315	O	1.004364	0.971961	1.184005
	H316	H	1.007128	0.988722	1.186172
	H317	H	1.008668	0.958372	1.178171
	O318	O	0.511756	0.272459	0.265709
	H319	H	0.521140	0.258005	0.271206
	H320	H	0.510505	0.255440	0.257975
	O321	O	0.191180	0.962858	0.776402
	H322	H	0.202714	0.950773	0.768816
	H323	H	0.194851	0.936415	0.770487
	O324	O	0.954346	1.163894	0.023906
	H325	H	0.964811	1.161614	0.027243
	H326	H	0.963617	1.162558	0.032273
	O327	O	0.149395	0.177147	0.806542
	H328	H	0.123081	0.159582	0.814768
	H329	H	0.144486	0.159164	0.832903
	O330	O	0.693536	0.512533	0.338928
	H331	H	0.695376	0.494491	0.325691
	H332	H	0.689952	0.496931	0.340731
	O333	O	0.478032	0.451719	0.545301
	H334	H	0.477353	0.451948	0.541835
	H335	H	0.481594	0.450641	0.539487
	O336	O	0.704775	0.266706	0.448423
	H337	H	0.703082	0.254202	0.447451
	H338	H	0.715039	0.245094	0.440034
	O339	O	1.191823	0.033748	1.201161
	H340	H	1.199842	0.022551	1.209971
	H341	H	1.192307	0.010282	1.194106
	O342	O	0.316217	0.325619	-0.338894
	H343	H	0.306291	0.302960	-0.305949
	H344	H	0.327320	0.332484	-0.347792
	O345	O	0.209391	0.934355	1.049361
	H346	H	0.206854	0.942268	1.048178
	H347	H	0.204605	0.921081	1.044811
	O348	O	0.284613	0.299886	0.297783
	H349	H	0.287300	0.301774	0.276672
	H350	H	0.294591	0.319748	0.307273
	O351	O	0.831771	1.079394	0.174190
	H352	H	0.846332	1.058741	0.174724
	H353	H	0.832027	1.070507	0.153395
	O354	O	0.043024	-0.107068	0.988304
	H355	H	0.043655	-0.116744	0.983055
	H356	H	0.046474	-0.109509	0.987889
	O357	O	0.908477	0.204962	0.777657
	H358	H	0.905740	0.193025	0.778875
	H359	H	0.923476	0.209298	0.766874
	O360	O	0.396394	0.540810	0.464761
	H361	H	0.406446	0.538186	0.481626
	H362	H	0.400730	0.546534	0.461977
	O363	O	-0.276691	0.244873	0.235581
	H364	H	-0.249506	0.211285	0.214128
	H365	H	-0.284617	0.244033	0.253028
	O366	O	0.401281	0.483718	0.719645
	H367	H	0.393375	0.475644	0.728293
	H368	H	0.406091	0.484081	0.722038
	O369	O	0.543175	0.276871	0.360799
	H370	H	0.541672	0.276574	0.345517
	H371	H	0.532268	0.275984	0.378997
	O372	O	1.094612	0.769481	-0.010988
	H373	H	1.084569	0.776473	-0.002694
	H374	H	1.111254	0.763935	0.005787
	O375	O	1.186677	0.201512	0.194753
	H376	H	1.194011	0.216176	0.189225
	H377	H	1.191960	0.148353	0.201125
	O378	O	0.674136	0.441480	0.660133
	H379	H	0.702905	0.447965	0.684126
	H380	H	0.675423	0.448926	0.644432
	O381	O	0.182206	0.790271	0.784698
	H382	H	0.200249	0.766918	0.773458
	H383	H	0.165539	0.789912	0.804683
	O384	O	0.760211	0.021821	0.778406
	H385	H	0.742171	0.027426	0.754556
	H386	H	0.756823	0.020859	0.791305
	O387	O	1.475526	0.645224	0.344351
	H388	H	1.463941	0.661901	0.321741
	H389	H	1.454653	0.625818	0.360997
	O390	O	0.253848	0.716158	0.463922
	H391	H	0.224225	0.740980	0.465468
	H392	H	0.254133	0.690740	0.477823
	O393	O	0.432920	0.601895	0.514366
	H394	H	0.422702	0.598328	0.511643
	H395	H	0.448596	0.604396	0.515271
	O396	O	0.396568	1.274412	0.709877
	H397	H	0.406553	1.288269	0.717218
	H398	H	0.380461	1.251565	0.735297
	O399	O	-0.027010	-0.192109	1.144106
	H400	H	-0.029960	-0.175642	1.142987
	H401	H	-0.032810	-0.210192	1.158576
	O402	O	0.422706	0.421359	0.257212
	H403	H	0.450753	0.414404	0.257789
	H404	H	0.447293	0.422357	0.253489
	O405	O	0.754120	-0.062162	0.936718
	H406	H	0.753304	-0.070285	0.926292
	H407	H	0.753173	-0.076228	0.938853
	O408	O	0.119969	0.191974	-0.049486
	H409	H	0.124108	0.191326	-0.040522
	H410	H	0.127175	0.184310	-0.047360
	O411	O	0.834652	0.838044	0.796562
	H412	H	0.843643	0.834088	0.806675
	H413	H	0.840706	0.832564	0.781790
	O414	O	1.009164	0.080241	0.799894
	H415	H	0.989763	0.066015	0.803443
	H416	H	1.030293	0.073788	0.797544
	O417	O	0.659882	0.488433	0.394441
	H418	H	0.682339	0.478659	0.377152
	H419	H	0.648732	0.462761	0.413005
	O420	O	0.693184	0.716500	0.511863
	H421	H	0.723848	0.731838	0.516667
	H422	H	0.691855	0.689011	0.509106
	O423	O	-0.020168	0.027010	1.194839
	H424	H	-0.014212	0.021482	1.209296
	H425	H	-0.022320	0.029895	1.180150
	O426	O	0.237805	0.556697	0.536146
	H427	H	0.232190	0.544273	0.544526
	H428	H	0.247006	0.540919	0.544419
	O429	O	1.156795	0.821064	1.170344
	H430	H	1.161152	0.809336	1.170869
	H431	H	1.165008	0.806785	1.177013
	O432	O	0.290275	0.679102	0.680799
	H433	H	0.313919	0.669991	0.666281
	H434	H	0.298733	0.670808	0.667331
	O435	O	0.677786	0.553356	0.536895
	H436	H	0.668986	0.533073	0.538720
	H437	H	0.681519	0.543518	0.530835
	O438	O	0.246777	-0.290345	0.269062
	H439	H	0.249439	-0.316129	0.289654
	H440	H	0.266434	-0.310162	0.288737
	O441	O	-0.006299	-0.101128	-0.134111
	H442	H	-0.021857	-0.120461	-0.138242
	H443	H	-0.010383	-0.101411	-0.122459
	O444	O	0.286614	0.481467	0.719686
	H445	H	0.287837	0.456914	0.714981
	H446	H	0.264353	0.485758	0.732989
	O447	O	-0.248000	1.213609	0.780229
	H448	H	-0.214194	1.201675	0.781877
	H449	H	-0.252354	1.217440	0.815603
	O450	O	-0.117553	0.771307	0.923933
	H451	H	-0.115087	0.769076	0.926388
	H452	H	-0.123328	0.769648	0.935552
	O453	O	0.497019	0.641664	0.569627
	H454	H	0.486879	0.631708	0.579148
	H455	H	0.504145	0.641766	0.554527
	O456	O	0.549750	-0.472195	0.357415
	H457	H	0.553740	-0.462970	0.346926
	H458	H	0.562072	-0.474775	0.360064
	O459	O	0.898629	1.054006	-0.087506
	H460	H	0.885094	1.065561	-0.079871
	H461	H	0.884602	1.050761	-0.084921
	O462	O	0.672344	0.688329	0.293839
	H463	H	0.639172	0.679588	0.303735
	H464	H	0.664287	0.664015	0.321282
	O465	O	0.766876	-0.037256	0.204835
	H466	H	0.750457	-0.060128	0.221751
	H467	H	0.764394	-0.063530	0.211287
	O468	O	0.263928	0.511410	0.270621
	H469	H	0.274372	0.494426	0.273159
	H470	H	0.259269	0.501103	0.258512
	O471	O	0.699774	0.722527	0.713508
	H472	H	0.695252	0.709469	0.688611
	H473	H	0.694085	0.721155	0.704721
	O474	O	0.386254	0.674956	0.442016
	H475	H	0.384385	0.650005	0.430722
	H476	H	0.391116	0.679459	0.450010
	O477	O	0.769414	0.789194	1.194968
	H478	H	0.739291	0.754530	1.227226
	H479	H	0.806738	0.780058	1.187122
	O480	O	0.300067	0.268283	0.486697
	H481	H	0.269534	0.242040	0.497963
	H482	H	0.298422	0.276400	0.513558
	O483	O	0.601338	0.636387	0.586808
	H484	H	0.609860	0.618062	0.588442
	H485	H	0.618049	0.637108	0.586428
	O486	O	1.206167	0.040855	0.925017
	H487	H	1.194657	0.024087	0.917684
	H488	H	1.214785	0.041844	0.915426
	O489	O	1.103127	1.198319	-0.019144
	H490	H	1.113836	1.208157	-0.008038
	H491	H	1.096716	1.198022	-0.001370
	O492	O	0.011249	0.214335	0.207015
	H493	H	0.027229	0.226637	0.223791
	H494	H	0.033243	0.212436	0.216881
	O495	O	0.037522	1.084775	1.049406
	H496	H	0.040540	1.078435	1.052871
	H497	H	0.028263	1.082349	1.039721
	O498	O	0.765705	1.154364	0.991125
	H499	H	0.769827	1.143339	1.006111
	H500	H	0.770848	1.161855	0.989393
	O501	O	0.511377	0.329102	0.538763
	H502	H	0.518429	0.330245	0.548520
	H503	H	0.495762	0.335078	0.544455
