data_Molecule from HDF5

_cell_length_a		16.639876
_cell_length_b		16.599036
_cell_length_c		16.548948
_cell_angle_alpha	90.062453
_cell_angle_beta	89.995985
_cell_angle_gamma	89.941163
_symmetry_space_group_name_H-M	'P 1'
_symmetry_Int_Tables_number		1

loop_
	_symmetry_equiv_pos_as_xyz
	x,y,z

loop_
	_atom_site_label
	_atom_site_type_symbol
	_atom_site_fract_x
	_atom_site_fract_y
	_atom_site_fract_z
	H0	H	0.384586	0.855040	0.728150
	H1	H	0.592523	0.167403	0.727579
	H2	H	0.591267	0.854457	0.287122
	H3	H	0.384693	0.167867	0.287978
	H4	H	0.708397	0.407302	0.849622
	H5	H	0.707214	0.613409	0.164745
	H6	H	0.265742	0.617200	0.851520
	H7	H	0.268325	0.407454	0.163941
	H8	H	0.832991	0.732253	0.403018
	H9	H	0.144048	0.732124	0.612526
	H10	H	0.831694	0.291186	0.609065
	H11	H	0.144353	0.288506	0.401500
	H12	H	0.831436	0.407428	0.725920
	H13	H	0.144427	0.615405	0.728717
	H14	H	0.832190	0.613764	0.288081
	H15	H	0.144293	0.406295	0.285961
	H16	H	0.381897	0.732488	0.851348
	H17	H	0.590471	0.728919	0.165244
	H18	H	0.591628	0.292169	0.849288
	H19	H	0.386111	0.292957	0.164476
	H20	H	0.707878	0.853890	0.403488
	H21	H	0.709047	0.166848	0.611112
	H22	H	0.267257	0.855489	0.613878
	H23	H	0.267259	0.166885	0.403365
	H24	H	0.885240	0.353721	0.226647
	H25	H	0.093234	0.666664	0.228903
	H26	H	0.093630	0.353811	0.786062
	H27	H	0.886177	0.667452	0.788176
	H28	H	0.209017	0.906300	0.351084
	H29	H	0.211581	0.117880	0.663071
	H30	H	0.768596	0.114011	0.350992
	H31	H	0.768433	0.906559	0.664460
	H32	H	0.331121	0.231252	0.903425
	H33	H	0.645431	0.229401	0.108539
	H34	H	0.333246	0.788769	0.113445
	H35	H	0.643649	0.790338	0.903565
	H36	H	0.331398	0.908258	0.226871
	H37	H	0.644769	0.113023	0.226148
	H38	H	0.330959	0.114667	0.787534
	H39	H	0.644390	0.907226	0.787475
	H40	H	0.885660	0.229121	0.349900
	H41	H	0.095852	0.234691	0.662504
	H42	H	0.091310	0.792135	0.349578
	H43	H	0.885495	0.791123	0.664565
	H44	H	0.210112	0.355033	0.902081
	H45	H	0.210965	0.665595	0.114599
	H46	H	0.769134	0.353506	0.109998
	H47	H	0.769398	0.667724	0.904271
	H48	H	0.400083	0.121777	0.594223
	H49	H	0.581750	0.896883	0.599225
	H50	H	0.578925	0.123561	0.415939
	H51	H	0.398485	0.898883	0.416538
	H52	H	0.568689	0.417665	0.117239
	H53	H	0.578220	0.595362	0.896031
	H54	H	0.398286	0.598015	0.118954
	H55	H	0.400653	0.423716	0.895829
	H56	H	0.098847	0.600618	0.421987
	H57	H	0.877744	0.601269	0.593729
	H58	H	0.101178	0.419688	0.598407
	H59	H	0.878289	0.419849	0.421169
	H60	H	0.099690	0.420269	0.594519
	H61	H	0.877382	0.598822	0.598367
	H62	H	0.099790	0.597770	0.415406
	H63	H	0.876754	0.423480	0.416239
	H64	H	0.400879	0.596726	0.117871
	H65	H	0.573889	0.604182	0.894689
	H66	H	0.585445	0.411892	0.124527
	H67	H	0.399876	0.420231	0.894773
	H68	H	0.577381	0.122167	0.418754
	H69	H	0.574319	0.899561	0.598854
	H70	H	0.398088	0.123650	0.595233
	H71	H	0.397762	0.898332	0.417661
	H72	H	0.895596	0.625443	0.102616
	H73	H	0.076676	0.398593	0.098589
	H74	H	0.070221	0.619349	0.919852
	H75	H	0.895964	0.398459	0.919004
	H76	H	0.078365	0.921836	0.620209
	H77	H	0.084035	0.097150	0.394410
	H78	H	0.897056	0.098248	0.620270
	H79	H	0.901486	0.918616	0.394795
	H80	H	0.599235	0.099707	0.917073
	H81	H	0.376859	0.104416	0.091312
	H82	H	0.600317	0.925537	0.101877
	H83	H	0.376433	0.921416	0.916555
	H84	H	0.602283	0.913699	0.098952
	H85	H	0.376986	0.095915	0.099307
	H86	H	0.600965	0.102021	0.914735
	H87	H	0.375851	0.921481	0.919850
	H88	H	0.901569	0.099180	0.618644
	H89	H	0.072756	0.092428	0.400219
	H90	H	0.078140	0.921106	0.619851
	H91	H	0.895641	0.919143	0.393900
	H92	H	0.080557	0.621946	0.923442
	H93	H	0.073522	0.400981	0.093862
	H94	H	0.902100	0.620822	0.097442
	H95	H	0.895493	0.396454	0.914238
	H96	H	0.400442	0.122251	0.597092
	H97	H	0.579153	0.899944	0.592541
	H98	H	0.580799	0.123210	0.418756
	H99	H	0.397409	0.898097	0.416719
	H100	H	0.583424	0.430209	0.119116
	H101	H	0.583534	0.602921	0.891820
	H102	H	0.400893	0.599643	0.119143
	H103	H	0.396949	0.423076	0.894401
	H104	H	0.102063	0.604260	0.417021
	H105	H	0.875853	0.603857	0.598083
	H106	H	0.099660	0.423292	0.597006
	H107	H	0.875603	0.417431	0.416297
	H108	H	0.894015	0.623459	0.093528
	H109	H	0.079317	0.399023	0.093039
	H110	H	0.077428	0.623309	0.913129
	H111	H	0.900191	0.398357	0.915860
	H112	H	0.078611	0.921355	0.620313
	H113	H	0.072534	0.104390	0.394625
	H114	H	0.898561	0.103058	0.620894
	H115	H	0.899119	0.923992	0.396442
	H116	H	0.599637	0.103263	0.918313
	H117	H	0.372845	0.106452	0.102206
	H118	H	0.597453	0.921377	0.090760
	H119	H	0.376802	0.923597	0.918619
	C120	C	0.367552	0.019541	0.628384
	C121	C	0.609996	1.002233	0.628758
	C122	C	0.610105	0.019088	0.385981
	C123	C	0.366676	1.002365	0.386077
	C124	C	0.610316	0.389012	0.015839
	C125	C	0.609189	0.631588	0.998688
	C126	C	0.366896	0.631439	0.015803
	C127	C	0.367258	0.390324	0.998574
	C128	C	-0.003132	0.632075	0.386489
	C129	C	0.980255	0.632645	0.628850
	C130	C	-0.003165	0.389122	0.628104
	C131	C	0.979974	0.388515	0.385588
	C132	C	0.866488	0.519321	0.128868
	C133	C	0.109128	0.502507	0.128305
	C134	C	0.109221	0.518752	0.886039
	C135	C	0.866511	0.501948	0.885655
	C136	C	0.109757	0.889506	0.516485
	C137	C	0.109494	0.131232	0.499361
	C138	C	0.867792	0.131248	0.515807
	C139	C	0.867615	0.889524	0.499200
	C140	C	0.496480	0.133020	0.885329
	C141	C	0.479716	0.132504	0.128193
	C142	C	0.496650	0.889248	0.128879
	C143	C	0.479613	0.890279	0.886738
	C144	C	0.366014	0.901953	0.688341
	C145	C	0.611445	0.120226	0.688000
	C146	C	0.610817	0.901457	0.326590
	C147	C	0.365460	0.120565	0.327339
	C148	C	0.669025	0.388211	0.897158
	C149	C	0.667711	0.632396	0.117332
	C150	C	0.305820	0.635103	0.898565
	C151	C	0.308273	0.388982	0.116822
	C152	C	0.879675	0.691937	0.384503
	C153	C	0.097396	0.692364	0.631182
	C154	C	0.878883	0.330412	0.628755
	C155	C	0.097545	0.328717	0.383135
	C156	C	0.878675	0.388177	0.686695
	C157	C	0.097553	0.633937	0.688539
	C158	C	0.879135	0.633179	0.327399
	C159	C	0.097739	0.387537	0.326190
	C160	C	0.363896	0.692278	0.898362
	C161	C	0.609759	0.689978	0.117640
	C162	C	0.611031	0.330901	0.896889
	C163	C	0.366841	0.332102	0.117229
	C164	C	0.668572	0.901053	0.384433
	C165	C	0.669377	0.119886	0.630218
	C166	C	0.307403	0.902255	0.631747
	C167	C	0.307292	0.120082	0.384910
	C168	C	0.865795	0.400896	0.187440
	C169	C	0.111737	0.619628	0.188857
	C170	C	0.112004	0.401164	0.825773
	C171	C	0.866767	0.620482	0.827707
	C172	C	0.168703	0.887867	0.398032
	C173	C	0.170780	0.135224	0.616456
	C174	C	0.808809	0.132289	0.397647
	C175	C	0.808435	0.888032	0.617397
	C176	C	0.378205	0.191516	0.884713
	C177	C	0.598243	0.190146	0.128267
	C178	C	0.379488	0.829619	0.131128
	C179	C	0.596942	0.830552	0.885167
	C180	C	0.378537	0.888863	0.187552
	C181	C	0.597970	0.132461	0.186400
	C182	C	0.378144	0.133743	0.826952
	C183	C	0.597244	0.888620	0.827459
	C184	C	0.866509	0.189793	0.397382
	C185	C	0.113232	0.193294	0.616138
	C186	C	0.110275	0.831094	0.397308
	C187	C	0.866562	0.830741	0.617561
	C188	C	0.169799	0.401603	0.883559
	C189	C	0.170013	0.619211	0.131773
	C190	C	0.808268	0.400876	0.129383
	C191	C	0.808712	0.620488	0.885358
	C192	C	0.392572	0.101282	0.602851
	C193	C	0.585397	0.920155	0.603826
	C194	C	0.585913	0.101566	0.410606
	C195	C	0.391011	0.919837	0.410046
	C196	C	0.586186	0.412974	0.098688
	C197	C	0.585388	0.607773	0.915783
	C198	C	0.392655	0.605614	0.097284
	C199	C	0.392250	0.415127	0.916377
	C200	C	0.078977	0.607634	0.411089
	C201	C	0.898303	0.608231	0.603779
	C202	C	0.078644	0.413810	0.603644
	C203	C	0.898187	0.413156	0.410810
	C204	C	0.890266	0.601837	0.104953
	C205	C	0.083855	0.420852	0.102693
	C206	C	0.083490	0.600332	0.911478
	C207	C	0.890297	0.419315	0.909589
	C208	C	0.085413	0.914241	0.598923
	C209	C	0.083783	0.105197	0.417702
	C210	C	0.892182	0.107138	0.598440
	C211	C	0.891727	0.913807	0.416508
	C212	C	0.578363	0.108669	0.909643
	C213	C	0.397023	0.109179	0.104442
	C214	C	0.578699	0.913499	0.104284
	C215	C	0.397679	0.914849	0.911375
	Zn216	Zn	0.487894	0.011158	0.757168
	Zn217	Zn	0.488173	0.011056	0.257574
	Zn218	Zn	0.738099	0.510513	0.007197
	Zn219	Zn	0.238091	0.510957	0.007110
	Zn220	Zn	-0.011132	0.761437	0.507471
	Zn221	Zn	-0.011360	0.259831	0.506762
	Zn222	Zn	-0.011768	0.510370	0.757162
	Zn223	Zn	-0.011862	0.510481	0.257504
	Zn224	Zn	0.487885	0.760274	0.007594
	Zn225	Zn	0.488298	0.261548	0.007025
	Zn226	Zn	0.738566	0.010149	0.507293
	Zn227	Zn	0.238313	0.010231	0.508046
	N228	N	0.402486	0.976029	0.686477
	N229	N	0.575413	0.045916	0.687530
	N230	N	0.575359	0.976033	0.327353
	N231	N	0.401528	0.046149	0.327774
	N232	N	0.668894	0.423446	0.972290
	N233	N	0.667662	0.596955	0.042304
	N234	N	0.307413	0.598136	0.972583
	N235	N	0.308312	0.424387	0.041928
	N236	N	0.953986	0.691347	0.420474
	N237	N	0.023236	0.691832	0.594823
	N238	N	0.953469	0.330635	0.593312
	N239	N	0.023357	0.329136	0.419297
	N240	N	0.953183	0.423626	0.686874
	N241	N	0.023540	0.597630	0.687213
	N242	N	0.953163	0.596582	0.328542
	N243	N	0.023578	0.423713	0.327370
	N244	N	0.401184	0.690468	0.972418
	N245	N	0.574388	0.689979	0.042527
	N246	N	0.575218	0.331202	0.971761
	N247	N	0.402485	0.332416	0.042420
	N248	N	0.668392	0.975460	0.420607
	N249	N	0.668950	0.045232	0.594457
	N250	N	0.308211	0.976391	0.594931
	N251	N	0.307527	0.045330	0.420368
	N252	N	0.901125	0.475665	0.187445
	N253	N	0.074398	0.545883	0.186948
	N254	N	0.075073	0.475119	0.826980
	N255	N	0.902034	0.545720	0.827708
	N256	N	0.168786	0.923283	0.473095
	N257	N	0.168520	0.097231	0.542726
	N258	N	0.809270	0.096558	0.472406
	N259	N	0.808865	0.923875	0.542673
	N260	N	0.452951	0.191723	0.919997
	N261	N	0.523565	0.190466	0.092950
	N262	N	0.453934	0.829729	0.095312
	N263	N	0.522702	0.831191	0.921056
	N264	N	0.452602	0.925257	0.186395
	N265	N	0.523115	0.097598	0.186726
	N266	N	0.452704	0.098196	0.827021
	N267	N	0.523179	0.925169	0.828336
	N268	N	0.902513	0.189231	0.471885
	N269	N	0.075674	0.190743	0.542411
	N270	N	0.074557	0.831721	0.472122
	N271	N	0.902433	0.831463	0.542844
	N272	N	0.168401	0.475853	0.920069
	N273	N	0.168381	0.545354	0.094653
	N274	N	0.808457	0.475557	0.093862
	N275	N	0.808365	0.545638	0.920509
	O276	O	-0.272825	1.276865	0.268850
	H277	H	-0.241350	1.252257	0.240835
	H278	H	-0.268192	1.272116	0.289333
	O279	O	0.067145	0.012815	0.003704
	H280	H	0.075695	0.000402	0.000389
	H281	H	0.058829	0.014344	0.015974
	O282	O	1.201915	-0.196030	0.872622
	H283	H	1.202206	-0.186471	0.876064
	H284	H	1.200846	-0.203931	0.853598
	O285	O	0.280100	0.302089	0.538823
	H286	H	0.280367	0.305834	0.540643
	H287	H	0.276231	0.297175	0.528129
	O288	O	0.613326	0.537776	0.482001
	H289	H	0.616182	0.533186	0.493895
	H290	H	0.613035	0.534864	0.483911
	O291	O	0.197972	0.190767	0.218163
	H292	H	0.203738	0.186453	0.179795
	H293	H	0.228588	0.217333	0.243952
	O294	O	0.939082	-0.018090	0.971565
	H295	H	0.950149	-0.028781	0.962543
	H296	H	0.935864	-0.015279	0.973516
	O297	O	0.511343	0.513890	0.459820
	H298	H	0.519804	0.510999	0.461372
	H299	H	0.511677	0.514837	0.465555
	O300	O	-0.428823	-0.707354	0.291569
	H301	H	-0.416134	-0.697004	0.281700
	H302	H	-0.401020	-0.721375	0.271099
	O303	O	0.519486	0.685900	0.562953
	H304	H	0.528064	0.687810	0.568108
	H305	H	0.528245	0.697632	0.575850
	O306	O	0.532914	0.479299	0.722520
	H307	H	0.538688	0.460819	0.715911
	H308	H	0.509477	0.511371	0.730024
	O309	O	0.696322	0.662273	0.715543
	H310	H	0.703441	0.668664	0.732331
	H311	H	0.711030	0.634328	0.719175
	O312	O	0.253314	0.448780	0.451082
	H313	H	0.250812	0.454459	0.441717
	H314	H	0.256218	0.452362	0.458004
	O315	O	1.351067	0.605189	1.357873
	H316	H	1.375300	0.599098	1.355780
	H317	H	1.342645	0.605031	1.373126
	O318	O	0.301644	0.323912	0.321713
	H319	H	0.306096	0.352375	0.338889
	H320	H	0.326575	0.327693	0.338192
	O321	O	0.205625	1.227026	1.043992
	H322	H	0.213118	1.230667	1.029330
	H323	H	0.208326	1.232889	1.044349
	O324	O	1.208506	0.994107	0.048897
	H325	H	1.221170	0.994168	0.062686
	H326	H	1.205949	0.986446	0.064340
	O327	O	0.183479	0.030557	1.230476
	H328	H	0.186480	0.061785	1.229641
	H329	H	0.200150	0.022139	1.255576
	O330	O	0.717560	0.748265	0.274620
	H331	H	0.710465	0.736134	0.289935
	H332	H	0.744676	0.736331	0.273402
	O333	O	0.521711	0.448565	0.533538
	H334	H	0.520859	0.449900	0.537220
	H335	H	0.516149	0.447303	0.553174
	O336	O	0.696977	0.300444	0.467149
	H337	H	0.707383	0.290049	0.477924
	H338	H	0.688721	0.299197	0.447616
	O339	O	0.772680	0.022324	0.840215
	H340	H	0.766083	0.009958	0.859776
	H341	H	0.759255	0.016803	0.827275
	O342	O	0.137086	0.010960	-0.175265
	H343	H	0.143744	0.008035	-0.158941
	H344	H	0.131925	0.028970	-0.179827
	O345	O	0.082077	1.209608	0.874893
	H346	H	0.069645	1.182840	0.864064
	H347	H	0.079436	1.220670	0.871415
	O348	O	0.782419	0.216044	0.798059
	H349	H	0.792095	0.203158	0.795576
	H350	H	0.785406	0.197194	0.819214
	O351	O	0.402456	0.509725	0.635063
	H352	H	0.395448	0.525518	0.634176
	H353	H	0.389408	0.503407	0.634872
	O354	O	-0.043571	0.233573	0.783633
	H355	H	-0.042849	0.236662	0.790666
	H356	H	-0.055066	0.257875	0.761181
	O357	O	0.268893	0.722853	0.476389
	H358	H	0.274247	0.717326	0.465466
	H359	H	0.261099	0.744692	0.472684
	O360	O	0.255992	-0.335238	1.394947
	H361	H	0.261788	-0.335635	1.388571
	H362	H	0.268877	-0.336218	1.399904
	O363	O	-0.066992	0.182766	0.113713
	H364	H	-0.047794	0.188361	0.109728
	H365	H	-0.049124	0.180761	0.122311
	O366	O	0.354096	0.533403	0.292170
	H367	H	0.354252	0.531865	0.284635
	H368	H	0.346724	0.549359	0.291995
	O369	O	0.954017	-0.197484	0.217348
	H370	H	0.965002	-0.200885	0.228678
	H371	H	0.963389	-0.192183	0.220239
	O372	O	0.976896	0.935674	-0.142396
	H373	H	0.973303	0.938561	-0.142049
	H374	H	0.988808	0.946864	-0.135494
	O375	O	0.984360	0.116027	-0.051998
	H376	H	0.966143	0.116267	-0.044300
	H377	H	1.002655	0.108631	-0.043085
	O378	O	0.501478	0.498361	0.309293
	H379	H	0.504088	0.495295	0.308620
	H380	H	0.512765	0.497214	0.321494
	O381	O	0.270108	0.504742	0.657934
	H382	H	0.264537	0.512648	0.656821
	H383	H	0.262367	0.518595	0.653662
	O384	O	1.145564	-0.096080	1.153680
	H385	H	1.150328	-0.089372	1.157560
	H386	H	1.154618	-0.097318	1.152806
	O387	O	1.033688	0.852459	-0.165210
	H388	H	1.033736	0.863921	-0.168739
	H389	H	1.028315	0.855181	-0.179695
	O390	O	0.708622	0.474807	0.290492
	H391	H	0.709798	0.469499	0.290946
	H392	H	0.723320	0.467134	0.279808
	O393	O	0.666583	0.410947	0.600227
	H394	H	0.653794	0.412052	0.603271
	H395	H	0.678434	0.392676	0.614828
	O396	O	-0.174574	0.954210	0.989693
	H397	H	-0.163731	0.945279	1.006720
	H398	H	-0.177827	0.943580	0.995942
	O399	O	-0.184259	-0.014428	0.849213
	H400	H	-0.191987	-0.017118	0.862543
	H401	H	-0.181485	-0.006589	0.846091
	O402	O	0.426785	0.677382	0.562899
	H403	H	0.431562	0.669359	0.566604
	H404	H	0.435384	0.683239	0.581102
	O405	O	1.237843	-0.227267	1.234376
	H406	H	1.243470	-0.234879	1.240719
	H407	H	1.256088	-0.223235	1.236201
	O408	O	-0.127360	-0.072939	-0.163885
	H409	H	-0.121394	-0.062196	-0.139493
	H410	H	-0.103350	-0.060523	-0.147746
	O411	O	0.456868	0.289911	0.730243
	H412	H	0.436118	0.272806	0.745913
	H413	H	0.438310	0.285714	0.739752
	O414	O	0.465300	0.296562	0.390362
	H415	H	0.490216	0.300187	0.402128
	H416	H	0.487507	0.280256	0.374779
	O417	O	0.508044	0.336984	0.480598
	H418	H	0.518774	0.335950	0.488708
	H419	H	0.502537	0.342121	0.477375
	O420	O	0.494987	0.568266	0.284818
	H421	H	0.496433	0.566622	0.277665
	H422	H	0.504830	0.560069	0.289650
	O423	O	-0.147083	-0.197009	1.013016
	H424	H	-0.146024	-0.206735	1.029925
	H425	H	-0.154534	-0.211115	1.024488
	O426	O	0.465416	0.718305	0.424952
	H427	H	0.476122	0.711611	0.416463
	H428	H	0.485127	0.722073	0.431843
	O429	O	1.022777	1.228457	1.223286
	H430	H	1.053074	1.225979	1.225170
	H431	H	1.032348	1.245777	1.246620
	O432	O	0.445555	0.719647	0.717390
	H433	H	0.450099	0.738120	0.742581
	H434	H	0.479466	0.710835	0.701317
	O435	O	0.032086	0.847601	0.073319
	H436	H	0.038716	0.856449	0.059120
	H437	H	0.050145	0.842710	0.064007
	O438	O	0.139885	-0.187062	-0.001570
	H439	H	0.155902	-0.193125	0.003548
	H440	H	0.136690	-0.195626	-0.008979
	O441	O	0.231388	-0.254648	-0.240943
	H442	H	0.216477	-0.247954	-0.237895
	H443	H	0.235597	-0.253122	-0.260523
	O444	O	0.445521	0.554247	-0.362297
	H445	H	0.443026	0.559131	-0.344294
	H446	H	0.440820	0.550126	-0.358665
	O447	O	0.541575	0.677485	0.612408
	H448	H	0.542186	0.687931	0.623463
	H449	H	0.547090	0.686844	0.617929
	O450	O	-0.208361	1.207118	0.958081
	H451	H	-0.193935	1.208440	0.957714
	H452	H	-0.223499	1.220527	0.955288
	O453	O	0.694996	0.641094	0.371921
	H454	H	0.691246	0.615181	0.390142
	H455	H	0.685387	0.627187	0.372299
	O456	O	0.287872	0.309627	0.704522
	H457	H	0.282341	0.337967	0.690015
	H458	H	0.285102	0.312505	0.701034
	O459	O	0.770744	0.978588	0.223214
	H460	H	0.754122	0.975869	0.234772
	H461	H	0.774728	0.956127	0.231036
	O462	O	1.102642	0.041135	-0.219537
	H463	H	1.095553	0.049405	-0.221893
	H464	H	1.101132	0.044197	-0.228994
	O465	O	0.936445	0.032252	0.213410
	H466	H	0.924287	0.028596	0.216553
	H467	H	0.936800	0.041212	0.206761
	O468	O	0.663488	0.520250	0.715804
	H469	H	0.674699	0.513628	0.726199
	H470	H	0.652604	0.504733	0.710608
	O471	O	0.699701	0.396508	0.620307
	H472	H	0.688991	0.407216	0.625890
	H473	H	0.707295	0.385230	0.633966
	O474	O	0.121312	1.153641	-0.048006
	H475	H	0.110597	1.144807	-0.064273
	H476	H	0.129451	1.140711	-0.048492
	O477	O	0.925151	0.774022	1.942398
	H478	H	0.937769	0.773338	1.932961
	H479	H	0.929923	0.759866	1.946284
	O480	O	0.775061	0.799661	0.128552
	H481	H	0.775449	0.821300	0.132134
	H482	H	0.769168	0.780578	0.133396
	O483	O	0.604120	0.628681	0.530684
	H484	H	0.612782	0.622514	0.523904
	H485	H	0.617573	0.622884	0.527149
	O486	O	0.868922	0.086452	1.086026
	H487	H	0.873477	0.075434	1.085898
	H488	H	0.859210	0.094227	1.078543
	O489	O	0.797332	1.164265	0.145147
	H490	H	0.812560	1.141073	0.141343
	H491	H	0.813919	1.161419	0.118964
