data_Molecule from HDF5

_cell_length_a		16.306939
_cell_length_b		16.320217
_cell_length_c		16.328096
_cell_angle_alpha	90.105144
_cell_angle_beta	90.103402
_cell_angle_gamma	89.957409
_symmetry_space_group_name_H-M	'P 1'
_symmetry_Int_Tables_number		1

loop_
	_symmetry_equiv_pos_as_xyz
	x,y,z

loop_
	_atom_site_label
	_atom_site_type_symbol
	_atom_site_fract_x
	_atom_site_fract_y
	_atom_site_fract_z
	H0	H	0.400032	0.835215	0.711601
	H1	H	0.597419	0.161311	0.713241
	H2	H	0.595810	0.834685	0.283634
	H3	H	0.400137	0.162323	0.282698
	H4	H	0.713946	0.399555	0.834167
	H5	H	0.715195	0.596302	0.161002
	H6	H	0.285316	0.596261	0.834601
	H7	H	0.284633	0.398859	0.160276
	H8	H	0.835543	0.712870	0.399543
	H9	H	0.163064	0.713277	0.595831
	H10	H	0.835552	0.286038	0.594089
	H11	H	0.162953	0.282960	0.398410
	H12	H	0.836656	0.400554	0.712170
	H13	H	0.163126	0.596880	0.711472
	H14	H	0.836262	0.598045	0.282051
	H15	H	0.163645	0.400426	0.282776
	H16	H	0.400633	0.712941	0.834596
	H17	H	0.599739	0.713657	0.161247
	H18	H	0.598158	0.282813	0.835104
	H19	H	0.403163	0.285172	0.161778
	H20	H	0.713695	0.835150	0.398824
	H21	H	0.714117	0.161420	0.596809
	H22	H	0.285151	0.835274	0.594629
	H23	H	0.283277	0.162957	0.398887
	H24	H	0.902434	0.336381	0.212770
	H25	H	0.098445	0.662250	0.212023
	H26	H	0.098335	0.335984	0.782509
	H27	H	0.901604	0.662525	0.783577
	H28	H	0.212211	0.901627	0.334453
	H29	H	0.214493	0.098750	0.660739
	H30	H	0.784489	0.096411	0.334202
	H31	H	0.785279	0.900357	0.660992
	H32	H	0.336309	0.213465	0.899195
	H33	H	0.663450	0.212326	0.097624
	H34	H	0.334879	0.785046	0.093310
	H35	H	0.663039	0.783083	0.898711
	H36	H	0.334793	0.900678	0.210933
	H37	H	0.662745	0.095830	0.213389
	H38	H	0.336106	0.096950	0.782902
	H39	H	0.662231	0.898369	0.781941
	H40	H	0.900350	0.213045	0.334003
	H41	H	0.098643	0.214541	0.660409
	H42	H	0.097206	0.784594	0.334125
	H43	H	0.901627	0.785079	0.660820
	H44	H	0.214334	0.335670	0.899393
	H45	H	0.213977	0.662145	0.095526
	H46	H	0.787273	0.334953	0.095266
	H47	H	0.785167	0.661516	0.899741
	H48	H	0.405467	0.115968	0.595394
	H49	H	0.594506	0.881040	0.593385
	H50	H	0.589998	0.112966	0.407978
	H51	H	0.402253	0.882503	0.403442
	H52	H	0.605012	0.398886	0.118930
	H53	H	0.597596	0.594198	0.879592
	H54	H	0.414574	0.594679	0.112900
	H55	H	0.408793	0.400230	0.880733
	H56	H	0.114894	0.586374	0.398918
	H57	H	0.884897	0.594052	0.582595
	H58	H	0.116073	0.411294	0.596038
	H59	H	0.881324	0.405748	0.394701
	H60	H	0.117887	0.397889	0.591429
	H61	H	0.885144	0.584331	0.594149
	H62	H	0.118029	0.599859	0.402842
	H63	H	0.883780	0.397550	0.410824
	H64	H	0.401347	0.596351	0.116827
	H65	H	0.593932	0.583904	0.883445
	H66	H	0.595652	0.417347	0.110603
	H67	H	0.402660	0.406177	0.881160
	H68	H	0.594624	0.114942	0.405079
	H69	H	0.588229	0.884150	0.590549
	H70	H	0.411022	0.112717	0.589604
	H71	H	0.406476	0.882560	0.401187
	H72	H	0.908697	0.613929	0.088322
	H73	H	0.090289	0.386851	0.079563
	H74	H	0.097137	0.618634	0.894532
	H75	H	0.903130	0.382944	0.909477
	H76	H	0.086718	0.900451	0.613567
	H77	H	0.086687	0.085355	0.384629
	H78	H	0.902957	0.085939	0.612071
	H79	H	0.907766	0.906286	0.381616
	H80	H	0.615455	0.085084	0.899002
	H81	H	0.384962	0.086896	0.091125
	H82	H	0.616349	0.906152	0.095345
	H83	H	0.383921	0.909326	0.900279
	H84	H	0.615321	0.900601	0.089785
	H85	H	0.381448	0.094983	0.093865
	H86	H	0.617987	0.098031	0.904097
	H87	H	0.380819	0.899175	0.902544
	H88	H	0.913102	0.094068	0.612149
	H89	H	0.088826	0.098462	0.381145
	H90	H	0.099634	0.902599	0.616869
	H91	H	0.905240	0.902903	0.381241
	H92	H	0.082335	0.611666	0.906499
	H93	H	0.104241	0.378735	0.093357
	H94	H	0.904221	0.616315	0.090370
	H95	H	0.905865	0.379581	0.897007
	H96	H	0.403172	0.114562	0.587603
	H97	H	0.593929	0.882850	0.586150
	H98	H	0.589739	0.114814	0.402184
	H99	H	0.405862	0.883824	0.405997
	H100	H	0.583574	0.398790	0.113077
	H101	H	0.586754	0.593296	0.883953
	H102	H	0.406146	0.583666	0.111654
	H103	H	0.410292	0.408096	0.883617
	H104	H	0.112473	0.590687	0.412482
	H105	H	0.880147	0.598382	0.595823
	H106	H	0.113187	0.408031	0.582752
	H107	H	0.888627	0.415625	0.408373
	H108	H	0.907637	0.615021	0.093703
	H109	H	0.084559	0.382866	0.099810
	H110	H	0.100968	0.614385	0.913638
	H111	H	0.915283	0.386015	0.904984
	H112	H	0.092083	0.912925	0.611667
	H113	H	0.098817	0.089608	0.380176
	H114	H	0.901313	0.098284	0.616849
	H115	H	0.903227	0.906888	0.381746
	H116	H	0.612187	0.087981	0.912332
	H117	H	0.385402	0.093323	0.085076
	H118	H	0.613567	0.908456	0.088604
	H119	H	0.385173	0.905698	0.910089
	C120	C	0.377709	0.006430	0.618992
	C121	C	0.620783	0.990126	0.619189
	C122	C	0.619978	0.006519	0.376466
	C123	C	0.376458	0.991225	0.375613
	C124	C	0.622947	0.375921	0.006522
	C125	C	0.621735	0.619544	0.990062
	C126	C	0.379239	0.619165	0.005687
	C127	C	0.379165	0.376693	0.989607
	C128	C	0.007443	0.620647	0.376193
	C129	C	0.991318	0.620535	0.619112
	C130	C	0.007823	0.377452	0.618501
	C131	C	0.992047	0.377207	0.375564
	C132	C	0.879046	0.507039	0.118948
	C133	C	0.121665	0.490791	0.119240
	C134	C	0.121827	0.507275	0.876099
	C135	C	0.878850	0.490140	0.875385
	C136	C	0.120713	0.877409	0.505808
	C137	C	0.120482	0.120394	0.489558
	C138	C	0.877467	0.120502	0.505499
	C139	C	0.877450	0.877101	0.489509
	C140	C	0.507588	0.119615	0.876341
	C141	C	0.491502	0.119911	0.119367
	C142	C	0.506932	0.876598	0.119430
	C143	C	0.491294	0.876050	0.875585
	C144	C	0.380026	0.883868	0.673582
	C145	C	0.618164	0.112758	0.674954
	C146	C	0.617205	0.883553	0.321177
	C147	C	0.379160	0.113825	0.320645
	C148	C	0.677078	0.378409	0.883382
	C149	C	0.677243	0.617287	0.112399
	C150	C	0.323512	0.616490	0.883210
	C151	C	0.323651	0.379014	0.112170
	C152	C	0.884457	0.675392	0.378582
	C153	C	0.114386	0.675521	0.616631
	C154	C	0.884510	0.323220	0.615277
	C155	C	0.114424	0.321259	0.377752
	C156	C	0.885076	0.380201	0.673677
	C157	C	0.114501	0.617557	0.673882
	C158	C	0.884750	0.618254	0.320444
	C159	C	0.114943	0.380018	0.320827
	C160	C	0.380613	0.674476	0.883233
	C161	C	0.619766	0.675500	0.112388
	C162	C	0.619570	0.320411	0.883862
	C163	C	0.382135	0.322213	0.112557
	C164	C	0.675144	0.883731	0.378888
	C165	C	0.675723	0.112874	0.617034
	C166	C	0.322834	0.883941	0.615428
	C167	C	0.321301	0.114053	0.378508
	C168	C	0.881824	0.384429	0.174462
	C169	C	0.118837	0.613549	0.173973
	C170	C	0.119325	0.384767	0.820372
	C171	C	0.881072	0.613539	0.821098
	C172	C	0.174747	0.880685	0.383040
	C173	C	0.176308	0.118562	0.612105
	C174	C	0.822482	0.117294	0.382786
	C175	C	0.822922	0.880157	0.612270
	C176	C	0.385123	0.175594	0.878502
	C177	C	0.614645	0.174558	0.117769
	C178	C	0.383789	0.822318	0.115071
	C179	C	0.614023	0.820740	0.877967
	C180	C	0.383780	0.879779	0.173292
	C181	C	0.614363	0.116564	0.175045
	C182	C	0.384759	0.117250	0.821334
	C183	C	0.613717	0.878519	0.820441
	C184	C	0.880033	0.175259	0.382780
	C185	C	0.118335	0.175662	0.612231
	C186	C	0.117711	0.822302	0.382991
	C187	C	0.880838	0.822745	0.612267
	C188	C	0.176596	0.384402	0.878638
	C189	C	0.176653	0.613394	0.116346
	C190	C	0.824821	0.383903	0.115932
	C191	C	0.822851	0.612921	0.878319
	C192	C	0.400014	0.092336	0.597347
	C193	C	0.598582	0.904768	0.596759
	C194	C	0.597824	0.092031	0.398738
	C195	C	0.398432	0.905283	0.397088
	C196	C	0.601350	0.398447	0.092162
	C197	C	0.599205	0.597067	0.904451
	C198	C	0.401124	0.597794	0.091647
	C199	C	0.400843	0.398489	0.903761
	C200	C	0.093126	0.598649	0.398355
	C201	C	0.905528	0.598657	0.597345
	C202	C	0.093419	0.399225	0.596572
	C203	C	0.906581	0.399806	0.397978
	C204	C	0.900524	0.592920	0.097206
	C205	C	0.099563	0.404858	0.097195
	C206	C	0.100042	0.592985	0.898380
	C207	C	0.901503	0.404815	0.897322
	C208	C	0.099105	0.898841	0.591871
	C209	C	0.097941	0.097945	0.404139
	C210	C	0.899531	0.099231	0.591483
	C211	C	0.899061	0.898831	0.403494
	C212	C	0.593179	0.096935	0.898591
	C213	C	0.405946	0.098153	0.096650
	C214	C	0.592997	0.898748	0.097803
	C215	C	0.405292	0.898161	0.897870
	Zn216	Zn	0.499191	-0.002138	0.747663
	Zn217	Zn	0.498776	-0.001449	0.247709
	Zn218	Zn	0.750885	0.498117	-0.002737
	Zn219	Zn	0.250340	0.498390	-0.001798
	Zn220	Zn	-0.000649	0.748700	0.497461
	Zn221	Zn	-0.000631	0.248528	0.497613
	Zn222	Zn	0.000040	0.499402	0.747173
	Zn223	Zn	-0.000121	0.499757	0.247566
	Zn224	Zn	0.499574	0.748457	-0.002280
	Zn225	Zn	0.500215	0.248216	-0.001653
	Zn226	Zn	0.749128	-0.001485	0.497674
	Zn227	Zn	0.248874	-0.000804	0.497961
	N228	N	0.413626	0.961162	0.675819
	N229	N	0.584574	0.035447	0.676365
	N230	N	0.583435	0.960627	0.319866
	N231	N	0.412589	0.036497	0.318707
	N232	N	0.679350	0.412044	0.960784
	N233	N	0.678547	0.583282	0.035343
	N234	N	0.322497	0.582714	0.960450
	N235	N	0.321611	0.412135	0.034756
	N236	N	0.961697	0.676917	0.412604
	N237	N	0.036854	0.677448	0.583265
	N238	N	0.961815	0.321524	0.581420
	N239	N	0.037202	0.319816	0.411512
	N240	N	0.962734	0.412930	0.676070
	N241	N	0.037037	0.584130	0.675487
	N242	N	0.962301	0.585048	0.318892
	N243	N	0.037660	0.413945	0.319086
	N244	N	0.414522	0.676276	0.960339
	N245	N	0.585840	0.676990	0.035085
	N246	N	0.586744	0.318740	0.961332
	N247	N	0.416143	0.321087	0.035538
	N248	N	0.677057	0.961252	0.412574
	N249	N	0.677738	0.035708	0.583404
	N250	N	0.321550	0.961367	0.582064
	N251	N	0.319547	0.036609	0.411912
	N252	N	0.914958	0.461956	0.176240
	N253	N	0.085521	0.536184	0.175931
	N254	N	0.085971	0.462131	0.818792
	N255	N	0.915184	0.536388	0.819141
	N256	N	0.176726	0.914023	0.460342
	N257	N	0.177373	0.084539	0.534939
	N258	N	0.820654	0.084197	0.460122
	N259	N	0.820810	0.913303	0.534811
	N260	N	0.462576	0.177156	0.912113
	N261	N	0.537404	0.176651	0.083880
	N262	N	0.461535	0.820073	0.082433
	N263	N	0.536712	0.819146	0.911584
	N264	N	0.461274	0.912917	0.175758
	N265	N	0.536689	0.083485	0.176451
	N266	N	0.461746	0.082841	0.820126
	N267	N	0.536285	0.912185	0.819011
	N268	N	0.913644	0.177172	0.460188
	N269	N	0.084594	0.177038	0.535119
	N270	N	0.084705	0.820314	0.460495
	N271	N	0.913965	0.820801	0.534861
	N272	N	0.178337	0.461614	0.912600
	N273	N	0.178573	0.535840	0.083306
	N274	N	0.823117	0.460977	0.082170
	N275	N	0.821451	0.535343	0.911347
	O276	O	-0.017221	0.090091	1.008069
	H277	H	-0.019398	0.093546	1.005759
	H278	H	-0.012156	0.089708	1.009277
	O279	O	0.534531	0.547409	0.498482
	H280	H	0.538801	0.541178	0.501514
	H281	H	0.538880	0.543573	0.500332
	O282	O	0.547159	0.587846	0.516491
	H283	H	0.549041	0.589574	0.514794
	H284	H	0.546491	0.584564	0.511937
	O285	O	0.559205	0.528670	0.523828
	H286	H	0.570449	0.529821	0.526193
	H287	H	0.565403	0.527563	0.531394
	O288	O	0.568826	0.542880	0.547943
	H289	H	0.563961	0.556786	0.538376
	H290	H	0.569093	0.542396	0.541983
	O291	O	-0.003875	1.074633	1.013033
	H292	H	-0.007183	1.081171	1.011053
	H293	H	0.003496	1.077035	1.017289
	O294	O	0.551564	0.569445	0.530132
	H295	H	0.544905	0.579518	0.535985
	H296	H	0.547686	0.566736	0.530175
	O297	O	0.980990	0.084382	0.020707
	H298	H	0.975905	0.083321	0.013540
	H299	H	0.980708	0.090544	0.022893
