data_Molecule from HDF5

_cell_length_a		16.345040
_cell_length_b		16.359625
_cell_length_c		16.255573
_cell_angle_alpha	89.889269
_cell_angle_beta	90.023361
_cell_angle_gamma	90.150858
_symmetry_space_group_name_H-M	'P 1'
_symmetry_Int_Tables_number		1

loop_
	_symmetry_equiv_pos_as_xyz
	x,y,z

loop_
	_atom_site_label
	_atom_site_type_symbol
	_atom_site_fract_x
	_atom_site_fract_y
	_atom_site_fract_z
	H0	H	0.407038	0.835459	0.727197
	H1	H	0.614189	0.157672	0.728043
	H2	H	0.607845	0.834069	0.295111
	H3	H	0.409890	0.159444	0.290537
	H4	H	0.732092	0.394586	0.847927
	H5	H	0.728386	0.596049	0.173570
	H6	H	0.293849	0.600401	0.849074
	H7	H	0.294870	0.392049	0.171935
	H8	H	0.848239	0.715630	0.405213
	H9	H	0.169152	0.721814	0.615163
	H10	H	0.848348	0.280236	0.611900
	H11	H	0.170421	0.279313	0.405247
	H12	H	0.850367	0.394724	0.729936
	H13	H	0.171369	0.603998	0.728107
	H14	H	0.848542	0.597596	0.292580
	H15	H	0.172292	0.396436	0.293340
	H16	H	0.410189	0.714274	0.847748
	H17	H	0.615580	0.714987	0.171468
	H18	H	0.615784	0.278560	0.847256
	H19	H	0.413193	0.279358	0.172685
	H20	H	0.729352	0.836937	0.404747
	H21	H	0.728334	0.159204	0.609619
	H22	H	0.288341	0.838038	0.613985
	H23	H	0.293526	0.160197	0.405912
	H24	H	0.913951	0.335070	0.225095
	H25	H	0.111810	0.660233	0.225685
	H26	H	0.115924	0.337505	0.789168
	H27	H	0.909784	0.659676	0.791390
	H28	H	0.224345	0.899849	0.345340
	H29	H	0.228752	0.102889	0.670073
	H30	H	0.794826	0.098437	0.345075
	H31	H	0.790139	0.894077	0.669958
	H32	H	0.350975	0.216070	0.905931
	H33	H	0.674025	0.212550	0.111060
	H34	H	0.351275	0.775151	0.113727
	H35	H	0.673510	0.779771	0.907518
	H36	H	0.348386	0.896040	0.224372
	H37	H	0.673290	0.094739	0.225235
	H38	H	0.349053	0.097876	0.792519
	H39	H	0.671247	0.893024	0.789147
	H40	H	0.908191	0.215702	0.345621
	H41	H	0.111009	0.215765	0.670282
	H42	H	0.109227	0.782362	0.346321
	H43	H	0.903078	0.776816	0.669052
	H44	H	0.229246	0.335286	0.908509
	H45	H	0.232838	0.657827	0.113221
	H46	H	0.794859	0.336010	0.113466
	H47	H	0.793089	0.658336	0.906812
	H48	H	0.422310	0.112863	0.604761
	H49	H	0.598264	0.883183	0.601233
	H50	H	0.600447	0.112154	0.417000
	H51	H	0.422483	0.883726	0.414981
	H52	H	0.602942	0.402711	0.124479
	H53	H	0.602261	0.585326	0.896216
	H54	H	0.427057	0.582333	0.123378
	H55	H	0.424537	0.412024	0.897832
	H56	H	0.127852	0.591998	0.412022
	H57	H	0.895003	0.590985	0.598947
	H58	H	0.123714	0.409107	0.597155
	H59	H	0.896021	0.408536	0.418423
	H60	H	0.125472	0.407728	0.600752
	H61	H	0.898477	0.584333	0.597289
	H62	H	0.124783	0.597511	0.425408
	H63	H	0.894144	0.406336	0.414991
	H64	H	0.425207	0.590242	0.126190
	H65	H	0.601942	0.590625	0.894287
	H66	H	0.605888	0.402791	0.126138
	H67	H	0.426185	0.401899	0.894506
	H68	H	0.604201	0.113024	0.417467
	H69	H	0.599494	0.884637	0.595105
	H70	H	0.423634	0.108233	0.595473
	H71	H	0.414995	0.884717	0.424435
	H72	H	0.910475	0.615135	0.099960
	H73	H	0.098793	0.384369	0.101254
	H74	H	0.104098	0.610173	0.924262
	H75	H	0.918738	0.384621	0.923369
	H76	H	0.107306	0.916892	0.623887
	H77	H	0.109627	0.095617	0.388224
	H78	H	0.918441	0.090575	0.624220
	H79	H	0.921827	0.904685	0.393338
	H80	H	0.629144	0.092097	0.914264
	H81	H	0.400478	0.080889	0.094962
	H82	H	0.626795	0.908246	0.103774
	H83	H	0.395282	0.913478	0.908028
	H84	H	0.627569	0.902472	0.102820
	H85	H	0.393406	0.088246	0.107456
	H86	H	0.624378	0.088434	0.924404
	H87	H	0.392047	0.890409	0.918538
	H88	H	0.918132	0.087531	0.624017
	H89	H	0.102061	0.081145	0.395740
	H90	H	0.088228	0.912946	0.618939
	H91	H	0.915935	0.906220	0.391954
	H92	H	0.106751	0.613134	0.918574
	H93	H	0.108726	0.382413	0.097383
	H94	H	0.924453	0.614419	0.109606
	H95	H	0.923167	0.383087	0.915555
	H96	H	0.414726	0.112783	0.597922
	H97	H	0.603830	0.882093	0.598399
	H98	H	0.602664	0.113318	0.413964
	H99	H	0.411264	0.880605	0.413840
	H100	H	0.604628	0.406119	0.124588
	H101	H	0.606893	0.587468	0.893397
	H102	H	0.418964	0.583732	0.125568
	H103	H	0.416809	0.406401	0.892660
	H104	H	0.121309	0.583631	0.422659
	H105	H	0.894838	0.585428	0.604325
	H106	H	0.124291	0.405309	0.597564
	H107	H	0.894790	0.403939	0.419292
	H108	H	0.924841	0.609403	0.093590
	H109	H	0.106073	0.379882	0.107842
	H110	H	0.100228	0.611260	0.917612
	H111	H	0.928100	0.386129	0.922952
	H112	H	0.099964	0.899109	0.627098
	H113	H	0.092993	0.094997	0.393764
	H114	H	0.920143	0.088544	0.622657
	H115	H	0.919287	0.910231	0.395335
	H116	H	0.625290	0.081306	0.915787
	H117	H	0.395733	0.095975	0.093790
	H118	H	0.624695	0.905094	0.097975
	H119	H	0.402397	0.909676	0.932456
	C120	C	0.388016	0.005362	0.630914
	C121	C	0.631829	0.989118	0.629394
	C122	C	0.631748	0.005749	0.386717
	C123	C	0.387506	0.989867	0.387198
	C124	C	0.635327	0.374197	0.017988
	C125	C	0.634336	0.617998	1.001545
	C126	C	0.392387	0.616933	0.018421
	C127	C	0.391768	0.375076	1.001891
	C128	C	0.018124	0.619938	0.388537
	C129	C	1.001737	0.620193	0.631389
	C130	C	0.018716	0.376461	0.630808
	C131	C	1.001633	0.376411	0.387564
	C132	C	0.890682	0.505902	0.131214
	C133	C	0.134674	0.488994	0.132807
	C134	C	0.134225	0.505522	0.888311
	C135	C	0.891490	0.490016	0.888967
	C136	C	0.129078	0.878558	0.516536
	C137	C	0.131974	0.120883	0.499537
	C138	C	0.889037	0.119280	0.516177
	C139	C	0.887690	0.875969	0.499976
	C140	C	0.519429	0.117773	0.887760
	C141	C	0.503101	0.118297	0.130104
	C142	C	0.519452	0.874303	0.131054
	C143	C	0.503082	0.874637	0.888563
	C144	C	0.387725	0.884253	0.688537
	C145	C	0.632720	0.109994	0.688046
	C146	C	0.628984	0.883190	0.332014
	C147	C	0.389669	0.111273	0.329410
	C148	C	0.693299	0.374785	0.896367
	C149	C	0.690867	0.616657	0.124261
	C150	C	0.333304	0.618643	0.897182
	C151	C	0.333987	0.373736	0.123492
	C152	C	0.896604	0.676455	0.387240
	C153	C	0.121509	0.681299	0.633184
	C154	C	0.897311	0.318554	0.631820
	C155	C	0.122676	0.318656	0.387170
	C156	C	0.898169	0.375922	0.690260
	C157	C	0.122874	0.622342	0.689396
	C158	C	0.896897	0.618106	0.330622
	C159	C	0.123453	0.377088	0.331165
	C160	C	0.391381	0.675284	0.896554
	C161	C	0.634792	0.675624	0.123373
	C162	C	0.635153	0.317326	0.895864
	C163	C	0.392716	0.317445	0.123845
	C164	C	0.689314	0.884706	0.386816
	C165	C	0.689457	0.110727	0.629092
	C166	C	0.328159	0.885772	0.632280
	C167	C	0.331945	0.111622	0.386908
	C168	C	0.893309	0.383807	0.187416
	C169	C	0.133134	0.610840	0.188814
	C170	C	0.134551	0.385075	0.829395
	C171	C	0.890653	0.611188	0.830457
	C172	C	0.186090	0.879463	0.394298
	C173	C	0.189707	0.121394	0.621468
	C174	C	0.832808	0.118460	0.393783
	C175	C	0.828663	0.874816	0.621207
	C176	C	0.398884	0.176749	0.886752
	C177	C	0.625175	0.174247	0.130075
	C178	C	0.398914	0.815239	0.131830
	C179	C	0.624763	0.817964	0.888094
	C180	C	0.397342	0.875339	0.187041
	C181	C	0.624852	0.115753	0.187156
	C182	C	0.397775	0.117391	0.830857
	C183	C	0.623714	0.874676	0.829404
	C184	C	0.889196	0.176808	0.394202
	C185	C	0.131400	0.177740	0.621728
	C186	C	0.128941	0.821047	0.394719
	C187	C	0.885020	0.816420	0.620973
	C188	C	0.191403	0.384117	0.888520
	C189	C	0.192976	0.609921	0.132514
	C190	C	0.834171	0.384160	0.131648
	C191	C	0.832505	0.610381	0.887609
	C192	C	0.413191	0.089613	0.606403
	C193	C	0.607620	0.905292	0.605246
	C194	C	0.608971	0.090729	0.409475
	C195	C	0.409814	0.904993	0.410995
	C196	C	0.611424	0.397072	0.103006
	C197	C	0.610596	0.594671	0.916738
	C198	C	0.416851	0.592458	0.103009
	C199	C	0.415584	0.399629	0.916902
	C200	C	0.102651	0.597524	0.412892
	C201	C	0.917848	0.594391	0.607171
	C202	C	0.102819	0.400556	0.605774
	C203	C	0.916833	0.399573	0.410975
	C204	C	0.913284	0.590980	0.107661
	C205	C	0.111316	0.404132	0.109074
	C206	C	0.110555	0.589707	0.912882
	C207	C	0.916207	0.406181	0.913468
	C208	C	0.105223	0.902616	0.601259
	C209	C	0.108468	0.097360	0.414586
	C210	C	0.912182	0.095709	0.601477
	C211	C	0.912062	0.900101	0.415372
	C212	C	0.604200	0.094032	0.911380
	C213	C	0.418438	0.095167	0.105866
	C214	C	0.604445	0.898216	0.108161
	C215	C	0.418578	0.897755	0.912672
	Zn216	Zn	0.510546	-0.003830	0.758971
	Zn217	Zn	0.509465	-0.003273	0.258993
	Zn218	Zn	0.762303	0.497187	0.009871
	Zn219	Zn	0.263301	0.496483	0.010460
	Zn220	Zn	0.008545	0.748368	0.509338
	Zn221	Zn	0.009543	0.247569	0.508399
	Zn222	Zn	0.011498	0.498389	0.759540
	Zn223	Zn	0.010927	0.498340	0.260192
	Zn224	Zn	0.512406	0.745813	0.009734
	Zn225	Zn	0.512141	0.246536	0.008570
	Zn226	Zn	0.760537	-0.001843	0.507732
	Zn227	Zn	0.259392	-0.000960	0.508457
	N228	N	0.424190	0.959977	0.687734
	N229	N	0.597608	0.033531	0.688470
	N230	N	0.593809	0.959571	0.331783
	N231	N	0.423485	0.034349	0.329168
	N232	N	0.693390	0.409353	0.973337
	N233	N	0.690544	0.581332	0.047607
	N234	N	0.333837	0.582772	0.973861
	N235	N	0.333398	0.409026	0.046551
	N236	N	0.972971	0.677710	0.422470
	N237	N	0.045030	0.680138	0.597964
	N238	N	0.973236	0.318609	0.595561
	N239	N	0.045798	0.317931	0.421628
	N240	N	0.974727	0.411085	0.689787
	N241	N	0.047481	0.584906	0.688360
	N242	N	0.973479	0.583655	0.331228
	N243	N	0.047329	0.412506	0.331467
	N244	N	0.427433	0.674240	0.973008
	N245	N	0.600404	0.676609	0.046248
	N246	N	0.599971	0.316758	0.972511
	N247	N	0.428010	0.318285	0.047201
	N248	N	0.690991	0.961838	0.420165
	N249	N	0.689282	0.034659	0.593413
	N250	N	0.328507	0.962296	0.597097
	N251	N	0.330594	0.035179	0.422031
	N252	N	0.927777	0.460547	0.187146
	N253	N	0.097902	0.534531	0.189047
	N254	N	0.099980	0.461672	0.828973
	N255	N	0.926825	0.535239	0.831141
	N256	N	0.186528	0.914371	0.471191
	N257	N	0.190121	0.086854	0.544505
	N258	N	0.832242	0.083574	0.470734
	N259	N	0.830065	0.911351	0.544867
	N260	N	0.475637	0.177178	0.921293
	N261	N	0.548463	0.175847	0.095225
	N262	N	0.476037	0.814570	0.097895
	N263	N	0.548735	0.817952	0.924197
	N264	N	0.473272	0.911394	0.186687
	N265	N	0.548008	0.081510	0.187078
	N266	N	0.473738	0.081393	0.831389
	N267	N	0.547061	0.909127	0.829538
	N268	N	0.923482	0.177147	0.471441
	N269	N	0.096368	0.177831	0.544780
	N270	N	0.094552	0.820164	0.471891
	N271	N	0.921037	0.817351	0.544786
	N272	N	0.191389	0.460155	0.924245
	N273	N	0.194090	0.533041	0.098378
	N274	N	0.832469	0.461066	0.097288
	N275	N	0.832974	0.534227	0.923156
	O276	O	0.136009	-0.006519	-0.054718
	H277	H	0.135447	0.007199	-0.063455
	H278	H	0.116727	-0.008926	-0.065139
	O279	O	0.491940	0.583642	0.425569
	H280	H	0.485343	0.577382	0.436966
	H281	H	0.489244	0.585397	0.412939
	O282	O	0.988015	0.009636	-0.087791
	H283	H	0.985573	0.012959	-0.072579
	H284	H	0.996852	0.013665	-0.092682
	O285	O	-0.479851	1.541207	-0.534354
	H286	H	-0.489647	1.543525	-0.537106
	H287	H	-0.483422	1.534720	-0.535464
	O288	O	0.405058	0.462568	0.497933
	H289	H	0.421141	0.464428	0.502476
	H290	H	0.389464	0.469474	0.498551
	O291	O	0.431063	0.576196	0.446254
	H292	H	0.425291	0.576562	0.434976
	H293	H	0.431407	0.573989	0.433741
	O294	O	1.031580	1.036444	0.977833
	H295	H	1.023874	1.021647	0.977703
	H296	H	1.022514	1.042227	0.967932
	O297	O	0.193059	-0.061427	-0.036717
	H298	H	0.201132	-0.060850	-0.044221
	H299	H	0.186441	-0.059088	-0.043203
	O300	O	0.503605	0.501765	0.548354
	H301	H	0.510208	0.513384	0.558112
	H302	H	0.499763	0.494595	0.549480
	O303	O	-0.024586	0.862508	0.947651
	H304	H	-0.025308	0.869089	0.942817
	H305	H	-0.033777	0.853218	0.936522
	O306	O	0.610531	0.514596	0.661009
	H307	H	0.613475	0.524940	0.650094
	H308	H	0.607628	0.522097	0.667170
	O309	O	0.998910	0.093635	0.097822
	H310	H	1.004388	0.105408	0.097137
	H311	H	0.995128	0.086216	0.085661
	O312	O	-0.541578	0.635288	0.497405
	H313	H	-0.549639	0.636588	0.481816
	H314	H	-0.545865	0.622596	0.503848
	O315	O	0.351566	0.458913	0.381306
	H316	H	0.349773	0.458035	0.389365
	H317	H	0.335061	0.467240	0.373890
	O318	O	0.451820	0.396128	0.616329
	H319	H	0.453537	0.396898	0.617381
	H320	H	0.450379	0.396748	0.627048
	O321	O	0.391590	0.457922	0.598452
	H322	H	0.368385	0.457177	0.612098
	H323	H	0.396396	0.448208	0.582289
	O324	O	0.528155	0.376891	0.559830
	H325	H	0.526777	0.381310	0.569913
	H326	H	0.538937	0.377798	0.563758
	O327	O	0.139361	1.021997	1.019245
	H328	H	0.139212	1.020276	1.010219
	H329	H	0.130153	1.024277	1.009691
	O330	O	0.569922	0.490649	0.477924
	H331	H	0.571293	0.503794	0.470150
	H332	H	0.579725	0.486947	0.480282
	O333	O	-0.095794	0.828956	1.021242
	H334	H	-0.096445	0.815908	1.016841
	H335	H	-0.079477	0.833202	1.024516
	O336	O	1.098396	1.044429	0.948296
	H337	H	1.093730	1.048109	0.962543
	H338	H	1.104800	1.042428	0.942162
	O339	O	0.344894	0.569389	0.363836
	H340	H	0.341267	0.567012	0.364869
	H341	H	0.356129	0.568597	0.357560
	O342	O	0.904425	0.038991	-0.034546
	H343	H	0.908395	0.034771	-0.028412
	H344	H	0.903623	0.040876	-0.034181
	O345	O	0.355041	0.310083	0.630018
	H346	H	0.380080	0.308307	0.621241
	H347	H	0.355710	0.312829	0.637047
	O348	O	0.908121	0.957727	1.120108
	H349	H	0.913910	0.943977	1.120659
	H350	H	0.909550	0.956366	1.128342
	O351	O	1.036717	0.967410	0.029684
	H352	H	1.029549	0.960989	0.049630
	H353	H	1.036629	0.972299	0.028684
	O354	O	0.558564	0.494994	0.550138
	H355	H	0.548996	0.491085	0.551248
	H356	H	0.542913	0.504789	0.555117
	O357	O	0.482923	0.539319	0.358131
	H358	H	0.476405	0.531879	0.366063
	H359	H	0.486477	0.547380	0.351196
	O360	O	0.034547	-0.002230	-0.126506
	H361	H	0.026406	0.009123	-0.112674
	H362	H	0.027483	0.020882	-0.132365
	O363	O	0.650990	0.546292	0.487568
	H364	H	0.647399	0.551546	0.504996
	H365	H	0.653117	0.543472	0.484756
	O366	O	0.617170	0.451072	0.550572
	H367	H	0.622767	0.455881	0.543107
	H368	H	0.613750	0.442484	0.530800
	O369	O	-0.096157	0.163308	-0.115649
	H370	H	-0.081551	0.165791	-0.120379
	H371	H	-0.100851	0.158270	-0.117137
	O372	O	0.475531	0.478920	0.696636
	H373	H	0.477271	0.462182	0.703955
	H374	H	0.461371	0.483111	0.699576
	O375	O	0.536989	0.639454	0.632674
	H376	H	0.537107	0.654763	0.632430
	H377	H	0.535040	0.640444	0.620814
	O378	O	0.477313	0.448706	0.404014
	H379	H	0.468984	0.455187	0.405885
	H380	H	0.498493	0.444349	0.411193
	O381	O	-0.045184	0.972892	1.013422
	H382	H	-0.056166	0.972172	1.005513
	H383	H	-0.038156	0.974290	1.037159
	O384	O	0.026302	1.004654	-0.032033
	H385	H	0.029502	1.010637	-0.031184
	H386	H	0.021481	1.004811	-0.031059
	O387	O	1.083612	-0.069004	1.044014
	H388	H	1.077173	-0.065482	1.049227
	H389	H	1.088180	-0.069521	1.037147
	O390	O	-0.027389	0.861697	0.005723
	H391	H	-0.024264	0.861238	0.005925
	H392	H	-0.014145	0.859677	-0.001456
	O393	O	0.862669	1.118387	0.009058
	H394	H	0.865070	1.105860	0.006364
	H395	H	0.854033	1.120876	-0.001884
	O396	O	0.641933	0.630340	0.521940
	H397	H	0.644869	0.634470	0.519160
	H398	H	0.642320	0.629422	0.529282
	O399	O	-0.014090	0.976750	1.090642
	H400	H	0.005417	0.980403	1.085760
	H401	H	-0.012075	0.989514	1.091555
	O402	O	0.984404	0.117426	-0.008219
	H403	H	0.980375	0.131165	-0.006361
	H404	H	0.971467	0.107140	-0.002578
	O405	O	0.605007	0.417521	0.496807
	H406	H	0.610147	0.414232	0.482026
	H407	H	0.605135	0.417838	0.497232
