data_Molecule from HDF5

_cell_length_a		16.409332
_cell_length_b		16.265787
_cell_length_c		16.264655
_cell_angle_alpha	90.385320
_cell_angle_beta	90.020807
_cell_angle_gamma	90.178273
_symmetry_space_group_name_H-M	'P 1'
_symmetry_Int_Tables_number		1

loop_
	_symmetry_equiv_pos_as_xyz
	x,y,z

loop_
	_atom_site_label
	_atom_site_type_symbol
	_atom_site_fract_x
	_atom_site_fract_y
	_atom_site_fract_z
	H0	H	0.405733	0.835107	0.724605
	H1	H	0.606460	0.161884	0.724527
	H2	H	0.608783	0.835966	0.291072
	H3	H	0.409012	0.162106	0.296290
	H4	H	0.725631	0.395188	0.846798
	H5	H	0.724665	0.602069	0.171897
	H6	H	0.288130	0.599362	0.847436
	H7	H	0.290512	0.396692	0.171721
	H8	H	0.844984	0.714318	0.411570
	H9	H	0.167278	0.719559	0.615140
	H10	H	0.846349	0.281034	0.611296
	H11	H	0.167871	0.280894	0.408635
	H12	H	0.845039	0.399098	0.726795
	H13	H	0.168586	0.601975	0.729082
	H14	H	0.846024	0.599974	0.293265
	H15	H	0.167280	0.394629	0.291417
	H16	H	0.407114	0.712895	0.845278
	H17	H	0.609127	0.716309	0.171814
	H18	H	0.605831	0.282890	0.845107
	H19	H	0.410057	0.284638	0.172617
	H20	H	0.725025	0.836362	0.405686
	H21	H	0.725247	0.160932	0.612593
	H22	H	0.288112	0.836470	0.611441
	H23	H	0.289299	0.159825	0.407290
	H24	H	0.907399	0.335199	0.224266
	H25	H	0.107454	0.661728	0.227715
	H26	H	0.106608	0.336552	0.793313
	H27	H	0.908032	0.662290	0.796138
	H28	H	0.222233	0.895680	0.347298
	H29	H	0.226928	0.103226	0.672059
	H30	H	0.790225	0.100402	0.348535
	H31	H	0.788976	0.897790	0.672465
	H32	H	0.345837	0.213676	0.908784
	H33	H	0.669416	0.215276	0.108228
	H34	H	0.347133	0.780482	0.109373
	H35	H	0.669117	0.780432	0.905796
	H36	H	0.346046	0.898083	0.224799
	H37	H	0.669018	0.102353	0.227284
	H38	H	0.345428	0.096617	0.793152
	H39	H	0.669585	0.896827	0.790288
	H40	H	0.908356	0.213531	0.347667
	H41	H	0.107711	0.216087	0.673865
	H42	H	0.106370	0.780422	0.348117
	H43	H	0.907314	0.784844	0.674147
	H44	H	0.222104	0.336036	0.907367
	H45	H	0.226817	0.660575	0.114571
	H46	H	0.788789	0.336832	0.111513
	H47	H	0.790153	0.661105	0.908965
	H48	H	0.418067	0.111701	0.595217
	H49	H	0.602518	0.878928	0.605063
	H50	H	0.601190	0.114715	0.419085
	H51	H	0.414989	0.879623	0.409003
	H52	H	0.604093	0.411155	0.125634
	H53	H	0.597933	0.587735	0.894225
	H54	H	0.424821	0.597747	0.124343
	H55	H	0.418396	0.406898	0.895240
	H56	H	0.123252	0.590932	0.413178
	H57	H	0.893198	0.592347	0.601261
	H58	H	0.122866	0.400658	0.599349
	H59	H	0.891727	0.407562	0.415372
	H60	H	0.119300	0.413649	0.598732
	H61	H	0.892442	0.588130	0.606313
	H62	H	0.121602	0.596168	0.426348
	H63	H	0.891524	0.402911	0.418812
	H64	H	0.407043	0.589939	0.127483
	H65	H	0.601029	0.590906	0.892355
	H66	H	0.594162	0.411010	0.122032
	H67	H	0.412228	0.400571	0.890929
	H68	H	0.599776	0.114967	0.417861
	H69	H	0.591206	0.885295	0.599369
	H70	H	0.411787	0.115220	0.601571
	H71	H	0.421717	0.885933	0.420118
	H72	H	0.924345	0.611455	0.101208
	H73	H	0.094489	0.383266	0.104063
	H74	H	0.098946	0.615527	0.917218
	H75	H	0.916191	0.383405	0.918283
	H76	H	0.100997	0.917859	0.623958
	H77	H	0.100843	0.092510	0.394292
	H78	H	0.918705	0.096787	0.628390
	H79	H	0.919120	0.908380	0.396334
	H80	H	0.621377	0.087548	0.917988
	H81	H	0.395023	0.088835	0.098054
	H82	H	0.618845	0.914882	0.095239
	H83	H	0.395042	0.907685	0.916952
	H84	H	0.624572	0.909446	0.108002
	H85	H	0.391901	0.088444	0.106860
	H86	H	0.623441	0.090695	0.913071
	H87	H	0.393294	0.904777	0.914206
	H88	H	0.908826	0.087103	0.627419
	H89	H	0.102010	0.085573	0.395444
	H90	H	0.091467	0.906093	0.624970
	H91	H	0.916390	0.902120	0.393614
	H92	H	0.095978	0.613056	0.923932
	H93	H	0.098868	0.385397	0.095843
	H94	H	0.908822	0.614060	0.095537
	H95	H	0.916937	0.383922	0.920968
	H96	H	0.420399	0.113113	0.604400
	H97	H	0.602967	0.883691	0.591585
	H98	H	0.599442	0.113836	0.419904
	H99	H	0.408455	0.881478	0.421319
	H100	H	0.598347	0.402367	0.126187
	H101	H	0.602270	0.586474	0.893974
	H102	H	0.421228	0.578456	0.119204
	H103	H	0.409352	0.409792	0.892975
	H104	H	0.117721	0.582396	0.423252
	H105	H	0.890039	0.594256	0.606409
	H106	H	0.124027	0.408814	0.610041
	H107	H	0.893671	0.408007	0.421372
	H108	H	0.912666	0.618236	0.111120
	H109	H	0.103254	0.381200	0.102320
	H110	H	0.103427	0.615571	0.923226
	H111	H	0.914805	0.383295	0.919995
	H112	H	0.105534	0.904570	0.629924
	H113	H	0.095824	0.088603	0.396586
	H114	H	0.920806	0.084132	0.622685
	H115	H	0.912005	0.907847	0.394664
	H116	H	0.622498	0.093636	0.918723
	H117	H	0.390795	0.096643	0.102017
	H118	H	0.623251	0.900752	0.096179
	H119	H	0.393205	0.904086	0.918352
	C120	C	0.386169	0.006035	0.630146
	C121	C	0.628870	0.989953	0.630051
	C122	C	0.629461	0.007079	0.388066
	C123	C	0.385745	0.989728	0.388142
	C124	C	0.628819	0.377236	0.017149
	C125	C	0.629801	0.619514	1.000748
	C126	C	0.386751	0.618888	0.016686
	C127	C	0.385042	0.376440	1.000646
	C128	C	0.014735	0.619552	0.390527
	C129	C	0.998412	0.622066	0.634464
	C130	C	0.015455	0.377518	0.632574
	C131	C	0.998580	0.376103	0.388285
	C132	C	0.885408	0.507106	0.131968
	C133	C	0.129588	0.490422	0.132462
	C134	C	0.128549	0.507322	0.889806
	C135	C	0.886446	0.490846	0.889845
	C136	C	0.128579	0.877170	0.518810
	C137	C	0.129591	0.120330	0.502503
	C138	C	0.886277	0.119777	0.519161
	C139	C	0.885679	0.877244	0.502126
	C140	C	0.515574	0.119684	0.887319
	C141	C	0.499143	0.121457	0.131907
	C142	C	0.516057	0.877193	0.130164
	C143	C	0.499844	0.875510	0.885835
	C144	C	0.386523	0.883698	0.686435
	C145	C	0.627174	0.112779	0.686908
	C146	C	0.628111	0.884661	0.330199
	C147	C	0.388063	0.112826	0.333345
	C148	C	0.686759	0.376236	0.895433
	C149	C	0.686056	0.620637	0.123287
	C150	C	0.328188	0.618423	0.895312
	C151	C	0.329197	0.377263	0.123129
	C152	C	0.893248	0.675975	0.391491
	C153	C	0.119412	0.680012	0.634110
	C154	C	0.894111	0.320288	0.631165
	C155	C	0.119695	0.319522	0.388984
	C156	C	0.893686	0.378966	0.688720
	C157	C	0.120041	0.621469	0.690926
	C158	C	0.893852	0.619041	0.332728
	C159	C	0.119115	0.376083	0.330311
	C160	C	0.387407	0.674992	0.894340
	C161	C	0.628767	0.677799	0.123055
	C162	C	0.627010	0.320407	0.894271
	C163	C	0.388226	0.321428	0.123517
	C164	C	0.686181	0.884891	0.387305
	C165	C	0.686080	0.112339	0.630906
	C166	C	0.327806	0.884607	0.630110
	C167	C	0.328583	0.111559	0.388945
	C168	C	0.886928	0.384460	0.187185
	C169	C	0.128238	0.612800	0.189723
	C170	C	0.126735	0.385080	0.831863
	C171	C	0.887782	0.613257	0.833798
	C172	C	0.184306	0.876433	0.396266
	C173	C	0.187380	0.121468	0.623938
	C174	C	0.829408	0.119285	0.396831
	C175	C	0.828048	0.878179	0.624248
	C176	C	0.394128	0.175643	0.888941
	C177	C	0.620914	0.177455	0.129246
	C178	C	0.395273	0.819416	0.129247
	C179	C	0.620971	0.818875	0.886086
	C180	C	0.394679	0.878144	0.186567
	C181	C	0.620693	0.120911	0.188193
	C182	C	0.393985	0.117344	0.831262
	C183	C	0.620997	0.876800	0.828474
	C184	C	0.887996	0.175735	0.396571
	C185	C	0.128413	0.178155	0.624635
	C186	C	0.126239	0.819076	0.396614
	C187	C	0.886926	0.822165	0.625242
	C188	C	0.184354	0.385018	0.888613
	C189	C	0.187501	0.612174	0.133458
	C190	C	0.827828	0.385196	0.131242
	C191	C	0.829206	0.612807	0.890076
	C192	C	0.409826	0.091144	0.607138
	C193	C	0.605760	0.904702	0.605875
	C194	C	0.606833	0.092291	0.411936
	C195	C	0.408423	0.904635	0.410352
	C196	C	0.605621	0.401187	0.102449
	C197	C	0.607000	0.595376	0.915634
	C198	C	0.410749	0.595461	0.101400
	C199	C	0.406936	0.398986	0.915204
	C200	C	0.098809	0.596498	0.413952
	C201	C	0.913838	0.598459	0.611440
	C202	C	0.100011	0.400927	0.609422
	C203	C	0.914158	0.399340	0.411802
	C204	C	0.908539	0.592448	0.109409
	C205	C	0.105844	0.405403	0.108008
	C206	C	0.106023	0.592510	0.914395
	C207	C	0.909232	0.405783	0.912797
	C208	C	0.105972	0.902139	0.604215
	C209	C	0.106255	0.096052	0.417176
	C210	C	0.909445	0.096317	0.604053
	C211	C	0.908953	0.899538	0.417092
	C212	C	0.600517	0.097185	0.909852
	C213	C	0.414516	0.098051	0.108908
	C214	C	0.600362	0.901408	0.106632
	C215	C	0.415663	0.898757	0.909472
	Zn216	Zn	0.507416	-0.001960	0.757900
	Zn217	Zn	0.507679	-0.000994	0.259918
	Zn218	Zn	0.757503	0.498839	0.009987
	Zn219	Zn	0.257039	0.497999	0.009799
	Zn220	Zn	0.006432	0.749423	0.511476
	Zn221	Zn	0.007356	0.248185	0.510671
	Zn222	Zn	0.007558	0.499500	0.761907
	Zn223	Zn	0.007117	0.498538	0.260451
	Zn224	Zn	0.508593	0.747415	0.008353
	Zn225	Zn	0.507315	0.248946	0.008914
	Zn226	Zn	0.757687	-0.001336	0.509841
	Zn227	Zn	0.257270	-0.002101	0.509821
	N228	N	0.422153	0.960282	0.686561
	N229	N	0.592252	0.035803	0.686562
	N230	N	0.593468	0.961654	0.330579
	N231	N	0.422839	0.036215	0.332390
	N232	N	0.687811	0.410993	0.972885
	N233	N	0.687116	0.585397	0.046286
	N234	N	0.327629	0.584266	0.972483
	N235	N	0.327243	0.410851	0.045783
	N236	N	0.969268	0.676191	0.427213
	N237	N	0.042826	0.680733	0.599810
	N238	N	0.970841	0.319491	0.596831
	N239	N	0.043581	0.319363	0.424520
	N240	N	0.970082	0.413720	0.689690
	N241	N	0.043842	0.586140	0.691261
	N242	N	0.970169	0.584547	0.332099
	N243	N	0.042850	0.410723	0.329930
	N244	N	0.423098	0.675342	0.970875
	N245	N	0.594422	0.677432	0.045810
	N246	N	0.591711	0.320994	0.970845
	N247	N	0.422277	0.320686	0.046280
	N248	N	0.687256	0.961987	0.422512
	N249	N	0.687230	0.034958	0.596316
	N250	N	0.327631	0.961591	0.595769
	N251	N	0.326908	0.034018	0.422166
	N252	N	0.922119	0.461397	0.187810
	N253	N	0.093273	0.536005	0.189553
	N254	N	0.093300	0.462397	0.832086
	N255	N	0.922790	0.536605	0.833673
	N256	N	0.185694	0.911718	0.473361
	N257	N	0.188315	0.086388	0.546775
	N258	N	0.828149	0.085194	0.473969
	N259	N	0.827063	0.911640	0.546814
	N260	N	0.470933	0.177358	0.922814
	N261	N	0.544353	0.178010	0.095011
	N262	N	0.471779	0.818815	0.095083
	N263	N	0.544791	0.817725	0.920880
	N264	N	0.471035	0.913439	0.187283
	N265	N	0.543803	0.086948	0.190231
	N266	N	0.470462	0.083132	0.830501
	N267	N	0.544494	0.911297	0.828086
	N268	N	0.922589	0.176036	0.473554
	N269	N	0.093024	0.177344	0.547993
	N270	N	0.092413	0.819611	0.473978
	N271	N	0.922024	0.821302	0.548474
	N272	N	0.185622	0.462166	0.923976
	N273	N	0.188506	0.534890	0.098660
	N274	N	0.826916	0.462485	0.097540
	N275	N	0.828256	0.535579	0.924325
	O276	O	0.058749	-0.080300	-0.136042
	H277	H	0.064736	-0.087479	-0.139868
	H278	H	0.060253	-0.091508	-0.133114
	O279	O	0.568528	0.539682	0.468014
	H280	H	0.569859	0.545302	0.473269
	H281	H	0.569158	0.543459	0.462994
	O282	O	0.868239	0.164098	-0.058204
	H283	H	0.870998	0.168095	-0.064248
	H284	H	0.848271	0.168063	-0.081330
	O285	O	-0.641890	1.565354	-0.601660
	H286	H	-0.631659	1.573609	-0.605264
	H287	H	-0.648454	1.563966	-0.575635
	O288	O	0.434265	0.593083	0.532107
	H289	H	0.432501	0.606108	0.539954
	H290	H	0.441869	0.589967	0.522904
	O291	O	0.472708	0.363103	0.528893
	H292	H	0.462468	0.358696	0.541209
	H293	H	0.468637	0.380626	0.532252
	O294	O	1.053781	1.106373	1.108952
	H295	H	1.039920	1.107125	1.107427
	H296	H	1.063784	1.098607	1.117854
	O297	O	0.061191	0.185565	0.128717
	H298	H	0.053207	0.195744	0.117412
	H299	H	0.048228	0.189105	0.143557
	O300	O	0.413712	0.551324	0.586137
	H301	H	0.427748	0.546737	0.591435
	H302	H	0.413340	0.544642	0.593004
	O303	O	-0.054859	1.068880	1.066632
	H304	H	-0.048342	1.063007	1.068735
	H305	H	-0.057557	1.066681	1.059411
	O306	O	0.594006	0.612946	0.625379
	H307	H	0.585351	0.616066	0.638929
	H308	H	0.606103	0.605699	0.620780
	O309	O	0.963812	0.059762	0.039028
	H310	H	0.965927	0.059589	0.032650
	H311	H	0.973137	0.053440	0.040016
	O312	O	-0.432404	0.474781	0.433058
	H313	H	-0.437779	0.474581	0.444366
	H314	H	-0.437753	0.471049	0.426378
	O315	O	0.386751	0.575364	0.391188
	H316	H	0.373259	0.589399	0.388693
	H317	H	0.379815	0.579343	0.380896
	O318	O	0.347430	0.534522	0.539660
	H319	H	0.352225	0.521036	0.549179
	H320	H	0.339869	0.538328	0.557705
	O321	O	0.533806	0.479480	0.536995
	H322	H	0.539848	0.479585	0.543502
	H323	H	0.534976	0.489911	0.528511
	O324	O	0.591558	0.644936	0.601643
	H325	H	0.596590	0.658523	0.611786
	H326	H	0.595728	0.643806	0.584411
	O327	O	0.041047	1.066585	0.966658
	H328	H	0.041385	1.058831	0.968588
	H329	H	0.037639	1.074792	0.977898
	O330	O	0.479877	0.632780	0.445175
	H331	H	0.468006	0.621902	0.436924
	H332	H	0.485104	0.623536	0.442449
	O333	O	-0.092374	0.934307	0.956889
	H334	H	-0.087419	0.919990	0.954154
	H335	H	-0.103722	0.939732	0.948340
	O336	O	1.137106	0.962204	0.948031
	H337	H	1.145664	0.952770	0.947069
	H338	H	1.134922	0.964630	0.948225
	O339	O	0.435187	0.562344	0.371072
	H340	H	0.416873	0.567781	0.359016
	H341	H	0.429851	0.563499	0.372705
	O342	O	1.154853	0.025176	0.107202
	H343	H	1.171308	0.032587	0.106210
	H344	H	1.153915	0.029405	0.106086
	O345	O	0.462163	0.422214	0.518468
	H346	H	0.456547	0.420543	0.523280
	H347	H	0.459017	0.415686	0.524021
	O348	O	1.096992	0.964738	1.080679
	H349	H	1.098772	0.968281	1.087487
	H350	H	1.089209	0.964791	1.069177
	O351	O	1.144234	0.905058	0.027885
	H352	H	1.149363	0.908442	0.020323
	H353	H	1.131082	0.912309	0.023294
	O354	O	0.594731	0.487615	0.440240
	H355	H	0.589624	0.483430	0.441479
	H356	H	0.602488	0.482844	0.441450
	O357	O	0.496497	0.379602	0.594248
	H358	H	0.506466	0.391618	0.596489
	H359	H	0.483008	0.371052	0.594183
	O360	O	-0.119689	0.038846	-0.102277
	H361	H	-0.108998	0.023763	-0.105756
	H362	H	-0.112155	0.034632	-0.102156
	O363	O	0.660598	0.434961	0.418690
	H364	H	0.661255	0.420642	0.418542
	H365	H	0.658798	0.443125	0.415048
	O366	O	0.532000	0.508204	0.409599
	H367	H	0.537183	0.517925	0.405557
	H368	H	0.521953	0.503459	0.410124
	O369	O	-0.138973	-0.106276	0.079894
	H370	H	-0.135712	-0.111382	0.091867
	H371	H	-0.139504	-0.096369	0.092146
	O372	O	0.601934	0.366044	0.446533
	H373	H	0.600665	0.356448	0.427120
	H374	H	0.589228	0.369925	0.450712
	O375	O	0.576485	0.491731	0.626773
	H376	H	0.582059	0.499918	0.624140
	H377	H	0.572259	0.492261	0.617958
	O378	O	0.473106	0.393482	0.608155
	H379	H	0.472161	0.403836	0.598426
	H380	H	0.472832	0.402480	0.610644
	O381	O	0.017342	1.004066	0.982619
	H382	H	0.015434	1.013921	0.978738
	H383	H	0.018525	1.010370	0.998329
	O384	O	-0.005056	0.968537	-0.068375
	H385	H	-0.023349	0.974209	-0.059677
	H386	H	-0.017148	0.971953	-0.054747
	O387	O	0.912232	-0.091924	1.045930
	H388	H	0.915504	-0.103834	1.057272
	H389	H	0.913379	-0.086768	1.053338
	O390	O	0.047266	0.857017	0.014787
	H391	H	0.037268	0.853355	0.004519
	H392	H	0.043213	0.872045	0.013102
	O393	O	0.873545	0.968798	0.117955
	H394	H	0.870103	0.970376	0.112997
	H395	H	0.871030	0.973427	0.127413
	O396	O	0.386918	0.502302	0.594516
	H397	H	0.386883	0.494898	0.592777
	H398	H	0.388641	0.507297	0.597332
	O399	O	0.053221	0.908816	1.110331
	H400	H	0.050909	0.913168	1.106876
	H401	H	0.061939	0.913417	1.120566
	O402	O	1.116422	0.087716	-0.014563
	H403	H	1.113972	0.088959	-0.017135
	H404	H	1.127509	0.083058	-0.017058
	O405	O	0.979587	0.169194	0.071028
	H406	H	0.978503	0.175038	0.087679
	H407	H	0.966730	0.172845	0.068541
