data_Molecule from HDF5

_cell_length_a		16.458975
_cell_length_b		16.397491
_cell_length_c		16.507846
_cell_angle_alpha	89.995958
_cell_angle_beta	90.051940
_cell_angle_gamma	89.980945
_symmetry_space_group_name_H-M	'P 1'
_symmetry_Int_Tables_number		1

loop_
	_symmetry_equiv_pos_as_xyz
	x,y,z

loop_
	_atom_site_label
	_atom_site_type_symbol
	_atom_site_fract_x
	_atom_site_fract_y
	_atom_site_fract_z
	H0	H	0.402074	0.849910	0.732363
	H1	H	0.618904	0.163955	0.725128
	H2	H	0.621950	0.847848	0.281005
	H3	H	0.406185	0.163461	0.281767
	H4	H	0.736894	0.398466	0.846933
	H5	H	0.739500	0.612623	0.160749
	H6	H	0.289378	0.614340	0.849046
	H7	H	0.289900	0.395558	0.161097
	H8	H	0.856426	0.728362	0.397019
	H9	H	0.172507	0.727496	0.610986
	H10	H	0.858278	0.283004	0.611064
	H11	H	0.172202	0.282717	0.398164
	H12	H	0.858175	0.397936	0.728272
	H13	H	0.170066	0.615559	0.730219
	H14	H	0.858142	0.615043	0.278772
	H15	H	0.171615	0.397281	0.281101
	H16	H	0.405836	0.730393	0.849110
	H17	H	0.624819	0.729164	0.161451
	H18	H	0.618802	0.284252	0.846680
	H19	H	0.408703	0.282453	0.162140
	H20	H	0.735723	0.847056	0.398622
	H21	H	0.735734	0.162888	0.611181
	H22	H	0.287378	0.849087	0.615468
	H23	H	0.292752	0.163961	0.398903
	H24	H	0.907927	0.349194	0.227240
	H25	H	0.123947	0.663482	0.228926
	H26	H	0.122199	0.348628	0.781619
	H27	H	0.904022	0.663184	0.778753
	H28	H	0.239002	0.896352	0.348249
	H29	H	0.239386	0.114708	0.660930
	H30	H	0.790827	0.112712	0.348690
	H31	H	0.790093	0.897131	0.661256
	H32	H	0.357760	0.230269	0.896863
	H33	H	0.672438	0.223663	0.107183
	H34	H	0.358735	0.777983	0.115851
	H35	H	0.672331	0.783772	0.899487
	H36	H	0.358238	0.894514	0.230602
	H37	H	0.671213	0.108978	0.224951
	H38	H	0.357572	0.114829	0.780382
	H39	H	0.671588	0.898869	0.782434
	H40	H	0.908061	0.227849	0.348141
	H41	H	0.122837	0.229336	0.661358
	H42	H	0.121705	0.782026	0.347607
	H43	H	0.907711	0.781550	0.661210
	H44	H	0.237278	0.347928	0.898109
	H45	H	0.240671	0.662149	0.113982
	H46	H	0.795344	0.346566	0.108559
	H47	H	0.789409	0.662879	0.895479
	H48	H	0.427205	0.114010	0.584370
	H49	H	0.598319	0.893200	0.593637
	H50	H	0.601934	0.118898	0.413573
	H51	H	0.419957	0.893363	0.424818
	H52	H	0.608336	0.415542	0.118861
	H53	H	0.596989	0.591865	0.895573
	H54	H	0.433477	0.591248	0.114300
	H55	H	0.427310	0.414236	0.892253
	H56	H	0.127250	0.598677	0.417091
	H57	H	0.903956	0.584732	0.594684
	H58	H	0.126127	0.423410	0.593730
	H59	H	0.899601	0.416026	0.409669
	H60	H	0.129603	0.416401	0.597891
	H61	H	0.898187	0.598931	0.598421
	H62	H	0.123458	0.589485	0.421874
	H63	H	0.903249	0.413423	0.420909
	H64	H	0.426263	0.594970	0.117809
	H65	H	0.602993	0.599769	0.891226
	H66	H	0.604938	0.419440	0.115704
	H67	H	0.423288	0.420759	0.892348
	H68	H	0.600114	0.117383	0.417581
	H69	H	0.604201	0.891827	0.590510
	H70	H	0.420592	0.120224	0.595588
	H71	H	0.425281	0.889135	0.408878
	H72	H	0.924004	0.619730	0.088007
	H73	H	0.105533	0.391312	0.095441
	H74	H	0.104585	0.616016	0.925884
	H75	H	0.923272	0.390780	0.911603
	H76	H	0.103932	0.920631	0.615900
	H77	H	0.104057	0.090180	0.393005
	H78	H	0.933402	0.097827	0.616742
	H79	H	0.932868	0.916505	0.395013
	H80	H	0.626697	0.088570	0.910516
	H81	H	0.400453	0.092917	0.092023
	H82	H	0.625307	0.919321	0.092731
	H83	H	0.404720	0.922223	0.921013
	H84	H	0.626005	0.918539	0.094253
	H85	H	0.399891	0.092934	0.094148
	H86	H	0.630158	0.100447	0.912015
	H87	H	0.402781	0.920923	0.915415
	H88	H	0.918497	0.098256	0.621150
	H89	H	0.099433	0.093558	0.394334
	H90	H	0.098100	0.919261	0.614201
	H91	H	0.920979	0.912999	0.389719
	H92	H	0.105244	0.621245	0.913136
	H93	H	0.096270	0.394996	0.094752
	H94	H	0.927472	0.620296	0.094966
	H95	H	0.932662	0.394861	0.914113
	H96	H	0.434581	0.116239	0.596753
	H97	H	0.602918	0.890198	0.597492
	H98	H	0.604267	0.119020	0.417181
	H99	H	0.436247	0.897141	0.419910
	H100	H	0.602810	0.413316	0.117555
	H101	H	0.607257	0.589841	0.892435
	H102	H	0.425944	0.586060	0.115197
	H103	H	0.430482	0.420277	0.895348
	H104	H	0.126573	0.589066	0.411773
	H105	H	0.903761	0.596908	0.583857
	H106	H	0.127339	0.415581	0.589623
	H107	H	0.905355	0.424348	0.415779
	H108	H	0.930969	0.616575	0.089412
	H109	H	0.102655	0.395330	0.087685
	H110	H	0.093833	0.615275	0.917206
	H111	H	0.924784	0.394998	0.920845
	H112	H	0.101379	0.914957	0.616343
	H113	H	0.104140	0.095591	0.391681
	H114	H	0.924340	0.085242	0.614741
	H115	H	0.922931	0.925057	0.393907
	H116	H	0.624578	0.093776	0.921287
	H117	H	0.400311	0.094803	0.093227
	H118	H	0.625743	0.917620	0.093077
	H119	H	0.402720	0.917177	0.920419
	C120	C	0.392212	0.013754	0.626884
	C121	C	0.635069	0.996325	0.626334
	C122	C	0.634992	0.013778	0.383522
	C123	C	0.393528	0.997322	0.383960
	C124	C	0.636815	0.383530	0.012962
	C125	C	0.636620	0.627238	0.996434
	C126	C	0.393576	0.626390	0.013379
	C127	C	0.393435	0.384052	0.996689
	C128	C	0.022397	0.626817	0.382737
	C129	C	1.005933	0.627349	0.626093
	C130	C	0.023712	0.385052	0.626252
	C131	C	1.006271	0.383875	0.382425
	C132	C	0.894341	0.514383	0.124382
	C133	C	0.135914	0.497543	0.126117
	C134	C	0.135401	0.514017	0.884388
	C135	C	0.892984	0.497530	0.882232
	C136	C	0.135681	0.884139	0.512494
	C137	C	0.136006	0.126987	0.496580
	C138	C	0.892697	0.126996	0.514026
	C139	C	0.892155	0.883639	0.495924
	C140	C	0.523080	0.127659	0.882395
	C141	C	0.504690	0.125605	0.125169
	C142	C	0.522929	0.883110	0.128112
	C143	C	0.506502	0.885437	0.884821
	C144	C	0.385724	0.896839	0.690959
	C145	C	0.637490	0.115776	0.686146
	C146	C	0.638723	0.895150	0.322061
	C147	C	0.389011	0.115828	0.322127
	C148	C	0.696311	0.380913	0.894209
	C149	C	0.698988	0.630646	0.113750
	C150	C	0.330465	0.631478	0.896045
	C151	C	0.331397	0.379076	0.114249
	C152	C	0.904026	0.688277	0.379157
	C153	C	0.124452	0.688215	0.629473
	C154	C	0.905524	0.323133	0.629471
	C155	C	0.124549	0.322401	0.379645
	C156	C	0.905478	0.380439	0.687733
	C157	C	0.123323	0.632518	0.688936
	C158	C	0.904801	0.631891	0.320150
	C159	C	0.124390	0.379840	0.321404
	C160	C	0.388407	0.689507	0.896251
	C161	C	0.641528	0.688686	0.114139
	C162	C	0.637588	0.323828	0.894073
	C163	C	0.390291	0.322237	0.114655
	C164	C	0.696171	0.894876	0.380178
	C165	C	0.695605	0.115304	0.629014
	C166	C	0.328455	0.896548	0.632471
	C167	C	0.332381	0.116155	0.380458
	C168	C	0.890888	0.396094	0.185941
	C169	C	0.140812	0.615969	0.188265
	C170	C	0.139496	0.395871	0.822437
	C171	C	0.887454	0.615814	0.819765
	C172	C	0.197927	0.879619	0.395161
	C173	C	0.198208	0.131500	0.613887
	C174	C	0.831348	0.130508	0.395982
	C175	C	0.830673	0.879490	0.613935
	C176	C	0.404839	0.189398	0.879431
	C177	C	0.624588	0.184437	0.126575
	C178	C	0.405926	0.819284	0.132865
	C179	C	0.624855	0.824019	0.881550
	C180	C	0.405398	0.877463	0.190160
	C181	C	0.623809	0.127779	0.185307
	C182	C	0.404729	0.131915	0.821320
	C183	C	0.624441	0.881217	0.823188
	C184	C	0.889865	0.187884	0.395648
	C185	C	0.139886	0.188717	0.614144
	C186	C	0.139517	0.822409	0.394860
	C187	C	0.889439	0.822133	0.614179
	C188	C	0.197207	0.395685	0.880226
	C189	C	0.198862	0.615464	0.130782
	C190	C	0.834550	0.394974	0.126953
	C191	C	0.830286	0.615808	0.877908
	C192	C	0.419577	0.095476	0.599783
	C193	C	0.609348	0.913315	0.601172
	C194	C	0.609347	0.096729	0.408850
	C195	C	0.419801	0.914910	0.410274
	C196	C	0.612263	0.408846	0.095868
	C197	C	0.609995	0.601493	0.914506
	C198	C	0.420730	0.598783	0.094528
	C199	C	0.419465	0.410802	0.914889
	C200	C	0.104386	0.600046	0.409237
	C201	C	0.923663	0.600863	0.600041
	C202	C	0.106052	0.410997	0.601076
	C203	C	0.923865	0.410408	0.408215
	C204	C	0.920060	0.597324	0.098288
	C205	C	0.109058	0.415301	0.099974
	C206	C	0.108793	0.596123	0.911083
	C207	C	0.919407	0.415214	0.908045
	C208	C	0.108932	0.910840	0.594120
	C209	C	0.109916	0.100548	0.414481
	C210	C	0.917980	0.101150	0.596008
	C211	C	0.918428	0.910465	0.414290
	C212	C	0.605672	0.101557	0.907451
	C213	C	0.421984	0.100678	0.100224
	C214	C	0.604461	0.910578	0.100931
	C215	C	0.424724	0.912128	0.911393
	Zn216	Zn	0.514135	0.005335	0.754710
	Zn217	Zn	0.513294	0.005525	0.255021
	Zn218	Zn	0.765086	0.505541	0.003771
	Zn219	Zn	0.264625	0.504986	0.005197
	Zn220	Zn	0.014237	0.754975	0.504047
	Zn221	Zn	0.014707	0.256232	0.505005
	Zn222	Zn	0.014799	0.506481	0.754606
	Zn223	Zn	0.014921	0.505998	0.254386
	Zn224	Zn	0.514946	0.755835	0.005523
	Zn225	Zn	0.514675	0.255332	0.004707
	Zn226	Zn	0.763068	0.005484	0.504897
	Zn227	Zn	0.264679	0.005542	0.504225
	N228	N	0.424893	0.970742	0.687441
	N229	N	0.600527	0.040671	0.684574
	N230	N	0.601525	0.970199	0.323912
	N231	N	0.426060	0.040710	0.323974
	N232	N	0.696299	0.417100	0.969318
	N233	N	0.696108	0.593080	0.039351
	N234	N	0.333305	0.593187	0.970117
	N235	N	0.333017	0.416489	0.039697
	N236	N	0.978189	0.685319	0.417304
	N237	N	0.050343	0.685356	0.591303
	N238	N	0.979972	0.325831	0.592142
	N239	N	0.049886	0.324759	0.416881
	N240	N	0.980021	0.418241	0.686033
	N241	N	0.048297	0.595454	0.687038
	N242	N	0.979594	0.594502	0.322208
	N243	N	0.049602	0.417164	0.322886
	N244	N	0.426774	0.686676	0.970178
	N245	N	0.603270	0.686539	0.040244
	N246	N	0.601539	0.325369	0.969065
	N247	N	0.428038	0.325117	0.040532
	N248	N	0.693882	0.969670	0.417798
	N249	N	0.694256	0.039933	0.592615
	N250	N	0.332273	0.970402	0.593495
	N251	N	0.334878	0.041555	0.418206
	N252	N	0.927081	0.471532	0.184644
	N253	N	0.102388	0.541453	0.185489
	N254	N	0.101545	0.470558	0.824890
	N255	N	0.925622	0.541321	0.822142
	N256	N	0.195895	0.917087	0.469610
	N257	N	0.195889	0.093690	0.539460
	N258	N	0.832883	0.093264	0.470452
	N259	N	0.832081	0.916888	0.539418
	N260	N	0.479399	0.186709	0.916710
	N261	N	0.549612	0.183554	0.089995
	N262	N	0.480171	0.822728	0.094964
	N263	N	0.550415	0.826552	0.919173
	N264	N	0.479337	0.916214	0.187334
	N265	N	0.548218	0.092028	0.184644
	N266	N	0.479390	0.094254	0.822988
	N267	N	0.549809	0.918534	0.824975
	N268	N	0.927245	0.185994	0.470072
	N269	N	0.101887	0.185906	0.540159
	N270	N	0.101437	0.825146	0.468827
	N271	N	0.926977	0.824687	0.539879
	N272	N	0.194536	0.470162	0.918103
	N273	N	0.195935	0.540933	0.092913
	N274	N	0.836497	0.469834	0.089393
	N275	N	0.833305	0.541378	0.915953
	O276	O	-0.192328	0.795309	0.023535
	H277	H	-0.199975	0.778325	0.026799
	H278	H	-0.192281	0.790086	0.026599
	O279	O	0.991965	0.208374	1.023811
	H280	H	1.002832	0.211111	1.045628
	H281	H	0.975082	0.208000	1.019706
	O282	O	0.692929	0.688315	0.685005
	H283	H	0.682769	0.695214	0.652379
	H284	H	0.702686	0.635459	0.694498
	O285	O	0.301119	1.718458	0.484035
	H286	H	0.302876	1.728298	0.499103
	H287	H	0.303945	1.743381	0.496923
	O288	O	0.729050	0.302293	0.487200
	H289	H	0.710569	0.296450	0.480974
	H290	H	0.748713	0.281965	0.465476
	O291	O	0.329884	0.320479	0.691093
	H292	H	0.320212	0.355311	0.678118
	H293	H	0.384417	0.313487	0.700144
	O294	O	0.228832	0.214578	1.020288
	H295	H	0.249111	0.214476	1.021461
	H296	H	0.237558	0.211000	1.023372
	O297	O	0.084985	0.138033	0.169780
	H298	H	0.092665	0.141202	0.132480
	H299	H	0.096500	0.101611	0.178425
	O300	O	0.465780	0.538349	0.583837
	H301	H	0.462565	0.528785	0.587819
	H302	H	0.466555	0.516165	0.592019
	O303	O	-0.146377	-0.135882	0.919062
	H304	H	-0.152758	-0.143852	0.926041
	H305	H	-0.153146	-0.130522	0.902691
	O306	O	0.821376	0.125968	0.133372
	H307	H	0.828803	0.120982	0.113393
	H308	H	0.840369	0.106458	0.127422
	O309	O	0.440786	0.576679	0.706994
	H310	H	0.458985	0.572493	0.712209
	H311	H	0.450710	0.580289	0.706774
	O312	O	0.511008	1.406744	0.360800
	H313	H	0.490610	1.412187	0.378504
	H314	H	0.498134	1.410587	0.343242
	O315	O	0.432574	0.387955	0.410204
	H316	H	0.421336	0.389357	0.417766
	H317	H	0.415802	0.410055	0.401632
	O318	O	1.131379	0.190017	-0.091215
	H319	H	1.123971	0.204164	-0.077862
	H320	H	1.139781	0.194308	-0.069797
	O321	O	0.209788	0.074968	0.198965
	H322	H	0.221434	0.049812	0.214245
	H323	H	0.200459	0.068950	0.190275
	O324	O	0.724810	0.637852	0.473407
	H325	H	0.727257	0.657838	0.470277
	H326	H	0.716674	0.628748	0.471375
	O327	O	0.540017	0.297750	0.292954
	H328	H	0.518050	0.322967	0.291267
	H329	H	0.538646	0.272263	0.270885
	O330	O	0.196550	1.045676	-0.054139
	H331	H	0.189971	1.028854	-0.065354
	H332	H	0.182662	1.045855	-0.065739
	O333	O	0.551732	0.519689	0.342222
	H334	H	0.542816	0.498122	0.351826
	H335	H	0.554930	0.497081	0.342117
	O336	O	0.177216	-0.201533	0.009751
	H337	H	0.203006	-0.224608	0.011183
	H338	H	0.173538	-0.193308	-0.026951
	O339	O	-0.007009	1.199888	1.178006
	H340	H	0.015156	1.204064	1.187801
	H341	H	0.019631	1.192083	1.179718
	O342	O	0.119742	0.987950	1.172465
	H343	H	0.132264	0.969633	1.167959
	H344	H	0.130489	0.972266	1.185272
	O345	O	0.962912	1.001004	-0.090564
	H346	H	0.959933	1.013125	-0.087556
	H347	H	0.971528	1.009387	-0.082960
	O348	O	0.307159	0.301381	0.529035
	H349	H	0.303694	0.314136	0.544941
	H350	H	0.282841	0.286925	0.535904
	O351	O	0.014500	0.798508	0.997640
	H352	H	0.020860	0.803956	0.991660
	H353	H	0.030600	0.800445	1.000214
	O354	O	-0.378575	0.715240	0.477884
	H355	H	-0.392104	0.728278	0.462554
	H356	H	-0.372962	0.711553	0.478276
	O357	O	-0.291393	0.496924	0.298628
	H358	H	-0.276629	0.479110	0.289614
	H359	H	-0.285679	0.483593	0.299066
	O360	O	0.496808	0.303159	0.707517
	H361	H	0.500193	0.271089	0.714353
	H362	H	0.523770	0.307338	0.686055
	O363	O	0.225937	-0.012804	0.799483
	H364	H	0.247891	-0.010724	0.768318
	H365	H	0.193638	0.014905	0.789729
	O366	O	0.300000	0.524942	0.283796
	H367	H	0.265644	0.532715	0.254442
	H368	H	0.306425	0.573377	0.295810
	O369	O	0.344497	0.431905	0.436326
	H370	H	0.343344	0.439965	0.449107
	H371	H	0.333701	0.437236	0.412523
	O372	O	0.544343	-0.701566	1.552259
	H373	H	0.515881	-0.701118	1.524024
	H374	H	0.551939	-0.680470	1.550433
	O375	O	0.299669	0.483335	0.714605
	H376	H	0.290492	0.499375	0.714904
	H377	H	0.304553	0.476780	0.727185
	O378	O	0.987798	1.221708	0.785182
	H379	H	0.986396	1.243204	0.765539
	H380	H	0.983504	1.230371	0.791646
	O381	O	0.836137	0.006609	1.133996
	H382	H	0.816176	0.004285	1.148698
	H383	H	0.840421	0.031292	1.128275
	O384	O	0.448966	0.726412	0.567696
	H385	H	0.462316	0.728391	0.574813
	H386	H	0.473088	0.715572	0.576680
	O387	O	0.080959	0.075977	0.798682
	H388	H	0.077221	0.099234	0.827789
	H389	H	0.061579	0.084420	0.794757
	O390	O	0.001800	-0.178722	0.199770
	H391	H	0.005323	-0.195569	0.197180
	H392	H	-0.022382	-0.190576	0.203028
	O393	O	1.108371	0.903831	1.121264
	H394	H	1.113251	0.902697	1.130511
	H395	H	1.123881	0.880823	1.115657
	O396	O	0.863915	0.102086	0.051123
	H397	H	0.873034	0.103949	0.020063
	H398	H	0.847028	0.100072	0.046201
	O399	O	0.942512	0.091546	1.208749
	H400	H	0.949372	0.077328	1.207192
	H401	H	0.950055	0.105727	1.222129
	O402	O	1.232800	0.892477	1.046130
	H403	H	1.249096	0.862045	1.031127
	H404	H	1.230113	0.904273	1.010236
	O405	O	1.609327	0.416609	-0.285768
	H406	H	1.629357	0.420992	-0.287406
	H407	H	1.609953	0.401434	-0.286459
	O408	O	0.838708	-0.168959	0.178978
	H409	H	0.847043	-0.155369	0.163061
	H410	H	0.838899	-0.144056	0.180545
	O411	O	0.818455	1.203970	-0.100311
	H412	H	0.840909	1.216435	-0.108390
	H413	H	0.821899	1.185485	-0.097060
	O414	O	-0.188872	1.106874	0.800045
	H415	H	-0.208789	1.093572	0.786473
	H416	H	-0.167966	1.086745	0.806091
	O417	O	0.648994	0.616637	0.412489
	H418	H	0.655944	0.617170	0.389016
	H419	H	0.635496	0.605502	0.415089
	O420	O	0.031927	-0.201761	-0.200136
	H421	H	0.022241	-0.218755	-0.201245
	H422	H	0.017278	-0.219669	-0.192214
	O423	O	0.709403	0.316433	0.310594
	H424	H	0.684218	0.312438	0.298796
	H425	H	0.720294	0.296654	0.309334
	O426	O	0.493778	0.714397	0.293066
	H427	H	0.514257	0.707023	0.289894
	H428	H	0.501722	0.721148	0.264126
	O429	O	0.720320	0.526801	0.712663
	H430	H	0.750731	0.522895	0.739957
	H431	H	0.723625	0.501631	0.672333
	O432	O	-0.111203	-0.015069	-0.198293
	H433	H	-0.092197	-0.027025	-0.182197
	H434	H	-0.103448	-0.028113	-0.195123
	O435	O	0.330558	0.682150	0.322644
	H436	H	0.370824	0.695291	0.326415
	H437	H	0.332310	0.695432	0.359295
	O438	O	-0.049379	-0.017566	-0.012238
	H439	H	-0.067856	-0.007547	-0.006359
	H440	H	-0.041917	-0.014829	-0.002580
	O441	O	0.537286	0.726515	-0.278576
	H442	H	0.541115	0.761530	-0.242680
	H443	H	0.564683	0.703621	-0.287647
	O444	O	0.192296	0.828855	0.834223
	H445	H	0.203233	0.881091	0.820241
	H446	H	0.145808	0.817737	0.818589
	O447	O	0.732514	0.460225	0.550484
	H448	H	0.733621	0.432753	0.534456
	H449	H	0.730472	0.479455	0.518859
	O450	O	0.548613	0.470059	0.516262
	H451	H	0.543985	0.464896	0.531378
	H452	H	0.560447	0.469252	0.513874
	O453	O	0.299433	0.550240	0.539026
	H454	H	0.308295	0.561869	0.549385
	H455	H	0.298793	0.556596	0.534673
