data_Molecule from HDF5

_cell_length_a		16.306965
_cell_length_b		16.318414
_cell_length_c		16.340635
_cell_angle_alpha	89.846274
_cell_angle_beta	90.004529
_cell_angle_gamma	90.069734
_symmetry_space_group_name_H-M	'P 1'
_symmetry_Int_Tables_number		1

loop_
	_symmetry_equiv_pos_as_xyz
	x,y,z

loop_
	_atom_site_label
	_atom_site_type_symbol
	_atom_site_fract_x
	_atom_site_fract_y
	_atom_site_fract_z
	H0	H	0.404614	0.847732	0.717361
	H1	H	0.600620	0.174429	0.716242
	H2	H	0.600918	0.848305	0.287133
	H3	H	0.402797	0.174382	0.286801
	H4	H	0.717459	0.413329	0.839504
	H5	H	0.717554	0.609246	0.165720
	H6	H	0.287370	0.610784	0.839250
	H7	H	0.287487	0.412095	0.165614
	H8	H	0.838680	0.725115	0.403228
	H9	H	0.166481	0.725073	0.598907
	H10	H	0.839055	0.296433	0.600772
	H11	H	0.166696	0.298021	0.404971
	H12	H	0.839319	0.410799	0.717737
	H13	H	0.166337	0.609571	0.716027
	H14	H	0.839271	0.608132	0.287058
	H15	H	0.166513	0.413825	0.287864
	H16	H	0.404769	0.726476	0.839452
	H17	H	0.600487	0.725118	0.165811
	H18	H	0.601362	0.296383	0.839500
	H19	H	0.404105	0.295837	0.165501
	H20	H	0.716651	0.847422	0.404613
	H21	H	0.716425	0.175227	0.599910
	H22	H	0.288708	0.847254	0.600438
	H23	H	0.288690	0.174535	0.404426
	H24	H	0.903429	0.348095	0.217657
	H25	H	0.102416	0.673913	0.216196
	H26	H	0.100464	0.347381	0.787484
	H27	H	0.903884	0.674326	0.786727
	H28	H	0.217910	0.912485	0.339473
	H29	H	0.216353	0.108609	0.666431
	H30	H	0.788333	0.109237	0.339178
	H31	H	0.788008	0.911554	0.666233
	H32	H	0.339051	0.226000	0.904669
	H33	H	0.665510	0.225915	0.100086
	H34	H	0.339468	0.794922	0.102491
	H35	H	0.665911	0.797757	0.904876
	H36	H	0.338506	0.912036	0.217502
	H37	H	0.665238	0.110621	0.217238
	H38	H	0.338948	0.110657	0.787164
	H39	H	0.665692	0.913818	0.788147
	H40	H	0.905325	0.225254	0.339071
	H41	H	0.099452	0.224454	0.665776
	H42	H	0.099937	0.798102	0.338614
	H43	H	0.903552	0.794333	0.665493
	H44	H	0.217070	0.347241	0.903991
	H45	H	0.217478	0.673438	0.099835
	H46	H	0.788152	0.347245	0.100877
	H47	H	0.788481	0.674062	0.903631
	H48	H	0.405423	0.129216	0.597868
	H49	H	0.597967	0.897806	0.587153
	H50	H	0.595297	0.126721	0.409550
	H51	H	0.406740	0.895298	0.413217
	H52	H	0.596020	0.417073	0.118909
	H53	H	0.602197	0.604188	0.885600
	H54	H	0.412048	0.604950	0.117060
	H55	H	0.419667	0.426183	0.891331
	H56	H	0.121119	0.611208	0.406703
	H57	H	0.887283	0.599589	0.596727
	H58	H	0.122763	0.409116	0.599750
	H59	H	0.883319	0.411182	0.405973
	H60	H	0.115745	0.417658	0.586683
	H61	H	0.885102	0.606025	0.596896
	H62	H	0.115992	0.603273	0.415398
	H63	H	0.889133	0.417372	0.417167
	H64	H	0.406405	0.605207	0.119541
	H65	H	0.592703	0.599947	0.889101
	H66	H	0.595895	0.419156	0.117572
	H67	H	0.411700	0.405997	0.883517
	H68	H	0.595633	0.126873	0.408876
	H69	H	0.601960	0.891837	0.601683
	H70	H	0.413132	0.126285	0.597876
	H71	H	0.408344	0.893810	0.405956
	H72	H	0.915115	0.623296	0.088793
	H73	H	0.098812	0.393053	0.099434
	H74	H	0.096966	0.627210	0.906480
	H75	H	0.914149	0.397028	0.911744
	H76	H	0.089303	0.919057	0.615717
	H77	H	0.095876	0.106695	0.386392
	H78	H	0.908153	0.105367	0.618942
	H79	H	0.902589	0.922692	0.386011
	H80	H	0.614392	0.098975	0.918390
	H81	H	0.383552	0.109872	0.096784
	H82	H	0.614713	0.923139	0.090005
	H83	H	0.385652	0.913255	0.912249
	H84	H	0.618948	0.922194	0.102294
	H85	H	0.388525	0.102058	0.089254
	H86	H	0.619590	0.099126	0.898359
	H87	H	0.388416	0.922716	0.912584
	H88	H	0.908589	0.102633	0.618480
	H89	H	0.097572	0.104381	0.386173
	H90	H	0.096087	0.911438	0.620309
	H91	H	0.916249	0.921326	0.390326
	H92	H	0.093802	0.626288	0.908411
	H93	H	0.089990	0.395817	0.097003
	H94	H	0.901414	0.628722	0.093302
	H95	H	0.904984	0.394112	0.911401
	H96	H	0.408732	0.125990	0.590933
	H97	H	0.586718	0.897125	0.598548
	H98	H	0.595296	0.126676	0.409628
	H99	H	0.413818	0.896921	0.410926
	H100	H	0.594071	0.417978	0.117822
	H101	H	0.593375	0.611045	0.885704
	H102	H	0.408616	0.600297	0.117999
	H103	H	0.397460	0.424275	0.884491
	H104	H	0.118734	0.599550	0.403545
	H105	H	0.888007	0.603394	0.591331
	H106	H	0.118225	0.425744	0.601343
	H107	H	0.887806	0.424395	0.405365
	H108	H	0.913120	0.628443	0.102655
	H109	H	0.097103	0.395412	0.090114
	H110	H	0.096670	0.626397	0.910277
	H111	H	0.910011	0.393601	0.904046
	H112	H	0.099718	0.921139	0.617822
	H113	H	0.095624	0.104081	0.387149
	H114	H	0.910803	0.104190	0.618076
	H115	H	0.909025	0.910268	0.385057
	H116	H	0.621326	0.116759	0.909186
	H117	H	0.386149	0.098906	0.100271
	H118	H	0.620273	0.911341	0.094756
	H119	H	0.384606	0.919321	0.904068
	C120	C	0.380811	0.019334	0.624483
	C121	C	0.623961	1.003378	0.624002
	C122	C	0.623813	0.019294	0.381023
	C123	C	0.381005	1.003347	0.381354
	C124	C	0.623845	0.389716	0.010484
	C125	C	0.624588	0.633196	0.994391
	C126	C	0.380803	0.632540	0.010245
	C127	C	0.380718	0.389656	0.994439
	C128	C	0.010855	0.633213	0.379900
	C129	C	0.994966	0.631847	0.623077
	C130	C	0.010881	0.389122	0.623980
	C131	C	0.994709	0.389779	0.380784
	C132	C	0.881046	0.518697	0.123686
	C133	C	0.123933	0.502167	0.123596
	C134	C	0.124228	0.519032	0.880009
	C135	C	0.881068	0.502730	0.880306
	C136	C	0.124301	0.888878	0.510266
	C137	C	0.124283	0.132834	0.494687
	C138	C	0.881020	0.132572	0.510436
	C139	C	0.880758	0.888984	0.494854
	C140	C	0.510719	0.133344	0.880511
	C141	C	0.493836	0.132471	0.123979
	C142	C	0.510125	0.889588	0.124363
	C143	C	0.494110	0.890319	0.881199
	C144	C	0.383635	0.896430	0.679639
	C145	C	0.621269	0.125943	0.678516
	C146	C	0.620932	0.896495	0.326105
	C147	C	0.382993	0.125725	0.325311
	C148	C	0.679318	0.392433	0.888026
	C149	C	0.679851	0.630219	0.116989
	C150	C	0.325343	0.630903	0.887894
	C151	C	0.325148	0.391522	0.116811
	C152	C	0.887579	0.687577	0.382574
	C153	C	0.117866	0.686962	0.619595
	C154	C	0.887858	0.334085	0.621190
	C155	C	0.117796	0.335374	0.383707
	C156	C	0.887805	0.391436	0.678976
	C157	C	0.117883	0.629618	0.677834
	C158	C	0.887705	0.629728	0.324983
	C159	C	0.117842	0.393297	0.325989
	C160	C	0.383714	0.688329	0.887877
	C161	C	0.621668	0.687783	0.117053
	C162	C	0.621669	0.334439	0.887981
	C163	C	0.383209	0.333981	0.116825
	C164	C	0.678392	0.896182	0.384139
	C165	C	0.678990	0.126131	0.620859
	C166	C	0.326372	0.896159	0.621368
	C167	C	0.326123	0.125768	0.383727
	C168	C	0.883069	0.396514	0.179314
	C169	C	0.122083	0.625262	0.178460
	C170	C	0.121415	0.395848	0.825532
	C171	C	0.883613	0.625439	0.824905
	C172	C	0.179242	0.892447	0.387744
	C173	C	0.178455	0.129165	0.617634
	C174	C	0.826318	0.129943	0.387849
	C175	C	0.826098	0.891503	0.617577
	C176	C	0.387443	0.187976	0.883522
	C177	C	0.616724	0.188015	0.120845
	C178	C	0.387808	0.833574	0.122381
	C179	C	0.617119	0.835433	0.883883
	C180	C	0.387514	0.891594	0.179786
	C181	C	0.616639	0.130873	0.179096
	C182	C	0.387619	0.130656	0.825344
	C183	C	0.617180	0.893312	0.826353
	C184	C	0.884225	0.187633	0.387832
	C185	C	0.120888	0.187175	0.617228
	C186	C	0.120866	0.835342	0.387346
	C187	C	0.883320	0.833157	0.617275
	C188	C	0.179359	0.396109	0.883075
	C189	C	0.179097	0.625122	0.120496
	C190	C	0.825673	0.396242	0.121380
	C191	C	0.826484	0.625515	0.883383
	C192	C	0.402764	0.104951	0.602199
	C193	C	0.601929	0.917685	0.602252
	C194	C	0.601943	0.104748	0.402876
	C195	C	0.403068	0.917522	0.403645
	C196	C	0.601679	0.411557	0.095857
	C197	C	0.602524	0.611573	0.909004
	C198	C	0.402723	0.610133	0.096108
	C199	C	0.402984	0.412309	0.908551
	C200	C	0.096287	0.611259	0.401977
	C201	C	0.909076	0.609525	0.601231
	C202	C	0.096724	0.411116	0.602410
	C203	C	0.908995	0.411395	0.402714
	C204	C	0.903411	0.604621	0.101451
	C205	C	0.101800	0.416811	0.102014
	C206	C	0.102117	0.604476	0.901774
	C207	C	0.903059	0.417030	0.902640
	C208	C	0.101863	0.910849	0.595743
	C209	C	0.102819	0.111395	0.408758
	C210	C	0.902699	0.110488	0.596330
	C211	C	0.902761	0.911418	0.409189
	C212	C	0.596307	0.111489	0.902200
	C213	C	0.408254	0.110258	0.102016
	C214	C	0.595917	0.912182	0.102093
	C215	C	0.408350	0.912052	0.903183
	Zn216	Zn	0.502211	0.011490	0.752554
	Zn217	Zn	0.501907	0.011242	0.252747
	Zn218	Zn	0.752785	0.510734	0.002295
	Zn219	Zn	0.252097	0.510791	0.002278
	Zn220	Zn	0.002388	0.760620	0.501970
	Zn221	Zn	0.002626	0.261227	0.502598
	Zn222	Zn	0.002762	0.510761	0.751795
	Zn223	Zn	0.002467	0.511163	0.251954
	Zn224	Zn	0.502346	0.761549	0.002432
	Zn225	Zn	0.502261	0.261154	0.002280
	Zn226	Zn	0.752784	0.011025	0.502667
	Zn227	Zn	0.252338	0.010673	0.502727
	N228	N	0.416836	0.973887	0.681327
	N229	N	0.587723	0.048646	0.680536
	N230	N	0.587580	0.973764	0.323982
	N231	N	0.416332	0.048345	0.323731
	N232	N	0.680569	0.426148	0.964965
	N233	N	0.681637	0.596801	0.039790
	N234	N	0.323749	0.596750	0.964929
	N235	N	0.323568	0.425313	0.039530
	N236	N	0.965160	0.690046	0.415840
	N237	N	0.040431	0.688282	0.586325
	N238	N	0.965128	0.332760	0.587445
	N239	N	0.040379	0.332962	0.417050
	N240	N	0.965373	0.424990	0.680897
	N241	N	0.040450	0.596103	0.679973
	N242	N	0.965013	0.596437	0.323328
	N243	N	0.040245	0.426348	0.324158
	N244	N	0.417255	0.689569	0.965098
	N245	N	0.587937	0.689726	0.039918
	N246	N	0.587848	0.332636	0.965195
	N247	N	0.416942	0.332676	0.039606
	N248	N	0.680297	0.973503	0.417643
	N249	N	0.680723	0.048709	0.587682
	N250	N	0.324094	0.973783	0.588047
	N251	N	0.324803	0.048593	0.417957
	N252	N	0.916747	0.473717	0.180618
	N253	N	0.088187	0.547907	0.180495
	N254	N	0.087951	0.473190	0.823338
	N255	N	0.916939	0.547943	0.822834
	N256	N	0.181347	0.925101	0.465298
	N257	N	0.180719	0.096023	0.540400
	N258	N	0.824443	0.096434	0.465022
	N259	N	0.824395	0.925438	0.540346
	N260	N	0.464619	0.189696	0.917042
	N261	N	0.539418	0.188960	0.087219
	N262	N	0.465138	0.832386	0.088643
	N263	N	0.539699	0.833597	0.917378
	N264	N	0.464642	0.925846	0.180960
	N265	N	0.539449	0.096951	0.181123
	N266	N	0.465287	0.097657	0.823119
	N267	N	0.539668	0.926588	0.824562
	N268	N	0.917468	0.189441	0.465348
	N269	N	0.087907	0.189400	0.539774
	N270	N	0.087549	0.832920	0.464562
	N271	N	0.916579	0.831519	0.539941
	N272	N	0.181004	0.473475	0.916362
	N273	N	0.180195	0.548104	0.086953
	N274	N	0.824510	0.473524	0.087473
	N275	N	0.824551	0.548123	0.916757
	O276	O	-0.032380	-0.060479	1.049281
	H277	H	-0.039437	-0.062818	1.050033
	H278	H	-0.022702	-0.062769	1.051991
	O279	O	0.815764	-0.153428	0.153808
	H280	H	0.814017	-0.158456	0.150302
	H281	H	0.809703	-0.155931	0.157865
	O282	O	0.488219	0.495613	0.543045
	H283	H	0.486316	0.494861	0.533429
	H284	H	0.484827	0.495645	0.542831
	O285	O	0.473806	0.416089	0.550632
	H286	H	0.478919	0.414317	0.556797
	H287	H	0.476134	0.413002	0.555338
	O288	O	0.522816	0.516741	0.535400
	H289	H	0.524838	0.503261	0.534422
	H290	H	0.523577	0.513922	0.539768
	O291	O	-0.491750	0.502993	0.521683
	H292	H	-0.481971	0.514904	0.521478
	H293	H	-0.494059	0.506998	0.519974
	O294	O	0.538650	0.458124	0.518141
	H295	H	0.538484	0.457150	0.515158
	H296	H	0.538473	0.456867	0.527170
	O297	O	0.974747	-0.039249	0.068899
	H298	H	0.974345	-0.038500	0.070011
	H299	H	0.973808	-0.041442	0.072637
