data_Molecule from HDF5

_cell_length_a		16.350999
_cell_length_b		16.273382
_cell_length_c		16.254978
_cell_angle_alpha	89.965369
_cell_angle_beta	90.148025
_cell_angle_gamma	89.786310
_symmetry_space_group_name_H-M	'P 1'
_symmetry_Int_Tables_number		1

loop_
	_symmetry_equiv_pos_as_xyz
	x,y,z

loop_
	_atom_site_label
	_atom_site_type_symbol
	_atom_site_fract_x
	_atom_site_fract_y
	_atom_site_fract_z
	H0	H	0.401980	0.836597	0.703362
	H1	H	0.598868	0.163901	0.701541
	H2	H	0.599584	0.835308	0.272984
	H3	H	0.399779	0.163186	0.271602
	H4	H	0.721080	0.399289	0.824593
	H5	H	0.718987	0.598253	0.151561
	H6	H	0.286436	0.601823	0.825484
	H7	H	0.289803	0.399516	0.150635
	H8	H	0.840018	0.715304	0.386910
	H9	H	0.165407	0.715034	0.588159
	H10	H	0.839232	0.286747	0.586431
	H11	H	0.165294	0.281648	0.390042
	H12	H	0.841088	0.399812	0.705183
	H13	H	0.166983	0.597294	0.702882
	H14	H	0.841634	0.599770	0.269495
	H15	H	0.166780	0.398959	0.274104
	H16	H	0.404505	0.714220	0.823679
	H17	H	0.603159	0.715040	0.151363
	H18	H	0.605131	0.283728	0.824095
	H19	H	0.405572	0.284888	0.149964
	H20	H	0.719585	0.837219	0.385452
	H21	H	0.717220	0.162948	0.588034
	H22	H	0.286043	0.836629	0.587400
	H23	H	0.282619	0.161964	0.385375
	H24	H	0.906887	0.335882	0.202804
	H25	H	0.104783	0.662192	0.204578
	H26	H	0.103717	0.335524	0.774684
	H27	H	0.904755	0.662787	0.773019
	H28	H	0.218878	0.897046	0.324464
	H29	H	0.217765	0.099915	0.650110
	H30	H	0.784068	0.101189	0.324666
	H31	H	0.784870	0.898141	0.650378
	H32	H	0.341410	0.219914	0.885910
	H33	H	0.665965	0.214180	0.087918
	H34	H	0.340978	0.782705	0.087284
	H35	H	0.665337	0.784465	0.886907
	H36	H	0.339214	0.899431	0.202868
	H37	H	0.663714	0.099594	0.206210
	H38	H	0.339577	0.102226	0.770723
	H39	H	0.664429	0.900332	0.770754
	H40	H	0.900988	0.216195	0.324656
	H41	H	0.101046	0.213538	0.651364
	H42	H	0.101144	0.782911	0.324548
	H43	H	0.900316	0.781883	0.650361
	H44	H	0.221889	0.337415	0.887430
	H45	H	0.221205	0.662643	0.089635
	H46	H	0.788164	0.337115	0.090186
	H47	H	0.788276	0.662390	0.888215
	H48	H	0.406284	0.117015	0.581347
	H49	H	0.589610	0.884797	0.583024
	H50	H	0.597316	0.112333	0.408545
	H51	H	0.414290	0.885524	0.394756
	H52	H	0.596803	0.403457	0.104180
	H53	H	0.598054	0.596738	0.869541
	H54	H	0.406268	0.583468	0.103702
	H55	H	0.408316	0.408784	0.869222
	H56	H	0.121872	0.597581	0.391799
	H57	H	0.887593	0.591107	0.580411
	H58	H	0.119931	0.402515	0.580661
	H59	H	0.883909	0.400383	0.386899
	H60	H	0.118636	0.406183	0.580422
	H61	H	0.888253	0.591572	0.580564
	H62	H	0.115934	0.593632	0.404385
	H63	H	0.889904	0.404881	0.405919
	H64	H	0.423750	0.590083	0.099641
	H65	H	0.600774	0.588838	0.871779
	H66	H	0.600797	0.406839	0.105378
	H67	H	0.413982	0.415005	0.873734
	H68	H	0.599595	0.119678	0.387146
	H69	H	0.591074	0.886202	0.573562
	H70	H	0.411014	0.115217	0.578721
	H71	H	0.407227	0.885434	0.399505
	H72	H	0.905157	0.615153	0.074070
	H73	H	0.095159	0.384801	0.079694
	H74	H	0.097814	0.615380	0.897516
	H75	H	0.907856	0.380922	0.893383
	H76	H	0.096751	0.912683	0.602692
	H77	H	0.093179	0.088290	0.371896
	H78	H	0.908596	0.091707	0.604485
	H79	H	0.912296	0.911116	0.373896
	H80	H	0.618640	0.081556	0.882595
	H81	H	0.387497	0.093273	0.077576
	H82	H	0.617530	0.911880	0.082371
	H83	H	0.383613	0.901306	0.890408
	H84	H	0.618385	0.904868	0.082063
	H85	H	0.387306	0.093326	0.079710
	H86	H	0.622290	0.105601	0.893937
	H87	H	0.388689	0.906390	0.902419
	H88	H	0.909400	0.092442	0.602990
	H89	H	0.089047	0.091697	0.371955
	H90	H	0.088626	0.906717	0.602230
	H91	H	0.911892	0.905037	0.372060
	H92	H	0.096248	0.616515	0.894102
	H93	H	0.099584	0.384061	0.077409
	H94	H	0.912083	0.617477	0.086249
	H95	H	0.917754	0.384581	0.892805
	H96	H	0.405651	0.115356	0.576191
	H97	H	0.598260	0.882504	0.579168
	H98	H	0.579439	0.111725	0.394173
	H99	H	0.406571	0.881449	0.391164
	H100	H	0.596723	0.409217	0.102492
	H101	H	0.591957	0.591234	0.873303
	H102	H	0.409506	0.602141	0.107245
	H103	H	0.416777	0.407110	0.871881
	H104	H	0.116913	0.583558	0.394449
	H105	H	0.887898	0.591193	0.580241
	H106	H	0.119061	0.404641	0.584100
	H107	H	0.889579	0.419270	0.391659
	H108	H	0.918694	0.611686	0.075385
	H109	H	0.099192	0.382413	0.082320
	H110	H	0.094404	0.616011	0.896699
	H111	H	0.912328	0.385793	0.903050
	H112	H	0.097206	0.902812	0.605593
	H113	H	0.093587	0.093051	0.370411
	H114	H	0.908809	0.093305	0.604403
	H115	H	0.905879	0.908890	0.370700
	H116	H	0.611267	0.085889	0.908204
	H117	H	0.387039	0.094997	0.078505
	H118	H	0.615792	0.908721	0.076785
	H119	H	0.387766	0.914446	0.891239
	C120	C	0.379109	0.008170	0.608664
	C121	C	0.622485	0.991946	0.608404
	C122	C	0.622316	0.007514	0.366451
	C123	C	0.378977	0.991451	0.365407
	C124	C	0.626998	0.377375	-0.004040
	C125	C	0.625985	0.621647	0.979435
	C126	C	0.383084	0.621531	-0.004297
	C127	C	0.383916	0.380127	0.979008
	C128	C	0.011309	0.621402	0.366022
	C129	C	0.995190	0.620565	0.609646
	C130	C	0.011618	0.376391	0.610737
	C131	C	0.995180	0.378032	0.366575
	C132	C	0.883244	0.507428	0.108941
	C133	C	0.127092	0.491200	0.109968
	C134	C	0.126068	0.508298	0.866390
	C135	C	0.883061	0.491099	0.867115
	C136	C	0.123507	0.877884	0.495947
	C137	C	0.121680	0.119940	0.479281
	C138	C	0.879094	0.121993	0.496209
	C139	C	0.880381	0.878249	0.479854
	C140	C	0.510635	0.121975	0.865271
	C141	C	0.494372	0.122057	0.109064
	C142	C	0.510291	0.878153	0.109322
	C143	C	0.493898	0.877771	0.864853
	C144	C	0.381476	0.885537	0.665011
	C145	C	0.620174	0.114844	0.663977
	C146	C	0.620433	0.884530	0.310368
	C147	C	0.379881	0.114243	0.309572
	C148	C	0.682999	0.379058	0.873375
	C149	C	0.681149	0.619073	0.102661
	C150	C	0.325141	0.621187	0.873950
	C151	C	0.327926	0.380251	0.101660
	C152	C	0.888853	0.677129	0.366878
	C153	C	0.117037	0.676634	0.608023
	C154	C	0.888424	0.323249	0.607851
	C155	C	0.117152	0.320421	0.369394
	C156	C	0.889509	0.379751	0.666788
	C157	C	0.117839	0.618001	0.665005
	C158	C	0.889782	0.619669	0.308424
	C159	C	0.117915	0.378552	0.311559
	C160	C	0.384397	0.676712	0.872763
	C161	C	0.623851	0.677196	0.102303
	C162	C	0.625407	0.321462	0.873097
	C163	C	0.385894	0.323526	0.101610
	C164	C	0.680001	0.885304	0.366369
	C165	C	0.678921	0.114214	0.607621
	C166	C	0.323735	0.885426	0.607449
	C167	C	0.321653	0.113632	0.366217
	C168	C	0.886170	0.384885	0.165034
	C169	C	0.125211	0.613644	0.166470
	C170	C	0.124326	0.385059	0.811425
	C171	C	0.884507	0.613856	0.810950
	C172	C	0.179463	0.878393	0.373043
	C173	C	0.178800	0.119074	0.601591
	C174	C	0.822466	0.120963	0.373536
	C175	C	0.823527	0.878788	0.601890
	C176	C	0.389359	0.180647	0.865818
	C177	C	0.616720	0.176906	0.108189
	C178	C	0.388983	0.821274	0.107563
	C179	C	0.616495	0.822213	0.866668
	C180	C	0.388032	0.879348	0.164823
	C181	C	0.615763	0.119869	0.166854
	C182	C	0.388442	0.121891	0.808930
	C183	C	0.616041	0.879765	0.808824
	C184	C	0.880374	0.178527	0.373553
	C185	C	0.120290	0.175285	0.602458
	C186	C	0.121516	0.821134	0.373212
	C187	C	0.881042	0.821140	0.601976
	C188	C	0.183016	0.385918	0.867908
	C189	C	0.183155	0.613722	0.109304
	C190	C	0.827226	0.385172	0.108842
	C191	C	0.826517	0.613661	0.867999
	C192	C	0.401275	0.093716	0.585584
	C193	C	0.599706	0.906634	0.585242
	C194	C	0.599065	0.092492	0.389782
	C195	C	0.402453	0.906232	0.388459
	C196	C	0.604725	0.399840	0.081791
	C197	C	0.603507	0.598989	0.893752
	C198	C	0.406499	0.598620	0.081437
	C199	C	0.406563	0.403535	0.893503
	C200	C	0.096261	0.598410	0.389843
	C201	C	0.909870	0.598076	0.587050
	C202	C	0.097098	0.397772	0.588240
	C203	C	0.910029	0.401200	0.388494
	C204	C	0.905381	0.592810	0.085469
	C205	C	0.104527	0.405754	0.086668
	C206	C	0.102926	0.593814	0.889350
	C207	C	0.905823	0.405863	0.889892
	C208	C	0.100864	0.900772	0.581302
	C209	C	0.098850	0.097508	0.393795
	C210	C	0.902131	0.099150	0.581727
	C211	C	0.903286	0.901705	0.394417
	C212	C	0.595319	0.097987	0.888127
	C213	C	0.409417	0.100273	0.085567
	C214	C	0.595262	0.901660	0.086953
	C215	C	0.408741	0.900462	0.887800
	Zn216	Zn	0.501357	-0.000119	0.737201
	Zn217	Zn	0.500513	-0.000194	0.237573
	Zn218	Zn	0.754125	0.499457	-0.011885
	Zn219	Zn	0.254843	0.500194	-0.012060
	Zn220	Zn	0.002250	0.749931	0.488215
	Zn221	Zn	0.001595	0.248932	0.488094
	Zn222	Zn	0.004329	0.498972	0.738399
	Zn223	Zn	0.004875	0.499294	0.237402
	Zn224	Zn	0.503491	0.749969	-0.012829
	Zn225	Zn	0.503762	0.250886	-0.013263
	Zn226	Zn	0.751283	-0.000642	0.487645
	Zn227	Zn	0.251092	-0.000170	0.486574
	N228	N	0.415155	0.962790	0.665998
	N229	N	0.586033	0.037738	0.664798
	N230	N	0.585400	0.961485	0.310194
	N231	N	0.415027	0.037290	0.308992
	N232	N	0.684094	0.412945	0.950799
	N233	N	0.682898	0.585422	0.025025
	N234	N	0.324636	0.587327	0.951447
	N235	N	0.326695	0.414650	0.024475
	N236	N	0.965411	0.678241	0.402227
	N237	N	0.039809	0.678288	0.574280
	N238	N	0.965365	0.320966	0.573955
	N239	N	0.039755	0.319821	0.402718
	N240	N	0.967174	0.412053	0.668800
	N241	N	0.041025	0.583812	0.666079
	N242	N	0.966972	0.585885	0.307875
	N243	N	0.041286	0.413461	0.309716
	N244	N	0.419641	0.677085	0.949590
	N245	N	0.590161	0.678706	0.024780
	N246	N	0.591430	0.320190	0.950405
	N247	N	0.419942	0.323256	0.024241
	N248	N	0.681434	0.962623	0.400394
	N249	N	0.680273	0.036782	0.573560
	N250	N	0.322313	0.962668	0.573114
	N251	N	0.321184	0.036251	0.400245
	N252	N	0.920420	0.461936	0.164945
	N253	N	0.091161	0.536472	0.166997
	N254	N	0.089496	0.462159	0.810633
	N255	N	0.918803	0.536751	0.810085
	N256	N	0.180977	0.912687	0.450344
	N257	N	0.179647	0.085263	0.524180
	N258	N	0.821599	0.086673	0.450832
	N259	N	0.822957	0.913581	0.524778
	N260	N	0.466290	0.180837	0.900224
	N261	N	0.540143	0.178604	0.072999
	N262	N	0.466024	0.820565	0.073715
	N263	N	0.539476	0.820934	0.900742
	N264	N	0.464679	0.913944	0.166163
	N265	N	0.538767	0.086425	0.167430
	N266	N	0.464778	0.086163	0.808392
	N267	N	0.538883	0.913455	0.807715
	N268	N	0.914762	0.179324	0.450906
	N269	N	0.085247	0.175942	0.525457
	N270	N	0.087347	0.820751	0.450518
	N271	N	0.915624	0.820617	0.525034
	N272	N	0.184170	0.463551	0.901332
	N273	N	0.184194	0.536717	0.074636
	N274	N	0.825327	0.462345	0.074581
	N275	N	0.825353	0.536315	0.902245
	O276	O	0.947455	-0.036306	1.065545
	H277	H	0.949176	-0.035837	1.065270
	H278	H	0.944149	-0.027627	1.058262
	O279	O	0.560982	0.484812	0.553132
	H280	H	0.558364	0.488674	0.556948
	H281	H	0.556713	0.484096	0.548228
	O282	O	0.495957	0.542811	0.416759
	H283	H	0.494807	0.539142	0.420138
	H284	H	0.503080	0.553744	0.420474
	O285	O	0.528883	0.554198	0.531319
	H286	H	0.534434	0.553818	0.528127
	H287	H	0.534860	0.553634	0.538841
	O288	O	0.552040	0.512680	0.652371
	H289	H	0.558947	0.505676	0.648147
	H290	H	0.550993	0.508509	0.662977
	O291	O	0.156202	0.040616	1.086047
	H292	H	0.144781	0.043466	1.096139
	H293	H	0.166200	0.051767	1.092157
	O294	O	1.053050	1.085106	-0.101620
	H295	H	1.045279	1.090044	-0.103735
	H296	H	1.054539	1.084672	-0.094780
	O297	O	0.894568	0.955628	0.090322
	H298	H	0.889168	0.948306	0.092679
	H299	H	0.892335	0.941180	0.091464
	O300	O	0.469717	0.473683	0.485104
	H301	H	0.466222	0.478112	0.482070
	H302	H	0.458880	0.473608	0.483080
	O303	O	0.493692	0.478028	0.480325
	H304	H	0.496490	0.482023	0.471827
	H305	H	0.490050	0.475109	0.472317
	O306	O	-0.107767	1.012919	0.991850
	H307	H	-0.115361	1.013484	0.992067
	H308	H	-0.110453	1.007774	0.986257
	O309	O	0.538824	0.411252	0.462068
	H310	H	0.534564	0.410586	0.451666
	H311	H	0.524377	0.417441	0.457959
	O312	O	0.940469	0.964323	0.995276
	H313	H	0.928167	0.960229	1.002652
	H314	H	0.945257	0.955064	0.992472
	O315	O	1.032820	1.005899	0.067078
	H316	H	1.024657	0.998191	0.065838
	H317	H	1.027001	0.993279	0.067410
	O318	O	1.161487	-0.004744	0.996532
	H319	H	1.161199	0.006723	1.009355
	H320	H	1.150115	-0.003277	0.990809
	O321	O	0.513855	0.560995	0.431624
	H322	H	0.515334	0.572154	0.426390
	H323	H	0.524550	0.551879	0.436664
	O324	O	0.032845	0.994464	0.999669
	H325	H	0.034527	1.010397	1.005149
	H326	H	0.025739	0.982579	1.003665
	O327	O	-0.113144	1.064012	0.986157
	H328	H	-0.124731	1.070383	0.983278
	H329	H	-0.107847	1.064947	0.987010
	O330	O	-0.565055	-0.440644	-0.416016
	H331	H	-0.565909	-0.430286	-0.399204
	H332	H	-0.564499	-0.446852	-0.418125
	O333	O	0.528303	0.461490	0.343387
	H334	H	0.527227	0.476105	0.339235
	H335	H	0.520825	0.458885	0.338289
	O336	O	-0.102803	0.083120	-0.096267
	H337	H	-0.107446	0.088139	-0.101292
	H338	H	-0.093357	0.072206	-0.095269
	O339	O	0.123502	-0.122893	-0.142043
	H340	H	0.130764	-0.121022	-0.125923
	H341	H	0.116641	-0.114602	-0.144416
	O342	O	1.092735	-0.028357	0.829915
	H343	H	1.087566	-0.015296	0.826741
	H344	H	1.102461	-0.030346	0.820493
	O345	O	-0.091374	0.874320	0.999070
	H346	H	-0.092680	0.886585	0.992875
	H347	H	-0.098393	0.870625	0.999142
	O348	O	0.574899	0.487979	0.475264
	H349	H	0.562062	0.485419	0.467802
	H350	H	0.583453	0.480287	0.479771
	O351	O	0.555430	0.431939	0.490822
	H352	H	0.563908	0.421786	0.485271
	H353	H	0.544654	0.432849	0.490272
	O354	O	-0.478705	1.517290	0.514549
	H355	H	-0.475774	1.515844	0.531329
	H356	H	-0.474255	1.518450	0.521319
	O357	O	0.589778	0.517611	0.454980
	H358	H	0.583903	0.509096	0.462759
	H359	H	0.604953	0.519720	0.456697
	O360	O	0.944753	0.161681	0.867378
	H361	H	0.936709	0.164838	0.854343
	H362	H	0.941468	0.164838	0.866681
	O363	O	0.462312	0.453187	0.528145
	H364	H	0.475098	0.462677	0.520802
	H365	H	0.469283	0.447168	0.527510
	O366	O	0.502864	0.473460	0.329855
	H367	H	0.501494	0.470324	0.324265
	H368	H	0.501145	0.480965	0.329275
	O369	O	1.094564	-0.018018	0.017132
	H370	H	1.095149	-0.020157	0.024884
	H371	H	1.092247	-0.024825	0.013033
	O372	O	0.498843	0.579032	0.543440
	H373	H	0.500703	0.582531	0.540093
	H374	H	0.493533	0.578790	0.533478
	O375	O	1.002101	0.033224	1.036411
	H376	H	0.997076	0.051042	1.031309
	H377	H	1.002365	0.031924	1.040857
	O378	O	0.007431	0.969997	0.047633
	H379	H	0.019917	0.958206	0.038696
	H380	H	0.001297	0.970265	0.047208
	O381	O	-0.456339	1.583783	1.529002
	H382	H	-0.453359	1.583606	1.544020
	H383	H	-0.449730	1.570547	1.538395
	O384	O	0.936193	0.820327	0.021414
	H385	H	0.952196	0.808012	0.017567
	H386	H	0.945317	0.812809	0.021712
	O387	O	1.003478	0.002896	0.998307
	H388	H	0.999624	0.001812	0.999915
	H389	H	1.005883	0.007504	0.992306
	O390	O	0.927044	1.005449	-0.098455
	H391	H	0.944643	1.009936	-0.101178
	H392	H	0.920422	1.011217	-0.085661
	O393	O	0.428759	0.496498	0.452385
	H394	H	0.425578	0.507315	0.455764
	H395	H	0.429141	0.503676	0.452005
