data_Molecule from HDF5

_cell_length_a		16.365329
_cell_length_b		16.225845
_cell_length_c		16.264707
_cell_angle_alpha	89.865993
_cell_angle_beta	90.050158
_cell_angle_gamma	90.339955
_symmetry_space_group_name_H-M	'P 1'
_symmetry_Int_Tables_number		1

loop_
	_symmetry_equiv_pos_as_xyz
	x,y,z

loop_
	_atom_site_label
	_atom_site_type_symbol
	_atom_site_fract_x
	_atom_site_fract_y
	_atom_site_fract_z
	H0	H	0.399391	0.836547	0.716553
	H1	H	0.595523	0.166283	0.716487
	H2	H	0.594282	0.836941	0.290867
	H3	H	0.400257	0.166393	0.288930
	H4	H	0.709737	0.402119	0.838293
	H5	H	0.713227	0.601611	0.164778
	H6	H	0.282156	0.600464	0.839131
	H7	H	0.278639	0.399375	0.166084
	H8	H	0.833955	0.716898	0.402335
	H9	H	0.160313	0.717274	0.600638
	H10	H	0.834424	0.285324	0.599307
	H11	H	0.161215	0.288380	0.403153
	H12	H	0.833932	0.401347	0.716130
	H13	H	0.158752	0.602314	0.718681
	H14	H	0.833347	0.599888	0.287318
	H15	H	0.159864	0.404423	0.286128
	H16	H	0.398596	0.714980	0.839743
	H17	H	0.594293	0.712898	0.167490
	H18	H	0.590718	0.288647	0.838600
	H19	H	0.397558	0.286293	0.167235
	H20	H	0.712161	0.838197	0.404452
	H21	H	0.712817	0.165662	0.603478
	H22	H	0.280185	0.838827	0.604544
	H23	H	0.282796	0.165806	0.403258
	H24	H	0.896613	0.337176	0.216866
	H25	H	0.094760	0.666682	0.214898
	H26	H	0.092542	0.336399	0.789537
	H27	H	0.899652	0.665340	0.788059
	H28	H	0.213894	0.902036	0.340546
	H29	H	0.212819	0.102889	0.667030
	H30	H	0.781781	0.102226	0.340559
	H31	H	0.782828	0.901285	0.666991
	H32	H	0.332568	0.213869	0.904709
	H33	H	0.659189	0.218026	0.101893
	H34	H	0.334060	0.783966	0.102655
	H35	H	0.660280	0.787643	0.906824
	H36	H	0.334448	0.900826	0.218604
	H37	H	0.660776	0.100030	0.216513
	H38	H	0.333746	0.098842	0.787414
	H39	H	0.660326	0.903498	0.788897
	H40	H	0.901199	0.214019	0.338667
	H41	H	0.095400	0.216685	0.666915
	H42	H	0.093502	0.790428	0.338470
	H43	H	0.899677	0.786408	0.666567
	H44	H	0.209444	0.337282	0.903658
	H45	H	0.212813	0.665139	0.101699
	H46	H	0.781278	0.337126	0.100534
	H47	H	0.781988	0.664866	0.901467
	H48	H	0.404061	0.119369	0.597243
	H49	H	0.586631	0.887942	0.589574
	H50	H	0.597704	0.120300	0.410753
	H51	H	0.393849	0.885180	0.421010
	H52	H	0.579850	0.405012	0.116972
	H53	H	0.587249	0.602480	0.883982
	H54	H	0.399151	0.596686	0.122345
	H55	H	0.410073	0.401247	0.887667
	H56	H	0.116406	0.600435	0.399655
	H57	H	0.880426	0.603211	0.586422
	H58	H	0.115306	0.402934	0.596186
	H59	H	0.882915	0.408450	0.412069
	H60	H	0.110573	0.412721	0.591583
	H61	H	0.885757	0.583439	0.591254
	H62	H	0.111212	0.601798	0.416253
	H63	H	0.882325	0.410091	0.407463
	H64	H	0.401228	0.585207	0.118125
	H65	H	0.597340	0.592373	0.884690
	H66	H	0.597204	0.404680	0.122938
	H67	H	0.392355	0.403689	0.882067
	H68	H	0.588250	0.119378	0.404372
	H69	H	0.598024	0.882334	0.596252
	H70	H	0.407188	0.118325	0.596167
	H71	H	0.400828	0.881609	0.399085
	H72	H	0.897679	0.618999	0.091479
	H73	H	0.093236	0.388999	0.077209
	H74	H	0.090201	0.619507	0.904232
	H75	H	0.896137	0.382269	0.908598
	H76	H	0.094036	0.905967	0.622301
	H77	H	0.092645	0.092636	0.387331
	H78	H	0.899249	0.092818	0.621341
	H79	H	0.901265	0.899660	0.383077
	H80	H	0.613394	0.097162	0.907825
	H81	H	0.379138	0.094992	0.100725
	H82	H	0.612663	0.906261	0.095469
	H83	H	0.380335	0.901982	0.912096
	H84	H	0.612623	0.909219	0.098525
	H85	H	0.382457	0.095083	0.091497
	H86	H	0.611988	0.096965	0.912419
	H87	H	0.384447	0.912207	0.914169
	H88	H	0.907514	0.090707	0.618481
	H89	H	0.089283	0.093653	0.387458
	H90	H	0.091060	0.914770	0.617687
	H91	H	0.895648	0.918670	0.387364
	H92	H	0.086779	0.616190	0.911323
	H93	H	0.098340	0.378079	0.107438
	H94	H	0.904491	0.619923	0.100672
	H95	H	0.904508	0.383779	0.904730
	H96	H	0.404477	0.118185	0.593641
	H97	H	0.585348	0.884177	0.603088
	H98	H	0.588039	0.116116	0.415515
	H99	H	0.415879	0.890255	0.415357
	H100	H	0.590472	0.420374	0.116658
	H101	H	0.585078	0.588984	0.888608
	H102	H	0.410412	0.592681	0.117338
	H103	H	0.401694	0.417852	0.890299
	H104	H	0.109197	0.586451	0.408133
	H105	H	0.877067	0.595656	0.605747
	H106	H	0.113956	0.412474	0.602574
	H107	H	0.880900	0.405298	0.408456
	H108	H	0.907957	0.615477	0.090444
	H109	H	0.069692	0.389414	0.098286
	H110	H	0.095213	0.618736	0.911432
	H111	H	0.902841	0.385152	0.913345
	H112	H	0.084214	0.907367	0.619045
	H113	H	0.092189	0.095355	0.386586
	H114	H	0.905371	0.098904	0.621346
	H115	H	0.914437	0.913478	0.390881
	H116	H	0.611402	0.092830	0.910215
	H117	H	0.382960	0.086206	0.096512
	H118	H	0.614568	0.905681	0.099751
	H119	H	0.380157	0.909972	0.904252
	C120	C	0.375974	0.010214	0.624902
	C121	C	0.618868	0.993373	0.625186
	C122	C	0.618820	0.009982	0.382345
	C123	C	0.375337	0.993913	0.382315
	C124	C	0.616885	0.380964	0.010622
	C125	C	0.618403	0.622793	0.993960
	C126	C	0.375384	0.621318	0.011248
	C127	C	0.372788	0.378629	0.994712
	C128	C	0.004799	0.624437	0.379501
	C129	C	0.988572	0.623657	0.623695
	C130	C	0.005480	0.379903	0.624115
	C131	C	0.989264	0.379699	0.379931
	C132	C	0.874365	0.509687	0.123369
	C133	C	0.116683	0.493601	0.123002
	C134	C	0.117961	0.509543	0.880771
	C135	C	0.873826	0.492532	0.880152
	C136	C	0.118515	0.881026	0.511490
	C137	C	0.119424	0.123359	0.494874
	C138	C	0.876288	0.122855	0.511823
	C139	C	0.875509	0.880916	0.495081
	C140	C	0.504456	0.123387	0.881366
	C141	C	0.488792	0.122350	0.125032
	C142	C	0.505735	0.878013	0.126346
	C143	C	0.489247	0.879738	0.881920
	C144	C	0.378529	0.886068	0.679644
	C145	C	0.616267	0.116964	0.679491
	C146	C	0.615155	0.886218	0.328243
	C147	C	0.378798	0.117085	0.326265
	C148	C	0.671751	0.382317	0.887347
	C149	C	0.674384	0.620763	0.116548
	C150	C	0.320431	0.619770	0.888111
	C151	C	0.316857	0.379686	0.117334
	C152	C	0.882452	0.678753	0.382484
	C153	C	0.111371	0.679200	0.621019
	C154	C	0.883091	0.323688	0.620461
	C155	C	0.112194	0.325779	0.382531
	C156	C	0.882871	0.381164	0.678654
	C157	C	0.110639	0.622087	0.679714
	C158	C	0.882136	0.620770	0.325060
	C159	C	0.111301	0.383344	0.324152
	C160	C	0.378084	0.677249	0.888390
	C161	C	0.615285	0.676222	0.118066
	C162	C	0.612547	0.326236	0.887324
	C163	C	0.375959	0.323593	0.118139
	C164	C	0.673643	0.886774	0.384648
	C165	C	0.674478	0.116646	0.623146
	C166	C	0.318937	0.887424	0.624282
	C167	C	0.320635	0.117017	0.383427
	C168	C	0.876620	0.386175	0.178719
	C169	C	0.114933	0.617479	0.177479
	C170	C	0.113839	0.385811	0.826507
	C171	C	0.878394	0.616327	0.825702
	C172	C	0.175003	0.882652	0.388893
	C173	C	0.174822	0.122735	0.618056
	C174	C	0.820734	0.121029	0.388896
	C175	C	0.820908	0.881719	0.618192
	C176	C	0.381669	0.177081	0.883768
	C177	C	0.610941	0.179235	0.122297
	C178	C	0.382798	0.822183	0.123540
	C179	C	0.611711	0.825428	0.885648
	C180	C	0.383032	0.880368	0.181018
	C181	C	0.611886	0.120464	0.179202
	C182	C	0.382244	0.119961	0.825457
	C183	C	0.611901	0.883358	0.827483
	C184	C	0.879904	0.176918	0.387973
	C185	C	0.116649	0.179212	0.618018
	C186	C	0.115460	0.826945	0.387759
	C187	C	0.879020	0.824717	0.617953
	C188	C	0.171808	0.386153	0.883240
	C189	C	0.173770	0.616558	0.121540
	C190	C	0.818732	0.386218	0.121420
	C191	C	0.820040	0.616036	0.882145
	C192	C	0.398516	0.096348	0.602262
	C193	C	0.596464	0.906922	0.602879
	C194	C	0.597682	0.096235	0.403978
	C195	C	0.397180	0.907918	0.405088
	C196	C	0.595443	0.403315	0.096528
	C197	C	0.596177	0.601328	0.907869
	C198	C	0.397354	0.598232	0.097255
	C199	C	0.394905	0.400970	0.908913
	C200	C	0.090283	0.602540	0.401731
	C201	C	0.903147	0.600761	0.601103
	C202	C	0.091167	0.402656	0.602944
	C203	C	0.904115	0.401334	0.402711
	C204	C	0.896736	0.595804	0.100894
	C205	C	0.093699	0.407659	0.100841
	C206	C	0.096917	0.595868	0.902493
	C207	C	0.894919	0.406120	0.902401
	C208	C	0.096416	0.902901	0.597395
	C209	C	0.097740	0.100705	0.409266
	C210	C	0.897811	0.100641	0.597936
	C211	C	0.897311	0.903858	0.409245
	C212	C	0.590241	0.102024	0.903679
	C213	C	0.403497	0.098985	0.102822
	C214	C	0.591139	0.900314	0.104381
	C215	C	0.403639	0.901650	0.903768
	Zn216	Zn	0.497485	0.001946	0.752715
	Zn217	Zn	0.497478	0.001394	0.254167
	Zn218	Zn	0.746145	0.501558	0.001865
	Zn219	Zn	0.245737	0.501033	0.002794
	Zn220	Zn	-0.003069	0.752652	0.501812
	Zn221	Zn	-0.001460	0.251032	0.502521
	Zn222	Zn	-0.003460	0.501288	0.753080
	Zn223	Zn	-0.003698	0.502359	0.251498
	Zn224	Zn	0.496724	0.750234	0.003883
	Zn225	Zn	0.495608	0.251691	0.003676
	Zn226	Zn	0.746766	0.002072	0.504187
	Zn227	Zn	0.247297	0.002706	0.504256
	N228	N	0.413243	0.963513	0.680254
	N229	N	0.582205	0.039175	0.680745
	N230	N	0.581905	0.963739	0.326630
	N231	N	0.412050	0.039422	0.325528
	N232	N	0.674372	0.415592	0.965062
	N233	N	0.676468	0.588454	0.038422
	N234	N	0.318613	0.585826	0.965710
	N235	N	0.314972	0.413193	0.039694
	N236	N	0.959908	0.681364	0.415507
	N237	N	0.034263	0.680320	0.586874
	N238	N	0.960342	0.322882	0.587185
	N239	N	0.035171	0.323043	0.416443
	N240	N	0.959912	0.415396	0.680981
	N241	N	0.033388	0.588387	0.681589
	N242	N	0.959107	0.587558	0.323338
	N243	N	0.033992	0.415945	0.322414
	N244	N	0.411861	0.677974	0.965799
	N245	N	0.581158	0.677804	0.040818
	N246	N	0.579207	0.325118	0.964895
	N247	N	0.410074	0.322610	0.040899
	N248	N	0.676058	0.964815	0.417633
	N249	N	0.675944	0.038633	0.589995
	N250	N	0.317608	0.965344	0.590785
	N251	N	0.318389	0.039326	0.417405
	N252	N	0.910286	0.464052	0.180183
	N253	N	0.080179	0.540101	0.178477
	N254	N	0.080955	0.463750	0.824807
	N255	N	0.911037	0.538532	0.824243
	N256	N	0.176719	0.915611	0.466814
	N257	N	0.176738	0.088810	0.540707
	N258	N	0.818322	0.088271	0.466983
	N259	N	0.818645	0.915928	0.540771
	N260	N	0.458633	0.179166	0.917890
	N261	N	0.533323	0.180560	0.089471
	N262	N	0.459923	0.820686	0.090139
	N263	N	0.534395	0.822964	0.918670
	N264	N	0.460388	0.914067	0.183223
	N265	N	0.534894	0.085959	0.181128
	N266	N	0.459561	0.087223	0.824001
	N267	N	0.534562	0.916133	0.824851
	N268	N	0.914015	0.177918	0.465179
	N269	N	0.082864	0.179618	0.540550
	N270	N	0.080886	0.826003	0.464727
	N271	N	0.912212	0.823993	0.540239
	N272	N	0.174573	0.464033	0.916218
	N273	N	0.174980	0.538599	0.088436
	N274	N	0.817328	0.463917	0.087584
	N275	N	0.817016	0.537924	0.915193
	O276	O	0.457377	0.575645	0.479831
	H277	H	0.458873	0.574968	0.470507
	H278	H	0.455104	0.588337	0.474974
	O279	O	0.436824	0.536920	0.501139
	H280	H	0.429057	0.532006	0.497528
	H281	H	0.434053	0.544885	0.498953
	O282	O	0.473575	0.450020	0.414744
	H283	H	0.473711	0.457321	0.416821
	H284	H	0.480013	0.443647	0.416597
	O285	O	-0.028857	0.963797	1.046034
	H286	H	-0.030476	0.959822	1.048808
	H287	H	-0.030568	0.953617	1.038041
	O288	O	0.477813	0.520582	0.485089
	H289	H	0.474416	0.534740	0.485596
	H290	H	0.483405	0.524589	0.484850
	O291	O	0.039374	0.012839	1.029988
	H292	H	0.039642	0.014999	1.037759
	H293	H	0.033163	0.020746	1.023097
	O294	O	0.493620	0.533536	0.494989
	H295	H	0.491763	0.546181	0.499755
	H296	H	0.489491	0.528030	0.492267
	O297	O	0.470992	0.468348	0.549533
	H298	H	0.462396	0.459518	0.555825
	H299	H	0.471510	0.465121	0.543259
	O300	O	0.541092	0.445294	0.522235
	H301	H	0.544642	0.443419	0.526040
	H302	H	0.530846	0.450104	0.525256
	O303	O	0.473156	0.433677	0.487516
	H304	H	0.478629	0.436961	0.482874
	H305	H	0.475817	0.433159	0.483172
	O306	O	1.021797	-0.024049	1.001483
	H307	H	1.018048	-0.022704	1.003105
	H308	H	1.025050	-0.030262	0.997054
	O309	O	0.492733	0.490762	0.485523
	H310	H	0.496631	0.496161	0.494494
	H311	H	0.497695	0.491970	0.485764
	O312	O	0.019980	0.013486	0.045798
	H313	H	0.028562	0.012081	0.041001
	H314	H	0.013946	0.014891	0.044877
	O315	O	1.007003	0.080151	1.090445
	H316	H	1.014338	0.070582	1.097245
	H317	H	1.005821	0.089646	1.090097
	O318	O	0.059558	-0.015363	0.045419
	H319	H	0.053118	-0.012513	0.050057
	H320	H	0.060642	-0.013577	0.054594
	O321	O	0.540788	0.556777	0.442607
	H322	H	0.543001	0.557902	0.443251
	H323	H	0.534775	0.546890	0.452736
	O324	O	1.025027	0.034675	0.112326
	H325	H	1.033408	0.039703	0.126889
	H326	H	1.022009	0.025937	0.104552
	O327	O	1.020323	1.000206	0.031062
	H328	H	1.014444	1.006333	0.033616
	H329	H	1.022849	1.003505	0.025645
	O330	O	1.053531	1.003213	0.047389
	H331	H	1.057530	1.010054	0.056117
	H332	H	1.059370	1.010969	0.049614
	O333	O	0.476237	0.560616	0.501317
	H334	H	0.492009	0.556037	0.509872
	H335	H	0.472359	0.559929	0.499026
