data_Molecule from HDF5

_cell_length_a		16.471211
_cell_length_b		16.376741
_cell_length_c		16.424696
_cell_angle_alpha	89.859844
_cell_angle_beta	89.921189
_cell_angle_gamma	90.013751
_symmetry_space_group_name_H-M	'P 1'
_symmetry_Int_Tables_number		1

loop_
	_symmetry_equiv_pos_as_xyz
	x,y,z

loop_
	_atom_site_label
	_atom_site_type_symbol
	_atom_site_fract_x
	_atom_site_fract_y
	_atom_site_fract_z
	H0	H	0.390835	0.843385	0.721814
	H1	H	0.598519	0.163027	0.720586
	H2	H	0.599794	0.843681	0.281148
	H3	H	0.393497	0.164240	0.283220
	H4	H	0.717494	0.396373	0.842951
	H5	H	0.714133	0.606807	0.159670
	H6	H	0.274869	0.608555	0.842243
	H7	H	0.274337	0.398409	0.160123
	H8	H	0.835600	0.723066	0.398940
	H9	H	0.153454	0.723204	0.604560
	H10	H	0.834063	0.284258	0.604209
	H11	H	0.153923	0.284398	0.398426
	H12	H	0.835097	0.398259	0.723392
	H13	H	0.153347	0.607372	0.721195
	H14	H	0.835881	0.606882	0.281027
	H15	H	0.152805	0.397646	0.279360
	H16	H	0.390743	0.725221	0.843177
	H17	H	0.599188	0.723261	0.159878
	H18	H	0.599989	0.282984	0.841533
	H19	H	0.392164	0.283025	0.160697
	H20	H	0.716457	0.844841	0.396112
	H21	H	0.714646	0.162949	0.605806
	H22	H	0.272450	0.844576	0.607162
	H23	H	0.275306	0.163520	0.397502
	H24	H	0.891086	0.344122	0.221749
	H25	H	0.100221	0.663207	0.222314
	H26	H	0.099154	0.344043	0.781740
	H27	H	0.890682	0.664284	0.781302
	H28	H	0.218626	0.894528	0.344156
	H29	H	0.216816	0.108592	0.659178
	H30	H	0.774009	0.109284	0.342873
	H31	H	0.770172	0.894035	0.659330
	H32	H	0.335927	0.223597	0.897550
	H33	H	0.653359	0.223035	0.104381
	H34	H	0.335360	0.782603	0.105534
	H35	H	0.653245	0.782175	0.896459
	H36	H	0.336475	0.896628	0.223580
	H37	H	0.653189	0.107675	0.221817
	H38	H	0.335897	0.106578	0.781587
	H39	H	0.653231	0.897178	0.779564
	H40	H	0.891679	0.223822	0.342443
	H41	H	0.099779	0.223550	0.660482
	H42	H	0.101123	0.781262	0.343784
	H43	H	0.888126	0.780468	0.660129
	H44	H	0.216448	0.344862	0.897070
	H45	H	0.214594	0.663894	0.105133
	H46	H	0.773440	0.344634	0.106227
	H47	H	0.771578	0.662405	0.893740
	H48	H	0.408434	0.116548	0.595004
	H49	H	0.584975	0.888313	0.594418
	H50	H	0.585243	0.118406	0.408955
	H51	H	0.409697	0.889454	0.408631
	H52	H	0.582611	0.411889	0.114374
	H53	H	0.588887	0.593331	0.885677
	H54	H	0.405443	0.595794	0.115616
	H55	H	0.405791	0.413568	0.888133
	H56	H	0.108171	0.594048	0.411617
	H57	H	0.879681	0.596809	0.591373
	H58	H	0.108071	0.411951	0.594934
	H59	H	0.882603	0.410194	0.417279
	H60	H	0.106528	0.412417	0.589444
	H61	H	0.883365	0.591056	0.586318
	H62	H	0.106957	0.592671	0.413216
	H63	H	0.883081	0.420403	0.411231
	H64	H	0.400886	0.591055	0.115175
	H65	H	0.581416	0.585217	0.889988
	H66	H	0.586834	0.413476	0.114888
	H67	H	0.403979	0.414053	0.887151
	H68	H	0.581185	0.115464	0.412611
	H69	H	0.578559	0.891856	0.589290
	H70	H	0.406848	0.114740	0.585698
	H71	H	0.405766	0.891869	0.418446
	H72	H	0.908217	0.616943	0.092366
	H73	H	0.088262	0.386191	0.099185
	H74	H	0.084804	0.615580	0.917363
	H75	H	0.910053	0.393205	0.916279
	H76	H	0.082487	0.919037	0.612432
	H77	H	0.085193	0.094166	0.387173
	H78	H	0.902161	0.092683	0.615817
	H79	H	0.906788	0.914835	0.389901
	H80	H	0.608439	0.093826	0.910895
	H81	H	0.382814	0.094351	0.085367
	H82	H	0.606355	0.918748	0.093278
	H83	H	0.382468	0.917877	0.910998
	H84	H	0.609703	0.909213	0.093367
	H85	H	0.382866	0.086406	0.093410
	H86	H	0.607178	0.092425	0.910740
	H87	H	0.381142	0.912947	0.911401
	H88	H	0.905285	0.092496	0.614238
	H89	H	0.084887	0.092548	0.388295
	H90	H	0.079931	0.911586	0.613870
	H91	H	0.905039	0.915457	0.389388
	H92	H	0.087021	0.619065	0.909308
	H93	H	0.075653	0.393577	0.090731
	H94	H	0.903312	0.615959	0.085696
	H95	H	0.899649	0.390021	0.915869
	H96	H	0.399914	0.118326	0.591027
	H97	H	0.586252	0.890363	0.585990
	H98	H	0.586679	0.116696	0.414830
	H99	H	0.399021	0.887436	0.411187
	H100	H	0.583625	0.416032	0.112714
	H101	H	0.577359	0.596452	0.888668
	H102	H	0.407269	0.589748	0.113334
	H103	H	0.405217	0.415718	0.887590
	H104	H	0.107453	0.591907	0.411158
	H105	H	0.881864	0.589461	0.594347
	H106	H	0.106138	0.416951	0.593314
	H107	H	0.878309	0.410940	0.406224
	H108	H	0.900825	0.618994	0.092895
	H109	H	0.090745	0.391196	0.083270
	H110	H	0.079254	0.616009	0.911078
	H111	H	0.906077	0.388799	0.906929
	H112	H	0.087030	0.913879	0.616266
	H113	H	0.083491	0.094390	0.388405
	H114	H	0.903793	0.095789	0.616199
	H115	H	0.906798	0.916868	0.389156
	H116	H	0.608526	0.092952	0.909533
	H117	H	0.379008	0.097204	0.095449
	H118	H	0.605091	0.912766	0.085468
	H119	H	0.383689	0.915459	0.914934
	C120	C	0.373023	0.011318	0.622728
	C121	C	0.615596	0.995142	0.622268
	C122	C	0.616378	0.011810	0.379906
	C123	C	0.373200	0.995194	0.380616
	C124	C	0.616672	0.381252	0.009262
	C125	C	0.614976	0.623778	0.992812
	C126	C	0.373046	0.624861	0.009935
	C127	C	0.373617	0.382341	0.992852
	C128	C	0.002921	0.625002	0.380059
	C129	C	0.986431	0.624162	0.622296
	C130	C	0.002069	0.381702	0.624052
	C131	C	0.986443	0.382224	0.380039
	C132	C	0.872967	0.511824	0.122533
	C133	C	0.116672	0.495631	0.123073
	C134	C	0.116143	0.512004	0.880567
	C135	C	0.872921	0.495783	0.880216
	C136	C	0.115951	0.882118	0.509856
	C137	C	0.116086	0.124987	0.493139
	C138	C	0.873180	0.125121	0.509991
	C139	C	0.873024	0.882196	0.493754
	C140	C	0.503460	0.124887	0.878997
	C141	C	0.486515	0.124355	0.122815
	C142	C	0.502636	0.881157	0.123132
	C143	C	0.486770	0.882351	0.880174
	C144	C	0.371365	0.891437	0.682342
	C145	C	0.617186	0.114967	0.681594
	C146	C	0.618255	0.891812	0.320723
	C147	C	0.373654	0.115858	0.322050
	C148	C	0.677016	0.378748	0.890123
	C149	C	0.674342	0.625367	0.112111
	C150	C	0.314230	0.626876	0.890108
	C151	C	0.314052	0.379876	0.112557
	C152	C	0.883187	0.683926	0.379202
	C153	C	0.105926	0.683612	0.623631
	C154	C	0.882029	0.323255	0.623829
	C155	C	0.105997	0.323397	0.378861
	C156	C	0.882512	0.379954	0.683103
	C157	C	0.105651	0.625857	0.681629
	C158	C	0.883412	0.626235	0.320763
	C159	C	0.105687	0.380263	0.320064
	C160	C	0.371751	0.685132	0.890464
	C161	C	0.617308	0.683597	0.112197
	C162	C	0.618501	0.321933	0.889757
	C163	C	0.373030	0.322957	0.112900
	C164	C	0.676359	0.892231	0.378067
	C165	C	0.675048	0.115107	0.624130
	C166	C	0.312862	0.891971	0.625120
	C167	C	0.315017	0.115629	0.379164
	C168	C	0.872017	0.392098	0.182104
	C169	C	0.118635	0.615198	0.182632
	C170	C	0.117814	0.392027	0.821262
	C171	C	0.871436	0.615944	0.820396
	C172	C	0.177285	0.877861	0.391351
	C173	C	0.176378	0.126868	0.612038
	C174	C	0.814030	0.127318	0.390589
	C175	C	0.811230	0.877673	0.612090
	C176	C	0.383586	0.184080	0.878391
	C177	C	0.605774	0.183681	0.123745
	C178	C	0.383289	0.821576	0.124803
	C179	C	0.605767	0.822282	0.878192
	C180	C	0.383780	0.878852	0.183173
	C181	C	0.605629	0.125984	0.182059
	C182	C	0.383661	0.126070	0.820517
	C183	C	0.605768	0.879380	0.819735
	C184	C	0.872453	0.184428	0.390178
	C185	C	0.118055	0.184079	0.612667
	C186	C	0.118697	0.821273	0.390973
	C187	C	0.869737	0.820634	0.612553
	C188	C	0.176325	0.392413	0.878496
	C189	C	0.175497	0.615654	0.124119
	C190	C	0.813860	0.392230	0.124293
	C191	C	0.812169	0.614984	0.876566
	C192	C	0.397837	0.094820	0.597741
	C193	C	0.590623	0.911823	0.597092
	C194	C	0.591554	0.095019	0.404912
	C195	C	0.397664	0.911516	0.405441
	C196	C	0.591617	0.406366	0.092305
	C197	C	0.589811	0.599035	0.909732
	C198	C	0.397597	0.599473	0.093127
	C199	C	0.397902	0.407329	0.909406
	C200	C	0.085978	0.600172	0.404771
	C201	C	0.903183	0.599498	0.597789
	C202	C	0.085263	0.406414	0.599574
	C203	C	0.903118	0.406735	0.404458
	C204	C	0.897090	0.595638	0.097581
	C205	C	0.091927	0.412028	0.098382
	C206	C	0.090891	0.595267	0.905403
	C207	C	0.898132	0.412462	0.905665
	C208	C	0.090456	0.907663	0.592594
	C209	C	0.091557	0.100652	0.409675
	C210	C	0.897024	0.100612	0.593667
	C211	C	0.898793	0.908311	0.411275
	C212	C	0.586485	0.100340	0.903412
	C213	C	0.403186	0.099590	0.098390
	C214	C	0.585613	0.906361	0.097838
	C215	C	0.404095	0.907898	0.905315
	Zn216	Zn	0.494922	0.002940	0.750851
	Zn217	Zn	0.494646	0.002791	0.251748
	Zn218	Zn	0.744393	0.503452	0.000747
	Zn219	Zn	0.244623	0.503697	0.001711
	Zn220	Zn	-0.005185	0.754005	0.501685
	Zn221	Zn	-0.005443	0.253544	0.501641
	Zn222	Zn	-0.006201	0.503648	0.752177
	Zn223	Zn	-0.004945	0.503811	0.251043
	Zn224	Zn	0.494756	0.753125	0.001465
	Zn225	Zn	0.494815	0.253457	0.001065
	Zn226	Zn	0.744519	0.003524	0.501590
	Zn227	Zn	0.244119	0.003280	0.501385
	N228	N	0.408141	0.966692	0.680909
	N229	N	0.580943	0.039279	0.680498
	N230	N	0.581868	0.967273	0.321517
	N231	N	0.408816	0.039668	0.322613
	N232	N	0.676042	0.415078	0.965470
	N233	N	0.673258	0.589124	0.036812
	N234	N	0.314894	0.590371	0.965472
	N235	N	0.314373	0.416072	0.037000
	N236	N	0.958687	0.683536	0.414912
	N237	N	0.030694	0.682750	0.587580
	N238	N	0.957647	0.323918	0.587987
	N239	N	0.031030	0.324492	0.415353
	N240	N	0.957960	0.415403	0.683239
	N241	N	0.030393	0.589608	0.680832
	N242	N	0.958882	0.590737	0.320979
	N243	N	0.030062	0.415951	0.320491
	N244	N	0.407392	0.684158	0.965967
	N245	N	0.581210	0.682948	0.036815
	N246	N	0.581885	0.323218	0.964901
	N247	N	0.409099	0.324135	0.037444
	N248	N	0.675548	0.967947	0.413889
	N249	N	0.674195	0.039507	0.587974
	N250	N	0.313836	0.967655	0.588781
	N251	N	0.314456	0.039521	0.414468
	N252	N	0.908076	0.467632	0.180977
	N253	N	0.082417	0.539583	0.181864
	N254	N	0.080886	0.467369	0.822295
	N255	N	0.908221	0.540603	0.822474
	N256	N	0.175635	0.915172	0.466146
	N257	N	0.175335	0.091004	0.536501
	N258	N	0.814327	0.091002	0.466205
	N259	N	0.813231	0.915349	0.537161
	N260	N	0.459287	0.183855	0.913554
	N261	N	0.530734	0.182460	0.087348
	N262	N	0.458397	0.823018	0.088160
	N263	N	0.530904	0.824023	0.915096
	N264	N	0.458970	0.915169	0.182238
	N265	N	0.530317	0.089899	0.181602
	N266	N	0.459080	0.090169	0.820625
	N267	N	0.530684	0.916029	0.820726
	N268	N	0.908503	0.183109	0.465469
	N269	N	0.081211	0.183084	0.537689
	N270	N	0.080980	0.823965	0.465553
	N271	N	0.907621	0.823425	0.538203
	N272	N	0.175310	0.467945	0.914428
	N273	N	0.174491	0.540102	0.087886
	N274	N	0.814404	0.467844	0.087925
	N275	N	0.812977	0.539255	0.913040
	O276	O	0.603799	0.367362	0.540700
	H277	H	0.599939	0.386058	0.549277
	H278	H	0.612010	0.365405	0.534580
	O279	O	0.472075	0.375689	0.422492
	H280	H	0.473996	0.376459	0.432419
	H281	H	0.464362	0.381656	0.431442
	O282	O	0.528616	0.520910	0.687659
	H283	H	0.545258	0.520555	0.706588
	H284	H	0.549993	0.521896	0.681607
	O285	O	1.151327	0.997960	0.014177
	H286	H	1.153440	0.999001	0.015412
	H287	H	1.152295	0.995038	0.012520
	O288	O	0.649609	0.685517	0.659306
	H289	H	0.650737	0.694107	0.630802
	H290	H	0.652562	0.664795	0.657645
	O291	O	0.936647	0.211781	0.794121
	H292	H	0.907194	0.214493	0.789797
	H293	H	0.916932	0.217172	0.787909
	O294	O	0.844556	1.078076	1.125626
	H295	H	0.857286	1.075106	1.118914
	H296	H	0.847370	1.066317	1.126220
	O297	O	0.480515	0.576339	0.632338
	H298	H	0.479053	0.563238	0.642839
	H299	H	0.479076	0.564387	0.623338
	O300	O	0.588678	0.347223	0.385694
	H301	H	0.579040	0.342387	0.393167
	H302	H	0.593970	0.342886	0.388587
	O303	O	0.636343	0.449574	0.530775
	H304	H	0.649493	0.457970	0.529410
	H305	H	0.627396	0.440767	0.524993
	O306	O	0.465701	-0.374698	1.638850
	H307	H	0.459946	-0.372174	1.637370
	H308	H	0.449019	-0.378554	1.641206
	O309	O	0.962029	-0.099817	0.003187
	H310	H	0.967060	-0.092989	-0.000001
	H311	H	0.966595	-0.094791	0.004535
	O312	O	0.366463	0.443991	0.407786
	H313	H	0.368134	0.441116	0.419370
	H314	H	0.346573	0.442263	0.408169
	O315	O	-0.213592	0.009544	0.834444
	H316	H	-0.207075	-0.000902	0.830407
	H317	H	-0.219785	0.004520	0.825347
	O318	O	0.086806	-0.016323	-0.205781
	H319	H	0.088375	-0.017322	-0.210413
	H320	H	0.088374	-0.026134	-0.214564
	O321	O	0.808884	0.150904	-0.181791
	H322	H	0.798645	0.119696	-0.191237
	H323	H	0.807409	0.146339	-0.149119
	O324	O	1.007298	-0.195855	0.954472
	H325	H	1.001137	-0.201003	0.966067
	H326	H	1.010054	-0.191782	0.983493
	O327	O	0.521511	0.414166	0.321905
	H328	H	0.514516	0.418980	0.319858
	H329	H	0.524871	0.425709	0.329697
	O330	O	-0.197038	0.814042	1.189180
	H331	H	-0.199431	0.821716	1.161410
	H332	H	-0.207756	0.816695	1.205053
	O333	O	0.198526	1.203638	0.019570
	H334	H	0.193380	1.198544	0.006109
	H335	H	0.206646	1.208266	0.012796
	O336	O	1.087403	1.188013	0.196234
	H337	H	1.083274	1.191855	0.158471
	H338	H	1.077353	1.188020	0.214089
	O339	O	0.212705	0.987219	1.146154
	H340	H	0.217242	1.008629	1.157953
	H341	H	0.212551	0.990815	1.162840
	O342	O	0.432687	0.631144	0.529269
	H343	H	0.442835	0.635986	0.550149
	H344	H	0.425983	0.621584	0.530921
	O345	O	0.199636	0.122498	1.201213
	H346	H	0.162706	0.135312	1.209073
	H347	H	0.212958	0.121444	1.196895
	O348	O	0.469228	0.555585	0.317147
	H349	H	0.468853	0.550922	0.309609
	H350	H	0.457261	0.559846	0.305775
	O351	O	1.001658	0.902630	-0.206217
	H352	H	1.019845	0.912497	-0.212060
	H353	H	0.996874	0.907944	-0.199444
	O354	O	1.004831	1.060537	0.954070
	H355	H	1.011542	1.039873	0.964437
	H356	H	0.995907	1.057903	0.952047
	O357	O	0.176619	-0.142152	-0.044869
	H358	H	0.190913	-0.138925	-0.027633
	H359	H	0.177984	-0.154962	-0.047939
	O360	O	0.505172	0.664336	0.438021
	H361	H	0.510419	0.672491	0.436552
	H362	H	0.491705	0.668772	0.424832
	O363	O	1.559834	0.543991	0.422898
	H364	H	1.558927	0.557038	0.412161
	H365	H	1.541800	0.549367	0.428570
	O366	O	0.124998	-0.105753	0.808234
	H367	H	0.110805	-0.091370	0.796782
	H368	H	0.119575	-0.114925	0.825893
	O369	O	0.613772	0.510104	0.552961
	H370	H	0.608957	0.526894	0.561727
	H371	H	0.596728	0.512778	0.550685
	O372	O	0.678232	0.651670	0.411563
	H373	H	0.678656	0.628824	0.409447
	H374	H	0.678963	0.659772	0.411819
	O375	O	0.117214	-0.135209	0.980755
	H376	H	0.121995	-0.134897	0.973932
	H377	H	0.103963	-0.139528	0.978408
	O378	O	0.012783	-0.006977	0.134659
	H379	H	0.014791	0.005603	0.143263
	H380	H	0.017813	-0.013997	0.134142
	O381	O	-0.071885	0.916372	-0.092571
	H382	H	-0.052068	0.923103	-0.067165
	H383	H	-0.054648	0.899371	-0.097911
	O384	O	0.010174	1.208180	0.988168
	H385	H	-0.000809	1.217721	0.967891
	H386	H	0.008639	1.202079	0.990073
	O387	O	0.697641	0.533020	0.348490
	H388	H	0.696682	0.517523	0.339610
	H389	H	0.705576	0.517293	0.342305
	O390	O	1.105312	1.152119	-0.182870
	H391	H	1.077014	1.156170	-0.173057
	H392	H	1.103181	1.147595	-0.180945
	O393	O	0.409091	0.592280	0.405968
	H394	H	0.419294	0.571739	0.404810
	H395	H	0.394002	0.588435	0.419132
	O396	O	0.963770	-0.210085	0.220130
	H397	H	0.942712	-0.209610	0.203855
	H398	H	0.955589	-0.241858	0.251803
	O399	O	0.423835	0.451570	0.588258
	H400	H	0.434476	0.453094	0.584027
	H401	H	0.414939	0.448723	0.613989
	O402	O	0.812305	1.029530	0.056161
	H403	H	0.809287	1.019709	0.058678
	H404	H	0.810148	1.038017	0.054838
	O405	O	0.427193	0.411621	0.473214
	H406	H	0.432630	0.408541	0.486889
	H407	H	0.420230	0.430326	0.479764
	O408	O	0.339064	0.342182	0.690816
	H409	H	0.341801	0.326376	0.713228
	H410	H	0.340241	0.348960	0.682451
	O411	O	0.845510	0.822070	1.010514
	H412	H	0.841024	0.818572	0.990918
	H413	H	0.836264	0.813653	0.990803
	O414	O	0.306821	0.406866	0.633066
	H415	H	0.300452	0.398138	0.625986
	H416	H	0.314559	0.399547	0.635549
	O417	O	-0.028436	1.186715	1.127637
	H418	H	-0.017861	1.172066	1.130918
	H419	H	-0.020138	1.197594	1.114677
	O420	O	-0.147323	1.008028	1.201029
	H421	H	-0.143105	1.002724	1.208529
	H422	H	-0.145141	0.989997	1.214315
	O423	O	0.059927	0.861089	-0.022755
	H424	H	0.069591	0.881308	-0.008498
	H425	H	0.054134	0.848944	-0.029250
	O426	O	0.512087	0.375209	0.585958
	H427	H	0.509512	0.380516	0.589399
	H428	H	0.513950	0.376378	0.566460
	O429	O	0.303286	0.493646	0.475554
	H430	H	0.295714	0.478248	0.483528
	H431	H	0.309659	0.475858	0.477111
	O432	O	0.329926	0.603271	0.504638
	H433	H	0.322479	0.583340	0.506384
	H434	H	0.327791	0.599351	0.511687
	O435	O	-0.205263	0.172409	0.051549
	H436	H	-0.204851	0.157491	0.058686
	H437	H	-0.212080	0.167264	0.062790
	O438	O	0.340967	0.553574	0.507581
	H439	H	0.342247	0.552496	0.513822
	H440	H	0.334432	0.555265	0.502789
	O441	O	0.672955	0.468870	0.471358
	H442	H	0.667664	0.457029	0.456975
	H443	H	0.672808	0.463846	0.456977
