data_Molecule from HDF5

_cell_length_a		16.250965
_cell_length_b		16.222677
_cell_length_c		16.312213
_cell_angle_alpha	89.818418
_cell_angle_beta	89.911382
_cell_angle_gamma	89.981581
_symmetry_space_group_name_H-M	'P 1'
_symmetry_Int_Tables_number		1

loop_
	_symmetry_equiv_pos_as_xyz
	x,y,z

loop_
	_atom_site_label
	_atom_site_type_symbol
	_atom_site_fract_x
	_atom_site_fract_y
	_atom_site_fract_z
	H0	H	0.389099	0.836239	0.709145
	H1	H	0.589845	0.163958	0.707365
	H2	H	0.591024	0.835929	0.276496
	H3	H	0.390591	0.162133	0.277765
	H4	H	0.703903	0.399419	0.831226
	H5	H	0.702238	0.599011	0.156180
	H6	H	0.272235	0.598391	0.829476
	H7	H	0.272050	0.399700	0.156530
	H8	H	0.825666	0.715616	0.394262
	H9	H	0.153358	0.710562	0.590179
	H10	H	0.825095	0.282355	0.593171
	H11	H	0.153397	0.286918	0.396188
	H12	H	0.823716	0.398115	0.708775
	H13	H	0.151324	0.598625	0.709279
	H14	H	0.824814	0.601238	0.276879
	H15	H	0.151761	0.400706	0.278218
	H16	H	0.387303	0.715180	0.830114
	H17	H	0.585232	0.713022	0.156039
	H18	H	0.586760	0.286093	0.829346
	H19	H	0.387260	0.282362	0.155453
	H20	H	0.704385	0.834541	0.394234
	H21	H	0.704684	0.163407	0.591792
	H22	H	0.276275	0.834295	0.591392
	H23	H	0.274738	0.162961	0.393010
	H24	H	0.886947	0.335476	0.209646
	H25	H	0.084219	0.663420	0.205340
	H26	H	0.086580	0.334600	0.780277
	H27	H	0.886952	0.662324	0.776914
	H28	H	0.204954	0.899684	0.329549
	H29	H	0.204135	0.096876	0.656354
	H30	H	0.775314	0.098085	0.328955
	H31	H	0.772770	0.897490	0.656097
	H32	H	0.323671	0.213321	0.894438
	H33	H	0.651262	0.214730	0.089943
	H34	H	0.323941	0.786152	0.091956
	H35	H	0.651989	0.784140	0.893947
	H36	H	0.326423	0.897834	0.210561
	H37	H	0.651967	0.100672	0.207533
	H38	H	0.324562	0.100246	0.777602
	H39	H	0.652115	0.900757	0.777478
	H40	H	0.890879	0.215075	0.329582
	H41	H	0.088320	0.212936	0.656891
	H42	H	0.089127	0.783747	0.329532
	H43	H	0.890642	0.782129	0.656377
	H44	H	0.201856	0.334821	0.896148
	H45	H	0.200949	0.663224	0.091426
	H46	H	0.772092	0.334892	0.093663
	H47	H	0.772633	0.663034	0.894526
	H48	H	0.393528	0.119338	0.592669
	H49	H	0.587554	0.878348	0.593744
	H50	H	0.568217	0.114537	0.390497
	H51	H	0.403475	0.886291	0.410416
	H52	H	0.581408	0.407108	0.109953
	H53	H	0.580291	0.583731	0.879384
	H54	H	0.390657	0.590444	0.109552
	H55	H	0.391889	0.398249	0.873900
	H56	H	0.102657	0.588598	0.405130
	H57	H	0.875483	0.582992	0.581434
	H58	H	0.110053	0.393467	0.591234
	H59	H	0.872950	0.410230	0.403418
	H60	H	0.100387	0.407780	0.574717
	H61	H	0.869496	0.590085	0.594132
	H62	H	0.104907	0.586136	0.393763
	H63	H	0.870814	0.405828	0.398335
	H64	H	0.395550	0.591951	0.108106
	H65	H	0.572380	0.595773	0.878133
	H66	H	0.577539	0.409038	0.108184
	H67	H	0.387175	0.413703	0.876629
	H68	H	0.581028	0.110754	0.415384
	H69	H	0.569130	0.886630	0.589010
	H70	H	0.404632	0.113750	0.584246
	H71	H	0.386149	0.878458	0.402431
	H72	H	0.902549	0.616226	0.095262
	H73	H	0.085836	0.379894	0.088283
	H74	H	0.086716	0.618163	0.897380
	H75	H	0.898748	0.382434	0.898622
	H76	H	0.088105	0.900418	0.612777
	H77	H	0.083188	0.093686	0.376696
	H78	H	0.898355	0.090520	0.608749
	H79	H	0.895821	0.910474	0.377962
	H80	H	0.607822	0.098672	0.894677
	H81	H	0.371877	0.092420	0.086261
	H82	H	0.609370	0.896304	0.090092
	H83	H	0.370727	0.898190	0.905575
	H84	H	0.601683	0.906703	0.073562
	H85	H	0.372532	0.090771	0.083870
	H86	H	0.603376	0.094732	0.906930
	H87	H	0.376988	0.918161	0.905370
	H88	H	0.895467	0.091172	0.608463
	H89	H	0.082607	0.091060	0.376930
	H90	H	0.084434	0.911082	0.607701
	H91	H	0.901212	0.907051	0.378993
	H92	H	0.073361	0.616332	0.894340
	H93	H	0.075230	0.381608	0.091705
	H94	H	0.897849	0.611062	0.073987
	H95	H	0.894665	0.383168	0.905550
	H96	H	0.390367	0.115593	0.578240
	H97	H	0.584045	0.885657	0.574620
	H98	H	0.596199	0.120850	0.393376
	H99	H	0.402408	0.880648	0.390949
	H100	H	0.578481	0.403551	0.109356
	H101	H	0.585853	0.596058	0.874220
	H102	H	0.392404	0.595944	0.111260
	H103	H	0.402255	0.409843	0.880329
	H104	H	0.107237	0.597253	0.397962
	H105	H	0.871406	0.597820	0.580495
	H106	H	0.103903	0.416504	0.596828
	H107	H	0.871732	0.403205	0.404182
	H108	H	0.882790	0.620213	0.087055
	H109	H	0.078120	0.383570	0.081149
	H110	H	0.077473	0.613601	0.907246
	H111	H	0.890768	0.380693	0.899327
	H112	H	0.076774	0.901140	0.607918
	H113	H	0.081294	0.093103	0.377354
	H114	H	0.897074	0.088710	0.608133
	H115	H	0.895913	0.904319	0.376078
	H116	H	0.603131	0.086538	0.896647
	H117	H	0.371559	0.088894	0.086099
	H118	H	0.604378	0.916534	0.091293
	H119	H	0.369321	0.909245	0.888522
	C120	C	0.367594	0.007810	0.614177
	C121	C	0.610425	0.991797	0.614522
	C122	C	0.610960	0.007336	0.370850
	C123	C	0.368150	0.990241	0.371714
	C124	C	0.608351	0.377904	0.001416
	C125	C	0.608464	0.620736	0.984954
	C126	C	0.364425	0.621659	0.001434
	C127	C	0.364962	0.377987	0.984578
	C128	C	-0.003042	0.620768	0.370638
	C129	C	0.980199	0.619313	0.614546
	C130	C	-0.003404	0.376532	0.616191
	C131	C	0.979908	0.377735	0.372389
	C132	C	0.865042	0.507663	0.115455
	C133	C	0.108449	0.490422	0.114684
	C134	C	0.108762	0.507334	0.871872
	C135	C	0.865903	0.490567	0.872284
	C136	C	0.111464	0.876228	0.501150
	C137	C	0.111053	0.120568	0.485038
	C138	C	0.867869	0.120221	0.501012
	C139	C	0.868120	0.877270	0.485220
	C140	C	0.496711	0.122389	0.870360
	C141	C	0.480042	0.120505	0.114029
	C142	C	0.497134	0.877723	0.114400
	C143	C	0.480118	0.878797	0.871038
	C144	C	0.369189	0.884991	0.671050
	C145	C	0.609166	0.114981	0.669159
	C146	C	0.609928	0.884237	0.315201
	C147	C	0.370270	0.113516	0.315860
	C148	C	0.665046	0.379880	0.879284
	C149	C	0.664356	0.618927	0.107368
	C150	C	0.309612	0.619054	0.878620
	C151	C	0.309838	0.379492	0.107589
	C152	C	0.874159	0.677455	0.373336
	C153	C	0.103936	0.673512	0.611376
	C154	C	0.873582	0.320690	0.613521
	C155	C	0.104029	0.323629	0.374711
	C156	C	0.873248	0.378213	0.671058
	C157	C	0.102881	0.617853	0.670673
	C158	C	0.873613	0.620320	0.315193
	C159	C	0.102978	0.380187	0.316162
	C160	C	0.366871	0.677362	0.878901
	C161	C	0.606033	0.675473	0.107565
	C162	C	0.606623	0.323412	0.878452
	C163	C	0.367369	0.321521	0.107377
	C164	C	0.666674	0.883796	0.373365
	C165	C	0.666545	0.114561	0.611648
	C166	C	0.313310	0.883883	0.612235
	C167	C	0.312621	0.113747	0.372950
	C168	C	0.866346	0.384530	0.171823
	C169	C	0.105450	0.614118	0.168627
	C170	C	0.106797	0.383734	0.817757
	C171	C	0.867311	0.613507	0.815734
	C172	C	0.166621	0.879339	0.378165
	C173	C	0.166325	0.117480	0.607672
	C174	C	0.812865	0.118633	0.378038
	C175	C	0.811178	0.877705	0.607561
	C176	C	0.372973	0.176665	0.873227
	C177	C	0.602477	0.177056	0.111288
	C178	C	0.373570	0.823112	0.112554
	C179	C	0.603170	0.822159	0.873063
	C180	C	0.374709	0.878694	0.171702
	C181	C	0.602989	0.119791	0.169369
	C182	C	0.373630	0.120095	0.815201
	C183	C	0.603322	0.880134	0.815465
	C184	C	0.870537	0.176627	0.378324
	C185	C	0.108975	0.175386	0.607926
	C186	C	0.109135	0.821535	0.378435
	C187	C	0.869840	0.820684	0.607821
	C188	C	0.163923	0.383788	0.875524
	C189	C	0.163288	0.614103	0.111835
	C190	C	0.809586	0.384265	0.113833
	C191	C	0.810294	0.613982	0.873935
	C192	C	0.389587	0.093976	0.591495
	C193	C	0.587245	0.905715	0.592221
	C194	C	0.588337	0.093335	0.393149
	C195	C	0.390635	0.904210	0.394448
	C196	C	0.585702	0.400053	0.086878
	C197	C	0.586126	0.598346	0.899417
	C198	C	0.386389	0.599373	0.087497
	C199	C	0.387228	0.400557	0.899063
	C200	C	0.082595	0.597555	0.392485
	C201	C	0.894251	0.596993	0.591997
	C202	C	0.082476	0.399136	0.593978
	C203	C	0.894232	0.399988	0.395366
	C204	C	0.887665	0.593586	0.092296
	C205	C	0.086336	0.404010	0.093185
	C206	C	0.086061	0.593859	0.893379
	C207	C	0.888124	0.404381	0.894802
	C208	C	0.089524	0.897961	0.587333
	C209	C	0.088858	0.099029	0.399272
	C210	C	0.890480	0.097118	0.586184
	C211	C	0.890886	0.900468	0.399920
	C212	C	0.582541	0.099953	0.892848
	C213	C	0.394145	0.097468	0.091952
	C214	C	0.582836	0.900018	0.091774
	C215	C	0.394576	0.901609	0.893312
	Zn216	Zn	0.488925	0.000826	0.742457
	Zn217	Zn	0.489191	-0.001442	0.242881
	Zn218	Zn	0.737376	0.499065	-0.006251
	Zn219	Zn	0.236111	0.499581	-0.006598
	Zn220	Zn	-0.010439	0.748133	0.493255
	Zn221	Zn	-0.010369	0.249162	0.493618
	Zn222	Zn	-0.012637	0.498592	0.743879
	Zn223	Zn	-0.013030	0.498855	0.242988
	Zn224	Zn	0.487581	0.749501	-0.006880
	Zn225	Zn	0.487243	0.249187	-0.007759
	Zn226	Zn	0.738699	-0.001450	0.492776
	Zn227	Zn	0.239600	-0.001420	0.492605
	N228	N	0.402473	0.963099	0.672181
	N229	N	0.575084	0.037410	0.671086
	N230	N	0.576100	0.962086	0.313553
	N231	N	0.403772	0.035737	0.314665
	N232	N	0.666313	0.413144	0.956638
	N233	N	0.665854	0.585180	0.030004
	N234	N	0.308170	0.585132	0.955936
	N235	N	0.308303	0.413827	0.030412
	N236	N	0.951667	0.677800	0.407096
	N237	N	0.026583	0.674522	0.577267
	N238	N	0.951301	0.319504	0.579967
	N239	N	0.026663	0.321768	0.408892
	N240	N	0.950798	0.412045	0.673042
	N241	N	0.024853	0.584826	0.672667
	N242	N	0.950832	0.585545	0.313593
	N243	N	0.024899	0.412891	0.314389
	N244	N	0.400127	0.679055	0.956346
	N245	N	0.572213	0.676714	0.030421
	N246	N	0.572196	0.321963	0.955519
	N247	N	0.400815	0.320143	0.029918
	N248	N	0.667417	0.961267	0.407341
	N249	N	0.667299	0.036759	0.578284
	N250	N	0.312033	0.961211	0.577683
	N251	N	0.311386	0.036107	0.407163
	N252	N	0.899869	0.462212	0.173010
	N253	N	0.072011	0.536194	0.170581
	N254	N	0.073212	0.461621	0.815368
	N255	N	0.900855	0.535732	0.814611
	N256	N	0.168164	0.912646	0.455603
	N257	N	0.167648	0.084095	0.530332
	N258	N	0.811040	0.084247	0.455093
	N259	N	0.810017	0.912242	0.530296
	N260	N	0.450349	0.178048	0.906951
	N261	N	0.525054	0.177430	0.077379
	N262	N	0.450554	0.822320	0.077763
	N263	N	0.525525	0.821133	0.907042
	N264	N	0.452522	0.912162	0.172787
	N265	N	0.525660	0.085443	0.171191
	N266	N	0.451637	0.086910	0.813432
	N267	N	0.526098	0.914555	0.814029
	N268	N	0.904053	0.177706	0.455844
	N269	N	0.075208	0.177356	0.530586
	N270	N	0.075537	0.819717	0.455995
	N271	N	0.904331	0.820265	0.530822
	N272	N	0.165205	0.461894	0.908233
	N273	N	0.165216	0.536032	0.079052
	N274	N	0.808356	0.461977	0.079651
	N275	N	0.809285	0.536531	0.908508
	O276	O	-0.065732	0.004913	-0.082944
	H277	H	-0.068204	0.014641	-0.089560
	H278	H	-0.065720	0.006513	-0.085682
	O279	O	0.976315	1.041486	0.057566
	H280	H	0.978477	1.036445	0.058558
	H281	H	0.980519	1.038197	0.065028
	O282	O	0.530635	0.515241	0.505393
	H283	H	0.532398	0.519138	0.504851
	H284	H	0.536948	0.514828	0.511395
	O285	O	0.021815	0.979824	1.020082
	H286	H	0.030210	0.984616	1.018931
	H287	H	0.029235	0.986082	1.028351
	O288	O	0.571616	0.458251	0.632663
	H289	H	0.571536	0.467184	0.629747
	H290	H	0.570598	0.452961	0.631684
	O291	O	0.958102	0.989081	0.974108
	H292	H	0.962832	0.983535	0.973196
	H293	H	0.959754	0.978157	0.981927
	O294	O	1.033083	0.991165	0.946358
	H295	H	1.025119	0.990651	0.941779
	H296	H	1.021033	0.993920	0.946704
	O297	O	0.920366	0.026722	0.999745
	H298	H	0.921214	0.027954	0.998775
	H299	H	0.913495	0.024721	0.996051
	O300	O	0.499866	0.486947	0.494879
	H301	H	0.492171	0.498145	0.488736
	H302	H	0.503284	0.489216	0.485513
	O303	O	1.011228	-0.055648	0.047140
	H304	H	1.010338	-0.054693	0.044138
	H305	H	1.018078	-0.055067	0.041201
	O306	O	-0.003021	1.004121	0.934507
	H307	H	0.003570	1.013965	0.939714
	H308	H	-0.002718	1.005322	0.930543
	O309	O	0.405131	0.443351	0.497231
	H310	H	0.396788	0.455463	0.499503
	H311	H	0.402068	0.432613	0.490666
	O312	O	1.098074	0.002452	1.010195
	H313	H	1.103175	0.007039	1.005177
	H314	H	1.093414	0.008065	1.006725
	O315	O	0.462177	0.442284	0.594183
	H316	H	0.467895	0.433201	0.593562
	H317	H	0.456959	0.441897	0.581768
	O318	O	0.499072	0.559929	0.433847
	H319	H	0.513402	0.551577	0.438014
	H320	H	0.500569	0.547046	0.428002
	O321	O	1.010709	0.982317	1.026553
	H322	H	1.009118	0.978124	1.026050
	H323	H	1.021770	0.974528	1.025140
	O324	O	0.989169	1.046336	1.043263
	H325	H	0.979326	1.039878	1.033532
	H326	H	0.984216	1.039218	1.043367
	O327	O	0.416771	0.487894	0.581295
	H328	H	0.416438	0.490716	0.581250
	H329	H	0.403660	0.489607	0.580988
	O330	O	0.887668	-0.048464	1.001338
	H331	H	0.885071	-0.051228	1.012002
	H332	H	0.880308	-0.044260	1.003204
	O333	O	0.949947	1.065043	-0.057116
	H334	H	0.950840	1.056811	-0.051418
	H335	H	0.944846	1.061386	-0.056723
	O336	O	0.468673	0.466996	0.421003
	H337	H	0.478678	0.467879	0.415992
	H338	H	0.468044	0.465205	0.410589
	O339	O	0.438613	0.500990	0.450056
	H340	H	0.434716	0.503278	0.447430
	H341	H	0.435652	0.502230	0.457606
	O342	O	-0.014336	1.050124	0.063730
	H343	H	-0.014044	1.049283	0.064160
	H344	H	-0.014902	1.056051	0.064791
	O345	O	-0.002843	-0.022821	0.025338
	H346	H	-0.004712	-0.024924	0.024375
	H347	H	-0.007724	-0.029754	0.033209
	O348	O	0.510750	0.521526	0.533543
	H349	H	0.517681	0.526666	0.535560
	H350	H	0.512158	0.521362	0.535197
	O351	O	0.577277	0.438556	0.484182
	H352	H	0.576557	0.442227	0.488788
	H353	H	0.569183	0.448318	0.491016
	O354	O	0.535874	0.534495	0.487580
	H355	H	0.535182	0.533581	0.493385
	H356	H	0.531861	0.540999	0.489413
	O357	O	0.540247	0.567177	0.560682
	H358	H	0.539979	0.564521	0.560025
	H359	H	0.545835	0.576488	0.557329
	O360	O	0.505118	-0.540301	0.417266
	H361	H	0.510328	-0.541359	0.424327
	H362	H	0.499082	-0.544010	0.423092
	O363	O	0.568570	0.494651	0.474771
	H364	H	0.583670	0.490376	0.477253
	H365	H	0.559561	0.482682	0.476928
	O366	O	-0.025742	-0.038836	0.921973
	H367	H	-0.029403	-0.028850	0.924079
	H368	H	-0.016544	-0.031705	0.916800
	O369	O	0.486168	0.574981	0.421330
	H370	H	0.485270	0.570294	0.418685
	H371	H	0.489708	0.572503	0.424333
