data_Molecule from HDF5

_cell_length_a		16.184428
_cell_length_b		16.480312
_cell_length_c		16.198919
_cell_angle_alpha	90.092941
_cell_angle_beta	90.158249
_cell_angle_gamma	89.624209
_symmetry_space_group_name_H-M	'P 1'
_symmetry_Int_Tables_number		1

loop_
	_symmetry_equiv_pos_as_xyz
	x,y,z

loop_
	_atom_site_label
	_atom_site_type_symbol
	_atom_site_fract_x
	_atom_site_fract_y
	_atom_site_fract_z
	H0	H	0.402750	0.839494	0.715669
	H1	H	0.598468	0.163912	0.717922
	H2	H	0.599592	0.840403	0.284898
	H3	H	0.399014	0.164079	0.284678
	H4	H	0.711425	0.403655	0.836074
	H5	H	0.712548	0.598918	0.165062
	H6	H	0.285482	0.599355	0.835826
	H7	H	0.289746	0.408293	0.166252
	H8	H	0.836270	0.720613	0.397733
	H9	H	0.164015	0.716431	0.601111
	H10	H	0.836168	0.287381	0.599925
	H11	H	0.162467	0.284546	0.396616
	H12	H	0.834065	0.407116	0.711115
	H13	H	0.164170	0.597957	0.713918
	H14	H	0.834118	0.598713	0.287680
	H15	H	0.165535	0.406702	0.289489
	H16	H	0.394910	0.720085	0.837825
	H17	H	0.600133	0.718300	0.163630
	H18	H	0.601413	0.284115	0.837946
	H19	H	0.398522	0.286030	0.163626
	H20	H	0.716975	0.840671	0.402019
	H21	H	0.713479	0.164495	0.600214
	H22	H	0.285965	0.839494	0.597743
	H23	H	0.283379	0.164314	0.402001
	H24	H	0.901640	0.339511	0.215532
	H25	H	0.097217	0.663520	0.215844
	H26	H	0.098370	0.339661	0.784991
	H27	H	0.898465	0.664044	0.785258
	H28	H	0.213218	0.904647	0.335251
	H29	H	0.211348	0.097648	0.665119
	H30	H	0.784793	0.099932	0.335883
	H31	H	0.789985	0.908547	0.666310
	H32	H	0.336254	0.218187	0.899182
	H33	H	0.663269	0.217219	0.103068
	H34	H	0.335509	0.787099	0.102964
	H35	H	0.661092	0.781675	0.897581
	H36	H	0.334966	0.907415	0.212854
	H37	H	0.664696	0.097203	0.213747
	H38	H	0.335298	0.098850	0.788264
	H39	H	0.665883	0.903936	0.790076
	H40	H	0.896916	0.218599	0.336177
	H41	H	0.100798	0.218819	0.662615
	H42	H	0.102393	0.784925	0.336729
	H43	H	0.897922	0.785801	0.662722
	H44	H	0.217606	0.340523	0.900303
	H45	H	0.213299	0.664380	0.098647
	H46	H	0.784673	0.339519	0.098991
	H47	H	0.781141	0.663394	0.901316
	H48	H	0.407906	0.117337	0.599230
	H49	H	0.598167	0.886893	0.592869
	H50	H	0.588607	0.116610	0.406148
	H51	H	0.412235	0.888273	0.403927
	H52	H	0.594519	0.411850	0.117947
	H53	H	0.594488	0.588202	0.883699
	H54	H	0.409206	0.599630	0.117964
	H55	H	0.409804	0.411949	0.885478
	H56	H	0.115802	0.593131	0.409691
	H57	H	0.883973	0.598520	0.585934
	H58	H	0.117014	0.408146	0.592951
	H59	H	0.878594	0.401449	0.406488
	H60	H	0.116841	0.407211	0.591137
	H61	H	0.882670	0.592219	0.592812
	H62	H	0.117195	0.594871	0.405778
	H63	H	0.885999	0.412387	0.415301
	H64	H	0.404479	0.596770	0.118843
	H65	H	0.580901	0.591677	0.887678
	H66	H	0.586802	0.408865	0.116162
	H67	H	0.411955	0.406312	0.884132
	H68	H	0.591079	0.115499	0.411187
	H69	H	0.595700	0.886088	0.598017
	H70	H	0.408012	0.114996	0.591426
	H71	H	0.406146	0.888073	0.412081
	H72	H	0.903777	0.618539	0.099801
	H73	H	0.100697	0.383193	0.101081
	H74	H	0.092558	0.616905	0.908606
	H75	H	0.911322	0.389830	0.910818
	H76	H	0.089324	0.909417	0.616054
	H77	H	0.095491	0.101525	0.379149
	H78	H	0.905107	0.096965	0.617590
	H79	H	0.906521	0.915242	0.384737
	H80	H	0.618735	0.099135	0.909905
	H81	H	0.378937	0.099352	0.100762
	H82	H	0.619073	0.907010	0.096416
	H83	H	0.382915	0.905794	0.913054
	H84	H	0.616324	0.903133	0.087615
	H85	H	0.382652	0.102681	0.084038
	H86	H	0.615717	0.092985	0.913811
	H87	H	0.384555	0.916406	0.909741
	H88	H	0.911081	0.096395	0.615603
	H89	H	0.093689	0.088009	0.384105
	H90	H	0.093468	0.904629	0.617792
	H91	H	0.914078	0.910964	0.385505
	H92	H	0.091237	0.616648	0.904790
	H93	H	0.086571	0.388136	0.096391
	H94	H	0.912274	0.613749	0.092384
	H95	H	0.898384	0.385231	0.908009
	H96	H	0.401798	0.118409	0.595084
	H97	H	0.592594	0.888276	0.593761
	H98	H	0.594113	0.118256	0.406787
	H99	H	0.401976	0.884585	0.403397
	H100	H	0.592579	0.404235	0.119802
	H101	H	0.589723	0.601138	0.880782
	H102	H	0.408966	0.594088	0.116085
	H103	H	0.405644	0.406998	0.882139
	H104	H	0.116756	0.597953	0.409683
	H105	H	0.881392	0.601764	0.593614
	H106	H	0.116149	0.408545	0.591623
	H107	H	0.881842	0.415297	0.400369
	H108	H	0.899911	0.616071	0.087866
	H109	H	0.098340	0.388227	0.086313
	H110	H	0.089556	0.615584	0.907935
	H111	H	0.907852	0.385285	0.897887
	H112	H	0.095466	0.910399	0.617082
	H113	H	0.082573	0.097113	0.384487
	H114	H	0.908868	0.101587	0.618626
	H115	H	0.906538	0.906721	0.381437
	H116	H	0.617841	0.092499	0.905835
	H117	H	0.385928	0.087648	0.090238
	H118	H	0.614541	0.912368	0.089721
	H119	H	0.380039	0.908121	0.902309
	C120	C	0.378362	0.009862	0.622812
	C121	C	0.622953	0.994131	0.623811
	C122	C	0.621545	0.010254	0.378867
	C123	C	0.377404	0.994092	0.378126
	C124	C	0.620689	0.379482	0.009588
	C125	C	0.619043	0.622802	0.992148
	C126	C	0.377655	0.624921	0.009014
	C127	C	0.379699	0.380826	0.992291
	C128	C	0.007975	0.624049	0.378679
	C129	C	0.991365	0.624737	0.620856
	C130	C	0.007860	0.380934	0.620440
	C131	C	0.990832	0.380952	0.378516
	C132	C	0.877278	0.509328	0.122124
	C133	C	0.122255	0.493752	0.122330
	C134	C	0.121065	0.509762	0.878130
	C135	C	0.876043	0.493491	0.877108
	C136	C	0.121439	0.880232	0.508495
	C137	C	0.120136	0.123559	0.491177
	C138	C	0.878001	0.125760	0.508669
	C139	C	0.880049	0.882621	0.492049
	C140	C	0.508522	0.123616	0.880162
	C141	C	0.491205	0.123775	0.121486
	C142	C	0.507963	0.880480	0.121138
	C143	C	0.490983	0.880110	0.879396
	C144	C	0.381785	0.887782	0.677555
	C145	C	0.619120	0.115626	0.679533
	C146	C	0.620396	0.888818	0.322937
	C147	C	0.379253	0.115910	0.322926
	C148	C	0.674961	0.382428	0.885439
	C149	C	0.674826	0.619726	0.115705
	C150	C	0.322667	0.620575	0.885175
	C151	C	0.325539	0.385604	0.116527
	C152	C	0.884736	0.680808	0.379260
	C153	C	0.114911	0.678548	0.620385
	C154	C	0.884683	0.325896	0.618984
	C155	C	0.114077	0.324162	0.378551
	C156	C	0.883531	0.385359	0.674221
	C157	C	0.114832	0.619764	0.676667
	C158	C	0.883733	0.620754	0.324136
	C159	C	0.115674	0.384817	0.325251
	C160	C	0.377006	0.680631	0.886256
	C161	C	0.619051	0.679200	0.114951
	C162	C	0.620345	0.322972	0.886497
	C163	C	0.379685	0.325094	0.115369
	C164	C	0.678691	0.889025	0.381298
	C165	C	0.676495	0.115959	0.621141
	C166	C	0.323927	0.887707	0.618932
	C167	C	0.321595	0.115977	0.381191
	C168	C	0.880831	0.387690	0.177482
	C169	C	0.118338	0.615344	0.177558
	C170	C	0.119074	0.388125	0.822507
	C171	C	0.877918	0.615573	0.822714
	C172	C	0.175802	0.883826	0.384530
	C173	C	0.174537	0.119660	0.615496
	C174	C	0.821846	0.121836	0.385221
	C175	C	0.826389	0.886606	0.616531
	C176	C	0.385274	0.179797	0.880467
	C177	C	0.614523	0.178881	0.121908
	C178	C	0.384597	0.825588	0.121036
	C179	C	0.613510	0.822270	0.879637
	C180	C	0.384182	0.885293	0.175908
	C181	C	0.615388	0.118991	0.176723
	C182	C	0.384612	0.120315	0.825242
	C183	C	0.615547	0.882740	0.825773
	C184	C	0.878003	0.180310	0.385162
	C185	C	0.119541	0.179699	0.614172
	C186	C	0.121110	0.823916	0.385347
	C187	C	0.880046	0.825727	0.614569
	C188	C	0.178076	0.388424	0.880142
	C189	C	0.175664	0.616028	0.119082
	C190	C	0.822657	0.387618	0.119523
	C191	C	0.819410	0.615101	0.880263
	C192	C	0.399506	0.094734	0.601452
	C193	C	0.601713	0.909117	0.601421
	C194	C	0.598175	0.094932	0.401485
	C195	C	0.400168	0.909001	0.399901
	C196	C	0.597952	0.401848	0.095577
	C197	C	0.595209	0.600285	0.906212
	C198	C	0.400803	0.603175	0.095396
	C199	C	0.402537	0.402141	0.906320
	C200	C	0.094193	0.601877	0.401568
	C201	C	0.904991	0.603721	0.597553
	C202	C	0.094327	0.401967	0.598497
	C203	C	0.904557	0.403115	0.400670
	C204	C	0.898992	0.594261	0.099822
	C205	C	0.101524	0.408529	0.100777
	C206	C	0.097946	0.594507	0.900499
	C207	C	0.899117	0.408747	0.899044
	C208	C	0.099205	0.901689	0.594807
	C209	C	0.097375	0.101876	0.404873
	C210	C	0.901450	0.104655	0.594930
	C211	C	0.902555	0.904510	0.406035
	C212	C	0.595182	0.101509	0.903197
	C213	C	0.404854	0.102688	0.098470
	C214	C	0.594320	0.901399	0.098086
	C215	C	0.404796	0.903226	0.901901
	Zn216	Zn	0.500569	0.001482	0.752935
	Zn217	Zn	0.499389	0.002183	0.248992
	Zn218	Zn	0.747410	0.501108	0.000220
	Zn219	Zn	0.251397	0.502376	0.000571
	Zn220	Zn	0.000210	0.753011	0.499739
	Zn221	Zn	-0.000694	0.253115	0.498850
	Zn222	Zn	-0.001481	0.502098	0.748297
	Zn223	Zn	-0.000359	0.501581	0.251141
	Zn224	Zn	0.498668	0.752468	0.000421
	Zn225	Zn	0.500125	0.252085	0.001151
	Zn226	Zn	0.751650	0.003194	0.501345
	Zn227	Zn	0.248528	0.002069	0.500099
	N228	N	0.414910	0.964378	0.680064
	N229	N	0.586560	0.038666	0.681325
	N230	N	0.585553	0.965091	0.321487
	N231	N	0.413404	0.039225	0.321132
	N232	N	0.675470	0.416887	0.962901
	N233	N	0.674760	0.585257	0.038317
	N234	N	0.323029	0.586696	0.962648
	N235	N	0.325571	0.419884	0.039131
	N236	N	0.963135	0.683008	0.412502
	N237	N	0.037077	0.681623	0.586427
	N238	N	0.962983	0.323181	0.585954
	N239	N	0.035589	0.321834	0.411012
	N240	N	0.961016	0.419000	0.675048
	N241	N	0.036781	0.587056	0.677166
	N242	N	0.961193	0.586208	0.323632
	N243	N	0.038085	0.419455	0.324942
	N244	N	0.410391	0.683327	0.964366
	N245	N	0.585190	0.681123	0.037057
	N246	N	0.587344	0.321111	0.964667
	N247	N	0.412556	0.322072	0.037178
	N248	N	0.679432	0.965606	0.415407
	N249	N	0.678843	0.039620	0.587046
	N250	N	0.321539	0.964497	0.585553
	N251	N	0.320206	0.039211	0.414598
	N252	N	0.914129	0.464337	0.179086
	N253	N	0.085825	0.538525	0.179722
	N254	N	0.084120	0.464554	0.821402
	N255	N	0.912191	0.539060	0.820312
	N256	N	0.175992	0.918243	0.462014
	N257	N	0.175000	0.085420	0.538075
	N258	N	0.821668	0.088753	0.463123
	N259	N	0.826329	0.921359	0.539447
	N260	N	0.463466	0.181520	0.914296
	N261	N	0.536376	0.181959	0.088267
	N262	N	0.462772	0.822485	0.087632
	N263	N	0.535070	0.820542	0.912072
	N264	N	0.461746	0.918834	0.175939
	N265	N	0.537721	0.085478	0.176597
	N266	N	0.462254	0.086106	0.824968
	N267	N	0.538261	0.918228	0.825638
	N268	N	0.912121	0.182896	0.462948
	N269	N	0.086433	0.182320	0.535826
	N270	N	0.088083	0.821439	0.463465
	N271	N	0.912811	0.823178	0.536207
	N272	N	0.179677	0.465016	0.913896
	N273	N	0.178292	0.539405	0.085436
	N274	N	0.820487	0.464193	0.085732
	N275	N	0.818362	0.538469	0.913682
	O276	O	0.469071	0.442315	0.566086
	H277	H	0.471224	0.439740	0.571564
	H278	H	0.470989	0.447556	0.570284
	O279	O	0.430173	0.446165	0.473601
	H280	H	0.424149	0.442171	0.474688
	H281	H	0.431832	0.451418	0.471062
	O282	O	0.474906	0.506955	0.514086
	H283	H	0.477210	0.508399	0.514578
	H284	H	0.486017	0.512516	0.503492
	O285	O	0.000014	1.032354	0.950879
	H286	H	0.001745	1.024341	0.952616
	H287	H	-0.004565	1.039834	0.963257
	O288	O	0.582957	0.470755	0.452751
	H289	H	0.584704	0.474319	0.454795
	H290	H	0.582814	0.467495	0.454079
	O291	O	-0.065171	0.005997	1.036884
	H292	H	-0.068674	0.012473	1.040732
	H293	H	-0.060256	-0.000976	1.028633
	O294	O	-0.021039	0.945208	1.082311
	H295	H	-0.024007	0.944322	1.081382
	H296	H	-0.022413	0.938252	1.088220
	O297	O	0.533118	0.526229	0.539833
	H298	H	0.531750	0.522543	0.540096
	H299	H	0.542318	0.527148	0.544603
	O300	O	0.547826	0.550307	0.555047
	H301	H	0.542513	0.547056	0.559303
	H302	H	0.554344	0.541750	0.566258
	O303	O	0.524121	0.457632	0.480136
	H304	H	0.523519	0.460682	0.475792
	H305	H	0.515951	0.465186	0.483835
	O306	O	0.962591	-0.049000	1.046405
	H307	H	0.956443	-0.051819	1.033983
	H308	H	0.958697	-0.043137	1.035264
	O309	O	0.577703	0.451441	0.508497
	H310	H	0.583339	0.445321	0.502895
	H311	H	0.572936	0.449834	0.494044
	O312	O	0.055267	-0.057019	0.010253
	H313	H	0.064868	-0.061614	0.019478
	H314	H	0.053268	-0.049988	0.006951
	O315	O	0.998105	-0.025641	0.985814
	H316	H	1.003075	-0.026581	0.992067
	H317	H	0.992207	-0.027783	1.001720
	O318	O	0.016867	-0.013231	-0.077415
	H319	H	0.014198	-0.012559	-0.078343
	H320	H	0.002556	-0.011677	-0.086058
	O321	O	0.550926	0.481772	0.567527
	H322	H	0.541983	0.473888	0.569337
	H323	H	0.550775	0.477134	0.558640
	O324	O	1.039341	-0.058449	-0.027438
	H325	H	1.047604	-0.063285	-0.036533
	H326	H	1.041559	-0.062492	-0.029206
	O327	O	0.993215	0.942406	-0.039140
	H328	H	1.000292	0.945113	-0.045896
	H329	H	0.995428	0.943153	-0.041531
	O330	O	0.973282	0.950575	0.063017
	H331	H	0.972989	0.955835	0.061353
	H332	H	0.974228	0.947061	0.073451
	O333	O	0.479470	0.533230	0.514953
	H334	H	0.479163	0.540348	0.516407
	H335	H	0.477993	0.535068	0.524966
