data_Molecule from HDF5

_cell_length_a		16.256789
_cell_length_b		16.486157
_cell_length_c		16.219403
_cell_angle_alpha	90.031796
_cell_angle_beta	89.561801
_cell_angle_gamma	89.940750
_symmetry_space_group_name_H-M	'P 1'
_symmetry_Int_Tables_number		1

loop_
	_symmetry_equiv_pos_as_xyz
	x,y,z

loop_
	_atom_site_label
	_atom_site_type_symbol
	_atom_site_fract_x
	_atom_site_fract_y
	_atom_site_fract_z
	H0	H	0.401588	0.836497	0.726359
	H1	H	0.604796	0.158008	0.724090
	H2	H	0.606486	0.836474	0.288050
	H3	H	0.407030	0.159189	0.293499
	H4	H	0.719687	0.398984	0.844738
	H5	H	0.719134	0.599526	0.171578
	H6	H	0.290555	0.597749	0.844709
	H7	H	0.286369	0.401363	0.171528
	H8	H	0.844197	0.716660	0.404462
	H9	H	0.167763	0.714125	0.608648
	H10	H	0.843853	0.277296	0.611380
	H11	H	0.166286	0.277649	0.399125
	H12	H	0.842407	0.396827	0.724946
	H13	H	0.169127	0.595131	0.719501
	H14	H	0.840409	0.596372	0.295562
	H15	H	0.166507	0.397466	0.288238
	H16	H	0.398019	0.719169	0.847885
	H17	H	0.603472	0.715848	0.171239
	H18	H	0.607948	0.278865	0.847122
	H19	H	0.398471	0.281823	0.171886
	H20	H	0.723206	0.835118	0.404210
	H21	H	0.722161	0.156925	0.607883
	H22	H	0.286003	0.836460	0.609311
	H23	H	0.286866	0.157432	0.406004
	H24	H	0.900517	0.336908	0.226430
	H25	H	0.103098	0.659436	0.225611
	H26	H	0.109998	0.338033	0.787967
	H27	H	0.905084	0.658921	0.790009
	H28	H	0.223713	0.895909	0.344559
	H29	H	0.218048	0.096612	0.670555
	H30	H	0.791169	0.094737	0.343386
	H31	H	0.786563	0.894333	0.670065
	H32	H	0.340514	0.216358	0.907807
	H33	H	0.665077	0.217464	0.112668
	H34	H	0.341422	0.780782	0.115126
	H35	H	0.663632	0.778021	0.903010
	H36	H	0.341116	0.900659	0.224824
	H37	H	0.668176	0.096184	0.220593
	H38	H	0.339612	0.098451	0.793332
	H39	H	0.665301	0.896347	0.789636
	H40	H	0.901150	0.216584	0.345895
	H41	H	0.111235	0.218132	0.666649
	H42	H	0.109467	0.778594	0.344441
	H43	H	0.900485	0.777598	0.669239
	H44	H	0.223477	0.337894	0.906195
	H45	H	0.221056	0.659597	0.110363
	H46	H	0.783761	0.337811	0.111201
	H47	H	0.786306	0.659075	0.906444
	H48	H	0.409977	0.112870	0.604371
	H49	H	0.595896	0.879521	0.608311
	H50	H	0.604789	0.112776	0.414826
	H51	H	0.418509	0.884634	0.416193
	H52	H	0.588193	0.405676	0.123482
	H53	H	0.600952	0.585293	0.891868
	H54	H	0.409560	0.581052	0.122135
	H55	H	0.420497	0.407646	0.895663
	H56	H	0.120363	0.584540	0.411801
	H57	H	0.886375	0.588177	0.607875
	H58	H	0.118079	0.406176	0.589793
	H59	H	0.892219	0.409152	0.422906
	H60	H	0.120742	0.410116	0.599373
	H61	H	0.889646	0.597250	0.592375
	H62	H	0.122427	0.592535	0.415089
	H63	H	0.887795	0.406578	0.413879
	H64	H	0.420858	0.593990	0.122674
	H65	H	0.586653	0.584193	0.897185
	H66	H	0.595332	0.403087	0.126641
	H67	H	0.414942	0.399161	0.890517
	H68	H	0.594780	0.111260	0.410167
	H69	H	0.586337	0.887092	0.595136
	H70	H	0.415985	0.110031	0.599538
	H71	H	0.412294	0.884146	0.420872
	H72	H	0.911114	0.610246	0.096832
	H73	H	0.101761	0.384737	0.094638
	H74	H	0.089031	0.611167	0.912339
	H75	H	0.908096	0.383802	0.917414
	H76	H	0.100331	0.903762	0.624770
	H77	H	0.094218	0.088794	0.391059
	H78	H	0.913604	0.075241	0.618670
	H79	H	0.921978	0.904079	0.393337
	H80	H	0.616910	0.089302	0.918892
	H81	H	0.389720	0.086762	0.096713
	H82	H	0.617916	0.905294	0.092906
	H83	H	0.389245	0.910971	0.922715
	H84	H	0.618650	0.907981	0.098466
	H85	H	0.386519	0.090227	0.106889
	H86	H	0.617133	0.089038	0.917916
	H87	H	0.386864	0.908400	0.915649
	H88	H	0.926491	0.091834	0.620456
	H89	H	0.097897	0.086928	0.389823
	H90	H	0.092004	0.908800	0.620600
	H91	H	0.913070	0.898979	0.389179
	H92	H	0.098370	0.611209	0.921186
	H93	H	0.093157	0.384050	0.104826
	H94	H	0.906326	0.613606	0.102275
	H95	H	0.914665	0.383582	0.912466
	H96	H	0.408248	0.110743	0.596215
	H97	H	0.603808	0.882527	0.592416
	H98	H	0.596563	0.108066	0.420852
	H99	H	0.411677	0.881624	0.413351
	H100	H	0.595207	0.410622	0.123854
	H101	H	0.591972	0.597474	0.891680
	H102	H	0.404625	0.595500	0.128890
	H103	H	0.409733	0.409512	0.892392
	H104	H	0.118526	0.586515	0.420846
	H105	H	0.894018	0.579923	0.593206
	H106	H	0.122599	0.399687	0.597174
	H107	H	0.888543	0.399695	0.421172
	H108	H	0.913768	0.611665	0.103980
	H109	H	0.088798	0.388414	0.092537
	H110	H	0.101901	0.614649	0.908719
	H111	H	0.915307	0.386448	0.920297
	H112	H	0.090796	0.898964	0.623382
	H113	H	0.094893	0.084809	0.391645
	H114	H	0.905884	0.093717	0.627221
	H115	H	0.912856	0.909540	0.391831
	H116	H	0.617986	0.089851	0.917825
	H117	H	0.387460	0.096463	0.098521
	H118	H	0.621068	0.902077	0.097190
	H119	H	0.387597	0.903468	0.922171
	C120	C	0.381405	0.005254	0.630094
	C121	C	0.625942	0.988579	0.629264
	C122	C	0.628406	0.004816	0.384059
	C123	C	0.384031	0.989342	0.386667
	C124	C	0.624576	0.376420	0.017221
	C125	C	0.623491	0.619567	1.000500
	C126	C	0.381347	0.620601	0.017461
	C127	C	0.382748	0.377252	1.000300
	C128	C	0.013150	0.617889	0.386431
	C129	C	0.997175	0.617895	0.627723
	C130	C	0.013878	0.374553	0.627998
	C131	C	0.996359	0.375070	0.385934
	C132	C	0.880303	0.505806	0.131085
	C133	C	0.124468	0.491339	0.128498
	C134	C	0.127609	0.506451	0.884535
	C135	C	0.883018	0.490525	0.886371
	C136	C	0.126414	0.874306	0.515401
	C137	C	0.125983	0.117533	0.498039
	C138	C	0.884882	0.116872	0.515131
	C139	C	0.884066	0.874143	0.498952
	C140	C	0.510645	0.119768	0.887768
	C141	C	0.495604	0.120241	0.130098
	C142	C	0.511825	0.876565	0.128585
	C143	C	0.494526	0.876669	0.887754
	C144	C	0.381768	0.884607	0.687776
	C145	C	0.624728	0.109778	0.685575
	C146	C	0.626746	0.884092	0.326788
	C147	C	0.386085	0.110598	0.330827
	C148	C	0.681972	0.378151	0.894135
	C149	C	0.680237	0.618986	0.122916
	C150	C	0.326620	0.618683	0.894190
	C151	C	0.324786	0.380174	0.123051
	C152	C	0.891757	0.676538	0.386105
	C153	C	0.119379	0.675024	0.627335
	C154	C	0.892162	0.316774	0.629817
	C155	C	0.117730	0.317194	0.382009
	C156	C	0.891533	0.376030	0.686489
	C157	C	0.120014	0.615733	0.682501
	C158	C	0.890102	0.616783	0.331765
	C159	C	0.117890	0.376922	0.326822
	C160	C	0.380457	0.678721	0.895575
	C161	C	0.623028	0.677090	0.122567
	C162	C	0.626249	0.318474	0.895284
	C163	C	0.380661	0.320865	0.122999
	C164	C	0.684972	0.883645	0.384530
	C165	C	0.683382	0.109059	0.627840
	C166	C	0.324331	0.884512	0.629482
	C167	C	0.326190	0.109822	0.386749
	C168	C	0.880961	0.385121	0.188079
	C169	C	0.123072	0.611495	0.186532
	C170	C	0.128515	0.385958	0.827117
	C171	C	0.884650	0.610810	0.828737
	C172	C	0.184896	0.875970	0.393317
	C173	C	0.181673	0.117141	0.621096
	C174	C	0.828542	0.115492	0.392483
	C175	C	0.825453	0.874847	0.621119
	C176	C	0.388959	0.177188	0.888430
	C177	C	0.617039	0.177863	0.130399
	C178	C	0.389802	0.819961	0.132002
	C179	C	0.615538	0.817727	0.885149
	C180	C	0.389715	0.879506	0.186813
	C181	C	0.618681	0.117637	0.184573
	C182	C	0.388470	0.118557	0.831409
	C183	C	0.616423	0.876631	0.828760
	C184	C	0.883679	0.175744	0.393634
	C185	C	0.127675	0.177086	0.619037
	C186	C	0.128118	0.817525	0.393186
	C187	C	0.882201	0.816689	0.620817
	C188	C	0.185176	0.386019	0.886088
	C189	C	0.181643	0.611732	0.128809
	C190	C	0.822607	0.385645	0.130740
	C191	C	0.825817	0.611169	0.886854
	C192	C	0.404752	0.089271	0.606641
	C193	C	0.602300	0.904793	0.605617
	C194	C	0.605429	0.088807	0.408232
	C195	C	0.407386	0.905355	0.410129
	C196	C	0.600132	0.399758	0.102382
	C197	C	0.600073	0.595891	0.915560
	C198	C	0.404738	0.597104	0.102538
	C199	C	0.407668	0.399265	0.915110
	C200	C	0.098279	0.594584	0.409278
	C201	C	0.912123	0.595134	0.604597
	C202	C	0.098579	0.398440	0.602688
	C203	C	0.911517	0.398417	0.411835
	C204	C	0.903518	0.590098	0.107750
	C205	C	0.101131	0.407286	0.104335
	C206	C	0.103440	0.590467	0.907407
	C207	C	0.906120	0.406441	0.909839
	C208	C	0.101539	0.897237	0.600895
	C209	C	0.102494	0.093718	0.413027
	C210	C	0.908555	0.093542	0.600084
	C211	C	0.908799	0.897289	0.413712
	C212	C	0.595436	0.096141	0.911333
	C213	C	0.410056	0.097642	0.107474
	C214	C	0.597238	0.898735	0.103403
	C215	C	0.409844	0.900658	0.912954
	Zn216	Zn	0.503141	-0.002312	0.759200
	Zn217	Zn	0.505276	-0.002553	0.256409
	Zn218	Zn	0.752335	0.498708	0.008274
	Zn219	Zn	0.255106	0.499440	0.007723
	Zn220	Zn	0.005566	0.746168	0.506898
	Zn221	Zn	0.005921	0.246027	0.506180
	Zn222	Zn	0.005866	0.497373	0.755793
	Zn223	Zn	0.002827	0.497451	0.258629
	Zn224	Zn	0.501768	0.747762	0.008839
	Zn225	Zn	0.502989	0.248247	0.009694
	Zn226	Zn	0.756211	-0.004073	0.507309
	Zn227	Zn	0.253560	-0.002903	0.507442
	N228	N	0.416414	0.960667	0.688424
	N229	N	0.589860	0.033749	0.686747
	N230	N	0.592492	0.960377	0.326240
	N231	N	0.421370	0.034923	0.330830
	N232	N	0.681134	0.413296	0.971005
	N233	N	0.680640	0.583813	0.046070
	N234	N	0.326976	0.583315	0.971049
	N235	N	0.326064	0.414489	0.045908
	N236	N	0.969160	0.677447	0.419518
	N237	N	0.041834	0.676555	0.593793
	N238	N	0.969323	0.315594	0.594603
	N239	N	0.041154	0.316225	0.418318
	N240	N	0.968362	0.411075	0.685656
	N241	N	0.043196	0.581148	0.683047
	N242	N	0.966516	0.581006	0.331964
	N243	N	0.041156	0.411993	0.329068
	N244	N	0.413605	0.680147	0.973188
	N245	N	0.588431	0.677470	0.045427
	N246	N	0.591328	0.317370	0.972717
	N247	N	0.416308	0.319050	0.045848
	N248	N	0.686014	0.959682	0.419590
	N249	N	0.684171	0.032724	0.593651
	N250	N	0.323821	0.960491	0.594491
	N251	N	0.324811	0.033415	0.420810
	N252	N	0.915855	0.461021	0.188559
	N253	N	0.088109	0.535546	0.186368
	N254	N	0.093290	0.461730	0.826180
	N255	N	0.919407	0.534651	0.828236
	N256	N	0.183772	0.910618	0.470507
	N257	N	0.180665	0.080606	0.544981
	N258	N	0.829388	0.079448	0.468814
	N259	N	0.826523	0.909878	0.544343
	N260	N	0.466165	0.178191	0.922703
	N261	N	0.539384	0.179539	0.097250
	N262	N	0.467031	0.817792	0.096799
	N263	N	0.538513	0.817437	0.920966
	N264	N	0.466660	0.914027	0.184754
	N265	N	0.542249	0.082241	0.184351
	N266	N	0.465160	0.083502	0.830911
	N267	N	0.540117	0.912502	0.830288
	N268	N	0.918057	0.176772	0.470961
	N269	N	0.094047	0.177617	0.541445
	N270	N	0.092405	0.816543	0.470254
	N271	N	0.918113	0.816157	0.543762
	N272	N	0.184834	0.461991	0.920888
	N273	N	0.182434	0.535937	0.093413
	N274	N	0.822047	0.461813	0.096111
	N275	N	0.824537	0.535206	0.921741
	O276	O	-0.107547	0.149204	-0.036163
	H277	H	-0.100746	0.160967	-0.029000
	H278	H	-0.110097	0.156820	-0.027739
	O279	O	0.452535	0.431279	0.566397
	H280	H	0.450648	0.421167	0.568879
	H281	H	0.450619	0.433613	0.558706
	O282	O	1.043433	0.059098	-0.085016
	H283	H	1.035060	0.068846	-0.077994
	H284	H	1.030534	0.066437	-0.093192
	O285	O	-0.562734	1.407401	-0.548590
	H286	H	-0.558238	1.407567	-0.538285
	H287	H	-0.562716	1.393209	-0.563512
	O288	O	0.645447	0.536551	0.498051
	H289	H	0.643247	0.540617	0.499095
	H290	H	0.645836	0.531140	0.493630
	O291	O	0.600138	0.434745	0.580180
	H292	H	0.602271	0.442023	0.595219
	H293	H	0.599357	0.441144	0.575861
	O294	O	0.826070	0.937007	1.016944
	H295	H	0.830117	0.930806	1.032015
	H296	H	0.830339	0.930877	1.028155
	O297	O	-0.039932	-0.032330	-0.029471
	H298	H	-0.036479	-0.049917	-0.035890
	H299	H	-0.042037	-0.039946	-0.024667
	O300	O	0.498046	0.605757	0.570852
	H301	H	0.507057	0.606934	0.567635
	H302	H	0.493075	0.609525	0.568044
	O303	O	0.160394	1.083458	1.111775
	H304	H	0.162946	1.084775	1.103333
	H305	H	0.162947	1.075688	1.094155
	O306	O	0.526295	0.474344	0.424911
	H307	H	0.523907	0.467527	0.422941
	H308	H	0.505814	0.462571	0.431866
	O309	O	1.016803	-0.085097	-0.075105
	H310	H	1.028460	-0.078661	-0.070673
	H311	H	1.013625	-0.072040	-0.083673
	O312	O	-0.517374	0.554986	0.491042
	H313	H	-0.513571	0.550858	0.487691
	H314	H	-0.509978	0.555212	0.484892
	O315	O	0.543677	0.465628	0.604490
	H316	H	0.541464	0.474003	0.606860
	H317	H	0.541396	0.480248	0.597913
	O318	O	1.024110	1.072903	1.050542
	H319	H	1.026653	1.071772	1.055154
	H320	H	1.025248	1.076814	1.042096
	O321	O	0.433185	0.599117	0.548344
	H322	H	0.433241	0.610033	0.553794
	H323	H	0.428046	0.599311	0.536379
	O324	O	0.503481	0.478710	0.446879
	H325	H	0.515913	0.470458	0.444636
	H326	H	0.490021	0.475632	0.452149
	O327	O	-0.026535	1.065637	1.029696
	H328	H	-0.029907	1.059484	1.029875
	H329	H	-0.036924	1.072746	1.025254
	O330	O	0.597893	0.459852	0.525684
	H331	H	0.617040	0.460285	0.526358
	H332	H	0.593931	0.464466	0.527772
	O333	O	-0.055955	0.818102	1.057134
	H334	H	-0.053605	0.806738	1.077153
	H335	H	-0.039912	0.834712	1.062368
	O336	O	1.060613	1.084858	1.045169
	H337	H	1.050006	1.099550	1.041489
	H338	H	1.066521	1.081288	1.028344
	O339	O	0.561865	0.395458	0.570874
	H340	H	0.559050	0.390580	0.582696
	H341	H	0.548005	0.404166	0.567603
	O342	O	1.041709	0.054979	-0.094239
	H343	H	1.031366	0.066871	-0.086089
	H344	H	1.032446	0.060773	-0.103068
	O345	O	0.516808	0.470120	0.440254
	H346	H	0.510625	0.466941	0.446548
	H347	H	0.510295	0.475723	0.438959
	O348	O	0.936782	0.929564	1.013879
	H349	H	0.933784	0.922561	0.995248
	H350	H	0.939849	0.927322	1.031552
	O351	O	1.108622	0.961829	0.021529
	H352	H	1.106981	0.961464	0.021059
	H353	H	1.121784	0.964753	0.017302
	O354	O	0.553483	0.356658	0.481001
	H355	H	0.547127	0.346800	0.493536
	H356	H	0.553285	0.362003	0.481525
	O357	O	0.448093	0.551454	0.510956
	H358	H	0.450194	0.552283	0.510749
	H359	H	0.446609	0.538118	0.516014
	O360	O	0.020359	0.022915	-0.047260
	H361	H	0.015295	0.025988	-0.059536
	H362	H	0.024610	0.005897	-0.053365
	O363	O	0.495643	0.507508	0.526660
	H364	H	0.501422	0.497348	0.519832
	H365	H	0.505357	0.528815	0.533609
	O366	O	0.402123	0.387900	0.594158
	H367	H	0.404776	0.400513	0.587622
	H368	H	0.416935	0.384801	0.599273
	O369	O	0.116636	0.072261	0.070510
	H370	H	0.121744	0.068712	0.056470
	H371	H	0.125547	0.085207	0.090607
	O372	O	0.563498	0.658482	0.562035
	H373	H	0.570381	0.657438	0.560741
	H374	H	0.566961	0.665346	0.558128
	O375	O	0.468887	0.573118	0.465894
	H376	H	0.483869	0.559297	0.458029
	H377	H	0.457213	0.566931	0.471593
	O378	O	0.372189	0.423620	0.605577
	H379	H	0.372231	0.434277	0.624321
	H380	H	0.360371	0.427061	0.607462
	O381	O	0.007968	0.942458	0.972042
	H382	H	-0.005106	0.941999	0.961977
	H383	H	0.027657	0.933384	0.972158
	O384	O	0.073788	0.867917	-0.059337
	H385	H	0.056921	0.870323	-0.074451
	H386	H	0.097289	0.852469	-0.062703
	O387	O	0.870317	-0.042973	0.934311
	H388	H	0.863833	-0.030673	0.929596
	H389	H	0.867742	-0.037444	0.935852
	O390	O	0.011013	1.030302	0.060236
	H391	H	-0.006554	1.029398	0.072217
	H392	H	0.017602	1.039309	0.063049
	O393	O	1.026157	1.004310	0.196916
	H394	H	1.024772	1.004109	0.187749
	H395	H	1.022128	0.999433	0.203827
	O396	O	0.549715	0.624935	0.511670
	H397	H	0.554663	0.618586	0.500848
	H398	H	0.537475	0.627966	0.512135
	O399	O	-0.136102	1.146595	0.843248
	H400	H	-0.154782	1.127761	0.840391
	H401	H	-0.143001	1.153640	0.856775
	O402	O	0.896128	-0.115343	0.064983
	H403	H	0.903210	-0.136365	0.076597
	H404	H	0.903307	-0.114960	0.069374
	O405	O	1.088192	0.028736	-0.114355
	H406	H	1.067636	0.020595	-0.117848
	H407	H	1.095336	0.036509	-0.124259
