data_Molecule from HDF5

_cell_length_a		16.235167
_cell_length_b		16.268143
_cell_length_c		16.317730
_cell_angle_alpha	89.857000
_cell_angle_beta	89.831898
_cell_angle_gamma	89.970349
_symmetry_space_group_name_H-M	'P 1'
_symmetry_Int_Tables_number		1

loop_
	_symmetry_equiv_pos_as_xyz
	x,y,z

loop_
	_atom_site_label
	_atom_site_type_symbol
	_atom_site_fract_x
	_atom_site_fract_y
	_atom_site_fract_z
	H0	H	0.402145	0.836689	0.713348
	H1	H	0.601850	0.163691	0.708084
	H2	H	0.604721	0.836421	0.279932
	H3	H	0.403094	0.162235	0.279913
	H4	H	0.718521	0.400773	0.831489
	H5	H	0.718252	0.596405	0.159142
	H6	H	0.289050	0.597880	0.831917
	H7	H	0.289282	0.400320	0.158954
	H8	H	0.840077	0.714249	0.395028
	H9	H	0.168527	0.712434	0.592496
	H10	H	0.839266	0.285618	0.593412
	H11	H	0.168043	0.283813	0.396090
	H12	H	0.840301	0.399242	0.710643
	H13	H	0.168080	0.596224	0.708443
	H14	H	0.840986	0.598431	0.279030
	H15	H	0.168238	0.399638	0.280256
	H16	H	0.403652	0.716159	0.832735
	H17	H	0.601690	0.713284	0.159422
	H18	H	0.602316	0.284256	0.831833
	H19	H	0.404947	0.283785	0.159066
	H20	H	0.718390	0.835845	0.396583
	H21	H	0.717442	0.163039	0.591855
	H22	H	0.288377	0.835339	0.596085
	H23	H	0.288831	0.161924	0.397048
	H24	H	0.905421	0.334204	0.210250
	H25	H	0.103809	0.661319	0.210018
	H26	H	0.103446	0.334951	0.780260
	H27	H	0.903709	0.661862	0.779377
	H28	H	0.219945	0.900273	0.332384
	H29	H	0.217457	0.096127	0.659291
	H30	H	0.790306	0.097909	0.331430
	H31	H	0.788710	0.900595	0.658253
	H32	H	0.339455	0.212616	0.897543
	H33	H	0.667985	0.211546	0.091562
	H34	H	0.339924	0.783803	0.095714
	H35	H	0.667908	0.785641	0.897156
	H36	H	0.340201	0.899973	0.210758
	H37	H	0.667324	0.099280	0.209741
	H38	H	0.340005	0.099169	0.780447
	H39	H	0.666938	0.899281	0.779937
	H40	H	0.906450	0.213846	0.332632
	H41	H	0.100801	0.212661	0.659038
	H42	H	0.104473	0.783368	0.332010
	H43	H	0.904680	0.783907	0.658280
	H44	H	0.218668	0.334663	0.897163
	H45	H	0.216548	0.662705	0.092845
	H46	H	0.790540	0.333758	0.093512
	H47	H	0.790417	0.662656	0.896930
	H48	H	0.415552	0.114430	0.587970
	H49	H	0.600089	0.880365	0.590887
	H50	H	0.592703	0.114871	0.402727
	H51	H	0.410940	0.879843	0.397821
	H52	H	0.602847	0.408747	0.112072
	H53	H	0.601742	0.591358	0.878334
	H54	H	0.415250	0.596533	0.111140
	H55	H	0.405604	0.404743	0.877436
	H56	H	0.120239	0.586376	0.399580
	H57	H	0.887878	0.592130	0.586002
	H58	H	0.121496	0.412049	0.597778
	H59	H	0.886271	0.403223	0.401313
	H60	H	0.124139	0.394655	0.587869
	H61	H	0.887648	0.589432	0.589286
	H62	H	0.122120	0.595831	0.399326
	H63	H	0.888270	0.407177	0.405515
	H64	H	0.404209	0.593006	0.113484
	H65	H	0.593604	0.589153	0.882121
	H66	H	0.591634	0.406505	0.110016
	H67	H	0.412909	0.410822	0.881278
	H68	H	0.600280	0.116130	0.403913
	H69	H	0.591749	0.884125	0.591430
	H70	H	0.407708	0.115156	0.583081
	H71	H	0.417028	0.884447	0.403616
	H72	H	0.913543	0.612683	0.083174
	H73	H	0.109758	0.378902	0.086963
	H74	H	0.098234	0.615922	0.902076
	H75	H	0.921755	0.385827	0.903338
	H76	H	0.097887	0.904529	0.611654
	H77	H	0.097079	0.093145	0.378498
	H78	H	0.907690	0.080919	0.609550
	H79	H	0.911742	0.909857	0.379892
	H80	H	0.625076	0.096760	0.893755
	H81	H	0.386126	0.094888	0.086157
	H82	H	0.616723	0.905673	0.075154
	H83	H	0.389616	0.915232	0.904271
	H84	H	0.619017	0.918176	0.093855
	H85	H	0.388303	0.087386	0.087751
	H86	H	0.620072	0.096892	0.907820
	H87	H	0.384280	0.904878	0.897528
	H88	H	0.919952	0.097020	0.610217
	H89	H	0.096952	0.089593	0.380196
	H90	H	0.094978	0.908301	0.610172
	H91	H	0.913956	0.902565	0.378725
	H92	H	0.095478	0.614788	0.899242
	H93	H	0.092022	0.378923	0.100769
	H94	H	0.907839	0.615720	0.087951
	H95	H	0.905240	0.382061	0.910890
	H96	H	0.407878	0.116668	0.591878
	H97	H	0.596238	0.883568	0.583359
	H98	H	0.597102	0.118148	0.397036
	H99	H	0.408137	0.882022	0.406755
	H100	H	0.598571	0.398062	0.114193
	H101	H	0.595082	0.597241	0.878309
	H102	H	0.412098	0.584432	0.108614
	H103	H	0.415105	0.401411	0.879033
	H104	H	0.119557	0.591365	0.407057
	H105	H	0.886026	0.593262	0.589565
	H106	H	0.116481	0.410433	0.578591
	H107	H	0.888105	0.408645	0.400106
	H108	H	0.914374	0.614042	0.091165
	H109	H	0.089531	0.386232	0.079311
	H110	H	0.094943	0.613769	0.903340
	H111	H	0.907576	0.378516	0.893821
	H112	H	0.092651	0.903483	0.610997
	H113	H	0.094784	0.092026	0.380155
	H114	H	0.900213	0.098900	0.615817
	H115	H	0.907162	0.905128	0.377349
	H116	H	0.618463	0.084253	0.900270
	H117	H	0.385260	0.091474	0.093263
	H118	H	0.625123	0.896161	0.094383
	H119	H	0.387518	0.903881	0.910503
	C120	C	0.381396	0.007628	0.617473
	C121	C	0.624633	0.990964	0.616402
	C122	C	0.625623	0.008162	0.372942
	C123	C	0.382624	0.990151	0.373944
	C124	C	0.625683	0.376624	0.003704
	C125	C	0.625654	0.620938	0.987381
	C126	C	0.381610	0.620897	0.003506
	C127	C	0.382351	0.376729	0.987132
	C128	C	0.012653	0.620392	0.373096
	C129	C	0.995699	0.619795	0.616120
	C130	C	0.012269	0.377174	0.616889
	C131	C	0.995800	0.377353	0.373584
	C132	C	0.882772	0.506199	0.116855
	C133	C	0.124968	0.489640	0.116699
	C134	C	0.125451	0.506759	0.873292
	C135	C	0.882413	0.490234	0.873678
	C136	C	0.125503	0.876372	0.503541
	C137	C	0.125056	0.120118	0.487361
	C138	C	0.881197	0.120985	0.503707
	C139	C	0.881907	0.877113	0.486354
	C140	C	0.512382	0.120785	0.872983
	C141	C	0.495235	0.119767	0.116472
	C142	C	0.512329	0.877598	0.117393
	C143	C	0.495096	0.878400	0.874383
	C144	C	0.383152	0.885052	0.674142
	C145	C	0.622260	0.114450	0.670715
	C146	C	0.624097	0.885143	0.318013
	C147	C	0.383761	0.113256	0.318225
	C148	C	0.681078	0.379689	0.880546
	C149	C	0.680527	0.617327	0.110475
	C150	C	0.326394	0.618842	0.880871
	C151	C	0.327119	0.379466	0.110216
	C152	C	0.889218	0.676042	0.375002
	C153	C	0.119187	0.675082	0.613515
	C154	C	0.888628	0.322583	0.614203
	C155	C	0.119143	0.321893	0.375962
	C156	C	0.889142	0.379098	0.672495
	C157	C	0.119091	0.617517	0.671004
	C158	C	0.889707	0.618886	0.317043
	C159	C	0.119351	0.379387	0.318535
	C160	C	0.383485	0.677476	0.881274
	C161	C	0.622988	0.675666	0.110523
	C162	C	0.623007	0.322088	0.880544
	C163	C	0.384591	0.321573	0.110279
	C164	C	0.680791	0.884775	0.375787
	C165	C	0.679643	0.114310	0.612894
	C166	C	0.326410	0.884291	0.615958
	C167	C	0.326720	0.113193	0.376461
	C168	C	0.885135	0.383106	0.172309
	C169	C	0.123258	0.612849	0.171900
	C170	C	0.123533	0.383721	0.818266
	C171	C	0.884093	0.613064	0.817845
	C172	C	0.182043	0.879148	0.381109
	C173	C	0.179789	0.116760	0.610325
	C174	C	0.827616	0.118133	0.380502
	C175	C	0.826512	0.879744	0.609431
	C176	C	0.388484	0.175412	0.876618
	C177	C	0.618803	0.174519	0.112804
	C178	C	0.388957	0.821782	0.115899
	C179	C	0.618512	0.822886	0.876531
	C180	C	0.389086	0.879234	0.173168
	C181	C	0.618514	0.118342	0.171402
	C182	C	0.388896	0.118942	0.818379
	C183	C	0.618148	0.879593	0.818235
	C184	C	0.885220	0.175928	0.381078
	C185	C	0.122262	0.174986	0.610322
	C186	C	0.124570	0.821298	0.380802
	C187	C	0.884090	0.821796	0.609447
	C188	C	0.180535	0.383554	0.876378
	C189	C	0.179490	0.613406	0.113637
	C190	C	0.828011	0.382868	0.114209
	C191	C	0.827652	0.613505	0.876225
	C192	C	0.403679	0.093341	0.594558
	C193	C	0.602620	0.905022	0.594847
	C194	C	0.603320	0.094065	0.394938
	C195	C	0.405378	0.904314	0.396180
	C196	C	0.604104	0.398019	0.089660
	C197	C	0.603437	0.598910	0.902022
	C198	C	0.403928	0.598022	0.088971
	C199	C	0.404568	0.399022	0.901415
	C200	C	0.098383	0.597788	0.395341
	C201	C	0.909517	0.598154	0.594513
	C202	C	0.098632	0.399185	0.594582
	C203	C	0.909799	0.399834	0.395845
	C204	C	0.905354	0.592062	0.094220
	C205	C	0.103262	0.403705	0.095446
	C206	C	0.102956	0.592704	0.895209
	C207	C	0.904999	0.404050	0.896049
	C208	C	0.101887	0.898906	0.588861
	C209	C	0.102753	0.098115	0.401580
	C210	C	0.902872	0.098734	0.589788
	C211	C	0.904317	0.899306	0.400825
	C212	C	0.598870	0.099098	0.894327
	C213	C	0.408792	0.097689	0.095038
	C214	C	0.598086	0.900085	0.094662
	C215	C	0.409344	0.901271	0.897437
	Zn216	Zn	0.503559	-0.000721	0.745458
	Zn217	Zn	0.504008	-0.001048	0.245253
	Zn218	Zn	0.754354	0.498631	-0.004741
	Zn219	Zn	0.253287	0.498336	-0.004514
	Zn220	Zn	0.003547	0.748305	0.494715
	Zn221	Zn	0.003398	0.249190	0.495545
	Zn222	Zn	0.003730	0.498599	0.745089
	Zn223	Zn	0.004568	0.498357	0.245044
	Zn224	Zn	0.503472	0.749912	-0.004159
	Zn225	Zn	0.503699	0.248009	-0.004799
	Zn226	Zn	0.753154	-0.001023	0.494749
	Zn227	Zn	0.253723	-0.001758	0.495545
	N228	N	0.416610	0.962737	0.675191
	N229	N	0.588778	0.036672	0.673048
	N230	N	0.590315	0.962780	0.316154
	N231	N	0.417634	0.035661	0.316411
	N232	N	0.683036	0.412790	0.958135
	N233	N	0.682372	0.583986	0.032905
	N234	N	0.325029	0.584396	0.957942
	N235	N	0.325293	0.412880	0.032597
	N236	N	0.966532	0.677108	0.409175
	N237	N	0.041407	0.676674	0.580196
	N238	N	0.966313	0.321409	0.580179
	N239	N	0.041121	0.320478	0.409517
	N240	N	0.967118	0.412068	0.674393
	N241	N	0.041337	0.583827	0.672865
	N242	N	0.967436	0.585101	0.315571
	N243	N	0.041869	0.413249	0.316953
	N244	N	0.417079	0.678918	0.958531
	N245	N	0.589563	0.677957	0.033134
	N246	N	0.589315	0.320150	0.957978
	N247	N	0.418339	0.319858	0.032935
	N248	N	0.681962	0.962170	0.409149
	N249	N	0.681324	0.036617	0.579917
	N250	N	0.325263	0.961440	0.581244
	N251	N	0.325840	0.035684	0.410369
	N252	N	0.918408	0.460993	0.174119
	N253	N	0.090217	0.534980	0.173867
	N254	N	0.089938	0.461437	0.816226
	N255	N	0.917518	0.535245	0.816229
	N256	N	0.182652	0.912672	0.458491
	N257	N	0.181489	0.083265	0.532852
	N258	N	0.825331	0.084542	0.457981
	N259	N	0.825035	0.913369	0.532020
	N260	N	0.466418	0.176718	0.909913
	N261	N	0.541140	0.175614	0.079447
	N262	N	0.466587	0.820696	0.081852
	N263	N	0.540955	0.821966	0.910707
	N264	N	0.466618	0.913404	0.173992
	N265	N	0.540579	0.084928	0.173742
	N266	N	0.466881	0.085966	0.815927
	N267	N	0.540403	0.913287	0.816763
	N268	N	0.917939	0.177382	0.458632
	N269	N	0.088910	0.177086	0.532944
	N270	N	0.090255	0.819418	0.457970
	N271	N	0.917795	0.819816	0.531918
	N272	N	0.181888	0.461047	0.909737
	N273	N	0.181052	0.535944	0.080070
	N274	N	0.826412	0.460365	0.080334
	N275	N	0.826515	0.536036	0.910236
	O276	O	0.991548	0.991649	0.006837
	H277	H	0.994211	0.986713	0.008408
	H278	H	0.991311	0.991182	0.010607
	O279	O	0.525480	0.568959	0.459236
	H280	H	0.525002	0.574475	0.465040
	H281	H	0.521593	0.562314	0.460186
	O282	O	0.029851	0.024395	0.038266
	H283	H	0.019515	0.022404	0.028260
	H284	H	0.029819	0.028275	0.042476
	O285	O	0.478811	0.585852	0.427107
	H286	H	0.475749	0.583735	0.430335
	H287	H	0.473831	0.582871	0.427342
	O288	O	0.040192	-0.048347	-0.002579
	H289	H	0.049030	-0.044600	-0.007832
	H290	H	0.052124	-0.051539	0.001039
	O291	O	-0.026206	1.048345	-0.062391
	H292	H	-0.037392	1.048842	-0.072242
	H293	H	-0.032931	1.045176	-0.056432
	O294	O	-0.037833	0.935763	-0.018766
	H295	H	-0.034281	0.928394	-0.026471
	H296	H	-0.042243	0.933524	-0.027561
	O297	O	0.478176	0.526842	0.500508
	H298	H	0.479997	0.531254	0.507758
	H299	H	0.478071	0.530153	0.499745
	O300	O	0.511626	0.532341	0.530753
	H301	H	0.511314	0.532700	0.520184
	H302	H	0.514185	0.535780	0.538474
	O303	O	0.956156	-0.017285	0.960350
	H304	H	0.957521	-0.011674	0.965017
	H305	H	0.958468	-0.020445	0.960893
	O306	O	-0.035466	0.948621	1.078012
	H307	H	-0.038358	0.933575	1.080814
	H308	H	-0.035576	0.936050	1.076235
	O309	O	-0.010516	0.941928	0.978101
	H310	H	-0.016435	0.937497	0.981850
	H311	H	-0.003429	0.949426	0.986050
	O312	O	-0.029455	-0.068284	1.026148
	H313	H	-0.025908	-0.071993	1.021365
	H314	H	-0.021470	-0.074020	1.034821
	O315	O	0.488606	0.519870	0.438610
	H316	H	0.489910	0.523263	0.436812
	H317	H	0.482268	0.521501	0.432453
	O318	O	-0.024439	-0.047827	0.981499
	H319	H	-0.026175	-0.046359	0.980022
	H320	H	-0.016002	-0.045301	0.978703
	O321	O	0.066048	-0.002999	0.964383
	H322	H	0.070529	-0.006300	0.966112
	H323	H	0.064313	0.012042	0.967305
	O324	O	1.071122	-0.051572	0.917311
	H325	H	1.063139	-0.052856	0.922141
	H326	H	1.070649	-0.039618	0.914512
	O327	O	0.933694	0.997541	0.994900
	H328	H	0.924756	0.997599	0.997268
	H329	H	0.939453	1.002972	0.991273
	O330	O	0.504725	0.463986	0.508436
	H331	H	0.497933	0.460708	0.516530
	H332	H	0.503350	0.460778	0.504444
	O333	O	0.437807	0.472953	0.541224
	H334	H	0.440845	0.474472	0.536038
	H335	H	0.440309	0.470356	0.544662
	O336	O	0.541601	0.492087	0.498397
	H337	H	0.545832	0.495768	0.499527
	H338	H	0.540736	0.494383	0.499290
	O339	O	0.451980	0.530626	0.508379
	H340	H	0.445918	0.530929	0.515104
	H341	H	0.457302	0.516862	0.509576
	O342	O	0.584213	0.483384	0.537245
	H343	H	0.590276	0.474030	0.534288
	H344	H	0.587766	0.486619	0.537683
	O345	O	0.526813	0.521587	0.504414
	H346	H	0.531935	0.525070	0.496026
	H347	H	0.525271	0.530879	0.500755
