data_Molecule from HDF5

_cell_length_a		16.266930
_cell_length_b		16.278985
_cell_length_c		16.270587
_cell_angle_alpha	89.640981
_cell_angle_beta	90.090030
_cell_angle_gamma	89.735083
_symmetry_space_group_name_H-M	'P 1'
_symmetry_Int_Tables_number		1

loop_
	_symmetry_equiv_pos_as_xyz
	x,y,z

loop_
	_atom_site_label
	_atom_site_type_symbol
	_atom_site_fract_x
	_atom_site_fract_y
	_atom_site_fract_z
	H0	H	0.406089	0.833412	0.711033
	H1	H	0.600538	0.161070	0.710501
	H2	H	0.603427	0.832918	0.284437
	H3	H	0.403589	0.160077	0.279146
	H4	H	0.720170	0.398360	0.832145
	H5	H	0.720250	0.593069	0.160182
	H6	H	0.290673	0.597234	0.832146
	H7	H	0.292017	0.398774	0.160362
	H8	H	0.840449	0.715743	0.394681
	H9	H	0.167488	0.712241	0.594147
	H10	H	0.840230	0.286139	0.595326
	H11	H	0.167886	0.283498	0.398286
	H12	H	0.842067	0.399014	0.712383
	H13	H	0.168106	0.596646	0.709783
	H14	H	0.840601	0.599139	0.279436
	H15	H	0.169015	0.401312	0.284849
	H16	H	0.405190	0.714416	0.833651
	H17	H	0.604747	0.709512	0.160650
	H18	H	0.604418	0.282336	0.832552
	H19	H	0.407533	0.281322	0.159546
	H20	H	0.720463	0.834845	0.399431
	H21	H	0.715573	0.162183	0.594106
	H22	H	0.288634	0.834685	0.596469
	H23	H	0.290042	0.162389	0.398160
	H24	H	0.908157	0.334876	0.212475
	H25	H	0.103843	0.661829	0.209294
	H26	H	0.105067	0.333659	0.781997
	H27	H	0.904708	0.660899	0.779155
	H28	H	0.217863	0.900989	0.332611
	H29	H	0.217946	0.097482	0.659829
	H30	H	0.786722	0.100778	0.333443
	H31	H	0.790190	0.899981	0.660553
	H32	H	0.342425	0.213721	0.896755
	H33	H	0.669221	0.209550	0.096285
	H34	H	0.340862	0.782014	0.095443
	H35	H	0.668553	0.782683	0.898687
	H36	H	0.340212	0.897828	0.210795
	H37	H	0.667721	0.093312	0.211657
	H38	H	0.340364	0.096773	0.783089
	H39	H	0.667184	0.896784	0.781360
	H40	H	0.902811	0.216494	0.333398
	H41	H	0.100277	0.210395	0.660516
	H42	H	0.103288	0.785247	0.332734
	H43	H	0.903898	0.782017	0.659332
	H44	H	0.219330	0.332881	0.900150
	H45	H	0.219158	0.661279	0.092913
	H46	H	0.793035	0.332740	0.096365
	H47	H	0.788524	0.660443	0.895280
	H48	H	0.414343	0.111070	0.584659
	H49	H	0.592467	0.882720	0.590469
	H50	H	0.587876	0.110995	0.402705
	H51	H	0.401244	0.878402	0.402764
	H52	H	0.597055	0.395728	0.113757
	H53	H	0.590275	0.591807	0.881283
	H54	H	0.420354	0.592661	0.111450
	H55	H	0.406739	0.413019	0.880498
	H56	H	0.123832	0.601401	0.401961
	H57	H	0.888516	0.585701	0.590705
	H58	H	0.119942	0.405324	0.583498
	H59	H	0.888664	0.412974	0.397950
	H60	H	0.121757	0.407129	0.593325
	H61	H	0.885870	0.595295	0.590416
	H62	H	0.117405	0.589000	0.410769
	H63	H	0.885479	0.401353	0.402827
	H64	H	0.405513	0.594086	0.116196
	H65	H	0.601742	0.594242	0.877898
	H66	H	0.605154	0.404356	0.113805
	H67	H	0.421841	0.404682	0.882395
	H68	H	0.598372	0.114045	0.408002
	H69	H	0.599411	0.881407	0.585403
	H70	H	0.402332	0.116579	0.588226
	H71	H	0.415635	0.880386	0.398839
	H72	H	0.919142	0.611362	0.086159
	H73	H	0.103556	0.377587	0.097036
	H74	H	0.086250	0.611856	0.897814
	H75	H	0.914494	0.381008	0.902021
	H76	H	0.101250	0.913062	0.612039
	H77	H	0.098049	0.093309	0.378682
	H78	H	0.915619	0.090843	0.610578
	H79	H	0.913557	0.906117	0.380800
	H80	H	0.622349	0.095174	0.907203
	H81	H	0.388738	0.086469	0.090763
	H82	H	0.617061	0.913075	0.088655
	H83	H	0.384534	0.900351	0.900276
	H84	H	0.625583	0.899696	0.101029
	H85	H	0.386978	0.094364	0.089207
	H86	H	0.618946	0.082414	0.906214
	H87	H	0.388841	0.902065	0.910280
	H88	H	0.909130	0.098834	0.615592
	H89	H	0.096027	0.091036	0.379681
	H90	H	0.086324	0.905590	0.610328
	H91	H	0.908064	0.907507	0.379240
	H92	H	0.101934	0.611633	0.913562
	H93	H	0.091409	0.382213	0.092182
	H94	H	0.906680	0.613531	0.081490
	H95	H	0.914814	0.381845	0.904889
	H96	H	0.412282	0.115674	0.597176
	H97	H	0.599687	0.879123	0.593777
	H98	H	0.597326	0.116017	0.397129
	H99	H	0.410888	0.882874	0.412885
	H100	H	0.594657	0.406519	0.110691
	H101	H	0.598645	0.583003	0.882048
	H102	H	0.410697	0.580851	0.110819
	H103	H	0.408261	0.396512	0.876057
	H104	H	0.120856	0.587199	0.394805
	H105	H	0.889177	0.590678	0.582367
	H106	H	0.123171	0.398788	0.590350
	H107	H	0.890121	0.409337	0.410941
	H108	H	0.909400	0.616543	0.093952
	H109	H	0.102424	0.382271	0.083456
	H110	H	0.106923	0.618602	0.893206
	H111	H	0.912238	0.380682	0.903864
	H112	H	0.099564	0.896897	0.616326
	H113	H	0.095429	0.093800	0.379568
	H114	H	0.904388	0.088181	0.613817
	H115	H	0.912114	0.910904	0.381518
	H116	H	0.623556	0.089161	0.895531
	H117	H	0.389600	0.089330	0.083990
	H118	H	0.620717	0.894027	0.082771
	H119	H	0.389203	0.910603	0.902760
	C120	C	0.380955	0.006711	0.619285
	C121	C	0.624925	0.989350	0.618037
	C122	C	0.624709	0.005850	0.375131
	C123	C	0.381273	0.989093	0.375384
	C124	C	0.627841	0.374152	0.004615
	C125	C	0.626797	0.617876	0.988238
	C126	C	0.383488	0.618564	0.004598
	C127	C	0.384062	0.375734	0.987772
	C128	C	0.012310	0.621546	0.373111
	C129	C	0.995937	0.619335	0.616824
	C130	C	0.013441	0.376100	0.617872
	C131	C	0.996020	0.378082	0.375363
	C132	C	0.883916	0.505751	0.117285
	C133	C	0.127176	0.489237	0.118055
	C134	C	0.127163	0.505762	0.874031
	C135	C	0.883781	0.489024	0.873954
	C136	C	0.124729	0.877133	0.504723
	C137	C	0.124716	0.120496	0.487635
	C138	C	0.881055	0.121627	0.504955
	C139	C	0.882489	0.877968	0.488325
	C140	C	0.513512	0.118381	0.874473
	C141	C	0.496570	0.117670	0.117544
	C142	C	0.512823	0.874196	0.118983
	C143	C	0.495773	0.875143	0.875401
	C144	C	0.384575	0.882889	0.674023
	C145	C	0.621568	0.112394	0.672902
	C146	C	0.623339	0.882109	0.321650
	C147	C	0.383570	0.111699	0.318083
	C148	C	0.682682	0.377428	0.881261
	C149	C	0.682384	0.614333	0.111313
	C150	C	0.328445	0.617106	0.881259
	C151	C	0.329658	0.378102	0.111234
	C152	C	0.889213	0.676978	0.375044
	C153	C	0.118681	0.674394	0.614220
	C154	C	0.889644	0.322573	0.616006
	C155	C	0.119155	0.321903	0.378052
	C156	C	0.890396	0.378856	0.673911
	C157	C	0.119144	0.616683	0.671538
	C158	C	0.889487	0.619481	0.317362
	C159	C	0.119960	0.380490	0.321746
	C160	C	0.385487	0.675200	0.881774
	C161	C	0.625099	0.672307	0.111438
	C162	C	0.625143	0.319972	0.881337
	C163	C	0.387302	0.320116	0.111063
	C164	C	0.681517	0.883126	0.378659
	C165	C	0.678770	0.112860	0.615158
	C166	C	0.326370	0.883390	0.616963
	C167	C	0.327142	0.112901	0.377416
	C168	C	0.887135	0.383141	0.174099
	C169	C	0.124134	0.612968	0.171570
	C170	C	0.125072	0.382489	0.819833
	C171	C	0.884719	0.611905	0.817518
	C172	C	0.180188	0.880313	0.381624
	C173	C	0.179925	0.117533	0.610828
	C174	C	0.825328	0.120061	0.382140
	C175	C	0.827661	0.879701	0.611472
	C176	C	0.390690	0.174901	0.877066
	C177	C	0.620230	0.171555	0.115637
	C178	C	0.389734	0.819275	0.116550
	C179	C	0.619071	0.820029	0.877818
	C180	C	0.389236	0.877176	0.173429
	C181	C	0.619376	0.113893	0.173305
	C182	C	0.389796	0.116919	0.820254
	C183	C	0.618599	0.877038	0.819747
	C184	C	0.882647	0.178008	0.382213
	C185	C	0.121404	0.173820	0.611307
	C186	C	0.123264	0.822540	0.381730
	C187	C	0.883855	0.820631	0.610681
	C188	C	0.182233	0.382200	0.878064
	C189	C	0.181480	0.612601	0.113766
	C190	C	0.830275	0.382194	0.115945
	C191	C	0.826930	0.611680	0.875365
	C192	C	0.403013	0.092199	0.596775
	C193	C	0.603460	0.903265	0.596354
	C194	C	0.601382	0.091616	0.396382
	C195	C	0.402992	0.902942	0.398254
	C196	C	0.605565	0.395836	0.090544
	C197	C	0.603651	0.596144	0.902614
	C198	C	0.405664	0.595843	0.090550
	C199	C	0.405902	0.398059	0.901878
	C200	C	0.098470	0.598964	0.395731
	C201	C	0.909994	0.597070	0.594440
	C202	C	0.099343	0.397524	0.595596
	C203	C	0.910140	0.401188	0.397358
	C204	C	0.905333	0.591711	0.094106
	C205	C	0.105492	0.403065	0.097285
	C206	C	0.105039	0.591793	0.895382
	C207	C	0.907089	0.403335	0.896768
	C208	C	0.102363	0.898905	0.590550
	C209	C	0.102899	0.099118	0.401489
	C210	C	0.903235	0.099275	0.591114
	C211	C	0.904755	0.901333	0.402681
	C212	C	0.599450	0.095581	0.896470
	C213	C	0.410651	0.096438	0.094586
	C214	C	0.598825	0.895869	0.097259
	C215	C	0.409783	0.897658	0.897702
	Zn216	Zn	0.503697	-0.003027	0.746590
	Zn217	Zn	0.503596	-0.003988	0.246650
	Zn218	Zn	0.755487	0.496450	-0.003861
	Zn219	Zn	0.255061	0.497447	-0.003658
	Zn220	Zn	0.003489	0.748897	0.495696
	Zn221	Zn	0.003607	0.249163	0.496284
	Zn222	Zn	0.005464	0.497229	0.745169
	Zn223	Zn	0.005120	0.498649	0.246032
	Zn224	Zn	0.504992	0.746537	-0.002602
	Zn225	Zn	0.505966	0.246507	-0.003932
	Zn226	Zn	0.753429	-0.000884	0.496869
	Zn227	Zn	0.252745	-0.001613	0.496868
	N228	N	0.417904	0.960361	0.675535
	N229	N	0.588746	0.034499	0.674750
	N230	N	0.588566	0.959452	0.319401
	N231	N	0.416599	0.033694	0.316809
	N232	N	0.684448	0.410370	0.958931
	N233	N	0.683556	0.581313	0.033654
	N234	N	0.327353	0.582495	0.958513
	N235	N	0.327805	0.412171	0.033803
	N236	N	0.966702	0.678418	0.408830
	N237	N	0.040913	0.675954	0.580577
	N238	N	0.967050	0.320547	0.582058
	N239	N	0.041154	0.320303	0.410701
	N240	N	0.968492	0.411277	0.675405
	N241	N	0.041719	0.583286	0.673435
	N242	N	0.967172	0.585596	0.316232
	N243	N	0.042437	0.414919	0.320083
	N244	N	0.419016	0.676216	0.959456
	N245	N	0.591262	0.674661	0.033886
	N246	N	0.591857	0.317747	0.959081
	N247	N	0.420437	0.318459	0.033324
	N248	N	0.682531	0.960932	0.411070
	N249	N	0.680912	0.035471	0.581815
	N250	N	0.323924	0.961304	0.583659
	N251	N	0.325658	0.035806	0.412222
	N252	N	0.919806	0.461039	0.175061
	N253	N	0.091042	0.535306	0.174425
	N254	N	0.091470	0.460227	0.817270
	N255	N	0.919327	0.534619	0.816567
	N256	N	0.181464	0.913561	0.459108
	N257	N	0.182112	0.085022	0.532940
	N258	N	0.824244	0.085749	0.459674
	N259	N	0.826644	0.914589	0.534241
	N260	N	0.468535	0.176009	0.909998
	N261	N	0.542820	0.174048	0.081554
	N262	N	0.467610	0.817251	0.083403
	N263	N	0.541811	0.819021	0.911811
	N264	N	0.466813	0.910280	0.175338
	N265	N	0.541497	0.081239	0.174550
	N266	N	0.467063	0.082201	0.818737
	N267	N	0.540653	0.910566	0.817837
	N268	N	0.916906	0.178716	0.459467
	N269	N	0.087721	0.175718	0.533720
	N270	N	0.089311	0.820700	0.459169
	N271	N	0.917303	0.819605	0.533138
	N272	N	0.183590	0.459832	0.911087
	N273	N	0.183429	0.534697	0.081356
	N274	N	0.828419	0.459386	0.081071
	N275	N	0.826278	0.534229	0.909775
	O276	O	0.959930	0.998945	0.027519
	H277	H	0.964177	1.005524	0.025341
	H278	H	0.957129	1.003630	0.035558
	O279	O	-0.025799	-0.058570	0.918430
	H280	H	-0.029307	-0.059417	0.919594
	H281	H	-0.025315	-0.054750	0.918840
	O282	O	0.043539	0.033892	-0.049680
	H283	H	0.047271	0.026354	-0.054464
	H284	H	0.045930	0.022514	-0.047582
	O285	O	0.520073	0.499974	0.543530
	H286	H	0.526764	0.496464	0.552701
	H287	H	0.521845	0.491860	0.553076
	O288	O	-0.021728	0.001230	0.040505
	H289	H	-0.019856	-0.011120	0.050715
	H290	H	-0.015495	0.005396	0.041160
	O291	O	0.060903	0.936025	0.028566
	H292	H	0.063549	0.937827	0.025455
	H293	H	0.052286	0.938580	0.021783
	O294	O	-0.000067	0.931897	0.049501
	H295	H	-0.001025	0.925428	0.042079
	H296	H	-0.008198	0.927844	0.056228
	O297	O	0.508077	0.493883	0.526733
	H298	H	0.508128	0.496535	0.519728
	H299	H	0.519610	0.497187	0.524409
	O300	O	0.439193	0.547859	0.433655
	H301	H	0.439663	0.556587	0.439142
	H302	H	0.425517	0.550927	0.435323
	O303	O	0.995885	-0.000626	0.973013
	H304	H	1.001649	-0.003681	0.977518
	H305	H	0.989318	-0.005143	0.970248
	O306	O	0.016801	0.996126	0.933055
	H307	H	0.016617	0.994222	0.938147
	H308	H	0.010364	0.997100	0.926199
	O309	O	-0.031321	0.986761	0.994131
	H310	H	-0.038061	0.985280	0.994057
	H311	H	-0.030129	0.989614	0.999864
	O312	O	0.015661	-0.040004	0.961326
	H313	H	0.013906	-0.040717	0.961556
	H314	H	0.005543	-0.041144	0.958641
	O315	O	0.441988	0.478678	0.464644
	H316	H	0.435083	0.478173	0.469652
	H317	H	0.447377	0.475340	0.467817
	O318	O	-0.033081	0.067721	0.931422
	H319	H	-0.031792	0.066122	0.923294
	H320	H	-0.025460	0.059066	0.936069
	O321	O	0.492572	0.528050	0.455612
	H322	H	0.488523	0.529179	0.455404
	H323	H	0.486786	0.524751	0.451496
	O324	O	0.934538	-0.022892	1.009163
	H325	H	0.932250	-0.018781	1.008905
	H326	H	0.934791	-0.023042	1.004447
	O327	O	0.944415	0.994610	0.994339
	H328	H	0.943348	1.000277	1.000558
	H329	H	0.949147	0.999266	0.996148
	O330	O	0.468055	0.565237	0.457125
	H331	H	0.456500	0.559641	0.461272
	H332	H	0.462495	0.564245	0.454234
	O333	O	0.563085	0.508706	0.484673
	H334	H	0.569882	0.509927	0.486914
	H335	H	0.562595	0.513801	0.476540
	O336	O	0.544291	0.468329	0.519485
	H337	H	0.547584	0.469262	0.511728
	H338	H	0.555977	0.460220	0.519471
	O339	O	0.467628	0.573115	0.472202
	H340	H	0.467264	0.575754	0.473931
	H341	H	0.475546	0.572396	0.479286
	O342	O	0.532626	0.531299	0.458491
	H343	H	0.529628	0.528803	0.450024
	H344	H	0.528046	0.529801	0.457890
	O345	O	0.523489	0.497301	0.520945
	H346	H	0.526423	0.509972	0.530704
	H347	H	0.511576	0.485930	0.512997
