data_Molecule from HDF5

_cell_length_a		16.493197
_cell_length_b		16.663999
_cell_length_c		16.507897
_cell_angle_alpha	90.001388
_cell_angle_beta	89.976126
_cell_angle_gamma	89.776080
_symmetry_space_group_name_H-M	'P 1'
_symmetry_Int_Tables_number		1

loop_
	_symmetry_equiv_pos_as_xyz
	x,y,z

loop_
	_atom_site_label
	_atom_site_type_symbol
	_atom_site_fract_x
	_atom_site_fract_y
	_atom_site_fract_z
	H0	H	0.382758	0.853589	0.709759
	H1	H	0.595208	0.161810	0.705754
	H2	H	0.595845	0.850049	0.263381
	H3	H	0.384975	0.162497	0.262032
	H4	H	0.712957	0.403128	0.826266
	H5	H	0.709815	0.607663	0.142872
	H6	H	0.274670	0.607400	0.825607
	H7	H	0.275290	0.404248	0.143858
	H8	H	0.835604	0.727971	0.377946
	H9	H	0.149812	0.725120	0.587428
	H10	H	0.833882	0.286611	0.591194
	H11	H	0.147042	0.282144	0.379566
	H12	H	0.833824	0.404390	0.705114
	H13	H	0.151692	0.605285	0.700497
	H14	H	0.834646	0.609115	0.264965
	H15	H	0.148853	0.400012	0.264853
	H16	H	0.385045	0.728448	0.828126
	H17	H	0.594901	0.725659	0.141988
	H18	H	0.600109	0.284650	0.827449
	H19	H	0.388670	0.285086	0.141799
	H20	H	0.712450	0.849412	0.380010
	H21	H	0.712551	0.161216	0.589092
	H22	H	0.269643	0.851767	0.589959
	H23	H	0.267657	0.161451	0.378162
	H24	H	0.885751	0.351945	0.207976
	H25	H	0.098104	0.661411	0.206805
	H26	H	0.095481	0.348168	0.765221
	H27	H	0.889450	0.662669	0.763334
	H28	H	0.214391	0.900439	0.327896
	H29	H	0.214490	0.113029	0.639973
	H30	H	0.771106	0.109362	0.327357
	H31	H	0.773295	0.903484	0.642417
	H32	H	0.337128	0.231902	0.876342
	H33	H	0.651102	0.225522	0.088791
	H34	H	0.336254	0.784516	0.091624
	H35	H	0.646746	0.782844	0.876057
	H36	H	0.336095	0.901139	0.207572
	H37	H	0.650845	0.108493	0.204089
	H38	H	0.335152	0.112622	0.763989
	H39	H	0.647220	0.901105	0.762140
	H40	H	0.882213	0.228746	0.329779
	H41	H	0.097228	0.227689	0.641028
	H42	H	0.100472	0.782702	0.328649
	H43	H	0.887838	0.785285	0.641641
	H44	H	0.212394	0.347884	0.882436
	H45	H	0.211915	0.662253	0.087753
	H46	H	0.770379	0.350842	0.090323
	H47	H	0.770439	0.662565	0.878602
	H48	H	0.403517	0.118874	0.576060
	H49	H	0.577247	0.893831	0.577673
	H50	H	0.577379	0.114860	0.399914
	H51	H	0.412983	0.898430	0.394111
	H52	H	0.573448	0.414846	0.093514
	H53	H	0.586095	0.589309	0.872130
	H54	H	0.404642	0.593919	0.095438
	H55	H	0.406612	0.417970	0.873863
	H56	H	0.106002	0.598409	0.396245
	H57	H	0.880753	0.592405	0.574059
	H58	H	0.104176	0.413511	0.571656
	H59	H	0.880907	0.419155	0.398858
	H60	H	0.104472	0.416183	0.573105
	H61	H	0.877369	0.598894	0.576303
	H62	H	0.103157	0.593156	0.400125
	H63	H	0.877910	0.418719	0.395243
	H64	H	0.404232	0.599746	0.097451
	H65	H	0.573381	0.595295	0.874177
	H66	H	0.585635	0.410856	0.100280
	H67	H	0.403944	0.413534	0.870810
	H68	H	0.587877	0.119138	0.396196
	H69	H	0.579017	0.897065	0.569821
	H70	H	0.405985	0.115534	0.569858
	H71	H	0.398552	0.896855	0.404164
	H72	H	0.901664	0.617502	0.075138
	H73	H	0.074614	0.394277	0.080706
	H74	H	0.083172	0.616957	0.894901
	H75	H	0.904905	0.395226	0.895067
	H76	H	0.081560	0.920951	0.595633
	H77	H	0.075092	0.095507	0.373221
	H78	H	0.903620	0.100714	0.598728
	H79	H	0.893892	0.915259	0.368350
	H80	H	0.605318	0.099698	0.899072
	H81	H	0.379934	0.097307	0.072707
	H82	H	0.604036	0.917048	0.071826
	H83	H	0.382349	0.919766	0.904073
	H84	H	0.604403	0.916259	0.073361
	H85	H	0.380448	0.096798	0.071967
	H86	H	0.602174	0.089767	0.897779
	H87	H	0.379014	0.922800	0.892736
	H88	H	0.897031	0.093441	0.598455
	H89	H	0.079447	0.094030	0.373302
	H90	H	0.074700	0.915569	0.594301
	H91	H	0.906120	0.922618	0.374860
	H92	H	0.087653	0.619349	0.892308
	H93	H	0.081140	0.397416	0.065724
	H94	H	0.904133	0.617235	0.073661
	H95	H	0.901692	0.394735	0.895382
	H96	H	0.399153	0.117140	0.570028
	H97	H	0.585558	0.892591	0.574350
	H98	H	0.578282	0.119439	0.388801
	H99	H	0.398294	0.891355	0.387397
	H100	H	0.584408	0.423874	0.094956
	H101	H	0.583117	0.603011	0.868683
	H102	H	0.399552	0.595956	0.098789
	H103	H	0.401466	0.418721	0.871828
	H104	H	0.105476	0.592480	0.393268
	H105	H	0.880018	0.597810	0.569398
	H106	H	0.105176	0.413000	0.574774
	H107	H	0.878034	0.415309	0.397914
	H108	H	0.901825	0.617530	0.072694
	H109	H	0.090842	0.390575	0.077626
	H110	H	0.082618	0.618321	0.889095
	H111	H	0.902596	0.394288	0.892478
	H112	H	0.082174	0.912615	0.598707
	H113	H	0.076122	0.091480	0.374730
	H114	H	0.906530	0.092084	0.595769
	H115	H	0.907006	0.907717	0.370298
	H116	H	0.606826	0.094918	0.890169
	H117	H	0.380552	0.096435	0.073360
	H118	H	0.605036	0.915727	0.071473
	H119	H	0.376052	0.911998	0.896975
	C120	C	0.369734	0.015443	0.605460
	C121	C	0.612724	0.997542	0.606223
	C122	C	0.613416	0.014564	0.362811
	C123	C	0.370045	0.998243	0.362392
	C124	C	0.614114	0.384896	-0.007530
	C125	C	0.612554	0.627258	0.976137
	C126	C	0.370811	0.627751	-0.006838
	C127	C	0.372631	0.385418	0.976567
	C128	C	0.001062	0.627227	0.363630
	C129	C	0.983921	0.627112	0.604917
	C130	C	0.000163	0.384081	0.605947
	C131	C	0.982693	0.384699	0.364550
	C132	C	0.870607	0.514812	0.106178
	C133	C	0.113722	0.497538	0.105911
	C134	C	0.115553	0.513970	0.861718
	C135	C	0.871284	0.498175	0.862563
	C136	C	0.112620	0.884760	0.492508
	C137	C	0.110854	0.126501	0.476533
	C138	C	0.869458	0.127382	0.494064
	C139	C	0.870516	0.883906	0.475411
	C140	C	0.501028	0.128097	0.863275
	C141	C	0.484527	0.127674	0.105040
	C142	C	0.500804	0.884814	0.105508
	C143	C	0.482388	0.885316	0.863719
	C144	C	0.365519	0.899477	0.668156
	C145	C	0.614300	0.114809	0.666012
	C146	C	0.614861	0.896934	0.303417
	C147	C	0.366810	0.115430	0.301944
	C148	C	0.673727	0.383861	0.873752
	C149	C	0.670756	0.627250	0.095250
	C150	C	0.312835	0.627448	0.873828
	C151	C	0.314173	0.384911	0.096013
	C152	C	0.882757	0.687429	0.360482
	C153	C	0.102998	0.685215	0.605958
	C154	C	0.881260	0.325995	0.609014
	C155	C	0.100443	0.323410	0.361612
	C156	C	0.881292	0.384710	0.665595
	C157	C	0.103775	0.626029	0.662325
	C158	C	0.882260	0.628355	0.304153
	C159	C	0.101318	0.381897	0.304660
	C160	C	0.368483	0.687101	0.874626
	C161	C	0.613534	0.685868	0.094887
	C162	C	0.617499	0.325026	0.874430
	C163	C	0.370577	0.325644	0.094938
	C164	C	0.672614	0.896508	0.361562
	C165	C	0.672533	0.114598	0.608064
	C166	C	0.309026	0.898701	0.608841
	C167	C	0.308428	0.114941	0.359775
	C168	C	0.867840	0.398305	0.167408
	C169	C	0.115748	0.614791	0.166037
	C170	C	0.115294	0.395331	0.804339
	C171	C	0.870196	0.616110	0.803304
	C172	C	0.173617	0.882672	0.374652
	C173	C	0.172881	0.130142	0.593791
	C174	C	0.809736	0.128689	0.375430
	C175	C	0.812082	0.883568	0.594718
	C176	C	0.383697	0.190495	0.859440
	C177	C	0.603525	0.185994	0.107089
	C178	C	0.382844	0.824774	0.109160
	C179	C	0.599955	0.823860	0.858973
	C180	C	0.382958	0.882590	0.166852
	C181	C	0.603596	0.127606	0.164269
	C182	C	0.382407	0.131163	0.803645
	C183	C	0.600209	0.882733	0.802350
	C184	C	0.865569	0.187847	0.376549
	C185	C	0.114889	0.187470	0.594116
	C186	C	0.117014	0.824023	0.375035
	C187	C	0.869045	0.825138	0.594358
	C188	C	0.173142	0.395210	0.862734
	C189	C	0.172435	0.615237	0.106909
	C190	C	0.810668	0.397698	0.108580
	C191	C	0.811133	0.615814	0.860577
	C192	C	0.395487	0.096183	0.579367
	C193	C	0.587750	0.915790	0.581053
	C194	C	0.588323	0.096552	0.387748
	C195	C	0.395785	0.916838	0.387795
	C196	C	0.588612	0.409643	0.074911
	C197	C	0.587961	0.602857	0.893270
	C198	C	0.395892	0.603585	0.075772
	C199	C	0.396955	0.409716	0.893835
	C200	C	0.083466	0.602024	0.389328
	C201	C	0.900981	0.603307	0.580298
	C202	C	0.082893	0.407760	0.580592
	C203	C	0.900316	0.410382	0.389839
	C204	C	0.895534	0.596329	0.080908
	C205	C	0.089204	0.415450	0.081585
	C206	C	0.091425	0.596609	0.885205
	C207	C	0.895913	0.416255	0.886935
	C208	C	0.086769	0.909443	0.574719
	C209	C	0.084391	0.100790	0.394916
	C210	C	0.895125	0.102273	0.576344
	C211	C	0.895286	0.908167	0.392633
	C212	C	0.583502	0.102143	0.888524
	C213	C	0.401869	0.103592	0.079949
	C214	C	0.583070	0.909303	0.079579
	C215	C	0.400440	0.910908	0.890220
	Zn216	Zn	0.490517	0.006779	0.735514
	Zn217	Zn	0.491987	0.006615	0.233509
	Zn218	Zn	0.742057	0.506427	-0.016034
	Zn219	Zn	0.242865	0.505623	-0.015175
	Zn220	Zn	-0.007727	0.755769	0.484156
	Zn221	Zn	-0.009590	0.255737	0.485253
	Zn222	Zn	-0.007100	0.506039	0.733359
	Zn223	Zn	-0.007317	0.505823	0.235611
	Zn224	Zn	0.491582	0.756614	-0.015463
	Zn225	Zn	0.493713	0.256324	-0.015989
	Zn226	Zn	0.742304	0.005358	0.484721
	Zn227	Zn	0.240531	0.006421	0.484162
	N228	N	0.402610	0.972891	0.666224
	N229	N	0.577682	0.040934	0.664845
	N230	N	0.578927	0.971340	0.304079
	N231	N	0.404270	0.041695	0.303296
	N232	N	0.671986	0.420328	0.948352
	N233	N	0.670311	0.591691	0.020144
	N234	N	0.314037	0.591349	0.948448
	N235	N	0.315179	0.421090	0.021287
	N236	N	0.957791	0.686963	0.396540
	N237	N	0.027323	0.686196	0.571191
	N238	N	0.956259	0.325222	0.572808
	N239	N	0.025462	0.324754	0.397854
	N240	N	0.956253	0.420098	0.663854
	N241	N	0.028610	0.590820	0.661948
	N242	N	0.956927	0.591712	0.305970
	N243	N	0.027021	0.419416	0.306312
	N244	N	0.403727	0.687774	0.950104
	N245	N	0.578515	0.686337	0.019452
	N246	N	0.581197	0.325369	0.949320
	N247	N	0.405899	0.325417	0.019596
	N248	N	0.672002	0.970776	0.397821
	N249	N	0.671864	0.040473	0.571728
	N250	N	0.311407	0.971737	0.570596
	N251	N	0.310072	0.041049	0.396365
	N252	N	0.904488	0.472101	0.165988
	N253	N	0.079856	0.540495	0.165685
	N254	N	0.080199	0.470214	0.803421
	N255	N	0.906929	0.541983	0.804405
	N256	N	0.171188	0.919683	0.448917
	N257	N	0.170400	0.092639	0.519829
	N258	N	0.812049	0.091449	0.449673
	N259	N	0.812711	0.919287	0.519656
	N260	N	0.458634	0.188656	0.895724
	N261	N	0.528443	0.186257	0.071041
	N262	N	0.457264	0.825898	0.071735
	N263	N	0.525580	0.825127	0.896280
	N264	N	0.457147	0.919557	0.164340
	N265	N	0.528438	0.092213	0.163376
	N266	N	0.456319	0.093058	0.805889
	N267	N	0.526019	0.920181	0.805210
	N268	N	0.901865	0.187263	0.451250
	N269	N	0.076782	0.185111	0.520221
	N270	N	0.079618	0.825299	0.449185
	N271	N	0.904395	0.824804	0.518988
	N272	N	0.173464	0.470060	0.897427
	N273	N	0.171306	0.541197	0.070345
	N274	N	0.812067	0.471177	0.071310
	N275	N	0.811707	0.541547	0.896602
	O276	O	1.194366	0.935961	0.060725
	H277	H	1.198796	0.927884	0.060072
	H278	H	1.182648	0.927049	0.041148
	O279	O	0.111603	0.031478	0.801781
	H280	H	0.099491	0.040527	0.793859
	H281	H	0.104612	0.052548	0.804184
	O282	O	0.375257	0.296241	0.365842
	H283	H	0.383386	0.310355	0.373126
	H284	H	0.386556	0.299958	0.357739
	O285	O	0.540387	0.432447	0.694853
	H286	H	0.547694	0.463737	0.699182
	H287	H	0.530327	0.449575	0.699083
	O288	O	1.703571	-0.460501	0.697968
	H289	H	1.724237	-0.459119	0.710640
	H290	H	1.706301	-0.431672	0.694464
	O291	O	0.895887	1.214023	0.770412
	H292	H	0.888635	1.223921	0.753355
	H293	H	0.869144	1.212147	0.762860
	O294	O	0.202578	0.024403	0.185668
	H295	H	0.196126	0.007384	0.153441
	H296	H	0.234561	0.025725	0.215505
	O297	O	1.040969	0.178059	-0.059905
	H298	H	1.051766	0.177151	-0.064534
	H299	H	1.046705	0.188924	-0.070188
	O300	O	0.639915	0.292774	0.277295
	H301	H	0.641126	0.314789	0.270872
	H302	H	0.670732	0.277063	0.257174
	O303	O	-0.441634	-0.570384	-0.490447
	H304	H	-0.445105	-0.570669	-0.485468
	H305	H	-0.454918	-0.566484	-0.502353
	O306	O	0.835178	-0.022483	0.154683
	H307	H	0.828319	-0.016560	0.159144
	H308	H	0.838204	-0.013311	0.149911
	O309	O	0.300541	0.338499	0.596782
	H310	H	0.315577	0.334647	0.576795
	H311	H	0.314453	0.336455	0.591624
	O312	O	-0.220739	1.087672	1.061734
	H313	H	-0.204774	1.104608	1.059144
	H314	H	-0.217505	1.098042	1.045113
	O315	O	0.563898	0.401526	0.304314
	H316	H	0.583331	0.395271	0.310693
	H317	H	0.579805	0.394361	0.307432
	O318	O	1.037781	0.181775	0.193709
	H319	H	1.058385	0.197195	0.198935
	H320	H	1.059390	0.197278	0.192974
	O321	O	-0.209610	1.146799	0.780676
	H322	H	-0.224748	1.148192	0.779526
	H323	H	-0.214918	1.135722	0.780331
	O324	O	1.166362	0.180014	0.819850
	H325	H	1.173234	0.183591	0.821947
	H326	H	1.172487	0.187032	0.809226
	O327	O	0.423895	0.394339	0.331791
	H328	H	0.414032	0.388078	0.322856
	H329	H	0.436051	0.411405	0.344742
	O330	O	1.367265	1.446167	-0.545533
	H331	H	1.379210	1.445287	-0.535687
	H332	H	1.370078	1.444490	-0.534854
	O333	O	0.792241	-0.017649	0.872264
	H334	H	0.772922	-0.010910	0.870935
	H335	H	0.787995	-0.046426	0.883703
	O336	O	0.087308	0.858533	-0.051977
	H337	H	0.067150	0.862584	-0.056370
	H338	H	0.082425	0.876735	-0.059062
	O339	O	0.382322	0.676309	0.621169
	H340	H	0.368731	0.687675	0.651571
	H341	H	0.386425	0.666783	0.597363
	O342	O	-0.093631	1.231588	1.034299
	H343	H	-0.084697	1.235249	1.035288
	H344	H	-0.080854	1.238506	1.031996
	O345	O	1.150923	-0.003775	1.021175
	H346	H	1.139741	-0.003170	1.001840
	H347	H	1.146492	0.001214	1.016826
	O348	O	0.213316	0.974244	-0.132950
	H349	H	0.209327	0.954597	-0.134700
	H350	H	0.195721	0.979333	-0.151063
	O351	O	-0.317328	0.306083	0.596685
	H352	H	-0.345913	0.326097	0.602288
	H353	H	-0.311901	0.296662	0.569382
	O354	O	0.963111	0.019691	0.857785
	H355	H	0.946796	0.035647	0.854936
	H356	H	0.967685	0.031934	0.872729
	O357	O	0.342673	0.706589	0.282388
	H358	H	0.329455	0.719197	0.268827
	H359	H	0.364577	0.713678	0.280070
	O360	O	0.608765	0.569505	0.368946
	H361	H	0.624010	0.568547	0.363783
	H362	H	0.594413	0.569112	0.384184
	O363	O	-0.032711	0.787941	1.201171
	H364	H	-0.040944	0.802745	1.205389
	H365	H	-0.029929	0.771903	1.226005
	O366	O	0.432252	0.540956	1.683088
	H367	H	0.423629	0.544821	1.683494
	H368	H	0.412504	0.544663	1.681673
	O369	O	0.284561	0.416066	0.696268
	H370	H	0.266743	0.413478	0.710345
	H371	H	0.287908	0.395169	0.687309
	O372	O	0.075489	0.910643	1.197723
	H373	H	0.088657	0.914575	1.201755
	H374	H	0.078618	0.921631	1.198144
	O375	O	0.783346	0.164099	-0.087173
	H376	H	0.782010	0.185821	-0.092656
	H377	H	0.787379	0.165924	-0.106601
	O378	O	0.860129	0.791122	0.067221
	H379	H	0.884800	0.798094	0.079578
	H380	H	0.866784	0.805361	0.077991
	O381	O	-0.727367	0.669919	0.705199
	H382	H	-0.735948	0.683823	0.712322
	H383	H	-0.753281	0.680571	0.720709
	O384	O	1.192212	1.213118	1.187183
	H385	H	1.202236	1.176927	1.200707
	H386	H	1.211362	1.229113	1.172914
	O387	O	0.500318	1.720721	1.390038
	H388	H	0.514348	1.717491	1.396616
	H389	H	0.496904	1.715830	1.392736
	O390	O	0.176502	0.781248	0.822984
	H391	H	0.180586	0.780814	0.815895
	H392	H	0.159091	0.784684	0.834631
	O393	O	1.024999	-0.072356	0.009159
	H394	H	1.032982	-0.067907	0.010774
	H395	H	1.026029	-0.069623	0.011414
	O396	O	0.520698	0.702870	0.688772
	H397	H	0.511057	0.705292	0.702424
	H398	H	0.521855	0.713296	0.701767
	O399	O	0.513522	0.660398	0.399036
	H400	H	0.513467	0.667407	0.389408
	H401	H	0.509643	0.653199	0.390903
	O402	O	0.946147	0.041422	1.124569
	H403	H	0.956256	0.050551	1.136843
	H404	H	0.947531	0.036518	1.123518
	O405	O	0.349642	0.560617	0.301411
	H406	H	0.341548	0.556284	0.284760
	H407	H	0.355390	0.588472	0.300924
	O408	O	0.891266	0.805284	0.884989
	H409	H	0.893790	0.815827	0.901801
	H410	H	0.883448	0.812370	0.900059
	O411	O	1.005739	0.844057	-0.221682
	H412	H	0.998141	0.859909	-0.220315
	H413	H	1.000430	0.830705	-0.228191
	O414	O	-0.009684	0.030217	-0.127251
	H415	H	-0.016200	0.034622	-0.136395
	H416	H	-0.010059	0.048218	-0.123854
	O417	O	0.208475	0.224509	1.021915
	H418	H	0.234008	0.244032	1.017847
	H419	H	0.216702	0.206255	1.030739
	O420	O	0.767416	-0.216496	1.014823
	H421	H	0.743035	-0.247345	1.021803
	H422	H	0.776741	-0.215705	1.055740
	O423	O	1.601111	0.480299	0.276732
	H424	H	1.598410	0.481827	0.287213
	H425	H	1.609759	0.460904	0.270261
	O426	O	0.720449	0.270935	0.387053
	H427	H	0.726063	0.267198	0.375498
	H428	H	0.725560	0.256215	0.364490
	O429	O	0.867732	1.167317	0.167667
	H430	H	0.892893	1.156369	0.159777
	H431	H	0.885904	1.165862	0.160043
	O432	O	1.285193	-0.387478	1.393337
	H433	H	1.282844	-0.387371	1.383763
	H434	H	1.300283	-0.390817	1.404465
	O435	O	-0.690830	-0.686760	0.496761
	H436	H	-0.667169	-0.687506	0.487653
	H437	H	-0.699692	-0.678974	0.484787
	O438	O	0.526440	0.712170	0.345030
	H439	H	0.520780	0.717784	0.349629
	H440	H	0.527316	0.699762	0.352460
	O441	O	0.700032	0.504089	0.496341
	H442	H	0.691388	0.494918	0.508723
	H443	H	0.708152	0.487357	0.491038
	O444	O	0.493136	0.330664	0.456243
	H445	H	0.496219	0.322900	0.466212
	H446	H	0.488008	0.333687	0.454704
	O447	O	0.662346	0.480725	0.382519
	H448	H	0.658639	0.500808	0.390807
	H449	H	0.664068	0.472290	0.389134
	O450	O	1.407497	-0.464154	0.404415
	H451	H	1.403402	-0.448207	0.413074
	H452	H	1.405862	-0.462868	0.404558
	O453	O	0.777849	-0.089680	0.961698
	H454	H	0.783839	-0.088399	0.969113
	H455	H	0.765818	-0.089718	0.965064
	O456	O	0.010422	0.941342	0.913864
	H457	H	0.014238	0.925373	0.907272
	H458	H	0.000529	0.951896	0.929393
	O459	O	0.685834	0.702651	0.678082
	H460	H	0.668165	0.719536	0.696903
	H461	H	0.695579	0.698741	0.638463
	O462	O	0.501488	0.323959	0.677317
	H463	H	0.517114	0.322579	0.683420
	H464	H	0.506211	0.333399	0.685343
	O465	O	0.705698	0.721863	0.514151
	H466	H	0.706590	0.725404	0.505357
	H467	H	0.721551	0.733513	0.505188
	O468	O	0.063022	1.047161	-0.202943
	H469	H	0.054561	1.052990	-0.214357
	H470	H	0.050110	1.039513	-0.202056
	O471	O	0.287548	0.523202	0.502795
	H472	H	0.292211	0.528430	0.499538
	H473	H	0.282447	0.532198	0.505107
	O474	O	1.192702	0.799034	0.068670
	H475	H	1.200968	0.795064	0.050331
	H476	H	1.174130	0.811441	0.049571
	O477	O	-0.338237	-0.233730	0.338508
	H478	H	-0.359025	-0.234355	0.360928
	H479	H	-0.349066	-0.210224	0.326667
