data_Molecule from HDF5

_cell_length_a		16.421707
_cell_length_b		16.434505
_cell_length_c		16.285761
_cell_angle_alpha	90.049510
_cell_angle_beta	90.059321
_cell_angle_gamma	89.977313
_symmetry_space_group_name_H-M	'P 1'
_symmetry_Int_Tables_number		1

loop_
	_symmetry_equiv_pos_as_xyz
	x,y,z

loop_
	_atom_site_label
	_atom_site_type_symbol
	_atom_site_fract_x
	_atom_site_fract_y
	_atom_site_fract_z
	H0	H	0.395002	0.839253	0.711893
	H1	H	0.604686	0.155835	0.709674
	H2	H	0.601576	0.835885	0.271499
	H3	H	0.398083	0.157743	0.271864
	H4	H	0.719611	0.395296	0.828420
	H5	H	0.720322	0.600933	0.150874
	H6	H	0.280018	0.604383	0.829275
	H7	H	0.279244	0.390618	0.148073
	H8	H	0.841737	0.716971	0.383601
	H9	H	0.160332	0.718065	0.595460
	H10	H	0.841883	0.275004	0.595231
	H11	H	0.159433	0.272701	0.383086
	H12	H	0.841689	0.393554	0.708759
	H13	H	0.161934	0.599766	0.709576
	H14	H	0.840166	0.597097	0.271655
	H15	H	0.160570	0.391972	0.269225
	H16	H	0.397631	0.718052	0.829767
	H17	H	0.604649	0.715823	0.151472
	H18	H	0.607832	0.276188	0.830378
	H19	H	0.398210	0.278826	0.150504
	H20	H	0.719543	0.835904	0.385570
	H21	H	0.724638	0.153351	0.597252
	H22	H	0.280430	0.838342	0.595030
	H23	H	0.278802	0.154854	0.382847
	H24	H	0.895874	0.337830	0.208778
	H25	H	0.103331	0.656586	0.208731
	H26	H	0.109194	0.339253	0.766547
	H27	H	0.899297	0.656676	0.770048
	H28	H	0.222653	0.890431	0.329064
	H29	H	0.223008	0.103787	0.648297
	H30	H	0.782219	0.097337	0.329309
	H31	H	0.779265	0.888241	0.649209
	H32	H	0.345336	0.224682	0.879972
	H33	H	0.660743	0.217864	0.094776
	H34	H	0.343826	0.773204	0.099433
	H35	H	0.660720	0.777543	0.885211
	H36	H	0.340384	0.895457	0.208540
	H37	H	0.661069	0.098627	0.209026
	H38	H	0.342306	0.106003	0.766890
	H39	H	0.659912	0.893374	0.768777
	H40	H	0.894731	0.215504	0.329830
	H41	H	0.108835	0.218803	0.647902
	H42	H	0.104917	0.776207	0.328074
	H43	H	0.896918	0.774213	0.649314
	H44	H	0.227129	0.341142	0.879132
	H45	H	0.223313	0.654982	0.097601
	H46	H	0.779257	0.338984	0.094102
	H47	H	0.781999	0.656890	0.884974
	H48	H	0.414492	0.108815	0.576044
	H49	H	0.583909	0.883718	0.583679
	H50	H	0.593119	0.110221	0.399279
	H51	H	0.414539	0.883971	0.397146
	H52	H	0.586192	0.403190	0.104157
	H53	H	0.586660	0.587559	0.876556
	H54	H	0.416507	0.582283	0.101138
	H55	H	0.411583	0.414031	0.876151
	H56	H	0.112309	0.583172	0.404258
	H57	H	0.888671	0.581173	0.582724
	H58	H	0.116305	0.399696	0.575145
	H59	H	0.885733	0.401706	0.396482
	H60	H	0.110346	0.410654	0.571723
	H61	H	0.886474	0.590957	0.579731
	H62	H	0.115349	0.583464	0.393969
	H63	H	0.887629	0.403772	0.403445
	H64	H	0.414124	0.591209	0.105338
	H65	H	0.593676	0.593560	0.872554
	H66	H	0.599073	0.406064	0.107788
	H67	H	0.418767	0.412712	0.878039
	H68	H	0.590943	0.109892	0.400356
	H69	H	0.588915	0.885159	0.571064
	H70	H	0.409253	0.109619	0.574414
	H71	H	0.409965	0.884927	0.404115
	H72	H	0.910605	0.610158	0.076943
	H73	H	0.094146	0.383675	0.075637
	H74	H	0.088683	0.609434	0.902128
	H75	H	0.910767	0.383245	0.898364
	H76	H	0.090420	0.905844	0.602761
	H77	H	0.090614	0.081888	0.375094
	H78	H	0.910714	0.088031	0.606468
	H79	H	0.910876	0.906173	0.375392
	H80	H	0.613841	0.087722	0.904000
	H81	H	0.387543	0.087268	0.080528
	H82	H	0.616534	0.898166	0.076840
	H83	H	0.390251	0.912572	0.903778
	H84	H	0.609639	0.913028	0.075105
	H85	H	0.386900	0.091168	0.079717
	H86	H	0.611743	0.083397	0.902726
	H87	H	0.386639	0.907729	0.898317
	H88	H	0.909877	0.080543	0.603814
	H89	H	0.087033	0.080562	0.376568
	H90	H	0.090870	0.907463	0.602846
	H91	H	0.911673	0.905416	0.374967
	H92	H	0.091179	0.610208	0.901794
	H93	H	0.089479	0.383522	0.080655
	H94	H	0.908018	0.611833	0.081065
	H95	H	0.911052	0.384892	0.900423
	H96	H	0.409910	0.111417	0.579812
	H97	H	0.596611	0.880265	0.581139
	H98	H	0.592680	0.109625	0.401567
	H99	H	0.406898	0.880909	0.397107
	H100	H	0.591421	0.415823	0.101814
	H101	H	0.596271	0.583859	0.874527
	H102	H	0.406835	0.583503	0.104701
	H103	H	0.414793	0.407473	0.875221
	H104	H	0.116297	0.592135	0.400613
	H105	H	0.890909	0.583675	0.572387
	H106	H	0.115513	0.409134	0.584050
	H107	H	0.888371	0.408356	0.397453
	H108	H	0.913362	0.610671	0.080767
	H109	H	0.087993	0.385701	0.074568
	H110	H	0.089566	0.610354	0.900183
	H111	H	0.909553	0.383098	0.900618
	H112	H	0.089439	0.907175	0.602210
	H113	H	0.087328	0.084935	0.375641
	H114	H	0.916702	0.084222	0.602846
	H115	H	0.910677	0.905031	0.374797
	H116	H	0.614388	0.086005	0.899823
	H117	H	0.388658	0.088206	0.076892
	H118	H	0.616872	0.908982	0.088889
	H119	H	0.388702	0.904699	0.905587
	C120	C	0.379159	0.005525	0.610097
	C121	C	0.622566	0.987621	0.611353
	C122	C	0.622511	0.004423	0.368347
	C123	C	0.378716	0.988632	0.367682
	C124	C	0.623542	0.376835	-0.001566
	C125	C	0.623286	0.619437	0.981223
	C126	C	0.380627	0.618312	-0.001975
	C127	C	0.381485	0.377703	0.981307
	C128	C	0.009379	0.617492	0.368138
	C129	C	0.993858	0.617479	0.610628
	C130	C	0.009179	0.374792	0.610006
	C131	C	0.992479	0.372795	0.367049
	C132	C	0.879126	0.505626	0.110665
	C133	C	0.122567	0.488745	0.110517
	C134	C	0.123162	0.505672	0.867937
	C135	C	0.879444	0.488679	0.867497
	C136	C	0.122691	0.874563	0.497220
	C137	C	0.121416	0.115813	0.481061
	C138	C	0.880150	0.116033	0.498529
	C139	C	0.879485	0.873536	0.480970
	C140	C	0.509720	0.119708	0.868018
	C141	C	0.492990	0.119649	0.111171
	C142	C	0.509428	0.875186	0.112471
	C143	C	0.493362	0.876336	0.869291
	C144	C	0.376779	0.886529	0.671472
	C145	C	0.623980	0.107661	0.670653
	C146	C	0.621465	0.884084	0.310088
	C147	C	0.378545	0.109060	0.309995
	C148	C	0.681464	0.375953	0.877053
	C149	C	0.681286	0.619902	0.102544
	C150	C	0.320388	0.621529	0.877435
	C151	C	0.319839	0.373476	0.100595
	C152	C	0.889264	0.676561	0.366239
	C153	C	0.113150	0.677666	0.613475
	C154	C	0.889723	0.315159	0.612935
	C155	C	0.111737	0.312951	0.364806
	C156	C	0.889870	0.373818	0.670077
	C157	C	0.113925	0.618571	0.670025
	C158	C	0.888465	0.617273	0.310073
	C159	C	0.112358	0.372391	0.308198
	C160	C	0.378748	0.678583	0.877732
	C161	C	0.623780	0.677268	0.102777
	C162	C	0.625817	0.316752	0.877993
	C163	C	0.379254	0.317761	0.101725
	C164	C	0.680241	0.883981	0.367009
	C165	C	0.683572	0.106470	0.614667
	C166	C	0.319746	0.886070	0.613101
	C167	C	0.319112	0.107791	0.365499
	C168	C	0.877665	0.385534	0.169318
	C169	C	0.123185	0.608204	0.170305
	C170	C	0.126834	0.387077	0.806578
	C171	C	0.879268	0.608741	0.808643
	C172	C	0.182698	0.872071	0.377069
	C173	C	0.182843	0.120481	0.600402
	C174	C	0.820936	0.116901	0.377707
	C175	C	0.819512	0.870688	0.601279
	C176	C	0.392033	0.183114	0.863128
	C177	C	0.613039	0.178310	0.113288
	C178	C	0.390643	0.814456	0.115915
	C179	C	0.612569	0.816588	0.866637
	C180	C	0.389014	0.875224	0.170593
	C181	C	0.613186	0.118990	0.169993
	C182	C	0.390566	0.123895	0.806582
	C183	C	0.612331	0.874651	0.808704
	C184	C	0.877238	0.175655	0.377937
	C185	C	0.125959	0.178177	0.600168
	C186	C	0.123952	0.815327	0.376291
	C187	C	0.877891	0.813714	0.601285
	C188	C	0.185380	0.387775	0.863228
	C189	C	0.182780	0.607650	0.114568
	C190	C	0.819471	0.386205	0.112360
	C191	C	0.821311	0.608891	0.866196
	C192	C	0.404053	0.088408	0.584341
	C193	C	0.597371	0.904720	0.585995
	C194	C	0.599050	0.088263	0.393284
	C195	C	0.403339	0.905051	0.392138
	C196	C	0.599047	0.401289	0.082661
	C197	C	0.599096	0.595486	0.896567
	C198	C	0.405470	0.592864	0.081993
	C199	C	0.407587	0.403899	0.898233
	C200	C	0.092935	0.593324	0.392589
	C201	C	0.910556	0.592473	0.585541
	C202	C	0.092518	0.399429	0.584379
	C203	C	0.908933	0.397400	0.392012
	C204	C	0.903658	0.589095	0.086514
	C205	C	0.097838	0.405898	0.084506
	C206	C	0.097463	0.588331	0.894065
	C207	C	0.903629	0.405520	0.892706
	C208	C	0.097484	0.899684	0.580929
	C209	C	0.095583	0.089939	0.397523
	C210	C	0.905232	0.091542	0.582409
	C211	C	0.903998	0.898474	0.396994
	C212	C	0.591883	0.093134	0.894477
	C213	C	0.409498	0.095881	0.086148
	C214	C	0.592651	0.899741	0.087450
	C215	C	0.410193	0.901236	0.895061
	Zn216	Zn	0.499887	-0.002446	0.739460
	Zn217	Zn	0.500176	-0.002464	0.240064
	Zn218	Zn	0.750812	0.497981	-0.010827
	Zn219	Zn	0.251730	0.498016	-0.010791
	Zn220	Zn	0.001659	0.746041	0.489140
	Zn221	Zn	0.001010	0.244437	0.489559
	Zn222	Zn	0.001434	0.496418	0.739558
	Zn223	Zn	0.000265	0.496485	0.239073
	Zn224	Zn	0.501356	0.746762	-0.009238
	Zn225	Zn	0.502526	0.248784	-0.010428
	Zn226	Zn	0.751556	-0.004989	0.490081
	Zn227	Zn	0.250594	-0.003311	0.488895
	N228	N	0.412833	0.961759	0.669693
	N229	N	0.586713	0.032880	0.668663
	N230	N	0.586234	0.959940	0.310952
	N231	N	0.414793	0.033807	0.311312
	N232	N	0.680153	0.412618	0.952937
	N233	N	0.681334	0.584814	0.025795
	N234	N	0.321195	0.584974	0.953481
	N235	N	0.320896	0.410011	0.024640
	N236	N	0.965285	0.676737	0.401755
	N237	N	0.037431	0.677176	0.577392
	N238	N	0.965168	0.315635	0.576420
	N239	N	0.035927	0.312996	0.400486
	N240	N	0.965342	0.409910	0.668591
	N241	N	0.038691	0.581913	0.668386
	N242	N	0.963924	0.581325	0.311032
	N243	N	0.036965	0.408771	0.309229
	N244	N	0.415162	0.676758	0.953706
	N245	N	0.588535	0.677231	0.026223
	N246	N	0.590728	0.317079	0.954482
	N247	N	0.416557	0.320136	0.026318
	N248	N	0.681187	0.960016	0.402515
	N249	N	0.682924	0.030868	0.578569
	N250	N	0.321118	0.961096	0.575816
	N251	N	0.319089	0.031721	0.400595
	N252	N	0.914226	0.460639	0.168315
	N253	N	0.086432	0.533068	0.168108
	N254	N	0.088575	0.461400	0.809567
	N255	N	0.914673	0.533011	0.809246
	N256	N	0.181919	0.908314	0.453100
	N257	N	0.180032	0.082397	0.525219
	N258	N	0.822320	0.080790	0.453713
	N259	N	0.820447	0.907288	0.525374
	N260	N	0.466973	0.180524	0.900746
	N261	N	0.537294	0.178752	0.077505
	N262	N	0.466521	0.814378	0.080412
	N263	N	0.537499	0.817671	0.903808
	N264	N	0.463790	0.912468	0.168538
	N265	N	0.537371	0.083637	0.169176
	N266	N	0.464525	0.084875	0.809704
	N267	N	0.536991	0.911038	0.810275
	N268	N	0.913253	0.175385	0.454127
	N269	N	0.088172	0.175398	0.524858
	N270	N	0.087439	0.816541	0.452256
	N271	N	0.914372	0.815432	0.525596
	N272	N	0.183103	0.462584	0.900745
	N273	N	0.182673	0.532295	0.078101
	N274	N	0.820176	0.461801	0.076638
	N275	N	0.821174	0.533175	0.901957
	O276	O	0.545842	0.328809	0.610048
	H277	H	0.532785	0.332687	0.613124
	H278	H	0.554729	0.318518	0.614612
	O279	O	0.674374	0.502341	0.582454
	H280	H	0.663155	0.494415	0.582292
	H281	H	0.673333	0.493292	0.589329
	O282	O	0.536600	0.509046	0.500497
	H283	H	0.535459	0.489010	0.507537
	H284	H	0.552367	0.501207	0.496076
	O285	O	0.928246	0.158018	-0.177312
	H286	H	0.941949	0.149543	-0.166531
	H287	H	0.918756	0.171510	-0.171647
	O288	O	0.033785	-0.189507	1.084192
	H289	H	0.028944	-0.197993	1.080014
	H290	H	0.045325	-0.188059	1.071160
	O291	O	0.489255	0.332620	0.495439
	H292	H	0.503422	0.340115	0.486958
	H293	H	0.484392	0.352088	0.486358
	O294	O	0.427638	0.539355	0.553582
	H295	H	0.433760	0.526873	0.565622
	H296	H	0.424635	0.547784	0.552899
	O297	O	1.198980	1.018213	1.193193
	H298	H	1.204168	1.012961	1.216533
	H299	H	1.197533	0.991878	1.170324
	O300	O	-0.187407	-0.168053	0.021008
	H301	H	-0.205674	-0.168645	0.014494
	H302	H	-0.187672	-0.156205	0.021589
	O303	O	0.453654	0.624972	0.480678
	H304	H	0.463743	0.628592	0.488111
	H305	H	0.474711	0.618351	0.492172
	O306	O	0.998728	-0.031527	-0.202020
	H307	H	1.020471	-0.014247	-0.189793
	H308	H	1.001133	-0.032542	-0.207507
	O309	O	0.660931	0.671507	0.564016
	H310	H	0.658982	0.654883	0.572176
	H311	H	0.677780	0.681646	0.555555
	O312	O	0.895873	1.047449	0.173464
	H313	H	0.910767	1.058424	0.176230
	H314	H	0.904485	1.033460	0.166606
	O315	O	0.412728	0.543686	0.492890
	H316	H	0.418916	0.543921	0.497545
	H317	H	0.411303	0.550967	0.490294
	O318	O	0.379934	0.605470	0.389287
	H319	H	0.372302	0.613769	0.401576
	H320	H	0.390079	0.600746	0.389127
	O321	O	1.206690	-0.220257	0.975278
	H322	H	1.200516	-0.220136	0.936824
	H323	H	1.230697	-0.247156	0.971713
	O324	O	-0.067894	-0.021180	0.792084
	H325	H	-0.059243	0.001567	0.792169
	H326	H	-0.068111	-0.029647	0.797270
	O327	O	0.558692	0.483772	0.375231
	H328	H	0.542876	0.474962	0.382813
	H329	H	0.574369	0.482401	0.365994
	O330	O	0.539224	0.675583	0.489660
	H331	H	0.552037	0.665309	0.468958
	H332	H	0.542820	0.684489	0.484227
	O333	O	1.214367	0.973254	0.778690
	H334	H	1.224126	0.991911	0.784237
	H335	H	1.233205	0.985554	0.770411
	O336	O	0.482657	0.519936	0.436279
	H337	H	0.487928	0.523664	0.443351
	H338	H	0.498199	0.515554	0.435538
	O339	O	1.045202	-0.028393	1.149722
	H340	H	1.044233	-0.038121	1.133470
	H341	H	1.033356	-0.046207	1.142597
	O342	O	0.185355	1.216494	0.988310
	H343	H	0.190456	1.219794	1.003129
	H344	H	0.181887	1.234389	0.991495
	O345	O	0.030211	1.105010	0.885868
	H346	H	-0.001876	1.097032	0.901810
	H347	H	0.039726	1.120828	0.872423
	O348	O	0.588817	0.408636	0.371308
	H349	H	0.589423	0.401480	0.364980
	H350	H	0.579107	0.404049	0.366854
	O351	O	-0.125138	0.189916	-0.077221
	H352	H	-0.127488	0.186440	-0.072193
	H353	H	-0.095010	0.197084	-0.065251
	O354	O	0.802383	1.102007	-0.172545
	H355	H	0.795318	1.100756	-0.167955
	H356	H	0.793074	1.101758	-0.181310
	O357	O	0.026302	0.903772	-0.206052
	H358	H	0.021853	0.902635	-0.227002
	H359	H	0.013471	0.916463	-0.196934
	O360	O	0.632260	0.504198	0.326078
	H361	H	0.631216	0.487477	0.315412
	H362	H	0.623481	0.516988	0.324424
	O363	O	0.502801	0.340139	0.427539
	H364	H	0.505339	0.344936	0.427426
	H365	H	0.521451	0.340467	0.413843
	O366	O	0.377602	0.418847	0.577110
	H367	H	0.366518	0.431037	0.577273
	H368	H	0.372650	0.419124	0.558311
	O369	O	0.627559	0.510209	0.650109
	H370	H	0.624423	0.505181	0.653629
	H371	H	0.645271	0.504988	0.654163
	O372	O	0.360648	0.529398	0.300583
	H373	H	0.368121	0.546465	0.306372
	H374	H	0.344212	0.523675	0.290650
	O375	O	0.452468	0.380505	0.418984
	H376	H	0.441296	0.375830	0.408428
	H377	H	0.458059	0.383526	0.404785
	O378	O	0.512181	0.306193	0.426110
	H379	H	0.503557	0.293377	0.428967
	H380	H	0.514418	0.315380	0.436602
	O381	O	0.429865	0.595038	0.502937
	H382	H	0.417640	0.609831	0.514380
	H383	H	0.444446	0.582868	0.488573
	O384	O	0.185109	0.920326	1.055634
	H385	H	0.184878	0.911371	1.057207
	H386	H	0.181509	0.905526	1.037655
	O387	O	0.821540	0.881030	0.153522
	H388	H	0.834322	0.892621	0.146125
	H389	H	0.832173	0.881545	0.139565
	O390	O	0.545003	0.502541	0.532450
	H391	H	0.540583	0.497439	0.551564
	H392	H	0.556284	0.517508	0.548548
	O393	O	0.795751	0.056161	1.094003
	H394	H	0.779116	0.055470	1.099313
	H395	H	0.821404	0.065253	1.089639
	O396	O	0.015176	1.148393	0.969555
	H397	H	0.011225	1.164186	0.950457
	H398	H	0.002853	1.138569	0.977215
	O399	O	0.178701	0.813786	0.812006
	H400	H	0.145756	0.824095	0.802674
	H401	H	0.189419	0.844356	0.804017
	O402	O	0.924384	-0.183751	0.980911
	H403	H	0.929992	-0.172663	0.977928
	H404	H	0.913042	-0.183276	0.979199
	O405	O	-0.086053	0.174168	0.094238
	H406	H	-0.081176	0.176990	0.119008
	H407	H	-0.068792	0.158148	0.093045
	O408	O	1.366558	1.605085	1.570472
	H409	H	1.368846	1.623365	1.568971
	H410	H	1.376133	1.612987	1.570058
	O411	O	1.202643	1.053999	-0.069082
	H412	H	1.205957	1.046983	-0.049655
	H413	H	1.202297	1.081474	-0.055853
	O414	O	0.174198	0.170758	1.160060
	H415	H	0.166206	0.160559	1.142764
	H416	H	0.180079	0.133323	1.169119
	O417	O	-0.004833	0.204413	1.136498
	H418	H	-0.000134	0.228159	1.170080
	H419	H	0.009605	0.192847	1.131004
	O420	O	-0.046714	0.849755	0.109914
	H421	H	-0.059002	0.849010	0.106517
	H422	H	-0.036959	0.842553	0.117340
	O423	O	0.986319	-0.086733	-0.015318
	H424	H	0.984510	-0.090721	-0.021547
	H425	H	0.990635	-0.084684	-0.022773
	O426	O	-0.173215	-0.038940	0.920171
	H427	H	-0.164505	-0.030695	0.914471
	H428	H	-0.166692	-0.035740	0.921546
	O429	O	0.451999	0.427485	0.662780
	H430	H	0.442040	0.443862	0.664297
	H431	H	0.434518	0.428710	0.646332
