data_Molecule from HDF5

_cell_length_a		16.592076
_cell_length_b		16.647813
_cell_length_c		16.729630
_cell_angle_alpha	89.911488
_cell_angle_beta	90.019275
_cell_angle_gamma	90.089678
_symmetry_space_group_name_H-M	'P 1'
_symmetry_Int_Tables_number		1

loop_
	_symmetry_equiv_pos_as_xyz
	x,y,z

loop_
	_atom_site_label
	_atom_site_type_symbol
	_atom_site_fract_x
	_atom_site_fract_y
	_atom_site_fract_z
	H0	H	0.377387	0.829267	0.698299
	H1	H	0.593769	0.136391	0.704751
	H2	H	0.588955	0.831488	0.254160
	H3	H	0.369138	0.135332	0.251203
	H4	H	0.704095	0.376386	0.826143
	H5	H	0.703246	0.590960	0.131613
	H6	H	0.254898	0.593311	0.825715
	H7	H	0.256327	0.376185	0.131824
	H8	H	0.823116	0.703130	0.374155
	H9	H	0.132908	0.707783	0.585039
	H10	H	0.826843	0.258245	0.587282
	H11	H	0.135476	0.263050	0.371722
	H12	H	0.827200	0.372267	0.704144
	H13	H	0.131530	0.594921	0.703722
	H14	H	0.824313	0.588483	0.257298
	H15	H	0.135060	0.378118	0.255258
	H16	H	0.371404	0.709448	0.826000
	H17	H	0.588535	0.708632	0.130742
	H18	H	0.587239	0.261401	0.825072
	H19	H	0.372247	0.259747	0.131084
	H20	H	0.701922	0.829759	0.372715
	H21	H	0.705723	0.138493	0.585870
	H22	H	0.261884	0.827870	0.582311
	H23	H	0.253220	0.135511	0.366320
	H24	H	0.872778	0.330463	0.202045
	H25	H	0.085061	0.640374	0.196957
	H26	H	0.091001	0.332327	0.751414
	H27	H	0.874156	0.638522	0.757449
	H28	H	0.200385	0.881117	0.323654
	H29	H	0.202679	0.091087	0.632000
	H30	H	0.756715	0.091267	0.324175
	H31	H	0.759065	0.880453	0.632392
	H32	H	0.324379	0.204176	0.872838
	H33	H	0.635197	0.203729	0.082295
	H34	H	0.327050	0.756882	0.088841
	H35	H	0.636640	0.764212	0.875301
	H36	H	0.328161	0.871109	0.206357
	H37	H	0.635776	0.086505	0.197364
	H38	H	0.326163	0.090353	0.755681
	H39	H	0.636840	0.879501	0.758801
	H40	H	0.872633	0.208654	0.324588
	H41	H	0.088597	0.209456	0.630635
	H42	H	0.083458	0.765574	0.322363
	H43	H	0.874650	0.762916	0.631645
	H44	H	0.204644	0.330382	0.868394
	H45	H	0.200451	0.639650	0.080364
	H46	H	0.757369	0.329783	0.085800
	H47	H	0.759516	0.638687	0.874807
	H48	H	0.391709	0.095836	0.566175
	H49	H	0.573188	0.874021	0.563617
	H50	H	0.563726	0.094148	0.388333
	H51	H	0.398812	0.877587	0.394735
	H52	H	0.566451	0.392547	0.089624
	H53	H	0.567930	0.569921	0.869381
	H54	H	0.390667	0.576188	0.090015
	H55	H	0.394288	0.399835	0.869582
	H56	H	0.090676	0.570850	0.390114
	H57	H	0.869671	0.567418	0.567061
	H58	H	0.088640	0.398616	0.562653
	H59	H	0.867434	0.393888	0.387431
	H60	H	0.088220	0.401694	0.563878
	H61	H	0.865458	0.574009	0.571090
	H62	H	0.093607	0.574512	0.382341
	H63	H	0.870896	0.396429	0.393973
	H64	H	0.387948	0.565954	0.087825
	H65	H	0.566311	0.574911	0.868343
	H66	H	0.570443	0.392262	0.091248
	H67	H	0.395367	0.392063	0.867758
	H68	H	0.566830	0.093549	0.393734
	H69	H	0.570475	0.871493	0.574303
	H70	H	0.391238	0.096690	0.568180
	H71	H	0.387933	0.873696	0.395635
	H72	H	0.891347	0.596278	0.067293
	H73	H	0.068564	0.371679	0.069293
	H74	H	0.068003	0.593052	0.892968
	H75	H	0.891542	0.371095	0.887181
	H76	H	0.068455	0.894463	0.589226
	H77	H	0.064694	0.075081	0.368738
	H78	H	0.892233	0.076664	0.589968
	H79	H	0.893636	0.895351	0.367875
	H80	H	0.593262	0.077408	0.892819
	H81	H	0.367421	0.066702	0.071848
	H82	H	0.587928	0.898797	0.062463
	H83	H	0.369061	0.893649	0.891267
	H84	H	0.590374	0.899053	0.070076
	H85	H	0.365199	0.077044	0.066712
	H86	H	0.589757	0.068789	0.893591
	H87	H	0.370145	0.898552	0.889785
	H88	H	0.889800	0.065764	0.586067
	H89	H	0.070419	0.072139	0.367315
	H90	H	0.069849	0.891952	0.590846
	H91	H	0.889584	0.889217	0.364448
	H92	H	0.067270	0.595133	0.888240
	H93	H	0.066070	0.372159	0.068481
	H94	H	0.891789	0.595298	0.067651
	H95	H	0.898385	0.374636	0.891072
	H96	H	0.393707	0.096249	0.567785
	H97	H	0.563155	0.875997	0.567624
	H98	H	0.569582	0.096348	0.388469
	H99	H	0.393741	0.871542	0.386247
	H100	H	0.568537	0.395903	0.089697
	H101	H	0.571081	0.573944	0.866911
	H102	H	0.398131	0.569289	0.084895
	H103	H	0.387971	0.395531	0.867041
	H104	H	0.092670	0.579683	0.389404
	H105	H	0.868072	0.574706	0.562830
	H106	H	0.089819	0.399765	0.565807
	H107	H	0.870779	0.401586	0.387938
	H108	H	0.891242	0.595281	0.067352
	H109	H	0.068248	0.372746	0.066715
	H110	H	0.063749	0.592296	0.890540
	H111	H	0.890807	0.373783	0.895405
	H112	H	0.071977	0.894680	0.590245
	H113	H	0.065804	0.068412	0.370251
	H114	H	0.900910	0.070791	0.584153
	H115	H	0.886030	0.896481	0.365921
	H116	H	0.592895	0.071711	0.885397
	H117	H	0.370281	0.068337	0.060569
	H118	H	0.592407	0.891779	0.065486
	H119	H	0.368123	0.895226	0.886280
	C120	C	0.360492	-0.006971	0.598991
	C121	C	0.603034	0.975729	0.600679
	C122	C	0.600442	-0.007335	0.357368
	C123	C	0.358954	0.975268	0.357110
	C124	C	0.601550	0.361592	-0.012052
	C125	C	0.600836	0.604906	0.970279
	C126	C	0.358578	0.605171	-0.013497
	C127	C	0.358406	0.362317	0.969721
	C128	C	-0.011191	0.605925	0.356105
	C129	C	0.970114	0.605716	0.599646
	C130	C	-0.011815	0.363971	0.598702
	C131	C	0.972320	0.364147	0.356773
	C132	C	0.858620	0.493140	0.100411
	C133	C	0.100331	0.475418	0.098772
	C134	C	0.101451	0.492527	0.856029
	C135	C	0.859674	0.475295	0.858346
	C136	C	0.101229	0.862604	0.487245
	C137	C	0.101355	0.105863	0.469829
	C138	C	0.859729	0.105267	0.485776
	C139	C	0.857823	0.862345	0.468851
	C140	C	0.489462	0.105488	0.857225
	C141	C	0.470787	0.103291	0.098454
	C142	C	0.488962	0.861369	0.100771
	C143	C	0.472441	0.863811	0.857596
	C144	C	0.359002	0.875835	0.658420
	C145	C	0.609501	0.090692	0.663064
	C146	C	0.605646	0.877330	0.295390
	C147	C	0.352749	0.089657	0.293019
	C148	C	0.663339	0.358596	0.872183
	C149	C	0.662169	0.608218	0.085828
	C150	C	0.296334	0.610300	0.871534
	C151	C	0.297159	0.358708	0.085362
	C152	C	0.870727	0.664394	0.354811
	C153	C	0.086246	0.667312	0.603063
	C154	C	0.873083	0.299724	0.604178
	C155	C	0.088891	0.303549	0.353943
	C156	C	0.873044	0.356794	0.662162
	C157	C	0.085669	0.611010	0.661937
	C158	C	0.871059	0.607301	0.296793
	C159	C	0.088534	0.360721	0.295817
	C160	C	0.354100	0.668104	0.871600
	C161	C	0.605152	0.666718	0.085339
	C162	C	0.605255	0.301254	0.871670
	C163	C	0.355012	0.300859	0.085216
	C164	C	0.661707	0.876534	0.354520
	C165	C	0.665448	0.091613	0.604013
	C166	C	0.301624	0.875302	0.600526
	C167	C	0.295120	0.089670	0.350443
	C168	C	0.855033	0.377055	0.161586
	C169	C	0.103170	0.593238	0.157323
	C170	C	0.107442	0.378148	0.792654
	C171	C	0.856517	0.591872	0.797929
	C172	C	0.160377	0.861861	0.370083
	C173	C	0.162771	0.109540	0.585277
	C174	C	0.797545	0.109421	0.370419
	C175	C	0.798862	0.861251	0.585704
	C176	C	0.371886	0.164873	0.854569
	C177	C	0.588479	0.163260	0.100533
	C178	C	0.373416	0.797861	0.106230
	C179	C	0.589873	0.804279	0.856624
	C180	C	0.374128	0.854588	0.164550
	C181	C	0.588615	0.105182	0.157771
	C182	C	0.372694	0.108273	0.796165
	C183	C	0.589823	0.861512	0.798621
	C184	C	0.855091	0.167682	0.370602
	C185	C	0.105785	0.168178	0.584596
	C186	C	0.102222	0.804379	0.369692
	C187	C	0.856073	0.802921	0.585461
	C188	C	0.164102	0.377223	0.851103
	C189	C	0.160647	0.592726	0.099608
	C190	C	0.797819	0.376497	0.103622
	C191	C	0.799540	0.592130	0.856211
	C192	C	0.385115	0.074916	0.574409
	C193	C	0.576484	0.894743	0.575594
	C194	C	0.574090	0.073650	0.382894
	C195	C	0.385999	0.895313	0.384418
	C196	C	0.575759	0.386618	0.068985
	C197	C	0.575531	0.579677	0.889198
	C198	C	0.384882	0.578159	0.066613
	C199	C	0.384794	0.388410	0.889133
	C200	C	0.070734	0.581780	0.380378
	C201	C	0.888677	0.579410	0.574028
	C202	C	0.068057	0.392117	0.571671
	C203	C	0.890752	0.390034	0.382522
	C204	C	0.884055	0.574496	0.074681
	C205	C	0.074948	0.393713	0.074861
	C206	C	0.074194	0.572773	0.883111
	C207	C	0.885557	0.394142	0.884049
	C208	C	0.077069	0.886894	0.568705
	C209	C	0.074679	0.079375	0.389508
	C210	C	0.886569	0.078740	0.565871
	C211	C	0.882737	0.886841	0.387256
	C212	C	0.570877	0.079896	0.883064
	C213	C	0.389005	0.078166	0.073472
	C214	C	0.569305	0.888853	0.073638
	C215	C	0.390399	0.888610	0.882042
	Zn216	Zn	0.481279	-0.015249	0.728579
	Zn217	Zn	0.479327	-0.016869	0.228049
	Zn218	Zn	0.730104	0.483752	-0.021059
	Zn219	Zn	0.229275	0.483652	-0.022191
	Zn220	Zn	-0.020819	0.733798	0.477681
	Zn221	Zn	-0.019517	0.235307	0.477664
	Zn222	Zn	-0.020561	0.483967	0.728039
	Zn223	Zn	-0.019489	0.485141	0.227893
	Zn224	Zn	0.480020	0.734643	-0.021499
	Zn225	Zn	0.479749	0.233012	-0.021854
	Zn226	Zn	0.729754	-0.015135	0.477783
	Zn227	Zn	0.230384	-0.015789	0.478676
	N228	N	0.394797	0.950146	0.657874
	N229	N	0.571187	0.017636	0.661141
	N230	N	0.568027	0.950524	0.297123
	N231	N	0.391765	0.017319	0.296886
	N232	N	0.661455	0.395487	0.945575
	N233	N	0.659723	0.570515	0.013136
	N234	N	0.298958	0.571613	0.943878
	N235	N	0.299155	0.396356	0.012304
	N236	N	0.944938	0.663940	0.391034
	N237	N	0.013284	0.663933	0.564699
	N238	N	0.945720	0.303974	0.565372
	N239	N	0.015165	0.305424	0.391079
	N240	N	0.945660	0.396225	0.659053
	N241	N	0.012173	0.573243	0.659935
	N242	N	0.945533	0.571653	0.297436
	N243	N	0.014651	0.397675	0.297391
	N244	N	0.392144	0.665227	0.944271
	N245	N	0.567751	0.664951	0.012341
	N246	N	0.567595	0.302863	0.944662
	N247	N	0.392495	0.303077	0.012173
	N248	N	0.658645	0.949379	0.392618
	N249	N	0.661470	0.019039	0.565674
	N250	N	0.301988	0.949422	0.564408
	N251	N	0.298994	0.017660	0.390125
	N252	N	0.892152	0.450749	0.159655
	N253	N	0.066810	0.519094	0.157475
	N254	N	0.069128	0.451135	0.795528
	N255	N	0.892926	0.517999	0.798753
	N256	N	0.160376	0.896958	0.444326
	N257	N	0.160212	0.071399	0.512591
	N258	N	0.800264	0.071275	0.443115
	N259	N	0.799547	0.897193	0.511958
	N260	N	0.445640	0.163414	0.891648
	N261	N	0.513991	0.162745	0.064766
	N262	N	0.446171	0.801623	0.067299
	N263	N	0.515615	0.805428	0.892657
	N264	N	0.446956	0.893387	0.161223
	N265	N	0.514278	0.068879	0.156941
	N266	N	0.447071	0.072159	0.797465
	N267	N	0.515551	0.897607	0.798881
	N268	N	0.893069	0.165296	0.443405
	N269	N	0.068397	0.166132	0.511498
	N270	N	0.066312	0.804314	0.443683
	N271	N	0.891784	0.803272	0.511511
	N272	N	0.160724	0.449650	0.889778
	N273	N	0.158995	0.518488	0.063889
	N274	N	0.799653	0.449902	0.066301
	N275	N	0.801055	0.518416	0.892981
	O276	O	0.014770	0.955274	-0.184660
	H277	H	0.042612	0.946620	-0.180329
	H278	H	0.019471	0.962019	-0.182073
	O279	O	0.635113	0.572192	0.371593
	H280	H	0.634853	0.570392	0.370901
	H281	H	0.634690	0.552145	0.370802
	O282	O	0.806786	-0.217525	1.182013
	H283	H	0.783952	-0.239942	1.200047
	H284	H	0.796309	-0.178342	1.189297
	O285	O	0.291210	0.379327	0.281587
	H286	H	0.273269	0.366487	0.254494
	H287	H	0.308349	0.370061	0.287718
	O288	O	0.699247	0.667866	0.490841
	H289	H	0.702954	0.687818	0.478099
	H290	H	0.692381	0.675842	0.480927
	O291	O	0.486425	0.581240	0.683056
	H292	H	0.498646	0.609076	0.690205
	H293	H	0.489924	0.583586	0.651906
	O294	O	0.961611	-0.043737	0.763035
	H295	H	0.993036	-0.050541	0.761854
	H296	H	0.955197	-0.028545	0.768576
	O297	O	0.875085	0.838334	0.011183
	H298	H	0.880823	0.831649	0.027421
	H299	H	0.866562	0.828969	0.008349
	O300	O	-0.251620	-0.042666	0.923948
	H301	H	-0.242106	-0.056451	0.919317
	H302	H	-0.249433	-0.032804	0.913155
	O303	O	0.547074	0.539545	0.249107
	H304	H	0.553749	0.520026	0.240218
	H305	H	0.537370	0.553256	0.257303
	O306	O	0.536180	0.337285	0.543034
	H307	H	0.545916	0.338963	0.540370
	H308	H	0.557181	0.338399	0.537659
	O309	O	0.262899	0.262629	0.493737
	H310	H	0.263047	0.277749	0.502032
	H311	H	0.250886	0.236959	0.505432
	O312	O	0.507517	0.708773	0.709122
	H313	H	0.516259	0.730791	0.722352
	H314	H	0.548536	0.714112	0.713127
	O315	O	1.362542	1.389349	1.389938
	H316	H	1.379543	1.383290	1.399679
	H317	H	1.359800	1.384796	1.395781
	O318	O	0.311342	0.589470	0.348914
	H319	H	0.287444	0.612073	0.346788
	H320	H	0.331675	0.592041	0.362134
	O321	O	0.021484	0.777942	0.781001
	H322	H	0.027844	0.778428	0.769974
	H323	H	0.021827	0.773929	0.786913
	O324	O	1.140287	1.057072	-0.006844
	H325	H	1.132954	1.050178	-0.023352
	H326	H	1.136406	1.073734	-0.028429
	O327	O	-0.229726	-0.050159	1.187464
	H328	H	-0.229902	-0.031510	1.179249
	H329	H	-0.235699	-0.034046	1.180899
	O330	O	0.286240	0.675686	0.672517
	H331	H	0.311875	0.659662	0.658153
	H332	H	0.293804	0.648406	0.654205
	O333	O	0.673081	0.465458	0.415762
	H334	H	0.680428	0.447512	0.429855
	H335	H	0.663009	0.464136	0.436550
	O336	O	0.698149	0.265912	0.452363
	H337	H	0.681768	0.267130	0.433901
	H338	H	0.727570	0.248939	0.452057
	O339	O	1.197788	-0.133331	1.098377
	H340	H	1.191919	-0.128763	1.075396
	H341	H	1.188657	-0.122376	1.075806
	O342	O	0.542376	0.432655	-0.300049
	H343	H	0.556776	0.451284	-0.303007
	H344	H	0.548332	0.440262	-0.304865
	O345	O	0.086276	0.790343	1.089089
	H346	H	0.079109	0.777713	1.083841
	H347	H	0.095836	0.789208	1.090842
	O348	O	0.582229	0.411527	0.311588
	H349	H	0.595788	0.407951	0.304650
	H350	H	0.575765	0.427402	0.313349
	O351	O	0.754127	1.208979	0.198809
	H352	H	0.769308	1.213596	0.189087
	H353	H	0.745557	1.193967	0.194592
	O354	O	-0.044666	-0.039674	0.937965
	H355	H	-0.035788	-0.030911	0.936090
	H356	H	-0.031387	-0.055557	0.953581
	O357	O	1.203964	-0.045888	0.750607
	H358	H	1.226297	-0.057668	0.727079
	H359	H	1.206411	-0.086257	0.750693
	O360	O	0.806535	0.797952	0.791140
	H361	H	0.832036	0.810605	0.799161
	H362	H	0.822378	0.815213	0.815446
	O363	O	-0.037814	-0.205907	0.197174
	H364	H	-0.049884	-0.216157	0.212495
	H365	H	-0.065403	-0.206469	0.209760
	O366	O	0.241858	0.547687	0.530843
	H367	H	0.233484	0.533597	0.507298
	H368	H	0.249831	0.526365	0.541579
	O369	O	0.496369	0.559788	0.492410
	H370	H	0.505165	0.560581	0.480133
	H371	H	0.488357	0.564061	0.468885
	O372	O	1.004066	0.983730	0.016846
	H373	H	1.008013	0.997193	0.020018
	H374	H	1.005072	1.006919	0.012722
	O375	O	1.172787	0.169719	0.172152
	H376	H	1.143155	0.159989	0.177137
	H377	H	1.174659	0.173301	0.156036
	O378	O	0.455600	0.564777	0.469271
	H379	H	0.459418	0.549904	0.479707
	H380	H	0.448141	0.569089	0.457348
	O381	O	-0.139922	0.993812	1.010134
	H382	H	-0.117238	0.991030	1.006385
	H383	H	-0.142810	0.991841	1.002541
	O384	O	0.837737	-0.166595	1.012132
	H385	H	0.820095	-0.182346	1.018373
	H386	H	0.844096	-0.158370	1.034040
	O387	O	1.392763	0.433996	0.674580
	H388	H	1.407513	0.466746	0.686883
	H389	H	1.413111	0.424369	0.652724
	O390	O	0.268149	0.585154	0.262188
	H391	H	0.261932	0.601654	0.273204
	H392	H	0.253349	0.586798	0.254934
	O393	O	0.460794	0.256449	0.698478
	H394	H	0.461536	0.239035	0.724708
	H395	H	0.468240	0.268738	0.693103
	O396	O	0.162982	1.167735	0.793710
	H397	H	0.138797	1.167860	0.803889
	H398	H	0.196122	1.199756	0.762686
	O399	O	-0.307968	-0.302494	1.267574
	H400	H	-0.322286	-0.326832	1.285082
	H401	H	-0.329979	-0.297978	1.275539
	O402	O	0.636196	0.362266	0.552720
	H403	H	0.643477	0.351472	0.567400
	H404	H	0.634098	0.365825	0.569421
	O405	O	1.039948	0.100721	1.083355
	H406	H	1.039781	0.097384	1.094942
	H407	H	1.043575	0.099947	1.082612
	O408	O	-0.221876	0.193554	-0.222284
	H409	H	-0.225875	0.181440	-0.192484
	H410	H	-0.213987	0.177004	-0.237557
	O411	O	0.989134	0.960697	1.206821
	H412	H	0.989041	0.964120	1.201451
	H413	H	0.994073	0.952916	1.199179
	O414	O	0.767593	0.015024	0.760688
	H415	H	0.781569	0.006519	0.759693
	H416	H	0.751460	0.018427	0.741685
	O417	O	0.418980	0.446989	0.244543
	H418	H	0.409761	0.448995	0.251960
	H419	H	0.416529	0.439360	0.245044
	O420	O	0.310402	0.460569	0.410519
	H421	H	0.303598	0.447317	0.405983
	H422	H	0.312708	0.445058	0.389370
	O423	O	0.193116	0.204489	1.007970
	H424	H	0.202746	0.218003	1.013198
	H425	H	0.197989	0.209587	1.016442
	O426	O	0.265990	0.264206	0.696450
	H427	H	0.298457	0.281348	0.691034
	H428	H	0.276847	0.282239	0.669542
	O429	O	0.922211	1.067672	1.139746
	H430	H	0.935348	1.062267	1.132338
	H431	H	0.920475	1.070104	1.140173
	O432	O	0.188991	0.780246	0.768530
	H433	H	0.219776	0.743988	0.739517
	H434	H	0.170947	0.771945	0.799396
	O435	O	0.952187	1.204940	1.132093
	H436	H	0.940887	1.217263	1.127762
	H437	H	0.950224	1.205285	1.139438
	O438	O	0.255125	-0.290977	0.445764
	H439	H	0.240652	-0.281184	0.458594
	H440	H	0.238425	-0.291727	0.448740
	O441	O	-0.334105	0.296373	-0.336137
	H442	H	-0.325268	0.291938	-0.322999
	H443	H	-0.346568	0.312061	-0.337808
	O444	O	0.254324	0.469489	0.697258
	H445	H	0.248076	0.463685	0.708858
	H446	H	0.265546	0.467237	0.717353
	O447	O	-0.530172	1.692103	0.442949
	H448	H	-0.533211	1.693175	0.458635
	H449	H	-0.543171	1.672141	0.452025
	O450	O	-0.491009	0.720029	1.450660
	H451	H	-0.514365	0.719141	1.446730
	H452	H	-0.499213	0.721917	1.448156
	O453	O	0.643704	0.307801	0.316215
	H454	H	0.646081	0.329636	0.321323
	H455	H	0.655236	0.293054	0.300025
	O456	O	0.696172	-0.294676	0.701591
	H457	H	0.732689	-0.263229	0.726651
	H458	H	0.701785	-0.292104	0.652601
	O459	O	0.953539	0.779396	-0.003568
	H460	H	0.939417	0.775597	0.002467
	H461	H	0.948541	0.774355	0.008510
	O462	O	0.508837	0.258348	0.257932
	H463	H	0.503352	0.245724	0.238895
	H464	H	0.530742	0.258758	0.257052
	O465	O	1.038823	0.216006	-0.070623
	H466	H	1.047090	0.216028	-0.085872
	H467	H	1.043494	0.203695	-0.074006
	O468	O	0.388298	0.441271	0.504869
	H469	H	0.398856	0.442870	0.495572
	H470	H	0.392369	0.440710	0.507506
	O471	O	0.792430	1.169595	0.951844
	H472	H	0.784008	1.180797	0.943744
	H473	H	0.799592	1.166891	0.958253
	O474	O	0.703240	0.507539	0.708251
	H475	H	0.721672	0.533927	0.720973
	H476	H	0.707335	0.532995	0.715504
	O477	O	1.199604	0.774754	0.943438
	H478	H	1.197996	0.770081	0.953101
	H479	H	1.212528	0.764960	0.941221
	O480	O	0.423982	0.244758	0.423104
	H481	H	0.440132	0.234458	0.424018
	H482	H	0.416716	0.242871	0.415943
	O483	O	0.465215	0.702229	0.258876
	H484	H	0.456847	0.692767	0.247993
	H485	H	0.447186	0.717152	0.245235
	O486	O	0.877714	0.198694	1.085834
	H487	H	0.903957	0.201511	1.057963
	H488	H	0.861946	0.205447	1.092516
	O489	O	1.071901	1.024344	-0.194336
	H490	H	1.082141	1.040149	-0.189852
	H491	H	1.090897	1.012134	-0.204842
	O492	O	-0.039633	-0.102638	-0.065672
	H493	H	-0.023784	-0.098876	-0.058000
	H494	H	-0.042135	-0.104253	-0.067213
	O495	O	0.191517	1.000108	1.185839
	H496	H	0.198335	0.996184	1.182755
	H497	H	0.194126	1.012915	1.195151
	O498	O	0.960818	1.206192	0.762994
	H499	H	0.942607	1.202832	0.757204
	H500	H	0.955039	1.217209	0.747401
	O501	O	0.624571	0.468243	0.487406
	H502	H	0.626212	0.458660	0.481566
	H503	H	0.636687	0.462413	0.493527
