data_Molecule from HDF5

_cell_length_a		16.265034
_cell_length_b		16.330155
_cell_length_c		16.356710
_cell_angle_alpha	90.273842
_cell_angle_beta	89.546765
_cell_angle_gamma	89.941788
_symmetry_space_group_name_H-M	'P 1'
_symmetry_Int_Tables_number		1

loop_
	_symmetry_equiv_pos_as_xyz
	x,y,z

loop_
	_atom_site_label
	_atom_site_type_symbol
	_atom_site_fract_x
	_atom_site_fract_y
	_atom_site_fract_z
	H0	H	0.401633	0.832340	0.710504
	H1	H	0.603102	0.156199	0.713469
	H2	H	0.606820	0.833808	0.275675
	H3	H	0.400796	0.157176	0.278508
	H4	H	0.721119	0.393725	0.833993
	H5	H	0.713902	0.595007	0.158455
	H6	H	0.286610	0.594142	0.832463
	H7	H	0.282957	0.394556	0.157766
	H8	H	0.839677	0.713771	0.398534
	H9	H	0.164830	0.715112	0.596352
	H10	H	0.839209	0.280796	0.597741
	H11	H	0.163427	0.279596	0.390789
	H12	H	0.839056	0.398316	0.712737
	H13	H	0.163951	0.601371	0.713814
	H14	H	0.838303	0.598063	0.281679
	H15	H	0.162716	0.394453	0.274600
	H16	H	0.401546	0.711440	0.832846
	H17	H	0.601456	0.713395	0.156265
	H18	H	0.605587	0.277208	0.833228
	H19	H	0.399859	0.277442	0.157259
	H20	H	0.721354	0.833520	0.393045
	H21	H	0.717670	0.157970	0.596469
	H22	H	0.285348	0.832670	0.595557
	H23	H	0.286510	0.158274	0.395875
	H24	H	0.898138	0.335379	0.214086
	H25	H	0.101458	0.658954	0.211591
	H26	H	0.103942	0.335538	0.773994
	H27	H	0.900166	0.659482	0.780542
	H28	H	0.220136	0.895949	0.333578
	H29	H	0.217651	0.097742	0.658066
	H30	H	0.785382	0.098902	0.333320
	H31	H	0.784804	0.898156	0.657263
	H32	H	0.339907	0.209628	0.896869
	H33	H	0.665889	0.211309	0.094772
	H34	H	0.339314	0.779861	0.095297
	H35	H	0.665391	0.777638	0.892339
	H36	H	0.340497	0.893915	0.214748
	H37	H	0.665837	0.095666	0.210144
	H38	H	0.339461	0.093067	0.781215
	H39	H	0.664908	0.891112	0.774617
	H40	H	0.900749	0.214863	0.333328
	H41	H	0.102507	0.216735	0.656374
	H42	H	0.107205	0.778170	0.334919
	H43	H	0.901332	0.783352	0.658141
	H44	H	0.217830	0.332799	0.892594
	H45	H	0.219311	0.657660	0.095506
	H46	H	0.784804	0.333358	0.096646
	H47	H	0.785256	0.658612	0.898558
	H48	H	0.409928	0.112571	0.593915
	H49	H	0.591252	0.880864	0.583433
	H50	H	0.590863	0.110781	0.400460
	H51	H	0.407135	0.882681	0.412935
	H52	H	0.598071	0.404932	0.111527
	H53	H	0.595566	0.583093	0.880554
	H54	H	0.406356	0.579376	0.109232
	H55	H	0.412398	0.411221	0.883581
	H56	H	0.114680	0.583539	0.408020
	H57	H	0.887062	0.590848	0.584743
	H58	H	0.113416	0.414503	0.579901
	H59	H	0.883305	0.403555	0.398904
	H60	H	0.119179	0.407540	0.591089
	H61	H	0.886656	0.587332	0.590318
	H62	H	0.118572	0.583782	0.396473
	H63	H	0.886616	0.401825	0.409775
	H64	H	0.418577	0.588306	0.106317
	H65	H	0.591514	0.587380	0.880088
	H66	H	0.587828	0.405102	0.108528
	H67	H	0.419641	0.395360	0.881567
	H68	H	0.592645	0.108819	0.406619
	H69	H	0.597236	0.879775	0.582636
	H70	H	0.415247	0.107756	0.587144
	H71	H	0.407984	0.876806	0.396829
	H72	H	0.909341	0.613039	0.096051
	H73	H	0.086546	0.383202	0.086896
	H74	H	0.094178	0.609247	0.911753
	H75	H	0.911561	0.379803	0.897638
	H76	H	0.097335	0.907589	0.610914
	H77	H	0.103058	0.098169	0.375143
	H78	H	0.912796	0.086061	0.607874
	H79	H	0.907389	0.896250	0.376454
	H80	H	0.618679	0.083006	0.900949
	H81	H	0.388479	0.085093	0.085066
	H82	H	0.615675	0.908363	0.081532
	H83	H	0.386237	0.900199	0.904925
	H84	H	0.619060	0.904131	0.088738
	H85	H	0.387291	0.083866	0.090122
	H86	H	0.619880	0.087799	0.901242
	H87	H	0.388454	0.905102	0.904796
	H88	H	0.911347	0.093659	0.610083
	H89	H	0.101121	0.074596	0.383924
	H90	H	0.090180	0.907733	0.609814
	H91	H	0.908310	0.913185	0.381697
	H92	H	0.099575	0.614018	0.901361
	H93	H	0.091272	0.383363	0.080960
	H94	H	0.913349	0.609046	0.085504
	H95	H	0.915849	0.383458	0.904652
	H96	H	0.406443	0.110321	0.585361
	H97	H	0.594432	0.878768	0.588319
	H98	H	0.597504	0.111342	0.402607
	H99	H	0.421902	0.883708	0.404009
	H100	H	0.591808	0.396447	0.112456
	H101	H	0.596860	0.588520	0.877868
	H102	H	0.406353	0.593738	0.112428
	H103	H	0.403101	0.398378	0.876500
	H104	H	0.118516	0.593851	0.403186
	H105	H	0.885286	0.593337	0.590981
	H106	H	0.117602	0.400626	0.579207
	H107	H	0.887977	0.412782	0.404861
	H108	H	0.901491	0.612790	0.086259
	H109	H	0.093693	0.379867	0.087299
	H110	H	0.087463	0.610154	0.900856
	H111	H	0.907501	0.381315	0.905926
	H112	H	0.093536	0.901803	0.611931
	H113	H	0.080907	0.089450	0.383809
	H114	H	0.905942	0.088386	0.610396
	H115	H	0.922400	0.902935	0.382728
	H116	H	0.617905	0.086114	0.905327
	H117	H	0.387028	0.089274	0.087970
	H118	H	0.618276	0.899680	0.080962
	H119	H	0.386259	0.902923	0.900257
	C120	C	0.380399	0.003164	0.617465
	C121	C	0.623490	0.986815	0.615617
	C122	C	0.625127	0.003826	0.372517
	C123	C	0.382003	0.987748	0.374292
	C124	C	0.623686	0.372465	0.003934
	C125	C	0.623120	0.616573	0.986755
	C126	C	0.381017	0.616371	0.002676
	C127	C	0.380047	0.371977	0.987390
	C128	C	0.009881	0.617667	0.374238
	C129	C	0.993634	0.620401	0.617902
	C130	C	0.009715	0.377548	0.614819
	C131	C	0.992613	0.375117	0.372764
	C132	C	0.878559	0.504601	0.118330
	C133	C	0.121741	0.488227	0.115791
	C134	C	0.123913	0.504458	0.872903
	C135	C	0.880641	0.488281	0.874318
	C136	C	0.124538	0.875235	0.504088
	C137	C	0.124102	0.118611	0.487431
	C138	C	0.880218	0.119517	0.502928
	C139	C	0.881739	0.875662	0.487410
	C140	C	0.511210	0.115107	0.873880
	C141	C	0.494674	0.116548	0.117007
	C142	C	0.510580	0.873952	0.115705
	C143	C	0.494317	0.872406	0.872404
	C144	C	0.381237	0.881087	0.672943
	C145	C	0.622642	0.108215	0.674027
	C146	C	0.625572	0.882108	0.315085
	C147	C	0.382053	0.109150	0.317457
	C148	C	0.681810	0.373986	0.882189
	C149	C	0.677770	0.615830	0.109116
	C150	C	0.324676	0.614697	0.880983
	C151	C	0.321853	0.373989	0.109079
	C152	C	0.887897	0.674937	0.377682
	C153	C	0.115958	0.676931	0.616487
	C154	C	0.887674	0.319951	0.616183
	C155	C	0.114776	0.318149	0.371491
	C156	C	0.887443	0.378218	0.673459
	C157	C	0.115657	0.620339	0.674793
	C158	C	0.887327	0.617805	0.319299
	C159	C	0.114390	0.375208	0.313724
	C160	C	0.381781	0.673144	0.881239
	C161	C	0.621544	0.674521	0.108153
	C162	C	0.624484	0.315881	0.881849
	C163	C	0.380197	0.315885	0.108957
	C164	C	0.682878	0.882111	0.372993
	C165	C	0.679329	0.109064	0.615459
	C166	C	0.323242	0.881438	0.615746
	C167	C	0.325220	0.109707	0.376066
	C168	C	0.879164	0.383181	0.174944
	C169	C	0.121403	0.610188	0.172965
	C170	C	0.123671	0.383349	0.813843
	C171	C	0.881028	0.610694	0.818939
	C172	C	0.182090	0.875748	0.382238
	C173	C	0.179931	0.118245	0.609344
	C174	C	0.823543	0.118373	0.381691
	C175	C	0.824203	0.878409	0.609066
	C176	C	0.388555	0.171197	0.876782
	C177	C	0.617113	0.172998	0.115008
	C178	C	0.387892	0.817970	0.115300
	C179	C	0.616648	0.815653	0.872725
	C180	C	0.388812	0.874746	0.174508
	C181	C	0.617102	0.115370	0.172172
	C182	C	0.388377	0.113402	0.819070
	C183	C	0.616381	0.872194	0.814037
	C184	C	0.881064	0.176226	0.381786
	C185	C	0.122540	0.177240	0.608356
	C186	C	0.125801	0.817182	0.382980
	C187	C	0.881775	0.820693	0.609401
	C188	C	0.180162	0.381952	0.872976
	C189	C	0.179630	0.609896	0.115000
	C190	C	0.822564	0.382416	0.116637
	C191	C	0.823746	0.610180	0.877420
	C192	C	0.403763	0.088164	0.595292
	C193	C	0.600768	0.901844	0.591807
	C194	C	0.600865	0.088371	0.396228
	C195	C	0.405529	0.902995	0.397645
	C196	C	0.599643	0.395271	0.088823
	C197	C	0.601033	0.593220	0.901812
	C198	C	0.403832	0.593683	0.087386
	C199	C	0.404388	0.394866	0.902504
	C200	C	0.095144	0.593912	0.396302
	C201	C	0.908580	0.597222	0.595325
	C202	C	0.094540	0.400879	0.590642
	C203	C	0.907850	0.399006	0.397370
	C204	C	0.901340	0.589601	0.095868
	C205	C	0.097644	0.403970	0.091922
	C206	C	0.100610	0.589106	0.897531
	C207	C	0.904493	0.403454	0.896150
	C208	C	0.100600	0.898813	0.588906
	C209	C	0.101634	0.094360	0.402968
	C210	C	0.903348	0.096206	0.587498
	C211	C	0.905781	0.897664	0.402359
	C212	C	0.596608	0.092223	0.896075
	C213	C	0.409622	0.092906	0.094254
	C214	C	0.595504	0.897155	0.090932
	C215	C	0.409048	0.895761	0.896382
	Zn216	Zn	0.502913	-0.006108	0.744822
	Zn217	Zn	0.503385	-0.004754	0.244874
	Zn218	Zn	0.750948	0.495277	-0.003890
	Zn219	Zn	0.252161	0.495123	-0.005366
	Zn220	Zn	0.003004	0.747052	0.495573
	Zn221	Zn	0.001597	0.247522	0.494238
	Zn222	Zn	0.002121	0.497847	0.744815
	Zn223	Zn	0.000649	0.496736	0.245504
	Zn224	Zn	0.502197	0.745090	-0.005431
	Zn225	Zn	0.503176	0.243743	-0.004708
	Zn226	Zn	0.752592	-0.003376	0.494643
	Zn227	Zn	0.252974	-0.003990	0.495561
	N228	N	0.416059	0.957672	0.674216
	N229	N	0.588506	0.031219	0.674167
	N230	N	0.590386	0.958753	0.314598
	N231	N	0.416918	0.032339	0.316645
	N232	N	0.681717	0.408379	0.959106
	N233	N	0.678918	0.580521	0.032657
	N234	N	0.323807	0.580316	0.957501
	N235	N	0.321599	0.408038	0.032266
	N236	N	0.965259	0.675027	0.411078
	N237	N	0.039159	0.677140	0.581949
	N238	N	0.964587	0.319417	0.580462
	N239	N	0.038224	0.318174	0.407631
	N240	N	0.964205	0.413342	0.672854
	N241	N	0.038648	0.585830	0.675748
	N242	N	0.964184	0.582794	0.317326
	N243	N	0.037408	0.409892	0.314532
	N244	N	0.416072	0.674304	0.957889
	N245	N	0.588401	0.675267	0.031018
	N246	N	0.589151	0.314674	0.958514
	N247	N	0.415348	0.314512	0.032190
	N248	N	0.682914	0.958873	0.407993
	N249	N	0.680103	0.032584	0.580046
	N250	N	0.322741	0.958419	0.581836
	N251	N	0.325107	0.033230	0.410922
	N252	N	0.913176	0.460129	0.176182
	N253	N	0.086026	0.533742	0.173293
	N254	N	0.089732	0.460421	0.813409
	N255	N	0.916001	0.533897	0.816969
	N256	N	0.181526	0.910920	0.458558
	N257	N	0.181317	0.082536	0.533021
	N258	N	0.822643	0.083961	0.458268
	N259	N	0.824141	0.911881	0.532054
	N260	N	0.465869	0.172315	0.909962
	N261	N	0.539814	0.173772	0.081401
	N262	N	0.464555	0.817308	0.079489
	N263	N	0.539749	0.815799	0.908422
	N264	N	0.466100	0.908708	0.174765
	N265	N	0.540013	0.080937	0.173631
	N266	N	0.465706	0.079144	0.817162
	N267	N	0.539238	0.906627	0.813796
	N268	N	0.915512	0.176895	0.458202
	N269	N	0.089103	0.177904	0.531522
	N270	N	0.090735	0.816635	0.459866
	N271	N	0.917036	0.818931	0.532736
	N272	N	0.180712	0.458376	0.908748
	N273	N	0.179992	0.533118	0.080144
	N274	N	0.822030	0.459008	0.081954
	N275	N	0.823486	0.533282	0.911267
	O276	O	0.116109	-0.023801	-0.123330
	H277	H	0.108997	-0.030783	-0.131680
	H278	H	0.115442	-0.020650	-0.111350
	O279	O	0.662257	0.494091	0.430785
	H280	H	0.653718	0.496166	0.423853
	H281	H	0.667498	0.498180	0.438107
	O282	O	1.071238	-0.098832	-0.144486
	H283	H	1.090636	-0.104780	-0.145062
	H284	H	1.065261	-0.103993	-0.154907
	O285	O	0.024096	0.950121	-0.011461
	H286	H	0.019471	0.941198	-0.005087
	H287	H	0.012647	0.966156	-0.008657
	O288	O	0.467846	0.522901	0.520738
	H289	H	0.464807	0.522906	0.521500
	H290	H	0.460859	0.524062	0.528277
	O291	O	0.441646	0.442670	0.469401
	H292	H	0.436832	0.438652	0.468341
	H293	H	0.444980	0.445639	0.471020
	O294	O	1.116308	0.969131	1.094201
	H295	H	1.109084	0.970631	1.097061
	H296	H	1.111170	0.976039	1.088703
	O297	O	0.051271	-0.176649	0.039692
	H298	H	0.051414	-0.157461	0.032113
	H299	H	0.046888	-0.191289	0.048691
	O300	O	0.441723	0.350374	0.614118
	H301	H	0.448621	0.344071	0.621270
	H302	H	0.454232	0.355675	0.613936
	O303	O	-0.026405	1.031755	0.967061
	H304	H	-0.033697	1.027838	0.959706
	H305	H	-0.041179	1.031348	0.970362
	O306	O	0.599140	0.530578	0.333791
	H307	H	0.591440	0.524918	0.333742
	H308	H	0.600517	0.538392	0.323811
	O309	O	1.002809	-0.016552	0.001428
	H310	H	0.994854	-0.010245	0.002718
	H311	H	1.008532	-0.030507	-0.000336
	O312	O	-0.087213	-0.162769	1.028426
	H313	H	-0.080420	-0.164087	1.024888
	H314	H	-0.085176	-0.166216	1.020189
	O315	O	0.392554	0.533076	0.574919
	H316	H	0.393202	0.531073	0.581501
	H317	H	0.395566	0.532764	0.581572
	O318	O	0.421499	0.450871	0.544166
	H319	H	0.426689	0.447567	0.539483
	H320	H	0.415131	0.445775	0.553195
	O321	O	0.446339	0.457052	0.571351
	H322	H	0.458509	0.462293	0.579199
	H323	H	0.439576	0.439252	0.571985
	O324	O	0.491119	0.466225	0.402238
	H325	H	0.490182	0.462325	0.396694
	H326	H	0.485501	0.467324	0.399996
	O327	O	0.007669	1.101956	1.049033
	H328	H	0.004259	1.090621	1.061382
	H329	H	0.008770	1.104128	1.069950
	O330	O	0.548807	0.478325	0.508508
	H331	H	0.559105	0.475152	0.499427
	H332	H	0.546809	0.470858	0.501968
	O333	O	-0.083186	0.962598	1.062681
	H334	H	-0.079650	0.948502	1.059143
	H335	H	-0.089430	0.957539	1.056587
	O336	O	1.045046	1.102219	1.118336
	H337	H	1.048115	1.086796	1.128122
	H338	H	1.041353	1.103759	1.117080
	O339	O	0.381734	0.448387	0.570945
	H340	H	0.387877	0.433934	0.567684
	H341	H	0.375514	0.448168	0.581838
	O342	O	1.051694	-0.079550	-0.026914
	H343	H	1.050873	-0.075622	-0.032088
	H344	H	1.049737	-0.076290	-0.012560
	O345	O	0.634490	0.358989	0.328956
	H346	H	0.608179	0.360498	0.319765
	H347	H	0.641946	0.375169	0.325763
	O348	O	1.002611	1.097110	1.064515
	H349	H	1.008435	1.105098	1.068396
	H350	H	0.991710	1.086016	1.074322
	O351	O	1.065891	1.116758	0.001308
	H352	H	1.079212	1.127311	-0.010072
	H353	H	1.062704	1.116200	0.022918
	O354	O	0.448486	0.368116	0.421223
	H355	H	0.449864	0.366296	0.417863
	H356	H	0.450620	0.362319	0.424253
	O357	O	0.574179	0.561063	0.520406
	H358	H	0.574954	0.557825	0.525773
	H359	H	0.570308	0.564533	0.521715
	O360	O	-0.143477	-0.054038	0.009636
	H361	H	-0.135130	-0.057951	0.000482
	H362	H	-0.136461	-0.033112	0.006595
	O363	O	0.557702	0.598323	0.600207
	H364	H	0.557503	0.594212	0.593930
	H365	H	0.548364	0.591912	0.601433
	O366	O	0.382313	0.361987	0.650395
	H367	H	0.395317	0.353099	0.638611
	H368	H	0.382462	0.353016	0.663638
	O369	O	0.492273	0.499081	0.531307
	H370	H	0.490813	0.506005	0.535540
	H371	H	0.486158	0.496676	0.517725
	O372	O	0.456517	0.608478	0.444527
	H373	H	0.449795	0.612069	0.452171
	H374	H	0.445575	0.612560	0.450052
	O375	O	0.509457	0.492615	0.489199
	H376	H	0.508222	0.489272	0.498496
	H377	H	0.507121	0.495016	0.482378
	O378	O	0.520228	0.545350	0.506843
	H379	H	0.525050	0.546769	0.519267
	H380	H	0.514375	0.542787	0.510740
	O381	O	-0.090435	1.057580	0.948278
	H382	H	-0.087074	1.053982	0.937688
	H383	H	-0.084797	1.066694	0.943541
	O384	O	0.037116	0.890423	-0.020508
	H385	H	0.037456	0.885622	-0.008830
	H386	H	0.032103	0.890694	-0.027844
	O387	O	0.947611	0.091834	0.847398
	H388	H	0.942196	0.089526	0.852803
	H389	H	0.946402	0.097924	0.854853
	O390	O	0.052982	1.019167	0.069446
	H391	H	0.059638	1.026038	0.069444
	H392	H	0.050404	1.006882	0.059524
	O393	O	1.023375	1.099477	0.037955
	H394	H	1.029397	1.111813	0.047013
	H395	H	1.037761	1.101734	0.032637
	O396	O	0.564795	0.624704	0.493488
	H397	H	0.572089	0.624339	0.486554
	H398	H	0.564249	0.630375	0.494055
	O399	O	-0.021607	1.045442	0.922948
	H400	H	-0.035766	1.057262	0.922171
	H401	H	-0.013958	1.044663	0.925107
	O402	O	0.917692	1.000738	1.016213
	H403	H	0.908722	0.995280	1.011865
	H404	H	0.929978	0.993830	1.003751
	O405	O	0.409266	0.568968	0.351462
	H406	H	0.402978	0.579252	0.351865
	H407	H	0.397721	0.567795	0.361897
