data_Molecule from HDF5

_cell_length_a		16.444225
_cell_length_b		16.417614
_cell_length_c		16.405383
_cell_angle_alpha	89.924940
_cell_angle_beta	89.857338
_cell_angle_gamma	89.927989
_symmetry_space_group_name_H-M	'P 1'
_symmetry_Int_Tables_number		1

loop_
	_symmetry_equiv_pos_as_xyz
	x,y,z

loop_
	_atom_site_label
	_atom_site_type_symbol
	_atom_site_fract_x
	_atom_site_fract_y
	_atom_site_fract_z
	H0	H	0.390641	0.841795	0.726699
	H1	H	0.601092	0.159484	0.725654
	H2	H	0.602850	0.841482	0.283920
	H3	H	0.392743	0.159535	0.284416
	H4	H	0.720168	0.393232	0.846675
	H5	H	0.716032	0.604616	0.162892
	H6	H	0.274719	0.608901	0.845781
	H7	H	0.275370	0.396449	0.162896
	H8	H	0.838721	0.723990	0.396830
	H9	H	0.155420	0.721572	0.609545
	H10	H	0.839284	0.278954	0.610683
	H11	H	0.155302	0.280585	0.398612
	H12	H	0.839931	0.392916	0.727808
	H13	H	0.154233	0.607061	0.726097
	H14	H	0.838019	0.607328	0.282320
	H15	H	0.155000	0.396933	0.283153
	H16	H	0.389270	0.724868	0.847098
	H17	H	0.599691	0.719767	0.164121
	H18	H	0.603393	0.278224	0.846378
	H19	H	0.391097	0.279591	0.164015
	H20	H	0.719740	0.842278	0.398912
	H21	H	0.718858	0.158560	0.610681
	H22	H	0.274278	0.841545	0.611406
	H23	H	0.274240	0.159102	0.397495
	H24	H	0.891978	0.342188	0.224844
	H25	H	0.098409	0.660371	0.223183
	H26	H	0.103642	0.341879	0.782695
	H27	H	0.891437	0.659519	0.781789
	H28	H	0.217984	0.896273	0.346021
	H29	H	0.218675	0.108061	0.662275
	H30	H	0.777712	0.103666	0.345118
	H31	H	0.773866	0.892397	0.663014
	H32	H	0.339337	0.223346	0.899016
	H33	H	0.654718	0.222593	0.111533
	H34	H	0.337814	0.780226	0.110379
	H35	H	0.653849	0.778242	0.898101
	H36	H	0.338108	0.895296	0.227499
	H37	H	0.655658	0.103083	0.224797
	H38	H	0.339318	0.109658	0.781575
	H39	H	0.653148	0.892604	0.780729
	H40	H	0.892329	0.221012	0.344992
	H41	H	0.102938	0.222952	0.662195
	H42	H	0.100330	0.780914	0.345738
	H43	H	0.890090	0.777174	0.663172
	H44	H	0.219792	0.342046	0.898211
	H45	H	0.215925	0.660389	0.108077
	H46	H	0.775275	0.341626	0.109847
	H47	H	0.774876	0.659285	0.898423
	H48	H	0.411327	0.112394	0.594059
	H49	H	0.581658	0.885596	0.602511
	H50	H	0.591291	0.115292	0.416065
	H51	H	0.407971	0.886798	0.415090
	H52	H	0.586766	0.411202	0.118544
	H53	H	0.581412	0.592535	0.891958
	H54	H	0.402572	0.593608	0.120781
	H55	H	0.408564	0.410511	0.891341
	H56	H	0.106141	0.578640	0.411774
	H57	H	0.883277	0.591272	0.590658
	H58	H	0.110073	0.411492	0.592095
	H59	H	0.882656	0.406692	0.418380
	H60	H	0.109842	0.411891	0.592630
	H61	H	0.886368	0.586107	0.589667
	H62	H	0.114830	0.596971	0.404152
	H63	H	0.885224	0.416153	0.416095
	H64	H	0.404849	0.585960	0.116685
	H65	H	0.589039	0.590540	0.888940
	H66	H	0.585063	0.412491	0.117461
	H67	H	0.408764	0.413401	0.891808
	H68	H	0.585271	0.114260	0.411547
	H69	H	0.579649	0.892367	0.585290
	H70	H	0.407467	0.111916	0.589493
	H71	H	0.409598	0.888601	0.418394
	H72	H	0.909840	0.613449	0.095666
	H73	H	0.078730	0.388009	0.099444
	H74	H	0.092077	0.616507	0.912376
	H75	H	0.910352	0.389337	0.917723
	H76	H	0.080224	0.910471	0.616898
	H77	H	0.090456	0.091972	0.388407
	H78	H	0.903786	0.085592	0.618426
	H79	H	0.896525	0.916981	0.389918
	H80	H	0.606573	0.090246	0.924867
	H81	H	0.386944	0.087065	0.089286
	H82	H	0.609000	0.904921	0.086468
	H83	H	0.380176	0.913304	0.907895
	H84	H	0.607779	0.918804	0.095317
	H85	H	0.383258	0.086078	0.099301
	H86	H	0.606545	0.079713	0.913167
	H87	H	0.382534	0.904199	0.925077
	H88	H	0.914328	0.088622	0.614814
	H89	H	0.087113	0.085225	0.392513
	H90	H	0.088290	0.906125	0.620771
	H91	H	0.918158	0.920117	0.398607
	H92	H	0.079680	0.613128	0.910464
	H93	H	0.087555	0.389956	0.084548
	H94	H	0.906461	0.612796	0.089006
	H95	H	0.906892	0.388304	0.916619
	H96	H	0.404961	0.114263	0.595172
	H97	H	0.595511	0.884880	0.590131
	H98	H	0.584815	0.111952	0.419018
	H99	H	0.405182	0.887606	0.418161
	H100	H	0.585015	0.410369	0.117989
	H101	H	0.583817	0.585091	0.892606
	H102	H	0.410888	0.592447	0.117096
	H103	H	0.410885	0.411643	0.892563
	H104	H	0.107978	0.596131	0.424769
	H105	H	0.883900	0.586590	0.594917
	H106	H	0.110464	0.411668	0.592347
	H107	H	0.880328	0.410956	0.409625
	H108	H	0.903029	0.615899	0.094738
	H109	H	0.095429	0.383414	0.098695
	H110	H	0.085284	0.611349	0.922259
	H111	H	0.910216	0.388132	0.913875
	H112	H	0.088317	0.915687	0.618139
	H113	H	0.082625	0.091962	0.391741
	H114	H	0.907508	0.096125	0.619904
	H115	H	0.912455	0.899281	0.388540
	H116	H	0.613180	0.094061	0.910586
	H117	H	0.381735	0.095212	0.094239
	H118	H	0.614305	0.905535	0.102378
	H119	H	0.389538	0.922520	0.922334
	C120	C	0.374726	0.008416	0.626194
	C121	C	0.618155	0.992076	0.625751
	C122	C	0.618909	0.008835	0.383569
	C123	C	0.375494	0.992297	0.384058
	C124	C	0.618794	0.378255	0.013435
	C125	C	0.616897	0.621504	0.996065
	C126	C	0.374132	0.623224	0.013352
	C127	C	0.376267	0.379615	0.996439
	C128	C	0.004777	0.623112	0.381685
	C129	C	0.988549	0.621272	0.624799
	C130	C	0.005936	0.378586	0.625742
	C131	C	0.987756	0.379811	0.382683
	C132	C	0.874593	0.509315	0.125612
	C133	C	0.117732	0.492396	0.125121
	C134	C	0.118564	0.508967	0.882624
	C135	C	0.876216	0.492847	0.883260
	C136	C	0.117892	0.879209	0.513546
	C137	C	0.118777	0.122479	0.495532
	C138	C	0.876082	0.122098	0.512804
	C139	C	0.875703	0.878539	0.496821
	C140	C	0.504993	0.121870	0.883486
	C141	C	0.488655	0.121598	0.126448
	C142	C	0.505378	0.878310	0.127526
	C143	C	0.487642	0.879088	0.884055
	C144	C	0.372067	0.889388	0.687032
	C145	C	0.620000	0.111311	0.686030
	C146	C	0.620933	0.889206	0.323800
	C147	C	0.373896	0.111807	0.323945
	C148	C	0.679975	0.375285	0.894125
	C149	C	0.676356	0.622958	0.115587
	C150	C	0.314676	0.626090	0.893647
	C151	C	0.315710	0.377821	0.115628
	C152	C	0.886134	0.683700	0.379346
	C153	C	0.107672	0.681462	0.627402
	C154	C	0.886925	0.318630	0.628484
	C155	C	0.107590	0.320512	0.380322
	C156	C	0.887268	0.375360	0.687060
	C157	C	0.107302	0.624412	0.685546
	C158	C	0.885672	0.625562	0.322133
	C159	C	0.107535	0.378678	0.323177
	C160	C	0.371388	0.684362	0.894392
	C161	C	0.618480	0.680439	0.115954
	C162	C	0.621864	0.317903	0.894237
	C163	C	0.373162	0.319480	0.115986
	C164	C	0.679235	0.889466	0.381138
	C165	C	0.678545	0.111116	0.628603
	C166	C	0.313854	0.889663	0.629586
	C167	C	0.314846	0.111385	0.380354
	C168	C	0.873275	0.389617	0.185517
	C169	C	0.117966	0.612456	0.183931
	C170	C	0.121224	0.389564	0.822718
	C171	C	0.872977	0.611816	0.821942
	C172	C	0.178212	0.877413	0.393868
	C173	C	0.178477	0.125689	0.614582
	C174	C	0.816929	0.122721	0.392993
	C175	C	0.814554	0.875044	0.615719
	C176	C	0.386548	0.183120	0.880885
	C177	C	0.607581	0.181738	0.128931
	C178	C	0.385525	0.819572	0.129066
	C179	C	0.606439	0.818236	0.880547
	C180	C	0.385729	0.876905	0.187373
	C181	C	0.608224	0.122568	0.185588
	C182	C	0.386719	0.126341	0.822253
	C183	C	0.606166	0.875218	0.822083
	C184	C	0.874025	0.181095	0.392981
	C185	C	0.120581	0.182917	0.614617
	C186	C	0.119641	0.820352	0.393474
	C187	C	0.872103	0.817173	0.615629
	C188	C	0.179119	0.389674	0.880489
	C189	C	0.176766	0.612186	0.126966
	C190	C	0.814928	0.389665	0.128376
	C191	C	0.815108	0.611837	0.880281
	C192	C	0.400469	0.091336	0.600457
	C193	C	0.592874	0.909093	0.600037
	C194	C	0.594253	0.091964	0.408349
	C195	C	0.400420	0.909279	0.409733
	C196	C	0.592973	0.403787	0.096365
	C197	C	0.591839	0.596583	0.912877
	C198	C	0.398970	0.597868	0.096476
	C199	C	0.402084	0.404571	0.913356
	C200	C	0.087776	0.597736	0.406285
	C201	C	0.906008	0.595285	0.599109
	C202	C	0.088623	0.404317	0.599911
	C203	C	0.904577	0.404098	0.407526
	C204	C	0.899025	0.592344	0.100347
	C205	C	0.094029	0.408786	0.101069
	C206	C	0.093120	0.592086	0.907800
	C207	C	0.901755	0.410062	0.908803
	C208	C	0.092827	0.903782	0.596859
	C209	C	0.093630	0.097001	0.412435
	C210	C	0.901172	0.097217	0.596023
	C211	C	0.901881	0.904525	0.413918
	C212	C	0.587335	0.095657	0.909066
	C213	C	0.405644	0.096643	0.101420
	C214	C	0.588454	0.902690	0.102088
	C215	C	0.405695	0.905741	0.910776
	Zn216	Zn	0.496261	0.000190	0.755179
	Zn217	Zn	0.497059	0.000654	0.255457
	Zn218	Zn	0.746021	0.500728	0.004329
	Zn219	Zn	0.247110	0.500947	0.003761
	Zn220	Zn	-0.003093	0.750371	0.504433
	Zn221	Zn	-0.002998	0.250812	0.503646
	Zn222	Zn	-0.002519	0.500504	0.753763
	Zn223	Zn	-0.003961	0.501198	0.253989
	Zn224	Zn	0.496061	0.750171	0.004877
	Zn225	Zn	0.496931	0.250269	0.004839
	Zn226	Zn	0.748006	0.000057	0.504876
	Zn227	Zn	0.246437	0.000863	0.505029
	N228	N	0.408944	0.964476	0.685432
	N229	N	0.583166	0.036118	0.684583
	N230	N	0.584048	0.964282	0.325227
	N231	N	0.410888	0.036689	0.326067
	N232	N	0.678218	0.412252	0.969386
	N233	N	0.675478	0.586925	0.039995
	N234	N	0.316340	0.588685	0.968666
	N235	N	0.317507	0.414475	0.040429
	N236	N	0.961249	0.682125	0.415867
	N237	N	0.032745	0.679640	0.590395
	N238	N	0.961833	0.320364	0.591232
	N239	N	0.032188	0.320976	0.416696
	N240	N	0.962294	0.412194	0.685291
	N241	N	0.032349	0.587598	0.684021
	N242	N	0.960580	0.588440	0.323381
	N243	N	0.032023	0.414618	0.324187
	N244	N	0.407606	0.682947	0.969800
	N245	N	0.582373	0.679631	0.040527
	N246	N	0.584982	0.319461	0.969391
	N247	N	0.410194	0.320563	0.040689
	N248	N	0.678226	0.964745	0.417573
	N249	N	0.677654	0.035779	0.592149
	N250	N	0.315521	0.964850	0.592561
	N251	N	0.315703	0.036052	0.417148
	N252	N	0.909493	0.465091	0.184159
	N253	N	0.082242	0.536803	0.183138
	N254	N	0.084396	0.464855	0.823866
	N255	N	0.910216	0.536864	0.823621
	N256	N	0.177490	0.913225	0.469639
	N257	N	0.177527	0.088864	0.539467
	N258	N	0.818326	0.086553	0.468503
	N259	N	0.816515	0.912282	0.540742
	N260	N	0.461178	0.180561	0.918148
	N261	N	0.532105	0.181280	0.092983
	N262	N	0.460734	0.820364	0.092521
	N263	N	0.531765	0.820559	0.918333
	N264	N	0.461312	0.912580	0.186756
	N265	N	0.533268	0.085857	0.183897
	N266	N	0.461416	0.088787	0.823697
	N267	N	0.531451	0.912577	0.824217
	N268	N	0.910140	0.180800	0.468430
	N269	N	0.084262	0.181163	0.539296
	N270	N	0.083337	0.821095	0.468973
	N271	N	0.909343	0.819279	0.540433
	N272	N	0.177721	0.464983	0.916771
	N273	N	0.177097	0.536447	0.091322
	N274	N	0.815567	0.464904	0.091851
	N275	N	0.816791	0.536648	0.917432
	O276	O	0.519264	0.328210	0.539914
	H277	H	0.520523	0.326533	0.546801
	H278	H	0.521302	0.323052	0.538796
	O279	O	0.652833	0.372120	0.377731
	H280	H	0.655825	0.376582	0.401253
	H281	H	0.660695	0.361517	0.370600
	O282	O	0.438513	0.398374	0.545410
	H283	H	0.444933	0.402719	0.540830
	H284	H	0.452655	0.422439	0.561247
	O285	O	0.997052	1.141765	-0.003902
	H286	H	1.009559	1.136460	-0.007326
	H287	H	0.996345	1.137708	-0.018272
	O288	O	0.530053	0.451980	0.636477
	H289	H	0.513147	0.470854	0.646239
	H290	H	0.545840	0.449539	0.641916
	O291	O	0.446318	0.536154	0.670310
	H292	H	0.429745	0.530843	0.672719
	H293	H	0.431783	0.540716	0.672006
	O294	O	1.176783	0.809888	0.925111
	H295	H	1.153834	0.814649	0.935041
	H296	H	1.190005	0.797048	0.952146
	O297	O	0.667444	0.695210	0.551979
	H298	H	0.668628	0.711965	0.544524
	H299	H	0.671868	0.672491	0.536176
	O300	O	0.530323	0.494561	0.443629
	H301	H	0.525219	0.503744	0.445871
	H302	H	0.535136	0.505689	0.453905
	O303	O	0.447384	0.316040	0.387939
	H304	H	0.443414	0.323178	0.396042
	H305	H	0.456860	0.302926	0.373777
	O306	O	0.422660	-0.305624	1.335437
	H307	H	0.407513	-0.337856	1.323141
	H308	H	0.440927	-0.289542	1.323219
	O309	O	1.183439	0.178101	0.000338
	H310	H	1.192852	0.172332	-0.018362
	H311	H	1.178908	0.175727	-0.015017
	O312	O	0.285623	0.549923	0.532299
	H313	H	0.277333	0.568652	0.543689
	H314	H	0.285737	0.562984	0.531847
	O315	O	-0.066051	-0.118323	0.882671
	H316	H	-0.067388	-0.123182	0.887218
	H317	H	-0.073838	-0.114927	0.894210
	O318	O	-0.041098	-0.037470	0.217112
	H319	H	-0.063381	-0.042389	0.222649
	H320	H	-0.050570	-0.052794	0.213880
	O321	O	0.836875	-0.026101	-0.064758
	H322	H	0.829996	-0.016385	-0.070100
	H323	H	0.842653	-0.006429	-0.064318
	O324	O	1.039628	-0.121360	1.195547
	H325	H	1.031899	-0.118485	1.203595
	H326	H	1.017691	-0.123357	1.201441
	O327	O	0.686750	0.455451	0.464005
	H328	H	0.679002	0.450773	0.462108
	H329	H	0.678267	0.449252	0.466469
	O330	O	-0.189641	0.806556	1.086970
	H331	H	-0.197116	0.824915	1.066972
	H332	H	-0.207770	0.803694	1.075384
	O333	O	-0.019205	1.041717	0.109109
	H334	H	-0.019347	1.043125	0.091056
	H335	H	-0.016247	1.053905	0.121423
	O336	O	1.049392	1.051607	0.059104
	H337	H	1.058116	1.061982	0.050098
	H338	H	1.040042	1.064026	0.078075
	O339	O	0.187881	0.930263	1.096608
	H340	H	0.205276	0.937588	1.091391
	H341	H	0.183667	0.940943	1.105365
	O342	O	0.620280	0.631822	0.417242
	H343	H	0.602514	0.626893	0.436537
	H344	H	0.631671	0.628513	0.417096
	O345	O	0.162797	0.083163	1.163149
	H346	H	0.149238	0.079853	1.167373
	H347	H	0.166401	0.098760	1.152471
	O348	O	0.632494	0.675796	0.663517
	H349	H	0.598389	0.685151	0.658792
	H350	H	0.636873	0.682450	0.627726
	O351	O	1.095599	0.812605	-0.159418
	H352	H	1.084677	0.820748	-0.142374
	H353	H	1.075018	0.802917	-0.143554
	O354	O	1.124214	1.188505	1.074205
	H355	H	1.131170	1.182715	1.073177
	H356	H	1.139202	1.183270	1.039259
	O357	O	-0.220235	0.034442	-0.200962
	H358	H	-0.255703	0.042537	-0.233649
	H359	H	-0.207994	0.080722	-0.193541
	O360	O	0.712637	0.538936	0.718516
	H361	H	0.745023	0.545755	0.754200
	H362	H	0.694964	0.581133	0.705710
	O363	O	1.289727	0.707922	0.465623
	H364	H	1.299823	0.709722	0.434934
	H365	H	1.267537	0.732379	0.460169
	O366	O	0.212272	-0.033431	0.787390
	H367	H	0.224245	-0.061103	0.778678
	H368	H	0.220513	-0.051728	0.778338
	O369	O	0.347160	0.330027	0.466573
	H370	H	0.342175	0.326876	0.465503
	H371	H	0.353544	0.342307	0.459871
	O372	O	0.702768	0.435911	0.311385
	H373	H	0.723560	0.429047	0.304404
	H374	H	0.704931	0.410250	0.313091
	O375	O	0.108298	-0.036685	0.961597
	H376	H	0.101011	-0.038947	0.955384
	H377	H	0.112504	-0.050314	0.952989
	O378	O	-0.199825	-0.041742	0.069857
	H379	H	-0.210724	-0.036511	0.059819
	H380	H	-0.200451	-0.045435	0.075722
	O381	O	-0.008159	1.033581	-0.060407
	H382	H	-0.004092	1.020564	-0.069891
	H383	H	-0.014692	1.020899	-0.064143
	O384	O	0.004784	0.831078	1.003969
	H385	H	0.017900	0.838706	1.011515
	H386	H	-0.001382	0.836288	1.011002
	O387	O	0.516752	0.364474	0.308130
	H388	H	0.513748	0.353435	0.306339
	H389	H	0.534845	0.364725	0.319595
	O390	O	1.084169	1.095477	-0.006991
	H391	H	1.079122	1.102998	-0.005621
	H392	H	1.094366	1.091954	-0.003727
	O393	O	0.540591	0.679645	0.366138
	H394	H	0.542886	0.676106	0.380913
	H395	H	0.531762	0.693129	0.348552
	O396	O	0.810904	-0.100902	0.186564
	H397	H	0.813826	-0.109717	0.178955
	H398	H	0.817485	-0.109715	0.163949
	O399	O	0.504884	0.424009	0.384453
	H400	H	0.506658	0.419635	0.369766
	H401	H	0.494868	0.436974	0.394011
	O402	O	0.963714	1.152008	0.179091
	H403	H	0.982648	1.167751	0.180648
	H404	H	0.972052	1.155419	0.195290
	O405	O	0.459409	0.289818	0.658817
	H406	H	0.481713	0.291028	0.667993
	H407	H	0.474849	0.285469	0.661141
	O408	O	0.701611	0.406981	0.594136
	H409	H	0.695152	0.436182	0.594819
	H410	H	0.703478	0.426572	0.600822
	O411	O	0.863981	1.171804	0.822226
	H412	H	0.857602	1.171836	0.860199
	H413	H	0.901399	1.180444	0.810909
	O414	O	0.304858	0.315241	0.647629
	H415	H	0.352895	0.304572	0.652349
	H416	H	0.293839	0.295855	0.611739
	O417	O	-0.211368	1.209154	0.942570
	H418	H	-0.215469	1.226572	0.948915
	H419	H	-0.208605	1.222626	0.952089
	O420	O	-0.012831	1.153262	0.848478
	H421	H	-0.008937	1.141731	0.841946
	H422	H	-0.017837	1.153097	0.841627
	O423	O	-0.042709	0.852339	-0.152947
	H424	H	-0.053159	0.833127	-0.153982
	H425	H	-0.054568	0.859572	-0.157665
	O426	O	0.495852	0.662699	0.706421
	H427	H	0.467803	0.651579	0.688836
	H428	H	0.490269	0.678968	0.728737
	O429	O	0.287521	0.471080	0.676033
	H430	H	0.291145	0.441158	0.655877
	H431	H	0.258249	0.453677	0.697868
	O432	O	0.383489	0.521396	0.387328
	H433	H	0.375555	0.519944	0.379838
	H434	H	0.372890	0.522669	0.400591
	O435	O	0.057672	0.025630	0.119327
	H436	H	0.048210	0.033382	0.126293
	H437	H	0.063413	0.033020	0.112125
	O438	O	0.310856	0.628729	0.299527
	H439	H	0.318389	0.596671	0.289613
	H440	H	0.290415	0.635848	0.277217
	O441	O	0.487228	0.706096	0.559994
	H442	H	0.496924	0.712457	0.543201
	H443	H	0.464636	0.699383	0.560254
