data_Molecule from HDF5

_cell_length_a		16.369365
_cell_length_b		16.248363
_cell_length_c		16.290752
_cell_angle_alpha	90.086695
_cell_angle_beta	89.923060
_cell_angle_gamma	90.099475
_symmetry_space_group_name_H-M	'P 1'
_symmetry_Int_Tables_number		1

loop_
	_symmetry_equiv_pos_as_xyz
	x,y,z

loop_
	_atom_site_label
	_atom_site_type_symbol
	_atom_site_fract_x
	_atom_site_fract_y
	_atom_site_fract_z
	H0	H	0.404948	0.836694	0.713496
	H1	H	0.602976	0.164505	0.714894
	H2	H	0.602612	0.837228	0.284237
	H3	H	0.406286	0.164239	0.286756
	H4	H	0.720441	0.400242	0.837921
	H5	H	0.719524	0.601363	0.163834
	H6	H	0.288680	0.599406	0.837529
	H7	H	0.287294	0.399621	0.163047
	H8	H	0.840990	0.714613	0.402083
	H9	H	0.166947	0.715872	0.598473
	H10	H	0.841583	0.285644	0.598421
	H11	H	0.167244	0.285635	0.401039
	H12	H	0.842031	0.400566	0.715550
	H13	H	0.166906	0.599963	0.715192
	H14	H	0.841003	0.598823	0.284853
	H15	H	0.166528	0.401002	0.283814
	H16	H	0.406402	0.713122	0.836611
	H17	H	0.601972	0.716350	0.164281
	H18	H	0.601444	0.286607	0.836277
	H19	H	0.404394	0.285304	0.163053
	H20	H	0.718785	0.836950	0.400120
	H21	H	0.719259	0.164467	0.599550
	H22	H	0.288312	0.837413	0.598753
	H23	H	0.290704	0.164371	0.401903
	H24	H	0.905498	0.336202	0.214025
	H25	H	0.101808	0.663870	0.214041
	H26	H	0.101943	0.335492	0.786569
	H27	H	0.907019	0.664693	0.785731
	H28	H	0.219892	0.900726	0.337182
	H29	H	0.220317	0.101099	0.663519
	H30	H	0.789084	0.100874	0.336713
	H31	H	0.787451	0.900731	0.662846
	H32	H	0.340968	0.215769	0.900752
	H33	H	0.666010	0.216448	0.098733
	H34	H	0.340529	0.786073	0.096633
	H35	H	0.666546	0.784882	0.900746
	H36	H	0.341124	0.900009	0.215860
	H37	H	0.665393	0.102119	0.216061
	H38	H	0.341536	0.098788	0.784472
	H39	H	0.666940	0.901265	0.784435
	H40	H	0.907610	0.213778	0.336090
	H41	H	0.101694	0.214943	0.664009
	H42	H	0.102589	0.786386	0.336270
	H43	H	0.905511	0.786385	0.663535
	H44	H	0.218983	0.337199	0.900698
	H45	H	0.218961	0.663431	0.100111
	H46	H	0.787444	0.337110	0.100585
	H47	H	0.789471	0.664393	0.901087
	H48	H	0.411116	0.119991	0.601621
	H49	H	0.600091	0.882709	0.594638
	H50	H	0.601975	0.118170	0.407792
	H51	H	0.415505	0.887217	0.416181
	H52	H	0.587468	0.407283	0.114728
	H53	H	0.590547	0.586425	0.888539
	H54	H	0.410341	0.598411	0.117623
	H55	H	0.410525	0.401056	0.881589
	H56	H	0.119387	0.595666	0.408120
	H57	H	0.886426	0.600585	0.593856
	H58	H	0.121264	0.407632	0.595742
	H59	H	0.890359	0.415603	0.402466
	H60	H	0.120725	0.405111	0.592339
	H61	H	0.892325	0.589389	0.585838
	H62	H	0.118882	0.591516	0.408140
	H63	H	0.884885	0.399669	0.401262
	H64	H	0.404990	0.589885	0.117257
	H65	H	0.595253	0.601871	0.882538
	H66	H	0.599961	0.402756	0.119337
	H67	H	0.403873	0.412364	0.883024
	H68	H	0.595234	0.117839	0.403654
	H69	H	0.593044	0.885075	0.592433
	H70	H	0.419174	0.113753	0.588824
	H71	H	0.401456	0.880667	0.407213
	H72	H	0.913727	0.617060	0.098755
	H73	H	0.101272	0.382535	0.090158
	H74	H	0.092068	0.617619	0.899817
	H75	H	0.912473	0.385108	0.907251
	H76	H	0.095720	0.905458	0.616478
	H77	H	0.099400	0.097836	0.381752
	H78	H	0.914945	0.099854	0.616921
	H79	H	0.904648	0.905028	0.380478
	H80	H	0.620729	0.094574	0.904175
	H81	H	0.388237	0.087886	0.097153
	H82	H	0.618219	0.909194	0.091458
	H83	H	0.386372	0.894583	0.911336
	H84	H	0.618958	0.908898	0.092563
	H85	H	0.385848	0.098110	0.094393
	H86	H	0.619277	0.096083	0.910646
	H87	H	0.393809	0.916701	0.913235
	H88	H	0.903374	0.092226	0.618534
	H89	H	0.101643	0.089192	0.384051
	H90	H	0.100492	0.909763	0.616620
	H91	H	0.911566	0.916034	0.386192
	H92	H	0.093955	0.613801	0.915052
	H93	H	0.095535	0.381957	0.096151
	H94	H	0.915068	0.613736	0.087701
	H95	H	0.910269	0.384780	0.908890
	H96	H	0.403850	0.117733	0.587767
	H97	H	0.599085	0.884750	0.587688
	H98	H	0.595332	0.115330	0.411269
	H99	H	0.416514	0.882961	0.398914
	H100	H	0.598315	0.416177	0.115067
	H101	H	0.607196	0.588689	0.883274
	H102	H	0.414725	0.589957	0.115154
	H103	H	0.416263	0.411650	0.887276
	H104	H	0.120295	0.593120	0.404171
	H105	H	0.888651	0.587419	0.600720
	H106	H	0.119975	0.409006	0.592131
	H107	H	0.890858	0.405483	0.415941
	H108	H	0.904773	0.618471	0.090296
	H109	H	0.093284	0.385593	0.089098
	H110	H	0.105299	0.619793	0.906989
	H111	H	0.910188	0.383134	0.906267
	H112	H	0.094818	0.911793	0.615385
	H113	H	0.092801	0.092285	0.385830
	H114	H	0.915518	0.085919	0.613009
	H115	H	0.918005	0.903022	0.384751
	H116	H	0.617559	0.089752	0.907541
	H117	H	0.390300	0.091596	0.087481
	H118	H	0.618821	0.907901	0.092004
	H119	H	0.385239	0.909244	0.892945
	C120	C	0.382970	0.008613	0.621012
	C121	C	0.625925	0.992519	0.620939
	C122	C	0.625866	0.008897	0.378177
	C123	C	0.382920	0.992018	0.379021
	C124	C	0.624674	0.379446	0.008757
	C125	C	0.625895	0.622270	0.992614
	C126	C	0.381945	0.621330	0.008777
	C127	C	0.381389	0.378772	0.991464
	C128	C	0.012037	0.621948	0.378146
	C129	C	0.996536	0.622077	0.621995
	C130	C	0.012724	0.378630	0.621828
	C131	C	0.996222	0.378517	0.378073
	C132	C	0.882253	0.508310	0.121390
	C133	C	0.125367	0.491332	0.121204
	C134	C	0.125560	0.508726	0.878550
	C135	C	0.882719	0.492495	0.878697
	C136	C	0.125293	0.879972	0.508162
	C137	C	0.126549	0.122444	0.491913
	C138	C	0.883033	0.121711	0.508245
	C139	C	0.882247	0.878887	0.491613
	C140	C	0.512262	0.122160	0.878147
	C141	C	0.495129	0.122371	0.121826
	C142	C	0.511573	0.879010	0.121093
	C143	C	0.495678	0.877838	0.877324
	C144	C	0.384604	0.885680	0.676059
	C145	C	0.623438	0.115569	0.676820
	C146	C	0.623073	0.885965	0.322601
	C147	C	0.385691	0.115399	0.324353
	C148	C	0.681666	0.380338	0.886300
	C149	C	0.681293	0.621484	0.115212
	C150	C	0.326738	0.619529	0.886180
	C151	C	0.325408	0.379951	0.114255
	C152	C	0.889708	0.677282	0.380525
	C153	C	0.118396	0.678065	0.619336
	C154	C	0.890208	0.323463	0.619272
	C155	C	0.118550	0.323243	0.380474
	C156	C	0.890445	0.380884	0.677256
	C157	C	0.118516	0.620233	0.677223
	C158	C	0.889782	0.619359	0.322496
	C159	C	0.118281	0.380781	0.322444
	C160	C	0.385470	0.675752	0.885630
	C161	C	0.622623	0.678222	0.115419
	C162	C	0.622580	0.324085	0.885442
	C163	C	0.383825	0.323259	0.114398
	C164	C	0.681003	0.885911	0.379944
	C165	C	0.681013	0.115693	0.619262
	C166	C	0.326549	0.886090	0.619016
	C167	C	0.327946	0.115237	0.381260
	C168	C	0.884962	0.385092	0.176246
	C169	C	0.122570	0.614934	0.176318
	C170	C	0.122429	0.384879	0.824083
	C171	C	0.885676	0.615574	0.823408
	C172	C	0.181133	0.881144	0.385474
	C173	C	0.181951	0.120852	0.614827
	C174	C	0.827169	0.120686	0.385562
	C175	C	0.826426	0.880864	0.614433
	C176	C	0.389612	0.177582	0.880349
	C177	C	0.617320	0.178230	0.118978
	C178	C	0.389112	0.823613	0.118296
	C179	C	0.617937	0.822629	0.879763
	C180	C	0.389562	0.880263	0.177290
	C181	C	0.617068	0.121405	0.177660
	C182	C	0.389806	0.119471	0.822726
	C183	C	0.618113	0.880550	0.822093
	C184	C	0.886300	0.176574	0.385077
	C185	C	0.123179	0.177434	0.615015
	C186	C	0.122745	0.824241	0.385140
	C187	C	0.884544	0.823721	0.614638
	C188	C	0.180862	0.385584	0.880477
	C189	C	0.181026	0.614518	0.119896
	C190	C	0.825991	0.385659	0.120176
	C191	C	0.827698	0.615592	0.881064
	C192	C	0.405150	0.094992	0.599193
	C193	C	0.603812	0.906336	0.598272
	C194	C	0.604020	0.094977	0.401013
	C195	C	0.404663	0.905997	0.401014
	C196	C	0.601904	0.402041	0.094012
	C197	C	0.604074	0.599205	0.906930
	C198	C	0.403755	0.599168	0.094672
	C199	C	0.403831	0.401486	0.905994
	C200	C	0.097398	0.599906	0.400396
	C201	C	0.910988	0.599137	0.599869
	C202	C	0.098421	0.400698	0.599835
	C203	C	0.910818	0.400349	0.400179
	C204	C	0.904486	0.594297	0.098617
	C205	C	0.103122	0.405488	0.098589
	C206	C	0.103578	0.594787	0.900832
	C207	C	0.904369	0.406463	0.901067
	C208	C	0.103238	0.902396	0.593960
	C209	C	0.104588	0.099767	0.406071
	C210	C	0.904904	0.099351	0.593957
	C211	C	0.904772	0.901285	0.406058
	C212	C	0.597112	0.099995	0.900690
	C213	C	0.410037	0.099232	0.099714
	C214	C	0.596619	0.901928	0.098668
	C215	C	0.410630	0.900141	0.899499
	Zn216	Zn	0.504241	0.000019	0.749134
	Zn217	Zn	0.503728	0.000726	0.250997
	Zn218	Zn	0.754042	0.500571	0.001073
	Zn219	Zn	0.253329	0.500151	0.000086
	Zn220	Zn	0.004172	0.750970	0.500206
	Zn221	Zn	0.004364	0.250398	0.499746
	Zn222	Zn	0.004928	0.499888	0.750502
	Zn223	Zn	0.004083	0.500048	0.248876
	Zn224	Zn	0.503452	0.749416	-0.000061
	Zn225	Zn	0.503288	0.251062	-0.000118
	Zn226	Zn	0.754224	0.000876	0.499780
	Zn227	Zn	0.254634	0.000991	0.499626
	N228	N	0.419022	0.962937	0.677187
	N229	N	0.589763	0.037795	0.677956
	N230	N	0.589640	0.963475	0.321408
	N231	N	0.419178	0.037664	0.322775
	N232	N	0.683048	0.414192	0.963760
	N233	N	0.683396	0.587476	0.037876
	N234	N	0.324459	0.586515	0.963839
	N235	N	0.323701	0.413754	0.036771
	N236	N	0.966505	0.678819	0.414526
	N237	N	0.041341	0.679286	0.585676
	N238	N	0.967301	0.321853	0.585549
	N239	N	0.041673	0.322062	0.414485
	N240	N	0.967785	0.414305	0.679123
	N241	N	0.041565	0.586064	0.678884
	N242	N	0.967073	0.585998	0.320598
	N243	N	0.041283	0.414633	0.320998
	N244	N	0.419157	0.676851	0.962839
	N245	N	0.589068	0.678803	0.038002
	N246	N	0.587846	0.323389	0.962356
	N247	N	0.417735	0.322369	0.037153
	N248	N	0.683010	0.963623	0.413581
	N249	N	0.682556	0.038127	0.585316
	N250	N	0.325523	0.963792	0.585571
	N251	N	0.326492	0.037623	0.414839
	N252	N	0.919222	0.462383	0.177086
	N253	N	0.088988	0.537313	0.177470
	N254	N	0.088739	0.462407	0.822983
	N255	N	0.919257	0.538032	0.821887
	N256	N	0.183090	0.914888	0.462927
	N257	N	0.183921	0.087189	0.537195
	N258	N	0.825136	0.087174	0.463078
	N259	N	0.824904	0.914552	0.537044
	N260	N	0.466526	0.179260	0.914229
	N261	N	0.540375	0.178986	0.085033
	N262	N	0.465796	0.822884	0.084006
	N263	N	0.540855	0.820660	0.913136
	N264	N	0.466773	0.914374	0.179050
	N265	N	0.540167	0.087329	0.179454
	N266	N	0.466908	0.085721	0.821062
	N267	N	0.541092	0.914145	0.820261
	N268	N	0.920160	0.177608	0.462304
	N269	N	0.089234	0.178472	0.537838
	N270	N	0.088540	0.823685	0.462358
	N271	N	0.918525	0.822412	0.537296
	N272	N	0.182950	0.463516	0.913586
	N273	N	0.182825	0.536792	0.086244
	N274	N	0.824553	0.463331	0.086675
	N275	N	0.825629	0.537965	0.914625
	O276	O	0.527426	0.567154	-0.459453
	H277	H	0.522000	0.557151	-0.458763
	H278	H	0.521846	0.570652	-0.456894
	O279	O	-0.040400	-0.025500	0.049938
	H280	H	-0.042848	-0.032237	0.052704
	H281	H	-0.041596	-0.035795	0.043168
	O282	O	-0.026716	-0.050445	1.017637
	H283	H	-0.028837	-0.056499	1.019978
	H284	H	-0.024985	-0.030093	1.018988
	O285	O	0.537026	0.515378	0.481951
	H286	H	0.538462	0.510402	0.474837
	H287	H	0.537688	0.506286	0.477541
	O288	O	0.552614	0.518168	0.509852
	H289	H	0.553934	0.506104	0.497382
	H290	H	0.549012	0.514565	0.510312
	O291	O	0.505458	0.575301	0.577467
	H292	H	0.506462	0.581830	0.588190
	H293	H	0.502934	0.575918	0.576463
	O294	O	0.004510	0.017805	0.054088
	H295	H	0.005407	0.001923	0.052456
	H296	H	0.011774	0.021687	0.053032
	O297	O	0.532902	0.572209	0.526150
	H298	H	0.537771	0.587056	0.534816
	H299	H	0.534252	0.581890	0.527878
	O300	O	-0.011422	0.937824	1.069550
	H301	H	-0.012483	0.928534	1.065861
	H302	H	-0.019762	0.942949	1.058018
	O303	O	0.486122	0.466467	0.516980
	H304	H	0.486226	0.459475	0.519178
	H305	H	0.493570	0.469052	0.521387
	O306	O	-0.051687	-0.049262	1.019098
	H307	H	-0.049168	-0.051920	1.015868
	H308	H	-0.051747	-0.038571	1.025751
	O309	O	1.000528	0.967843	0.978948
	H310	H	0.999654	0.968664	0.982677
	H311	H	1.000962	0.966103	0.974152
	O312	O	0.581025	0.449411	0.533905
	H313	H	0.585821	0.448803	0.541873
	H314	H	0.577220	0.453015	0.538238
	O315	O	0.536373	0.602019	0.540729
	H316	H	0.537680	0.621615	0.546993
	H317	H	0.537189	0.598989	0.526643
	O318	O	-0.037232	1.009559	0.028792
	H319	H	-0.036891	1.013026	0.029825
	H320	H	-0.041494	1.018395	0.026345
	O321	O	0.957969	1.002974	0.007454
	H322	H	0.955061	1.004493	0.016610
	H323	H	0.953106	0.998844	0.020225
