data_Molecule from HDF5

_cell_length_a		16.264474
_cell_length_b		16.235231
_cell_length_c		16.389330
_cell_angle_alpha	90.083825
_cell_angle_beta	90.024341
_cell_angle_gamma	89.982881
_symmetry_space_group_name_H-M	'P 1'
_symmetry_Int_Tables_number		1

loop_
	_symmetry_equiv_pos_as_xyz
	x,y,z

loop_
	_atom_site_label
	_atom_site_type_symbol
	_atom_site_fract_x
	_atom_site_fract_y
	_atom_site_fract_z
	H0	H	0.401040	0.835683	0.715663
	H1	H	0.601635	0.162767	0.716721
	H2	H	0.600133	0.835375	0.286168
	H3	H	0.401570	0.163525	0.285059
	H4	H	0.717906	0.398025	0.838507
	H5	H	0.716011	0.597762	0.163726
	H6	H	0.286350	0.597094	0.838498
	H7	H	0.284694	0.399359	0.164081
	H8	H	0.836981	0.713143	0.404654
	H9	H	0.165004	0.714790	0.599593
	H10	H	0.836645	0.287372	0.597733
	H11	H	0.165628	0.286199	0.403871
	H12	H	0.838520	0.400133	0.716561
	H13	H	0.164700	0.601003	0.717335
	H14	H	0.837712	0.599633	0.286677
	H15	H	0.164864	0.400155	0.284858
	H16	H	0.402030	0.714280	0.838671
	H17	H	0.598557	0.713424	0.164145
	H18	H	0.599603	0.283808	0.838023
	H19	H	0.402879	0.283515	0.164598
	H20	H	0.715034	0.835283	0.403196
	H21	H	0.713593	0.164251	0.597808
	H22	H	0.287917	0.834927	0.597440
	H23	H	0.287844	0.164602	0.403932
	H24	H	0.900845	0.336886	0.216576
	H25	H	0.101545	0.664069	0.216919
	H26	H	0.101592	0.336286	0.784755
	H27	H	0.900834	0.662847	0.785255
	H28	H	0.216693	0.899595	0.338977
	H29	H	0.216602	0.099101	0.664265
	H30	H	0.786181	0.099080	0.337908
	H31	H	0.785977	0.901431	0.663779
	H32	H	0.337920	0.213068	0.903844
	H33	H	0.666676	0.213085	0.097795
	H34	H	0.337220	0.785855	0.096930
	H35	H	0.665728	0.783987	0.902806
	H36	H	0.338569	0.897670	0.216881
	H37	H	0.665747	0.099287	0.216405
	H38	H	0.337818	0.098246	0.785889
	H39	H	0.664986	0.898295	0.785017
	H40	H	0.903171	0.214919	0.338497
	H41	H	0.098722	0.214600	0.664679
	H42	H	0.099709	0.784019	0.338965
	H43	H	0.902414	0.785146	0.663803
	H44	H	0.215365	0.335666	0.902905
	H45	H	0.215477	0.664311	0.099390
	H46	H	0.788812	0.335445	0.097573
	H47	H	0.787294	0.663748	0.902857
	H48	H	0.420768	0.111445	0.590022
	H49	H	0.591797	0.883887	0.591229
	H50	H	0.592295	0.116321	0.404925
	H51	H	0.408307	0.881493	0.404032
	H52	H	0.597221	0.408397	0.116243
	H53	H	0.599048	0.604042	0.880252
	H54	H	0.407580	0.587097	0.115690
	H55	H	0.414889	0.415272	0.891425
	H56	H	0.114737	0.589302	0.417050
	H57	H	0.886424	0.592667	0.590179
	H58	H	0.117120	0.406683	0.587246
	H59	H	0.883618	0.398212	0.411166
	H60	H	0.115932	0.414950	0.596188
	H61	H	0.885041	0.588406	0.597280
	H62	H	0.117379	0.584546	0.401835
	H63	H	0.888716	0.414930	0.411301
	H64	H	0.412850	0.595448	0.115551
	H65	H	0.602975	0.580323	0.886576
	H66	H	0.592738	0.407336	0.115046
	H67	H	0.412486	0.394385	0.884328
	H68	H	0.591656	0.114960	0.409803
	H69	H	0.596231	0.882536	0.591933
	H70	H	0.400042	0.116325	0.586363
	H71	H	0.412742	0.884722	0.407968
	H72	H	0.904042	0.614522	0.081424
	H73	H	0.092972	0.386106	0.086953
	H74	H	0.100040	0.618920	0.907709
	H75	H	0.912334	0.383195	0.906243
	H76	H	0.091178	0.910162	0.615426
	H77	H	0.091966	0.103647	0.383284
	H78	H	0.905839	0.085613	0.614728
	H79	H	0.917500	0.910001	0.389122
	H80	H	0.620923	0.096457	0.902070
	H81	H	0.384785	0.098751	0.089100
	H82	H	0.616173	0.903744	0.085117
	H83	H	0.383450	0.898637	0.909341
	H84	H	0.617220	0.915985	0.097722
	H85	H	0.390077	0.083357	0.088889
	H86	H	0.617005	0.093334	0.913858
	H87	H	0.388615	0.912882	0.911931
	H88	H	0.914553	0.097177	0.615975
	H89	H	0.105227	0.089500	0.383934
	H90	H	0.093726	0.904423	0.617195
	H91	H	0.905885	0.896691	0.381997
	H92	H	0.088944	0.615969	0.902296
	H93	H	0.096787	0.381802	0.097965
	H94	H	0.899207	0.622394	0.104283
	H95	H	0.908536	0.383579	0.910688
	H96	H	0.408101	0.119597	0.606156
	H97	H	0.592639	0.881909	0.595903
	H98	H	0.595675	0.116989	0.408386
	H99	H	0.406658	0.884113	0.410028
	H100	H	0.595089	0.404193	0.116934
	H101	H	0.580745	0.590611	0.890456
	H102	H	0.404079	0.595626	0.118532
	H103	H	0.395300	0.408259	0.884286
	H104	H	0.120635	0.600036	0.406626
	H105	H	0.883501	0.596554	0.597131
	H106	H	0.120654	0.403523	0.598936
	H107	H	0.881591	0.408122	0.396951
	H108	H	0.921895	0.613782	0.097957
	H109	H	0.085392	0.385126	0.095893
	H110	H	0.090333	0.613537	0.914822
	H111	H	0.907165	0.381620	0.905436
	H112	H	0.097390	0.909849	0.617086
	H113	H	0.086833	0.086732	0.390778
	H114	H	0.900498	0.098588	0.619431
	H115	H	0.899996	0.914260	0.385024
	H116	H	0.617173	0.083728	0.904217
	H117	H	0.383390	0.089562	0.102657
	H118	H	0.622059	0.899621	0.100293
	H119	H	0.383603	0.908700	0.898038
	C120	C	0.380221	0.007531	0.622368
	C121	C	0.622217	0.991446	0.621803
	C122	C	0.622429	0.007626	0.379286
	C123	C	0.379926	0.991625	0.378882
	C124	C	0.623457	0.377269	0.009036
	C125	C	0.622690	0.620544	0.992922
	C126	C	0.379650	0.620823	0.009418
	C127	C	0.379106	0.376975	0.993864
	C128	C	0.009407	0.620829	0.379946
	C129	C	0.993149	0.621724	0.623425
	C130	C	0.009603	0.379379	0.622248
	C131	C	0.993137	0.378363	0.378509
	C132	C	0.880072	0.508322	0.122239
	C133	C	0.122185	0.492135	0.122882
	C134	C	0.122176	0.507936	0.879686
	C135	C	0.880105	0.491216	0.879117
	C136	C	0.122884	0.878530	0.509407
	C137	C	0.123621	0.122341	0.493441
	C138	C	0.878858	0.122000	0.509264
	C139	C	0.879201	0.878263	0.492786
	C140	C	0.509911	0.120054	0.879151
	C141	C	0.494416	0.120390	0.122150
	C142	C	0.510102	0.877529	0.122553
	C143	C	0.493196	0.877263	0.878427
	C144	C	0.381878	0.884312	0.677086
	C145	C	0.620552	0.114043	0.678065
	C146	C	0.620700	0.884462	0.323993
	C147	C	0.381855	0.114901	0.323517
	C148	C	0.679089	0.378650	0.886747
	C149	C	0.678328	0.618370	0.115292
	C150	C	0.324258	0.618019	0.887148
	C151	C	0.323236	0.379026	0.115717
	C152	C	0.886071	0.676141	0.383243
	C153	C	0.116029	0.677266	0.620761
	C154	C	0.885991	0.324403	0.618876
	C155	C	0.116598	0.323582	0.382189
	C156	C	0.886712	0.380464	0.677836
	C157	C	0.116020	0.620454	0.679068
	C158	C	0.886339	0.619419	0.324799
	C159	C	0.116135	0.380305	0.323340
	C160	C	0.381855	0.675890	0.887102
	C161	C	0.620003	0.675749	0.115556
	C162	C	0.620259	0.321949	0.886510
	C163	C	0.382241	0.321815	0.116135
	C164	C	0.677652	0.884446	0.382097
	C165	C	0.676392	0.115038	0.618903
	C166	C	0.325436	0.884038	0.618463
	C167	C	0.325529	0.115442	0.382707
	C168	C	0.881462	0.385479	0.178001
	C169	C	0.121284	0.615284	0.178623
	C170	C	0.120733	0.384835	0.823712
	C171	C	0.881530	0.614339	0.823907
	C172	C	0.178648	0.879478	0.387484
	C173	C	0.178895	0.119820	0.615651
	C174	C	0.823982	0.119446	0.386616
	C175	C	0.824268	0.881395	0.615397
	C176	C	0.386676	0.175406	0.882570
	C177	C	0.617516	0.175540	0.119189
	C178	C	0.386405	0.823107	0.118475
	C179	C	0.616944	0.822067	0.882085
	C180	C	0.387254	0.878644	0.178012
	C181	C	0.617047	0.118899	0.177806
	C182	C	0.386623	0.118317	0.824208
	C183	C	0.616477	0.878511	0.823408
	C184	C	0.882266	0.176749	0.386606
	C185	C	0.120528	0.177463	0.615847
	C186	C	0.120403	0.822152	0.387495
	C187	C	0.881634	0.823113	0.615331
	C188	C	0.177372	0.384556	0.882292
	C189	C	0.177535	0.615478	0.120075
	C190	C	0.825617	0.384716	0.118900
	C191	C	0.825026	0.614732	0.882424
	C192	C	0.402992	0.093741	0.600661
	C193	C	0.599981	0.904940	0.599543
	C194	C	0.599757	0.093766	0.401198
	C195	C	0.402557	0.905696	0.400958
	C196	C	0.601496	0.399906	0.094036
	C197	C	0.600810	0.598222	0.907977
	C198	C	0.401567	0.599154	0.094692
	C199	C	0.401184	0.399299	0.908629
	C200	C	0.095366	0.598058	0.402158
	C201	C	0.907303	0.599291	0.601391
	C202	C	0.095714	0.401630	0.600398
	C203	C	0.906809	0.400456	0.400211
	C204	C	0.902101	0.594752	0.100874
	C205	C	0.098851	0.406676	0.100217
	C206	C	0.099694	0.593918	0.901745
	C207	C	0.902669	0.405091	0.900727
	C208	C	0.100642	0.901497	0.594564
	C209	C	0.101224	0.099860	0.408186
	C210	C	0.900736	0.100189	0.594626
	C211	C	0.901317	0.900368	0.407551
	C212	C	0.596036	0.097766	0.900528
	C213	C	0.408305	0.097473	0.099906
	C214	C	0.596226	0.899838	0.100797
	C215	C	0.407551	0.900014	0.900082
	Zn216	Zn	0.501865	-0.001423	0.750521
	Zn217	Zn	0.501778	-0.000873	0.250351
	Zn218	Zn	0.751892	0.499319	0.000545
	Zn219	Zn	0.250241	0.499785	0.001577
	Zn220	Zn	0.000942	0.749580	0.501653
	Zn221	Zn	0.001116	0.250837	0.501220
	Zn222	Zn	0.001316	0.499959	0.750802
	Zn223	Zn	0.001070	0.500658	0.250825
	Zn224	Zn	0.501632	0.749534	0.000814
	Zn225	Zn	0.501980	0.248646	0.001442
	Zn226	Zn	0.750546	-0.000061	0.500623
	Zn227	Zn	0.252101	-0.000035	0.500974
	N228	N	0.415115	0.962309	0.679673
	N229	N	0.587506	0.035884	0.679638
	N230	N	0.587090	0.962149	0.322179
	N231	N	0.414941	0.036840	0.320954
	N232	N	0.681259	0.412426	0.963781
	N233	N	0.679971	0.584521	0.038178
	N234	N	0.322865	0.584412	0.964159
	N235	N	0.321290	0.412728	0.038721
	N236	N	0.963556	0.677033	0.416926
	N237	N	0.038688	0.678036	0.586761
	N238	N	0.963377	0.323780	0.584880
	N239	N	0.039193	0.322431	0.415953
	N240	N	0.964465	0.413754	0.680008
	N241	N	0.038462	0.586733	0.680943
	N242	N	0.964047	0.585930	0.322641
	N243	N	0.038178	0.413342	0.320953
	N244	N	0.415595	0.677883	0.963999
	N245	N	0.586254	0.677296	0.038696
	N246	N	0.586346	0.321001	0.963268
	N247	N	0.416094	0.320382	0.039259
	N248	N	0.678564	0.962100	0.415882
	N249	N	0.677502	0.037694	0.584738
	N250	N	0.324625	0.961602	0.584966
	N251	N	0.324164	0.037811	0.416110
	N252	N	0.914600	0.463479	0.180022
	N253	N	0.087468	0.537573	0.180415
	N254	N	0.087148	0.462577	0.822130
	N255	N	0.915087	0.536676	0.821944
	N256	N	0.180235	0.913960	0.464152
	N257	N	0.180780	0.086297	0.538477
	N258	N	0.821733	0.086164	0.463844
	N259	N	0.822576	0.914905	0.538186
	N260	N	0.464167	0.176602	0.916076
	N261	N	0.540177	0.176235	0.085267
	N262	N	0.463783	0.822544	0.084588
	N263	N	0.539354	0.821132	0.915538
	N264	N	0.465157	0.911794	0.180537
	N265	N	0.539372	0.085247	0.179564
	N266	N	0.464282	0.084708	0.821851
	N267	N	0.538791	0.911928	0.820968
	N268	N	0.915548	0.178622	0.463703
	N269	N	0.086746	0.179033	0.538887
	N270	N	0.086334	0.821538	0.464423
	N271	N	0.915131	0.821165	0.538399
	N272	N	0.178298	0.461972	0.916555
	N273	N	0.178254	0.537860	0.085981
	N274	N	0.824509	0.462132	0.085062
	N275	N	0.823966	0.537075	0.916053
	O276	O	0.484585	0.488288	-0.581821
	H277	H	0.470894	0.488773	-0.574547
	H278	H	0.476494	0.490005	-0.588492
	O279	O	0.101994	0.049830	0.064369
	H280	H	0.101036	0.063544	0.058770
	H281	H	0.107289	0.060080	0.068590
	O282	O	0.095799	0.029703	1.069544
	H283	H	0.100820	0.037976	1.066116
	H284	H	0.095439	0.026246	1.075949
	O285	O	0.512811	0.541921	0.507238
	H286	H	0.517020	0.552244	0.503183
	H287	H	0.512822	0.540523	0.510848
	O288	O	0.529168	0.519144	0.486541
	H289	H	0.525863	0.515278	0.491544
	H290	H	0.537627	0.506539	0.481975
	O291	O	0.545958	0.503789	0.472547
	H292	H	0.547685	0.506422	0.467259
	H293	H	0.542261	0.497811	0.468993
	O294	O	0.103271	0.051841	0.077162
	H295	H	0.105825	0.042271	0.079298
	H296	H	0.109692	0.058406	0.074229
	O297	O	0.495634	0.480037	0.510972
	H298	H	0.504165	0.467127	0.505510
	H299	H	0.503112	0.473123	0.518452
	O300	O	0.430019	1.547977	0.505925
	H301	H	0.428045	1.550745	0.504469
	H302	H	0.440895	1.554310	0.519182
	O303	O	0.491548	0.457071	0.493836
	H304	H	0.476397	0.464767	0.490071
	H305	H	0.488756	0.460802	0.491735
	O306	O	0.085183	0.006448	1.082739
	H307	H	0.074985	-0.001059	1.081126
	H308	H	0.091024	0.011116	1.091989
	O309	O	1.111780	1.029028	1.052802
	H310	H	1.119430	1.024432	1.059108
	H311	H	1.119281	1.031435	1.051138
	O312	O	0.452240	0.456683	0.498582
	H313	H	0.450445	0.470116	0.491880
	H314	H	0.441661	0.452402	0.502366
	O315	O	0.466735	0.524809	0.457661
	H316	H	0.477438	0.514828	0.454363
	H317	H	0.458226	0.526581	0.468942
	O318	O	0.029258	0.991005	0.049282
	H319	H	0.022378	0.982677	0.047915
	H320	H	0.029808	0.979455	0.050217
	O321	O	0.522683	0.528218	0.556688
	H322	H	0.528389	0.525611	0.553203
	H323	H	0.525305	0.529978	0.555484
