data_Molecule from HDF5

_cell_length_a		16.494664
_cell_length_b		16.585603
_cell_length_c		16.740920
_cell_angle_alpha	89.826166
_cell_angle_beta	89.963658
_cell_angle_gamma	89.930138
_symmetry_space_group_name_H-M	'P 1'
_symmetry_Int_Tables_number		1

loop_
	_symmetry_equiv_pos_as_xyz
	x,y,z

loop_
	_atom_site_label
	_atom_site_type_symbol
	_atom_site_fract_x
	_atom_site_fract_y
	_atom_site_fract_z
	H0	H	0.389453	0.856974	0.731514
	H1	H	0.604168	0.165800	0.732274
	H2	H	0.603810	0.856739	0.286592
	H3	H	0.388810	0.167078	0.286060
	H4	H	0.716892	0.408260	0.853531
	H5	H	0.716044	0.613636	0.165056
	H6	H	0.273642	0.617830	0.854742
	H7	H	0.272058	0.404942	0.163266
	H8	H	0.838946	0.731561	0.405752
	H9	H	0.152599	0.733481	0.615455
	H10	H	0.839014	0.291104	0.614875
	H11	H	0.151733	0.289657	0.404692
	H12	H	0.839982	0.405661	0.731522
	H13	H	0.151697	0.619432	0.733275
	H14	H	0.838840	0.618542	0.288026
	H15	H	0.151408	0.403439	0.286654
	H16	H	0.387591	0.737355	0.856670
	H17	H	0.601918	0.733384	0.163363
	H18	H	0.600352	0.291517	0.853858
	H19	H	0.387978	0.287414	0.162658
	H20	H	0.715596	0.854577	0.406417
	H21	H	0.715878	0.168056	0.612684
	H22	H	0.276659	0.855808	0.612873
	H23	H	0.275456	0.168671	0.404168
	H24	H	0.891016	0.355222	0.230663
	H25	H	0.103828	0.665790	0.231841
	H26	H	0.106852	0.357549	0.783543
	H27	H	0.889573	0.667030	0.786806
	H28	H	0.219131	0.906943	0.354663
	H29	H	0.216447	0.115184	0.665198
	H30	H	0.775074	0.116419	0.353440
	H31	H	0.774658	0.906276	0.663328
	H32	H	0.339676	0.233374	0.902973
	H33	H	0.653160	0.230860	0.111280
	H34	H	0.338933	0.791886	0.114430
	H35	H	0.652296	0.790277	0.904557
	H36	H	0.339666	0.906517	0.231040
	H37	H	0.652844	0.117186	0.229443
	H38	H	0.339625	0.118332	0.787072
	H39	H	0.651449	0.905305	0.787571
	H40	H	0.889648	0.234406	0.354950
	H41	H	0.099706	0.231878	0.665025
	H42	H	0.104209	0.788724	0.355470
	H43	H	0.891130	0.789315	0.662898
	H44	H	0.219891	0.355942	0.902416
	H45	H	0.216292	0.667589	0.112981
	H46	H	0.778554	0.353510	0.111162
	H47	H	0.778094	0.669143	0.906717
	H48	H	0.409911	0.124915	0.601585
	H49	H	0.581715	0.901057	0.598372
	H50	H	0.588235	0.125509	0.414556
	H51	H	0.409676	0.903301	0.426747
	H52	H	0.587564	0.420169	0.120979
	H53	H	0.581515	0.603528	0.898691
	H54	H	0.411718	0.597577	0.116636
	H55	H	0.408345	0.420076	0.898168
	H56	H	0.108090	0.599769	0.421154
	H57	H	0.885971	0.595104	0.597850
	H58	H	0.104168	0.424942	0.589589
	H59	H	0.883015	0.427202	0.416099
	H60	H	0.107207	0.430366	0.603154
	H61	H	0.883017	0.600248	0.599717
	H62	H	0.108439	0.597034	0.418420
	H63	H	0.881074	0.419957	0.420066
	H64	H	0.408066	0.604587	0.120292
	H65	H	0.588828	0.604696	0.896590
	H66	H	0.587033	0.420828	0.119773
	H67	H	0.405684	0.426920	0.899497
	H68	H	0.578758	0.123101	0.416645
	H69	H	0.584567	0.899677	0.597794
	H70	H	0.408726	0.123292	0.595234
	H71	H	0.401355	0.896916	0.418135
	H72	H	0.906343	0.624364	0.100401
	H73	H	0.084988	0.397345	0.103646
	H74	H	0.083842	0.622230	0.921742
	H75	H	0.901192	0.396867	0.919294
	H76	H	0.085413	0.927745	0.618218
	H77	H	0.091089	0.097525	0.398112
	H78	H	0.902487	0.098386	0.620674
	H79	H	0.902064	0.927749	0.397746
	H80	H	0.607352	0.095880	0.917108
	H81	H	0.384582	0.092386	0.102377
	H82	H	0.612016	0.922218	0.106648
	H83	H	0.382219	0.922110	0.918120
	H84	H	0.609470	0.916848	0.093331
	H85	H	0.381105	0.105323	0.100915
	H86	H	0.610289	0.103915	0.916534
	H87	H	0.385188	0.922914	0.924918
	H88	H	0.909159	0.100156	0.618675
	H89	H	0.078721	0.098106	0.402066
	H90	H	0.079427	0.918885	0.619665
	H91	H	0.914256	0.922096	0.400102
	H92	H	0.080536	0.621220	0.919041
	H93	H	0.077824	0.402629	0.097248
	H94	H	0.904992	0.624828	0.100518
	H95	H	0.910756	0.398079	0.913230
	H96	H	0.404072	0.125661	0.599231
	H97	H	0.582973	0.899886	0.600629
	H98	H	0.586080	0.122043	0.423631
	H99	H	0.413976	0.901085	0.414466
	H100	H	0.586346	0.419507	0.120621
	H101	H	0.586332	0.597566	0.899449
	H102	H	0.403438	0.596752	0.119920
	H103	H	0.412750	0.425121	0.902046
	H104	H	0.108925	0.600832	0.417536
	H105	H	0.885835	0.600401	0.594154
	H106	H	0.111822	0.416191	0.599460
	H107	H	0.885524	0.425702	0.424202
	H108	H	0.905728	0.624676	0.101688
	H109	H	0.087276	0.399713	0.093287
	H110	H	0.080236	0.619763	0.922934
	H111	H	0.910245	0.401863	0.924418
	H112	H	0.089552	0.918815	0.622325
	H113	H	0.084363	0.108619	0.396380
	H114	H	0.904894	0.104911	0.622125
	H115	H	0.904233	0.914879	0.394349
	H116	H	0.607057	0.101170	0.923829
	H117	H	0.386348	0.098567	0.090621
	H118	H	0.604260	0.930503	0.096361
	H119	H	0.384542	0.929403	0.920447
	C120	C	0.375198	0.021118	0.630554
	C121	C	0.616520	1.002828	0.630409
	C122	C	0.617121	0.020368	0.387129
	C123	C	0.375266	1.003444	0.387478
	C124	C	0.618355	0.389569	0.017390
	C125	C	0.617512	0.633102	1.000749
	C126	C	0.374586	0.633022	0.017384
	C127	C	0.374381	0.390012	1.001082
	C128	C	0.004530	0.631905	0.387727
	C129	C	0.988110	0.631996	0.630108
	C130	C	0.004466	0.390744	0.630360
	C131	C	0.987048	0.391108	0.388395
	C132	C	0.874285	0.520317	0.131395
	C133	C	0.116548	0.502579	0.130148
	C134	C	0.116519	0.519183	0.887763
	C135	C	0.875288	0.502734	0.887820
	C136	C	0.118049	0.889516	0.517786
	C137	C	0.117023	0.133255	0.501230
	C138	C	0.873278	0.133752	0.517982
	C139	C	0.874673	0.889484	0.499822
	C140	C	0.504635	0.132830	0.887003
	C141	C	0.487649	0.131824	0.129624
	C142	C	0.504993	0.890358	0.131238
	C143	C	0.487307	0.891523	0.888810
	C144	C	0.371840	0.903820	0.690960
	C145	C	0.620856	0.119548	0.691019
	C146	C	0.620497	0.902947	0.327692
	C147	C	0.371690	0.120652	0.326824
	C148	C	0.677164	0.389396	0.900284
	C149	C	0.676796	0.633498	0.117951
	C150	C	0.313659	0.636183	0.901175
	C151	C	0.312601	0.386563	0.116801
	C152	C	0.886123	0.691944	0.386657
	C153	C	0.105577	0.693258	0.633369
	C154	C	0.886357	0.330659	0.633108
	C155	C	0.104780	0.330044	0.386324
	C156	C	0.886851	0.387657	0.691087
	C157	C	0.105030	0.636569	0.692021
	C158	C	0.886425	0.635712	0.328025
	C159	C	0.104768	0.386674	0.327737
	C160	C	0.370403	0.695489	0.902116
	C161	C	0.619767	0.692551	0.117553
	C162	C	0.619303	0.331251	0.900428
	C163	C	0.370341	0.328259	0.116582
	C164	C	0.676299	0.901999	0.387046
	C165	C	0.676678	0.120498	0.631668
	C166	C	0.316078	0.902939	0.631652
	C167	C	0.315220	0.121259	0.385579
	C168	C	0.872841	0.402021	0.190322
	C169	C	0.120566	0.619252	0.191033
	C170	C	0.122959	0.403572	0.825177
	C171	C	0.872320	0.620482	0.827790
	C172	C	0.178938	0.887971	0.401469
	C173	C	0.176560	0.134274	0.618479
	C174	C	0.814257	0.135328	0.400605
	C175	C	0.814579	0.887490	0.616545
	C176	C	0.386637	0.193021	0.884898
	C177	C	0.605839	0.191476	0.130567
	C178	C	0.386616	0.830838	0.133380
	C179	C	0.605123	0.830605	0.886366
	C180	C	0.386832	0.887937	0.191170
	C181	C	0.605666	0.135085	0.189320
	C182	C	0.386759	0.136017	0.827105
	C183	C	0.604775	0.887710	0.828253
	C184	C	0.871216	0.194207	0.401423
	C185	C	0.118375	0.192099	0.618436
	C186	C	0.121728	0.829203	0.401708
	C187	C	0.872193	0.829150	0.616425
	C188	C	0.179173	0.402681	0.884199
	C189	C	0.176578	0.620208	0.131857
	C190	C	0.817050	0.401186	0.130944
	C191	C	0.816398	0.621243	0.887150
	C192	C	0.400354	0.103154	0.605833
	C193	C	0.590628	0.921286	0.605794
	C194	C	0.591684	0.102329	0.411297
	C195	C	0.400919	0.921535	0.412589
	C196	C	0.593900	0.413303	0.099120
	C197	C	0.592408	0.608942	0.919560
	C198	C	0.400516	0.607026	0.098001
	C199	C	0.401290	0.416621	0.920734
	C200	C	0.086916	0.606581	0.412138
	C201	C	0.906231	0.606028	0.604502
	C202	C	0.086313	0.416545	0.604795
	C203	C	0.904714	0.416941	0.413082
	C204	C	0.898542	0.603076	0.107714
	C205	C	0.090722	0.421069	0.105165
	C206	C	0.089088	0.600035	0.913871
	C207	C	0.900449	0.420474	0.911978
	C208	C	0.092198	0.914580	0.599010
	C209	C	0.091965	0.108491	0.420167
	C210	C	0.898393	0.108519	0.599171
	C211	C	0.899726	0.914397	0.418408
	C212	C	0.586854	0.107427	0.912204
	C213	C	0.405336	0.105962	0.105164
	C214	C	0.587164	0.915763	0.106030
	C215	C	0.405445	0.917464	0.913880
	Zn216	Zn	0.495775	0.011998	0.759372
	Zn217	Zn	0.496029	0.011603	0.258697
	Zn218	Zn	0.747076	0.511452	0.008917
	Zn219	Zn	0.244894	0.511641	0.008660
	Zn220	Zn	-0.003571	0.760549	0.508601
	Zn221	Zn	-0.004735	0.262799	0.509718
	Zn222	Zn	-0.004034	0.511085	0.758764
	Zn223	Zn	-0.004218	0.511227	0.259307
	Zn224	Zn	0.495733	0.762794	0.009835
	Zn225	Zn	0.495963	0.260422	0.008436
	Zn226	Zn	0.745477	0.011353	0.508897
	Zn227	Zn	0.246901	0.012248	0.509352
	N228	N	0.407871	0.978390	0.690396
	N229	N	0.584091	0.045392	0.690486
	N230	N	0.584566	0.977673	0.327410
	N231	N	0.408217	0.046275	0.327837
	N232	N	0.676736	0.424799	0.974199
	N233	N	0.675766	0.597501	0.044397
	N234	N	0.316024	0.597967	0.973890
	N235	N	0.314828	0.424188	0.043846
	N236	N	0.960711	0.690079	0.423016
	N237	N	0.031803	0.690507	0.595433
	N238	N	0.960530	0.332561	0.595950
	N239	N	0.030664	0.332714	0.423348
	N240	N	0.961276	0.424363	0.689521
	N241	N	0.030916	0.599138	0.690122
	N242	N	0.961193	0.599243	0.328265
	N243	N	0.030427	0.424033	0.328842
	N244	N	0.407357	0.693904	0.975433
	N245	N	0.583737	0.692847	0.043622
	N246	N	0.583470	0.331035	0.974377
	N247	N	0.408057	0.330246	0.043504
	N248	N	0.674653	0.976151	0.423306
	N249	N	0.674307	0.046853	0.594575
	N250	N	0.317716	0.977027	0.594977
	N251	N	0.317069	0.047267	0.422658
	N252	N	0.907523	0.477225	0.190847
	N253	N	0.083864	0.545119	0.190248
	N254	N	0.084727	0.477102	0.827127
	N255	N	0.907973	0.545590	0.827666
	N256	N	0.176964	0.924513	0.474921
	N257	N	0.176201	0.098731	0.544574
	N258	N	0.814947	0.098818	0.474274
	N259	N	0.815906	0.924240	0.543036
	N260	N	0.461048	0.191278	0.921514
	N261	N	0.531215	0.189824	0.094474
	N262	N	0.461193	0.832128	0.096850
	N263	N	0.530861	0.832489	0.923173
	N264	N	0.461581	0.924033	0.190324
	N265	N	0.530894	0.098821	0.189167
	N266	N	0.461334	0.099435	0.828119
	N267	N	0.530464	0.924811	0.829406
	N268	N	0.907047	0.193585	0.475410
	N269	N	0.082146	0.191884	0.544479
	N270	N	0.084729	0.829960	0.475210
	N271	N	0.908597	0.829949	0.542630
	N272	N	0.175414	0.475610	0.922493
	N273	N	0.174231	0.546602	0.094503
	N274	N	0.817548	0.475856	0.095080
	N275	N	0.818105	0.546956	0.923707
	O276	O	-0.240544	1.195010	0.198955
	H277	H	-0.246320	1.202447	0.195978
	H278	H	-0.233969	1.193313	0.190838
	O279	O	0.142778	0.119525	0.035317
	H280	H	0.154405	0.125135	0.048892
	H281	H	0.124059	0.125398	0.039324
	O282	O	1.008288	-0.154284	1.032656
	H283	H	1.010401	-0.131518	1.026475
	H284	H	1.019586	-0.165533	1.027488
	O285	O	0.311466	0.289218	0.518520
	H286	H	0.309639	0.279363	0.539319
	H287	H	0.309395	0.281444	0.528434
	O288	O	0.521102	0.724588	0.732458
	H289	H	0.554242	0.727696	0.726828
	H290	H	0.525070	0.748640	0.742707
	O291	O	0.190458	0.214388	0.215509
	H292	H	0.201275	0.199480	0.211291
	H293	H	0.208342	0.225027	0.229450
	O294	O	1.062527	-0.038907	1.203958
	H295	H	1.047329	-0.040147	1.196346
	H296	H	1.053864	-0.059523	1.208112
	O297	O	0.477060	0.732483	0.286277
	H298	H	0.453721	0.728608	0.287655
	H299	H	0.467428	0.759771	0.274883
	O300	O	-0.607299	-0.694305	0.386753
	H301	H	-0.609056	-0.689180	0.416601
	H302	H	-0.592607	-0.678927	0.385895
	O303	O	0.450308	0.735144	0.517633
	H304	H	0.432914	0.732151	0.530996
	H305	H	0.468467	0.734836	0.508790
	O306	O	0.413749	0.441279	0.506937
	H307	H	0.421286	0.433089	0.512586
	H308	H	0.418864	0.444398	0.502500
	O309	O	0.705654	0.547079	0.725171
	H310	H	0.714444	0.562943	0.723752
	H311	H	0.723418	0.562156	0.729297
	O312	O	0.398772	0.390887	0.510929
	H313	H	0.391717	0.405230	0.530693
	H314	H	0.386214	0.375723	0.522339
	O315	O	1.285870	0.718908	1.301498
	H316	H	1.303619	0.685844	1.301347
	H317	H	1.282492	0.708322	1.332152
	O318	O	0.303809	0.427872	0.314504
	H319	H	0.305743	0.433109	0.324140
	H320	H	0.309429	0.426257	0.325613
	O321	O	0.121825	1.222765	1.022724
	H322	H	0.110730	1.231011	1.015200
	H323	H	0.120340	1.233281	1.028582
	O324	O	1.196466	0.884623	0.122523
	H325	H	1.205799	0.892373	0.132855
	H326	H	1.191442	0.889546	0.133377
	O327	O	0.168097	-0.002158	0.980015
	H328	H	0.171770	0.006229	0.988887
	H329	H	0.163826	-0.001751	0.994165
	O330	O	0.388528	0.529219	0.446148
	H331	H	0.400631	0.523427	0.451863
	H332	H	0.384314	0.536570	0.455325
	O333	O	0.540627	0.286477	0.470884
	H334	H	0.556856	0.297314	0.464095
	H335	H	0.550074	0.278080	0.444538
	O336	O	0.713585	0.292455	0.471936
	H337	H	0.715021	0.283587	0.469222
	H338	H	0.731126	0.278273	0.453733
	O339	O	0.845898	-0.122474	0.950306
	H340	H	0.842776	-0.120477	0.948871
	H341	H	0.847995	-0.132150	0.957681
	O342	O	0.015446	0.040782	-0.104354
	H343	H	0.019093	0.045545	-0.105965
	H344	H	0.028182	0.040147	-0.090184
	O345	O	-0.076416	1.170159	0.907901
	H346	H	-0.090224	1.187759	0.896705
	H347	H	-0.078806	1.165371	0.912488
	O348	O	0.795866	0.179907	0.802130
	H349	H	0.787501	0.200303	0.779208
	H350	H	0.811390	0.171844	0.794453
	O351	O	0.485697	0.483468	0.323312
	H352	H	0.486125	0.502124	0.329583
	H353	H	0.482892	0.478788	0.322037
	O354	O	-0.034035	0.227085	0.795089
	H355	H	-0.035636	0.238007	0.788880
	H356	H	-0.025890	0.225336	0.786606
	O357	O	0.275153	0.729432	0.479537
	H358	H	0.284643	0.731437	0.487995
	H359	H	0.248241	0.743980	0.483198
	O360	O	0.048416	-0.189623	1.217068
	H361	H	0.057069	-0.194882	1.217064
	H362	H	0.050758	-0.202782	1.219485
	O363	O	0.208866	0.048475	0.227059
	H364	H	0.204481	0.050145	0.241315
	H365	H	0.206633	0.034427	0.245781
	O366	O	0.354426	0.531511	0.300051
	H367	H	0.343689	0.518112	0.288853
	H368	H	0.358698	0.519832	0.319640
	O369	O	0.953554	0.009733	0.209513
	H370	H	0.958021	0.013162	0.208212
	H371	H	0.942016	0.030059	0.204081
	O372	O	1.050707	0.805994	-0.119427
	H373	H	1.030650	0.801439	-0.107267
	H374	H	1.059624	0.832483	-0.116398
	O375	O	1.045228	0.098743	0.048548
	H376	H	1.043202	0.104319	0.045616
	H377	H	1.040611	0.104273	0.056210
	O378	O	0.689049	0.555588	0.316612
	H379	H	0.688437	0.562471	0.308783
	H380	H	0.685077	0.561661	0.311877
	O381	O	0.414154	0.499645	0.579772
	H382	H	0.421400	0.511241	0.587904
	H383	H	0.414196	0.503389	0.604289
	O384	O	1.132235	0.185892	0.868912
	H385	H	1.134354	0.183476	0.875599
	H386	H	1.133394	0.182518	0.879074
	O387	O	1.148595	0.796867	-0.060385
	H388	H	1.159745	0.789692	-0.062076
	H389	H	1.168163	0.796630	-0.068737
	O390	O	0.704197	0.378183	0.297338
	H391	H	0.697924	0.386251	0.290611
	H392	H	0.712058	0.381773	0.302692
	O393	O	0.676897	0.325147	0.695305
	H394	H	0.648081	0.335014	0.685315
	H395	H	0.674738	0.351698	0.667338
	O396	O	-0.191174	0.825189	0.817648
	H397	H	-0.174722	0.842622	0.839663
	H398	H	-0.170041	0.848576	0.825298
	O399	O	-0.134151	-0.009696	0.786236
	H400	H	-0.133179	-0.010396	0.783140
	H401	H	-0.129764	0.011964	0.792724
	O402	O	0.425101	0.563039	0.716056
	H403	H	0.444791	0.584313	0.723650
	H404	H	0.428334	0.564622	0.722633
	O405	O	1.026238	0.079922	0.889899
	H406	H	1.034808	0.086573	0.887629
	H407	H	1.020613	0.075894	0.884239
	O408	O	0.018635	0.190528	0.002833
	H409	H	0.028283	0.181812	0.005717
	H410	H	0.008317	0.197300	-0.000253
	O411	O	0.466670	0.298548	0.719041
	H412	H	0.470258	0.273547	0.723513
	H413	H	0.469544	0.308083	0.713459
	O414	O	0.520862	0.626349	0.506872
	H415	H	0.517938	0.630165	0.503333
	H416	H	0.529823	0.624547	0.519258
	O417	O	0.651193	0.448873	0.522536
	H418	H	0.659338	0.460269	0.518082
	H419	H	0.655573	0.454719	0.510408
	O420	O	0.537755	0.432187	0.330032
	H421	H	0.529241	0.417859	0.308763
	H422	H	0.534242	0.438704	0.340025
	O423	O	-0.223101	-0.146383	1.025521
	H424	H	-0.236967	-0.169442	1.028184
	H425	H	-0.214967	-0.140067	1.051418
	O426	O	0.628369	0.581014	0.365717
	H427	H	0.622214	0.598092	0.355360
	H428	H	0.633169	0.580019	0.368407
	O429	O	1.013399	1.223189	1.224607
	H430	H	1.043644	1.215025	1.217620
	H431	H	1.021816	1.246601	1.242144
	O432	O	0.282366	0.615981	0.593515
	H433	H	0.283885	0.598759	0.587068
	H434	H	0.284817	0.620443	0.595190
	O435	O	-0.144753	0.798803	0.213346
	H436	H	-0.108185	0.794224	0.194865
	H437	H	-0.146466	0.811291	0.214389
	O438	O	0.056366	-0.200640	0.069491
	H439	H	0.052595	-0.191809	0.066063
	H440	H	0.089461	-0.206260	0.058560
	O441	O	0.201412	-0.121819	-0.198866
	H442	H	0.210881	-0.126374	-0.207903
	H443	H	0.188375	-0.106560	-0.175422
	O444	O	0.294475	0.463289	-0.279550
	H445	H	0.266803	0.461618	-0.271940
	H446	H	0.310665	0.475546	-0.274574
	O447	O	0.382561	0.702318	0.646476
	H448	H	0.380178	0.701961	0.654875
	H449	H	0.395205	0.707356	0.659524
	O450	O	-0.153466	1.159169	1.070330
	H451	H	-0.164301	1.154979	1.057824
	H452	H	-0.160343	1.153877	1.064242
	O453	O	0.637163	0.567488	0.509893
	H454	H	0.637621	0.579216	0.517040
	H455	H	0.642916	0.564871	0.508881
	O456	O	0.293549	0.314994	0.681204
	H457	H	0.322241	0.321063	0.665714
	H458	H	0.290838	0.318830	0.689745
	O459	O	0.783439	0.975876	0.226148
	H460	H	0.774189	0.979031	0.248382
	H461	H	0.775091	0.989778	0.213850
	O462	O	1.131469	0.046928	-0.097937
	H463	H	1.133951	0.048542	-0.090999
	H464	H	1.140932	0.046828	-0.105646
	O465	O	0.865058	0.016521	-0.090519
	H466	H	0.860969	0.030752	-0.090938
	H467	H	0.867858	0.028442	-0.083818
	O468	O	0.544450	0.473703	0.737549
	H469	H	0.545793	0.482396	0.737749
	H470	H	0.571738	0.469859	0.744504
	O471	O	0.623786	0.446494	0.469774
	H472	H	0.614335	0.449289	0.462783
	H473	H	0.629547	0.452587	0.446725
	O474	O	0.000083	0.846510	-0.205226
	H475	H	0.006345	0.838283	-0.204078
	H476	H	-0.014809	0.848195	-0.208708
	O477	O	0.700571	0.718584	1.721343
	H478	H	0.724663	0.746865	1.741214
	H479	H	0.705174	0.719470	1.698338
	O480	O	0.724035	0.746467	0.274867
	H481	H	0.698792	0.763814	0.273300
	H482	H	0.754444	0.760492	0.261251
	O483	O	0.710761	0.730262	0.550016
	H484	H	0.731352	0.744438	0.550528
	H485	H	0.712326	0.726378	0.542273
	O486	O	0.826608	0.014985	1.077978
	H487	H	0.825994	0.029744	1.063105
	H488	H	0.829351	0.011074	1.074740
	O489	O	0.872342	1.122935	0.054563
	H490	H	0.878206	1.108102	0.041907
	H491	H	0.878405	1.124355	0.053990
