data_Molecule from HDF5

_cell_length_a		16.520205
_cell_length_b		16.480908
_cell_length_c		16.364391
_cell_angle_alpha	89.835777
_cell_angle_beta	90.078652
_cell_angle_gamma	89.935305
_symmetry_space_group_name_H-M	'P 1'
_symmetry_Int_Tables_number		1

loop_
	_symmetry_equiv_pos_as_xyz
	x,y,z

loop_
	_atom_site_label
	_atom_site_type_symbol
	_atom_site_fract_x
	_atom_site_fract_y
	_atom_site_fract_z
	H0	H	0.408404	0.844006	0.723755
	H1	H	0.621252	0.158559	0.722658
	H2	H	0.621044	0.843876	0.279657
	H3	H	0.407548	0.158243	0.276134
	H4	H	0.737407	0.395391	0.842550
	H5	H	0.736934	0.606716	0.158639
	H6	H	0.292495	0.609227	0.842006
	H7	H	0.291343	0.391602	0.157080
	H8	H	0.858480	0.724083	0.394026
	H9	H	0.170864	0.727354	0.613084
	H10	H	0.857231	0.278718	0.606938
	H11	H	0.170330	0.276270	0.391255
	H12	H	0.856877	0.396341	0.722011
	H13	H	0.170930	0.609217	0.726569
	H14	H	0.857077	0.605542	0.279810
	H15	H	0.171152	0.393107	0.276359
	H16	H	0.409969	0.722921	0.841222
	H17	H	0.621502	0.722665	0.158871
	H18	H	0.622103	0.279657	0.841757
	H19	H	0.408097	0.276694	0.157336
	H20	H	0.738840	0.845261	0.394298
	H21	H	0.740251	0.157060	0.610982
	H22	H	0.289571	0.845681	0.610914
	H23	H	0.291216	0.157839	0.391703
	H24	H	0.910132	0.342725	0.221468
	H25	H	0.121086	0.659176	0.223129
	H26	H	0.121629	0.344559	0.779084
	H27	H	0.908578	0.658773	0.777241
	H28	H	0.238173	0.894275	0.341719
	H29	H	0.238895	0.107544	0.657050
	H30	H	0.791763	0.109191	0.342727
	H31	H	0.793493	0.892887	0.657984
	H32	H	0.359471	0.224447	0.893103
	H33	H	0.671870	0.224854	0.109532
	H34	H	0.358255	0.777681	0.108755
	H35	H	0.670660	0.775680	0.891519
	H36	H	0.357346	0.895735	0.222225
	H37	H	0.673118	0.105743	0.222421
	H38	H	0.359088	0.106772	0.777943
	H39	H	0.671665	0.893281	0.776634
	H40	H	0.909110	0.222781	0.340586
	H41	H	0.123405	0.224461	0.657451
	H42	H	0.124777	0.776754	0.343450
	H43	H	0.908466	0.777245	0.657882
	H44	H	0.239750	0.345576	0.892841
	H45	H	0.239856	0.658492	0.110102
	H46	H	0.790511	0.345048	0.108831
	H47	H	0.790507	0.658484	0.891014
	H48	H	0.424215	0.115215	0.589792
	H49	H	0.603420	0.889927	0.587034
	H50	H	0.604855	0.113248	0.416398
	H51	H	0.424102	0.889240	0.414264
	H52	H	0.602606	0.416527	0.112356
	H53	H	0.601715	0.592849	0.885984
	H54	H	0.426623	0.590617	0.114300
	H55	H	0.428288	0.414639	0.887982
	H56	H	0.125200	0.584377	0.413358
	H57	H	0.905575	0.587695	0.583265
	H58	H	0.127843	0.406358	0.587011
	H59	H	0.904213	0.418335	0.408572
	H60	H	0.123490	0.416136	0.584005
	H61	H	0.904276	0.587195	0.591490
	H62	H	0.129758	0.590308	0.409034
	H63	H	0.899455	0.407512	0.408712
	H64	H	0.427199	0.588352	0.113077
	H65	H	0.604656	0.588644	0.886570
	H66	H	0.600422	0.411579	0.112722
	H67	H	0.427148	0.413727	0.887589
	H68	H	0.605960	0.115884	0.410823
	H69	H	0.605842	0.888828	0.586890
	H70	H	0.433196	0.111225	0.587768
	H71	H	0.426286	0.888150	0.410954
	H72	H	0.923943	0.614276	0.087304
	H73	H	0.096455	0.391663	0.090223
	H74	H	0.108485	0.615918	0.912869
	H75	H	0.923540	0.386743	0.909309
	H76	H	0.105397	0.914361	0.613371
	H77	H	0.101666	0.093262	0.385746
	H78	H	0.933337	0.089823	0.612017
	H79	H	0.927475	0.914339	0.387473
	H80	H	0.626644	0.084429	0.911385
	H81	H	0.405447	0.084233	0.087765
	H82	H	0.627964	0.906376	0.085645
	H83	H	0.400943	0.907769	0.912117
	H84	H	0.624734	0.917415	0.086452
	H85	H	0.401541	0.092491	0.092495
	H86	H	0.630366	0.092500	0.909011
	H87	H	0.406092	0.915898	0.918287
	H88	H	0.924405	0.094761	0.615717
	H89	H	0.106806	0.088941	0.386060
	H90	H	0.102182	0.916039	0.611509
	H91	H	0.928270	0.914353	0.387724
	H92	H	0.099393	0.614007	0.908615
	H93	H	0.106590	0.392304	0.079778
	H94	H	0.925793	0.613630	0.090026
	H95	H	0.929477	0.390117	0.912214
	H96	H	0.426184	0.110953	0.580486
	H97	H	0.604762	0.888646	0.589335
	H98	H	0.600506	0.112861	0.411710
	H99	H	0.428000	0.889753	0.414016
	H100	H	0.605823	0.411922	0.114158
	H101	H	0.600085	0.588162	0.889131
	H102	H	0.428374	0.590319	0.113573
	H103	H	0.427074	0.415339	0.888051
	H104	H	0.126747	0.591337	0.416710
	H105	H	0.902137	0.594179	0.587601
	H106	H	0.128027	0.414361	0.594399
	H107	H	0.904992	0.411979	0.418948
	H108	H	0.926702	0.613146	0.086803
	H109	H	0.109917	0.386375	0.092548
	H110	H	0.101094	0.611254	0.917973
	H111	H	0.923522	0.389791	0.916424
	H112	H	0.101642	0.912284	0.612762
	H113	H	0.100812	0.087069	0.388285
	H114	H	0.924334	0.084978	0.612988
	H115	H	0.927463	0.913529	0.388292
	H116	H	0.627244	0.091737	0.917207
	H117	H	0.404502	0.093131	0.082491
	H118	H	0.629201	0.911143	0.095746
	H119	H	0.403074	0.917749	0.907553
	C120	C	0.394007	0.009208	0.620791
	C121	C	0.637820	0.992345	0.622517
	C122	C	0.636539	0.009743	0.379967
	C123	C	0.393778	0.992932	0.379346
	C124	C	0.636231	0.380140	0.008855
	C125	C	0.636117	0.623013	0.991462
	C126	C	0.394144	0.622808	0.008799
	C127	C	0.394685	0.380533	0.991995
	C128	C	0.023405	0.621936	0.379909
	C129	C	1.006898	0.623046	0.621872
	C130	C	0.022815	0.379303	0.621721
	C131	C	1.006127	0.378984	0.378400
	C132	C	0.893278	0.509613	0.121397
	C133	C	0.137187	0.493672	0.121901
	C134	C	0.136632	0.510496	0.879343
	C135	C	0.893029	0.493099	0.879221
	C136	C	0.137204	0.879904	0.508740
	C137	C	0.136635	0.122744	0.490982
	C138	C	0.894248	0.122498	0.508543
	C139	C	0.894883	0.880627	0.492023
	C140	C	0.524529	0.122816	0.878952
	C141	C	0.507175	0.122885	0.121891
	C142	C	0.523335	0.878927	0.122484
	C143	C	0.506773	0.880088	0.878940
	C144	C	0.390544	0.891456	0.683402
	C145	C	0.640262	0.110752	0.683367
	C146	C	0.639370	0.891502	0.319485
	C147	C	0.390048	0.111052	0.317129
	C148	C	0.697192	0.377273	0.890016
	C149	C	0.697083	0.625449	0.110832
	C150	C	0.332901	0.626302	0.889612
	C151	C	0.332852	0.375452	0.110199
	C152	C	0.905526	0.683433	0.376239
	C153	C	0.124034	0.685722	0.628451
	C154	C	0.904425	0.318986	0.624622
	C155	C	0.123597	0.317132	0.374197
	C156	C	0.904432	0.377533	0.682078
	C157	C	0.124219	0.626982	0.685293
	C158	C	0.904935	0.624475	0.319164
	C159	C	0.123850	0.375365	0.316676
	C160	C	0.391365	0.683229	0.889201
	C161	C	0.639567	0.683114	0.111061
	C162	C	0.639637	0.319496	0.889701
	C163	C	0.390899	0.317973	0.110210
	C164	C	0.698388	0.892208	0.376255
	C165	C	0.699418	0.110122	0.627443
	C166	C	0.331378	0.892068	0.626871
	C167	C	0.332161	0.110942	0.374795
	C168	C	0.891400	0.390551	0.181867
	C169	C	0.139448	0.611731	0.183265
	C170	C	0.139895	0.392202	0.818543
	C171	C	0.890368	0.611576	0.817684
	C172	C	0.198835	0.875683	0.389907
	C173	C	0.198351	0.126005	0.609849
	C174	C	0.832506	0.126534	0.389914
	C175	C	0.833874	0.876069	0.610574
	C176	C	0.406513	0.184199	0.874941
	C177	C	0.625036	0.183942	0.126462
	C178	C	0.405346	0.818024	0.126018
	C179	C	0.624057	0.817318	0.874457
	C180	C	0.405115	0.876949	0.182761
	C181	C	0.625663	0.124483	0.182563
	C182	C	0.406385	0.125683	0.817800
	C183	C	0.624487	0.875540	0.816948
	C184	C	0.890895	0.183311	0.388984
	C185	C	0.141038	0.184219	0.609848
	C186	C	0.142519	0.816991	0.390761
	C187	C	0.891283	0.818123	0.610288
	C188	C	0.198855	0.392858	0.875333
	C189	C	0.198630	0.611355	0.126704
	C190	C	0.831742	0.391702	0.125709
	C191	C	0.831680	0.611358	0.874540
	C192	C	0.420189	0.091045	0.593724
	C193	C	0.612079	0.910465	0.595585
	C194	C	0.610985	0.092506	0.405667
	C195	C	0.418904	0.910624	0.405520
	C196	C	0.610391	0.405909	0.091449
	C197	C	0.609990	0.597268	0.908943
	C198	C	0.419829	0.597059	0.091816
	C199	C	0.420335	0.407041	0.909258
	C200	C	0.105776	0.596209	0.405876
	C201	C	0.925423	0.597067	0.595192
	C202	C	0.105081	0.404769	0.596022
	C203	C	0.924168	0.405147	0.404731
	C204	C	0.918449	0.592080	0.095557
	C205	C	0.111480	0.411310	0.095308
	C206	C	0.110569	0.592272	0.905489
	C207	C	0.918296	0.410647	0.905155
	C208	C	0.110684	0.906555	0.590918
	C209	C	0.110605	0.096993	0.408234
	C210	C	0.920085	0.097140	0.591882
	C211	C	0.920516	0.906881	0.409333
	C212	C	0.606542	0.097022	0.905059
	C213	C	0.425300	0.097421	0.095221
	C214	C	0.605830	0.904294	0.096734
	C215	C	0.425038	0.906229	0.905332
	Zn216	Zn	0.515329	0.001172	0.749651
	Zn217	Zn	0.514931	0.001191	0.250861
	Zn218	Zn	0.764480	0.501898	0.000235
	Zn219	Zn	0.266139	0.501907	0.000778
	Zn220	Zn	0.016067	0.752076	0.500367
	Zn221	Zn	0.014450	0.250547	0.500246
	Zn222	Zn	0.014456	0.501331	0.750621
	Zn223	Zn	0.014782	0.501234	0.250101
	Zn224	Zn	0.514984	0.751461	0.000631
	Zn225	Zn	0.515603	0.251501	0.000329
	Zn226	Zn	0.765882	0.001701	0.500971
	Zn227	Zn	0.264507	0.001278	0.499683
	N228	N	0.429245	0.965176	0.679358
	N229	N	0.602779	0.036496	0.680663
	N230	N	0.601712	0.965785	0.321709
	N231	N	0.428014	0.036932	0.320182
	N232	N	0.695370	0.414113	0.965104
	N233	N	0.695274	0.589164	0.035393
	N234	N	0.334492	0.589614	0.965149
	N235	N	0.335071	0.413677	0.035519
	N236	N	0.980388	0.682008	0.413112
	N237	N	0.050348	0.683296	0.589531
	N238	N	0.979258	0.319762	0.588149
	N239	N	0.049368	0.319439	0.412018
	N240	N	0.979156	0.414228	0.680559
	N241	N	0.050484	0.588667	0.681451
	N242	N	0.979164	0.586956	0.321396
	N243	N	0.049643	0.412864	0.318990
	N244	N	0.428593	0.681277	0.964293
	N245	N	0.602415	0.681950	0.035837
	N246	N	0.602418	0.321090	0.964696
	N247	N	0.428515	0.321009	0.035568
	N248	N	0.696614	0.966987	0.413174
	N249	N	0.698235	0.035361	0.590563
	N250	N	0.333457	0.966353	0.588575
	N251	N	0.334451	0.036594	0.412884
	N252	N	0.928866	0.464826	0.179288
	N253	N	0.102006	0.537310	0.180430
	N254	N	0.102036	0.466395	0.820686
	N255	N	0.927657	0.537048	0.820350
	N256	N	0.195730	0.914083	0.464371
	N257	N	0.195783	0.088628	0.534860
	N258	N	0.834296	0.089643	0.465478
	N259	N	0.835889	0.914389	0.536081
	N260	N	0.480976	0.182593	0.912097
	N261	N	0.550250	0.183135	0.089401
	N262	N	0.480352	0.818843	0.089377
	N263	N	0.549878	0.819876	0.912198
	N264	N	0.479611	0.913662	0.180901
	N265	N	0.551341	0.087383	0.180137
	N266	N	0.480842	0.088437	0.819882
	N267	N	0.550689	0.913946	0.819702
	N268	N	0.928331	0.181067	0.463957
	N269	N	0.103570	0.182613	0.534870
	N270	N	0.105115	0.819259	0.465603
	N271	N	0.928737	0.821044	0.535418
	N272	N	0.197030	0.467434	0.912429
	N273	N	0.197424	0.536821	0.089404
	N274	N	0.832740	0.466772	0.088815
	N275	N	0.833414	0.536697	0.912260
	O276	O	-0.008893	0.789653	0.216446
	H277	H	-0.004530	0.780053	0.227785
	H278	H	-0.020708	0.780451	0.217256
	O279	O	0.827142	-0.185486	1.187118
	H280	H	0.820367	-0.179286	1.205367
	H281	H	0.836631	-0.194361	1.155603
	O282	O	0.511849	0.505207	0.404619
	H283	H	0.507947	0.501694	0.396925
	H284	H	0.499822	0.516253	0.408038
	O285	O	0.698339	1.319704	0.319354
	H286	H	0.677827	1.310274	0.338625
	H287	H	0.683382	1.318972	0.305343
	O288	O	0.294579	0.476632	0.716244
	H289	H	0.299894	0.432424	0.711015
	H290	H	0.265228	0.463510	0.747965
	O291	O	0.305491	0.290610	0.517172
	H292	H	0.272592	0.262305	0.519413
	H293	H	0.298065	0.333708	0.498105
	O294	O	0.206883	0.146327	1.189678
	H295	H	0.202000	0.154066	1.185268
	H296	H	0.216175	0.115845	1.186151
	O297	O	0.430984	0.293490	0.411585
	H298	H	0.425599	0.302582	0.407921
	H299	H	0.417129	0.300339	0.420215
	O300	O	0.366555	0.475795	0.473597
	H301	H	0.371950	0.495388	0.459553
	H302	H	0.369598	0.491758	0.486238
	O303	O	0.131186	0.150987	0.893068
	H304	H	0.129471	0.151078	0.884262
	H305	H	0.141914	0.150361	0.882149
	O306	O	0.714279	0.384087	0.526088
	H307	H	0.718071	0.372377	0.510591
	H308	H	0.721456	0.386572	0.526803
	O309	O	0.327455	0.317279	0.682946
	H310	H	0.313792	0.300087	0.647070
	H311	H	0.378054	0.304817	0.692009
	O312	O	0.146517	1.097172	0.801165
	H313	H	0.124085	1.092683	0.811296
	H314	H	0.134218	1.102284	0.793492
	O315	O	0.545186	0.313776	0.507735
	H316	H	0.514631	0.310117	0.488075
	H317	H	0.548543	0.322878	0.515162
	O318	O	1.172622	0.104609	-0.023077
	H319	H	1.177379	0.116769	-0.038164
	H320	H	1.164467	0.104222	-0.033606
	O321	O	-0.002619	0.217489	0.022137
	H322	H	0.011722	0.215206	0.014639
	H323	H	0.003779	0.211550	0.001476
	O324	O	0.718176	0.519457	0.706709
	H325	H	0.710760	0.541866	0.700651
	H326	H	0.734041	0.515661	0.718939
	O327	O	0.537339	0.287543	0.292112
	H328	H	0.520109	0.295738	0.291557
	H329	H	0.526447	0.268650	0.285489
	O330	O	-0.151022	0.867230	0.080609
	H331	H	-0.158205	0.875334	0.066106
	H332	H	-0.145069	0.864347	0.073643
	O333	O	0.299556	0.716373	0.482856
	H334	H	0.269948	0.725685	0.488347
	H335	H	0.289194	0.702372	0.500372
	O336	O	0.092023	-0.087442	0.165917
	H337	H	0.084669	-0.085629	0.163637
	H338	H	0.083347	-0.103087	0.159721
	O339	O	-0.198299	0.953428	0.947835
	H340	H	-0.212228	0.949443	0.945637
	H341	H	-0.187801	0.966559	0.967567
	O342	O	0.151295	0.969500	1.134911
	H343	H	0.162650	0.966815	1.132711
	H344	H	0.132788	0.965457	1.144168
	O345	O	0.990779	1.110237	0.192787
	H346	H	1.004360	1.106953	0.194441
	H347	H	0.995030	1.118348	0.179544
	O348	O	0.494516	0.294260	0.693051
	H349	H	0.519353	0.301282	0.686030
	H350	H	0.499839	0.276057	0.702610
	O351	O	-0.106323	0.969364	1.210880
	H352	H	-0.109760	0.954870	1.207932
	H353	H	-0.097677	0.959933	1.221968
	O354	O	-0.390889	0.538317	0.298554
	H355	H	-0.371133	0.532993	0.307329
	H356	H	-0.413236	0.526388	0.296017
	O357	O	-0.413231	0.709471	0.540496
	H358	H	-0.425972	0.703575	0.538289
	H359	H	-0.411717	0.706989	0.552785
	O360	O	0.712178	0.607599	0.483135
	H361	H	0.699168	0.590333	0.501478
	H362	H	0.724949	0.598897	0.468557
	O363	O	0.090044	0.044104	1.010363
	H364	H	0.098384	0.053041	1.026843
	H365	H	0.089028	0.046292	1.007430
	O366	O	0.726130	0.341038	0.512671
	H367	H	0.718131	0.320127	0.503745
	H368	H	0.735951	0.345949	0.512282
	O369	O	0.296798	0.518239	0.282011
	H370	H	0.307431	0.569076	0.294234
	H371	H	0.264666	0.526747	0.246850
	O372	O	0.798011	0.031667	0.966808
	H373	H	0.817762	0.016089	0.973903
	H374	H	0.792111	0.031357	0.962045
	O375	O	0.541337	0.706008	0.701632
	H376	H	0.528203	0.717170	0.699738
	H377	H	0.520994	0.702460	0.714384
	O378	O	1.036000	0.799856	0.800441
	H379	H	1.041624	0.787322	0.804812
	H380	H	1.031799	0.790046	0.803722
	O381	O	0.584116	0.413344	0.713518
	H382	H	0.597909	0.420078	0.709586
	H383	H	0.582423	0.416098	0.707124
	O384	O	0.517694	0.465043	0.574611
	H385	H	0.515691	0.461049	0.574064
	H386	H	0.522994	0.458221	0.569663
	O387	O	0.206369	-0.182642	0.856385
	H388	H	0.213270	-0.162607	0.847663
	H389	H	0.191504	-0.173285	0.858109
	O390	O	0.010954	0.017325	-0.177708
	H391	H	0.001219	0.020919	-0.165651
	H392	H	0.008167	0.001368	-0.183871
	O393	O	1.213339	1.123028	1.050453
	H394	H	1.204191	1.131556	1.059735
	H395	H	1.220921	1.096454	1.074915
	O396	O	0.959225	0.204353	0.184034
	H397	H	0.974993	0.230224	0.201781
	H398	H	0.946584	0.177176	0.173180
	O399	O	0.866863	-0.070063	1.016373
	H400	H	0.863512	-0.055693	1.013293
	H401	H	0.863114	-0.058235	1.009720
	O402	O	0.996023	0.933270	1.041420
	H403	H	0.996303	0.935751	1.050512
	H404	H	1.003571	0.943818	1.042245
	O405	O	1.503738	0.720019	-0.498246
	H406	H	1.478437	0.721075	-0.501662
	H407	H	1.525576	0.721071	-0.495638
	O408	O	0.851896	-0.008303	-0.212466
	H409	H	0.843913	-0.025768	-0.220014
	H410	H	0.862277	-0.013119	-0.211257
	O411	O	0.804901	1.210953	-0.016147
	H412	H	0.821104	1.210354	0.010430
	H413	H	0.784033	1.231678	-0.015040
	O414	O	-0.045671	0.782282	1.015463
	H415	H	-0.062941	0.779411	1.015582
	H416	H	-0.043175	0.783848	1.043009
	O417	O	0.490184	0.713524	0.290558
	H418	H	0.517523	0.706045	0.300493
	H419	H	0.496468	0.739201	0.269150
	O420	O	0.225429	-0.182842	-0.003729
	H421	H	0.230767	-0.197786	-0.020989
	H422	H	0.222073	-0.193844	-0.019069
	O423	O	0.395390	0.428283	0.334738
	H424	H	0.376081	0.446321	0.329006
	H425	H	0.397553	0.438892	0.328907
	O426	O	0.702646	0.683547	0.680592
	H427	H	0.680540	0.689240	0.667195
	H428	H	0.682114	0.666268	0.679590
	O429	O	0.620547	0.666009	0.384723
	H430	H	0.625871	0.637448	0.377561
	H431	H	0.622685	0.670415	0.405058
	O432	O	0.138982	-0.072625	-0.010011
	H433	H	0.146032	-0.085291	-0.006042
	H434	H	0.128019	-0.059982	-0.012770
	O435	O	0.334290	0.672016	0.325006
	H436	H	0.340511	0.687921	0.359379
	H437	H	0.368323	0.687313	0.331624
	O438	O	-0.008157	0.221740	-0.219198
	H439	H	-0.048147	0.219363	-0.214326
	H440	H	-0.026018	0.247148	-0.246101
	O441	O	0.838918	0.180373	-0.176736
	H442	H	0.822634	0.136043	-0.188819
	H443	H	0.826146	0.184184	-0.130060
	O444	O	0.152477	0.949351	0.800786
	H445	H	0.137928	0.970993	0.789426
	H446	H	0.145662	0.949231	0.796246
	O447	O	0.455894	0.560306	0.673506
	H448	H	0.464944	0.545669	0.674743
	H449	H	0.431937	0.546978	0.685045
	O450	O	0.293004	0.565856	0.560402
	H451	H	0.306570	0.549404	0.584057
	H452	H	0.295424	0.555356	0.569937
	O453	O	0.729326	0.493877	0.338387
	H454	H	0.755398	0.499588	0.314497
	H455	H	0.715710	0.460308	0.350979
