data_Molecule from HDF5

_cell_length_a		16.447574
_cell_length_b		16.518203
_cell_length_c		16.398913
_cell_angle_alpha	90.115646
_cell_angle_beta	90.128909
_cell_angle_gamma	89.895062
_symmetry_space_group_name_H-M	'P 1'
_symmetry_Int_Tables_number		1

loop_
	_symmetry_equiv_pos_as_xyz
	x,y,z

loop_
	_atom_site_label
	_atom_site_type_symbol
	_atom_site_fract_x
	_atom_site_fract_y
	_atom_site_fract_z
	H0	H	0.405602	0.850635	0.730216
	H1	H	0.621746	0.163064	0.726399
	H2	H	0.621416	0.848477	0.279977
	H3	H	0.403917	0.162370	0.279462
	H4	H	0.735063	0.402308	0.845706
	H5	H	0.738132	0.614667	0.162159
	H6	H	0.287662	0.617668	0.848708
	H7	H	0.289188	0.396838	0.161227
	H8	H	0.857899	0.728291	0.395683
	H9	H	0.171405	0.728787	0.614203
	H10	H	0.856338	0.282822	0.609852
	H11	H	0.170235	0.277868	0.393564
	H12	H	0.855818	0.400026	0.725482
	H13	H	0.171445	0.612776	0.729071
	H14	H	0.856088	0.608725	0.283389
	H15	H	0.170950	0.394296	0.278567
	H16	H	0.403044	0.731862	0.849078
	H17	H	0.622395	0.730238	0.162097
	H18	H	0.624644	0.281019	0.848534
	H19	H	0.406354	0.282180	0.161617
	H20	H	0.738085	0.849027	0.395094
	H21	H	0.739946	0.160217	0.612581
	H22	H	0.291485	0.849338	0.612144
	H23	H	0.289453	0.163072	0.396572
	H24	H	0.906266	0.348749	0.227405
	H25	H	0.123078	0.661109	0.229284
	H26	H	0.121104	0.348319	0.781693
	H27	H	0.906777	0.662115	0.780918
	H28	H	0.237807	0.896792	0.346582
	H29	H	0.237083	0.112513	0.662055
	H30	H	0.790349	0.111768	0.346480
	H31	H	0.791027	0.896820	0.661116
	H32	H	0.360027	0.232546	0.894061
	H33	H	0.672402	0.228536	0.113803
	H34	H	0.357602	0.780233	0.112815
	H35	H	0.671080	0.783494	0.897711
	H36	H	0.356716	0.897139	0.228514
	H37	H	0.671940	0.110483	0.227004
	H38	H	0.357784	0.113967	0.780755
	H39	H	0.672753	0.901571	0.784933
	H40	H	0.902617	0.230301	0.347342
	H41	H	0.124067	0.230834	0.660375
	H42	H	0.123158	0.779885	0.347320
	H43	H	0.908430	0.782797	0.662308
	H44	H	0.242451	0.351177	0.892363
	H45	H	0.238600	0.661312	0.112424
	H46	H	0.789271	0.350258	0.112563
	H47	H	0.790711	0.662530	0.896911
	H48	H	0.418409	0.119848	0.590178
	H49	H	0.603452	0.893707	0.591142
	H50	H	0.600285	0.116791	0.416228
	H51	H	0.427132	0.895342	0.417433
	H52	H	0.601272	0.420320	0.116717
	H53	H	0.606969	0.589057	0.891460
	H54	H	0.429824	0.590635	0.114947
	H55	H	0.426479	0.417284	0.890980
	H56	H	0.124547	0.589657	0.421810
	H57	H	0.902468	0.593449	0.590701
	H58	H	0.126138	0.420221	0.594913
	H59	H	0.902391	0.416355	0.415601
	H60	H	0.127730	0.412617	0.593383
	H61	H	0.901530	0.593921	0.593717
	H62	H	0.127679	0.589974	0.413790
	H63	H	0.903825	0.417029	0.418144
	H64	H	0.430617	0.593634	0.116080
	H65	H	0.596073	0.595966	0.893511
	H66	H	0.601549	0.416540	0.117828
	H67	H	0.427982	0.424708	0.895395
	H68	H	0.601602	0.115902	0.418445
	H69	H	0.604041	0.892242	0.593894
	H70	H	0.428883	0.119281	0.599064
	H71	H	0.424545	0.894003	0.416440
	H72	H	0.921907	0.620214	0.098184
	H73	H	0.106040	0.392690	0.089874
	H74	H	0.093493	0.613987	0.918521
	H75	H	0.922455	0.392147	0.914181
	H76	H	0.096255	0.920260	0.612559
	H77	H	0.094948	0.093515	0.392736
	H78	H	0.924352	0.087874	0.615211
	H79	H	0.927953	0.917751	0.391616
	H80	H	0.625609	0.090172	0.918261
	H81	H	0.401886	0.098471	0.088454
	H82	H	0.623626	0.919272	0.089817
	H83	H	0.401711	0.921189	0.917217
	H84	H	0.626488	0.919137	0.095953
	H85	H	0.404587	0.090605	0.087536
	H86	H	0.629838	0.094891	0.912088
	H87	H	0.401508	0.918061	0.917611
	H88	H	0.933470	0.092211	0.613619
	H89	H	0.104854	0.093775	0.389684
	H90	H	0.101809	0.909767	0.619202
	H91	H	0.927909	0.915208	0.390639
	H92	H	0.105974	0.615803	0.924195
	H93	H	0.098614	0.393835	0.092852
	H94	H	0.932472	0.616431	0.095049
	H95	H	0.926286	0.393693	0.914003
	H96	H	0.430129	0.114060	0.586612
	H97	H	0.601168	0.892999	0.593401
	H98	H	0.602663	0.117570	0.417027
	H99	H	0.426404	0.894936	0.414330
	H100	H	0.604749	0.418412	0.118211
	H101	H	0.606238	0.601703	0.887984
	H102	H	0.427403	0.592190	0.115758
	H103	H	0.434371	0.419145	0.894973
	H104	H	0.127573	0.596852	0.418379
	H105	H	0.901384	0.596231	0.591511
	H106	H	0.125012	0.416852	0.587600
	H107	H	0.903558	0.418982	0.416121
	H108	H	0.923869	0.616690	0.086660
	H109	H	0.099934	0.395549	0.085282
	H110	H	0.103249	0.619504	0.911337
	H111	H	0.924228	0.393372	0.918069
	H112	H	0.109241	0.920965	0.617759
	H113	H	0.101505	0.085172	0.393833
	H114	H	0.925797	0.097768	0.618330
	H115	H	0.925445	0.916858	0.391202
	H116	H	0.627961	0.098210	0.920165
	H117	H	0.401362	0.093457	0.095100
	H118	H	0.627404	0.914108	0.092246
	H119	H	0.403124	0.919548	0.919580
	C120	C	0.392455	0.014740	0.626084
	C121	C	0.636180	0.996621	0.625760
	C122	C	0.635226	0.013349	0.382659
	C123	C	0.391600	0.997795	0.381791
	C124	C	0.635771	0.385524	0.013263
	C125	C	0.636502	0.628542	0.995765
	C126	C	0.393440	0.627110	0.012868
	C127	C	0.394259	0.385529	0.996647
	C128	C	0.022827	0.625185	0.383882
	C129	C	1.005934	0.627246	0.626137
	C130	C	0.022167	0.383951	0.625007
	C131	C	1.005966	0.382514	0.381835
	C132	C	0.892603	0.514086	0.126355
	C133	C	0.136136	0.496724	0.124968
	C134	C	0.135960	0.513681	0.883078
	C135	C	0.891577	0.497018	0.882289
	C136	C	0.136517	0.882893	0.512768
	C137	C	0.134598	0.125594	0.495798
	C138	C	0.892974	0.126226	0.512226
	C139	C	0.893960	0.883713	0.495808
	C140	C	0.524125	0.127965	0.883064
	C141	C	0.506208	0.127193	0.125123
	C142	C	0.522249	0.883687	0.126265
	C143	C	0.505644	0.885695	0.884132
	C144	C	0.388359	0.897529	0.688951
	C145	C	0.639348	0.115216	0.686302
	C146	C	0.638568	0.895712	0.320847
	C147	C	0.386934	0.115388	0.320001
	C148	C	0.695823	0.383301	0.893706
	C149	C	0.697742	0.632232	0.114559
	C150	C	0.328982	0.633627	0.896001
	C151	C	0.330807	0.380323	0.114271
	C152	C	0.904752	0.687027	0.379131
	C153	C	0.124227	0.688340	0.630797
	C154	C	0.903525	0.323307	0.627738
	C155	C	0.123553	0.319457	0.376850
	C156	C	0.903302	0.381870	0.685094
	C157	C	0.123998	0.630388	0.688255
	C158	C	0.904016	0.627581	0.322914
	C159	C	0.123672	0.377170	0.319032
	C160	C	0.386666	0.690754	0.895669
	C161	C	0.639826	0.689969	0.114421
	C162	C	0.641053	0.322909	0.895109
	C163	C	0.389153	0.322959	0.114449
	C164	C	0.697310	0.895997	0.377905
	C165	C	0.698606	0.113804	0.629872
	C166	C	0.331591	0.896737	0.629872
	C167	C	0.329596	0.115421	0.378268
	C168	C	0.888425	0.396339	0.187402
	C169	C	0.140776	0.614127	0.188330
	C170	C	0.139603	0.395970	0.821345
	C171	C	0.888684	0.615144	0.821366
	C172	C	0.197849	0.879265	0.394231
	C173	C	0.196835	0.130335	0.614398
	C174	C	0.830321	0.129944	0.394148
	C175	C	0.832118	0.879759	0.614158
	C176	C	0.406555	0.190999	0.877558
	C177	C	0.624654	0.188351	0.130661
	C178	C	0.404408	0.821437	0.130522
	C179	C	0.623888	0.824135	0.880506
	C180	C	0.403933	0.880066	0.187677
	C181	C	0.624771	0.129159	0.186785
	C182	C	0.405678	0.132044	0.820944
	C183	C	0.624705	0.882928	0.824118
	C184	C	0.886971	0.188644	0.394476
	C185	C	0.140327	0.189147	0.613526
	C186	C	0.140989	0.820712	0.394633
	C187	C	0.890605	0.822738	0.614588
	C188	C	0.200044	0.397351	0.876595
	C189	C	0.198304	0.614281	0.130249
	C190	C	0.829733	0.397140	0.130345
	C191	C	0.830894	0.615411	0.879146
	C192	C	0.418342	0.096499	0.599696
	C193	C	0.610313	0.914359	0.600279
	C194	C	0.608960	0.095295	0.409422
	C195	C	0.418562	0.916092	0.408191
	C196	C	0.609951	0.411103	0.096059
	C197	C	0.610597	0.603081	0.912644
	C198	C	0.421309	0.600014	0.094275
	C199	C	0.421712	0.412665	0.915160
	C200	C	0.105240	0.599420	0.410476
	C201	C	0.923479	0.601758	0.599525
	C202	C	0.104598	0.409348	0.599521
	C203	C	0.924475	0.409499	0.408888
	C204	C	0.918684	0.596224	0.100560
	C205	C	0.109254	0.415330	0.097341
	C206	C	0.108762	0.595229	0.910189
	C207	C	0.917005	0.414573	0.907943
	C208	C	0.109941	0.909340	0.594967
	C209	C	0.108014	0.098584	0.413597
	C210	C	0.920031	0.099965	0.594444
	C211	C	0.919674	0.909328	0.412939
	C212	C	0.606249	0.101834	0.909380
	C213	C	0.424159	0.101677	0.098057
	C214	C	0.604414	0.910046	0.100122
	C215	C	0.423580	0.911918	0.910561
	Zn216	Zn	0.514951	0.006150	0.754645
	Zn217	Zn	0.513637	0.006279	0.253858
	Zn218	Zn	0.764255	0.506148	0.004524
	Zn219	Zn	0.264983	0.505993	0.003721
	Zn220	Zn	0.014779	0.755232	0.503909
	Zn221	Zn	0.014236	0.254362	0.503465
	Zn222	Zn	0.014013	0.505815	0.754359
	Zn223	Zn	0.015334	0.504796	0.254148
	Zn224	Zn	0.513807	0.755863	0.004306
	Zn225	Zn	0.515481	0.256413	0.004901
	Zn226	Zn	0.764881	0.004145	0.504032
	Zn227	Zn	0.263878	0.005835	0.504430
	N228	N	0.425766	0.971908	0.686748
	N229	N	0.601270	0.041314	0.683895
	N230	N	0.600625	0.969775	0.323728
	N231	N	0.424494	0.040887	0.321675
	N232	N	0.692753	0.421423	0.968214
	N233	N	0.695822	0.594788	0.039670
	N234	N	0.333285	0.594507	0.969782
	N235	N	0.333615	0.418442	0.039799
	N236	N	0.979835	0.685778	0.416097
	N237	N	0.049618	0.686575	0.592874
	N238	N	0.978620	0.324175	0.591226
	N239	N	0.049269	0.322452	0.414881
	N240	N	0.978041	0.418665	0.683739
	N241	N	0.049299	0.593257	0.685681
	N242	N	0.978535	0.589953	0.325538
	N243	N	0.049666	0.415675	0.321924
	N244	N	0.426472	0.686824	0.969230
	N245	N	0.602714	0.687870	0.039233
	N246	N	0.604556	0.324013	0.970473
	N247	N	0.427732	0.325965	0.040330
	N248	N	0.695499	0.970297	0.415727
	N249	N	0.696698	0.039186	0.592664
	N250	N	0.333986	0.970520	0.591552
	N251	N	0.332254	0.041145	0.415772
	N252	N	0.926613	0.470212	0.185062
	N253	N	0.102997	0.539961	0.185246
	N254	N	0.100573	0.469601	0.825089
	N255	N	0.925716	0.540566	0.823213
	N256	N	0.195536	0.917102	0.468868
	N257	N	0.193452	0.091569	0.540269
	N258	N	0.833882	0.091833	0.468513
	N259	N	0.833965	0.916842	0.539181
	N260	N	0.481235	0.188722	0.915216
	N261	N	0.549792	0.187272	0.093143
	N262	N	0.479058	0.823584	0.093281
	N263	N	0.548607	0.825448	0.916859
	N264	N	0.478141	0.918035	0.185224
	N265	N	0.550102	0.092009	0.183736
	N266	N	0.479734	0.093663	0.823945
	N267	N	0.550265	0.920549	0.826191
	N268	N	0.925197	0.186523	0.468989
	N269	N	0.102402	0.186378	0.538789
	N270	N	0.103743	0.822746	0.469416
	N271	N	0.928435	0.825264	0.539951
	N272	N	0.197815	0.471708	0.914017
	N273	N	0.195859	0.540161	0.091929
	N274	N	0.832034	0.471653	0.093236
	N275	N	0.832588	0.540940	0.916296
	O276	O	-0.043130	0.801609	0.004062
	H277	H	-0.037273	0.825664	0.001866
	H278	H	-0.045510	0.799278	0.009726
	O279	O	0.916814	0.212853	1.046715
	H280	H	0.892275	0.198302	1.037621
	H281	H	0.921914	0.219661	1.029080
	O282	O	0.644885	0.703756	0.694483
	H283	H	0.664437	0.666284	0.699283
	H284	H	0.628448	0.719270	0.715982
	O285	O	0.379492	1.602167	0.568493
	H286	H	0.376460	1.617040	0.578129
	H287	H	0.385032	1.589474	0.581362
	O288	O	0.688708	0.307644	0.418032
	H289	H	0.696256	0.333091	0.389039
	H290	H	0.691816	0.289483	0.440912
	O291	O	0.338904	0.326767	0.683384
	H292	H	0.325629	0.361994	0.679257
	H293	H	0.342711	0.315440	0.645442
	O294	O	0.234997	0.222333	1.018620
	H295	H	0.233379	0.232469	1.047644
	H296	H	0.250399	0.233589	1.047803
	O297	O	-0.165773	0.207523	-0.033962
	H298	H	-0.163756	0.188904	-0.032472
	H299	H	-0.167090	0.223931	-0.045090
	O300	O	0.378690	0.587569	0.665071
	H301	H	0.402224	0.594053	0.661758
	H302	H	0.396794	0.587430	0.668518
	O303	O	0.107809	-0.182588	1.083644
	H304	H	0.097331	-0.185965	1.090602
	H305	H	0.085823	-0.171500	1.097202
	O306	O	0.896937	-0.021863	-0.137893
	H307	H	0.899042	-0.008589	-0.156304
	H308	H	0.883157	-0.011018	-0.141800
	O309	O	0.370094	0.692809	0.568348
	H310	H	0.387650	0.670903	0.571637
	H311	H	0.353732	0.704052	0.577169
	O312	O	0.473496	1.500770	0.397861
	H313	H	0.470212	1.513636	0.399443
	H314	H	0.465570	1.503728	0.409576
	O315	O	0.711253	0.492780	0.524721
	H316	H	0.705003	0.492298	0.526965
	H317	H	0.716481	0.493050	0.520622
	O318	O	1.210958	-0.173854	-0.010501
	H319	H	1.207112	-0.179581	-0.003316
	H320	H	1.202690	-0.181824	0.008729
	O321	O	0.185505	0.188268	0.167724
	H322	H	0.196990	0.135812	0.182750
	H323	H	0.134334	0.196590	0.175436
	O324	O	0.727652	0.717523	0.523615
	H325	H	0.748929	0.736438	0.527584
	H326	H	0.713020	0.719214	0.545711
	O327	O	0.535197	0.286889	0.288414
	H328	H	0.530293	0.284083	0.270681
	H329	H	0.562588	0.279432	0.278875
	O330	O	0.087146	1.161220	-0.092257
	H331	H	0.095199	1.175466	-0.103230
	H332	H	0.072936	1.165054	-0.086256
	O333	O	0.467057	0.458039	0.366455
	H334	H	0.484538	0.457866	0.372758
	H335	H	0.483832	0.436743	0.354925
	O336	O	0.189140	-0.179676	-0.159195
	H337	H	0.201729	-0.150391	-0.152813
	H338	H	0.202678	-0.164902	-0.134655
	O339	O	-0.058358	1.045291	1.209071
	H340	H	-0.030695	1.049021	1.211843
	H341	H	-0.048225	1.047714	1.190325
	O342	O	0.232371	1.030941	1.218104
	H343	H	0.252420	1.024008	1.245991
	H344	H	0.245350	1.009925	1.198904
	O345	O	0.877529	0.954797	-0.156587
	H346	H	0.886636	0.936254	-0.142749
	H347	H	0.903889	0.950595	-0.167883
	O348	O	0.306708	0.322474	0.514358
	H349	H	0.292672	0.332258	0.492423
	H350	H	0.294162	0.327799	0.503101
	O351	O	-0.132581	0.821545	1.188861
	H352	H	-0.131030	0.829850	1.158055
	H353	H	-0.144555	0.842411	1.181507
	O354	O	-0.550590	0.623426	0.464711
	H355	H	-0.535039	0.620784	0.472658
	H356	H	-0.532139	0.615605	0.451580
	O357	O	-0.278425	0.512331	0.384727
	H358	H	-0.278585	0.518307	0.372790
	H359	H	-0.283318	0.528716	0.394411
	O360	O	0.495054	0.290230	0.724830
	H361	H	0.468695	0.273328	0.738025
	H362	H	0.483862	0.274243	0.722188
	O363	O	0.119187	0.037654	0.843710
	H364	H	0.114070	0.047461	0.843960
	H365	H	0.104255	0.037561	0.848609
	O366	O	0.303424	0.485550	0.324438
	H367	H	0.295146	0.485388	0.296805
	H368	H	0.305325	0.507580	0.323352
	O369	O	0.296297	0.454204	0.465273
	H370	H	0.309298	0.467027	0.478726
	H371	H	0.295972	0.471797	0.439774
	O372	O	0.683610	-0.698381	1.566661
	H373	H	0.668828	-0.708285	1.560815
	H374	H	0.685494	-0.701531	1.563244
	O375	O	0.300165	0.485155	0.719571
	H376	H	0.264847	0.484455	0.758422
	H377	H	0.324032	0.495237	0.706977
	O378	O	1.008548	1.196299	0.877748
	H379	H	0.999302	1.208542	0.862767
	H380	H	0.986356	1.203125	0.870593
	O381	O	0.805783	0.006290	1.178015
	H382	H	0.806183	-0.004050	1.184819
	H383	H	0.820679	0.006838	1.193036
	O384	O	0.542255	0.721551	0.476770
	H385	H	0.548662	0.728368	0.491095
	H386	H	0.520916	0.717755	0.447540
	O387	O	0.195981	-0.025270	1.089998
	H388	H	0.178565	-0.007287	1.072784
	H389	H	0.182531	-0.049905	1.077047
	O390	O	0.038777	0.106773	-0.172737
	H391	H	0.047603	0.118860	-0.171957
	H392	H	0.028197	0.103862	-0.177060
	O393	O	1.040102	1.017011	1.182715
	H394	H	1.060209	1.035158	1.165062
	H395	H	1.051564	1.020762	1.180023
	O396	O	1.120539	0.021074	-0.011046
	H397	H	1.115969	0.053568	-0.008205
	H398	H	1.102782	0.001655	-0.008793
	O399	O	1.034221	0.217740	1.221197
	H400	H	1.019321	0.221106	1.204003
	H401	H	1.028377	0.246871	1.241349
	O402	O	1.027249	0.798185	1.206575
	H403	H	1.007776	0.804354	1.202809
	H404	H	1.007810	0.781718	1.227743
	O405	O	1.512543	0.375475	-0.423381
	H406	H	1.500046	0.382326	-0.436139
	H407	H	1.505788	0.361303	-0.428661
	O408	O	0.808792	-0.203759	0.058048
	H409	H	0.799876	-0.230612	0.042933
	H410	H	0.827454	-0.215623	0.046326
	O411	O	0.927789	1.055166	0.002250
	H412	H	0.928295	1.055754	-0.019005
	H413	H	0.915675	1.058090	0.013432
	O414	O	-0.131152	1.201132	0.805105
	H415	H	-0.146420	1.213063	0.794448
	H416	H	-0.124978	1.161594	0.799333
	O417	O	0.586612	0.570529	0.300696
	H418	H	0.586670	0.590187	0.299089
	H419	H	0.590779	0.574012	0.325976
	O420	O	0.031042	-0.208830	-0.205227
	H421	H	0.055725	-0.221805	-0.208499
	H422	H	0.063612	-0.215869	-0.215236
	O423	O	0.711033	0.402526	0.312286
	H424	H	0.686534	0.405543	0.301550
	H425	H	0.727453	0.431702	0.301551
	O426	O	0.493805	0.723064	0.288562
	H427	H	0.485824	0.706442	0.304823
	H428	H	0.487766	0.758963	0.252556
	O429	O	0.709923	0.580600	0.701667
	H430	H	0.718656	0.554015	0.717461
	H431	H	0.715714	0.570818	0.674352
	O432	O	-0.162218	0.019647	-0.103718
	H433	H	-0.144170	0.002840	-0.107620
	H434	H	-0.174413	0.005140	-0.124901
	O435	O	0.336613	0.682865	0.326961
	H436	H	0.325195	0.664056	0.349624
	H437	H	0.357807	0.696317	0.346171
	O438	O	-0.147184	-0.102807	-0.026898
	H439	H	-0.130891	-0.090306	0.003442
	H440	H	-0.138662	-0.116522	-0.035114
	O441	O	0.513696	0.723170	-0.331219
	H442	H	0.501982	0.720666	-0.330702
	H443	H	0.514704	0.727620	-0.300342
	O444	O	0.225959	0.961656	0.790883
	H445	H	0.222239	0.998697	0.815212
	H446	H	0.262641	0.963002	0.765090
	O447	O	0.615846	0.479497	0.501768
	H448	H	0.611847	0.468158	0.527337
	H449	H	0.607448	0.479315	0.492765
	O450	O	0.530675	0.297048	0.522720
	H451	H	0.507249	0.288420	0.503055
	H452	H	0.509856	0.296633	0.532217
	O453	O	0.538551	0.523707	0.670291
	H454	H	0.538801	0.506192	0.689067
	H455	H	0.557664	0.512749	0.648355
