data_Molecule from HDF5

_cell_length_a		16.318042
_cell_length_b		16.389686
_cell_length_c		16.275708
_cell_angle_alpha	90.110549
_cell_angle_beta	89.948447
_cell_angle_gamma	90.047101
_symmetry_space_group_name_H-M	'P 1'
_symmetry_Int_Tables_number		1

loop_
	_symmetry_equiv_pos_as_xyz
	x,y,z

loop_
	_atom_site_label
	_atom_site_type_symbol
	_atom_site_fract_x
	_atom_site_fract_y
	_atom_site_fract_z
	H0	H	0.402759	0.836536	0.712738
	H1	H	0.597770	0.162486	0.714929
	H2	H	0.597099	0.836487	0.286246
	H3	H	0.403955	0.163413	0.286804
	H4	H	0.714034	0.401289	0.835464
	H5	H	0.713424	0.596211	0.164144
	H6	H	0.285530	0.597205	0.836625
	H7	H	0.286415	0.402648	0.163844
	H8	H	0.836551	0.714452	0.401491
	H9	H	0.162778	0.715035	0.598942
	H10	H	0.836204	0.285389	0.599113
	H11	H	0.162673	0.285347	0.400815
	H12	H	0.835844	0.404459	0.712914
	H13	H	0.164007	0.596498	0.713111
	H14	H	0.836525	0.597094	0.286206
	H15	H	0.163486	0.402912	0.286041
	H16	H	0.401739	0.713428	0.836144
	H17	H	0.598824	0.714054	0.163502
	H18	H	0.597483	0.285403	0.835768
	H19	H	0.401203	0.285184	0.163493
	H20	H	0.714560	0.837131	0.401943
	H21	H	0.714584	0.163307	0.598039
	H22	H	0.285123	0.837506	0.597033
	H23	H	0.286256	0.163476	0.402414
	H24	H	0.901241	0.336512	0.214591
	H25	H	0.098002	0.663027	0.214932
	H26	H	0.096830	0.337398	0.785347
	H27	H	0.903189	0.663138	0.786474
	H28	H	0.212895	0.902993	0.335972
	H29	H	0.213340	0.097926	0.664073
	H30	H	0.787475	0.096496	0.335309
	H31	H	0.785905	0.903484	0.663889
	H32	H	0.337267	0.213849	0.901340
	H33	H	0.663510	0.215447	0.099288
	H34	H	0.337378	0.785012	0.099190
	H35	H	0.663261	0.784722	0.900729
	H36	H	0.336462	0.903917	0.212348
	H37	H	0.663745	0.097321	0.213264
	H38	H	0.336570	0.096303	0.786678
	H39	H	0.663515	0.902711	0.786037
	H40	H	0.901209	0.214721	0.335977
	H41	H	0.097832	0.215210	0.663605
	H42	H	0.097625	0.786454	0.336719
	H43	H	0.900738	0.786688	0.663436
	H44	H	0.213843	0.336632	0.901590
	H45	H	0.215510	0.662122	0.098891
	H46	H	0.784553	0.337039	0.097494
	H47	H	0.785096	0.662734	0.901562
	H48	H	0.415218	0.113374	0.593674
	H49	H	0.592917	0.883027	0.599728
	H50	H	0.588824	0.113594	0.407760
	H51	H	0.408698	0.882539	0.396569
	H52	H	0.601317	0.408055	0.118063
	H53	H	0.598116	0.594247	0.882336
	H54	H	0.407621	0.589972	0.115585
	H55	H	0.398315	0.403490	0.880095
	H56	H	0.115249	0.589436	0.405683
	H57	H	0.884163	0.588453	0.597292
	H58	H	0.116135	0.412420	0.600028
	H59	H	0.886051	0.418208	0.405318
	H60	H	0.118760	0.397125	0.594193
	H61	H	0.880878	0.600941	0.597030
	H62	H	0.118016	0.597918	0.404240
	H63	H	0.878783	0.399710	0.399674
	H64	H	0.410896	0.595961	0.116034
	H65	H	0.592011	0.588766	0.884889
	H66	H	0.586824	0.412851	0.112621
	H67	H	0.408781	0.414563	0.886581
	H68	H	0.598742	0.116064	0.410208
	H69	H	0.589467	0.886938	0.589199
	H70	H	0.400901	0.115316	0.585620
	H71	H	0.411829	0.887380	0.412281
	H72	H	0.908801	0.615609	0.098455
	H73	H	0.089837	0.384787	0.095491
	H74	H	0.094474	0.611275	0.922827
	H75	H	0.912508	0.385014	0.901690
	H76	H	0.084339	0.911382	0.613191
	H77	H	0.094659	0.086231	0.385653
	H78	H	0.910249	0.096806	0.616210
	H79	H	0.907544	0.910937	0.384348
	H80	H	0.614085	0.084898	0.908688
	H81	H	0.382711	0.101546	0.091497
	H82	H	0.616392	0.899562	0.086823
	H83	H	0.390126	0.913391	0.919907
	H84	H	0.614386	0.913769	0.091127
	H85	H	0.386889	0.088890	0.088165
	H86	H	0.619809	0.096352	0.898754
	H87	H	0.381957	0.913124	0.893639
	H88	H	0.903475	0.094321	0.617491
	H89	H	0.085353	0.095517	0.384890
	H90	H	0.092958	0.896955	0.619633
	H91	H	0.911048	0.902461	0.383109
	H92	H	0.107507	0.621420	0.900361
	H93	H	0.093426	0.385756	0.088747
	H94	H	0.908275	0.613443	0.089398
	H95	H	0.906335	0.386429	0.914065
	H96	H	0.401826	0.119010	0.601855
	H97	H	0.600312	0.883174	0.590528
	H98	H	0.595659	0.117467	0.400480
	H99	H	0.396521	0.882473	0.408167
	H100	H	0.588962	0.397917	0.117110
	H101	H	0.590255	0.597121	0.883201
	H102	H	0.404719	0.595487	0.117673
	H103	H	0.414194	0.398912	0.883312
	H104	H	0.114692	0.595951	0.412516
	H105	H	0.885246	0.594960	0.586634
	H106	H	0.112567	0.408870	0.583722
	H107	H	0.885826	0.402994	0.419097
	H108	H	0.901259	0.616619	0.093684
	H109	H	0.097481	0.382857	0.095285
	H110	H	0.080577	0.614153	0.898330
	H111	H	0.899398	0.381310	0.903004
	H112	H	0.101659	0.911949	0.618121
	H113	H	0.097395	0.097982	0.381252
	H114	H	0.908075	0.089764	0.614330
	H115	H	0.901979	0.904115	0.381261
	H116	H	0.616042	0.099713	0.914287
	H117	H	0.382577	0.091353	0.100705
	H118	H	0.620004	0.903807	0.100610
	H119	H	0.380125	0.890833	0.908559
	C120	C	0.378090	0.008123	0.621500
	C121	C	0.622003	0.991985	0.621542
	C122	C	0.622079	0.007901	0.378086
	C123	C	0.378300	0.992231	0.378125
	C124	C	0.621330	0.377806	0.007749
	C125	C	0.621543	0.620956	0.991761
	C126	C	0.379146	0.621479	0.008142
	C127	C	0.379155	0.378152	0.991898
	C128	C	0.008198	0.622075	0.378940
	C129	C	0.991479	0.622418	0.622202
	C130	C	0.007787	0.378355	0.621363
	C131	C	0.991600	0.378664	0.378922
	C132	C	0.877713	0.507640	0.121901
	C133	C	0.122001	0.491984	0.122063
	C134	C	0.122241	0.508304	0.878301
	C135	C	0.878414	0.491928	0.878501
	C136	C	0.121254	0.878725	0.508664
	C137	C	0.120684	0.121731	0.491993
	C138	C	0.878732	0.121951	0.507766
	C139	C	0.878490	0.878570	0.491639
	C140	C	0.508472	0.121056	0.878993
	C141	C	0.492024	0.121798	0.121315
	C142	C	0.508850	0.878019	0.121302
	C143	C	0.491646	0.877991	0.878294
	C144	C	0.381602	0.885341	0.675302
	C145	C	0.618697	0.114246	0.676826
	C146	C	0.618049	0.885114	0.323686
	C147	C	0.382379	0.114814	0.324193
	C148	C	0.675926	0.380910	0.884330
	C149	C	0.676017	0.617169	0.115161
	C150	C	0.324034	0.617757	0.885172
	C151	C	0.324408	0.381864	0.115198
	C152	C	0.885266	0.676566	0.381179
	C153	C	0.114409	0.677038	0.619622
	C154	C	0.885004	0.323477	0.619210
	C155	C	0.114217	0.323151	0.380373
	C156	C	0.884701	0.382826	0.675534
	C157	C	0.114954	0.618195	0.676119
	C158	C	0.885080	0.618290	0.324063
	C159	C	0.114511	0.381631	0.323619
	C160	C	0.381391	0.675914	0.885115
	C161	C	0.619104	0.675556	0.114944
	C162	C	0.618379	0.323126	0.884501
	C163	C	0.381289	0.323345	0.114700
	C164	C	0.676519	0.885452	0.380974
	C165	C	0.676679	0.114585	0.618841
	C166	C	0.323122	0.885782	0.618100
	C167	C	0.323738	0.114616	0.381448
	C168	C	0.880448	0.385207	0.176645
	C169	C	0.118572	0.614246	0.176870
	C170	C	0.118437	0.385758	0.823128
	C171	C	0.882549	0.614992	0.824689
	C172	C	0.175571	0.881977	0.385206
	C173	C	0.175239	0.118719	0.615230
	C174	C	0.824214	0.118405	0.384397
	C175	C	0.823778	0.882490	0.614896
	C176	C	0.385657	0.175712	0.881342
	C177	C	0.614696	0.177102	0.119372
	C178	C	0.385840	0.823155	0.119092
	C179	C	0.614824	0.823595	0.880959
	C180	C	0.385461	0.882422	0.175162
	C181	C	0.615164	0.118489	0.175847
	C182	C	0.385403	0.117603	0.824386
	C183	C	0.614734	0.881547	0.823283
	C184	C	0.880796	0.177094	0.384945
	C185	C	0.117997	0.176783	0.615140
	C186	C	0.118377	0.824101	0.385448
	C187	C	0.881111	0.824787	0.614817
	C188	C	0.176483	0.385615	0.880809
	C189	C	0.177176	0.614000	0.119506
	C190	C	0.822472	0.385345	0.118623
	C191	C	0.823969	0.614649	0.881806
	C192	C	0.399765	0.093874	0.600198
	C193	C	0.600595	0.906496	0.599577
	C194	C	0.600659	0.093609	0.399726
	C195	C	0.399443	0.906242	0.399480
	C196	C	0.598882	0.400002	0.093809
	C197	C	0.599879	0.599607	0.905582
	C198	C	0.401354	0.600030	0.094380
	C199	C	0.400618	0.399527	0.905397
	C200	C	0.093837	0.600791	0.400953
	C201	C	0.905664	0.601122	0.600318
	C202	C	0.093662	0.399947	0.599108
	C203	C	0.905841	0.400517	0.401438
	C204	C	0.899707	0.593142	0.100385
	C205	C	0.100008	0.406260	0.099773
	C206	C	0.100591	0.593775	0.900386
	C207	C	0.899754	0.406433	0.899921
	C208	C	0.099429	0.900471	0.594943
	C209	C	0.098892	0.099747	0.406156
	C210	C	0.900679	0.099927	0.593736
	C211	C	0.900505	0.899652	0.405176
	C212	C	0.594338	0.099743	0.900731
	C213	C	0.406179	0.100186	0.099841
	C214	C	0.594846	0.899340	0.099346
	C215	C	0.406193	0.899669	0.900727
	Zn216	Zn	0.499695	-0.000027	0.750339
	Zn217	Zn	0.500292	0.000073	0.249153
	Zn218	Zn	0.749308	0.499421	-0.000759
	Zn219	Zn	0.250870	0.499518	0.000020
	Zn220	Zn	-0.000343	0.750497	0.500580
	Zn221	Zn	-0.000302	0.250061	0.499757
	Zn222	Zn	0.000030	0.500381	0.749903
	Zn223	Zn	-0.000270	0.499896	0.250627
	Zn224	Zn	0.500393	0.749551	-0.000124
	Zn225	Zn	0.500292	0.249717	0.000050
	Zn226	Zn	0.750657	0.000524	0.499796
	Zn227	Zn	0.249121	0.000473	0.500154
	N228	N	0.415108	0.962471	0.677472
	N229	N	0.585457	0.037087	0.678638
	N230	N	0.584963	0.962237	0.321711
	N231	N	0.415523	0.037672	0.322004
	N232	N	0.678055	0.413981	0.962050
	N233	N	0.677431	0.583780	0.037555
	N234	N	0.322354	0.584865	0.962904
	N235	N	0.322923	0.415181	0.037656
	N236	N	0.962710	0.679165	0.414462
	N237	N	0.036833	0.679851	0.586936
	N238	N	0.962608	0.320858	0.586232
	N239	N	0.036856	0.321448	0.414185
	N240	N	0.962075	0.416277	0.676980
	N241	N	0.037458	0.585074	0.677857
	N242	N	0.962492	0.585256	0.322323
	N243	N	0.037377	0.415568	0.322746
	N244	N	0.414887	0.678190	0.962631
	N245	N	0.586000	0.678094	0.037285
	N246	N	0.585377	0.321069	0.962326
	N247	N	0.414524	0.321194	0.037038
	N248	N	0.679163	0.962779	0.414052
	N249	N	0.678769	0.037639	0.585182
	N250	N	0.320688	0.963146	0.585604
	N251	N	0.321296	0.037336	0.414335
	N252	N	0.914079	0.462252	0.178683
	N253	N	0.084923	0.537237	0.178319
	N254	N	0.085233	0.462923	0.821514
	N255	N	0.915570	0.537697	0.822373
	N256	N	0.177302	0.915251	0.462779
	N257	N	0.177019	0.085065	0.537710
	N258	N	0.822723	0.084815	0.461874
	N259	N	0.822058	0.915222	0.537159
	N260	N	0.463083	0.177870	0.914463
	N261	N	0.537194	0.179334	0.086418
	N262	N	0.463566	0.820470	0.086261
	N263	N	0.537361	0.821158	0.914454
	N264	N	0.462798	0.915836	0.176617
	N265	N	0.538054	0.084373	0.177037
	N266	N	0.462629	0.084118	0.822870
	N267	N	0.537299	0.914531	0.821412
	N268	N	0.913874	0.179029	0.462647
	N269	N	0.084656	0.178516	0.537617
	N270	N	0.085300	0.821761	0.463306
	N271	N	0.914448	0.822448	0.537127
	N272	N	0.178941	0.462686	0.914385
	N273	N	0.179327	0.536862	0.086128
	N274	N	0.820791	0.462380	0.085212
	N275	N	0.821253	0.537247	0.914286
