data_Molecule from HDF5

_cell_length_a		16.280949
_cell_length_b		16.245774
_cell_length_c		16.284241
_cell_angle_alpha	89.853028
_cell_angle_beta	90.258766
_cell_angle_gamma	89.905063
_symmetry_space_group_name_H-M	'P 1'
_symmetry_Int_Tables_number		1

loop_
	_symmetry_equiv_pos_as_xyz
	x,y,z

loop_
	_atom_site_label
	_atom_site_type_symbol
	_atom_site_fract_x
	_atom_site_fract_y
	_atom_site_fract_z
	H0	H	0.406284	0.844399	0.715451
	H1	H	0.603102	0.171688	0.715664
	H2	H	0.602780	0.844060	0.287727
	H3	H	0.403122	0.171635	0.284194
	H4	H	0.719971	0.408853	0.836388
	H5	H	0.721517	0.606827	0.163333
	H6	H	0.289550	0.607205	0.836802
	H7	H	0.291343	0.408634	0.164335
	H8	H	0.841452	0.725304	0.400227
	H9	H	0.169508	0.720603	0.597094
	H10	H	0.840116	0.294913	0.598938
	H11	H	0.167504	0.292736	0.402480
	H12	H	0.840677	0.410398	0.715559
	H13	H	0.168068	0.607602	0.715372
	H14	H	0.841551	0.609075	0.283752
	H15	H	0.168438	0.409468	0.286574
	H16	H	0.406222	0.721927	0.836536
	H17	H	0.604267	0.721576	0.163871
	H18	H	0.603001	0.293268	0.836267
	H19	H	0.407467	0.292714	0.163839
	H20	H	0.718479	0.844235	0.403314
	H21	H	0.719505	0.172030	0.601617
	H22	H	0.292545	0.843741	0.598788
	H23	H	0.289275	0.172173	0.402358
	H24	H	0.904672	0.346059	0.216246
	H25	H	0.104961	0.672610	0.215476
	H26	H	0.103623	0.345485	0.786331
	H27	H	0.905320	0.672822	0.784754
	H28	H	0.219027	0.909419	0.337874
	H29	H	0.219796	0.106535	0.665457
	H30	H	0.785321	0.110833	0.338506
	H31	H	0.789694	0.908959	0.664686
	H32	H	0.341612	0.222994	0.900334
	H33	H	0.668598	0.221301	0.099975
	H34	H	0.341046	0.792192	0.099231
	H35	H	0.668628	0.793016	0.902849
	H36	H	0.340934	0.908710	0.214591
	H37	H	0.667018	0.106271	0.216914
	H38	H	0.340789	0.106277	0.786310
	H39	H	0.668543	0.908792	0.787125
	H40	H	0.902879	0.225056	0.337752
	H41	H	0.101525	0.221398	0.665750
	H42	H	0.101402	0.796908	0.336800
	H43	H	0.907955	0.794604	0.664733
	H44	H	0.218599	0.345037	0.902464
	H45	H	0.218713	0.673106	0.098592
	H46	H	0.791138	0.345332	0.099079
	H47	H	0.788812	0.672488	0.899305
	H48	H	0.414564	0.123084	0.590625
	H49	H	0.600960	0.891491	0.591590
	H50	H	0.599009	0.125532	0.411448
	H51	H	0.408344	0.889989	0.404912
	H52	H	0.591558	0.418560	0.112551
	H53	H	0.587099	0.602638	0.885918
	H54	H	0.402570	0.607867	0.121706
	H55	H	0.400743	0.418107	0.881525
	H56	H	0.118467	0.598012	0.414233
	H57	H	0.885632	0.605227	0.599582
	H58	H	0.121412	0.417143	0.598894
	H59	H	0.891485	0.418996	0.414062
	H60	H	0.122012	0.410074	0.593339
	H61	H	0.888470	0.607241	0.586502
	H62	H	0.121337	0.598634	0.401259
	H63	H	0.889255	0.422944	0.403003
	H64	H	0.409890	0.587242	0.114312
	H65	H	0.602999	0.609279	0.879476
	H66	H	0.600037	0.405743	0.118938
	H67	H	0.417104	0.423803	0.888907
	H68	H	0.593803	0.125553	0.403923
	H69	H	0.600185	0.890039	0.597971
	H70	H	0.408114	0.126308	0.592588
	H71	H	0.413713	0.891505	0.405853
	H72	H	0.918747	0.622445	0.087554
	H73	H	0.096392	0.390034	0.102273
	H74	H	0.093560	0.625313	0.904967
	H75	H	0.904774	0.391400	0.911682
	H76	H	0.102734	0.911429	0.620054
	H77	H	0.094783	0.094335	0.388148
	H78	H	0.905639	0.092204	0.616310
	H79	H	0.912302	0.925866	0.388358
	H80	H	0.623621	0.107623	0.906520
	H81	H	0.390770	0.096731	0.090116
	H82	H	0.622784	0.907247	0.093841
	H83	H	0.386482	0.905191	0.912124
	H84	H	0.617949	0.918439	0.088091
	H85	H	0.386645	0.100235	0.096085
	H86	H	0.618515	0.098085	0.914615
	H87	H	0.392744	0.923552	0.912078
	H88	H	0.922014	0.100533	0.613697
	H89	H	0.091675	0.106277	0.385781
	H90	H	0.101036	0.917118	0.618069
	H91	H	0.917476	0.912404	0.385095
	H92	H	0.097572	0.625106	0.910512
	H93	H	0.090371	0.396262	0.089502
	H94	H	0.906523	0.626514	0.088784
	H95	H	0.913608	0.389358	0.897705
	H96	H	0.413702	0.125761	0.597684
	H97	H	0.594498	0.892102	0.593994
	H98	H	0.589744	0.121937	0.411610
	H99	H	0.409478	0.892198	0.410223
	H100	H	0.607043	0.420432	0.117092
	H101	H	0.601370	0.591930	0.884746
	H102	H	0.424474	0.605397	0.114814
	H103	H	0.415138	0.406157	0.881659
	H104	H	0.123010	0.609326	0.408477
	H105	H	0.890293	0.594724	0.591828
	H106	H	0.118655	0.417550	0.590184
	H107	H	0.886140	0.411042	0.405410
	H108	H	0.914913	0.626635	0.098005
	H109	H	0.105746	0.391833	0.089564
	H110	H	0.101227	0.627615	0.904597
	H111	H	0.920858	0.396317	0.912080
	H112	H	0.097376	0.912861	0.617772
	H113	H	0.103591	0.102428	0.382820
	H114	H	0.907313	0.110405	0.620622
	H115	H	0.903307	0.915701	0.382835
	H116	H	0.621106	0.094669	0.902340
	H117	H	0.387568	0.103938	0.089306
	H118	H	0.621949	0.918906	0.101387
	H119	H	0.385000	0.915748	0.895976
	C120	C	0.383881	0.016658	0.622044
	C121	C	0.626604	0.999696	0.623082
	C122	C	0.624435	0.016418	0.380166
	C123	C	0.381609	0.999602	0.378150
	C124	C	0.627476	0.386162	0.008100
	C125	C	0.626481	0.629639	0.991668
	C126	C	0.383302	0.629515	0.008855
	C127	C	0.382708	0.386315	0.991994
	C128	C	0.013237	0.631433	0.377862
	C129	C	0.996508	0.630411	0.621321
	C130	C	0.012626	0.386786	0.622551
	C131	C	0.996401	0.387957	0.379061
	C132	C	0.883988	0.517655	0.121175
	C133	C	0.126768	0.500685	0.122523
	C134	C	0.126204	0.517793	0.878678
	C135	C	0.883644	0.500603	0.878209
	C136	C	0.127570	0.886294	0.509763
	C137	C	0.125589	0.129843	0.493655
	C138	C	0.881729	0.130686	0.509553
	C139	C	0.883120	0.888079	0.492966
	C140	C	0.513355	0.129322	0.878680
	C141	C	0.496094	0.128790	0.121602
	C142	C	0.512808	0.885889	0.122540
	C143	C	0.496611	0.886305	0.878958
	C144	C	0.386470	0.893040	0.677038
	C145	C	0.623466	0.122955	0.677901
	C146	C	0.623044	0.893197	0.325182
	C147	C	0.383284	0.122567	0.322291
	C148	C	0.682114	0.388583	0.885166
	C149	C	0.682820	0.626937	0.114697
	C150	C	0.327623	0.627694	0.885707
	C151	C	0.328435	0.388029	0.115059
	C152	C	0.890184	0.687243	0.379720
	C153	C	0.120269	0.683749	0.618154
	C154	C	0.889253	0.332512	0.619721
	C155	C	0.119096	0.331472	0.382056
	C156	C	0.889626	0.389714	0.677823
	C157	C	0.119477	0.627595	0.676768
	C158	C	0.890353	0.629562	0.321945
	C159	C	0.119552	0.389362	0.324357
	C160	C	0.385386	0.685005	0.885912
	C161	C	0.624774	0.683995	0.115006
	C162	C	0.624045	0.330924	0.885261
	C163	C	0.386254	0.330377	0.114894
	C164	C	0.680279	0.893291	0.383176
	C165	C	0.681479	0.123110	0.621397
	C166	C	0.329747	0.892831	0.619474
	C167	C	0.326739	0.122956	0.381147
	C168	C	0.885193	0.394917	0.177892
	C169	C	0.125327	0.623575	0.177953
	C170	C	0.124173	0.394423	0.823646
	C171	C	0.885328	0.623913	0.822665
	C172	C	0.181395	0.889521	0.386790
	C173	C	0.181433	0.127501	0.616660
	C174	C	0.824330	0.130093	0.386848
	C175	C	0.828456	0.889592	0.616013
	C176	C	0.390372	0.185303	0.880041
	C177	C	0.619433	0.183805	0.120092
	C178	C	0.389762	0.830467	0.119479
	C179	C	0.619816	0.831182	0.882445
	C180	C	0.389889	0.887687	0.177346
	C181	C	0.618646	0.126755	0.178346
	C182	C	0.389968	0.126988	0.823544
	C183	C	0.619797	0.888628	0.824673
	C184	C	0.882818	0.186923	0.386577
	C185	C	0.122700	0.184382	0.616687
	C186	C	0.123106	0.833102	0.386284
	C187	C	0.886788	0.832313	0.615893
	C188	C	0.181073	0.394119	0.881678
	C189	C	0.181638	0.624020	0.119584
	C190	C	0.828939	0.394274	0.119333
	C191	C	0.827027	0.623559	0.879212
	C192	C	0.405583	0.102802	0.600064
	C193	C	0.604838	0.913553	0.601021
	C194	C	0.601118	0.102222	0.402305
	C195	C	0.403811	0.913470	0.400606
	C196	C	0.605844	0.408441	0.094041
	C197	C	0.603854	0.607720	0.905684
	C198	C	0.405689	0.606802	0.094636
	C199	C	0.404509	0.409380	0.906243
	C200	C	0.098865	0.608625	0.401110
	C201	C	0.910315	0.608872	0.599075
	C202	C	0.098433	0.408534	0.600568
	C203	C	0.910970	0.410896	0.401152
	C204	C	0.906698	0.603120	0.098172
	C205	C	0.104154	0.414964	0.100371
	C206	C	0.104125	0.603799	0.900344
	C207	C	0.906288	0.414731	0.900659
	C208	C	0.106505	0.907530	0.596385
	C209	C	0.103093	0.107550	0.407738
	C210	C	0.904984	0.107729	0.594786
	C211	C	0.904848	0.911271	0.407353
	C212	C	0.598895	0.106835	0.901126
	C213	C	0.410471	0.106836	0.098600
	C214	C	0.598699	0.908272	0.100793
	C215	C	0.410222	0.908350	0.900433
	Zn216	Zn	0.504706	0.007977	0.750428
	Zn217	Zn	0.503885	0.007631	0.250422
	Zn218	Zn	0.755723	0.508403	-0.000607
	Zn219	Zn	0.254314	0.508720	0.000742
	Zn220	Zn	0.005259	0.759177	0.500550
	Zn221	Zn	0.003609	0.258623	0.500652
	Zn222	Zn	0.004825	0.509362	0.750162
	Zn223	Zn	0.005274	0.509488	0.250032
	Zn224	Zn	0.505134	0.757888	0.000631
	Zn225	Zn	0.505041	0.257666	-0.000014
	Zn226	Zn	0.753581	0.008988	0.501416
	Zn227	Zn	0.255157	0.008410	0.502015
	N228	N	0.419319	0.970995	0.678957
	N229	N	0.590131	0.045114	0.679334
	N230	N	0.588841	0.970800	0.323415
	N231	N	0.416681	0.044658	0.320416
	N232	N	0.684237	0.422195	0.962620
	N233	N	0.684221	0.594020	0.036814
	N234	N	0.326162	0.593815	0.963239
	N235	N	0.326041	0.422057	0.037610
	N236	N	0.967703	0.688537	0.413867
	N237	N	0.042834	0.685678	0.584396
	N238	N	0.966625	0.330526	0.586136
	N239	N	0.041562	0.330392	0.415291
	N240	N	0.967315	0.422996	0.679523
	N241	N	0.041510	0.595155	0.678905
	N242	N	0.967763	0.595873	0.320667
	N243	N	0.042362	0.423662	0.322287
	N244	N	0.419441	0.686202	0.963382
	N245	N	0.590635	0.685905	0.037625
	N246	N	0.590947	0.329401	0.962775
	N247	N	0.419294	0.329228	0.037356
	N248	N	0.681267	0.970914	0.416624
	N249	N	0.683580	0.045483	0.588128
	N250	N	0.328140	0.970597	0.585863
	N251	N	0.325404	0.045340	0.414840
	N252	N	0.918986	0.472633	0.179123
	N253	N	0.091816	0.546016	0.179743
	N254	N	0.090822	0.472246	0.821786
	N255	N	0.919668	0.546357	0.821749
	N256	N	0.184267	0.922003	0.464816
	N257	N	0.183559	0.094431	0.539052
	N258	N	0.823681	0.095793	0.464223
	N259	N	0.826101	0.923558	0.538535
	N260	N	0.468013	0.186930	0.913653
	N261	N	0.542172	0.185237	0.085434
	N262	N	0.467321	0.829134	0.086223
	N263	N	0.542218	0.829775	0.915592
	N264	N	0.467295	0.921491	0.179352
	N265	N	0.541109	0.093292	0.179240
	N266	N	0.467294	0.092810	0.822540
	N267	N	0.542088	0.922222	0.822572
	N268	N	0.917689	0.187441	0.463645
	N269	N	0.088603	0.185870	0.539073
	N270	N	0.090562	0.830959	0.463958
	N271	N	0.920180	0.831331	0.538399
	N272	N	0.182482	0.471710	0.915360
	N273	N	0.183003	0.546447	0.086044
	N274	N	0.828193	0.471333	0.084562
	N275	N	0.826021	0.545886	0.912987
	O276	O	0.129465	0.036408	0.048289
	H277	H	0.136139	0.038669	0.048868
	H278	H	0.112605	0.036332	0.038466
	O279	O	0.563478	0.436614	0.490834
	H280	H	0.559807	0.434161	0.488252
	H281	H	0.546821	0.435587	0.490098
	O282	O	0.552733	0.500941	0.444989
	H283	H	0.555749	0.495788	0.441685
	H284	H	0.540618	0.500143	0.444675
	O285	O	0.952034	-0.059431	1.023200
	H286	H	0.964124	-0.055185	1.026482
	H287	H	0.954154	-0.052210	1.011631
	O288	O	0.923602	0.047453	0.030413
	H289	H	0.937632	0.045372	0.023274
	H290	H	0.918590	0.039138	0.021550
	O291	O	0.481568	0.512462	0.437955
	H292	H	0.470530	0.511809	0.435841
	H293	H	0.487186	0.509994	0.434263
	O294	O	0.908950	-0.004261	1.083596
	H295	H	0.908860	0.007763	1.082812
	H296	H	0.895685	-0.006846	1.094846
	O297	O	-0.050488	0.004528	0.015463
	H298	H	-0.047213	0.015756	0.018678
	H299	H	-0.048849	0.012321	0.006886
	O300	O	1.150898	0.106509	0.070079
	H301	H	1.160735	0.095060	0.082685
	H302	H	1.147810	0.115721	0.077237
	O303	O	0.531713	0.467779	0.435314
	H304	H	0.531698	0.465798	0.431370
	H305	H	0.531670	0.472296	0.438508
	O306	O	0.938953	-0.031384	0.084543
	H307	H	0.932107	-0.028172	0.087921
	H308	H	0.924156	-0.032533	0.074467
	O309	O	0.022386	-0.075031	1.127391
	H310	H	0.021258	-0.075134	1.136455
	H311	H	0.022464	-0.084084	1.126810
	O312	O	1.005138	1.129010	0.988389
	H313	H	0.995443	1.138876	0.989045
	H314	H	1.003549	1.111473	0.991031
	O315	O	0.461031	0.530214	0.481170
	H316	H	0.458663	0.537532	0.484878
	H317	H	0.467580	0.525868	0.489035
	O318	O	0.097684	0.125590	0.129721
	H319	H	0.106218	0.122842	0.142842
	H320	H	0.088962	0.131113	0.130572
	O321	O	0.047736	0.991749	1.017881
	H322	H	0.044654	0.991362	1.011703
	H323	H	0.049622	0.987646	1.026878
	O324	O	0.480730	0.461814	0.584553
	H325	H	0.479872	0.463541	0.581587
	H326	H	0.479219	0.461847	0.589382
	O327	O	0.472698	0.521501	0.507445
	H328	H	0.483791	0.525738	0.509359
	H329	H	0.471196	0.527073	0.507467
	O330	O	0.457501	0.540519	0.469642
	H331	H	0.455086	0.542003	0.471004
	H332	H	0.450462	0.546170	0.468933
	O333	O	0.547958	0.525565	0.502473
	H334	H	0.544912	0.523010	0.501160
	H335	H	0.544043	0.516648	0.504702
	O336	O	0.536210	0.487914	0.496056
	H337	H	0.524559	0.485218	0.493387
	H338	H	0.549799	0.489569	0.490854
	O339	O	0.991100	1.028506	-0.038008
	H340	H	1.006199	1.022884	-0.034864
	H341	H	0.986961	1.021832	-0.032755
	O342	O	0.504717	0.564109	0.471290
	H343	H	0.504197	0.570021	0.476433
	H344	H	0.510150	0.562085	0.472897
	O345	O	0.531410	0.509385	0.459594
	H346	H	0.540600	0.508093	0.456540
	H347	H	0.537024	0.505967	0.457820
	O348	O	-0.034436	0.068998	-0.007580
	H349	H	-0.026076	0.075896	-0.004215
	H350	H	-0.040087	0.062566	-0.013068
	O351	O	-0.088018	1.108871	0.913490
	H352	H	-0.079717	1.093452	0.916433
	H353	H	-0.097917	1.120230	0.908033
	O354	O	0.536950	0.458870	0.597705
	H355	H	0.538360	0.465718	0.596677
	H356	H	0.544686	0.458064	0.605046
	O357	O	-0.005407	1.042818	0.999958
	H358	H	-0.001946	1.047660	1.004398
	H359	H	-0.006737	1.055752	1.005759
