data_Molecule from HDF5

_cell_length_a		16.374286
_cell_length_b		16.522812
_cell_length_c		16.511183
_cell_angle_alpha	90.106756
_cell_angle_beta	89.963718
_cell_angle_gamma	89.988560
_symmetry_space_group_name_H-M	'P 1'
_symmetry_Int_Tables_number		1

loop_
	_symmetry_equiv_pos_as_xyz
	x,y,z

loop_
	_atom_site_label
	_atom_site_type_symbol
	_atom_site_fract_x
	_atom_site_fract_y
	_atom_site_fract_z
	H0	H	0.392591	0.842894	0.731126
	H1	H	0.610842	0.155346	0.732327
	H2	H	0.610363	0.844907	0.280273
	H3	H	0.390605	0.154589	0.281994
	H4	H	0.727859	0.393044	0.851087
	H5	H	0.728398	0.607211	0.164410
	H6	H	0.280293	0.606970	0.850567
	H7	H	0.279536	0.391541	0.163796
	H8	H	0.845382	0.721012	0.398260
	H9	H	0.159554	0.721945	0.614228
	H10	H	0.844046	0.274979	0.614141
	H11	H	0.159235	0.272884	0.397925
	H12	H	0.844893	0.389288	0.731443
	H13	H	0.161130	0.603649	0.727176
	H14	H	0.846574	0.606216	0.282291
	H15	H	0.160006	0.387764	0.282637
	H16	H	0.396391	0.723165	0.851413
	H17	H	0.614949	0.726149	0.162187
	H18	H	0.615494	0.273378	0.852075
	H19	H	0.394825	0.274920	0.163351
	H20	H	0.724719	0.843326	0.398339
	H21	H	0.725712	0.155626	0.614388
	H22	H	0.279477	0.842147	0.611275
	H23	H	0.280533	0.157864	0.402732
	H24	H	0.895945	0.342044	0.231073
	H25	H	0.113195	0.654352	0.233071
	H26	H	0.107825	0.342298	0.786406
	H27	H	0.895793	0.655339	0.783921
	H28	H	0.221996	0.895183	0.348064
	H29	H	0.221181	0.104000	0.664176
	H30	H	0.777271	0.106980	0.349333
	H31	H	0.777352	0.891620	0.662809
	H32	H	0.346708	0.222315	0.903358
	H33	H	0.661428	0.221200	0.115886
	H34	H	0.346465	0.774079	0.115995
	H35	H	0.661468	0.776973	0.899095
	H36	H	0.343062	0.893633	0.227945
	H37	H	0.658625	0.107864	0.233134
	H38	H	0.344009	0.102963	0.789921
	H39	H	0.659159	0.890012	0.781737
	H40	H	0.892560	0.223447	0.350744
	H41	H	0.107875	0.222467	0.662491
	H42	H	0.109010	0.775228	0.349667
	H43	H	0.893111	0.775591	0.662609
	H44	H	0.222740	0.341917	0.905247
	H45	H	0.226518	0.655950	0.113915
	H46	H	0.781039	0.342251	0.114281
	H47	H	0.783026	0.657065	0.902449
	H48	H	0.411808	0.112623	0.601121
	H49	H	0.591336	0.886268	0.597024
	H50	H	0.588067	0.107690	0.428319
	H51	H	0.404594	0.886587	0.424234
	H52	H	0.591820	0.409840	0.119930
	H53	H	0.596217	0.587070	0.894874
	H54	H	0.421856	0.588926	0.118436
	H55	H	0.412792	0.412959	0.895505
	H56	H	0.113632	0.579406	0.418690
	H57	H	0.886819	0.590287	0.598481
	H58	H	0.114021	0.408389	0.591121
	H59	H	0.889100	0.411775	0.416833
	H60	H	0.113236	0.415029	0.595638
	H61	H	0.890164	0.588406	0.590445
	H62	H	0.118804	0.590173	0.415091
	H63	H	0.890580	0.409000	0.420937
	H64	H	0.413758	0.589734	0.120268
	H65	H	0.590263	0.585296	0.897731
	H66	H	0.593158	0.410693	0.119622
	H67	H	0.419209	0.415189	0.897989
	H68	H	0.593732	0.114234	0.416814
	H69	H	0.583696	0.889761	0.595715
	H70	H	0.413724	0.111444	0.597790
	H71	H	0.411147	0.883492	0.408123
	H72	H	0.919498	0.609423	0.094261
	H73	H	0.096062	0.384720	0.096775
	H74	H	0.097255	0.615212	0.916700
	H75	H	0.907688	0.383993	0.917956
	H76	H	0.087414	0.909624	0.618025
	H77	H	0.089757	0.091743	0.391642
	H78	H	0.912308	0.083709	0.617183
	H79	H	0.913616	0.908888	0.393947
	H80	H	0.619406	0.094961	0.921673
	H81	H	0.389713	0.086738	0.094351
	H82	H	0.614769	0.911206	0.092895
	H83	H	0.394124	0.914602	0.924316
	H84	H	0.612663	0.915879	0.091602
	H85	H	0.389516	0.089966	0.095438
	H86	H	0.613482	0.080755	0.924904
	H87	H	0.388455	0.911874	0.913682
	H88	H	0.917955	0.086663	0.615874
	H89	H	0.094253	0.083561	0.393710
	H90	H	0.090298	0.906780	0.619658
	H91	H	0.913429	0.911344	0.394194
	H92	H	0.088562	0.613549	0.912473
	H93	H	0.087934	0.387698	0.098381
	H94	H	0.916041	0.609867	0.095665
	H95	H	0.921748	0.386958	0.911188
	H96	H	0.410616	0.113242	0.596616
	H97	H	0.588837	0.889792	0.589571
	H98	H	0.580271	0.109652	0.416176
	H99	H	0.421694	0.891421	0.420708
	H100	H	0.591131	0.411552	0.119471
	H101	H	0.591259	0.591303	0.895232
	H102	H	0.416539	0.583030	0.117366
	H103	H	0.418719	0.408198	0.895700
	H104	H	0.114413	0.589237	0.426486
	H105	H	0.890415	0.581695	0.596282
	H106	H	0.116565	0.407962	0.598182
	H107	H	0.891827	0.413780	0.420888
	H108	H	0.918975	0.610214	0.097912
	H109	H	0.091439	0.388855	0.090145
	H110	H	0.090160	0.610895	0.921691
	H111	H	0.919086	0.390601	0.925936
	H112	H	0.091639	0.911533	0.618613
	H113	H	0.084874	0.085399	0.396246
	H114	H	0.913483	0.089777	0.619143
	H115	H	0.915619	0.910177	0.395290
	H116	H	0.619645	0.083596	0.910870
	H117	H	0.390703	0.089576	0.092994
	H118	H	0.614406	0.915383	0.096313
	H119	H	0.388246	0.903604	0.922557
	C120	C	0.379228	0.008223	0.629914
	C121	C	0.622799	0.991190	0.628601
	C122	C	0.621734	0.007881	0.385802
	C123	C	0.379356	0.990880	0.385095
	C124	C	0.626121	0.377590	0.016216
	C125	C	0.626180	0.621502	0.999159
	C126	C	0.382853	0.621116	0.015556
	C127	C	0.383071	0.378602	0.999571
	C128	C	0.011694	0.619543	0.385887
	C129	C	0.993674	0.619666	0.627810
	C130	C	0.010414	0.377197	0.628230
	C131	C	0.994206	0.377063	0.385614
	C132	C	0.883446	0.507016	0.129327
	C133	C	0.125972	0.490083	0.129590
	C134	C	0.124687	0.508842	0.885304
	C135	C	0.882788	0.490788	0.885824
	C136	C	0.122832	0.877501	0.514566
	C137	C	0.122332	0.120408	0.497465
	C138	C	0.880281	0.120376	0.514281
	C139	C	0.879981	0.876989	0.497692
	C140	C	0.512627	0.119691	0.887325
	C141	C	0.494001	0.121507	0.128752
	C142	C	0.510364	0.879555	0.127779
	C143	C	0.494480	0.876879	0.885913
	C144	C	0.375508	0.890138	0.690416
	C145	C	0.627647	0.108396	0.691130
	C146	C	0.626858	0.891166	0.322376
	C147	C	0.374550	0.108286	0.323457
	C148	C	0.687916	0.374268	0.898343
	C149	C	0.687852	0.625056	0.116896
	C150	C	0.320908	0.624751	0.897971
	C151	C	0.320555	0.374579	0.116957
	C152	C	0.892930	0.680734	0.381376
	C153	C	0.112294	0.680948	0.631222
	C154	C	0.891796	0.315304	0.632102
	C155	C	0.112032	0.313811	0.380830
	C156	C	0.892091	0.372459	0.690486
	C157	C	0.113146	0.622202	0.687657
	C158	C	0.893606	0.623255	0.323602
	C159	C	0.112650	0.371477	0.323592
	C160	C	0.378661	0.682855	0.898258
	C161	C	0.631363	0.684477	0.116022
	C162	C	0.631811	0.314865	0.898940
	C163	C	0.378095	0.316314	0.116543
	C164	C	0.684165	0.890566	0.380716
	C165	C	0.685065	0.108513	0.632465
	C166	C	0.318721	0.889858	0.631102
	C167	C	0.319450	0.109838	0.383548
	C168	C	0.878702	0.389331	0.190611
	C169	C	0.130285	0.607606	0.191837
	C170	C	0.126307	0.389587	0.826508
	C171	C	0.878814	0.608544	0.824742
	C172	C	0.182908	0.875969	0.395661
	C173	C	0.182042	0.122531	0.616431
	C174	C	0.817863	0.124166	0.396833
	C175	C	0.817971	0.873832	0.615479
	C176	C	0.393693	0.181345	0.885028
	C177	C	0.613294	0.181664	0.133268
	C178	C	0.392936	0.816075	0.132589
	C179	C	0.613397	0.816506	0.881814
	C180	C	0.391143	0.875546	0.188464
	C181	C	0.611755	0.125095	0.191710
	C182	C	0.392188	0.121923	0.828916
	C183	C	0.612207	0.872894	0.823036
	C184	C	0.875395	0.182295	0.397205
	C185	C	0.125558	0.181480	0.615576
	C186	C	0.126764	0.816299	0.396506
	C187	C	0.875544	0.815606	0.615355
	C188	C	0.183733	0.389500	0.885085
	C189	C	0.186989	0.608544	0.132821
	C190	C	0.821437	0.389373	0.132428
	C191	C	0.822582	0.609361	0.883948
	C192	C	0.404664	0.090877	0.605676
	C193	C	0.595626	0.909873	0.601750
	C194	C	0.594986	0.089215	0.412756
	C195	C	0.405191	0.908644	0.410405
	C196	C	0.599698	0.403312	0.098024
	C197	C	0.600070	0.595245	0.917512
	C198	C	0.409572	0.594920	0.097420
	C199	C	0.409410	0.404728	0.917807
	C200	C	0.094089	0.593586	0.412449
	C201	C	0.910807	0.594087	0.602288
	C202	C	0.093024	0.402960	0.602184
	C203	C	0.911946	0.403791	0.412013
	C204	C	0.910422	0.588639	0.103446
	C205	C	0.099510	0.408501	0.102903
	C206	C	0.099459	0.591519	0.909804
	C207	C	0.908676	0.408425	0.911195
	C208	C	0.097259	0.902278	0.597087
	C209	C	0.096722	0.094594	0.415295
	C210	C	0.907015	0.094074	0.596161
	C211	C	0.906557	0.902894	0.415798
	C212	C	0.595796	0.093919	0.912247
	C213	C	0.411557	0.096061	0.102032
	C214	C	0.592523	0.906657	0.101419
	C215	C	0.411767	0.902767	0.912434
	Zn216	Zn	0.501847	-0.001015	0.758740
	Zn217	Zn	0.500794	0.000010	0.256815
	Zn218	Zn	0.754563	0.499284	0.007610
	Zn219	Zn	0.253835	0.499619	0.007100
	Zn220	Zn	0.001996	0.748374	0.506620
	Zn221	Zn	0.001243	0.249181	0.506210
	Zn222	Zn	0.002716	0.498890	0.756292
	Zn223	Zn	0.004590	0.498193	0.258014
	Zn224	Zn	0.504020	0.750193	0.007945
	Zn225	Zn	0.504424	0.249207	0.007647
	Zn226	Zn	0.751661	-0.000881	0.506006
	Zn227	Zn	0.251322	-0.000295	0.506401
	N228	N	0.412302	0.964931	0.690108
	N229	N	0.589685	0.034130	0.689082
	N230	N	0.588715	0.965214	0.325363
	N231	N	0.411063	0.033395	0.324281
	N232	N	0.684591	0.412439	0.972162
	N233	N	0.684732	0.586507	0.043255
	N234	N	0.323422	0.587146	0.972074
	N235	N	0.323876	0.413154	0.043318
	N236	N	0.967337	0.678330	0.419619
	N237	N	0.036926	0.679644	0.594644
	N238	N	0.966358	0.318028	0.594003
	N239	N	0.037276	0.317137	0.418672
	N240	N	0.966691	0.410515	0.688044
	N241	N	0.038332	0.584590	0.685515
	N242	N	0.968425	0.585805	0.326290
	N243	N	0.038439	0.410003	0.326362
	N244	N	0.416608	0.680627	0.972523
	N245	N	0.593782	0.682472	0.041753
	N246	N	0.594174	0.316462	0.973375
	N247	N	0.416859	0.318982	0.042788
	N248	N	0.680886	0.963967	0.419605
	N249	N	0.682179	0.034663	0.594316
	N250	N	0.320781	0.964301	0.594396
	N251	N	0.322215	0.035740	0.421194
	N252	N	0.916572	0.463579	0.188959
	N253	N	0.093391	0.532983	0.190017
	N254	N	0.090556	0.464874	0.826392
	N255	N	0.915171	0.533586	0.825653
	N256	N	0.180650	0.913447	0.470052
	N257	N	0.180205	0.085291	0.542017
	N258	N	0.820695	0.086455	0.470990
	N259	N	0.820449	0.911052	0.541070
	N260	N	0.469774	0.180454	0.920067
	N261	N	0.538900	0.179705	0.094857
	N262	N	0.468083	0.818538	0.095507
	N263	N	0.538967	0.818960	0.920349
	N264	N	0.465286	0.914366	0.185550
	N265	N	0.536518	0.088604	0.189171
	N266	N	0.467098	0.084342	0.830297
	N267	N	0.537064	0.909560	0.825380
	N268	N	0.913468	0.180046	0.471190
	N269	N	0.089189	0.180225	0.540631
	N270	N	0.090172	0.817177	0.471354
	N271	N	0.913251	0.817341	0.540910
	N272	N	0.182967	0.464590	0.920832
	N273	N	0.184494	0.534472	0.094759
	N274	N	0.824027	0.463570	0.095138
	N275	N	0.824905	0.535066	0.921356
	O276	O	-0.017521	1.149990	-0.059397
	H277	H	0.000043	1.147835	-0.055657
	H278	H	-0.015794	1.153074	-0.076441
	O279	O	1.063745	0.158678	1.088500
	H280	H	1.071495	0.151368	1.095848
	H281	H	1.062848	0.155361	1.081757
	O282	O	0.380412	0.522843	0.597252
	H283	H	0.375829	0.511951	0.605535
	H284	H	0.393411	0.530116	0.596926
	O285	O	1.118230	0.931800	0.144900
	H286	H	1.100447	0.928625	0.150281
	H287	H	1.131603	0.935403	0.144737
	O288	O	0.657062	0.475029	0.428631
	H289	H	0.652455	0.473879	0.456147
	H290	H	0.663942	0.470180	0.414275
	O291	O	0.712200	0.517515	0.717136
	H292	H	0.733968	0.528840	0.735542
	H293	H	0.712526	0.537921	0.707574
	O294	O	0.060922	0.027113	1.144623
	H295	H	0.069508	0.025566	1.147637
	H296	H	0.064951	0.036016	1.127598
	O297	O	0.502695	0.432799	0.476764
	H298	H	0.487585	0.421416	0.475276
	H299	H	0.512317	0.420165	0.474946
	O300	O	0.285205	0.468394	0.722596
	H301	H	0.261981	0.454014	0.748561
	H302	H	0.296567	0.456847	0.732549
	O303	O	0.638066	0.487215	0.355444
	H304	H	0.648666	0.480955	0.334165
	H305	H	0.637654	0.492919	0.354634
	O306	O	0.545290	0.283953	0.290579
	H307	H	0.545898	0.247030	0.263188
	H308	H	0.575962	0.297261	0.305948
	O309	O	0.463929	0.665985	0.357834
	H310	H	0.454537	0.642653	0.365867
	H311	H	0.467525	0.659222	0.333022
	O312	O	-0.017671	0.818212	0.817005
	H313	H	-0.021226	0.805463	0.810957
	H314	H	-0.033077	0.829192	0.813688
	O315	O	0.468831	0.360787	0.465961
	H316	H	0.469626	0.362951	0.456486
	H317	H	0.459360	0.354987	0.464569
	O318	O	1.033957	-0.221723	0.050928
	H319	H	1.017418	-0.219837	0.040235
	H320	H	1.035155	-0.223250	0.057334
	O321	O	-0.074559	0.129111	-0.006906
	H322	H	-0.083561	0.127128	-0.011832
	H323	H	-0.078903	0.124718	0.014765
	O324	O	0.473887	0.464880	0.336444
	H325	H	0.476204	0.469672	0.343999
	H326	H	0.479885	0.450592	0.338290
	O327	O	0.532268	0.589972	0.438517
	H328	H	0.523928	0.588179	0.443984
	H329	H	0.534877	0.595649	0.433133
	O330	O	-0.050616	0.877944	-0.148823
	H331	H	-0.067030	0.896351	-0.152487
	H332	H	-0.042362	0.891072	-0.145613
	O333	O	0.372591	0.473034	0.538036
	H334	H	0.359838	0.484572	0.541604
	H335	H	0.364253	0.481299	0.527637
	O336	O	0.120922	0.147114	0.195720
	H337	H	0.132226	0.136155	0.198402
	H338	H	0.134802	0.149966	0.180968
	O339	O	0.052926	1.147143	0.971760
	H340	H	0.058049	1.152355	0.975267
	H341	H	0.036984	1.139233	0.969069
	O342	O	-0.025430	0.863002	1.008374
	H343	H	-0.038529	0.859804	1.018856
	H344	H	-0.050896	0.858592	1.014435
	O345	O	0.799203	0.951630	-0.028319
	H346	H	0.803782	0.957598	-0.030685
	H347	H	0.798330	0.972570	-0.037964
	O348	O	0.528039	0.686554	0.464302
	H349	H	0.548541	0.669571	0.461654
	H350	H	0.516351	0.677270	0.437468
	O351	O	-0.211937	1.018699	0.788614
	H352	H	-0.217696	1.045704	0.784504
	H353	H	-0.229355	1.043582	0.772337
	O354	O	-0.164573	0.826657	0.191981
	H355	H	-0.138601	0.821263	0.175163
	H356	H	-0.165392	0.815040	0.176275
	O357	O	-0.455167	0.285798	0.614165
	H358	H	-0.457935	0.294818	0.623271
	H359	H	-0.472311	0.281644	0.617236
	O360	O	0.304173	0.588659	0.308414
	H361	H	0.303971	0.568213	0.311711
	H362	H	0.300437	0.584241	0.295589
	O363	O	-0.035391	-0.042350	1.083106
	H364	H	-0.031492	-0.045855	1.084286
	H365	H	-0.033896	-0.045089	1.081294
	O366	O	0.634593	0.616619	0.355733
	H367	H	0.613561	0.610371	0.349338
	H368	H	0.628812	0.594451	0.354464
	O369	O	0.420250	0.702433	0.598380
	H370	H	0.436849	0.693901	0.584058
	H371	H	0.428137	0.697826	0.575125
	O372	O	1.099709	0.131873	1.002824
	H373	H	1.087598	0.131331	0.994635
	H374	H	1.095062	0.128779	1.016502
	O375	O	0.496530	0.310291	0.719128
	H376	H	0.517394	0.324648	0.734612
	H377	H	0.504733	0.313461	0.733162
	O378	O	1.195458	0.795737	0.982182
	H379	H	1.220018	0.786200	0.982695
	H380	H	1.183960	0.803469	1.002348
	O381	O	0.607380	0.448507	0.670669
	H382	H	0.605135	0.460910	0.674907
	H383	H	0.625075	0.463763	0.681471
	O384	O	0.529309	0.707885	0.718970
	H385	H	0.519912	0.741456	0.736463
	H386	H	0.509273	0.713896	0.684950
	O387	O	0.186930	-0.185913	0.817333
	H388	H	0.201493	-0.208057	0.840948
	H389	H	0.147720	-0.197927	0.823174
	O390	O	0.127918	-0.065319	0.046321
	H391	H	0.146671	-0.075797	0.031827
	H392	H	0.125001	-0.057339	0.028435
	O393	O	0.855347	1.199903	0.925364
	H394	H	0.865439	1.207296	0.953141
	H395	H	0.846705	1.195966	0.926055
	O396	O	1.031424	0.104534	0.209906
	H397	H	1.044862	0.097049	0.209714
	H398	H	1.023522	0.105914	0.220044
	O399	O	1.192730	0.139042	0.859873
	H400	H	1.171836	0.128560	0.868210
	H401	H	1.190455	0.132516	0.849379
	O402	O	0.797003	0.977320	1.216643
	H403	H	0.774500	0.961794	1.237518
	H404	H	0.807253	0.946525	1.215397
	O405	O	1.714570	0.711513	-0.472529
	H406	H	1.718785	0.721763	-0.486044
	H407	H	1.723106	0.720168	-0.463037
	O408	O	0.791238	-0.214637	0.035789
	H409	H	0.762595	-0.230983	0.032630
	H410	H	0.785716	-0.201672	0.020780
	O411	O	1.041148	1.076280	-0.128690
	H412	H	1.067518	1.067513	-0.125091
	H413	H	1.021300	1.067309	-0.120310
	O414	O	0.658723	0.439402	0.490902
	H415	H	0.652307	0.431390	0.508718
	H416	H	0.653839	0.443415	0.509073
	O417	O	0.292228	0.286661	0.533423
	H418	H	0.279544	0.282115	0.551387
	H419	H	0.276254	0.287548	0.529925
	O420	O	0.168223	-0.038426	0.112178
	H421	H	0.161738	-0.035259	0.119913
	H422	H	0.170081	-0.043452	0.109609
	O423	O	0.711113	0.292194	0.481903
	H424	H	0.684809	0.280662	0.497994
	H425	H	0.726833	0.276241	0.490488
	O426	O	0.483426	0.561820	0.681421
	H427	H	0.491194	0.572611	0.672430
	H428	H	0.468998	0.577363	0.667155
	O429	O	0.308223	0.469696	0.356438
	H430	H	0.327350	0.456814	0.356537
	H431	H	0.297979	0.470242	0.345946
	O432	O	0.690128	0.337319	0.314780
	H433	H	0.688511	0.349751	0.337058
	H434	H	0.700705	0.351704	0.327142
	O435	O	0.294081	0.709462	0.488793
	H436	H	0.285513	0.702042	0.485925
	H437	H	0.282127	0.714995	0.470611
	O438	O	-0.119184	0.086208	0.059738
	H439	H	-0.132613	0.090766	0.068945
	H440	H	-0.113105	0.077568	0.066378
	O441	O	0.818647	0.176473	-0.160791
	H442	H	0.851131	0.188709	-0.156931
	H443	H	0.823322	0.193014	-0.132196
	O444	O	0.216991	0.971061	0.792188
	H445	H	0.251949	0.960458	0.759339
	H446	H	0.204556	0.927434	0.800252
	O447	O	0.305784	0.302017	0.704818
	H448	H	0.355854	0.292059	0.709190
	H449	H	0.288811	0.299623	0.704389
	O450	O	0.688328	0.675521	0.687043
	H451	H	0.649724	0.682550	0.689931
	H452	H	0.681769	0.670967	0.663484
	O453	O	0.323790	0.602628	0.396926
	H454	H	0.311991	0.583632	0.411711
	H455	H	0.341296	0.599613	0.394834
