data_Molecule from HDF5

_cell_length_a		16.302757
_cell_length_b		16.343935
_cell_length_c		16.309283
_cell_angle_alpha	90.526816
_cell_angle_beta	89.972529
_cell_angle_gamma	89.890349
_symmetry_space_group_name_H-M	'P 1'
_symmetry_Int_Tables_number		1

loop_
	_symmetry_equiv_pos_as_xyz
	x,y,z

loop_
	_atom_site_label
	_atom_site_type_symbol
	_atom_site_fract_x
	_atom_site_fract_y
	_atom_site_fract_z
	H0	H	0.401427	0.837473	0.724302
	H1	H	0.604889	0.160545	0.727841
	H2	H	0.603203	0.837851	0.290903
	H3	H	0.401293	0.162111	0.291683
	H4	H	0.722797	0.397776	0.846904
	H5	H	0.719991	0.600148	0.172317
	H6	H	0.286710	0.601011	0.848371
	H7	H	0.287068	0.398107	0.171111
	H8	H	0.840779	0.714200	0.411321
	H9	H	0.165018	0.721668	0.614517
	H10	H	0.841393	0.286854	0.609636
	H11	H	0.164848	0.279670	0.405949
	H12	H	0.843275	0.401988	0.726539
	H13	H	0.167616	0.603688	0.727006
	H14	H	0.842660	0.600036	0.293432
	H15	H	0.167314	0.396276	0.292537
	H16	H	0.404306	0.714349	0.846367
	H17	H	0.608015	0.719801	0.169953
	H18	H	0.609571	0.279920	0.847278
	H19	H	0.404807	0.283687	0.170783
	H20	H	0.721948	0.838903	0.403116
	H21	H	0.719942	0.161369	0.611421
	H22	H	0.285701	0.837975	0.607691
	H23	H	0.286391	0.162802	0.409291
	H24	H	0.905151	0.337222	0.225417
	H25	H	0.107653	0.660428	0.230585
	H26	H	0.109351	0.340480	0.788824
	H27	H	0.906444	0.662738	0.797140
	H28	H	0.219185	0.896071	0.346017
	H29	H	0.221008	0.103453	0.669932
	H30	H	0.786378	0.100227	0.345787
	H31	H	0.784655	0.902025	0.669731
	H32	H	0.344236	0.218202	0.906363
	H33	H	0.667561	0.215061	0.109831
	H34	H	0.343770	0.781407	0.109725
	H35	H	0.666207	0.780307	0.903084
	H36	H	0.342341	0.899704	0.223107
	H37	H	0.666291	0.101145	0.227532
	H38	H	0.342183	0.099738	0.793794
	H39	H	0.665623	0.896623	0.788738
	H40	H	0.900949	0.218057	0.347317
	H41	H	0.103204	0.217715	0.671221
	H42	H	0.103764	0.779818	0.348347
	H43	H	0.899280	0.785085	0.671371
	H44	H	0.222594	0.338768	0.906923
	H45	H	0.224518	0.660977	0.115617
	H46	H	0.789688	0.337358	0.109553
	H47	H	0.789247	0.661364	0.912127
	H48	H	0.417479	0.112457	0.599869
	H49	H	0.590893	0.883861	0.602019
	H50	H	0.591404	0.116776	0.408920
	H51	H	0.409594	0.884906	0.415300
	H52	H	0.594742	0.398707	0.126784
	H53	H	0.595391	0.595156	0.892194
	H54	H	0.414504	0.595563	0.124812
	H55	H	0.416484	0.408834	0.894520
	H56	H	0.120045	0.587932	0.416462
	H57	H	0.889446	0.596204	0.598137
	H58	H	0.120306	0.407339	0.598641
	H59	H	0.892142	0.411719	0.424753
	H60	H	0.119830	0.409516	0.598868
	H61	H	0.891696	0.586401	0.602935
	H62	H	0.120801	0.595671	0.420261
	H63	H	0.889706	0.414423	0.412214
	H64	H	0.413382	0.588759	0.123719
	H65	H	0.604398	0.589058	0.891663
	H66	H	0.606402	0.410818	0.126497
	H67	H	0.415987	0.407260	0.894212
	H68	H	0.587925	0.111267	0.424094
	H69	H	0.591662	0.887297	0.592229
	H70	H	0.406904	0.113449	0.595038
	H71	H	0.410973	0.884600	0.412475
	H72	H	0.913987	0.612248	0.097927
	H73	H	0.100278	0.384414	0.098560
	H74	H	0.098012	0.615978	0.921433
	H75	H	0.909455	0.382843	0.918160
	H76	H	0.090328	0.905360	0.624478
	H77	H	0.095088	0.097579	0.390121
	H78	H	0.905083	0.089569	0.624661
	H79	H	0.914060	0.909406	0.394642
	H80	H	0.621720	0.090347	0.916040
	H81	H	0.389936	0.090960	0.099047
	H82	H	0.619079	0.915919	0.101061
	H83	H	0.389710	0.907817	0.917702
	H84	H	0.621989	0.904748	0.102956
	H85	H	0.388592	0.093696	0.099692
	H86	H	0.620384	0.089634	0.920001
	H87	H	0.388529	0.906062	0.914333
	H88	H	0.916806	0.092093	0.621807
	H89	H	0.098293	0.084382	0.394409
	H90	H	0.100656	0.911531	0.626446
	H91	H	0.914830	0.903452	0.393374
	H92	H	0.096928	0.616263	0.918473
	H93	H	0.095070	0.384404	0.102756
	H94	H	0.909252	0.615985	0.104280
	H95	H	0.918199	0.383183	0.911082
	H96	H	0.409833	0.116968	0.606500
	H97	H	0.599654	0.883095	0.596840
	H98	H	0.603180	0.117160	0.419971
	H99	H	0.412611	0.885493	0.415340
	H100	H	0.591132	0.413727	0.120406
	H101	H	0.594667	0.585375	0.895864
	H102	H	0.419396	0.591660	0.122237
	H103	H	0.414644	0.408377	0.894797
	H104	H	0.117928	0.589033	0.424717
	H105	H	0.886302	0.594727	0.609387
	H106	H	0.120147	0.408693	0.599770
	H107	H	0.886816	0.402724	0.416551
	H108	H	0.917525	0.614368	0.106360
	H109	H	0.094221	0.387011	0.096707
	H110	H	0.095076	0.614992	0.920930
	H111	H	0.919556	0.387268	0.921376
	H112	H	0.091689	0.917298	0.621379
	H113	H	0.085323	0.088977	0.395787
	H114	H	0.909578	0.100565	0.625876
	H115	H	0.909625	0.906536	0.392899
	H116	H	0.619783	0.086848	0.916793
	H117	H	0.390519	0.093018	0.097325
	H118	H	0.619127	0.907642	0.091902
	H119	H	0.388793	0.904490	0.917686
	C120	C	0.381478	0.007512	0.629855
	C121	C	0.624172	0.991386	0.629015
	C122	C	0.624582	0.008440	0.386357
	C123	C	0.381046	0.991807	0.385505
	C124	C	0.627859	0.377159	0.017597
	C125	C	0.627623	0.620976	1.000506
	C126	C	0.384482	0.621363	0.017242
	C127	C	0.385081	0.378566	1.001139
	C128	C	0.012400	0.620466	0.389996
	C129	C	0.995923	0.623590	0.633380
	C130	C	0.013056	0.379749	0.629573
	C131	C	0.996041	0.377797	0.386950
	C132	C	0.883808	0.507645	0.132028
	C133	C	0.127098	0.491627	0.131357
	C134	C	0.127635	0.509367	0.888279
	C135	C	0.884977	0.491293	0.888214
	C136	C	0.124380	0.879063	0.517278
	C137	C	0.123752	0.121676	0.500201
	C138	C	0.880831	0.122712	0.516945
	C139	C	0.881790	0.878509	0.500830
	C140	C	0.513846	0.120104	0.887285
	C141	C	0.496515	0.121881	0.129870
	C142	C	0.512970	0.879438	0.128182
	C143	C	0.495936	0.876204	0.885527
	C144	C	0.381688	0.886244	0.686328
	C145	C	0.624168	0.112351	0.688411
	C146	C	0.623868	0.886580	0.328729
	C147	C	0.381525	0.113613	0.329712
	C148	C	0.684759	0.377547	0.895618
	C149	C	0.682658	0.620233	0.123182
	C150	C	0.326338	0.619854	0.896039
	C151	C	0.326596	0.379139	0.122729
	C152	C	0.889942	0.676363	0.391408
	C153	C	0.117073	0.682057	0.633157
	C154	C	0.890399	0.324662	0.629167
	C155	C	0.116946	0.319141	0.386820
	C156	C	0.891342	0.381980	0.687315
	C157	C	0.118460	0.623308	0.689214
	C158	C	0.890849	0.619509	0.332490
	C159	C	0.118068	0.376987	0.330165
	C160	C	0.384821	0.676512	0.895196
	C161	C	0.627011	0.679777	0.122002
	C162	C	0.628074	0.319225	0.895659
	C163	C	0.384786	0.321865	0.122479
	C164	C	0.682447	0.887201	0.385066
	C165	C	0.681320	0.112752	0.630303
	C166	C	0.323734	0.886579	0.628414
	C167	C	0.324480	0.114053	0.388316
	C168	C	0.884875	0.385880	0.187822
	C169	C	0.126968	0.612447	0.191042
	C170	C	0.128493	0.388446	0.828443
	C171	C	0.886334	0.613878	0.834576
	C172	C	0.181123	0.877564	0.395184
	C173	C	0.181753	0.122462	0.621679
	C174	C	0.824507	0.120652	0.394560
	C175	C	0.823641	0.881440	0.621884
	C176	C	0.392298	0.178702	0.887361
	C177	C	0.618890	0.177394	0.129781
	C178	C	0.391760	0.821165	0.128187
	C179	C	0.617895	0.819185	0.884754
	C180	C	0.390906	0.879995	0.184870
	C181	C	0.618053	0.120991	0.188386
	C182	C	0.391103	0.119610	0.831489
	C183	C	0.617386	0.876791	0.827565
	C184	C	0.881479	0.179109	0.395316
	C185	C	0.123380	0.179337	0.622260
	C186	C	0.123825	0.819438	0.396263
	C187	C	0.881101	0.823528	0.622753
	C188	C	0.184582	0.387544	0.887483
	C189	C	0.185165	0.612635	0.133797
	C190	C	0.827460	0.385872	0.129959
	C191	C	0.827814	0.613044	0.891586
	C192	C	0.404908	0.092352	0.607120
	C193	C	0.600915	0.906785	0.604152
	C194	C	0.600927	0.093148	0.410545
	C195	C	0.404123	0.906948	0.407887
	C196	C	0.604270	0.400863	0.102623
	C197	C	0.604663	0.597089	0.915383
	C198	C	0.408583	0.598675	0.101941
	C199	C	0.408649	0.401531	0.916692
	C200	C	0.097581	0.597471	0.413601
	C201	C	0.911218	0.599530	0.610169
	C202	C	0.098215	0.401991	0.605954
	C203	C	0.911427	0.402615	0.410813
	C204	C	0.906912	0.592341	0.109496
	C205	C	0.103399	0.407238	0.106564
	C206	C	0.103608	0.593833	0.913066
	C207	C	0.908867	0.406366	0.910360
	C208	C	0.101124	0.904209	0.602082
	C209	C	0.100114	0.097431	0.415504
	C210	C	0.903771	0.100631	0.601956
	C211	C	0.906034	0.900109	0.415740
	C212	C	0.598422	0.096108	0.910941
	C213	C	0.411682	0.099004	0.105857
	C214	C	0.598015	0.902828	0.105161
	C215	C	0.411129	0.899397	0.909656
	Zn216	Zn	0.503795	-0.001177	0.758870
	Zn217	Zn	0.503870	0.000293	0.257575
	Zn218	Zn	0.755638	0.499013	0.009457
	Zn219	Zn	0.255793	0.500017	0.009964
	Zn220	Zn	0.003550	0.750176	0.510637
	Zn221	Zn	0.003288	0.250628	0.508725
	Zn222	Zn	0.006410	0.500632	0.759633
	Zn223	Zn	0.005316	0.498936	0.260176
	Zn224	Zn	0.505811	0.749297	0.008053
	Zn225	Zn	0.505964	0.249058	0.008234
	Zn226	Zn	0.752798	0.000227	0.507612
	Zn227	Zn	0.252522	0.000289	0.507601
	N228	N	0.416704	0.962735	0.687386
	N229	N	0.589370	0.035842	0.687737
	N230	N	0.588530	0.963043	0.329401
	N231	N	0.416076	0.036657	0.327889
	N232	N	0.684421	0.412962	0.972320
	N233	N	0.683120	0.584402	0.046651
	N234	N	0.325982	0.586326	0.972910
	N235	N	0.326783	0.413703	0.046239
	N236	N	0.966740	0.677029	0.426466
	N237	N	0.039838	0.682490	0.599264
	N238	N	0.966918	0.323355	0.593941
	N239	N	0.039886	0.319349	0.421271
	N240	N	0.968777	0.415531	0.687757
	N241	N	0.042157	0.587665	0.689617
	N242	N	0.967966	0.585604	0.331496
	N243	N	0.041752	0.412742	0.330281
	N244	N	0.420435	0.677464	0.971579
	N245	N	0.593454	0.680248	0.044735
	N246	N	0.593124	0.318988	0.972447
	N247	N	0.420500	0.321232	0.046090
	N248	N	0.683040	0.964069	0.420120
	N249	N	0.681286	0.036603	0.593876
	N250	N	0.323425	0.963109	0.594048
	N251	N	0.323910	0.037222	0.422033
	N252	N	0.919308	0.462581	0.189124
	N253	N	0.091701	0.536112	0.189805
	N254	N	0.093781	0.465279	0.828934
	N255	N	0.920985	0.537221	0.832269
	N256	N	0.181333	0.914137	0.471613
	N257	N	0.182075	0.087238	0.544839
	N258	N	0.823674	0.086601	0.471208
	N259	N	0.823775	0.914787	0.544912
	N260	N	0.469554	0.179246	0.921318
	N261	N	0.542325	0.178200	0.094325
	N262	N	0.468584	0.820911	0.093563
	N263	N	0.541269	0.818534	0.920098
	N264	N	0.467175	0.915695	0.184845
	N265	N	0.540894	0.087329	0.188693
	N266	N	0.467475	0.084080	0.831167
	N267	N	0.540552	0.911409	0.827886
	N268	N	0.915732	0.180657	0.472416
	N269	N	0.087824	0.178684	0.545763
	N270	N	0.089157	0.820504	0.473108
	N271	N	0.916523	0.821678	0.546224
	N272	N	0.184181	0.463619	0.923999
	N273	N	0.185345	0.536509	0.097319
	N274	N	0.826387	0.462559	0.096195
	N275	N	0.826945	0.535819	0.924380
	O276	O	-0.150041	0.025888	0.119093
	H277	H	-0.157967	0.008869	0.135818
	H278	H	-0.147319	0.010332	0.111515
	O279	O	0.533276	0.310105	0.464396
	H280	H	0.542346	0.291262	0.476695
	H281	H	0.549900	0.312284	0.445131
	O282	O	1.029851	-0.133452	-0.117040
	H283	H	1.028756	-0.134147	-0.111208
	H284	H	1.026228	-0.130702	-0.119692
	O285	O	-0.602536	1.458773	-0.506188
	H286	H	-0.611486	1.458450	-0.503393
	H287	H	-0.596974	1.460903	-0.502364
	O288	O	0.580679	0.494851	0.533620
	H289	H	0.578201	0.482180	0.523623
	H290	H	0.567693	0.490254	0.540128
	O291	O	0.488101	0.485302	0.339207
	H292	H	0.487556	0.477979	0.343057
	H293	H	0.485466	0.483620	0.330701
	O294	O	1.003361	0.933501	0.952968
	H295	H	0.992614	0.937202	0.950562
	H296	H	1.003610	0.915871	0.945778
	O297	O	-0.123179	0.020747	-0.067050
	H298	H	-0.112526	0.035813	-0.064020
	H299	H	-0.132326	0.015759	-0.054684
	O300	O	0.610553	0.501902	0.544604
	H301	H	0.617835	0.499530	0.549692
	H302	H	0.625048	0.491379	0.549898
	O303	O	0.077310	1.156308	1.166005
	H304	H	0.074564	1.159621	1.161658
	H305	H	0.079246	1.156768	1.166172
	O306	O	0.549825	0.484819	0.533998
	H307	H	0.548529	0.506879	0.544414
	H308	H	0.553760	0.482514	0.531702
	O309	O	0.995973	-0.077865	-0.017250
	H310	H	0.993186	-0.076681	-0.010580
	H311	H	0.990668	-0.078589	-0.020651
	O312	O	-0.384014	0.515062	0.580002
	H313	H	-0.374930	0.510300	0.583086
	H314	H	-0.375457	0.528079	0.584612
	O315	O	0.344843	0.613526	0.428199
	H316	H	0.354636	0.599069	0.418862
	H317	H	0.323930	0.610433	0.412919
	O318	O	0.800622	0.756125	0.715683
	H319	H	0.801434	0.767819	0.717538
	H320	H	0.793196	0.751886	0.712551
	O321	O	0.486525	0.653805	0.459815
	H322	H	0.480527	0.659252	0.458712
	H323	H	0.473985	0.654442	0.475579
	O324	O	0.610191	0.496955	0.589428
	H325	H	0.606921	0.510542	0.596410
	H326	H	0.604707	0.500165	0.594295
	O327	O	-0.024385	1.131169	0.920854
	H328	H	-0.018172	1.127250	0.906814
	H329	H	-0.018637	1.136148	0.921160
	O330	O	0.407610	0.381287	0.546226
	H331	H	0.419072	0.374276	0.560315
	H332	H	0.409474	0.388270	0.540328
	O333	O	-0.145177	0.905776	1.040781
	H334	H	-0.139025	0.909970	1.053254
	H335	H	-0.140938	0.904554	1.036916
	O336	O	1.130333	1.013811	1.075052
	H337	H	1.132861	1.020095	1.080135
	H338	H	1.125487	1.021593	1.067048
	O339	O	0.523532	0.472045	0.521006
	H340	H	0.534605	0.466296	0.505436
	H341	H	0.512514	0.465673	0.518340
	O342	O	1.105903	-0.090239	-0.062554
	H343	H	1.098175	-0.089119	-0.075120
	H344	H	1.117015	-0.094522	-0.068614
	O345	O	0.395162	0.390866	0.576544
	H346	H	0.387607	0.382901	0.581349
	H347	H	0.396714	0.402478	0.584178
	O348	O	1.028018	0.963472	0.906493
	H349	H	1.034918	0.951135	0.901634
	H350	H	1.030428	0.963038	0.922945
	O351	O	1.164090	1.018869	0.095933
	H352	H	1.161394	1.020234	0.088992
	H353	H	1.156048	1.026126	0.106613
	O354	O	0.520906	0.393762	0.416806
	H355	H	0.511486	0.388832	0.411360
	H356	H	0.527621	0.407278	0.396638
	O357	O	0.549930	0.368052	0.470036
	H358	H	0.560411	0.373022	0.467073
	H359	H	0.541400	0.353004	0.471219
	O360	O	0.004645	0.103223	0.036263
	H361	H	-0.009092	0.101795	0.037500
	H362	H	0.004709	0.098356	0.031115
	O363	O	0.444006	0.497134	0.560385
	H364	H	0.449413	0.499160	0.566356
	H365	H	0.455668	0.508440	0.557884
	O366	O	0.491113	0.594996	0.564887
	H367	H	0.485409	0.581985	0.567787
	H368	H	0.500428	0.603795	0.571404
	O369	O	-0.003489	0.043468	0.067881
	H370	H	0.010155	0.037712	0.061675
	H371	H	-0.013233	0.043441	0.072079
	O372	O	0.399804	0.431646	0.561212
	H373	H	0.390277	0.441774	0.550129
	H374	H	0.403597	0.431055	0.560023
	O375	O	0.639183	0.612620	0.475081
	H376	H	0.643605	0.616955	0.479167
	H377	H	0.624705	0.610205	0.483628
	O378	O	0.598655	0.595137	0.478381
	H379	H	0.587580	0.598845	0.478913
	H380	H	0.600470	0.604121	0.490670
	O381	O	0.095149	0.906383	1.034482
	H382	H	0.097193	0.914764	1.040676
	H383	H	0.104436	0.907166	1.026836
	O384	O	0.128035	0.930893	0.007793
	H385	H	0.129543	0.935255	0.012055
	H386	H	0.134918	0.929123	0.009851
	O387	O	0.870583	-0.040007	0.967040
	H388	H	0.867997	-0.033580	0.966385
	H389	H	0.867864	-0.032367	0.962274
	O390	O	0.013002	0.994659	-0.067242
	H391	H	0.017769	0.988680	-0.063500
	H392	H	0.010032	0.998347	-0.085087
	O393	O	0.999976	0.979196	0.167144
	H394	H	1.004249	0.976080	0.176101
	H395	H	1.012915	0.979952	0.156486
	O396	O	0.397355	0.618440	0.519287
	H397	H	0.391437	0.623986	0.516970
	H398	H	0.409877	0.604675	0.507352
	O399	O	-0.072264	1.116043	1.012699
	H400	H	-0.076738	1.115781	1.011946
	H401	H	-0.064426	1.110537	1.014193
	O402	O	1.007855	-0.029058	0.007050
	H403	H	0.995178	-0.030093	0.013975
	H404	H	1.012509	-0.031789	0.011716
	O405	O	1.052086	0.086143	0.121385
	H406	H	1.062158	0.083551	0.127072
	H407	H	1.067734	0.086415	0.124199
