data_Molecule from HDF5

_cell_length_a		16.281573
_cell_length_b		16.317065
_cell_length_c		16.327858
_cell_angle_alpha	89.815937
_cell_angle_beta	89.946967
_cell_angle_gamma	90.037091
_symmetry_space_group_name_H-M	'P 1'
_symmetry_Int_Tables_number		1

loop_
	_symmetry_equiv_pos_as_xyz
	x,y,z

loop_
	_atom_site_label
	_atom_site_type_symbol
	_atom_site_fract_x
	_atom_site_fract_y
	_atom_site_fract_z
	H0	H	0.404343	0.842945	0.717780
	H1	H	0.602147	0.168923	0.716222
	H2	H	0.601863	0.841748	0.287830
	H3	H	0.404445	0.167700	0.285042
	H4	H	0.717373	0.408649	0.838288
	H5	H	0.718415	0.603579	0.165358
	H6	H	0.289281	0.603408	0.837829
	H7	H	0.287984	0.407154	0.164808
	H8	H	0.840523	0.720906	0.402302
	H9	H	0.168439	0.718963	0.597810
	H10	H	0.840119	0.291315	0.600291
	H11	H	0.167920	0.291319	0.403497
	H12	H	0.840784	0.406936	0.715954
	H13	H	0.168304	0.602964	0.714862
	H14	H	0.840592	0.604759	0.286950
	H15	H	0.167729	0.407595	0.287252
	H16	H	0.406097	0.720098	0.838518
	H17	H	0.602982	0.719913	0.165237
	H18	H	0.602272	0.292256	0.838300
	H19	H	0.404414	0.291355	0.165488
	H20	H	0.717705	0.841997	0.404413
	H21	H	0.716253	0.169436	0.598016
	H22	H	0.289521	0.842416	0.600749
	H23	H	0.291028	0.169318	0.404162
	H24	H	0.904437	0.342316	0.218167
	H25	H	0.103191	0.668530	0.216263
	H26	H	0.102346	0.341810	0.787426
	H27	H	0.905973	0.668467	0.786125
	H28	H	0.218008	0.908793	0.337862
	H29	H	0.217689	0.102829	0.664640
	H30	H	0.788891	0.104349	0.338186
	H31	H	0.789398	0.907825	0.666016
	H32	H	0.339305	0.220518	0.902893
	H33	H	0.667050	0.220318	0.099089
	H34	H	0.339816	0.790218	0.100418
	H35	H	0.667220	0.792143	0.903148
	H36	H	0.339472	0.905986	0.216792
	H37	H	0.666873	0.104063	0.215708
	H38	H	0.339833	0.103630	0.787772
	H39	H	0.667504	0.908796	0.787866
	H40	H	0.905089	0.221124	0.338739
	H41	H	0.102070	0.219342	0.665213
	H42	H	0.101147	0.793315	0.337628
	H43	H	0.905461	0.789806	0.665014
	H44	H	0.215578	0.340899	0.906069
	H45	H	0.217776	0.668565	0.098879
	H46	H	0.789182	0.341901	0.100697
	H47	H	0.791167	0.669404	0.904117
	H48	H	0.414432	0.119298	0.588591
	H49	H	0.593662	0.888497	0.603142
	H50	H	0.597787	0.121598	0.407642
	H51	H	0.406323	0.886281	0.404773
	H52	H	0.591845	0.414720	0.115789
	H53	H	0.601445	0.590661	0.887209
	H54	H	0.413104	0.598217	0.117229
	H55	H	0.401726	0.410264	0.882346
	H56	H	0.120423	0.601549	0.409452
	H57	H	0.886693	0.596035	0.601686
	H58	H	0.120056	0.409984	0.589695
	H59	H	0.889746	0.411960	0.415383
	H60	H	0.119854	0.417087	0.596791
	H61	H	0.887248	0.605066	0.590792
	H62	H	0.119638	0.597232	0.410155
	H63	H	0.888989	0.418593	0.406944
	H64	H	0.409147	0.599569	0.118488
	H65	H	0.588165	0.601451	0.889109
	H66	H	0.595767	0.406772	0.119723
	H67	H	0.411603	0.420633	0.888070
	H68	H	0.595269	0.122236	0.405264
	H69	H	0.590197	0.892951	0.589582
	H70	H	0.403615	0.124007	0.594601
	H71	H	0.416545	0.890384	0.406892
	H72	H	0.900004	0.625697	0.100426
	H73	H	0.096375	0.383346	0.116478
	H74	H	0.099761	0.622358	0.907446
	H75	H	0.915412	0.391186	0.909348
	H76	H	0.095698	0.913201	0.617112
	H77	H	0.089732	0.094640	0.389328
	H78	H	0.907073	0.089967	0.615823
	H79	H	0.899917	0.908495	0.382073
	H80	H	0.619555	0.097725	0.908550
	H81	H	0.387078	0.094925	0.096501
	H82	H	0.620624	0.908169	0.092648
	H83	H	0.386876	0.910574	0.907732
	H84	H	0.617976	0.915934	0.093041
	H85	H	0.385765	0.102429	0.096618
	H86	H	0.620415	0.100323	0.906701
	H87	H	0.387668	0.911826	0.911733
	H88	H	0.918203	0.101433	0.615858
	H89	H	0.095619	0.108760	0.383237
	H90	H	0.095718	0.909080	0.618026
	H91	H	0.910391	0.925022	0.390047
	H92	H	0.095043	0.622109	0.905042
	H93	H	0.076813	0.397501	0.087665
	H94	H	0.922033	0.620267	0.101888
	H95	H	0.906225	0.388563	0.912445
	H96	H	0.414406	0.123307	0.601005
	H97	H	0.604148	0.888168	0.592756
	H98	H	0.594929	0.120423	0.409031
	H99	H	0.408168	0.890097	0.414872
	H100	H	0.600879	0.415290	0.118338
	H101	H	0.603064	0.606669	0.882028
	H102	H	0.409625	0.596021	0.116963
	H103	H	0.415999	0.406217	0.886233
	H104	H	0.120855	0.598976	0.405618
	H105	H	0.891327	0.591793	0.589322
	H106	H	0.123059	0.407775	0.598217
	H107	H	0.885715	0.408435	0.406415
	H108	H	0.911226	0.617433	0.082516
	H109	H	0.112958	0.387631	0.082714
	H110	H	0.095172	0.620179	0.910072
	H111	H	0.908933	0.387680	0.902697
	H112	H	0.099245	0.911632	0.618425
	H113	H	0.105505	0.095690	0.383702
	H114	H	0.903800	0.105103	0.621742
	H115	H	0.919867	0.906467	0.387497
	H116	H	0.619588	0.101134	0.910487
	H117	H	0.387677	0.098814	0.090447
	H118	H	0.620670	0.912167	0.100114
	H119	H	0.387598	0.914579	0.909171
	C120	C	0.382031	0.014117	0.623644
	C121	C	0.624381	0.997485	0.623208
	C122	C	0.624791	0.013533	0.379560
	C123	C	0.382172	0.997045	0.380377
	C124	C	0.624853	0.384220	0.009938
	C125	C	0.626385	0.627984	0.993770
	C126	C	0.382255	0.626417	0.009775
	C127	C	0.381769	0.384400	0.993572
	C128	C	0.012348	0.627753	0.379684
	C129	C	0.996401	0.626657	0.622299
	C130	C	0.012830	0.383512	0.623301
	C131	C	0.996122	0.384515	0.380994
	C132	C	0.882368	0.513326	0.123628
	C133	C	0.124929	0.497247	0.123632
	C134	C	0.125122	0.513352	0.879894
	C135	C	0.882199	0.497233	0.879588
	C136	C	0.125401	0.884089	0.509709
	C137	C	0.125428	0.127259	0.493331
	C138	C	0.881647	0.127448	0.509651
	C139	C	0.881713	0.884233	0.494108
	C140	C	0.511574	0.127621	0.880274
	C141	C	0.495105	0.127021	0.122711
	C142	C	0.511547	0.883307	0.123860
	C143	C	0.495381	0.884100	0.880600
	C144	C	0.383852	0.891801	0.679708
	C145	C	0.622034	0.120575	0.677766
	C146	C	0.622478	0.890549	0.325232
	C147	C	0.384211	0.119390	0.323865
	C148	C	0.680052	0.387689	0.887089
	C149	C	0.681132	0.624706	0.116451
	C150	C	0.327009	0.624389	0.886734
	C151	C	0.326538	0.386912	0.116566
	C152	C	0.889302	0.682854	0.382283
	C153	C	0.119356	0.681571	0.619231
	C154	C	0.889234	0.328978	0.620675
	C155	C	0.119335	0.329525	0.383200
	C156	C	0.889441	0.386569	0.677941
	C157	C	0.119297	0.623727	0.677155
	C158	C	0.889391	0.625409	0.324713
	C159	C	0.119097	0.387056	0.325387
	C160	C	0.384767	0.682450	0.887034
	C161	C	0.623256	0.682106	0.116565
	C162	C	0.622413	0.329989	0.887147
	C163	C	0.383941	0.329233	0.116801
	C164	C	0.679646	0.890665	0.383528
	C165	C	0.678889	0.120665	0.619256
	C166	C	0.326918	0.891411	0.621314
	C167	C	0.327734	0.120028	0.382755
	C168	C	0.883902	0.391028	0.180074
	C169	C	0.123281	0.619907	0.178349
	C170	C	0.122498	0.390410	0.825506
	C171	C	0.885419	0.620018	0.824609
	C172	C	0.180378	0.887651	0.386755
	C173	C	0.180396	0.124198	0.615946
	C174	C	0.826875	0.124684	0.386957
	C175	C	0.827045	0.886690	0.617216
	C176	C	0.388147	0.182266	0.882903
	C177	C	0.618344	0.182136	0.119914
	C178	C	0.388787	0.827801	0.121354
	C179	C	0.618589	0.829939	0.882932
	C180	C	0.388501	0.885742	0.178659
	C181	C	0.618050	0.124427	0.177781
	C182	C	0.388650	0.124731	0.825292
	C183	C	0.618467	0.887683	0.825267
	C184	C	0.884767	0.182649	0.387035
	C185	C	0.122637	0.181743	0.616277
	C186	C	0.122292	0.830351	0.386533
	C187	C	0.884848	0.828424	0.616736
	C188	C	0.179020	0.390060	0.884080
	C189	C	0.180326	0.619833	0.120112
	C190	C	0.826975	0.390563	0.121499
	C191	C	0.828239	0.620357	0.883097
	C192	C	0.404141	0.099837	0.601266
	C193	C	0.602281	0.911826	0.601493
	C194	C	0.602457	0.099090	0.401053
	C195	C	0.403964	0.911268	0.402480
	C196	C	0.602747	0.405944	0.095678
	C197	C	0.604224	0.606145	0.908164
	C198	C	0.404226	0.604380	0.095258
	C199	C	0.403656	0.405897	0.907930
	C200	C	0.098175	0.605772	0.401983
	C201	C	0.910466	0.604298	0.600237
	C202	C	0.098842	0.405238	0.601362
	C203	C	0.910431	0.406576	0.403125
	C204	C	0.904456	0.598935	0.101332
	C205	C	0.102194	0.411533	0.101983
	C206	C	0.103266	0.599189	0.901338
	C207	C	0.903842	0.411269	0.901680
	C208	C	0.103548	0.905162	0.595520
	C209	C	0.103516	0.105893	0.407418
	C210	C	0.903373	0.105295	0.595629
	C211	C	0.903644	0.906488	0.408658
	C212	C	0.597509	0.106072	0.902278
	C213	C	0.409120	0.104967	0.100972
	C214	C	0.597540	0.905507	0.101578
	C215	C	0.409535	0.905857	0.903061
	Zn216	Zn	0.503626	0.006094	0.752058
	Zn217	Zn	0.503228	0.004786	0.251290
	Zn218	Zn	0.754277	0.505402	0.001997
	Zn219	Zn	0.253154	0.505197	0.001565
	Zn220	Zn	0.004116	0.755448	0.501068
	Zn221	Zn	0.004055	0.255698	0.501918
	Zn222	Zn	0.004171	0.504968	0.751074
	Zn223	Zn	0.003914	0.505974	0.252316
	Zn224	Zn	0.503748	0.755364	0.002028
	Zn225	Zn	0.503074	0.255966	0.001672
	Zn226	Zn	0.752803	0.005686	0.501982
	Zn227	Zn	0.253480	0.005524	0.501453
	N228	N	0.417432	0.969072	0.681320
	N229	N	0.588865	0.043050	0.680293
	N230	N	0.588919	0.967967	0.322662
	N231	N	0.417061	0.041837	0.321980
	N232	N	0.681628	0.420911	0.964514
	N233	N	0.683097	0.591590	0.039108
	N234	N	0.325398	0.590297	0.963905
	N235	N	0.324986	0.420502	0.039244
	N236	N	0.966803	0.684522	0.415674
	N237	N	0.041870	0.683418	0.585898
	N238	N	0.966945	0.326801	0.587402
	N239	N	0.041886	0.327563	0.416909
	N240	N	0.967227	0.419505	0.679797
	N241	N	0.041599	0.590399	0.679167
	N242	N	0.966818	0.591875	0.323055
	N243	N	0.041621	0.420808	0.324178
	N244	N	0.418722	0.683527	0.964226
	N245	N	0.589963	0.684249	0.039250
	N246	N	0.588846	0.327704	0.964443
	N247	N	0.417664	0.327486	0.039467
	N248	N	0.681449	0.968135	0.416374
	N249	N	0.680436	0.043280	0.586107
	N250	N	0.325840	0.968537	0.586946
	N251	N	0.326614	0.043003	0.417255
	N252	N	0.917882	0.468235	0.181184
	N253	N	0.089676	0.542549	0.180738
	N254	N	0.089512	0.468007	0.822944
	N255	N	0.918331	0.542421	0.822486
	N256	N	0.182199	0.920456	0.464295
	N257	N	0.182195	0.091291	0.538581
	N258	N	0.825026	0.090956	0.464273
	N259	N	0.825068	0.920693	0.540089
	N260	N	0.465712	0.184341	0.916379
	N261	N	0.540859	0.183911	0.086384
	N262	N	0.466392	0.826332	0.087950
	N263	N	0.541233	0.827662	0.916554
	N264	N	0.466001	0.919529	0.180296
	N265	N	0.540411	0.091002	0.179645
	N266	N	0.466153	0.091280	0.823674
	N267	N	0.540795	0.921041	0.823955
	N268	N	0.918037	0.184432	0.464433
	N269	N	0.088837	0.183533	0.538933
	N270	N	0.088905	0.828012	0.463851
	N271	N	0.917856	0.826591	0.539137
	N272	N	0.180732	0.467446	0.917286
	N273	N	0.181176	0.542604	0.086547
	N274	N	0.825777	0.467779	0.087322
	N275	N	0.826098	0.542883	0.916456
	O276	O	0.510339	0.552340	0.507497
	H277	H	0.503292	0.549296	0.505924
	H278	H	0.511138	0.550959	0.513718
	O279	O	-0.042578	-0.017774	0.005148
	H280	H	-0.033347	-0.021309	0.009045
	H281	H	-0.046676	-0.017388	0.012639
	O282	O	0.554670	0.445879	0.493286
	H283	H	0.555201	0.446030	0.495087
	H284	H	0.553025	0.448790	0.496312
	O285	O	0.534544	0.496390	0.493013
	H286	H	0.538063	0.497419	0.484864
	H287	H	0.533529	0.492566	0.491073
	O288	O	0.987924	-0.035003	-0.000615
	H289	H	0.979080	-0.036458	0.005777
	H290	H	0.986796	-0.037379	-0.004660
	O291	O	-0.459027	0.474318	-0.517196
	H292	H	-0.459439	0.475237	-0.510793
	H293	H	-0.458298	0.473804	-0.518173
	O294	O	0.562954	0.520850	0.539622
	H295	H	0.565057	0.528755	0.535075
	H296	H	0.567480	0.520466	0.552856
	O297	O	-0.053353	0.940689	-0.021573
	H298	H	-0.068636	0.932732	-0.027305
	H299	H	-0.047468	0.938992	-0.029340
	O300	O	0.968437	-0.068396	1.001097
	H301	H	0.972651	-0.066141	0.994035
	H302	H	0.976111	-0.068811	1.009312
	O303	O	0.557042	0.488682	0.466403
	H304	H	0.560618	0.482616	0.464117
	H305	H	0.567447	0.488945	0.467591
	O306	O	0.181042	1.247599	1.209401
	H307	H	0.178255	1.249732	1.203846
	H308	H	0.190013	1.247055	1.214762
	O309	O	0.504376	0.482296	0.519072
	H310	H	0.500155	0.484917	0.515484
	H311	H	0.495505	0.484901	0.516861
