data_Molecule from HDF5

_cell_length_a		16.310496
_cell_length_b		16.391048
_cell_length_c		16.553164
_cell_angle_alpha	90.086237
_cell_angle_beta	89.820212
_cell_angle_gamma	89.969047
_symmetry_space_group_name_H-M	'P 1'
_symmetry_Int_Tables_number		1

loop_
	_symmetry_equiv_pos_as_xyz
	x,y,z

loop_
	_atom_site_label
	_atom_site_type_symbol
	_atom_site_fract_x
	_atom_site_fract_y
	_atom_site_fract_z
	H0	H	0.381149	0.838892	0.722666
	H1	H	0.596868	0.154958	0.722847
	H2	H	0.595550	0.838659	0.275741
	H3	H	0.382286	0.155956	0.280156
	H4	H	0.709198	0.392555	0.841626
	H5	H	0.708867	0.602613	0.157257
	H6	H	0.267302	0.602117	0.841036
	H7	H	0.264514	0.391365	0.156952
	H8	H	0.826316	0.713353	0.398034
	H9	H	0.146751	0.717224	0.603207
	H10	H	0.826660	0.278324	0.600901
	H11	H	0.148183	0.275185	0.393721
	H12	H	0.829102	0.388472	0.722148
	H13	H	0.146407	0.602857	0.719527
	H14	H	0.828245	0.600674	0.279640
	H15	H	0.147570	0.389979	0.277369
	H16	H	0.380885	0.721321	0.843454
	H17	H	0.592965	0.719916	0.156792
	H18	H	0.595301	0.273844	0.842863
	H19	H	0.382573	0.276827	0.158525
	H20	H	0.705453	0.836090	0.396738
	H21	H	0.706099	0.157546	0.601080
	H22	H	0.267888	0.837906	0.604551
	H23	H	0.269426	0.156851	0.399571
	H24	H	0.883505	0.337049	0.220025
	H25	H	0.095234	0.654786	0.220588
	H26	H	0.098325	0.339381	0.774020
	H27	H	0.879894	0.654152	0.776927
	H28	H	0.209301	0.892300	0.341299
	H29	H	0.211586	0.105215	0.657264
	H30	H	0.768568	0.098808	0.340862
	H31	H	0.766013	0.892263	0.657211
	H32	H	0.327269	0.214818	0.898719
	H33	H	0.648980	0.216301	0.103231
	H34	H	0.327766	0.778330	0.103544
	H35	H	0.646859	0.773786	0.892829
	H36	H	0.328336	0.891938	0.220398
	H37	H	0.647249	0.104193	0.221573
	H38	H	0.329450	0.103833	0.779447
	H39	H	0.645663	0.887685	0.776113
	H40	H	0.884610	0.216095	0.340624
	H41	H	0.096411	0.222695	0.655637
	H42	H	0.092168	0.776276	0.340775
	H43	H	0.879410	0.773027	0.656405
	H44	H	0.207037	0.335976	0.896686
	H45	H	0.205255	0.657312	0.099995
	H46	H	0.768725	0.337093	0.102560
	H47	H	0.768612	0.656021	0.896901
	H48	H	0.402976	0.110566	0.592445
	H49	H	0.579972	0.883306	0.585529
	H50	H	0.570802	0.111158	0.400706
	H51	H	0.390641	0.879670	0.409983
	H52	H	0.582769	0.408302	0.113133
	H53	H	0.579853	0.583239	0.886978
	H54	H	0.396156	0.585380	0.111423
	H55	H	0.402791	0.407108	0.889224
	H56	H	0.099804	0.581587	0.412193
	H57	H	0.874366	0.584106	0.588238
	H58	H	0.100894	0.411264	0.586999
	H59	H	0.872602	0.409782	0.404231
	H60	H	0.101122	0.409501	0.587720
	H61	H	0.873443	0.582989	0.589153
	H62	H	0.103808	0.584629	0.402837
	H63	H	0.872765	0.401010	0.410453
	H64	H	0.399534	0.585443	0.110710
	H65	H	0.573249	0.584688	0.889620
	H66	H	0.573799	0.411154	0.109984
	H67	H	0.398032	0.402165	0.885735
	H68	H	0.572647	0.106390	0.418558
	H69	H	0.576460	0.881982	0.595103
	H70	H	0.401806	0.109051	0.587730
	H71	H	0.406307	0.882634	0.400478
	H72	H	0.905417	0.609282	0.094677
	H73	H	0.072983	0.382233	0.093703
	H74	H	0.066898	0.606170	0.911130
	H75	H	0.907054	0.382735	0.901240
	H76	H	0.073345	0.904525	0.611173
	H77	H	0.077808	0.086402	0.387857
	H78	H	0.892732	0.090523	0.614688
	H79	H	0.892698	0.901778	0.384585
	H80	H	0.602852	0.089799	0.915023
	H81	H	0.374033	0.083235	0.094069
	H82	H	0.599517	0.908955	0.082626
	H83	H	0.373206	0.908920	0.910001
	H84	H	0.600836	0.913952	0.091496
	H85	H	0.372232	0.090419	0.091426
	H86	H	0.599235	0.079553	0.913393
	H87	H	0.374501	0.909107	0.913692
	H88	H	0.896532	0.080491	0.610157
	H89	H	0.078622	0.082601	0.388910
	H90	H	0.079493	0.906055	0.613430
	H91	H	0.897157	0.911701	0.388122
	H92	H	0.082011	0.609367	0.915865
	H93	H	0.072952	0.386284	0.084105
	H94	H	0.899584	0.608088	0.082980
	H95	H	0.903458	0.387252	0.919026
	H96	H	0.398096	0.110744	0.590185
	H97	H	0.570280	0.886321	0.587971
	H98	H	0.587424	0.113319	0.408539
	H99	H	0.405127	0.887574	0.417935
	H100	H	0.575166	0.402233	0.113149
	H101	H	0.576984	0.590220	0.886494
	H102	H	0.397844	0.588622	0.111781
	H103	H	0.395340	0.408819	0.886973
	H104	H	0.104263	0.590736	0.411689
	H105	H	0.873024	0.584704	0.589232
	H106	H	0.100045	0.409334	0.585761
	H107	H	0.876553	0.410759	0.413805
	H108	H	0.893269	0.613240	0.092835
	H109	H	0.081403	0.381130	0.087371
	H110	H	0.077691	0.612053	0.901077
	H111	H	0.890424	0.378841	0.908569
	H112	H	0.076151	0.910651	0.609173
	H113	H	0.075149	0.084017	0.389996
	H114	H	0.903957	0.089741	0.610040
	H115	H	0.904526	0.902358	0.387257
	H116	H	0.604134	0.084740	0.904903
	H117	H	0.375663	0.085161	0.086816
	H118	H	0.603875	0.904856	0.090374
	H119	H	0.375524	0.911740	0.911553
	C120	C	0.367197	0.005563	0.622289
	C121	C	0.608747	0.988838	0.621064
	C122	C	0.608984	0.005058	0.377397
	C123	C	0.367999	0.988712	0.378955
	C124	C	0.610243	0.374650	0.008375
	C125	C	0.609055	0.618636	0.991492
	C126	C	0.365774	0.619069	0.007447
	C127	C	0.366183	0.374724	0.991542
	C128	C	-0.003430	0.617001	0.377983
	C129	C	0.978938	0.617240	0.620386
	C130	C	-0.004128	0.376106	0.619711
	C131	C	0.979832	0.374938	0.377590
	C132	C	0.866907	0.505001	0.121503
	C133	C	0.109115	0.488087	0.120407
	C134	C	0.109307	0.504648	0.876835
	C135	C	0.866994	0.487834	0.878062
	C136	C	0.109168	0.874731	0.507463
	C137	C	0.110080	0.118264	0.492183
	C138	C	0.866316	0.117853	0.507276
	C139	C	0.865222	0.873629	0.490757
	C140	C	0.496799	0.117515	0.879475
	C141	C	0.479681	0.118609	0.122005
	C142	C	0.496227	0.876650	0.120564
	C143	C	0.479418	0.876025	0.878778
	C144	C	0.363787	0.886452	0.682551
	C145	C	0.613272	0.107958	0.681769
	C146	C	0.612254	0.885965	0.316787
	C147	C	0.364498	0.108264	0.319788
	C148	C	0.670569	0.372744	0.889589
	C149	C	0.668831	0.620767	0.110033
	C150	C	0.306562	0.620869	0.888671
	C151	C	0.305292	0.373170	0.109974
	C152	C	0.875087	0.674977	0.378122
	C153	C	0.098703	0.677600	0.621870
	C154	C	0.875362	0.316623	0.621030
	C155	C	0.100233	0.314875	0.375454
	C156	C	0.876515	0.371648	0.681093
	C157	C	0.098731	0.620516	0.679731
	C158	C	0.875968	0.618646	0.319441
	C159	C	0.099733	0.372067	0.317510
	C160	C	0.362990	0.680353	0.890066
	C161	C	0.611252	0.679336	0.109770
	C162	C	0.613060	0.314366	0.889882
	C163	C	0.363954	0.315740	0.110654
	C164	C	0.667205	0.884459	0.376816
	C165	C	0.667890	0.109056	0.621154
	C166	C	0.307533	0.885634	0.623593
	C167	C	0.308610	0.108884	0.379451
	C168	C	0.865065	0.384960	0.180466
	C169	C	0.112326	0.607447	0.180437
	C170	C	0.114128	0.386087	0.815505
	C171	C	0.863312	0.607087	0.818080
	C172	C	0.169609	0.873231	0.388978
	C173	C	0.171078	0.122404	0.610027
	C174	C	0.807748	0.118032	0.388233
	C175	C	0.805280	0.872808	0.609711
	C176	C	0.375967	0.176764	0.878701
	C177	C	0.600408	0.177146	0.122336
	C178	C	0.376008	0.817057	0.122481
	C179	C	0.598954	0.814285	0.875480
	C180	C	0.376165	0.874025	0.180409
	C181	C	0.599780	0.121078	0.181176
	C182	C	0.376805	0.121020	0.819691
	C183	C	0.598530	0.871001	0.817144
	C184	C	0.865670	0.176342	0.388237
	C185	C	0.113556	0.181058	0.609319
	C186	C	0.111211	0.815390	0.388676
	C187	C	0.862094	0.813766	0.609306
	C188	C	0.168691	0.384592	0.876295
	C189	C	0.167413	0.608512	0.120349
	C190	C	0.808169	0.384771	0.121748
	C191	C	0.807721	0.608053	0.877675
	C192	C	0.393335	0.088499	0.597350
	C193	C	0.582882	0.905609	0.596687
	C194	C	0.584157	0.088602	0.401987
	C195	C	0.393411	0.905029	0.402772
	C196	C	0.584537	0.399919	0.090780
	C197	C	0.584108	0.593382	0.909210
	C198	C	0.390744	0.593767	0.089814
	C199	C	0.391458	0.399244	0.908849
	C200	C	0.080736	0.592613	0.401964
	C201	C	0.895211	0.591365	0.595881
	C202	C	0.079090	0.402331	0.594151
	C203	C	0.895880	0.399870	0.402451
	C204	C	0.892253	0.588294	0.097207
	C205	C	0.083314	0.404796	0.095523
	C206	C	0.083009	0.587588	0.902050
	C207	C	0.892835	0.404789	0.902580
	C208	C	0.083701	0.899852	0.589828
	C209	C	0.084589	0.091857	0.410324
	C210	C	0.890654	0.093718	0.590191
	C211	C	0.890791	0.898348	0.408336
	C212	C	0.580320	0.092111	0.903938
	C213	C	0.395676	0.093563	0.097756
	C214	C	0.579846	0.902159	0.095403
	C215	C	0.396325	0.902391	0.904433
	Zn216	Zn	0.488580	-0.002808	0.750811
	Zn217	Zn	0.487994	-0.003185	0.249335
	Zn218	Zn	0.738891	0.496821	0.000055
	Zn219	Zn	0.237199	0.496886	-0.001470
	Zn220	Zn	-0.013089	0.745099	0.499185
	Zn221	Zn	-0.011965	0.247467	0.499328
	Zn222	Zn	-0.012630	0.496438	0.748841
	Zn223	Zn	-0.011439	0.496553	0.249575
	Zn224	Zn	0.487595	0.748431	-0.000032
	Zn225	Zn	0.488246	0.245792	0.000127
	Zn226	Zn	0.736724	-0.004048	0.499403
	Zn227	Zn	0.239361	-0.003663	0.500469
	N228	N	0.400020	0.962262	0.681939
	N229	N	0.577386	0.032148	0.682009
	N230	N	0.577004	0.962096	0.317054
	N231	N	0.400973	0.032567	0.319755
	N232	N	0.668679	0.409754	0.964100
	N233	N	0.667833	0.583869	0.035443
	N234	N	0.308056	0.583322	0.962844
	N235	N	0.306608	0.409332	0.035075
	N236	N	0.951091	0.674130	0.413664
	N237	N	0.022985	0.675672	0.585795
	N238	N	0.950792	0.318938	0.583936
	N239	N	0.024449	0.316510	0.412077
	N240	N	0.952548	0.407784	0.680546
	N241	N	0.023116	0.583580	0.678861
	N242	N	0.952731	0.583529	0.319023
	N243	N	0.023936	0.408615	0.318741
	N244	N	0.399049	0.679245	0.964880
	N245	N	0.574844	0.678297	0.035149
	N246	N	0.576460	0.315167	0.964825
	N247	N	0.401141	0.316564	0.036075
	N248	N	0.665425	0.959521	0.413878
	N249	N	0.665190	0.033992	0.584052
	N250	N	0.309418	0.960641	0.586846
	N251	N	0.310804	0.033465	0.415679
	N252	N	0.900807	0.460792	0.180520
	N253	N	0.077092	0.531222	0.180995
	N254	N	0.078068	0.461954	0.815625
	N255	N	0.899292	0.531181	0.817887
	N256	N	0.168654	0.909362	0.463962
	N257	N	0.168988	0.083921	0.536272
	N258	N	0.807939	0.082581	0.463330
	N259	N	0.806927	0.909175	0.534981
	N260	N	0.451582	0.175054	0.914876
	N261	N	0.524667	0.175584	0.086025
	N262	N	0.451532	0.818924	0.085670
	N263	N	0.523901	0.817526	0.913269
	N264	N	0.452064	0.910371	0.179488
	N265	N	0.523533	0.085468	0.181092
	N266	N	0.452962	0.084963	0.819872
	N267	N	0.523473	0.909130	0.819341
	N268	N	0.901485	0.176377	0.463278
	N269	N	0.076114	0.178507	0.535063
	N270	N	0.074425	0.816039	0.463464
	N271	N	0.898709	0.814208	0.534350
	N272	N	0.165908	0.459277	0.913700
	N273	N	0.165665	0.533233	0.083922
	N274	N	0.809179	0.460364	0.086045
	N275	N	0.809949	0.532884	0.914289
	O276	O	0.579659	0.665183	0.465813
	H277	H	0.593968	0.670683	0.459997
	H278	H	0.581926	0.664300	0.478038
	O279	O	0.346128	0.413412	0.539718
	H280	H	0.326261	0.406031	0.542965
	H281	H	0.353020	0.429045	0.533970
	O282	O	0.560749	0.569414	0.577225
	H283	H	0.563486	0.575183	0.572209
	H284	H	0.540573	0.561842	0.582059
	O285	O	1.031719	1.014052	0.189501
	H286	H	1.032133	1.026701	0.186849
	H287	H	1.023406	1.001003	0.193515
	O288	O	0.572138	0.396714	0.484579
	H289	H	0.574990	0.400472	0.482065
	H290	H	0.579463	0.387390	0.490678
	O291	O	0.875932	-0.046377	0.943645
	H292	H	0.878752	-0.037890	0.933659
	H293	H	0.871769	-0.047936	0.939134
	O294	O	0.805520	1.128454	0.961630
	H295	H	0.822844	1.127897	0.948726
	H296	H	0.797774	1.147410	0.968685
	O297	O	0.422363	0.681459	0.355891
	H298	H	0.429107	0.664278	0.350405
	H299	H	0.440290	0.681623	0.342633
	O300	O	0.686023	0.581724	0.693488
	H301	H	0.697873	0.579009	0.698518
	H302	H	0.678764	0.600508	0.693995
	O303	O	0.477991	0.481037	0.600590
	H304	H	0.473891	0.486872	0.609000
	H305	H	0.481642	0.497437	0.600449
	O306	O	0.427337	-0.697077	1.485341
	H307	H	0.424168	-0.685048	1.497369
	H308	H	0.415659	-0.699067	1.484306
	O309	O	0.863739	0.020909	0.124222
	H310	H	0.860203	0.041807	0.107042
	H311	H	0.847193	0.023644	0.137504
	O312	O	0.302185	0.700394	0.456160
	H313	H	0.293643	0.705647	0.435935
	H314	H	0.301936	0.718277	0.438011
	O315	O	-0.062403	0.066991	1.021036
	H316	H	-0.068058	0.076203	1.019262
	H317	H	-0.062359	0.046797	1.027067
	O318	O	-0.224049	-0.017033	-0.147565
	H319	H	-0.220587	0.006897	-0.128191
	H320	H	-0.238109	-0.008401	-0.158193
	O321	O	1.133351	-0.043589	-0.102311
	H322	H	1.153300	-0.042480	-0.105373
	H323	H	1.132134	-0.051748	-0.084943
	O324	O	0.894861	-0.203712	1.203652
	H325	H	0.873855	-0.206151	1.183681
	H326	H	0.900405	-0.219278	1.215800
	O327	O	0.573813	0.493259	0.380878
	H328	H	0.597756	0.493932	0.387838
	H329	H	0.562732	0.484311	0.384219
	O330	O	-0.124377	0.791365	1.026300
	H331	H	-0.128754	0.788544	1.018005
	H332	H	-0.118361	0.791390	1.004089
	O333	O	-0.192815	0.968202	0.105541
	H334	H	-0.202299	0.979875	0.102940
	H335	H	-0.179667	0.949564	0.099679
	O336	O	1.137780	0.828746	-0.060004
	H337	H	1.132650	0.835136	-0.037951
	H338	H	1.141734	0.829153	-0.044836
	O339	O	-0.110116	0.847325	1.041759
	H340	H	-0.113361	0.837060	1.037949
	H341	H	-0.112212	0.853851	1.034809
	O342	O	0.696900	0.467117	0.355715
	H343	H	0.707293	0.450083	0.355752
	H344	H	0.700026	0.449629	0.354373
	O345	O	0.130024	-0.133183	0.793412
	H346	H	0.151376	-0.136286	0.800939
	H347	H	0.140534	-0.151287	0.787585
	O348	O	0.436933	0.487903	0.638343
	H349	H	0.426283	0.483330	0.648916
	H350	H	0.421755	0.502995	0.620491
	O351	O	1.391051	1.600131	-0.357922
	H352	H	1.384105	1.622903	-0.348168
	H353	H	1.383451	1.585606	-0.365184
	O354	O	0.908516	0.895752	0.818442
	H355	H	0.896957	0.903102	0.819024
	H356	H	0.924907	0.911511	0.812753
	O357	O	0.032048	0.102217	-0.208794
	H358	H	0.040736	0.086961	-0.216784
	H359	H	0.038266	0.112997	-0.205810
	O360	O	0.370138	0.427355	0.508282
	H361	H	0.382067	0.417851	0.502352
	H362	H	0.357107	0.422934	0.499499
	O363	O	1.332534	0.474811	0.619429
	H364	H	1.319526	0.489716	0.610111
	H365	H	1.325313	0.478014	0.601167
	O366	O	0.126678	-0.114410	1.099029
	H367	H	0.110621	-0.121662	1.101663
	H368	H	0.130354	-0.088005	1.109596
	O369	O	1.193158	0.983153	1.130778
	H370	H	1.184519	0.991434	1.130827
	H371	H	1.220624	0.990013	1.146443
	O372	O	0.433205	0.503021	0.332622
	H373	H	0.428643	0.509105	0.332430
	H374	H	0.454854	0.489558	0.323669
	O375	O	-0.092912	0.159270	1.157635
	H376	H	-0.083001	0.156105	1.149855
	H377	H	-0.066043	0.153541	1.154604
	O378	O	0.006129	0.183051	-0.001332
	H379	H	0.019663	0.194487	0.001946
	H380	H	0.004164	0.176287	-0.000702
	O381	O	0.159627	0.963014	-0.124101
	H382	H	0.157868	0.960886	-0.095804
	H383	H	0.131727	0.954218	-0.134508
	O384	O	0.181982	1.092170	1.011315
	H385	H	0.168896	1.100147	1.012302
	H386	H	0.177403	1.091337	1.006744
	O387	O	0.380939	0.335534	0.598298
	H388	H	0.370841	0.330189	0.594486
	H389	H	0.385130	0.327727	0.613434
	O390	O	0.860220	1.186437	-0.129870
	H391	H	0.862862	1.185474	-0.138637
	H392	H	0.875057	1.194829	-0.131289
	O393	O	0.412074	0.670933	0.308649
	H394	H	0.438669	0.682074	0.312879
	H395	H	0.425479	0.657435	0.307438
	O396	O	0.882748	-0.196860	0.182475
	H397	H	0.879947	-0.170239	0.194833
	H398	H	0.885907	-0.203732	0.143589
	O399	O	0.350190	0.497974	0.569798
	H400	H	0.349690	0.510035	0.569811
	H401	H	0.341890	0.503424	0.556654
	O402	O	1.050683	1.122099	0.009033
	H403	H	1.060613	1.108628	-0.006736
	H404	H	1.047774	1.116168	0.002152
	O405	O	0.392645	0.366578	0.642513
	H406	H	0.401877	0.364349	0.654938
	H407	H	0.401529	0.378049	0.635763
	O408	O	0.502005	0.340062	0.300532
	H409	H	0.522899	0.347786	0.299034
	H410	H	0.507143	0.321901	0.280993
	O411	O	1.156862	1.133356	1.099152
	H412	H	1.157295	1.134000	1.115826
	H413	H	1.155244	1.137704	1.093525
	O414	O	0.657507	0.299872	0.443464
	H415	H	0.651638	0.282762	0.462889
	H416	H	0.656174	0.309334	0.472582
	O417	O	-0.042462	1.145547	0.859506
	H418	H	-0.045111	1.149166	0.840561
	H419	H	-0.018420	1.131408	0.854038
	O420	O	0.065109	1.119254	1.174927
	H421	H	0.057707	1.130054	1.189447
	H422	H	0.060484	1.123731	1.163994
	O423	O	0.286546	1.522429	0.299977
	H424	H	0.267453	1.528696	0.277629
	H425	H	0.305359	1.522556	0.298469
	O426	O	0.647192	0.439783	0.687966
	H427	H	0.627324	0.448479	0.682534
	H428	H	0.667439	0.454961	0.701278
	O429	O	0.644470	0.601457	0.461318
	H430	H	0.642527	0.597157	0.464779
	H431	H	0.659692	0.605529	0.463473
	O432	O	0.655011	0.319817	0.323628
	H433	H	0.663721	0.306330	0.363060
	H434	H	0.659832	0.310244	0.313491
	O435	O	-0.055621	-0.136160	-0.206814
	H436	H	-0.058257	-0.161917	-0.217919
	H437	H	-0.057422	-0.118651	-0.210318
	O438	O	0.470724	0.658399	0.525075
	H439	H	0.463099	0.655735	0.523095
	H440	H	0.484156	0.651936	0.530438
	O441	O	0.597393	0.607811	0.680897
	H442	H	0.594219	0.601767	0.660675
	H443	H	0.565919	0.613427	0.676598
