data_Molecule from HDF5

_cell_length_a		16.506521
_cell_length_b		16.394920
_cell_length_c		16.617382
_cell_angle_alpha	89.886708
_cell_angle_beta	89.841896
_cell_angle_gamma	89.899878
_symmetry_space_group_name_H-M	'P 1'
_symmetry_Int_Tables_number		1

loop_
	_symmetry_equiv_pos_as_xyz
	x,y,z

loop_
	_atom_site_label
	_atom_site_type_symbol
	_atom_site_fract_x
	_atom_site_fract_y
	_atom_site_fract_z
	H0	H	0.387855	0.845469	0.733491
	H1	H	0.606755	0.157088	0.732771
	H2	H	0.607399	0.846459	0.283118
	H3	H	0.392220	0.161040	0.287686
	H4	H	0.721021	0.397625	0.850352
	H5	H	0.719149	0.609138	0.163907
	H6	H	0.273117	0.611305	0.851877
	H7	H	0.273560	0.393587	0.161750
	H8	H	0.840773	0.722887	0.404513
	H9	H	0.156313	0.723793	0.612471
	H10	H	0.840840	0.280288	0.614220
	H11	H	0.156068	0.280880	0.403393
	H12	H	0.842378	0.393238	0.733585
	H13	H	0.154662	0.610070	0.731021
	H14	H	0.842545	0.610152	0.285454
	H15	H	0.152724	0.391807	0.281584
	H16	H	0.389946	0.726857	0.851761
	H17	H	0.600114	0.723168	0.164677
	H18	H	0.605509	0.280142	0.851398
	H19	H	0.396067	0.282627	0.165046
	H20	H	0.722726	0.846047	0.399141
	H21	H	0.719660	0.158721	0.613379
	H22	H	0.276318	0.843761	0.615177
	H23	H	0.277319	0.161264	0.404934
	H24	H	0.890946	0.345541	0.229762
	H25	H	0.107790	0.657484	0.232498
	H26	H	0.106723	0.344947	0.784383
	H27	H	0.891719	0.660101	0.784377
	H28	H	0.219364	0.897938	0.351547
	H29	H	0.221785	0.109442	0.665036
	H30	H	0.774431	0.110573	0.355140
	H31	H	0.772617	0.893095	0.662875
	H32	H	0.341231	0.226831	0.901622
	H33	H	0.657084	0.218209	0.107607
	H34	H	0.339268	0.780179	0.114466
	H35	H	0.651987	0.778076	0.899832
	H36	H	0.340982	0.894357	0.232842
	H37	H	0.652903	0.108217	0.229531
	H38	H	0.341071	0.112329	0.783764
	H39	H	0.650416	0.889494	0.779916
	H40	H	0.893830	0.223819	0.352773
	H41	H	0.104522	0.225665	0.665136
	H42	H	0.102333	0.782544	0.350250
	H43	H	0.890496	0.778155	0.663878
	H44	H	0.220149	0.343890	0.901897
	H45	H	0.223438	0.657299	0.117144
	H46	H	0.778084	0.345395	0.111281
	H47	H	0.777905	0.661967	0.902253
	H48	H	0.405220	0.115462	0.593505
	H49	H	0.576750	0.891170	0.596954
	H50	H	0.586421	0.117233	0.415146
	H51	H	0.411279	0.888215	0.417273
	H52	H	0.597319	0.415301	0.121511
	H53	H	0.589364	0.591844	0.894943
	H54	H	0.406429	0.589796	0.119546
	H55	H	0.411762	0.415265	0.896554
	H56	H	0.110180	0.590096	0.418840
	H57	H	0.885626	0.593107	0.597295
	H58	H	0.109924	0.413996	0.597423
	H59	H	0.885314	0.411131	0.421229
	H60	H	0.109341	0.414537	0.594886
	H61	H	0.889158	0.587933	0.592454
	H62	H	0.110739	0.588271	0.417334
	H63	H	0.887784	0.416779	0.420095
	H64	H	0.409946	0.585551	0.116886
	H65	H	0.586985	0.588766	0.896715
	H66	H	0.584394	0.416045	0.116250
	H67	H	0.409659	0.413234	0.895158
	H68	H	0.580299	0.112362	0.419662
	H69	H	0.583869	0.892204	0.587164
	H70	H	0.410934	0.115868	0.601594
	H71	H	0.409393	0.890507	0.421011
	H72	H	0.906769	0.618906	0.099197
	H73	H	0.080955	0.392321	0.091386
	H74	H	0.087391	0.617403	0.915557
	H75	H	0.910742	0.390591	0.920892
	H76	H	0.091760	0.913612	0.621368
	H77	H	0.088167	0.082758	0.400437
	H78	H	0.903897	0.088845	0.621742
	H79	H	0.911685	0.916484	0.399233
	H80	H	0.609408	0.091984	0.919549
	H81	H	0.381757	0.093994	0.102319
	H82	H	0.606698	0.914761	0.091966
	H83	H	0.386106	0.922592	0.916805
	H84	H	0.608633	0.918551	0.099272
	H85	H	0.383845	0.094886	0.093338
	H86	H	0.607547	0.086001	0.918958
	H87	H	0.383276	0.911794	0.919626
	H88	H	0.911787	0.085993	0.619118
	H89	H	0.081848	0.096250	0.398089
	H90	H	0.084349	0.917293	0.617462
	H91	H	0.912536	0.912136	0.396671
	H92	H	0.079450	0.612663	0.919697
	H93	H	0.087008	0.389067	0.093247
	H94	H	0.911680	0.616900	0.099267
	H95	H	0.909605	0.390168	0.920889
	H96	H	0.414410	0.111587	0.593304
	H97	H	0.588193	0.886596	0.597555
	H98	H	0.587693	0.114433	0.423274
	H99	H	0.407414	0.887977	0.418276
	H100	H	0.588720	0.403836	0.121823
	H101	H	0.584674	0.592618	0.895570
	H102	H	0.411618	0.591757	0.117557
	H103	H	0.408502	0.416170	0.895962
	H104	H	0.112001	0.590216	0.417412
	H105	H	0.886724	0.585542	0.599802
	H106	H	0.108323	0.416423	0.596650
	H107	H	0.884645	0.413642	0.415481
	H108	H	0.908717	0.616166	0.094989
	H109	H	0.081815	0.389763	0.097968
	H110	H	0.088193	0.613888	0.924776
	H111	H	0.909837	0.390543	0.920156
	H112	H	0.084001	0.908599	0.620389
	H113	H	0.096019	0.093745	0.394173
	H114	H	0.911092	0.093903	0.622024
	H115	H	0.908593	0.914477	0.396357
	H116	H	0.610337	0.088697	0.914669
	H117	H	0.385448	0.086861	0.098146
	H118	H	0.610386	0.910147	0.098105
	H119	H	0.388390	0.918099	0.927174
	C120	C	0.376464	0.010498	0.629495
	C121	C	0.617604	0.993314	0.628280
	C122	C	0.619128	0.011153	0.385643
	C123	C	0.377047	0.993859	0.387200
	C124	C	0.622167	0.380053	0.015838
	C125	C	0.618679	0.624046	0.999327
	C126	C	0.375628	0.623322	0.015478
	C127	C	0.377444	0.381431	0.998942
	C128	C	0.007031	0.622522	0.386384
	C129	C	0.990542	0.622914	0.628904
	C130	C	0.005978	0.381169	0.629973
	C131	C	0.989518	0.380325	0.386431
	C132	C	0.876924	0.512318	0.129305
	C133	C	0.118342	0.493357	0.128535
	C134	C	0.119062	0.510331	0.886857
	C135	C	0.877652	0.494542	0.887047
	C136	C	0.119650	0.880321	0.516369
	C137	C	0.121001	0.124286	0.500587
	C138	C	0.876689	0.122992	0.517891
	C139	C	0.876583	0.880275	0.499934
	C140	C	0.506285	0.124339	0.884635
	C141	C	0.488417	0.123179	0.128389
	C142	C	0.505202	0.880681	0.130126
	C143	C	0.488477	0.882023	0.886872
	C144	C	0.371469	0.892243	0.692021
	C145	C	0.623347	0.110516	0.691084
	C146	C	0.624312	0.893687	0.323583
	C147	C	0.374228	0.113510	0.327603
	C148	C	0.681442	0.378926	0.897966
	C149	C	0.678677	0.626726	0.116901
	C150	C	0.313705	0.628189	0.898722
	C151	C	0.315570	0.377008	0.115888
	C152	C	0.888513	0.683314	0.385161
	C153	C	0.108916	0.683652	0.630688
	C154	C	0.888113	0.319942	0.632890
	C155	C	0.107977	0.319612	0.384211
	C156	C	0.889166	0.375900	0.692565
	C157	C	0.108342	0.626677	0.689514
	C158	C	0.889090	0.626927	0.326010
	C159	C	0.106546	0.375270	0.323862
	C160	C	0.371731	0.686239	0.898703
	C161	C	0.619350	0.683551	0.117427
	C162	C	0.623906	0.320243	0.898287
	C163	C	0.376447	0.321859	0.117475
	C164	C	0.681729	0.893396	0.381495
	C165	C	0.679522	0.111450	0.631883
	C166	C	0.315650	0.891587	0.633103
	C167	C	0.317254	0.113485	0.386153
	C168	C	0.873433	0.393217	0.189473
	C169	C	0.124594	0.610536	0.191498
	C170	C	0.123710	0.392370	0.825006
	C171	C	0.874794	0.613337	0.825820
	C172	C	0.179697	0.878931	0.398662
	C173	C	0.181557	0.127340	0.618215
	C174	C	0.815337	0.127729	0.401123
	C175	C	0.813930	0.876021	0.616431
	C176	C	0.388444	0.186551	0.882607
	C177	C	0.608423	0.180477	0.127979
	C178	C	0.386834	0.819882	0.132918
	C179	C	0.605359	0.818952	0.882503
	C180	C	0.387736	0.876498	0.192003
	C181	C	0.606353	0.125809	0.188657
	C182	C	0.388404	0.129212	0.824260
	C183	C	0.604232	0.874528	0.822691
	C184	C	0.874878	0.183983	0.400146
	C185	C	0.123299	0.185320	0.618205
	C186	C	0.121202	0.821500	0.397987
	C187	C	0.872534	0.818413	0.616840
	C188	C	0.180673	0.391893	0.883297
	C189	C	0.182298	0.610262	0.134064
	C190	C	0.817295	0.392941	0.130419
	C191	C	0.817538	0.614006	0.883961
	C192	C	0.402682	0.092738	0.603470
	C193	C	0.590637	0.911442	0.601497
	C194	C	0.592478	0.093478	0.411983
	C195	C	0.402273	0.910851	0.411784
	C196	C	0.597366	0.404699	0.098344
	C197	C	0.593937	0.598566	0.917271
	C198	C	0.401720	0.596601	0.096807
	C199	C	0.402604	0.407384	0.917358
	C200	C	0.089357	0.596676	0.410823
	C201	C	0.908553	0.596479	0.603704
	C202	C	0.087892	0.407448	0.603764
	C203	C	0.907569	0.406465	0.411869
	C204	C	0.901962	0.595527	0.104787
	C205	C	0.091114	0.411575	0.101777
	C206	C	0.092518	0.592865	0.912565
	C207	C	0.902995	0.411862	0.913001
	C208	C	0.094077	0.905696	0.598454
	C209	C	0.095822	0.098515	0.418974
	C210	C	0.901753	0.096997	0.599610
	C211	C	0.903273	0.906923	0.418430
	C212	C	0.587969	0.096927	0.910239
	C213	C	0.405243	0.098858	0.104575
	C214	C	0.587112	0.906910	0.103825
	C215	C	0.407050	0.909630	0.913811
	Zn216	Zn	0.496734	0.001573	0.757114
	Zn217	Zn	0.497174	0.002367	0.257849
	Zn218	Zn	0.749375	0.503930	0.007426
	Zn219	Zn	0.247087	0.501529	0.007641
	Zn220	Zn	-0.001658	0.751343	0.507822
	Zn221	Zn	-0.002117	0.252030	0.509273
	Zn222	Zn	-0.001697	0.502331	0.758751
	Zn223	Zn	-0.001789	0.502179	0.257167
	Zn224	Zn	0.496101	0.753002	0.007779
	Zn225	Zn	0.498340	0.251799	0.007311
	Zn226	Zn	0.747067	0.001762	0.508319
	Zn227	Zn	0.249009	0.001473	0.508975
	N228	N	0.408565	0.967183	0.690019
	N229	N	0.585698	0.035806	0.689196
	N230	N	0.585953	0.968067	0.326228
	N231	N	0.410795	0.038213	0.328170
	N232	N	0.680652	0.415068	0.972398
	N233	N	0.678464	0.590546	0.042342
	N234	N	0.316068	0.589899	0.972416
	N235	N	0.315952	0.412963	0.041190
	N236	N	0.962836	0.680873	0.421872
	N237	N	0.034382	0.681701	0.594126
	N238	N	0.961954	0.323083	0.594682
	N239	N	0.034096	0.322337	0.422342
	N240	N	0.963593	0.413050	0.691020
	N241	N	0.033782	0.589687	0.688678
	N242	N	0.963874	0.589998	0.326518
	N243	N	0.031796	0.412099	0.324961
	N244	N	0.409511	0.683279	0.972234
	N245	N	0.583108	0.682375	0.043084
	N246	N	0.587676	0.320749	0.972902
	N247	N	0.413942	0.324106	0.043624
	N248	N	0.678898	0.967586	0.419410
	N249	N	0.676301	0.037366	0.593854
	N250	N	0.318476	0.966066	0.595129
	N251	N	0.318668	0.038116	0.422353
	N252	N	0.909635	0.468666	0.189045
	N253	N	0.085493	0.536766	0.188219
	N254	N	0.086486	0.467443	0.826844
	N255	N	0.911099	0.537887	0.827456
	N256	N	0.178969	0.914590	0.473487
	N257	N	0.180205	0.090087	0.544270
	N258	N	0.816424	0.090446	0.475163
	N259	N	0.816242	0.913558	0.542443
	N260	N	0.462925	0.183749	0.919388
	N261	N	0.533813	0.179291	0.091368
	N262	N	0.461087	0.822188	0.095391
	N263	N	0.532149	0.823445	0.921824
	N264	N	0.462551	0.913155	0.190843
	N265	N	0.530623	0.090880	0.189041
	N266	N	0.462934	0.091617	0.825106
	N267	N	0.530513	0.913411	0.825823
	N268	N	0.912336	0.181177	0.473827
	N269	N	0.086620	0.183755	0.544069
	N270	N	0.084775	0.822249	0.472442
	N271	N	0.910831	0.821129	0.543359
	N272	N	0.177893	0.466287	0.920878
	N273	N	0.178587	0.536216	0.095554
	N274	N	0.819184	0.468085	0.093861
	N275	N	0.819214	0.539213	0.921338
	O276	O	0.541500	0.517873	0.729113
	H277	H	0.542017	0.494483	0.739335
	H278	H	0.533700	0.532929	0.727513
	O279	O	0.489519	0.710740	0.505613
	H280	H	0.482619	0.700684	0.509781
	H281	H	0.477772	0.715188	0.508050
	O282	O	0.812313	1.187869	0.194203
	H283	H	0.806710	1.148782	0.187963
	H284	H	0.777299	1.217549	0.225421
	O285	O	0.474782	0.713178	0.297902
	H286	H	0.501708	0.713559	0.321594
	H287	H	0.481536	0.742571	0.275246
	O288	O	-0.213281	0.215279	-0.023588
	H289	H	-0.213873	0.223838	-0.038952
	H290	H	-0.224689	0.231542	-0.021277
	O291	O	0.802087	0.994053	0.130288
	H292	H	0.791768	0.995903	0.127512
	H293	H	0.823149	0.991006	0.115733
	O294	O	-0.189997	1.187144	-0.186027
	H295	H	-0.177134	1.177306	-0.179310
	H296	H	-0.162393	1.180633	-0.183993
	O297	O	0.708715	0.528892	0.555842
	H298	H	0.709889	0.547775	0.557269
	H299	H	0.707902	0.539734	0.545774
	O300	O	0.607198	0.325058	0.609419
	H301	H	0.619975	0.333374	0.615983
	H302	H	0.601314	0.326581	0.612859
	O303	O	0.277797	0.720287	0.479564
	H304	H	0.253674	0.753226	0.483592
	H305	H	0.282982	0.719045	0.432681
	O306	O	-0.035664	0.946548	1.060851
	H307	H	-0.038149	0.954587	1.060425
	H308	H	-0.020330	0.940642	1.078539
	O309	O	0.706649	0.719540	0.530364
	H310	H	0.695838	0.704369	0.570758
	H311	H	0.734330	0.749891	0.534586
	O312	O	0.543085	0.360016	0.302738
	H313	H	0.537737	0.336445	0.304124
	H314	H	0.563286	0.352608	0.306348
	O315	O	-0.285215	0.476682	0.290191
	H316	H	-0.264326	0.471780	0.287298
	H317	H	-0.281742	0.483849	0.276981
	O318	O	0.209716	0.979356	-0.203187
	H319	H	0.202971	1.003477	-0.195880
	H320	H	0.222109	0.991099	-0.218572
	O321	O	0.549142	0.286094	0.486059
	H322	H	0.543342	0.282573	0.506018
	H323	H	0.548395	0.284044	0.509197
	O324	O	1.355817	0.600125	1.609961
	H325	H	1.342350	0.584098	1.601851
	H326	H	1.352519	0.620817	1.595629
	O327	O	1.031062	0.065483	0.827971
	H328	H	1.031215	0.084738	0.827784
	H329	H	1.032664	0.080555	0.843672
	O330	O	1.203852	-0.055608	0.042271
	H331	H	1.214126	-0.070966	0.041808
	H332	H	1.192781	-0.079149	0.033300
	O333	O	0.826432	0.787748	1.019628
	H334	H	0.803368	0.776783	1.017874
	H335	H	0.829908	0.788374	1.014098
	O336	O	1.215756	0.220327	1.035012
	H337	H	1.241624	0.253260	1.045031
	H338	H	1.204067	0.216783	1.059528
	O339	O	0.475509	0.366295	0.307089
	H340	H	0.469878	0.351945	0.334058
	H341	H	0.481410	0.361375	0.294619
	O342	O	0.967945	-0.150439	0.181726
	H343	H	0.976414	-0.164522	0.181795
	H344	H	0.969531	-0.149790	0.187618
	O345	O	-0.128255	0.042701	0.001857
	H346	H	-0.123202	0.025173	0.023687
	H347	H	-0.132145	0.046266	-0.001594
	O348	O	1.195116	0.197040	1.200952
	H349	H	1.194616	0.218336	1.210146
	H350	H	1.167424	0.182582	1.206614
	O351	O	0.530051	0.608019	0.465124
	H352	H	0.535207	0.614712	0.481225
	H353	H	0.522986	0.614254	0.487051
	O354	O	0.346473	0.334071	0.381394
	H355	H	0.346902	0.367798	0.375955
	H356	H	0.370330	0.338010	0.400865
	O357	O	1.017107	1.179055	1.217862
	H358	H	1.011459	1.188723	1.220644
	H359	H	1.002304	1.184473	1.221461
	O360	O	0.548269	0.491570	0.395798
	H361	H	0.551492	0.503465	0.405004
	H362	H	0.551348	0.486933	0.398715
	O363	O	0.702805	0.345252	0.485954
	H364	H	0.691888	0.336986	0.499722
	H365	H	0.716442	0.348355	0.505081
	O366	O	0.847703	1.038194	0.033346
	H367	H	0.848830	1.044824	0.054837
	H368	H	0.836388	1.023078	0.031349
	O369	O	0.688861	0.635626	0.364548
	H370	H	0.676356	0.632650	0.383606
	H371	H	0.698069	0.644420	0.363689
	O372	O	0.478307	0.286545	0.728297
	H373	H	0.475163	0.249381	0.761440
	H374	H	0.448950	0.301871	0.718828
	O375	O	0.034250	1.130461	0.895456
	H376	H	0.036647	1.128538	0.905145
	H377	H	0.047073	1.133574	0.905319
	O378	O	0.938199	0.132290	-0.185503
	H379	H	0.931934	0.152957	-0.197803
	H380	H	0.949009	0.127611	-0.157498
	O381	O	0.286319	0.394191	-0.499751
	H382	H	0.275163	0.387679	-0.525516
	H383	H	0.289700	0.413704	-0.507812
	O384	O	-0.139938	-0.969974	1.222461
	H385	H	-0.144981	-0.986909	1.222121
	H386	H	-0.136994	-0.976550	1.207248
	O387	O	0.034240	0.911145	0.938442
	H388	H	0.041651	0.918641	0.927619
	H389	H	0.029128	0.906369	0.935629
	O390	O	0.216665	-0.218588	0.985546
	H391	H	0.252932	-0.254641	0.979787
	H392	H	0.206145	-0.207268	0.934129
	O393	O	1.038252	1.039286	0.200353
	H394	H	1.031177	1.049879	0.205990
	H395	H	1.041881	1.059264	0.185905
	O396	O	0.375873	0.567000	0.682335
	H397	H	0.377181	0.568752	0.690843
	H398	H	0.374763	0.542444	0.670051
	O399	O	0.305635	0.692746	0.321019
	H400	H	0.286657	0.684829	0.304370
	H401	H	0.355660	0.697891	0.307912
	O402	O	-0.140214	-0.090327	0.862867
	H403	H	-0.134125	-0.075463	0.864893
	H404	H	-0.142991	-0.080817	0.887680
	O405	O	-0.203758	-0.187708	0.205533
	H406	H	-0.191343	-0.183489	0.211292
	H407	H	-0.189207	-0.169770	0.195479
	O408	O	0.573239	0.500958	0.542238
	H409	H	0.570274	0.505173	0.549621
	H410	H	0.569075	0.504807	0.520732
	O411	O	0.350668	0.434912	0.386151
	H412	H	0.342042	0.445811	0.382504
	H413	H	0.369926	0.445379	0.379199
	O414	O	0.696482	0.711612	0.709711
	H415	H	0.659825	0.717636	0.728246
	H416	H	0.712202	0.679722	0.720750
	O417	O	0.363083	0.532397	0.296196
	H418	H	0.400640	0.514513	0.290195
	H419	H	0.355694	0.551260	0.275306
	O420	O	0.982893	0.802438	1.075500
	H421	H	0.980716	0.787695	1.073441
	H422	H	1.010591	0.800735	1.074541
	O423	O	-0.022822	1.030832	-0.101172
	H424	H	-0.023496	1.038659	-0.102576
	H425	H	-0.006965	1.040700	-0.109128
	O426	O	1.122186	0.871864	1.209124
	H427	H	1.106578	0.905202	1.203848
	H428	H	1.106613	0.868161	1.197918
	O429	O	0.286985	0.437036	0.721418
	H430	H	0.296860	0.452315	0.714541
	H431	H	0.265101	0.441394	0.725002
	O432	O	0.209418	0.074540	-0.053058
	H433	H	0.216669	0.083590	-0.029709
	H434	H	0.211786	0.069608	-0.043063
	O435	O	-0.174045	0.012086	-0.205040
	H436	H	-0.184133	0.029739	-0.203443
	H437	H	-0.197273	0.011927	-0.198374
	O438	O	1.183732	-0.181870	-0.169238
	H439	H	1.192975	-0.127855	-0.182238
	H440	H	1.131449	-0.193793	-0.183884
	O441	O	0.705024	0.287978	0.296615
	H442	H	0.672623	0.295519	0.309239
	H443	H	0.702236	0.306250	0.323979
	O444	O	0.027055	0.788567	0.792831
	H445	H	0.013717	0.770817	0.781521
	H446	H	0.004486	0.816435	0.776459
	O447	O	0.491461	0.666448	0.712336
	H448	H	0.473222	0.666349	0.700865
	H449	H	0.490629	0.650578	0.729019
	O450	O	0.313937	0.312077	0.654410
	H451	H	0.294353	0.314580	0.636036
	H452	H	0.302343	0.347867	0.646694
	O453	O	0.707281	0.528002	0.717779
	H454	H	0.695514	0.516024	0.713150
	H455	H	0.725202	0.526457	0.734073
	O456	O	1.031242	0.134956	-0.002052
	H457	H	1.020815	0.125504	0.012523
	H458	H	1.047593	0.127956	0.011104
	O459	O	0.585523	0.441136	0.595381
	H460	H	0.597158	0.452043	0.578219
	H461	H	0.583195	0.434481	0.589940
	O462	O	0.336268	0.445860	0.525950
	H463	H	0.322566	0.457659	0.525845
	H464	H	0.332516	0.457597	0.520630
	O465	O	1.215880	0.032937	0.227327
	H466	H	1.228509	0.038733	0.238670
	H467	H	1.222862	0.047120	0.234041
