data_Molecule from HDF5

_cell_length_a		16.633891
_cell_length_b		16.591193
_cell_length_c		16.568331
_cell_angle_alpha	90.044435
_cell_angle_beta	89.956919
_cell_angle_gamma	89.887195
_symmetry_space_group_name_H-M	'P 1'
_symmetry_Int_Tables_number		1

loop_
	_symmetry_equiv_pos_as_xyz
	x,y,z

loop_
	_atom_site_label
	_atom_site_type_symbol
	_atom_site_fract_x
	_atom_site_fract_y
	_atom_site_fract_z
	H0	H	0.378165	0.857099	0.723909
	H1	H	0.583960	0.170930	0.725191
	H2	H	0.583469	0.856781	0.287956
	H3	H	0.377188	0.171014	0.283330
	H4	H	0.701395	0.411231	0.848004
	H5	H	0.700604	0.616949	0.161947
	H6	H	0.262267	0.616620	0.847762
	H7	H	0.260126	0.409450	0.160953
	H8	H	0.825065	0.735779	0.402446
	H9	H	0.135107	0.739612	0.615193
	H10	H	0.824429	0.297997	0.605019
	H11	H	0.137117	0.291624	0.397612
	H12	H	0.823614	0.415237	0.720941
	H13	H	0.134897	0.623941	0.731735
	H14	H	0.826199	0.620561	0.284576
	H15	H	0.136842	0.408108	0.281694
	H16	H	0.379030	0.732714	0.847109
	H17	H	0.584959	0.735167	0.160619
	H18	H	0.583307	0.296427	0.847047
	H19	H	0.378305	0.294452	0.162213
	H20	H	0.699743	0.856835	0.404033
	H21	H	0.700115	0.171671	0.608706
	H22	H	0.259489	0.858871	0.610931
	H23	H	0.258976	0.169963	0.397981
	H24	H	0.879292	0.358776	0.225783
	H25	H	0.085961	0.670493	0.225285
	H26	H	0.088308	0.358274	0.782750
	H27	H	0.880920	0.672399	0.788720
	H28	H	0.204298	0.907168	0.349561
	H29	H	0.204595	0.121002	0.660181
	H30	H	0.762956	0.118805	0.348364
	H31	H	0.764294	0.913889	0.662755
	H32	H	0.327188	0.239722	0.895574
	H33	H	0.639945	0.230566	0.104162
	H34	H	0.326672	0.791718	0.110169
	H35	H	0.639705	0.797091	0.903941
	H36	H	0.327391	0.907343	0.227741
	H37	H	0.639704	0.114933	0.221708
	H38	H	0.326784	0.122664	0.779823
	H39	H	0.639792	0.914584	0.787981
	H40	H	0.882045	0.231892	0.347108
	H41	H	0.086210	0.234997	0.661761
	H42	H	0.088836	0.791679	0.350360
	H43	H	0.881363	0.798290	0.663291
	H44	H	0.204645	0.358266	0.897398
	H45	H	0.204541	0.669528	0.111109
	H46	H	0.762003	0.358528	0.110135
	H47	H	0.764246	0.671741	0.905917
	H48	H	0.393408	0.124447	0.587885
	H49	H	0.574304	0.900599	0.598181
	H50	H	0.566583	0.124679	0.415988
	H51	H	0.390715	0.901029	0.413464
	H52	H	0.574653	0.427878	0.118324
	H53	H	0.573755	0.603223	0.891911
	H54	H	0.391260	0.601791	0.116633
	H55	H	0.395866	0.427252	0.894859
	H56	H	0.091488	0.598242	0.417969
	H57	H	0.870763	0.603993	0.594004
	H58	H	0.093915	0.423617	0.593860
	H59	H	0.868827	0.420905	0.414810
	H60	H	0.093820	0.425616	0.595604
	H61	H	0.870848	0.604006	0.595060
	H62	H	0.094792	0.605198	0.412078
	H63	H	0.873129	0.426688	0.419607
	H64	H	0.395350	0.601721	0.115824
	H65	H	0.572737	0.606166	0.891359
	H66	H	0.567159	0.422365	0.116143
	H67	H	0.393512	0.422596	0.892200
	H68	H	0.580485	0.128311	0.417616
	H69	H	0.571812	0.902450	0.594626
	H70	H	0.392199	0.126066	0.592991
	H71	H	0.397573	0.904112	0.414683
	H72	H	0.887696	0.630195	0.100473
	H73	H	0.069967	0.405046	0.087305
	H74	H	0.068576	0.624083	0.918533
	H75	H	0.891308	0.401384	0.916462
	H76	H	0.069874	0.927152	0.616678
	H77	H	0.070079	0.099577	0.394420
	H78	H	0.888101	0.111054	0.620781
	H79	H	0.892128	0.923039	0.391941
	H80	H	0.591566	0.104042	0.919065
	H81	H	0.371042	0.101378	0.094325
	H82	H	0.591070	0.929692	0.092926
	H83	H	0.368819	0.924018	0.912297
	H84	H	0.595657	0.923420	0.097882
	H85	H	0.369820	0.104258	0.093151
	H86	H	0.591386	0.100133	0.912821
	H87	H	0.368338	0.920939	0.912462
	H88	H	0.887341	0.102654	0.618407
	H89	H	0.067325	0.104589	0.393872
	H90	H	0.071968	0.928463	0.617471
	H91	H	0.889637	0.924863	0.391843
	H92	H	0.073280	0.624950	0.919414
	H93	H	0.073428	0.401342	0.093625
	H94	H	0.895442	0.626039	0.094921
	H95	H	0.888575	0.399909	0.912598
	H96	H	0.397144	0.123980	0.591646
	H97	H	0.576136	0.901063	0.594211
	H98	H	0.574071	0.130300	0.405066
	H99	H	0.392098	0.904547	0.420187
	H100	H	0.575178	0.418444	0.119962
	H101	H	0.575711	0.605384	0.890650
	H102	H	0.393802	0.604853	0.116607
	H103	H	0.390094	0.427662	0.892772
	H104	H	0.093160	0.607463	0.420909
	H105	H	0.870932	0.604884	0.594450
	H106	H	0.095602	0.423174	0.596139
	H107	H	0.870001	0.428668	0.411622
	H108	H	0.885990	0.627836	0.090238
	H109	H	0.065464	0.404346	0.094436
	H110	H	0.071382	0.626100	0.914958
	H111	H	0.893859	0.401051	0.911758
	H112	H	0.070308	0.929154	0.615808
	H113	H	0.072742	0.104178	0.391818
	H114	H	0.894640	0.107103	0.617134
	H115	H	0.892576	0.926437	0.392495
	H116	H	0.594015	0.107215	0.912409
	H117	H	0.370946	0.102653	0.091643
	H118	H	0.593296	0.921438	0.089422
	H119	H	0.368894	0.922630	0.915123
	C120	C	0.361245	0.022203	0.624492
	C121	C	0.603859	1.005602	0.626602
	C122	C	0.604050	0.023295	0.383126
	C123	C	0.360860	1.006294	0.383325
	C124	C	0.603303	0.392554	0.013634
	C125	C	0.604070	0.635974	0.995558
	C126	C	0.361367	0.634556	0.012733
	C127	C	0.360654	0.392890	0.996313
	C128	C	-0.009917	0.636332	0.385048
	C129	C	0.972889	0.636969	0.627603
	C130	C	-0.009734	0.394310	0.625573
	C131	C	0.973440	0.392818	0.382718
	C132	C	0.859970	0.523883	0.126738
	C133	C	0.102514	0.506190	0.125102
	C134	C	0.103600	0.522450	0.883452
	C135	C	0.861317	0.505839	0.884628
	C136	C	0.103171	0.894202	0.513995
	C137	C	0.103319	0.135669	0.496355
	C138	C	0.860155	0.137069	0.513997
	C139	C	0.861163	0.894607	0.496638
	C140	C	0.489566	0.136475	0.881942
	C141	C	0.474048	0.134523	0.124784
	C142	C	0.490658	0.892297	0.126097
	C143	C	0.473446	0.892889	0.883538
	C144	C	0.359115	0.904657	0.684893
	C145	C	0.603528	0.123973	0.685387
	C146	C	0.603368	0.904195	0.326429
	C147	C	0.358568	0.123809	0.323040
	C148	C	0.661817	0.392196	0.895074
	C149	C	0.661724	0.636581	0.114463
	C150	C	0.301776	0.636048	0.894877
	C151	C	0.300339	0.390541	0.114179
	C152	C	0.872343	0.696132	0.383400
	C153	C	0.088897	0.698753	0.632274
	C154	C	0.871662	0.336872	0.625119
	C155	C	0.090425	0.332110	0.379887
	C156	C	0.871408	0.395088	0.682576
	C157	C	0.088656	0.641106	0.690230
	C158	C	0.872780	0.638559	0.324999
	C159	C	0.090513	0.390278	0.322442
	C160	C	0.359788	0.693597	0.894581
	C161	C	0.604436	0.694990	0.113953
	C162	C	0.603301	0.335167	0.894547
	C163	C	0.358595	0.333192	0.114519
	C164	C	0.661004	0.904324	0.384342
	C165	C	0.661218	0.124281	0.627576
	C166	C	0.300165	0.905432	0.628643
	C167	C	0.299963	0.123498	0.380293
	C168	C	0.859849	0.405681	0.185858
	C169	C	0.104751	0.623703	0.185405
	C170	C	0.106129	0.405439	0.822718
	C171	C	0.861491	0.625073	0.828010
	C172	C	0.163919	0.890207	0.396579
	C173	C	0.163997	0.138757	0.613599
	C174	C	0.802459	0.137512	0.395453
	C175	C	0.803485	0.894684	0.615446
	C176	C	0.373267	0.198187	0.878423
	C177	C	0.592449	0.191980	0.124396
	C178	C	0.373496	0.831945	0.128791
	C179	C	0.592409	0.836126	0.884402
	C180	C	0.373874	0.889241	0.187270
	C181	C	0.592293	0.134518	0.182752
	C182	C	0.373163	0.139948	0.820830
	C183	C	0.592337	0.894609	0.826886
	C184	C	0.861241	0.194050	0.394855
	C185	C	0.104979	0.195303	0.614437
	C186	C	0.106435	0.832541	0.397048
	C187	C	0.861896	0.837571	0.616000
	C188	C	0.163969	0.405145	0.880156
	C189	C	0.163334	0.623115	0.128327
	C190	C	0.801693	0.405491	0.128492
	C191	C	0.803538	0.624715	0.885773
	C192	C	0.386937	0.103618	0.598277
	C193	C	0.580640	0.922957	0.602529
	C194	C	0.580547	0.106155	0.406277
	C195	C	0.386124	0.924499	0.408930
	C196	C	0.578992	0.416043	0.096554
	C197	C	0.580586	0.611954	0.912866
	C198	C	0.386199	0.609801	0.094963
	C199	C	0.385849	0.418429	0.914660
	C200	C	0.071748	0.611000	0.409913
	C201	C	0.892034	0.611424	0.601747
	C202	C	0.072995	0.417601	0.601927
	C203	C	0.891984	0.417986	0.408203
	C204	C	0.883228	0.606492	0.102346
	C205	C	0.076840	0.424715	0.099180
	C206	C	0.078222	0.604091	0.909948
	C207	C	0.884512	0.422579	0.907147
	C208	C	0.077772	0.920430	0.595368
	C209	C	0.077692	0.110130	0.414660
	C210	C	0.883255	0.113685	0.597128
	C211	C	0.884777	0.917954	0.413792
	C212	C	0.570996	0.111086	0.907466
	C213	C	0.391893	0.109871	0.100177
	C214	C	0.572129	0.917479	0.100597
	C215	C	0.390300	0.915885	0.906805
	Zn216	Zn	0.480916	0.014195	0.753832
	Zn217	Zn	0.482195	0.013854	0.254575
	Zn218	Zn	0.731695	0.513967	0.005323
	Zn219	Zn	0.232214	0.514055	0.004637
	Zn220	Zn	-0.018083	0.765480	0.506033
	Zn221	Zn	-0.017485	0.264655	0.505015
	Zn222	Zn	-0.018375	0.514560	0.755479
	Zn223	Zn	-0.018080	0.515237	0.254943
	Zn224	Zn	0.481878	0.763482	0.004442
	Zn225	Zn	0.481622	0.264498	0.004690
	Zn226	Zn	0.732320	0.015426	0.504921
	Zn227	Zn	0.232156	0.014629	0.504847
	N228	N	0.396363	0.978411	0.682588
	N229	N	0.568494	0.049082	0.684903
	N230	N	0.568793	0.979234	0.325376
	N231	N	0.395557	0.049790	0.324691
	N232	N	0.662153	0.426974	0.970317
	N233	N	0.661487	0.600424	0.039872
	N234	N	0.302569	0.600179	0.969447
	N235	N	0.301217	0.426563	0.039627
	N236	N	0.946469	0.695151	0.419834
	N237	N	0.016054	0.696157	0.593612
	N238	N	0.946807	0.336074	0.590444
	N239	N	0.016676	0.333770	0.416877
	N240	N	0.946342	0.429731	0.683212
	N241	N	0.015606	0.603325	0.687447
	N242	N	0.947028	0.602172	0.325705
	N243	N	0.016654	0.427264	0.323747
	N244	N	0.395920	0.693090	0.969102
	N245	N	0.569542	0.694905	0.038868
	N246	N	0.567827	0.335188	0.969487
	N247	N	0.395257	0.334169	0.040134
	N248	N	0.662026	0.979726	0.418559
	N249	N	0.661727	0.049570	0.591797
	N250	N	0.301188	0.979580	0.591935
	N251	N	0.300942	0.049232	0.416725
	N252	N	0.894982	0.480590	0.185249
	N253	N	0.067466	0.550055	0.183372
	N254	N	0.069334	0.479621	0.824613
	N255	N	0.896677	0.550208	0.827362
	N256	N	0.162257	0.927868	0.470323
	N257	N	0.162829	0.102219	0.539224
	N258	N	0.801441	0.103053	0.470779
	N259	N	0.802581	0.929165	0.540008
	N260	N	0.446678	0.196200	0.915834
	N261	N	0.517601	0.192299	0.089241
	N262	N	0.447114	0.833655	0.091249
	N263	N	0.517192	0.834767	0.918501
	N264	N	0.447585	0.926213	0.185538
	N265	N	0.517389	0.099743	0.183290
	N266	N	0.446570	0.102129	0.822946
	N267	N	0.517046	0.928888	0.825796
	N268	N	0.896026	0.194362	0.469868
	N269	N	0.068001	0.193712	0.540417
	N270	N	0.069482	0.834686	0.471074
	N271	N	0.896983	0.837360	0.540999
	N272	N	0.162647	0.479084	0.917379
	N273	N	0.162334	0.548885	0.091772
	N274	N	0.801354	0.480080	0.092741
	N275	N	0.802952	0.549355	0.919826
	O276	O	-0.208690	1.208370	0.195222
	H277	H	-0.193491	1.178715	0.179836
	H278	H	-0.180614	1.202601	0.178041
	O279	O	0.010070	-0.147028	0.114837
	H280	H	0.017825	-0.138669	0.126790
	H281	H	0.024101	-0.138547	0.117286
	O282	O	1.200617	0.227099	1.033207
	H283	H	1.205856	0.215617	1.047592
	H284	H	1.225764	0.250237	1.043994
	O285	O	0.234322	0.269048	0.616533
	H286	H	0.245672	0.252518	0.619866
	H287	H	0.228305	0.257668	0.610695
	O288	O	0.483168	0.456703	0.402379
	H289	H	0.484832	0.465388	0.405469
	H290	H	0.472676	0.453552	0.401645
	O291	O	-0.018747	0.210763	0.065082
	H292	H	-0.014087	0.207768	0.050131
	H293	H	-0.014678	0.210290	0.043828
	O294	O	0.934698	-0.000045	0.896051
	H295	H	0.920857	-0.009337	0.895154
	H296	H	0.929044	0.013427	0.891221
	O297	O	0.453156	0.290412	0.519737
	H298	H	0.465126	0.287557	0.523626
	H299	H	0.454496	0.295023	0.526072
	O300	O	-0.312702	-0.691116	0.295435
	H301	H	-0.319630	-0.678798	0.313390
	H302	H	-0.279643	-0.723534	0.264507
	O303	O	0.398819	0.720844	0.595651
	H304	H	0.382117	0.725313	0.602990
	H305	H	0.380115	0.719424	0.600427
	O306	O	0.602229	0.402449	0.640017
	H307	H	0.596392	0.407584	0.618045
	H308	H	0.585246	0.398124	0.638810
	O309	O	0.700826	0.561006	0.723200
	H310	H	0.697868	0.542581	0.729857
	H311	H	0.710526	0.567297	0.730804
	O312	O	0.251696	0.457911	0.455522
	H313	H	0.244776	0.434489	0.450151
	H314	H	0.261060	0.456173	0.448206
	O315	O	1.354799	0.635375	1.414677
	H316	H	1.363320	0.619928	1.415608
	H317	H	1.338146	0.623595	1.420833
	O318	O	0.274343	0.443579	0.300596
	H319	H	0.262095	0.450303	0.286836
	H320	H	0.287338	0.455238	0.305508
	O321	O	0.093811	1.051714	0.997085
	H322	H	0.089782	1.056961	0.982696
	H323	H	0.106667	1.055159	0.992808
	O324	O	1.210549	0.965799	0.054918
	H325	H	1.214538	0.989761	0.045895
	H326	H	1.216216	0.986500	0.072146
	O327	O	0.193187	0.030533	1.219584
	H328	H	0.196493	0.056586	1.223240
	H329	H	0.201014	0.037005	1.234172
	O330	O	0.774346	0.803929	0.210078
	H331	H	0.760690	0.776778	0.234654
	H332	H	0.789977	0.797444	0.178903
	O333	O	0.634467	0.712750	0.354752
	H334	H	0.627671	0.718252	0.368888
	H335	H	0.597630	0.705637	0.354093
	O336	O	0.657576	0.349351	0.471915
	H337	H	0.676485	0.321708	0.471362
	H338	H	0.649104	0.369948	0.478284
	O339	O	0.763722	0.052536	0.790054
	H340	H	0.744455	0.048263	0.784684
	H341	H	0.769338	0.057352	0.787697
	O342	O	0.194141	-0.055873	-0.203410
	H343	H	0.195916	-0.062013	-0.211738
	H344	H	0.175962	-0.076445	-0.205424
	O345	O	0.169960	1.077817	0.854873
	H346	H	0.155390	1.068680	0.846314
	H347	H	0.174673	1.074101	0.841327
	O348	O	0.779198	0.220572	0.801142
	H349	H	0.761523	0.202721	0.793954
	H350	H	0.754144	0.235623	0.798306
	O351	O	0.473660	0.574356	0.635138
	H352	H	0.453769	0.582859	0.639103
	H353	H	0.483212	0.574201	0.637885
	O354	O	-0.055310	0.241342	0.778637
	H355	H	-0.066950	0.271250	0.748887
	H356	H	-0.097165	0.238972	0.780149
	O357	O	0.466977	0.699353	0.441740
	H358	H	0.448853	0.684891	0.461057
	H359	H	0.458990	0.698284	0.452558
	O360	O	0.256568	-0.334972	1.511549
	H361	H	0.262685	-0.336316	1.510046
	H362	H	0.250922	-0.331962	1.505337
	O363	O	-0.036637	0.227370	0.150869
	H364	H	-0.035296	0.240929	0.156113
	H365	H	-0.041644	0.218140	0.126964
	O366	O	0.437592	0.560988	0.380929
	H367	H	0.441644	0.545580	0.384565
	H368	H	0.437591	0.556854	0.386859
	O369	O	0.946837	-0.203677	0.219170
	H370	H	0.951832	-0.212652	0.238432
	H371	H	0.948225	-0.197458	0.227676
	O372	O	0.991569	0.861207	-0.204322
	H373	H	1.003183	0.862318	-0.204974
	H374	H	0.986446	0.853964	-0.197176
	O375	O	0.929449	-0.199203	-0.063189
	H376	H	0.931637	-0.205935	-0.046024
	H377	H	0.940929	-0.205805	-0.046445
	O378	O	0.512295	0.527653	0.277794
	H379	H	0.521368	0.530665	0.282819
	H380	H	0.522185	0.512562	0.272786
	O381	O	0.265152	0.486815	0.717822
	H382	H	0.239212	0.491352	0.740843
	H383	H	0.271926	0.491349	0.700275
	O384	O	1.270755	-0.277717	1.296163
	H385	H	1.287952	-0.284875	1.311531
	H386	H	1.278866	-0.278266	1.294833
	O387	O	0.827899	1.057951	0.084367
	H388	H	0.837028	1.062755	0.076698
	H389	H	0.823571	1.044906	0.103106
	O390	O	0.698719	0.477178	0.284234
	H391	H	0.726884	0.475789	0.259641
	H392	H	0.702109	0.460012	0.295413
	O393	O	0.623286	0.400628	0.504597
	H394	H	0.609071	0.409405	0.511144
	H395	H	0.631291	0.425554	0.506461
	O396	O	0.115366	0.864651	1.189250
	H397	H	0.113081	0.879634	1.175020
	H398	H	0.130674	0.865926	1.192361
	O399	O	-0.169988	0.001091	0.897614
	H400	H	-0.163219	0.020699	0.908951
	H401	H	-0.172340	0.012674	0.890215
	O402	O	0.422588	0.601170	0.698491
	H403	H	0.425083	0.623735	0.716155
	H404	H	0.419204	0.617026	0.687023
	O405	O	1.455697	-0.499815	1.436501
	H406	H	1.467574	-0.490376	1.431108
	H407	H	1.451551	-0.492067	1.440468
	O408	O	-0.201786	-0.171760	-0.180685
	H409	H	-0.192070	-0.146431	-0.160450
	H410	H	-0.175693	-0.161644	-0.160963
	O411	O	0.480683	0.341388	0.719316
	H412	H	0.459521	0.352965	0.715536
	H413	H	0.486408	0.333327	0.737217
	O414	O	0.521021	0.292662	0.283029
	H415	H	0.518194	0.264057	0.248085
	H416	H	0.552719	0.300343	0.299247
	O417	O	0.376147	0.313422	0.382958
	H418	H	0.398787	0.324207	0.382127
	H419	H	0.389681	0.308160	0.385163
	O420	O	0.455624	0.722570	0.291251
	H421	H	0.451036	0.706593	0.300855
	H422	H	0.462004	0.736790	0.283266
	O423	O	0.090056	-0.158456	0.868425
	H424	H	0.070305	-0.160986	0.874077
	H425	H	0.080637	-0.156668	0.885935
	O426	O	0.257519	0.627245	0.597416
	H427	H	0.259242	0.614352	0.582420
	H428	H	0.263491	0.628949	0.579776
	O429	O	1.023421	1.117041	1.092076
	H430	H	1.009578	1.137224	1.096906
	H431	H	1.023631	1.112514	1.085303
	O432	O	0.525881	0.741132	0.730658
	H433	H	0.545499	0.759233	0.744993
	H434	H	0.555083	0.753520	0.745250
	O435	O	0.084345	1.006307	-0.013114
	H436	H	0.077024	0.998987	-0.017516
	H437	H	0.090721	1.001646	-0.023921
	O438	O	0.189521	-0.190267	-0.030525
	H439	H	0.199214	-0.173928	-0.012711
	H440	H	0.198582	-0.200838	-0.020269
	O441	O	0.264542	-0.348296	-0.264703
	H442	H	0.259925	-0.350442	-0.269218
	H443	H	0.266144	-0.342575	-0.249634
	O444	O	0.703936	0.728379	-0.452212
	H445	H	0.703916	0.733267	-0.433123
	H446	H	0.712417	0.756955	-0.458381
	O447	O	0.694184	0.729431	0.718007
	H448	H	0.709077	0.701119	0.723739
	H449	H	0.723394	0.753065	0.730201
	O450	O	-0.089426	0.981130	1.020500
	H451	H	-0.092182	0.991622	1.032372
	H452	H	-0.074961	0.976603	1.031168
	O453	O	0.688673	0.601864	0.405897
	H454	H	0.682372	0.601062	0.408917
	H455	H	0.683951	0.608033	0.400318
	O456	O	0.282604	0.316148	0.670555
	H457	H	0.291903	0.322340	0.674179
	H458	H	0.270518	0.323829	0.660305
	O459	O	0.758382	0.978033	0.231741
	H460	H	0.757970	0.946519	0.238223
	H461	H	0.735341	0.958190	0.252425
	O462	O	0.915818	0.028977	-0.155135
	H463	H	0.906964	0.041103	-0.157483
	H464	H	0.916924	0.034206	-0.137179
	O465	O	0.764362	0.184008	-0.002531
	H466	H	0.743353	0.206293	0.006103
	H467	H	0.770939	0.181060	-0.025643
	O468	O	0.649557	0.502817	0.553691
	H469	H	0.641540	0.502112	0.551831
	H470	H	0.660445	0.526015	0.536412
	O471	O	0.673402	0.324627	0.694254
	H472	H	0.655069	0.329132	0.664824
	H473	H	0.655969	0.355185	0.684376
	O474	O	0.056091	1.230634	-0.064721
	H475	H	0.074432	1.235818	-0.088018
	H476	H	0.071382	1.227948	-0.081437
	O477	O	1.055246	0.971110	2.211702
	H478	H	1.077920	0.961910	2.198446
	H479	H	1.058043	0.985482	2.206386
	O480	O	0.809237	0.853057	0.027407
	H481	H	0.803366	0.851420	0.026452
	H482	H	0.813505	0.861300	0.033268
	O483	O	0.416542	0.406119	0.605700
	H484	H	0.418259	0.413876	0.609913
	H485	H	0.424570	0.397029	0.609620
	O486	O	1.184127	0.214867	1.207662
	H487	H	1.169063	0.212804	1.220944
	H488	H	1.165719	0.228420	1.201643
	O489	O	0.896538	1.057047	0.113008
	H490	H	0.915570	1.042150	0.114306
	H491	H	0.885831	1.039179	0.122348
