data_Molecule from HDF5

_cell_length_a		16.626131
_cell_length_b		16.577604
_cell_length_c		16.631447
_cell_angle_alpha	89.904439
_cell_angle_beta	90.070702
_cell_angle_gamma	89.905423
_symmetry_space_group_name_H-M	'P 1'
_symmetry_Int_Tables_number		1

loop_
	_symmetry_equiv_pos_as_xyz
	x,y,z

loop_
	_atom_site_label
	_atom_site_type_symbol
	_atom_site_fract_x
	_atom_site_fract_y
	_atom_site_fract_z
	H0	H	0.396016	0.872893	0.726953
	H1	H	0.611321	0.181710	0.728534
	H2	H	0.609770	0.872684	0.280489
	H3	H	0.394144	0.182458	0.281122
	H4	H	0.728683	0.417773	0.852650
	H5	H	0.724027	0.634430	0.159469
	H6	H	0.280189	0.633582	0.849948
	H7	H	0.279709	0.422230	0.160550
	H8	H	0.847857	0.752697	0.395599
	H9	H	0.156748	0.749431	0.610905
	H10	H	0.845989	0.305739	0.611514
	H11	H	0.157220	0.306512	0.400630
	H12	H	0.847482	0.419764	0.729388
	H13	H	0.155799	0.633759	0.727723
	H14	H	0.849017	0.638558	0.278437
	H15	H	0.157375	0.422387	0.284307
	H16	H	0.397816	0.747860	0.848133
	H17	H	0.606942	0.749893	0.160374
	H18	H	0.612001	0.302891	0.852222
	H19	H	0.394912	0.304535	0.159079
	H20	H	0.726826	0.873218	0.395242
	H21	H	0.726090	0.181995	0.612257
	H22	H	0.279503	0.873325	0.611089
	H23	H	0.278488	0.182857	0.397399
	H24	H	0.896889	0.372433	0.226614
	H25	H	0.105926	0.684109	0.226688
	H26	H	0.104758	0.372399	0.786771
	H27	H	0.894535	0.683785	0.781617
	H28	H	0.221317	0.923182	0.348543
	H29	H	0.221850	0.131315	0.660412
	H30	H	0.781263	0.132191	0.348261
	H31	H	0.776933	0.918412	0.658207
	H32	H	0.346446	0.249009	0.901497
	H33	H	0.656896	0.250621	0.111411
	H34	H	0.344156	0.809343	0.107404
	H35	H	0.658837	0.810026	0.902797
	H36	H	0.345450	0.923360	0.225529
	H37	H	0.655831	0.135539	0.229085
	H38	H	0.346046	0.133026	0.784799
	H39	H	0.658288	0.925633	0.785812
	H40	H	0.897148	0.248255	0.348393
	H41	H	0.104273	0.246653	0.661608
	H42	H	0.104853	0.807938	0.348498
	H43	H	0.894571	0.803928	0.659560
	H44	H	0.221590	0.372729	0.902960
	H45	H	0.221945	0.685431	0.110285
	H46	H	0.780895	0.372257	0.110521
	H47	H	0.780186	0.684514	0.898786
	H48	H	0.414854	0.139726	0.594332
	H49	H	0.586877	0.917449	0.594069
	H50	H	0.587791	0.136290	0.419641
	H51	H	0.408748	0.914151	0.415193
	H52	H	0.587150	0.448501	0.112222
	H53	H	0.586815	0.614432	0.895509
	H54	H	0.408720	0.620314	0.118557
	H55	H	0.420668	0.445460	0.899132
	H56	H	0.111629	0.616868	0.417746
	H57	H	0.893052	0.613300	0.588962
	H58	H	0.112487	0.436122	0.594242
	H59	H	0.889737	0.441157	0.411885
	H60	H	0.112448	0.439540	0.593601
	H61	H	0.889919	0.612933	0.596024
	H62	H	0.112188	0.614157	0.417583
	H63	H	0.889072	0.435928	0.416739
	H64	H	0.411593	0.614934	0.116375
	H65	H	0.589805	0.624916	0.891446
	H66	H	0.584672	0.435376	0.115375
	H67	H	0.414384	0.431986	0.891594
	H68	H	0.593016	0.138894	0.416771
	H69	H	0.587964	0.918322	0.590396
	H70	H	0.411464	0.139578	0.589817
	H71	H	0.414590	0.915933	0.412673
	H72	H	0.912778	0.639892	0.092496
	H73	H	0.088138	0.418382	0.094823
	H74	H	0.087807	0.640371	0.916158
	H75	H	0.914551	0.417934	0.918710
	H76	H	0.087259	0.934497	0.616384
	H77	H	0.092089	0.117427	0.392235
	H78	H	0.918713	0.111718	0.611794
	H79	H	0.920763	0.940555	0.396845
	H80	H	0.613669	0.114921	0.915315
	H81	H	0.390421	0.115590	0.093991
	H82	H	0.609422	0.944598	0.088960
	H83	H	0.386170	0.936680	0.906418
	H84	H	0.613532	0.941930	0.099888
	H85	H	0.390992	0.118240	0.091310
	H86	H	0.614260	0.118119	0.915096
	H87	H	0.388401	0.931981	0.918315
	H88	H	0.914456	0.123702	0.618240
	H89	H	0.089303	0.116946	0.392664
	H90	H	0.095625	0.938636	0.617739
	H91	H	0.911087	0.935447	0.391904
	H92	H	0.092741	0.641242	0.918009
	H93	H	0.094299	0.416328	0.091259
	H94	H	0.914537	0.640069	0.093492
	H95	H	0.913934	0.416926	0.917153
	H96	H	0.409690	0.141101	0.595173
	H97	H	0.590672	0.916627	0.592721
	H98	H	0.586921	0.139039	0.413532
	H99	H	0.413363	0.917082	0.419446
	H100	H	0.596837	0.440809	0.118004
	H101	H	0.597605	0.616164	0.891620
	H102	H	0.414834	0.620885	0.117081
	H103	H	0.404798	0.445556	0.893894
	H104	H	0.113581	0.615819	0.415856
	H105	H	0.889343	0.619191	0.592033
	H106	H	0.112837	0.438371	0.596822
	H107	H	0.891816	0.442307	0.418926
	H108	H	0.914362	0.638662	0.092017
	H109	H	0.093391	0.414425	0.098138
	H110	H	0.091546	0.642757	0.912688
	H111	H	0.915775	0.417793	0.917698
	H112	H	0.088100	0.943418	0.614065
	H113	H	0.090136	0.119611	0.392139
	H114	H	0.905656	0.112536	0.617347
	H115	H	0.910848	0.947157	0.394773
	H116	H	0.613457	0.116769	0.918217
	H117	H	0.392504	0.114879	0.090626
	H118	H	0.614120	0.933359	0.091021
	H119	H	0.391140	0.944370	0.915931
	C120	C	0.379617	0.037230	0.626201
	C121	C	0.622409	1.019477	0.625404
	C122	C	0.622864	0.035730	0.382855
	C123	C	0.379638	1.018794	0.383138
	C124	C	0.623253	0.407536	0.013329
	C125	C	0.623346	0.650287	0.995945
	C126	C	0.379914	0.650382	0.013923
	C127	C	0.380888	0.408017	0.997172
	C128	C	0.010426	0.649428	0.383203
	C129	C	0.992959	0.648634	0.625770
	C130	C	0.009989	0.405419	0.627272
	C131	C	0.993441	0.407349	0.384380
	C132	C	0.881529	0.536484	0.125528
	C133	C	0.123739	0.519857	0.127141
	C134	C	0.122295	0.537513	0.884825
	C135	C	0.880668	0.519986	0.883798
	C136	C	0.122837	0.906495	0.513360
	C137	C	0.122513	0.149193	0.496026
	C138	C	0.880102	0.148886	0.513058
	C139	C	0.880552	0.906794	0.496287
	C140	C	0.510748	0.149503	0.883993
	C141	C	0.493455	0.149687	0.126036
	C142	C	0.509169	0.907656	0.125301
	C143	C	0.492656	0.906568	0.882738
	C144	C	0.377567	0.919865	0.686813
	C145	C	0.627862	0.135416	0.687527
	C146	C	0.627269	0.919320	0.321061
	C147	C	0.376602	0.135858	0.322083
	C148	C	0.686517	0.401587	0.898290
	C149	C	0.683665	0.652812	0.113028
	C150	C	0.320131	0.651886	0.896522
	C151	C	0.320092	0.404249	0.113689
	C152	C	0.894621	0.711998	0.378304
	C153	C	0.109715	0.709280	0.629052
	C154	C	0.893096	0.345251	0.630034
	C155	C	0.110780	0.347090	0.382666
	C156	C	0.893798	0.402191	0.688540
	C157	C	0.109439	0.651777	0.687125
	C158	C	0.895146	0.655001	0.319981
	C159	C	0.110721	0.404644	0.324673
	C160	C	0.378824	0.708585	0.895652
	C161	C	0.625343	0.710103	0.113449
	C162	C	0.628326	0.344443	0.898150
	C163	C	0.377579	0.346043	0.113365
	C164	C	0.685554	0.919680	0.378331
	C165	C	0.684978	0.135484	0.629525
	C166	C	0.319555	0.920004	0.629166
	C167	C	0.318914	0.136058	0.379675
	C168	C	0.879017	0.418970	0.186083
	C169	C	0.125150	0.637484	0.187002
	C170	C	0.123619	0.419378	0.826396
	C171	C	0.877309	0.637074	0.822461
	C172	C	0.182032	0.904666	0.395705
	C173	C	0.181836	0.149940	0.613709
	C174	C	0.820970	0.150521	0.395223
	C175	C	0.818095	0.901469	0.611965
	C176	C	0.393351	0.209234	0.882341
	C177	C	0.610179	0.210220	0.129485
	C178	C	0.391477	0.848812	0.126450
	C179	C	0.611280	0.848736	0.883091
	C180	C	0.391940	0.905696	0.185073
	C181	C	0.609641	0.153189	0.188046
	C182	C	0.393150	0.151398	0.824585
	C183	C	0.611092	0.906630	0.825198
	C184	C	0.878450	0.208445	0.395410
	C185	C	0.123514	0.207301	0.614241
	C186	C	0.124076	0.847311	0.395692
	C187	C	0.876870	0.844605	0.612792
	C188	C	0.181702	0.419578	0.883855
	C189	C	0.182552	0.638130	0.128992
	C190	C	0.821061	0.419162	0.128498
	C191	C	0.820154	0.637443	0.880586
	C192	C	0.404872	0.119026	0.600379
	C193	C	0.595931	0.938510	0.599641
	C194	C	0.596560	0.117119	0.409099
	C195	C	0.404957	0.937230	0.408586
	C196	C	0.596917	0.434233	0.094261
	C197	C	0.598513	0.625427	0.914223
	C198	C	0.404840	0.625685	0.096015
	C199	C	0.406264	0.433702	0.915970
	C200	C	0.091431	0.623002	0.409783
	C201	C	0.911849	0.622439	0.599665
	C202	C	0.091602	0.430967	0.601958
	C203	C	0.911459	0.432477	0.408931
	C204	C	0.906661	0.618031	0.099940
	C205	C	0.099029	0.437849	0.101971
	C206	C	0.097893	0.619983	0.908673
	C207	C	0.907018	0.438790	0.910364
	C208	C	0.097745	0.931611	0.594739
	C209	C	0.097644	0.124814	0.413800
	C210	C	0.905511	0.123386	0.594504
	C211	C	0.906777	0.933486	0.415513
	C212	C	0.592491	0.124021	0.909001
	C213	C	0.412282	0.123647	0.099513
	C214	C	0.591056	0.932757	0.100469
	C215	C	0.409963	0.930497	0.906590
	Zn216	Zn	0.501706	0.028788	0.754247
	Zn217	Zn	0.501491	0.027754	0.254702
	Zn218	Zn	0.752162	0.528547	0.004985
	Zn219	Zn	0.251448	0.529037	0.005587
	Zn220	Zn	0.001572	0.777734	0.504334
	Zn221	Zn	0.000653	0.277816	0.504996
	Zn222	Zn	0.001327	0.527967	0.755192
	Zn223	Zn	0.001940	0.528144	0.254765
	Zn224	Zn	0.501551	0.778464	0.005025
	Zn225	Zn	0.502147	0.278716	0.005441
	Zn226	Zn	0.751276	0.027753	0.504502
	Zn227	Zn	0.251131	0.028124	0.504173
	N228	N	0.414059	0.994097	0.685265
	N229	N	0.589504	0.062301	0.685215
	N230	N	0.589001	0.992737	0.323759
	N231	N	0.413707	0.061982	0.323916
	N232	N	0.683199	0.440543	0.971022
	N233	N	0.682793	0.616402	0.038978
	N234	N	0.320439	0.616686	0.971324
	N235	N	0.322088	0.442323	0.040473
	N236	N	0.967415	0.708581	0.417092
	N237	N	0.036088	0.707744	0.591744
	N238	N	0.966567	0.347138	0.592670
	N239	N	0.036862	0.348720	0.419258
	N240	N	0.967753	0.438983	0.687150
	N241	N	0.035609	0.614944	0.685436
	N242	N	0.968468	0.616786	0.322852
	N243	N	0.036715	0.441518	0.325473
	N244	N	0.415175	0.707961	0.969788
	N245	N	0.588555	0.708683	0.039688
	N246	N	0.589474	0.348135	0.970756
	N247	N	0.414809	0.348224	0.039870
	N248	N	0.682943	0.993245	0.416088
	N249	N	0.681939	0.062281	0.591391
	N250	N	0.320644	0.994032	0.592250
	N251	N	0.320587	0.062177	0.416974
	N252	N	0.915760	0.492966	0.184400
	N253	N	0.089508	0.562819	0.186101
	N254	N	0.087254	0.493721	0.826783
	N255	N	0.914084	0.562941	0.824268
	N256	N	0.181735	0.940520	0.470136
	N257	N	0.181375	0.114814	0.538977
	N258	N	0.821485	0.114398	0.469591
	N259	N	0.820051	0.939278	0.538499
	N260	N	0.467589	0.208244	0.918486
	N261	N	0.536791	0.208206	0.091786
	N262	N	0.465655	0.849588	0.090320
	N263	N	0.536385	0.848333	0.917928
	N264	N	0.466240	0.941489	0.184573
	N265	N	0.535764	0.116226	0.186060
	N266	N	0.467272	0.115163	0.825207
	N267	N	0.536109	0.941414	0.824507
	N268	N	0.914452	0.207651	0.469781
	N269	N	0.087357	0.207071	0.539973
	N270	N	0.088185	0.847960	0.469909
	N271	N	0.914941	0.847611	0.539696
	N272	N	0.180847	0.494084	0.919639
	N273	N	0.182105	0.563793	0.092826
	N274	N	0.822312	0.493278	0.091573
	N275	N	0.821913	0.563532	0.918005
	O276	O	0.203957	1.108155	0.213325
	H277	H	0.217935	1.109790	0.213985
	H278	H	0.208836	1.116024	0.210041
	O279	O	0.104332	0.151555	0.019910
	H280	H	0.101793	0.146368	0.040346
	H281	H	0.112881	0.139321	0.016750
	O282	O	1.189880	0.221574	1.029621
	H283	H	1.195539	0.217622	1.034958
	H284	H	1.190952	0.212160	1.013535
	O285	O	-0.030456	-0.041465	0.787760
	H286	H	-0.030472	-0.056843	0.794585
	H287	H	-0.020461	-0.027271	0.783101
	O288	O	0.689715	0.595114	0.407168
	H289	H	0.694245	0.602133	0.416345
	H290	H	0.699073	0.601195	0.409263
	O291	O	-0.347840	0.365190	0.356973
	H292	H	-0.355105	0.362102	0.369841
	H293	H	-0.337674	0.353373	0.354496
	O294	O	1.052873	0.073208	0.780455
	H295	H	1.061559	0.067879	0.774445
	H296	H	1.066440	0.080454	0.777404
	O297	O	0.552939	0.546606	0.610898
	H298	H	0.575073	0.538066	0.605044
	H299	H	0.554163	0.542157	0.608190
	O300	O	-0.404725	-0.626262	0.607920
	H301	H	-0.419669	-0.632997	0.622994
	H302	H	-0.402863	-0.634165	0.601856
	O303	O	0.432756	0.534377	0.567518
	H304	H	0.438933	0.538378	0.549019
	H305	H	0.428980	0.516906	0.572977
	O306	O	0.288793	0.516581	0.697542
	H307	H	0.286341	0.522075	0.681654
	H308	H	0.289200	0.515015	0.707439
	O309	O	0.590242	0.490321	0.354135
	H310	H	0.584872	0.476105	0.347816
	H311	H	0.597103	0.491908	0.359073
	O312	O	0.318163	0.691308	0.323562
	H313	H	0.337811	0.667508	0.315063
	H314	H	0.314346	0.701766	0.356671
	O315	O	1.723927	0.505750	1.283036
	H316	H	1.738778	0.487657	1.281389
	H317	H	1.737029	0.483036	1.273692
	O318	O	0.315014	0.558764	0.336364
	H319	H	0.317250	0.553512	0.322730
	H320	H	0.315558	0.572424	0.326729
	O321	O	0.214912	1.002835	0.786114
	H322	H	0.223860	0.967451	0.779524
	H323	H	0.226671	0.985859	0.775204
	O324	O	0.872384	0.947885	0.056777
	H325	H	0.864686	0.937495	0.058687
	H326	H	0.868057	0.935541	0.070048
	O327	O	-0.008469	-0.106536	1.140645
	H328	H	-0.024347	-0.102412	1.146241
	H329	H	-0.002768	-0.106368	1.150699
	O330	O	0.454846	0.581751	0.721612
	H331	H	0.458534	0.581851	0.722658
	H332	H	0.476986	0.555971	0.716586
	O333	O	0.519565	0.682392	0.399963
	H334	H	0.506070	0.671679	0.390536
	H335	H	0.525545	0.690392	0.394368
	O336	O	0.238549	0.268258	0.244828
	H337	H	0.239680	0.267078	0.249147
	H338	H	0.236620	0.285117	0.236593
	O339	O	0.879870	-0.123496	0.939929
	H340	H	0.892592	-0.115114	0.934242
	H341	H	0.890329	-0.133586	0.930155
	O342	O	-0.198554	-0.169797	0.204647
	H343	H	-0.172833	-0.177946	0.186260
	H344	H	-0.222595	-0.175124	0.229693
	O345	O	-0.201245	1.048090	0.799599
	H346	H	-0.220862	1.065784	0.791224
	H347	H	-0.187685	1.053321	0.798820
	O348	O	1.006282	0.039343	1.216647
	H349	H	1.000128	0.034125	1.218593
	H350	H	0.997405	0.050739	1.213167
	O351	O	0.547075	0.543268	0.495235
	H352	H	0.544880	0.550711	0.481255
	H353	H	0.549420	0.540765	0.502907
	O354	O	-0.290572	-0.262957	0.714497
	H355	H	-0.277243	-0.244976	0.721975
	H356	H	-0.332515	-0.249719	0.725497
	O357	O	0.330646	0.693637	0.698752
	H358	H	0.333361	0.677387	0.689604
	H359	H	0.349559	0.675406	0.685805
	O360	O	0.472946	-0.252092	1.286150
	H361	H	0.474914	-0.235667	1.262265
	H362	H	0.466274	-0.252340	1.299359
	O363	O	0.038666	0.238367	0.209951
	H364	H	0.052326	0.239506	0.213899
	H365	H	0.051379	0.243891	0.214888
	O366	O	0.608751	0.718408	0.538754
	H367	H	0.626198	0.736668	0.550593
	H368	H	0.592374	0.713737	0.523660
	O369	O	0.751244	0.195467	0.172799
	H370	H	0.734485	0.188822	0.181678
	H371	H	0.756016	0.192413	0.148686
	O372	O	0.846692	1.010919	-0.022830
	H373	H	0.839815	1.010053	-0.019310
	H374	H	0.855997	1.014261	-0.032999
	O375	O	1.217419	0.009155	0.111365
	H376	H	1.222321	-0.009594	0.102676
	H377	H	1.215188	0.009898	0.125849
	O378	O	0.282093	0.736128	0.479305
	H379	H	0.271879	0.744814	0.487548
	H380	H	0.284526	0.740749	0.484046
	O381	O	0.507253	0.470890	0.521634
	H382	H	0.511690	0.467329	0.512022
	H383	H	0.497276	0.460963	0.511279
	O384	O	1.002708	-0.041302	1.039426
	H385	H	1.011832	-0.047883	1.055219
	H386	H	0.999141	-0.038581	1.041866
	O387	O	0.971533	1.215349	0.021578
	H388	H	0.973094	1.210055	0.038749
	H389	H	0.969422	1.213874	0.027879
	O390	O	0.456836	0.702308	0.543857
	H391	H	0.466964	0.694886	0.545103
	H392	H	0.461784	0.696345	0.553635
	O393	O	0.693010	0.304619	0.486322
	H394	H	0.706907	0.301540	0.498699
	H395	H	0.697080	0.314639	0.491427
	O396	O	-0.097813	1.032785	1.200156
	H397	H	-0.093718	1.019065	1.205647
	H398	H	-0.086475	1.025767	1.206789
	O399	O	-0.093232	0.237485	0.968275
	H400	H	-0.102592	0.246647	0.965936
	H401	H	-0.106006	0.237874	0.956952
	O402	O	0.279665	0.595729	0.562315
	H403	H	0.272955	0.601430	0.539429
	H404	H	0.283977	0.574437	0.542325
	O405	O	1.527863	-0.687287	1.286614
	H406	H	1.527624	-0.704119	1.287202
	H407	H	1.525164	-0.700444	1.292625
	O408	O	-0.275030	-0.451830	-0.273295
	H409	H	-0.270279	-0.423788	-0.273436
	H410	H	-0.256426	-0.426509	-0.257583
	O411	O	0.286159	0.312081	0.715818
	H412	H	0.284364	0.352945	0.715437
	H413	H	0.252764	0.284566	0.750775
	O414	O	0.306198	0.397309	0.307477
	H415	H	0.322578	0.400542	0.312340
	H416	H	0.308591	0.400605	0.307747
	O417	O	-0.149135	-0.118236	-0.131166
	H418	H	-0.134107	-0.111346	-0.118853
	H419	H	-0.135231	-0.096941	-0.129687
	O420	O	0.423299	0.476861	0.289363
	H421	H	0.426753	0.462078	0.290311
	H422	H	0.438456	0.487753	0.284133
	O423	O	0.031036	-0.184088	0.791543
	H424	H	0.035706	-0.188680	0.790190
	H425	H	0.032374	-0.190973	0.780860
	O426	O	0.422949	0.343878	0.480336
	H427	H	0.427056	0.343006	0.495693
	H428	H	0.419322	0.343464	0.495460
	O429	O	0.781487	0.810957	1.040501
	H430	H	0.782993	0.821904	1.053831
	H431	H	0.761844	0.783195	1.036594
	O432	O	0.290415	0.467167	0.481807
	H433	H	0.294767	0.454827	0.467474
	H434	H	0.286133	0.459229	0.476951
	O435	O	-0.175287	1.208719	0.062424
	H436	H	-0.165093	1.200810	0.065173
	H437	H	-0.166035	1.218453	0.068947
	O438	O	0.210066	-0.187008	-0.032243
	H439	H	0.215710	-0.201880	-0.028586
	H440	H	0.201263	-0.197754	-0.025495
	O441	O	0.184352	-0.782744	-0.178283
	H442	H	0.159951	-0.794527	-0.160744
	H443	H	0.176371	-0.803094	-0.154250
	O444	O	0.720859	0.749639	-0.473409
	H445	H	0.723491	0.750984	-0.449653
	H446	H	0.738877	0.764506	-0.465087
	O447	O	0.538454	0.754739	0.726747
	H448	H	0.525961	0.752413	0.730456
	H449	H	0.527647	0.759989	0.752159
	O450	O	0.205484	0.820295	0.794812
	H451	H	0.204424	0.804253	0.788457
	H452	H	0.210795	0.806906	0.810107
	O453	O	0.515489	0.299420	0.561381
	H454	H	0.520553	0.299986	0.574250
	H455	H	0.516097	0.297335	0.572379
	O456	O	0.280870	0.304150	0.539290
	H457	H	0.265273	0.288838	0.556544
	H458	H	0.268955	0.297083	0.552271
	O459	O	0.895103	0.963453	0.207142
	H460	H	0.880533	0.956714	0.208353
	H461	H	0.878044	0.955230	0.209461
	O462	O	0.690811	0.339826	-0.309737
	H463	H	0.670601	0.339364	-0.319114
	H464	H	0.681833	0.361623	-0.320394
	O465	O	0.801599	0.223341	-0.197242
	H466	H	0.823381	0.225954	-0.177540
	H467	H	0.779237	0.232676	-0.215701
	O468	O	0.653149	0.725951	0.350138
	H469	H	0.634069	0.711546	0.367022
	H470	H	0.656770	0.704342	0.362405
	O471	O	0.971831	0.235898	0.796125
	H472	H	0.975503	0.240182	0.788928
	H473	H	0.956998	0.241379	0.790668
	O474	O	0.168801	0.882324	0.204471
	H475	H	0.186651	0.883023	0.216588
	H476	H	0.156936	0.884915	0.207173
	O477	O	1.031455	1.042549	2.024556
	H478	H	1.029114	1.044457	2.033414
	H479	H	1.033854	1.052654	2.016785
	O480	O	0.722511	0.519199	0.516510
	H481	H	0.724569	0.518164	0.524456
	H482	H	0.725871	0.524233	0.531389
	O483	O	0.493085	0.345792	0.736393
	H484	H	0.490417	0.321228	0.760816
	H485	H	0.468069	0.352968	0.735657
	O486	O	1.076266	-0.169779	1.120216
	H487	H	1.081770	-0.171485	1.123754
	H488	H	1.068134	-0.152495	1.128260
	O489	O	1.202270	1.040727	-0.051899
	H490	H	1.182966	1.031815	-0.039527
	H491	H	1.208196	1.012218	-0.069591
