data_Molecule from HDF5

_cell_length_a		16.267396
_cell_length_b		16.348455
_cell_length_c		16.269109
_cell_angle_alpha	89.903147
_cell_angle_beta	89.986844
_cell_angle_gamma	89.815139
_symmetry_space_group_name_H-M	'P 1'
_symmetry_Int_Tables_number		1

loop_
	_symmetry_equiv_pos_as_xyz
	x,y,z

loop_
	_atom_site_label
	_atom_site_type_symbol
	_atom_site_fract_x
	_atom_site_fract_y
	_atom_site_fract_z
	H0	H	0.397796	0.838253	0.717131
	H1	H	0.595649	0.163986	0.717288
	H2	H	0.598255	0.839025	0.286363
	H3	H	0.397910	0.163705	0.285596
	H4	H	0.711700	0.401561	0.837430
	H5	H	0.712222	0.597152	0.165024
	H6	H	0.282931	0.600313	0.837399
	H7	H	0.282710	0.400481	0.164805
	H8	H	0.833798	0.717450	0.402191
	H9	H	0.160623	0.716914	0.600891
	H10	H	0.833721	0.288586	0.600263
	H11	H	0.159764	0.285496	0.399715
	H12	H	0.833435	0.404722	0.714495
	H13	H	0.161107	0.599975	0.716087
	H14	H	0.833483	0.601517	0.286277
	H15	H	0.161011	0.403445	0.286959
	H16	H	0.397230	0.717560	0.838809
	H17	H	0.597832	0.714910	0.164743
	H18	H	0.598241	0.284192	0.839137
	H19	H	0.399490	0.285444	0.164933
	H20	H	0.714554	0.839290	0.403057
	H21	H	0.710613	0.165113	0.599759
	H22	H	0.280905	0.839444	0.601919
	H23	H	0.281924	0.163773	0.400551
	H24	H	0.898444	0.339302	0.218022
	H25	H	0.097079	0.663434	0.216076
	H26	H	0.098097	0.338240	0.784230
	H27	H	0.897794	0.663749	0.787065
	H28	H	0.212899	0.902397	0.337761
	H29	H	0.212560	0.101138	0.664516
	H30	H	0.783000	0.101333	0.337767
	H31	H	0.783436	0.904099	0.665093
	H32	H	0.335319	0.217880	0.900609
	H33	H	0.660962	0.214328	0.100423
	H34	H	0.334587	0.783883	0.102429
	H35	H	0.660911	0.786170	0.903174
	H36	H	0.333631	0.902043	0.216423
	H37	H	0.661691	0.096873	0.213541
	H38	H	0.334752	0.100892	0.786094
	H39	H	0.660846	0.900976	0.787067
	H40	H	0.897211	0.218451	0.337691
	H41	H	0.096239	0.217034	0.664587
	H42	H	0.099456	0.785073	0.338720
	H43	H	0.897493	0.786442	0.663872
	H44	H	0.212673	0.337309	0.901884
	H45	H	0.213974	0.662828	0.100068
	H46	H	0.785271	0.337072	0.100653
	H47	H	0.782286	0.662528	0.902955
	H48	H	0.402125	0.118461	0.598886
	H49	H	0.591826	0.886335	0.590497
	H50	H	0.596927	0.118141	0.414765
	H51	H	0.409671	0.884729	0.401518
	H52	H	0.592093	0.411463	0.117251
	H53	H	0.592598	0.591335	0.885467
	H54	H	0.410692	0.599452	0.117783
	H55	H	0.410088	0.403256	0.884483
	H56	H	0.113175	0.595591	0.412215
	H57	H	0.881460	0.594074	0.595581
	H58	H	0.114277	0.410742	0.596919
	H59	H	0.882928	0.420543	0.405010
	H60	H	0.114693	0.405397	0.593186
	H61	H	0.879377	0.597610	0.595086
	H62	H	0.112375	0.590753	0.408010
	H63	H	0.876420	0.403101	0.402275
	H64	H	0.398129	0.590951	0.118798
	H65	H	0.587526	0.592974	0.885122
	H66	H	0.588131	0.403984	0.118590
	H67	H	0.400033	0.406888	0.882682
	H68	H	0.594155	0.121518	0.397525
	H69	H	0.593901	0.884504	0.595974
	H70	H	0.411789	0.114441	0.593785
	H71	H	0.411176	0.889997	0.417380
	H72	H	0.907946	0.616506	0.096609
	H73	H	0.090022	0.384913	0.095263
	H74	H	0.099451	0.617912	0.910686
	H75	H	0.905518	0.384080	0.908815
	H76	H	0.089136	0.908968	0.617471
	H77	H	0.094762	0.100036	0.381738
	H78	H	0.910789	0.090661	0.614599
	H79	H	0.908322	0.922907	0.389527
	H80	H	0.614120	0.095180	0.913142
	H81	H	0.381146	0.094514	0.091671
	H82	H	0.613360	0.910798	0.096609
	H83	H	0.379661	0.907016	0.904837
	H84	H	0.615630	0.903128	0.096947
	H85	H	0.381585	0.092405	0.093656
	H86	H	0.612033	0.087736	0.909591
	H87	H	0.380602	0.904846	0.914738
	H88	H	0.907377	0.105168	0.620278
	H89	H	0.091749	0.087790	0.385966
	H90	H	0.089009	0.909807	0.616895
	H91	H	0.915750	0.902032	0.385172
	H92	H	0.086730	0.617367	0.900310
	H93	H	0.089484	0.385774	0.094088
	H94	H	0.904943	0.614996	0.088956
	H95	H	0.903448	0.382837	0.905532
	H96	H	0.402778	0.115683	0.588185
	H97	H	0.587291	0.886576	0.594980
	H98	H	0.581286	0.114781	0.407954
	H99	H	0.396690	0.883083	0.411539
	H100	H	0.596492	0.405001	0.120076
	H101	H	0.591559	0.596481	0.883603
	H102	H	0.411039	0.584822	0.113280
	H103	H	0.407324	0.413265	0.887083
	H104	H	0.115038	0.595998	0.406298
	H105	H	0.881953	0.595504	0.592437
	H106	H	0.113098	0.410931	0.590359
	H107	H	0.883029	0.407684	0.419608
	H108	H	0.900483	0.618295	0.094008
	H109	H	0.091982	0.384475	0.094084
	H110	H	0.084829	0.612711	0.915492
	H111	H	0.907255	0.384029	0.905792
	H112	H	0.089132	0.909256	0.617287
	H113	H	0.083035	0.097530	0.386728
	H114	H	0.895780	0.094249	0.619555
	H115	H	0.894142	0.907267	0.380966
	H116	H	0.615729	0.094111	0.905321
	H117	H	0.380652	0.094818	0.094206
	H118	H	0.612950	0.905429	0.089898
	H119	H	0.383103	0.914539	0.910999
	C120	C	0.375830	0.009633	0.623151
	C121	C	0.619161	0.993376	0.623004
	C122	C	0.620014	0.010326	0.378861
	C123	C	0.376138	0.993143	0.380135
	C124	C	0.620290	0.378204	0.010287
	C125	C	0.619562	0.621884	0.992886
	C126	C	0.376746	0.621504	0.009243
	C127	C	0.376759	0.378945	0.992991
	C128	C	0.005587	0.623756	0.379547
	C129	C	0.988782	0.623919	0.623200
	C130	C	0.005547	0.380802	0.621993
	C131	C	0.988894	0.381249	0.379972
	C132	C	0.875908	0.509147	0.122718
	C133	C	0.119564	0.492431	0.123012
	C134	C	0.119325	0.508632	0.879376
	C135	C	0.876271	0.491562	0.878983
	C136	C	0.119174	0.880126	0.509650
	C137	C	0.119122	0.124033	0.492834
	C138	C	0.875552	0.124613	0.509829
	C139	C	0.876551	0.881679	0.492943
	C140	C	0.506660	0.122212	0.879862
	C141	C	0.488909	0.121953	0.122404
	C142	C	0.505908	0.878116	0.123689
	C143	C	0.489029	0.879410	0.880476
	C144	C	0.377321	0.887253	0.679375
	C145	C	0.615991	0.115540	0.678848
	C146	C	0.618156	0.887540	0.324669
	C147	C	0.377727	0.115273	0.323598
	C148	C	0.674468	0.381140	0.886750
	C149	C	0.674592	0.618561	0.116150
	C150	C	0.320707	0.620130	0.886574
	C151	C	0.321053	0.380811	0.115909
	C152	C	0.882493	0.679596	0.381684
	C153	C	0.111974	0.678817	0.620911
	C154	C	0.882917	0.325741	0.620304
	C155	C	0.111314	0.324663	0.380674
	C156	C	0.882374	0.383870	0.676829
	C157	C	0.112208	0.620608	0.678112
	C158	C	0.882412	0.621887	0.324028
	C159	C	0.111925	0.383113	0.324379
	C160	C	0.377688	0.678452	0.887097
	C161	C	0.617540	0.676948	0.115858
	C162	C	0.618095	0.322731	0.887558
	C163	C	0.378778	0.323470	0.116072
	C164	C	0.676289	0.887986	0.382286
	C165	C	0.673333	0.116258	0.620613
	C166	C	0.319223	0.887703	0.622060
	C167	C	0.320300	0.115326	0.381055
	C168	C	0.878407	0.387221	0.179213
	C169	C	0.117392	0.614964	0.178040
	C170	C	0.117560	0.386486	0.823291
	C171	C	0.877791	0.614729	0.824708
	C172	C	0.175099	0.882242	0.386781
	C173	C	0.174379	0.121375	0.615813
	C174	C	0.820640	0.121981	0.386725
	C175	C	0.821681	0.884098	0.616234
	C176	C	0.383844	0.178942	0.881077
	C177	C	0.612138	0.176616	0.120622
	C178	C	0.383439	0.821910	0.122475
	C179	C	0.611956	0.823718	0.882466
	C180	C	0.382642	0.880906	0.178822
	C181	C	0.612533	0.118005	0.176717
	C182	C	0.383561	0.120853	0.824144
	C183	C	0.612160	0.881360	0.825262
	C184	C	0.877182	0.180367	0.386853
	C185	C	0.117161	0.179470	0.615574
	C186	C	0.118688	0.823817	0.387194
	C187	C	0.878005	0.825210	0.615452
	C188	C	0.175056	0.386265	0.881154
	C189	C	0.175401	0.614596	0.120264
	C190	C	0.822190	0.386221	0.120746
	C191	C	0.819956	0.613893	0.881711
	C192	C	0.398716	0.094344	0.600327
	C193	C	0.597570	0.907838	0.600322
	C194	C	0.597474	0.096120	0.400340
	C195	C	0.399154	0.908131	0.403296
	C196	C	0.598386	0.400194	0.096503
	C197	C	0.597182	0.600063	0.906890
	C198	C	0.399707	0.598291	0.094644
	C199	C	0.399291	0.401084	0.907060
	C200	C	0.091266	0.600839	0.402114
	C201	C	0.903091	0.602329	0.600974
	C202	C	0.091933	0.402624	0.599998
	C203	C	0.903001	0.403828	0.402415
	C204	C	0.897974	0.594577	0.099878
	C205	C	0.097015	0.407148	0.101102
	C206	C	0.096792	0.593930	0.902120
	C207	C	0.898781	0.405769	0.900383
	C208	C	0.095984	0.902789	0.595201
	C209	C	0.096543	0.101697	0.406973
	C210	C	0.897811	0.102917	0.595921
	C211	C	0.899453	0.904157	0.407297
	C212	C	0.591865	0.099262	0.902588
	C213	C	0.403250	0.100222	0.099975
	C214	C	0.591845	0.900058	0.101257
	C215	C	0.403309	0.902087	0.903266
	Zn216	Zn	0.497534	0.000487	0.752145
	Zn217	Zn	0.497044	0.000796	0.251283
	Zn218	Zn	0.748043	0.499600	0.001327
	Zn219	Zn	0.248259	0.499955	0.001005
	Zn220	Zn	-0.002194	0.752397	0.501037
	Zn221	Zn	-0.002574	0.252427	0.501095
	Zn222	Zn	-0.002344	0.501420	0.751085
	Zn223	Zn	-0.003203	0.501964	0.251420
	Zn224	Zn	0.497856	0.750565	0.001297
	Zn225	Zn	0.498222	0.250531	0.001514
	Zn226	Zn	0.748088	0.002867	0.501481
	Zn227	Zn	0.247106	0.001724	0.501147
	N228	N	0.411932	0.963916	0.680130
	N229	N	0.583104	0.037966	0.680433
	N230	N	0.583930	0.964519	0.322399
	N231	N	0.411790	0.038169	0.322907
	N232	N	0.675920	0.414868	0.964056
	N233	N	0.676070	0.584916	0.038762
	N234	N	0.320130	0.585300	0.963662
	N235	N	0.319704	0.414489	0.038410
	N236	N	0.960062	0.680963	0.415436
	N237	N	0.034341	0.681133	0.587502
	N238	N	0.960698	0.323990	0.586805
	N239	N	0.033865	0.323311	0.414468
	N240	N	0.959740	0.417366	0.678143
	N241	N	0.034628	0.587507	0.679865
	N242	N	0.959952	0.588003	0.322562
	N243	N	0.034777	0.417916	0.324033
	N244	N	0.411786	0.679391	0.964313
	N245	N	0.584160	0.678984	0.038084
	N246	N	0.585099	0.320775	0.965422
	N247	N	0.412861	0.322347	0.038622
	N248	N	0.677316	0.965515	0.415324
	N249	N	0.675274	0.039367	0.586486
	N250	N	0.318182	0.964660	0.587562
	N251	N	0.319196	0.038522	0.415593
	N252	N	0.911124	0.464653	0.180577
	N253	N	0.083248	0.538111	0.179784
	N254	N	0.083808	0.463822	0.821842
	N255	N	0.912153	0.537626	0.822880
	N256	N	0.175580	0.916563	0.464021
	N257	N	0.175827	0.087710	0.538378
	N258	N	0.819360	0.088235	0.464206
	N259	N	0.820683	0.918378	0.539119
	N260	N	0.461280	0.179920	0.915256
	N261	N	0.534441	0.179075	0.087551
	N262	N	0.460980	0.820479	0.088679
	N263	N	0.534516	0.822589	0.916326
	N264	N	0.459876	0.915008	0.179982
	N265	N	0.534874	0.084553	0.178004
	N266	N	0.460607	0.086278	0.823391
	N267	N	0.534672	0.915336	0.824030
	N268	N	0.911011	0.181856	0.464470
	N269	N	0.083585	0.181128	0.537940
	N270	N	0.084698	0.822349	0.464554
	N271	N	0.911584	0.823693	0.537666
	N272	N	0.176081	0.463119	0.915464
	N273	N	0.176947	0.537400	0.086881
	N274	N	0.820690	0.463027	0.086114
	N275	N	0.818972	0.536452	0.914859
	O276	O	0.449130	0.455140	0.468689
	H277	H	0.445886	0.453243	0.466261
	H278	H	0.440715	0.449048	0.466312
	O279	O	0.464657	0.519447	0.527654
	H280	H	0.456756	0.522420	0.525627
	H281	H	0.465403	0.527291	0.532126
	O282	O	0.502163	0.570831	0.451248
	H283	H	0.512261	0.572376	0.444250
	H284	H	0.496513	0.570091	0.449575
	O285	O	-0.023905	0.897510	0.971805
	H286	H	-0.018978	0.902481	0.976741
	H287	H	-0.020792	0.907861	0.973277
	O288	O	0.505873	0.453297	0.527001
	H289	H	0.510736	0.458698	0.537909
	H290	H	0.510683	0.457593	0.533994
	O291	O	0.030885	-0.027966	1.038859
	H292	H	0.034349	-0.040268	1.037073
	H293	H	0.024578	-0.028214	1.045828
	O294	O	0.461195	0.492547	0.432064
	H295	H	0.467035	0.490073	0.432356
	H296	H	0.466254	0.487136	0.439658
	O297	O	0.418326	0.505294	0.502172
	H298	H	0.420267	0.513150	0.493906
	H299	H	0.412647	0.498731	0.501636
	O300	O	0.484827	0.508720	0.474431
	H301	H	0.471830	0.505142	0.468837
	H302	H	0.477443	0.513317	0.472833
	O303	O	0.467212	0.476658	0.574488
	H304	H	0.453723	0.480050	0.573947
	H305	H	0.465141	0.482163	0.574733
	O306	O	1.020290	-0.060664	1.005547
	H307	H	1.016733	-0.060941	1.006421
	H308	H	1.014978	-0.061735	1.014713
	O309	O	0.448674	0.468002	0.446255
	H310	H	0.453196	0.470212	0.447921
	H311	H	0.442092	0.470963	0.445873
	O312	O	0.494373	0.495675	0.553488
	H313	H	0.496369	0.495956	0.556466
	H314	H	0.500677	0.493447	0.551218
	O315	O	0.963547	-0.036697	1.049698
	H316	H	0.952796	-0.033849	1.040803
	H317	H	0.956370	-0.044558	1.056553
	O318	O	-0.045185	-0.069680	0.041111
	H319	H	-0.038739	-0.073751	0.044779
	H320	H	-0.049614	-0.063322	0.034509
	O321	O	0.382852	0.582012	0.567319
	H322	H	0.379842	0.586730	0.564345
	H323	H	0.379283	0.582003	0.569287
	O324	O	0.952498	-0.017876	-0.009995
	H325	H	0.956303	-0.021339	-0.021563
	H326	H	0.953468	-0.011317	-0.012105
	O327	O	0.975286	0.983229	-0.002532
	H328	H	0.974288	0.990215	-0.006945
	H329	H	0.968233	0.989507	0.002678
	O330	O	1.007833	0.947998	-0.011024
	H331	H	1.015253	0.943996	-0.009524
	H332	H	1.011249	0.940321	-0.018906
	O333	O	0.451042	0.539828	0.447630
	H334	H	0.448552	0.535242	0.456637
	H335	H	0.459011	0.536502	0.435624
