data_Molecule from HDF5

_cell_length_a		16.450908
_cell_length_b		16.318709
_cell_length_c		16.430140
_cell_angle_alpha	90.224998
_cell_angle_beta	89.930056
_cell_angle_gamma	89.989852
_symmetry_space_group_name_H-M	'P 1'
_symmetry_Int_Tables_number		1

loop_
	_symmetry_equiv_pos_as_xyz
	x,y,z

loop_
	_atom_site_label
	_atom_site_type_symbol
	_atom_site_fract_x
	_atom_site_fract_y
	_atom_site_fract_z
	H0	H	0.392141	0.821831	0.711516
	H1	H	0.598943	0.142482	0.716111
	H2	H	0.597605	0.821967	0.275502
	H3	H	0.392705	0.144182	0.277413
	H4	H	0.713932	0.378932	0.835414
	H5	H	0.713752	0.590058	0.152709
	H6	H	0.271722	0.590315	0.835352
	H7	H	0.273149	0.381151	0.153800
	H8	H	0.834159	0.701315	0.393987
	H9	H	0.153788	0.703953	0.598651
	H10	H	0.834185	0.266529	0.593769
	H11	H	0.154428	0.264972	0.389514
	H12	H	0.835222	0.379897	0.713178
	H13	H	0.152383	0.590569	0.717477
	H14	H	0.833965	0.586225	0.275874
	H15	H	0.154043	0.380807	0.273490
	H16	H	0.390708	0.701448	0.833666
	H17	H	0.594859	0.703743	0.153418
	H18	H	0.593183	0.266322	0.834001
	H19	H	0.390455	0.266567	0.154695
	H20	H	0.712957	0.821812	0.392346
	H21	H	0.713221	0.144244	0.597972
	H22	H	0.274231	0.823160	0.598320
	H23	H	0.273851	0.142826	0.389900
	H24	H	0.890666	0.323092	0.212434
	H25	H	0.099427	0.643936	0.216498
	H26	H	0.098884	0.323560	0.773282
	H27	H	0.886146	0.641690	0.771248
	H28	H	0.217153	0.875364	0.336427
	H29	H	0.218437	0.093813	0.651147
	H30	H	0.774410	0.086994	0.335552
	H31	H	0.772647	0.876971	0.653190
	H32	H	0.334161	0.203638	0.890053
	H33	H	0.652204	0.205104	0.098908
	H34	H	0.334758	0.762624	0.099442
	H35	H	0.650229	0.760515	0.888026
	H36	H	0.335443	0.877920	0.216877
	H37	H	0.652507	0.090283	0.216234
	H38	H	0.337878	0.092153	0.769199
	H39	H	0.651397	0.874801	0.771994
	H40	H	0.893436	0.199875	0.332965
	H41	H	0.098892	0.206501	0.652336
	H42	H	0.100739	0.760123	0.336343
	H43	H	0.888853	0.762080	0.653171
	H44	H	0.213986	0.324010	0.888887
	H45	H	0.215861	0.644042	0.101574
	H46	H	0.773782	0.323964	0.098589
	H47	H	0.770866	0.641844	0.886837
	H48	H	0.407432	0.096412	0.583241
	H49	H	0.584751	0.870199	0.579726
	H50	H	0.589897	0.099214	0.405403
	H51	H	0.405840	0.869759	0.408221
	H52	H	0.587351	0.401824	0.106986
	H53	H	0.586533	0.566339	0.880791
	H54	H	0.409231	0.575632	0.105379
	H55	H	0.407527	0.398370	0.883845
	H56	H	0.110194	0.571847	0.397019
	H57	H	0.880049	0.576674	0.582682
	H58	H	0.107044	0.393390	0.580217
	H59	H	0.878502	0.385770	0.404105
	H60	H	0.106940	0.398464	0.583088
	H61	H	0.884691	0.569342	0.580245
	H62	H	0.106796	0.577250	0.409362
	H63	H	0.882985	0.396380	0.404782
	H64	H	0.399258	0.576599	0.109899
	H65	H	0.578856	0.571384	0.882867
	H66	H	0.576408	0.393383	0.106563
	H67	H	0.405658	0.387327	0.879000
	H68	H	0.583490	0.098823	0.400872
	H69	H	0.587698	0.866754	0.584449
	H70	H	0.407715	0.095264	0.581370
	H71	H	0.403664	0.867618	0.404158
	H72	H	0.895458	0.599806	0.080017
	H73	H	0.085670	0.370160	0.083550
	H74	H	0.084638	0.598153	0.907044
	H75	H	0.901522	0.367280	0.902065
	H76	H	0.081509	0.893873	0.606470
	H77	H	0.088498	0.073175	0.379232
	H78	H	0.906013	0.069580	0.605711
	H79	H	0.896059	0.897575	0.379908
	H80	H	0.607016	0.070444	0.902157
	H81	H	0.379469	0.074409	0.088032
	H82	H	0.604714	0.897529	0.082182
	H83	H	0.378594	0.896363	0.896795
	H84	H	0.607270	0.894541	0.087591
	H85	H	0.380426	0.074740	0.084570
	H86	H	0.607997	0.076712	0.904731
	H87	H	0.378007	0.888005	0.905618
	H88	H	0.907818	0.079021	0.608372
	H89	H	0.084307	0.067840	0.383428
	H90	H	0.086176	0.894678	0.608223
	H91	H	0.911962	0.899159	0.385834
	H92	H	0.080368	0.597098	0.903569
	H93	H	0.082735	0.369629	0.084860
	H94	H	0.905613	0.600736	0.093338
	H95	H	0.910830	0.371044	0.903316
	H96	H	0.406295	0.096917	0.581849
	H97	H	0.582120	0.869674	0.585199
	H98	H	0.582917	0.095844	0.408113
	H99	H	0.408326	0.870020	0.403635
	H100	H	0.588499	0.389035	0.112124
	H101	H	0.585765	0.575994	0.878439
	H102	H	0.402387	0.566742	0.105008
	H103	H	0.396376	0.395676	0.879292
	H104	H	0.103529	0.564577	0.405994
	H105	H	0.880116	0.569890	0.588620
	H106	H	0.108785	0.393846	0.586148
	H107	H	0.878821	0.392190	0.395141
	H108	H	0.910961	0.593918	0.079232
	H109	H	0.083024	0.370873	0.082309
	H110	H	0.079863	0.596079	0.908717
	H111	H	0.904534	0.372210	0.911142
	H112	H	0.083562	0.898520	0.606826
	H113	H	0.081331	0.074316	0.380486
	H114	H	0.899161	0.074749	0.610110
	H115	H	0.906639	0.884051	0.379246
	H116	H	0.605091	0.072250	0.908691
	H117	H	0.380687	0.070657	0.086310
	H118	H	0.606772	0.891402	0.081478
	H119	H	0.382554	0.899773	0.907703
	C120	C	0.374422	-0.009048	0.614557
	C121	C	0.616365	0.974457	0.615856
	C122	C	0.616301	-0.008390	0.373483
	C123	C	0.374057	0.974797	0.373771
	C124	C	0.614933	0.362542	0.003023
	C125	C	0.614743	0.604596	0.985509
	C126	C	0.371593	0.605227	0.001814
	C127	C	0.371818	0.362692	0.986094
	C128	C	0.002070	0.603805	0.373234
	C129	C	0.986229	0.604888	0.616400
	C130	C	0.002469	0.363019	0.613948
	C131	C	0.985854	0.361193	0.370361
	C132	C	0.872638	0.492425	0.115242
	C133	C	0.115468	0.476096	0.115705
	C134	C	0.114822	0.491886	0.873141
	C135	C	0.872221	0.474719	0.872860
	C136	C	0.115794	0.862126	0.502479
	C137	C	0.116944	0.105793	0.485199
	C138	C	0.873425	0.104804	0.502537
	C139	C	0.872699	0.861585	0.486559
	C140	C	0.502134	0.105177	0.872742
	C141	C	0.485282	0.105654	0.117314
	C142	C	0.501762	0.862055	0.115885
	C143	C	0.484504	0.862023	0.872309
	C144	C	0.373094	0.870347	0.673035
	C145	C	0.617744	0.094878	0.675972
	C146	C	0.616643	0.870435	0.314793
	C147	C	0.373435	0.095828	0.315860
	C148	C	0.673805	0.360309	0.883070
	C149	C	0.673800	0.607888	0.105298
	C150	C	0.311992	0.607399	0.882741
	C151	C	0.312956	0.362236	0.105999
	C152	C	0.882114	0.662646	0.373412
	C153	C	0.105910	0.664574	0.617486
	C154	C	0.882312	0.305032	0.613709
	C155	C	0.106487	0.304049	0.370706
	C156	C	0.882724	0.361568	0.672970
	C157	C	0.105159	0.608162	0.676901
	C158	C	0.881861	0.605451	0.314934
	C159	C	0.106326	0.361619	0.312739
	C160	C	0.370893	0.663702	0.882105
	C161	C	0.614705	0.664235	0.105582
	C162	C	0.614006	0.304263	0.882455
	C163	C	0.371385	0.305161	0.106474
	C164	C	0.674021	0.870209	0.373027
	C165	C	0.674546	0.095591	0.617210
	C166	C	0.314429	0.870847	0.616597
	C167	C	0.314261	0.095062	0.371780
	C168	C	0.871784	0.371479	0.173484
	C169	C	0.117721	0.596125	0.176304
	C170	C	0.117341	0.371778	0.812723
	C171	C	0.868859	0.594012	0.811673
	C172	C	0.176506	0.858191	0.383852
	C173	C	0.177446	0.110260	0.604089
	C174	C	0.814182	0.105721	0.382837
	C175	C	0.812809	0.859423	0.605777
	C176	C	0.382694	0.164712	0.871010
	C177	C	0.604483	0.165876	0.118467
	C178	C	0.382531	0.802094	0.118245
	C179	C	0.603345	0.801238	0.870438
	C180	C	0.383022	0.859397	0.176879
	C181	C	0.604675	0.108326	0.176388
	C182	C	0.384132	0.108658	0.811008
	C183	C	0.603732	0.858081	0.812279
	C184	C	0.873673	0.161624	0.381479
	C185	C	0.118506	0.166942	0.604380
	C186	C	0.118592	0.800598	0.383842
	C187	C	0.870695	0.802032	0.605735
	C188	C	0.174489	0.371822	0.870633
	C189	C	0.175691	0.596016	0.118911
	C190	C	0.813282	0.372005	0.116887
	C191	C	0.811246	0.594107	0.869410
	C192	C	0.399740	0.074453	0.589431
	C193	C	0.591823	0.890671	0.590657
	C194	C	0.592419	0.075880	0.397784
	C195	C	0.398566	0.891059	0.398433
	C196	C	0.591081	0.387628	0.086718
	C197	C	0.590688	0.578839	0.902381
	C198	C	0.396250	0.580226	0.085296
	C199	C	0.396069	0.386859	0.902392
	C200	C	0.085268	0.578604	0.397135
	C201	C	0.903222	0.579393	0.591303
	C202	C	0.086049	0.388117	0.590037
	C203	C	0.902077	0.384715	0.394184
	C204	C	0.897051	0.576278	0.091101
	C205	C	0.090890	0.392235	0.090818
	C206	C	0.088985	0.575262	0.899103
	C207	C	0.898300	0.391811	0.898438
	C208	C	0.090762	0.888231	0.585409
	C209	C	0.092118	0.079304	0.402588
	C210	C	0.897321	0.081297	0.586138
	C211	C	0.897718	0.886573	0.403183
	C212	C	0.585182	0.080241	0.897922
	C213	C	0.401944	0.080425	0.093159
	C214	C	0.584539	0.887183	0.090890
	C215	C	0.401342	0.887386	0.896642
	Zn216	Zn	0.494380	-0.017412	0.743877
	Zn217	Zn	0.494665	-0.016421	0.245156
	Zn218	Zn	0.744130	0.483756	-0.005730
	Zn219	Zn	0.242998	0.484136	-0.006208
	Zn220	Zn	-0.005844	0.733224	0.494783
	Zn221	Zn	-0.005468	0.233498	0.492866
	Zn222	Zn	-0.006011	0.482597	0.744712
	Zn223	Zn	-0.006432	0.483857	0.243105
	Zn224	Zn	0.492757	0.733562	-0.006972
	Zn225	Zn	0.493141	0.233707	-0.004661
	Zn226	Zn	0.744938	-0.016806	0.494672
	Zn227	Zn	0.244820	-0.016692	0.494473
	N228	N	0.409343	0.946175	0.672022
	N229	N	0.582597	0.018438	0.675442
	N230	N	0.581779	0.947058	0.314660
	N231	N	0.409846	0.020070	0.316863
	N232	N	0.674502	0.395675	0.959057
	N233	N	0.673951	0.571436	0.029694
	N234	N	0.312149	0.572085	0.958422
	N235	N	0.313037	0.397236	0.030011
	N236	N	0.957777	0.661953	0.408830
	N237	N	0.030774	0.662688	0.580793
	N238	N	0.957831	0.305858	0.577747
	N239	N	0.030436	0.303483	0.405566
	N240	N	0.958573	0.396793	0.673181
	N241	N	0.029763	0.571979	0.676442
	N242	N	0.957466	0.569615	0.314645
	N243	N	0.030335	0.396395	0.312313
	N244	N	0.407239	0.662319	0.957419
	N245	N	0.578589	0.662248	0.030237
	N246	N	0.578387	0.305271	0.958226
	N247	N	0.407159	0.305209	0.030863
	N248	N	0.674184	0.946611	0.408439
	N249	N	0.673993	0.019578	0.580853
	N250	N	0.314783	0.947097	0.581212
	N251	N	0.314568	0.018916	0.407191
	N252	N	0.908169	0.447248	0.172535
	N253	N	0.080887	0.520603	0.174372
	N254	N	0.080933	0.447627	0.814025
	N255	N	0.906344	0.518878	0.813776
	N256	N	0.175027	0.895736	0.458711
	N257	N	0.176734	0.072914	0.528913
	N258	N	0.813898	0.070973	0.458859
	N259	N	0.814218	0.896110	0.530601
	N260	N	0.457193	0.162661	0.908936
	N261	N	0.529216	0.164235	0.082291
	N262	N	0.457232	0.803616	0.080852
	N263	N	0.528448	0.803620	0.907147
	N264	N	0.458205	0.896111	0.175580
	N265	N	0.529389	0.071695	0.175909
	N266	N	0.459372	0.072505	0.811830
	N267	N	0.528901	0.895491	0.813585
	N268	N	0.909709	0.161353	0.456967
	N269	N	0.081552	0.164185	0.529519
	N270	N	0.081157	0.803153	0.458625
	N271	N	0.907468	0.803587	0.530697
	N272	N	0.173060	0.447500	0.907392
	N273	N	0.174273	0.520434	0.081673
	N274	N	0.813649	0.448126	0.081398
	N275	N	0.813259	0.519100	0.906898
	O276	O	0.524803	0.488323	0.497491
	H277	H	0.527317	0.494674	0.503293
	H278	H	0.509707	0.491593	0.493544
	O279	O	0.507943	0.541201	0.527334
	H280	H	0.513067	0.549696	0.528978
	H281	H	0.499841	0.531241	0.526754
	O282	O	0.507417	0.316580	0.354901
	H283	H	0.523750	0.320725	0.363278
	H284	H	0.509809	0.311909	0.346133
	O285	O	1.211213	-0.033242	-0.222037
	H286	H	1.219682	-0.057184	-0.231364
	H287	H	1.215711	-0.051526	-0.232424
	O288	O	0.476500	0.402104	0.672809
	H289	H	0.471028	0.395806	0.664219
	H290	H	0.475006	0.385259	0.678049
	O291	O	0.334940	0.629004	0.541803
	H292	H	0.330658	0.616520	0.542747
	H293	H	0.334092	0.634012	0.530027
	O294	O	0.382685	0.348066	0.604657
	H295	H	0.392457	0.355687	0.607664
	H296	H	0.379005	0.342870	0.598329
	O297	O	1.179807	1.170585	1.167592
	H298	H	1.186901	1.182685	1.142366
	H299	H	1.180394	1.148100	1.160426
	O300	O	-0.351442	0.582009	-0.401020
	H301	H	-0.360814	0.579809	-0.396663
	H302	H	-0.338559	0.591887	-0.386352
	O303	O	0.587894	0.361208	0.434624
	H304	H	0.573749	0.368168	0.446413
	H305	H	0.587717	0.350369	0.433777
	O306	O	1.200786	0.013975	0.197973
	H307	H	1.202708	0.002559	0.211349
	H308	H	1.210230	0.027929	0.194688
	O309	O	0.516305	0.541620	0.427722
	H310	H	0.512612	0.531757	0.427948
	H311	H	0.522869	0.542288	0.426596
	O312	O	1.176431	0.931958	0.080782
	H313	H	1.175287	0.939547	0.069673
	H314	H	1.169077	0.930801	0.079947
	O315	O	1.323504	1.450978	0.524280
	H316	H	1.319434	1.446651	0.526227
	H317	H	1.329210	1.460840	0.517124
	O318	O	0.519769	0.446867	0.585303
	H319	H	0.518143	0.435425	0.582247
	H320	H	0.509556	0.445410	0.585691
	O321	O	0.873018	-0.034120	1.070969
	H322	H	0.871928	-0.033402	1.060773
	H323	H	0.892407	-0.035652	1.071553
	O324	O	-0.199459	0.145282	0.798829
	H325	H	-0.186332	0.150606	0.802690
	H326	H	-0.218269	0.131775	0.783621
	O327	O	0.401235	0.296643	0.492148
	H328	H	0.404653	0.311312	0.492366
	H329	H	0.398492	0.297446	0.478392
	O330	O	0.486282	0.626874	0.396339
	H331	H	0.485766	0.617368	0.400455
	H332	H	0.490895	0.626417	0.379848
	O333	O	0.823683	1.049684	1.101381
	H334	H	0.818222	1.037716	1.104846
	H335	H	0.814548	1.037606	1.083721
	O336	O	0.588579	0.499260	0.532057
	H337	H	0.579675	0.509367	0.536771
	H338	H	0.584927	0.497842	0.533172
	O339	O	0.843018	-0.196867	1.143116
	H340	H	0.842848	-0.185652	1.165239
	H341	H	0.836083	-0.223870	1.149151
	O342	O	-0.147731	0.964007	0.967688
	H343	H	-0.145929	0.985566	0.957350
	H344	H	-0.140332	0.966935	0.961812
	O345	O	-0.004216	0.977849	0.912390
	H346	H	0.000222	0.965130	0.928799
	H347	H	0.007747	0.992961	0.912472
	O348	O	0.717605	0.784335	0.800027
	H349	H	0.728154	0.790891	0.810163
	H350	H	0.716843	0.787987	0.813498
	O351	O	0.011660	0.088307	-0.015729
	H352	H	0.016496	0.089148	-0.015733
	H353	H	0.026926	0.078644	-0.008625
	O354	O	1.022822	0.783197	-0.144134
	H355	H	1.007734	0.778543	-0.151347
	H356	H	1.028025	0.792348	-0.128182
	O357	O	0.013931	0.842977	-0.221855
	H358	H	0.023404	0.821605	-0.232131
	H359	H	0.020870	0.848925	-0.212163
	O360	O	0.369277	0.548344	0.504563
	H361	H	0.362637	0.537249	0.499120
	H362	H	0.360960	0.550417	0.501514
	O363	O	0.401103	0.434854	0.318980
	H364	H	0.406435	0.426341	0.330886
	H365	H	0.403822	0.435701	0.316406
	O366	O	0.473332	0.401775	0.452489
	H367	H	0.470272	0.398139	0.455590
	H368	H	0.485901	0.394174	0.447845
	O369	O	0.027785	0.831350	0.102303
	H370	H	0.013225	0.827947	0.108926
	H371	H	0.014039	0.849560	0.092733
	O372	O	0.538704	0.470199	0.541112
	H373	H	0.548805	0.471104	0.545823
	H374	H	0.530489	0.483275	0.548321
	O375	O	0.574973	0.604954	0.440247
	H376	H	0.567321	0.602873	0.453233
	H377	H	0.576449	0.619655	0.440248
	O378	O	-0.165768	0.963263	0.142141
	H379	H	-0.155456	0.964188	0.142879
	H380	H	-0.170670	0.952622	0.158076
	O381	O	1.016538	0.190467	1.201308
	H382	H	1.040153	0.175824	1.189871
	H383	H	1.023756	0.221756	1.224725
	O384	O	0.576166	0.435427	0.627721
	H385	H	0.572883	0.431774	0.616105
	H386	H	0.575283	0.443916	0.620116
	O387	O	0.983557	0.985418	0.095000
	H388	H	0.977122	1.001668	0.105735
	H389	H	0.971556	0.992389	0.088612
	O390	O	0.629096	0.433713	0.380525
	H391	H	0.637516	0.426641	0.384644
	H392	H	0.627568	0.426757	0.375956
	O393	O	1.192744	0.177980	1.009029
	H394	H	1.193179	0.169804	0.990240
	H395	H	1.199453	0.190862	0.995256
	O396	O	-0.057605	0.886914	1.185795
	H397	H	-0.052429	0.887014	1.194550
	H398	H	-0.051277	0.890578	1.182506
	O399	O	0.006477	1.083750	0.783706
	H400	H	-0.012024	1.073206	0.779657
	H401	H	-0.005190	1.075160	0.768015
	O402	O	0.915685	-0.095062	0.826581
	H403	H	0.903938	-0.080696	0.838285
	H404	H	0.919947	-0.094951	0.832037
	O405	O	0.176750	-0.083971	-0.131231
	H406	H	0.179378	-0.097703	-0.105721
	H407	H	0.148115	-0.096577	-0.143447
	O408	O	1.402055	1.543917	1.441028
	H409	H	1.394142	1.547037	1.431115
	H410	H	1.394417	1.516407	1.446669
	O411	O	0.855209	1.240043	0.132421
	H412	H	0.866594	1.239521	0.123976
	H413	H	0.869051	1.240499	0.154347
	O414	O	-0.141512	0.035344	0.975325
	H415	H	-0.141309	0.048007	0.996604
	H416	H	-0.140939	0.034763	0.977830
	O417	O	-0.128108	-0.175388	1.036942
	H418	H	-0.128925	-0.186991	1.034723
	H419	H	-0.142056	-0.189463	1.032455
	O420	O	-0.117397	1.039733	-0.203637
	H421	H	-0.124613	1.021627	-0.217044
	H422	H	-0.138459	1.037285	-0.197152
	O423	O	0.897506	0.174942	-0.073819
	H424	H	0.872976	0.187958	-0.075042
	H425	H	0.891993	0.175405	-0.104672
	O426	O	0.108614	-0.017684	1.038913
	H427	H	0.099348	-0.000708	1.036428
	H428	H	0.115161	-0.020678	1.020417
	O429	O	1.197293	0.775164	0.977822
	H430	H	1.220453	0.761625	0.985511
	H431	H	1.181089	0.776876	0.994470
