data_Molecule from HDF5

_cell_length_a		16.307977
_cell_length_b		16.315736
_cell_length_c		16.331969
_cell_angle_alpha	89.955317
_cell_angle_beta	89.960367
_cell_angle_gamma	89.998527
_symmetry_space_group_name_H-M	'P 1'
_symmetry_Int_Tables_number		1

loop_
	_symmetry_equiv_pos_as_xyz
	x,y,z

loop_
	_atom_site_label
	_atom_site_type_symbol
	_atom_site_fract_x
	_atom_site_fract_y
	_atom_site_fract_z
	H0	H	0.405311	0.830610	0.708511
	H1	H	0.601892	0.157316	0.707291
	H2	H	0.602795	0.830277	0.278338
	H3	H	0.404940	0.157042	0.278751
	H4	H	0.717899	0.395445	0.830958
	H5	H	0.717361	0.592215	0.157409
	H6	H	0.289108	0.591877	0.830367
	H7	H	0.289453	0.396487	0.157160
	H8	H	0.840667	0.709244	0.394442
	H9	H	0.167166	0.706763	0.591048
	H10	H	0.840621	0.278628	0.591261
	H11	H	0.167516	0.279305	0.394657
	H12	H	0.840231	0.394639	0.708203
	H13	H	0.166262	0.592754	0.709355
	H14	H	0.840162	0.591494	0.279465
	H15	H	0.166823	0.394981	0.278423
	H16	H	0.404905	0.708842	0.830213
	H17	H	0.601537	0.709672	0.156670
	H18	H	0.600871	0.280186	0.830627
	H19	H	0.403673	0.277868	0.156312
	H20	H	0.717615	0.830176	0.396449
	H21	H	0.718115	0.157020	0.591114
	H22	H	0.289781	0.830326	0.591748
	H23	H	0.289430	0.157107	0.396029
	H24	H	0.904235	0.330203	0.208609
	H25	H	0.101816	0.656730	0.207955
	H26	H	0.102471	0.330533	0.777872
	H27	H	0.904221	0.656937	0.777845
	H28	H	0.218970	0.895800	0.330347
	H29	H	0.218702	0.092141	0.657101
	H30	H	0.789842	0.090492	0.330527
	H31	H	0.788292	0.893783	0.657480
	H32	H	0.339561	0.208212	0.895245
	H33	H	0.666627	0.208907	0.090970
	H34	H	0.339745	0.779131	0.093245
	H35	H	0.666540	0.779381	0.895328
	H36	H	0.340265	0.895816	0.209549
	H37	H	0.666906	0.094567	0.208513
	H38	H	0.340114	0.092974	0.778285
	H39	H	0.667355	0.896938	0.780320
	H40	H	0.905952	0.207602	0.330226
	H41	H	0.103717	0.208821	0.656673
	H42	H	0.102249	0.778570	0.330360
	H43	H	0.905355	0.778448	0.657381
	H44	H	0.218140	0.330066	0.894535
	H45	H	0.217687	0.657121	0.090996
	H46	H	0.788551	0.330429	0.091830
	H47	H	0.788147	0.657506	0.895137
	H48	H	0.409787	0.110780	0.588007
	H49	H	0.595285	0.877303	0.588369
	H50	H	0.594007	0.107818	0.404551
	H51	H	0.412579	0.879891	0.405041
	H52	H	0.605944	0.401473	0.112935
	H53	H	0.602557	0.590929	0.875203
	H54	H	0.413610	0.599233	0.111997
	H55	H	0.405357	0.401368	0.876912
	H56	H	0.120440	0.594486	0.406816
	H57	H	0.886964	0.586743	0.586612
	H58	H	0.120145	0.396569	0.582133
	H59	H	0.888460	0.403569	0.401537
	H60	H	0.116998	0.406852	0.584396
	H61	H	0.887450	0.586192	0.585936
	H62	H	0.115459	0.577496	0.405016
	H63	H	0.886470	0.399335	0.397387
	H64	H	0.398246	0.582302	0.111372
	H65	H	0.596071	0.579495	0.880520
	H66	H	0.591179	0.409303	0.105985
	H67	H	0.413495	0.404150	0.879463
	H68	H	0.601958	0.110508	0.400413
	H69	H	0.596517	0.878107	0.586431
	H70	H	0.411855	0.109780	0.586482
	H71	H	0.406852	0.876151	0.399979
	H72	H	0.907039	0.612657	0.094031
	H73	H	0.089669	0.377818	0.090895
	H74	H	0.096230	0.608933	0.902439
	H75	H	0.904503	0.377218	0.903709
	H76	H	0.100259	0.898360	0.610631
	H77	H	0.103564	0.087790	0.375626
	H78	H	0.910557	0.088383	0.610437
	H79	H	0.919726	0.902708	0.381395
	H80	H	0.619974	0.083002	0.893512
	H81	H	0.383639	0.088864	0.096413
	H82	H	0.617245	0.912942	0.090982
	H83	H	0.390447	0.905008	0.908311
	H84	H	0.623067	0.892840	0.090692
	H85	H	0.387257	0.093391	0.078843
	H86	H	0.621881	0.094985	0.899329
	H87	H	0.387406	0.905906	0.893407
	H88	H	0.909590	0.085337	0.609945
	H89	H	0.095368	0.080841	0.380374
	H90	H	0.097567	0.903958	0.608148
	H91	H	0.908982	0.891864	0.375579
	H92	H	0.098491	0.610475	0.899082
	H93	H	0.095109	0.380036	0.078651
	H94	H	0.917613	0.608018	0.087845
	H95	H	0.910101	0.376250	0.894798
	H96	H	0.409015	0.110036	0.585326
	H97	H	0.597814	0.876975	0.588106
	H98	H	0.594531	0.110014	0.395506
	H99	H	0.415039	0.877652	0.397051
	H100	H	0.590875	0.392153	0.110547
	H101	H	0.588972	0.591087	0.878847
	H102	H	0.419501	0.579160	0.103926
	H103	H	0.411891	0.395500	0.876900
	H104	H	0.122870	0.586427	0.390894
	H105	H	0.888005	0.586190	0.586906
	H106	H	0.122181	0.400722	0.592227
	H107	H	0.887719	0.397121	0.402990
	H108	H	0.906477	0.609089	0.081195
	H109	H	0.102672	0.375336	0.089093
	H110	H	0.094178	0.609102	0.898535
	H111	H	0.914638	0.380464	0.903705
	H112	H	0.093588	0.898254	0.609068
	H113	H	0.092608	0.092512	0.377951
	H114	H	0.912298	0.086338	0.609060
	H115	H	0.903921	0.907075	0.378621
	H116	H	0.616193	0.085529	0.906028
	H117	H	0.391048	0.076452	0.085014
	H118	H	0.614937	0.901544	0.073924
	H119	H	0.384731	0.893406	0.900463
	C120	C	0.381963	0.002224	0.615313
	C121	C	0.625064	0.985534	0.615335
	C122	C	0.625828	0.001873	0.371454
	C123	C	0.382461	0.985578	0.372012
	C124	C	0.624357	0.372627	0.001980
	C125	C	0.624585	0.615871	0.985587
	C126	C	0.381411	0.615593	0.001758
	C127	C	0.381548	0.371919	0.985340
	C128	C	0.011705	0.615006	0.372341
	C129	C	0.995127	0.614732	0.614989
	C130	C	0.012008	0.372261	0.615119
	C131	C	0.995641	0.371633	0.371984
	C132	C	0.881699	0.501848	0.115618
	C133	C	0.124663	0.485489	0.114633
	C134	C	0.124948	0.501609	0.871495
	C135	C	0.881388	0.485937	0.872165
	C136	C	0.125696	0.871792	0.501675
	C137	C	0.125682	0.115194	0.485541
	C138	C	0.882536	0.114793	0.501905
	C139	C	0.882270	0.871889	0.486299
	C140	C	0.511545	0.116364	0.871362
	C141	C	0.495149	0.115400	0.114797
	C142	C	0.511001	0.873094	0.115133
	C143	C	0.495328	0.872695	0.872080
	C144	C	0.384662	0.879373	0.670548
	C145	C	0.622435	0.108473	0.669585
	C146	C	0.622878	0.879068	0.316502
	C147	C	0.384774	0.108494	0.316884
	C148	C	0.679238	0.375484	0.879240
	C149	C	0.679607	0.612992	0.108611
	C150	C	0.326794	0.612796	0.879042
	C151	C	0.326559	0.374899	0.108256
	C152	C	0.889102	0.670524	0.374345
	C153	C	0.118186	0.669680	0.612352
	C154	C	0.889258	0.316804	0.612224
	C155	C	0.118600	0.317144	0.374643
	C156	C	0.888962	0.374455	0.669996
	C157	C	0.117792	0.612623	0.670519
	C158	C	0.888947	0.612150	0.317245
	C159	C	0.118387	0.374774	0.316999
	C160	C	0.384362	0.670736	0.878829
	C161	C	0.622205	0.671166	0.108424
	C162	C	0.621417	0.317908	0.879239
	C163	C	0.383560	0.316389	0.107966
	C164	C	0.680266	0.878844	0.374759
	C165	C	0.680037	0.108424	0.611876
	C166	C	0.327416	0.879128	0.612515
	C167	C	0.327386	0.108626	0.375073
	C168	C	0.883972	0.379143	0.170857
	C169	C	0.122663	0.608145	0.170022
	C170	C	0.122652	0.378969	0.816097
	C171	C	0.883598	0.608308	0.815989
	C172	C	0.180816	0.874617	0.378888
	C173	C	0.180949	0.112559	0.608303
	C174	C	0.827196	0.112210	0.379325
	C175	C	0.826553	0.873793	0.608759
	C176	C	0.388426	0.170706	0.874700
	C177	C	0.618041	0.171121	0.112170
	C178	C	0.388439	0.817481	0.113294
	C179	C	0.618041	0.817635	0.875041
	C180	C	0.388639	0.875216	0.171309
	C181	C	0.618117	0.113901	0.170280
	C182	C	0.388690	0.113427	0.816377
	C183	C	0.618271	0.875929	0.817723
	C184	C	0.885115	0.169993	0.379211
	C185	C	0.123831	0.170516	0.608255
	C186	C	0.122971	0.816538	0.379007
	C187	C	0.884209	0.816080	0.608656
	C188	C	0.179996	0.378824	0.874216
	C189	C	0.180038	0.608263	0.111984
	C190	C	0.826645	0.379087	0.112540
	C191	C	0.826278	0.608784	0.874408
	C192	C	0.403753	0.088042	0.593128
	C193	C	0.603006	0.899654	0.593811
	C194	C	0.603570	0.087396	0.393719
	C195	C	0.404726	0.899950	0.394331
	C196	C	0.602436	0.394659	0.087743
	C197	C	0.602369	0.593658	0.900276
	C198	C	0.403805	0.593476	0.087041
	C199	C	0.403625	0.393928	0.899695
	C200	C	0.097555	0.592776	0.394512
	C201	C	0.909613	0.592727	0.592990
	C202	C	0.097766	0.394982	0.593005
	C203	C	0.909600	0.393724	0.394148
	C204	C	0.903822	0.587682	0.093896
	C205	C	0.102360	0.399822	0.092609
	C206	C	0.102673	0.587326	0.893484
	C207	C	0.903215	0.400208	0.894410
	C208	C	0.103621	0.893872	0.587042
	C209	C	0.103810	0.093315	0.400141
	C210	C	0.904408	0.092953	0.587706
	C211	C	0.904466	0.894207	0.400644
	C212	C	0.597134	0.094494	0.893184
	C213	C	0.409525	0.092896	0.093053
	C214	C	0.596400	0.895669	0.091913
	C215	C	0.409502	0.894831	0.894219
	Zn216	Zn	0.503432	-0.005779	0.743235
	Zn217	Zn	0.503884	-0.005667	0.243388
	Zn218	Zn	0.752902	0.494072	-0.005983
	Zn219	Zn	0.253076	0.493364	-0.006941
	Zn220	Zn	0.003550	0.743261	0.494095
	Zn221	Zn	0.004396	0.243628	0.493802
	Zn222	Zn	0.003325	0.493484	0.743638
	Zn223	Zn	0.003667	0.493565	0.243767
	Zn224	Zn	0.502789	0.744296	-0.006226
	Zn225	Zn	0.503117	0.244006	-0.005857
	Zn226	Zn	0.753653	-0.006611	0.494209
	Zn227	Zn	0.254108	-0.006347	0.493646
	N228	N	0.417760	0.956975	0.672354
	N229	N	0.588978	0.031246	0.671695
	N230	N	0.589754	0.956722	0.314548
	N231	N	0.418307	0.031217	0.315151
	N232	N	0.681221	0.408650	0.956614
	N233	N	0.681249	0.579392	0.031319
	N234	N	0.324880	0.579316	0.956259
	N235	N	0.325239	0.408692	0.031034
	N236	N	0.966436	0.672370	0.407759
	N237	N	0.040828	0.671123	0.578573
	N238	N	0.966606	0.315451	0.578707
	N239	N	0.041104	0.315189	0.408217
	N240	N	0.966467	0.408153	0.671870
	N241	N	0.040534	0.579164	0.672230
	N242	N	0.966227	0.578224	0.316123
	N243	N	0.040850	0.407836	0.315261
	N244	N	0.417543	0.672789	0.956313
	N245	N	0.588816	0.673206	0.031094
	N246	N	0.587883	0.316295	0.956478
	N247	N	0.417025	0.314450	0.030633
	N248	N	0.682303	0.956089	0.408171
	N249	N	0.681795	0.030824	0.578879
	N250	N	0.325569	0.956398	0.578894
	N251	N	0.325837	0.031097	0.408696
	N252	N	0.917749	0.456469	0.172542
	N253	N	0.088906	0.530838	0.171874
	N254	N	0.088964	0.456255	0.814607
	N255	N	0.917250	0.530954	0.814666
	N256	N	0.182766	0.908089	0.456062
	N257	N	0.182087	0.078750	0.531153
	N258	N	0.825426	0.078729	0.456598
	N259	N	0.825064	0.907765	0.531590
	N260	N	0.465653	0.172250	0.908502
	N261	N	0.540825	0.172010	0.078420
	N262	N	0.465514	0.816168	0.078950
	N263	N	0.540370	0.815647	0.908216
	N264	N	0.465949	0.909001	0.172361
	N265	N	0.540776	0.079884	0.172007
	N266	N	0.466169	0.080415	0.814056
	N267	N	0.541104	0.909795	0.816189
	N268	N	0.918667	0.171828	0.456612
	N269	N	0.090195	0.172453	0.531152
	N270	N	0.089104	0.814894	0.456231
	N271	N	0.918202	0.814966	0.531577
	N272	N	0.181709	0.456150	0.907619
	N273	N	0.181195	0.530960	0.078135
	N274	N	0.825110	0.456374	0.079010
	N275	N	0.824726	0.531736	0.908554
	O276	O	0.969821	0.001347	1.037692
	H277	H	0.971339	-0.004816	1.042383
	H278	H	0.972509	0.002058	1.026757
	O279	O	-0.014072	0.963308	1.044800
	H280	H	-0.015145	0.977009	1.051522
	H281	H	-0.022048	0.957741	1.044266
	O282	O	1.007372	0.967178	0.012397
	H283	H	1.009653	0.962331	0.005149
	H284	H	1.015728	0.964318	0.015088
	O285	O	0.020867	0.958314	1.015099
	H286	H	0.012081	0.966612	1.015606
	H287	H	0.019538	0.948701	1.023870
