data_Molecule from HDF5

_cell_length_a		16.327904
_cell_length_b		16.237969
_cell_length_c		16.330958
_cell_angle_alpha	90.262959
_cell_angle_beta	89.803720
_cell_angle_gamma	90.156815
_symmetry_space_group_name_H-M	'P 1'
_symmetry_Int_Tables_number		1

loop_
	_symmetry_equiv_pos_as_xyz
	x,y,z

loop_
	_atom_site_label
	_atom_site_type_symbol
	_atom_site_fract_x
	_atom_site_fract_y
	_atom_site_fract_z
	H0	H	0.399442	0.835783	0.704599
	H1	H	0.602344	0.160321	0.708476
	H2	H	0.601095	0.833568	0.276062
	H3	H	0.404229	0.161325	0.277117
	H4	H	0.719381	0.394661	0.829832
	H5	H	0.717040	0.600001	0.154766
	H6	H	0.285249	0.596985	0.829721
	H7	H	0.282933	0.397679	0.154050
	H8	H	0.838230	0.714323	0.396571
	H9	H	0.165856	0.714988	0.591252
	H10	H	0.839454	0.283127	0.591838
	H11	H	0.165244	0.284406	0.390515
	H12	H	0.839196	0.399726	0.708256
	H13	H	0.164511	0.602092	0.708843
	H14	H	0.838808	0.601048	0.276296
	H15	H	0.165021	0.400679	0.274128
	H16	H	0.400624	0.712302	0.828613
	H17	H	0.599901	0.715174	0.154335
	H18	H	0.599457	0.281760	0.828303
	H19	H	0.399415	0.281725	0.155182
	H20	H	0.718269	0.834896	0.390149
	H21	H	0.716513	0.162453	0.590813
	H22	H	0.284692	0.836789	0.590448
	H23	H	0.288895	0.162570	0.392221
	H24	H	0.898962	0.336781	0.210307
	H25	H	0.100535	0.663639	0.205640
	H26	H	0.103295	0.336699	0.772660
	H27	H	0.901515	0.662799	0.778720
	H28	H	0.217767	0.898287	0.329583
	H29	H	0.220131	0.103482	0.652908
	H30	H	0.786554	0.099168	0.328671
	H31	H	0.783332	0.898608	0.652925
	H32	H	0.337503	0.211218	0.893771
	H33	H	0.663516	0.214871	0.091827
	H34	H	0.338083	0.782887	0.090082
	H35	H	0.664046	0.781596	0.890737
	H36	H	0.339906	0.894656	0.210148
	H37	H	0.663763	0.099197	0.208123
	H38	H	0.339268	0.098270	0.774058
	H39	H	0.663552	0.896147	0.772553
	H40	H	0.904748	0.213672	0.327208
	H41	H	0.102993	0.217569	0.653557
	H42	H	0.102063	0.782753	0.329933
	H43	H	0.901516	0.785242	0.655087
	H44	H	0.217671	0.335350	0.888972
	H45	H	0.217149	0.662365	0.091482
	H46	H	0.785363	0.335113	0.092450
	H47	H	0.784730	0.661105	0.892803
	H48	H	0.416259	0.115956	0.590633
	H49	H	0.586524	0.883979	0.579649
	H50	H	0.588879	0.114515	0.393331
	H51	H	0.417135	0.884584	0.401406
	H52	H	0.593012	0.410470	0.105233
	H53	H	0.592754	0.588149	0.876859
	H54	H	0.410851	0.587870	0.105738
	H55	H	0.404401	0.411294	0.877033
	H56	H	0.114753	0.586317	0.399275
	H57	H	0.886652	0.594346	0.583846
	H58	H	0.117617	0.415636	0.591028
	H59	H	0.885072	0.412057	0.390307
	H60	H	0.119829	0.399987	0.585039
	H61	H	0.887269	0.589007	0.586839
	H62	H	0.119409	0.594152	0.393606
	H63	H	0.885919	0.397492	0.403781
	H64	H	0.409394	0.593231	0.107689
	H65	H	0.593646	0.587811	0.877157
	H66	H	0.588959	0.402708	0.106354
	H67	H	0.417001	0.402683	0.878084
	H68	H	0.593970	0.111125	0.406832
	H69	H	0.597536	0.882606	0.575392
	H70	H	0.414700	0.112014	0.576570
	H71	H	0.403676	0.882234	0.406313
	H72	H	0.912178	0.613285	0.083202
	H73	H	0.092769	0.384685	0.076852
	H74	H	0.091466	0.613338	0.901715
	H75	H	0.915295	0.381530	0.891104
	H76	H	0.088279	0.897398	0.609198
	H77	H	0.093501	0.098887	0.374353
	H78	H	0.907886	0.092922	0.606851
	H79	H	0.907690	0.904628	0.374743
	H80	H	0.616292	0.084637	0.896301
	H81	H	0.382851	0.095928	0.087318
	H82	H	0.618755	0.907544	0.091867
	H83	H	0.384073	0.898545	0.898235
	H84	H	0.617604	0.897647	0.077668
	H85	H	0.388555	0.086612	0.077784
	H86	H	0.618050	0.092825	0.897912
	H87	H	0.388059	0.907915	0.902280
	H88	H	0.908744	0.089525	0.606009
	H89	H	0.102585	0.089511	0.374354
	H90	H	0.106878	0.911011	0.611056
	H91	H	0.910352	0.911537	0.377788
	H92	H	0.097022	0.614534	0.903526
	H93	H	0.097436	0.380301	0.087032
	H94	H	0.906577	0.614641	0.081364
	H95	H	0.916649	0.387621	0.908352
	H96	H	0.403480	0.118091	0.584227
	H97	H	0.595120	0.880363	0.586830
	H98	H	0.602978	0.117614	0.396407
	H99	H	0.406667	0.878882	0.392760
	H100	H	0.597331	0.404739	0.109121
	H101	H	0.593176	0.587400	0.877706
	H102	H	0.406029	0.589142	0.107870
	H103	H	0.403653	0.396046	0.873706
	H104	H	0.117208	0.595672	0.403377
	H105	H	0.884901	0.594192	0.589760
	H106	H	0.113823	0.412071	0.574099
	H107	H	0.891700	0.416043	0.408523
	H108	H	0.908493	0.615687	0.086923
	H109	H	0.086350	0.384157	0.087025
	H110	H	0.095447	0.616209	0.898021
	H111	H	0.901395	0.380975	0.901809
	H112	H	0.087394	0.919962	0.602281
	H113	H	0.090520	0.087195	0.378605
	H114	H	0.911597	0.092220	0.605252
	H115	H	0.915097	0.905489	0.376770
	H116	H	0.614002	0.087705	0.903731
	H117	H	0.385875	0.082173	0.091154
	H118	H	0.612587	0.914477	0.077287
	H119	H	0.384749	0.906596	0.892034
	C120	C	0.380629	0.007551	0.612238
	C121	C	0.623101	0.989792	0.611420
	C122	C	0.624117	0.006402	0.369438
	C123	C	0.381021	0.990030	0.370731
	C124	C	0.622712	0.375702	-0.000187
	C125	C	0.622861	0.619172	0.983885
	C126	C	0.379452	0.619178	0.000054
	C127	C	0.378230	0.374823	0.983722
	C128	C	0.009832	0.621556	0.370415
	C129	C	0.993840	0.622193	0.615272
	C130	C	0.009977	0.379151	0.613213
	C131	C	0.994604	0.378833	0.370062
	C132	C	0.879300	0.507035	0.114017
	C133	C	0.122012	0.491129	0.112699
	C134	C	0.123742	0.506992	0.870040
	C135	C	0.880844	0.490799	0.871435
	C136	C	0.123731	0.878622	0.500557
	C137	C	0.124757	0.122092	0.482846
	C138	C	0.880652	0.120953	0.498903
	C139	C	0.880534	0.877852	0.483498
	C140	C	0.509238	0.118106	0.869962
	C141	C	0.492981	0.118803	0.114130
	C142	C	0.509410	0.876690	0.112370
	C143	C	0.492799	0.874506	0.868050
	C144	C	0.380483	0.884738	0.667195
	C145	C	0.622097	0.112121	0.669358
	C146	C	0.621795	0.882865	0.313631
	C147	C	0.383752	0.112815	0.315029
	C148	C	0.679645	0.376275	0.877887
	C149	C	0.678755	0.619122	0.106032
	C150	C	0.323589	0.617013	0.877921
	C151	C	0.321260	0.377020	0.105628
	C152	C	0.886988	0.676670	0.374792
	C153	C	0.116586	0.677940	0.612657
	C154	C	0.888174	0.321722	0.611997
	C155	C	0.116686	0.322905	0.370954
	C156	C	0.887700	0.379951	0.669750
	C157	C	0.116013	0.621054	0.670826
	C158	C	0.887509	0.620567	0.314879
	C159	C	0.116477	0.380572	0.312886
	C160	C	0.381049	0.674344	0.877419
	C161	C	0.620700	0.676869	0.105587
	C162	C	0.620446	0.319645	0.877242
	C163	C	0.379450	0.319539	0.106135
	C164	C	0.679957	0.883423	0.370437
	C165	C	0.678837	0.113094	0.610821
	C166	C	0.323162	0.885423	0.610331
	C167	C	0.326297	0.113377	0.372233
	C168	C	0.879976	0.385129	0.171108
	C169	C	0.120832	0.614419	0.168112
	C170	C	0.122686	0.385219	0.811813
	C171	C	0.881943	0.613803	0.816355
	C172	C	0.179528	0.878974	0.378214
	C173	C	0.181226	0.122132	0.604641
	C174	C	0.824883	0.119442	0.376847
	C175	C	0.822730	0.879352	0.604988
	C176	C	0.386463	0.173413	0.872928
	C177	C	0.614907	0.176099	0.111918
	C178	C	0.386963	0.820603	0.110863
	C179	C	0.615192	0.819118	0.869910
	C180	C	0.387973	0.876358	0.170589
	C181	C	0.615237	0.118277	0.169536
	C182	C	0.387328	0.117454	0.813201
	C183	C	0.615044	0.876045	0.811111
	C184	C	0.883432	0.176626	0.376489
	C185	C	0.123093	0.179205	0.604879
	C186	C	0.121938	0.821370	0.378527
	C187	C	0.881469	0.822758	0.606082
	C188	C	0.179519	0.384414	0.869949
	C189	C	0.178631	0.613858	0.111207
	C190	C	0.823092	0.384208	0.112959
	C191	C	0.823518	0.612826	0.872874
	C192	C	0.404458	0.093285	0.590074
	C193	C	0.599946	0.904468	0.587586
	C194	C	0.601824	0.092096	0.392060
	C195	C	0.402667	0.904329	0.393363
	C196	C	0.599813	0.399123	0.085035
	C197	C	0.599931	0.594743	0.899173
	C198	C	0.402134	0.596630	0.085103
	C199	C	0.401447	0.396969	0.898468
	C200	C	0.094963	0.598851	0.392350
	C201	C	0.908504	0.599382	0.593219
	C202	C	0.095035	0.402420	0.590121
	C203	C	0.909490	0.401803	0.393857
	C204	C	0.902263	0.592555	0.090459
	C205	C	0.099086	0.405311	0.090382
	C206	C	0.101173	0.592475	0.894109
	C207	C	0.904253	0.405412	0.893867
	C208	C	0.100915	0.902587	0.585507
	C209	C	0.102189	0.098670	0.397700
	C210	C	0.902744	0.098193	0.584019
	C211	C	0.904210	0.900511	0.398469
	C212	C	0.594057	0.095207	0.892640
	C213	C	0.407626	0.095120	0.091925
	C214	C	0.594470	0.899787	0.088955
	C215	C	0.407535	0.897497	0.890813
	Zn216	Zn	0.501284	-0.002444	0.740001
	Zn217	Zn	0.501897	-0.002595	0.242547
	Zn218	Zn	0.752027	0.497416	-0.007910
	Zn219	Zn	0.250729	0.498206	-0.007947
	Zn220	Zn	0.002488	0.750015	0.493432
	Zn221	Zn	0.002633	0.249544	0.490915
	Zn222	Zn	0.002042	0.500072	0.742859
	Zn223	Zn	0.001283	0.500304	0.241076
	Zn224	Zn	0.500419	0.747297	-0.009100
	Zn225	Zn	0.500700	0.246998	-0.008248
	Zn226	Zn	0.751822	-0.001228	0.490855
	Zn227	Zn	0.252842	-0.000331	0.491696
	N228	N	0.415577	0.961842	0.668446
	N229	N	0.588168	0.034560	0.669831
	N230	N	0.587861	0.960316	0.312786
	N231	N	0.416910	0.035184	0.313926
	N232	N	0.681343	0.410199	0.955165
	N233	N	0.680218	0.583899	0.029247
	N234	N	0.322508	0.583315	0.955018
	N235	N	0.320385	0.410715	0.028484
	N236	N	0.964078	0.677578	0.408585
	N237	N	0.039648	0.678653	0.578474
	N238	N	0.965146	0.321150	0.577294
	N239	N	0.039816	0.321629	0.405594
	N240	N	0.964388	0.414811	0.670771
	N241	N	0.038622	0.587407	0.672777
	N242	N	0.964760	0.587294	0.311937
	N243	N	0.039314	0.414543	0.312181
	N244	N	0.415111	0.675834	0.954350
	N245	N	0.586554	0.676961	0.028791
	N246	N	0.585616	0.319276	0.954002
	N247	N	0.414109	0.317991	0.029269
	N248	N	0.681568	0.961015	0.404430
	N249	N	0.679599	0.035992	0.575595
	N250	N	0.323015	0.962967	0.576978
	N251	N	0.324332	0.035946	0.406091
	N252	N	0.913905	0.462655	0.172037
	N253	N	0.086169	0.537186	0.168932
	N254	N	0.088890	0.462485	0.811814
	N255	N	0.916948	0.536730	0.815250
	N256	N	0.180839	0.913938	0.455058
	N257	N	0.182541	0.087228	0.527712
	N258	N	0.822801	0.085711	0.453951
	N259	N	0.821929	0.912737	0.527732
	N260	N	0.463081	0.173977	0.907581
	N261	N	0.537874	0.176485	0.078061
	N262	N	0.463380	0.820666	0.075193
	N263	N	0.538219	0.817894	0.904265
	N264	N	0.465127	0.910559	0.171514
	N265	N	0.538347	0.083627	0.171066
	N266	N	0.464439	0.083343	0.811500
	N267	N	0.537754	0.909751	0.809769
	N268	N	0.917204	0.177771	0.453497
	N269	N	0.088750	0.179127	0.528242
	N270	N	0.087833	0.821134	0.455545
	N271	N	0.916634	0.821755	0.529509
	N272	N	0.180494	0.461362	0.905282
	N273	N	0.179288	0.536218	0.077233
	N274	N	0.822638	0.461129	0.078121
	N275	N	0.822943	0.535492	0.906627
	O276	O	1.115561	-0.098741	1.085763
	H277	H	1.118694	-0.092810	1.086282
	H278	H	1.115804	-0.092961	1.091354
	O279	O	0.470993	0.425819	0.577654
	H280	H	0.466020	0.408921	0.583923
	H281	H	0.476637	0.428367	0.576819
	O282	O	0.523935	0.602438	0.438666
	H283	H	0.507216	0.604077	0.440052
	H284	H	0.527285	0.594936	0.424967
	O285	O	0.506261	0.478382	0.491326
	H286	H	0.507726	0.474682	0.488486
	H287	H	0.498290	0.478277	0.506940
	O288	O	0.519220	0.404516	0.551469
	H289	H	0.512210	0.409192	0.549434
	H290	H	0.524762	0.412319	0.559749
	O291	O	0.035763	-0.164567	0.842465
	H292	H	0.030917	-0.177667	0.837465
	H293	H	0.039959	-0.155813	0.839058
	O294	O	1.106192	1.040408	0.057802
	H295	H	1.101973	1.047724	0.076446
	H296	H	1.113044	1.045588	0.055788
	O297	O	0.986023	1.048153	-0.088301
	H298	H	0.982451	1.055930	-0.080286
	H299	H	0.986454	1.056534	-0.090045
	O300	O	0.445635	0.453093	0.583793
	H301	H	0.453633	0.464240	0.588178
	H302	H	0.448547	0.452162	0.576305
	O303	O	0.424187	0.565713	0.493413
	H304	H	0.427411	0.568506	0.489959
	H305	H	0.431557	0.562323	0.491156
	O306	O	-0.104097	0.985945	1.115205
	H307	H	-0.113258	0.982372	1.106393
	H308	H	-0.115313	0.985259	1.126612
	O309	O	0.600160	0.548440	0.536487
	H310	H	0.604270	0.549748	0.542596
	H311	H	0.605750	0.556444	0.537549
	O312	O	0.921337	1.130541	1.042146
	H313	H	0.917814	1.120988	1.047746
	H314	H	0.922213	1.128111	1.047096
	O315	O	0.908020	1.016121	-0.137506
	H316	H	0.904181	1.017419	-0.139467
	H317	H	0.907791	1.016537	-0.129505
	O318	O	0.999382	0.099035	1.029578
	H319	H	1.009231	0.107528	1.045838
	H320	H	0.987325	0.101771	1.023311
	O321	O	0.535979	0.451236	0.404241
	H322	H	0.533275	0.434678	0.390171
	H323	H	0.530216	0.444264	0.418867
	O324	O	-0.065166	0.926063	1.039516
	H325	H	-0.079053	0.918666	1.038584
	H326	H	-0.066788	0.926659	1.047449
	O327	O	0.023180	0.913059	0.876945
	H328	H	0.026106	0.920669	0.878581
	H329	H	0.024266	0.910910	0.893661
	O330	O	-0.383049	-0.330406	-0.328985
	H331	H	-0.376397	-0.330961	-0.328686
	H332	H	-0.386145	-0.328842	-0.350782
	O333	O	0.615832	0.520672	0.527921
	H334	H	0.623892	0.536712	0.530298
	H335	H	0.639189	0.516632	0.524891
	O336	O	0.025650	-0.050669	-0.075243
	H337	H	0.014660	-0.059324	-0.077584
	H338	H	0.031298	-0.042861	-0.070518
	O339	O	-0.161300	-0.091411	0.067381
	H340	H	-0.157593	-0.106385	0.060897
	H341	H	-0.162729	-0.096835	0.073206
	O342	O	0.570802	0.442885	0.604146
	H343	H	0.560785	0.446703	0.599579
	H344	H	0.565269	0.445717	0.615571
	O345	O	0.091872	1.069631	1.140530
	H346	H	0.080625	1.083276	1.139626
	H347	H	0.085646	1.072047	1.130495
	O348	O	0.346455	0.455946	0.580005
	H349	H	0.348612	0.461805	0.583501
	H350	H	0.357764	0.464153	0.577333
	O351	O	0.574105	0.482227	0.374691
	H352	H	0.576286	0.480239	0.375741
	H353	H	0.570936	0.471119	0.373747
	O354	O	-0.453121	1.509213	0.430548
	H355	H	-0.455773	1.513491	0.425927
	H356	H	-0.453639	1.495346	0.426214
	O357	O	0.549245	0.439463	0.419889
	H358	H	0.560028	0.441674	0.415893
	H359	H	0.538457	0.435508	0.430654
	O360	O	0.992552	0.042338	1.037685
	H361	H	0.997221	0.039522	1.029445
	H362	H	0.984423	0.028255	1.034981
	O363	O	0.577912	0.445872	0.418358
	H364	H	0.584001	0.452106	0.422675
	H365	H	0.574769	0.435412	0.411788
	O366	O	0.529818	0.472882	0.548969
	H367	H	0.523955	0.473847	0.551154
	H368	H	0.525060	0.468609	0.554273
	O369	O	1.017340	-0.068356	-0.040721
	H370	H	1.014122	-0.070044	-0.056150
	H371	H	1.021201	-0.067634	-0.028483
	O372	O	0.428306	0.562030	0.492295
	H373	H	0.416037	0.565819	0.487803
	H374	H	0.426536	0.556083	0.486944
	O375	O	0.957921	0.093218	1.128350
	H376	H	0.961170	0.081273	1.136225
	H377	H	0.963614	0.092758	1.116422
	O378	O	0.053345	1.144166	-0.108207
	H379	H	0.054090	1.154452	-0.125738
	H380	H	0.067412	1.128706	-0.102230
	O381	O	0.109442	1.088588	0.974017
	H382	H	0.113694	1.082771	0.974640
	H383	H	0.113226	1.093585	0.979314
	O384	O	0.846132	1.056213	-0.169617
	H385	H	0.858495	1.061706	-0.174508
	H386	H	0.843472	1.051857	-0.176874
	O387	O	0.984721	-0.032446	0.902183
	H388	H	0.985616	-0.032101	0.893309
	H389	H	0.988951	-0.035391	0.888599
	O390	O	1.124034	1.054734	-0.000341
	H391	H	1.127254	1.050439	-0.002685
	H392	H	1.118614	1.049542	0.002267
	O393	O	0.564035	0.464822	0.451000
	H394	H	0.567453	0.456701	0.452767
	H395	H	0.559251	0.463489	0.437612
