data_Molecule from HDF5

_cell_length_a		16.308771
_cell_length_b		16.251683
_cell_length_c		16.364642
_cell_angle_alpha	90.121031
_cell_angle_beta	89.987827
_cell_angle_gamma	90.011297
_symmetry_space_group_name_H-M	'P 1'
_symmetry_Int_Tables_number		1

loop_
	_symmetry_equiv_pos_as_xyz
	x,y,z

loop_
	_atom_site_label
	_atom_site_type_symbol
	_atom_site_fract_x
	_atom_site_fract_y
	_atom_site_fract_z
	H0	H	0.416816	0.858604	0.716123
	H1	H	0.615177	0.185577	0.718563
	H2	H	0.615765	0.858905	0.286646
	H3	H	0.416719	0.186016	0.287883
	H4	H	0.731027	0.422703	0.840088
	H5	H	0.731151	0.621702	0.164812
	H6	H	0.300706	0.620003	0.839161
	H7	H	0.300237	0.424333	0.165677
	H8	H	0.852310	0.736590	0.405335
	H9	H	0.179766	0.737013	0.601398
	H10	H	0.852200	0.308060	0.600209
	H11	H	0.179882	0.309175	0.406024
	H12	H	0.852877	0.422742	0.717628
	H13	H	0.178938	0.622045	0.718877
	H14	H	0.852691	0.621755	0.287513
	H15	H	0.178945	0.422415	0.287596
	H16	H	0.417792	0.736601	0.838656
	H17	H	0.614720	0.738401	0.165224
	H18	H	0.612414	0.308124	0.839383
	H19	H	0.417000	0.308186	0.166169
	H20	H	0.730555	0.858342	0.404074
	H21	H	0.730060	0.186279	0.600992
	H22	H	0.302793	0.858421	0.599407
	H23	H	0.302134	0.186750	0.405093
	H24	H	0.917481	0.358151	0.217399
	H25	H	0.115533	0.685590	0.219058
	H26	H	0.113671	0.358112	0.789040
	H27	H	0.917840	0.686062	0.788668
	H28	H	0.230940	0.924053	0.339603
	H29	H	0.231165	0.121590	0.665518
	H30	H	0.800850	0.121122	0.339749
	H31	H	0.801023	0.925088	0.665489
	H32	H	0.352027	0.236370	0.905870
	H33	H	0.679228	0.236059	0.099383
	H34	H	0.352135	0.808648	0.099234
	H35	H	0.679887	0.808218	0.904435
	H36	H	0.353308	0.923160	0.217244
	H37	H	0.678621	0.122211	0.217874
	H38	H	0.351778	0.120258	0.788658
	H39	H	0.678880	0.923316	0.787120
	H40	H	0.918787	0.235948	0.339204
	H41	H	0.112668	0.235614	0.666210
	H42	H	0.113512	0.808161	0.339625
	H43	H	0.918533	0.809013	0.666499
	H44	H	0.228730	0.357603	0.906018
	H45	H	0.229553	0.686794	0.100736
	H46	H	0.801289	0.358182	0.100586
	H47	H	0.802604	0.686662	0.905249
	H48	H	0.421424	0.138368	0.592126
	H49	H	0.613788	0.906466	0.586153
	H50	H	0.603640	0.136068	0.413027
	H51	H	0.433644	0.909474	0.408903
	H52	H	0.610768	0.428059	0.119652
	H53	H	0.609905	0.610283	0.888060
	H54	H	0.429165	0.621473	0.116953
	H55	H	0.414513	0.425445	0.883980
	H56	H	0.133806	0.620509	0.409942
	H57	H	0.896395	0.620480	0.603801
	H58	H	0.131783	0.435602	0.602776
	H59	H	0.896788	0.427177	0.402080
	H60	H	0.135365	0.421495	0.599063
	H61	H	0.901920	0.618657	0.587331
	H62	H	0.129282	0.611411	0.415458
	H63	H	0.899584	0.423431	0.415348
	H64	H	0.415213	0.619370	0.121385
	H65	H	0.604673	0.617787	0.887273
	H66	H	0.610286	0.431943	0.118294
	H67	H	0.421499	0.437766	0.889548
	H68	H	0.613188	0.139570	0.412721
	H69	H	0.612900	0.901902	0.603316
	H70	H	0.419054	0.142011	0.599981
	H71	H	0.419297	0.907378	0.418387
	H72	H	0.925369	0.641307	0.109703
	H73	H	0.103058	0.405126	0.102556
	H74	H	0.115263	0.641879	0.905529
	H75	H	0.913761	0.401103	0.903812
	H76	H	0.116614	0.922958	0.622666
	H77	H	0.107515	0.113834	0.387907
	H78	H	0.920271	0.108010	0.616888
	H79	H	0.910340	0.930509	0.383842
	H80	H	0.630085	0.112591	0.913255
	H81	H	0.399715	0.116167	0.093349
	H82	H	0.630788	0.934234	0.095265
	H83	H	0.398598	0.935551	0.899525
	H84	H	0.633722	0.928273	0.098165
	H85	H	0.399257	0.113006	0.097733
	H86	H	0.632382	0.112864	0.904501
	H87	H	0.396689	0.918507	0.907611
	H88	H	0.929898	0.118166	0.616573
	H89	H	0.109954	0.118502	0.385752
	H90	H	0.113013	0.939459	0.616794
	H91	H	0.929875	0.938759	0.392079
	H92	H	0.102064	0.638035	0.905860
	H93	H	0.106126	0.409052	0.088025
	H94	H	0.933371	0.633487	0.088880
	H95	H	0.933853	0.406920	0.903945
	H96	H	0.427577	0.138759	0.598495
	H97	H	0.598670	0.908766	0.595382
	H98	H	0.607728	0.139913	0.404439
	H99	H	0.419401	0.901641	0.401500
	H100	H	0.607799	0.429168	0.118212
	H101	H	0.613101	0.617683	0.884433
	H102	H	0.423207	0.608060	0.115231
	H103	H	0.429379	0.424542	0.887332
	H104	H	0.131789	0.610451	0.404663
	H105	H	0.902448	0.605235	0.597661
	H106	H	0.129593	0.430504	0.589704
	H107	H	0.902510	0.437097	0.410753
	H108	H	0.911393	0.640697	0.091164
	H109	H	0.116632	0.403225	0.097229
	H110	H	0.108900	0.636592	0.917480
	H111	H	0.922440	0.409434	0.921357
	H112	H	0.100367	0.926763	0.616492
	H113	H	0.113136	0.113830	0.386048
	H114	H	0.916920	0.120577	0.621848
	H115	H	0.928448	0.917233	0.385360
	H116	H	0.633222	0.120400	0.909528
	H117	H	0.398032	0.118694	0.098041
	H118	H	0.631245	0.928604	0.091130
	H119	H	0.403605	0.933518	0.917360
	C120	C	0.394564	0.031086	0.624214
	C121	C	0.637119	1.013893	0.623721
	C122	C	0.637320	0.030473	0.381265
	C123	C	0.394815	1.014345	0.381025
	C124	C	0.637387	0.401041	0.010900
	C125	C	0.637833	0.644338	0.994054
	C126	C	0.393971	0.644563	0.010163
	C127	C	0.393807	0.401115	0.994784
	C128	C	0.023736	0.643021	0.381500
	C129	C	1.007655	0.643749	0.624802
	C130	C	0.024237	0.400543	0.624783
	C131	C	1.007668	0.400445	0.381042
	C132	C	0.894500	0.530291	0.124641
	C133	C	0.137297	0.513988	0.124566
	C134	C	0.137129	0.530391	0.881331
	C135	C	0.894993	0.514040	0.881259
	C136	C	0.138451	0.900566	0.511110
	C137	C	0.138356	0.144150	0.494522
	C138	C	0.894410	0.143862	0.510739
	C139	C	0.894532	0.900857	0.494632
	C140	C	0.523642	0.143521	0.881283
	C141	C	0.507295	0.144329	0.124544
	C142	C	0.524031	0.901246	0.123352
	C143	C	0.507596	0.900360	0.879854
	C144	C	0.396706	0.907676	0.678500
	C145	C	0.635077	0.137020	0.679804
	C146	C	0.635691	0.907606	0.325222
	C147	C	0.396617	0.137253	0.325907
	C148	C	0.692830	0.402463	0.888498
	C149	C	0.692808	0.641974	0.116568
	C150	C	0.338621	0.641294	0.887794
	C151	C	0.338614	0.403711	0.117349
	C152	C	0.901158	0.698671	0.384506
	C153	C	0.130966	0.698955	0.621991
	C154	C	0.900909	0.346062	0.620969
	C155	C	0.130875	0.346121	0.384385
	C156	C	0.901319	0.403024	0.679416
	C157	C	0.130580	0.641889	0.680264
	C158	C	0.901330	0.641836	0.325881
	C159	C	0.130185	0.402153	0.325487
	C160	C	0.396634	0.699173	0.887555
	C161	C	0.635142	0.700064	0.116523
	C162	C	0.633914	0.345777	0.888149
	C163	C	0.396684	0.346216	0.117404
	C164	C	0.692776	0.907300	0.383389
	C165	C	0.692098	0.137364	0.621349
	C166	C	0.340170	0.907437	0.620449
	C167	C	0.339860	0.137717	0.384321
	C168	C	0.896674	0.406972	0.179454
	C169	C	0.135281	0.637228	0.180277
	C170	C	0.134620	0.407073	0.826629
	C171	C	0.897281	0.637230	0.826314
	C172	C	0.193158	0.903238	0.388343
	C173	C	0.192671	0.141572	0.617058
	C174	C	0.839467	0.141276	0.388047
	C175	C	0.839100	0.903833	0.617158
	C176	C	0.400673	0.198556	0.884606
	C177	C	0.630352	0.198888	0.121083
	C178	C	0.400943	0.846548	0.120212
	C179	C	0.630904	0.845744	0.883385
	C180	C	0.401701	0.902954	0.179121
	C181	C	0.630095	0.142062	0.179565
	C182	C	0.400667	0.140962	0.826507
	C183	C	0.630341	0.902509	0.824984
	C184	C	0.897663	0.198549	0.387898
	C185	C	0.134400	0.198887	0.617208
	C186	C	0.134981	0.845666	0.388308
	C187	C	0.897245	0.846149	0.617631
	C188	C	0.191532	0.406657	0.884821
	C189	C	0.191958	0.637679	0.121761
	C190	C	0.839167	0.407105	0.121525
	C191	C	0.840367	0.637669	0.884398
	C192	C	0.416265	0.117364	0.603006
	C193	C	0.615002	0.927966	0.601446
	C194	C	0.614905	0.116413	0.403522
	C195	C	0.417321	0.928319	0.403191
	C196	C	0.615927	0.423218	0.096579
	C197	C	0.615665	0.621821	0.908728
	C198	C	0.416078	0.622791	0.095674
	C199	C	0.415488	0.422959	0.909003
	C200	C	0.109547	0.620755	0.403629
	C201	C	0.922253	0.621323	0.602730
	C202	C	0.110135	0.422651	0.603377
	C203	C	0.921708	0.422815	0.402886
	C204	C	0.916914	0.616078	0.102982
	C205	C	0.115090	0.428086	0.102498
	C206	C	0.115316	0.616518	0.903246
	C207	C	0.916946	0.428063	0.903276
	C208	C	0.116624	0.923080	0.596613
	C209	C	0.116569	0.122066	0.408594
	C210	C	0.916027	0.122068	0.596324
	C211	C	0.916483	0.922297	0.409328
	C212	C	0.609512	0.121609	0.902830
	C213	C	0.421171	0.122429	0.102750
	C214	C	0.609834	0.923775	0.101369
	C215	C	0.421723	0.922549	0.901871
	Zn216	Zn	0.515742	0.021999	0.752077
	Zn217	Zn	0.515955	0.022683	0.252454
	Zn218	Zn	0.766455	0.522264	0.002097
	Zn219	Zn	0.265177	0.522174	0.002819
	Zn220	Zn	0.016110	0.771935	0.503126
	Zn221	Zn	0.016168	0.272954	0.502364
	Zn222	Zn	0.015868	0.522136	0.752999
	Zn223	Zn	0.016045	0.521926	0.252722
	Zn224	Zn	0.516262	0.773119	0.001838
	Zn225	Zn	0.515720	0.272597	0.003037
	Zn226	Zn	0.765647	0.022499	0.502309
	Zn227	Zn	0.267116	0.022687	0.503017
	N228	N	0.430020	0.985437	0.680714
	N229	N	0.601744	0.059248	0.681572
	N230	N	0.601545	0.985141	0.323909
	N231	N	0.430181	0.059594	0.323812
	N232	N	0.694883	0.436328	0.965653
	N233	N	0.694518	0.607962	0.039520
	N234	N	0.336787	0.608094	0.965144
	N235	N	0.336682	0.437081	0.040156
	N236	N	0.978408	0.699403	0.418446
	N237	N	0.053795	0.700187	0.588046
	N238	N	0.978307	0.344580	0.587580
	N239	N	0.053697	0.345036	0.418226
	N240	N	0.978865	0.436285	0.681642
	N241	N	0.053172	0.608118	0.682113
	N242	N	0.978549	0.607787	0.323964
	N243	N	0.052576	0.435747	0.323707
	N244	N	0.430497	0.701177	0.964557
	N245	N	0.601388	0.701389	0.039468
	N246	N	0.600135	0.344839	0.965247
	N247	N	0.430365	0.344649	0.040170
	N248	N	0.693975	0.984770	0.417355
	N249	N	0.693135	0.060036	0.586862
	N250	N	0.338672	0.985166	0.587394
	N251	N	0.338890	0.060258	0.418188
	N252	N	0.930293	0.484608	0.181550
	N253	N	0.102116	0.559269	0.182334
	N254	N	0.101334	0.484763	0.824552
	N255	N	0.930483	0.559466	0.824250
	N256	N	0.195253	0.936878	0.465525
	N257	N	0.195286	0.108468	0.539719
	N258	N	0.837237	0.108255	0.465279
	N259	N	0.837284	0.936967	0.539916
	N260	N	0.478053	0.200344	0.917922
	N261	N	0.552890	0.200577	0.087939
	N262	N	0.478189	0.845193	0.086486
	N263	N	0.553273	0.844231	0.916591
	N264	N	0.479261	0.936360	0.181079
	N265	N	0.552413	0.108890	0.181852
	N266	N	0.478252	0.107438	0.824305
	N267	N	0.552795	0.935504	0.822562
	N268	N	0.931276	0.200325	0.465166
	N269	N	0.101208	0.200569	0.539798
	N270	N	0.101600	0.843874	0.465565
	N271	N	0.931035	0.844117	0.540586
	N272	N	0.193370	0.484494	0.918002
	N273	N	0.193180	0.560339	0.087666
	N274	N	0.837628	0.484729	0.088140
	N275	N	0.838640	0.559948	0.917668
	O276	O	-0.495970	-0.422984	0.476002
	H277	H	-0.495867	-0.415325	0.479522
	H278	H	-0.486868	-0.419588	0.476958
	O279	O	0.533709	-0.474462	0.464395
	H280	H	0.542003	-0.473814	0.465289
	H281	H	0.530635	-0.469655	0.465676
	O282	O	0.496472	0.565878	0.511409
	H283	H	0.486696	0.569246	0.511611
	H284	H	0.493503	0.563185	0.500558
	O285	O	-0.451151	-0.493843	0.499925
	H286	H	-0.457203	-0.492743	0.499667
	H287	H	-0.452391	-0.484494	0.503307
	O288	O	0.515716	0.565177	0.477060
	H289	H	0.516605	0.559506	0.471603
	H290	H	0.521307	0.565418	0.477245
	O291	O	-0.429800	0.528853	0.500544
	H292	H	-0.434559	0.533034	0.494910
	H293	H	-0.432072	0.516882	0.501598
	O294	O	0.560959	0.569251	0.519772
	H295	H	0.561149	0.571249	0.512671
	H296	H	0.562620	0.567675	0.529221
	O297	O	0.517391	-0.420400	0.445708
	H298	H	0.518493	-0.422047	0.447830
	H299	H	0.521862	-0.415410	0.446813
