data_Molecule from HDF5

_cell_length_a		16.284542
_cell_length_b		16.314283
_cell_length_c		16.230895
_cell_angle_alpha	90.260075
_cell_angle_beta	90.121968
_cell_angle_gamma	90.528806
_symmetry_space_group_name_H-M	'P 1'
_symmetry_Int_Tables_number		1

loop_
	_symmetry_equiv_pos_as_xyz
	x,y,z

loop_
	_atom_site_label
	_atom_site_type_symbol
	_atom_site_fract_x
	_atom_site_fract_y
	_atom_site_fract_z
	H0	H	0.399347	0.835401	0.711426
	H1	H	0.600524	0.161511	0.713616
	H2	H	0.595726	0.835843	0.281069
	H3	H	0.403150	0.162981	0.284446
	H4	H	0.711827	0.401481	0.834399
	H5	H	0.715224	0.602388	0.162027
	H6	H	0.283027	0.596172	0.834829
	H7	H	0.282852	0.397963	0.161965
	H8	H	0.835321	0.711105	0.399221
	H9	H	0.161308	0.717342	0.600455
	H10	H	0.837229	0.279199	0.600483
	H11	H	0.162853	0.286136	0.399122
	H12	H	0.834895	0.399316	0.712813
	H13	H	0.161687	0.601243	0.716102
	H14	H	0.835346	0.595374	0.284962
	H15	H	0.161323	0.399907	0.283505
	H16	H	0.398861	0.713298	0.834406
	H17	H	0.600520	0.717328	0.161335
	H18	H	0.596924	0.283960	0.834354
	H19	H	0.397585	0.282367	0.160999
	H20	H	0.711734	0.834488	0.396717
	H21	H	0.718365	0.160353	0.599534
	H22	H	0.282250	0.835593	0.594692
	H23	H	0.285099	0.162826	0.397146
	H24	H	0.898039	0.335415	0.212207
	H25	H	0.099604	0.661162	0.215715
	H26	H	0.096269	0.336873	0.782448
	H27	H	0.899927	0.662436	0.783144
	H28	H	0.210350	0.901191	0.332536
	H29	H	0.217100	0.101063	0.661043
	H30	H	0.786045	0.095204	0.332683
	H31	H	0.780835	0.896715	0.660536
	H32	H	0.335696	0.211755	0.896883
	H33	H	0.660949	0.218076	0.099177
	H34	H	0.337203	0.780893	0.097745
	H35	H	0.661894	0.783693	0.895706
	H36	H	0.334069	0.901527	0.208937
	H37	H	0.661346	0.101954	0.213459
	H38	H	0.336313	0.096496	0.782263
	H39	H	0.661921	0.900369	0.782314
	H40	H	0.900317	0.213511	0.334509
	H41	H	0.102090	0.216702	0.661493
	H42	H	0.097495	0.782043	0.334771
	H43	H	0.898589	0.783510	0.662400
	H44	H	0.212072	0.336031	0.897308
	H45	H	0.218614	0.659895	0.103022
	H46	H	0.779586	0.336772	0.097993
	H47	H	0.782855	0.661896	0.897571
	H48	H	0.407703	0.115155	0.589964
	H49	H	0.587522	0.881793	0.594925
	H50	H	0.598986	0.115108	0.408658
	H51	H	0.418555	0.887367	0.403803
	H52	H	0.592037	0.409027	0.115724
	H53	H	0.593255	0.594265	0.879942
	H54	H	0.411530	0.590058	0.113492
	H55	H	0.402604	0.405885	0.880127
	H56	H	0.116579	0.597221	0.405337
	H57	H	0.882419	0.586874	0.597090
	H58	H	0.110633	0.414902	0.584854
	H59	H	0.876719	0.394457	0.399571
	H60	H	0.116714	0.411666	0.600335
	H61	H	0.880818	0.598071	0.591768
	H62	H	0.113271	0.591483	0.412962
	H63	H	0.886343	0.402890	0.419714
	H64	H	0.407462	0.593455	0.115133
	H65	H	0.592628	0.586743	0.883258
	H66	H	0.586646	0.411556	0.112501
	H67	H	0.405510	0.404582	0.881713
	H68	H	0.594728	0.116536	0.400040
	H69	H	0.584606	0.885311	0.584924
	H70	H	0.409918	0.113626	0.590282
	H71	H	0.393801	0.883981	0.416472
	H72	H	0.911020	0.613067	0.088932
	H73	H	0.085515	0.383929	0.091608
	H74	H	0.089869	0.614930	0.905152
	H75	H	0.920346	0.388490	0.907494
	H76	H	0.091033	0.912586	0.612981
	H77	H	0.086157	0.098689	0.381194
	H78	H	0.906992	0.086516	0.612708
	H79	H	0.891933	0.906903	0.378459
	H80	H	0.618104	0.098292	0.903672
	H81	H	0.382490	0.087215	0.093995
	H82	H	0.613654	0.904695	0.082971
	H83	H	0.383254	0.899968	0.912099
	H84	H	0.613892	0.915654	0.090673
	H85	H	0.380059	0.095340	0.092132
	H86	H	0.612496	0.093363	0.912944
	H87	H	0.385572	0.913330	0.906351
	H88	H	0.911689	0.087797	0.611678
	H89	H	0.099400	0.093163	0.378547
	H90	H	0.087942	0.907320	0.613268
	H91	H	0.914352	0.912234	0.386528
	H92	H	0.089882	0.613548	0.912900
	H93	H	0.091910	0.382665	0.087795
	H94	H	0.900621	0.616537	0.091319
	H95	H	0.893957	0.385330	0.919894
	H96	H	0.408917	0.114088	0.587784
	H97	H	0.594829	0.882016	0.587313
	H98	H	0.589884	0.113446	0.407489
	H99	H	0.396994	0.877168	0.389184
	H100	H	0.586791	0.404896	0.115242
	H101	H	0.585908	0.591786	0.882755
	H102	H	0.406193	0.588296	0.113502
	H103	H	0.403348	0.402034	0.880376
	H104	H	0.115614	0.587833	0.404628
	H105	H	0.885248	0.588665	0.585437
	H106	H	0.116853	0.399515	0.588771
	H107	H	0.884442	0.416476	0.401985
	H108	H	0.908255	0.616416	0.098534
	H109	H	0.091796	0.381268	0.094837
	H110	H	0.096318	0.615301	0.909615
	H111	H	0.897688	0.378577	0.892010
	H112	H	0.093274	0.907493	0.614969
	H113	H	0.088948	0.085041	0.384286
	H114	H	0.908538	0.091473	0.614224
	H115	H	0.908605	0.889701	0.378369
	H116	H	0.614868	0.086571	0.904082
	H117	H	0.383580	0.090949	0.086004
	H118	H	0.618179	0.904282	0.095503
	H119	H	0.380050	0.902562	0.898003
	C120	C	0.377890	0.006871	0.618588
	C121	C	0.620831	0.990010	0.619461
	C122	C	0.621088	0.007005	0.375694
	C123	C	0.376275	0.990918	0.374953
	C124	C	0.618315	0.378857	0.006668
	C125	C	0.620768	0.621523	0.990028
	C126	C	0.378161	0.619490	0.006468
	C127	C	0.375293	0.375772	0.989122
	C128	C	0.007223	0.619759	0.378399
	C129	C	0.990312	0.621634	0.621427
	C130	C	0.007239	0.377762	0.620764
	C131	C	0.990234	0.376899	0.377695
	C132	C	0.876070	0.507561	0.121172
	C133	C	0.120341	0.489812	0.121550
	C134	C	0.119822	0.507527	0.878621
	C135	C	0.875996	0.491570	0.877159
	C136	C	0.119142	0.878969	0.505807
	C137	C	0.121810	0.122014	0.489509
	C138	C	0.879232	0.118255	0.505409
	C139	C	0.876046	0.874726	0.489419
	C140	C	0.507308	0.120340	0.876823
	C141	C	0.489763	0.121698	0.119940
	C142	C	0.507382	0.878486	0.118522
	C143	C	0.490833	0.876769	0.875938
	C144	C	0.378744	0.884287	0.673850
	C145	C	0.620967	0.112489	0.676188
	C146	C	0.616677	0.884381	0.319357
	C147	C	0.381491	0.114131	0.321361
	C148	C	0.673917	0.380905	0.883419
	C149	C	0.676721	0.621238	0.112977
	C150	C	0.321749	0.616653	0.883592
	C151	C	0.320458	0.377767	0.112806
	C152	C	0.884217	0.673814	0.379766
	C153	C	0.112660	0.679126	0.620575
	C154	C	0.885394	0.319049	0.619912
	C155	C	0.113433	0.322905	0.378997
	C156	C	0.884132	0.378964	0.675535
	C157	C	0.112932	0.621013	0.677583
	C158	C	0.884097	0.616105	0.322975
	C159	C	0.112731	0.379380	0.321239
	C160	C	0.379464	0.674832	0.883364
	C161	C	0.619776	0.678782	0.112567
	C162	C	0.616750	0.322736	0.883245
	C163	C	0.377154	0.320069	0.112079
	C164	C	0.674413	0.883713	0.376953
	C165	C	0.679052	0.112227	0.618915
	C166	C	0.320677	0.884353	0.615667
	C167	C	0.322708	0.113958	0.377392
	C168	C	0.877681	0.384473	0.175015
	C169	C	0.119460	0.612322	0.177695
	C170	C	0.116986	0.385263	0.821104
	C171	C	0.879366	0.613762	0.821240
	C172	C	0.173207	0.880500	0.382091
	C173	C	0.178644	0.120735	0.612346
	C174	C	0.823686	0.116013	0.382113
	C175	C	0.819512	0.876724	0.612042
	C176	C	0.384585	0.174432	0.877477
	C177	C	0.612149	0.179458	0.118954
	C178	C	0.385034	0.820993	0.116956
	C179	C	0.613097	0.821407	0.876521
	C180	C	0.383655	0.880686	0.172374
	C181	C	0.612414	0.121447	0.175851
	C182	C	0.384917	0.117199	0.820172
	C183	C	0.613094	0.879261	0.819641
	C184	C	0.880326	0.175139	0.383077
	C185	C	0.121281	0.178169	0.612543
	C186	C	0.117129	0.821373	0.383174
	C187	C	0.878180	0.820509	0.612972
	C188	C	0.174487	0.384839	0.878271
	C189	C	0.178667	0.611649	0.121304
	C190	C	0.818644	0.385407	0.118288
	C191	C	0.821083	0.613530	0.878307
	C192	C	0.401872	0.092094	0.595862
	C193	C	0.596411	0.905117	0.595731
	C194	C	0.600601	0.092788	0.398653
	C195	C	0.397086	0.905082	0.396719
	C196	C	0.595358	0.401807	0.092253
	C197	C	0.597409	0.597762	0.904192
	C198	C	0.401605	0.597073	0.092097
	C199	C	0.397203	0.397744	0.903261
	C200	C	0.092949	0.598285	0.400777
	C201	C	0.904817	0.598120	0.598259
	C202	C	0.092686	0.401862	0.598037
	C203	C	0.904749	0.398344	0.400354
	C204	C	0.899699	0.593218	0.099368
	C205	C	0.096618	0.404638	0.098319
	C206	C	0.098310	0.592394	0.902182
	C207	C	0.897663	0.406165	0.899758
	C208	C	0.097225	0.902373	0.591493
	C209	C	0.098278	0.099043	0.403558
	C210	C	0.902175	0.095389	0.590776
	C211	C	0.898301	0.896477	0.403454
	C212	C	0.592978	0.098926	0.900083
	C213	C	0.404201	0.098177	0.097167
	C214	C	0.592959	0.901479	0.096325
	C215	C	0.405289	0.898757	0.898934
	Zn216	Zn	0.499400	-0.001289	0.748598
	Zn217	Zn	0.498719	-0.000465	0.247667
	Zn218	Zn	0.747720	0.500183	-0.001112
	Zn219	Zn	0.248778	0.497889	-0.000959
	Zn220	Zn	-0.001103	0.748836	0.498779
	Zn221	Zn	-0.000079	0.248917	0.498230
	Zn222	Zn	-0.001166	0.499417	0.749448
	Zn223	Zn	-0.001663	0.498442	0.250149
	Zn224	Zn	0.499659	0.749126	-0.002300
	Zn225	Zn	0.497801	0.248929	-0.002338
	Zn226	Zn	0.749035	-0.002710	0.497427
	Zn227	Zn	0.248366	-0.000281	0.496639
	N228	N	0.413483	0.961468	0.675826
	N229	N	0.585572	0.035682	0.676785
	N230	N	0.584408	0.961965	0.318512
	N231	N	0.414207	0.036687	0.319867
	N232	N	0.674893	0.415119	0.961101
	N233	N	0.677727	0.586626	0.035586
	N234	N	0.320808	0.583033	0.961129
	N235	N	0.318797	0.411491	0.035350
	N236	N	0.961659	0.676318	0.413353
	N237	N	0.035353	0.679520	0.586330
	N238	N	0.962940	0.318181	0.586497
	N239	N	0.036199	0.320990	0.413135
	N240	N	0.961089	0.414481	0.676377
	N241	N	0.035732	0.586250	0.678510
	N242	N	0.961634	0.583058	0.322069
	N243	N	0.035215	0.412054	0.320018
	N244	N	0.413805	0.676589	0.960895
	N245	N	0.585489	0.678841	0.035033
	N246	N	0.582949	0.321269	0.960864
	N247	N	0.410597	0.318632	0.034387
	N248	N	0.677159	0.960953	0.411347
	N249	N	0.679145	0.035023	0.584400
	N250	N	0.320119	0.961704	0.582139
	N251	N	0.319533	0.036413	0.410296
	N252	N	0.912839	0.461489	0.176763
	N253	N	0.083832	0.535652	0.177912
	N254	N	0.083761	0.462245	0.821072
	N255	N	0.912940	0.536819	0.820377
	N256	N	0.174427	0.915777	0.459264
	N257	N	0.179165	0.086599	0.534619
	N258	N	0.822794	0.081275	0.459247
	N259	N	0.818016	0.909724	0.534300
	N260	N	0.461714	0.176579	0.911932
	N261	N	0.534660	0.179953	0.085193
	N262	N	0.462759	0.819493	0.084382
	N263	N	0.535860	0.819633	0.910647
	N264	N	0.460842	0.915943	0.173358
	N265	N	0.535348	0.086215	0.176600
	N266	N	0.462490	0.084371	0.819601
	N267	N	0.536142	0.913130	0.819211
	N268	N	0.914350	0.176351	0.460740
	N269	N	0.086765	0.179011	0.535189
	N270	N	0.084050	0.820400	0.461079
	N271	N	0.912574	0.819189	0.535655
	N272	N	0.176441	0.461776	0.913505
	N273	N	0.179434	0.534397	0.087129
	N274	N	0.817893	0.462917	0.085446
	N275	N	0.819028	0.536667	0.912460
	O276	O	0.934988	-0.116808	1.013086
	H277	H	0.926384	-0.116915	1.012177
	H278	H	0.939683	-0.110831	1.023844
	O279	O	0.501380	0.471891	0.451153
	H280	H	0.502244	0.478841	0.450210
	H281	H	0.498146	0.471906	0.458040
	O282	O	1.002303	0.935156	0.077550
	H283	H	1.002652	0.928227	0.075672
	H284	H	1.006102	0.939921	0.079315
	O285	O	1.010670	-0.010644	1.010168
	H286	H	0.999771	-0.016920	1.016612
	H287	H	1.001530	0.003435	1.005418
	O288	O	0.471302	0.402968	0.463667
	H289	H	0.452060	0.403354	0.463557
	H290	H	0.479045	0.389003	0.472599
	O291	O	0.533485	0.600421	0.478118
	H292	H	0.524076	0.598495	0.476209
	H293	H	0.545642	0.596811	0.473860
	O294	O	0.521256	0.568409	0.543107
	H295	H	0.517975	0.567587	0.546133
	H296	H	0.522461	0.565739	0.545305
	O297	O	0.010059	-0.019830	0.971281
	H298	H	0.008596	-0.023437	0.969888
	H299	H	0.006038	-0.009898	0.973337
	O300	O	-0.030878	0.982150	0.021570
	H301	H	-0.020387	0.977945	0.021223
	H302	H	-0.028609	0.979873	0.013757
	O303	O	0.982459	1.068256	-0.127788
	H304	H	0.978400	1.074840	-0.131278
	H305	H	0.988287	1.075828	-0.121447
	O306	O	-0.004412	0.972036	1.071120
	H307	H	0.001784	0.974716	1.078237
	H308	H	-0.007147	0.959850	1.081563
	O309	O	0.527023	0.434593	0.483979
	H310	H	0.533265	0.449622	0.482793
	H311	H	0.519897	0.425083	0.487491
	O312	O	0.076884	0.122508	0.073968
	H313	H	0.079368	0.115882	0.075862
	H314	H	0.067886	0.129708	0.070617
	O315	O	1.015618	0.063971	-0.000529
	H316	H	1.016517	0.065845	-0.009401
	H317	H	1.021164	0.052949	0.003442
	O318	O	1.018741	1.092627	1.063071
	H319	H	1.031359	1.101107	1.069985
	H320	H	1.020393	1.087010	1.067985
	O321	O	0.504541	0.434087	1.580403
	H322	H	0.509309	0.436955	1.581387
	H323	H	0.505777	0.437691	1.586600
	O324	O	0.478630	0.525072	0.489717
	H325	H	0.488350	0.518416	0.492312
	H326	H	0.489116	0.530466	0.493350
	O327	O	-0.528820	0.499156	-0.564968
	H328	H	-0.524952	0.500655	-0.562022
	H329	H	-0.537134	0.508202	-0.565152
	O330	O	0.465457	0.542309	0.510905
	H331	H	0.469856	0.543880	0.510062
	H332	H	0.459518	0.547397	0.511846
	O333	O	0.100531	0.979843	1.009443
	H334	H	0.100264	0.979637	1.005840
	H335	H	0.098444	0.983350	1.000380
	O336	O	-0.003350	0.064577	0.070403
	H337	H	0.004423	0.068348	0.064389
	H338	H	0.003979	0.061857	0.062089
	O339	O	0.468136	0.540605	0.530900
	H340	H	0.470123	0.548184	0.532362
	H341	H	0.475092	0.521104	0.523567
	O342	O	1.013528	0.898003	0.862090
	H343	H	1.019292	0.892530	0.858579
	H344	H	1.013200	0.904529	0.848619
	O345	O	1.050198	0.925453	-0.048227
	H346	H	1.040762	0.917720	-0.048243
	H347	H	1.045703	0.923465	-0.048659
	O348	O	0.473479	0.540041	0.504994
	H349	H	0.475554	0.550231	0.500999
	H350	H	0.468637	0.534790	0.490099
	O351	O	0.872931	-0.050133	1.087615
	H352	H	0.878089	-0.062241	1.090919
	H353	H	0.864415	-0.050950	1.102054
	O354	O	0.540014	0.481667	0.488746
	H355	H	0.547185	0.479411	0.488163
	H356	H	0.531770	0.490700	0.487808
	O357	O	0.888004	-0.178823	0.753808
	H358	H	0.871880	-0.174139	0.752173
	H359	H	0.884840	-0.166162	0.754412
	O360	O	0.492898	0.440597	0.486661
	H361	H	0.486951	0.442871	0.484080
	H362	H	0.486961	0.434732	0.487735
	O363	O	0.610954	0.476792	0.445601
	H364	H	0.613148	0.468870	0.429437
	H365	H	0.601362	0.470883	0.446991
	O366	O	1.449148	0.442561	0.465239
	H367	H	1.456467	0.443173	0.473387
	H368	H	1.444863	0.440577	0.461716
	O369	O	0.916878	0.005597	0.869313
	H370	H	0.928888	0.003293	0.863586
	H371	H	0.912064	0.004285	0.876290
	O372	O	-0.069330	0.113200	-0.137012
	H373	H	-0.074967	0.120886	-0.133211
	H374	H	-0.074811	0.131455	-0.139905
	O375	O	0.983101	-0.080100	0.033458
	H376	H	0.979250	-0.082772	0.026423
	H377	H	0.988289	-0.078487	0.032835
	O378	O	0.515882	0.573577	0.610141
	H379	H	0.524114	0.585377	0.611575
	H380	H	0.517563	0.571847	0.601602
	O381	O	0.006588	1.045390	1.040458
	H382	H	-0.003714	1.039868	1.036007
	H383	H	0.018496	1.039967	1.041105
