data_Molecule from HDF5

_cell_length_a		16.174561
_cell_length_b		16.354159
_cell_length_c		16.333508
_cell_angle_alpha	89.953087
_cell_angle_beta	90.018296
_cell_angle_gamma	89.415104
_symmetry_space_group_name_H-M	'P 1'
_symmetry_Int_Tables_number		1

loop_
	_symmetry_equiv_pos_as_xyz
	x,y,z

loop_
	_atom_site_label
	_atom_site_type_symbol
	_atom_site_fract_x
	_atom_site_fract_y
	_atom_site_fract_z
	H0	H	0.398853	0.840793	0.708028
	H1	H	0.601723	0.162697	0.707545
	H2	H	0.603936	0.841540	0.271001
	H3	H	0.396843	0.164000	0.273112
	H4	H	0.716380	0.401150	0.828279
	H5	H	0.712982	0.598650	0.154628
	H6	H	0.281374	0.604501	0.828494
	H7	H	0.288182	0.407044	0.155088
	H8	H	0.839026	0.718762	0.387704
	H9	H	0.165596	0.713018	0.590227
	H10	H	0.836983	0.284820	0.591929
	H11	H	0.164226	0.283972	0.391025
	H12	H	0.837591	0.399826	0.708141
	H13	H	0.164553	0.598737	0.707034
	H14	H	0.836632	0.600947	0.277087
	H15	H	0.163723	0.398824	0.274707
	H16	H	0.393628	0.723489	0.829700
	H17	H	0.599415	0.718761	0.152798
	H18	H	0.602993	0.283526	0.829106
	H19	H	0.398633	0.285477	0.152380
	H20	H	0.718499	0.839954	0.388537
	H21	H	0.714872	0.164219	0.589154
	H22	H	0.289051	0.837640	0.587475
	H23	H	0.282663	0.163811	0.391447
	H24	H	0.899083	0.338785	0.208234
	H25	H	0.099128	0.663193	0.208231
	H26	H	0.103767	0.339209	0.775482
	H27	H	0.894963	0.661713	0.771048
	H28	H	0.218369	0.899218	0.327208
	H29	H	0.213909	0.097079	0.652677
	H30	H	0.783936	0.102050	0.327093
	H31	H	0.784001	0.900706	0.652309
	H32	H	0.336384	0.221662	0.887612
	H33	H	0.663397	0.215704	0.091140
	H34	H	0.335582	0.788895	0.092454
	H35	H	0.661813	0.783002	0.889186
	H36	H	0.336853	0.904252	0.206257
	H37	H	0.662710	0.101250	0.205355
	H38	H	0.336778	0.106069	0.771100
	H39	H	0.662442	0.898471	0.772697
	H40	H	0.896855	0.220398	0.328507
	H41	H	0.104143	0.218346	0.650122
	H42	H	0.104578	0.781051	0.327736
	H43	H	0.900249	0.782946	0.652052
	H44	H	0.219572	0.340647	0.891672
	H45	H	0.210913	0.665783	0.088910
	H46	H	0.785816	0.338277	0.090747
	H47	H	0.781981	0.663501	0.891523
	H48	H	0.401239	0.118352	0.581371
	H49	H	0.594600	0.882397	0.592302
	H50	H	0.576995	0.117426	0.384359
	H51	H	0.408565	0.885511	0.394182
	H52	H	0.600667	0.404818	0.110549
	H53	H	0.582758	0.596008	0.876730
	H54	H	0.410870	0.599841	0.105708
	H55	H	0.406813	0.403815	0.872084
	H56	H	0.118514	0.591796	0.400860
	H57	H	0.887180	0.589658	0.575699
	H58	H	0.114631	0.410178	0.577010
	H59	H	0.883881	0.411978	0.398898
	H60	H	0.117349	0.410969	0.587835
	H61	H	0.884293	0.589177	0.585648
	H62	H	0.117356	0.587119	0.397487
	H63	H	0.881973	0.408187	0.396469
	H64	H	0.401686	0.601151	0.109039
	H65	H	0.593450	0.596955	0.873922
	H66	H	0.590495	0.416405	0.103400
	H67	H	0.404912	0.418249	0.876041
	H68	H	0.587068	0.111226	0.414974
	H69	H	0.580867	0.891456	0.578815
	H70	H	0.409182	0.118004	0.585938
	H71	H	0.412866	0.886179	0.394643
	H72	H	0.903675	0.616098	0.079989
	H73	H	0.099009	0.386937	0.075900
	H74	H	0.084142	0.614889	0.899166
	H75	H	0.900052	0.383875	0.900413
	H76	H	0.086084	0.901035	0.604327
	H77	H	0.098557	0.087217	0.372857
	H78	H	0.906142	0.095032	0.606972
	H79	H	0.911156	0.907035	0.374902
	H80	H	0.616571	0.090763	0.893720
	H81	H	0.386339	0.089343	0.074721
	H82	H	0.613880	0.908691	0.072355
	H83	H	0.386879	0.924062	0.898435
	H84	H	0.615691	0.915902	0.084513
	H85	H	0.380807	0.092805	0.090695
	H86	H	0.615726	0.096734	0.900701
	H87	H	0.379465	0.908597	0.890280
	H88	H	0.909430	0.087857	0.602872
	H89	H	0.083990	0.089481	0.377189
	H90	H	0.101769	0.900839	0.609091
	H91	H	0.908768	0.909690	0.374801
	H92	H	0.090543	0.615911	0.901740
	H93	H	0.099799	0.382380	0.092065
	H94	H	0.903372	0.618745	0.088479
	H95	H	0.913677	0.383662	0.890283
	H96	H	0.409647	0.115079	0.577077
	H97	H	0.599834	0.886315	0.572708
	H98	H	0.608169	0.123516	0.392336
	H99	H	0.410077	0.885988	0.398323
	H100	H	0.584240	0.401344	0.106449
	H101	H	0.588985	0.586823	0.877571
	H102	H	0.404224	0.591525	0.105486
	H103	H	0.418333	0.411789	0.878409
	H104	H	0.119993	0.592126	0.395177
	H105	H	0.883021	0.597709	0.580475
	H106	H	0.119002	0.401138	0.582964
	H107	H	0.883505	0.408382	0.401149
	H108	H	0.910313	0.615272	0.085262
	H109	H	0.084472	0.387217	0.085179
	H110	H	0.089097	0.617714	0.895134
	H111	H	0.914903	0.389907	0.906081
	H112	H	0.095024	0.914078	0.602763
	H113	H	0.091159	0.100757	0.370745
	H114	H	0.913836	0.094881	0.603906
	H115	H	0.912061	0.910415	0.376016
	H116	H	0.613420	0.088149	0.902295
	H117	H	0.380675	0.104827	0.078408
	H118	H	0.619407	0.902632	0.084336
	H119	H	0.384236	0.909273	0.909088
	C120	C	0.378342	0.009990	0.611190
	C121	C	0.621696	0.993211	0.611285
	C122	C	0.621776	0.010774	0.367353
	C123	C	0.378789	0.992847	0.366877
	C124	C	0.622048	0.378450	-0.000447
	C125	C	0.618949	0.622287	0.983138
	C126	C	0.375621	0.626897	-0.000457
	C127	C	0.379331	0.381704	0.982476
	C128	C	0.010056	0.620805	0.368810
	C129	C	0.992881	0.621156	0.611273
	C130	C	0.009195	0.378304	0.612291
	C131	C	0.991357	0.378986	0.369349
	C132	C	0.877735	0.509199	0.113309
	C133	C	0.121536	0.493397	0.113137
	C134	C	0.120825	0.509929	0.869425
	C135	C	0.877765	0.492463	0.868951
	C136	C	0.124249	0.876513	0.497981
	C137	C	0.121112	0.121265	0.480841
	C138	C	0.878861	0.123255	0.497918
	C139	C	0.880102	0.878992	0.481842
	C140	C	0.507737	0.123430	0.868314
	C141	C	0.490964	0.124004	0.111011
	C142	C	0.508153	0.881144	0.110944
	C143	C	0.490976	0.881605	0.868931
	C144	C	0.379598	0.888625	0.668814
	C145	C	0.620899	0.114637	0.668544
	C146	C	0.622524	0.889291	0.310273
	C147	C	0.377868	0.115342	0.311239
	C148	C	0.678559	0.380806	0.877185
	C149	C	0.674998	0.619543	0.105629
	C150	C	0.319095	0.625186	0.877376
	C151	C	0.324478	0.385078	0.105614
	C152	C	0.887285	0.678995	0.369372
	C153	C	0.116258	0.675682	0.610265
	C154	C	0.886159	0.322533	0.611464
	C155	C	0.115286	0.322393	0.370851
	C156	C	0.886223	0.380066	0.669124
	C157	C	0.115603	0.619023	0.668586
	C158	C	0.886135	0.620463	0.314119
	C159	C	0.114630	0.379148	0.312947
	C160	C	0.375155	0.684175	0.877912
	C161	C	0.618487	0.679316	0.104730
	C162	C	0.622004	0.322329	0.877502
	C163	C	0.379247	0.324244	0.104142
	C164	C	0.679736	0.888718	0.368666
	C165	C	0.677408	0.115362	0.609729
	C166	C	0.324811	0.887023	0.608811
	C167	C	0.320759	0.115056	0.369768
	C168	C	0.879620	0.387415	0.169650
	C169	C	0.118332	0.615241	0.169147
	C170	C	0.122738	0.388019	0.813320
	C171	C	0.876213	0.613866	0.810832
	C172	C	0.180321	0.878818	0.375862
	C173	C	0.177001	0.118244	0.603519
	C174	C	0.821531	0.122464	0.376130
	C175	C	0.822802	0.880431	0.603833
	C176	C	0.385509	0.182693	0.868027
	C177	C	0.614145	0.178522	0.110164
	C178	C	0.384710	0.826445	0.111154
	C179	C	0.613222	0.822355	0.869503
	C180	C	0.385466	0.883782	0.167990
	C181	C	0.614015	0.121422	0.166984
	C182	C	0.385531	0.125094	0.810155
	C183	C	0.613643	0.879658	0.811494
	C184	C	0.878175	0.181206	0.376784
	C185	C	0.122054	0.178427	0.602356
	C186	C	0.123521	0.820092	0.375980
	C187	C	0.880416	0.821657	0.603515
	C188	C	0.180376	0.388624	0.871150
	C189	C	0.174675	0.616416	0.110227
	C190	C	0.823007	0.386995	0.111070
	C191	C	0.820171	0.614667	0.870770
	C192	C	0.400352	0.095107	0.588188
	C193	C	0.598553	0.908775	0.588014
	C194	C	0.597600	0.095376	0.390455
	C195	C	0.403382	0.907858	0.389137
	C196	C	0.598684	0.400860	0.084802
	C197	C	0.595280	0.599746	0.897890
	C198	C	0.398742	0.604135	0.084738
	C199	C	0.402991	0.404527	0.897628
	C200	C	0.096203	0.597199	0.391300
	C201	C	0.907011	0.598726	0.587443
	C202	C	0.094809	0.400856	0.589282
	C203	C	0.905472	0.402579	0.392305
	C204	C	0.899551	0.594605	0.091148
	C205	C	0.100649	0.407630	0.090788
	C206	C	0.095377	0.594362	0.892159
	C207	C	0.902414	0.407970	0.892043
	C208	C	0.101072	0.898827	0.583339
	C209	C	0.097770	0.098951	0.395710
	C210	C	0.902940	0.099495	0.582612
	C211	C	0.903866	0.902152	0.397327
	C212	C	0.593233	0.098804	0.892080
	C213	C	0.404690	0.101995	0.088090
	C214	C	0.594007	0.902874	0.087331
	C215	C	0.405661	0.906765	0.892334
	Zn216	Zn	0.499710	0.001855	0.739748
	Zn217	Zn	0.500074	0.002518	0.238005
	Zn218	Zn	0.749319	0.500764	-0.008591
	Zn219	Zn	0.249721	0.502995	-0.008940
	Zn220	Zn	0.001946	0.748645	0.489322
	Zn221	Zn	0.000763	0.251014	0.489600
	Zn222	Zn	0.000188	0.500690	0.739805
	Zn223	Zn	-0.000029	0.500648	0.241460
	Zn224	Zn	0.498347	0.753449	-0.009306
	Zn225	Zn	0.500124	0.251346	-0.009807
	Zn226	Zn	0.750264	0.001640	0.489973
	Zn227	Zn	0.250550	0.000387	0.489474
	N228	N	0.411969	0.966024	0.670379
	N229	N	0.586957	0.037825	0.669687
	N230	N	0.587424	0.966155	0.309142
	N231	N	0.413201	0.038317	0.309331
	N232	N	0.678558	0.414982	0.954160
	N233	N	0.675197	0.584718	0.029027
	N234	N	0.319222	0.590281	0.954137
	N235	N	0.324343	0.420171	0.028974
	N236	N	0.965423	0.679550	0.402453
	N237	N	0.038761	0.676991	0.575402
	N238	N	0.963742	0.321181	0.576888
	N239	N	0.037596	0.322093	0.404997
	N240	N	0.963599	0.413939	0.669843
	N241	N	0.037561	0.585950	0.669484
	N242	N	0.963471	0.584843	0.313749
	N243	N	0.036776	0.413614	0.311829
	N244	N	0.409211	0.685686	0.955033
	N245	N	0.584119	0.680896	0.027501
	N246	N	0.587962	0.320508	0.954584
	N247	N	0.412420	0.321995	0.026623
	N248	N	0.679426	0.965126	0.403605
	N249	N	0.678167	0.038712	0.575064
	N250	N	0.323701	0.963554	0.573840
	N251	N	0.321477	0.038237	0.403703
	N252	N	0.912982	0.464428	0.171043
	N253	N	0.086482	0.537489	0.171334
	N254	N	0.086305	0.464484	0.812207
	N255	N	0.911380	0.537002	0.809407
	N256	N	0.180801	0.913245	0.452715
	N257	N	0.176443	0.083235	0.526945
	N258	N	0.821680	0.087124	0.452562
	N259	N	0.822462	0.915458	0.527357
	N260	N	0.462715	0.181785	0.903315
	N261	N	0.536502	0.180028	0.075897
	N262	N	0.462073	0.824799	0.076373
	N263	N	0.535883	0.823327	0.904225
	N264	N	0.463215	0.916984	0.167891
	N265	N	0.536282	0.087986	0.167452
	N266	N	0.462583	0.088865	0.810392
	N267	N	0.536571	0.915974	0.811308
	N268	N	0.912977	0.181768	0.453643
	N269	N	0.087846	0.180361	0.525206
	N270	N	0.089509	0.818484	0.453026
	N271	N	0.915385	0.820713	0.526700
	N272	N	0.179267	0.465399	0.905222
	N273	N	0.176770	0.539558	0.076049
	N274	N	0.821684	0.463710	0.076662
	N275	N	0.820983	0.538197	0.905981
	O276	O	1.107261	-0.027366	1.024478
	H277	H	1.102130	-0.028692	1.018626
	H278	H	1.102083	-0.026407	1.024685
	O279	O	0.557443	0.504206	0.508928
	H280	H	0.561953	0.490276	0.510620
	H281	H	0.564270	0.499499	0.492236
	O282	O	0.538964	0.586145	0.394972
	H283	H	0.541364	0.583913	0.383834
	H284	H	0.546103	0.572927	0.402948
	O285	O	0.487147	0.603184	0.435236
	H286	H	0.487471	0.604228	0.436821
	H287	H	0.501122	0.605312	0.427472
	O288	O	0.492347	0.430228	0.559258
	H289	H	0.494364	0.421784	0.548329
	H290	H	0.490460	0.431336	0.566332
	O291	O	0.136215	0.019907	0.930070
	H292	H	0.149823	0.014875	0.927809
	H293	H	0.131970	0.019684	0.928863
	O294	O	1.118126	0.970455	0.064436
	H295	H	1.114565	0.969533	0.074564
	H296	H	1.117049	0.982686	0.072987
	O297	O	0.894973	1.144525	-0.105132
	H298	H	0.895604	1.139235	-0.102973
	H299	H	0.904254	1.137020	-0.114223
	O300	O	0.390700	0.641899	0.418911
	H301	H	0.392960	0.644037	0.401996
	H302	H	0.390227	0.647146	0.427746
	O303	O	0.515944	0.464882	0.386577
	H304	H	0.519021	0.479729	0.373720
	H305	H	0.511120	0.459809	0.392831
	O306	O	0.038561	0.885607	1.019348
	H307	H	0.042221	0.884405	1.024828
	H308	H	0.030905	0.888306	1.014139
	O309	O	0.490192	0.373846	0.448219
	H310	H	0.487482	0.371607	0.450714
	H311	H	0.484697	0.386712	0.440418
	O312	O	0.993458	1.075187	1.035798
	H313	H	0.994544	1.087861	1.029071
	H314	H	0.997632	1.077692	1.029760
	O315	O	0.833554	0.946225	-0.014460
	H316	H	0.839210	0.958327	-0.015079
	H317	H	0.823959	0.942016	-0.006497
	O318	O	0.874516	-0.177738	1.092698
	H319	H	0.883275	-0.168607	1.099761
	H320	H	0.882397	-0.177682	1.088444
	O321	O	0.432156	0.502083	0.463760
	H322	H	0.428573	0.505253	0.464786
	H323	H	0.428050	0.504889	0.459660
	O324	O	-0.059933	1.022849	1.109397
	H325	H	-0.051518	1.018275	1.118706
	H326	H	-0.057126	1.024402	1.102000
	O327	O	0.103153	0.965537	1.000030
	H328	H	0.105288	0.964607	1.013741
	H329	H	0.105466	0.965108	0.995490
	O330	O	-0.448551	-0.416221	-0.525901
	H331	H	-0.448422	-0.416720	-0.515641
	H332	H	-0.457451	-0.410172	-0.524848
	O333	O	0.520469	0.434961	0.542025
	H334	H	0.520463	0.441542	0.535503
	H335	H	0.521238	0.435587	0.542192
	O336	O	0.087819	-0.016730	0.049930
	H337	H	0.083134	-0.017410	0.054795
	H338	H	0.096269	-0.006950	0.056525
	O339	O	-0.137283	0.065594	-0.172583
	H340	H	-0.154514	0.059618	-0.172489
	H341	H	-0.141357	0.073122	-0.191956
	O342	O	0.981640	0.018289	0.863073
	H343	H	0.985686	0.011754	0.863297
	H344	H	0.990377	0.015815	0.854856
	O345	O	-0.056233	0.887639	1.004931
	H346	H	-0.047571	0.889161	1.003160
	H347	H	-0.062109	0.883021	1.009572
	O348	O	0.614367	0.496628	0.483398
	H349	H	0.622495	0.509354	0.492375
	H350	H	0.612541	0.492955	0.477211
	O351	O	0.418999	0.409166	0.596809
	H352	H	0.414721	0.405832	0.601083
	H353	H	0.417864	0.395244	0.601778
	O354	O	-0.456775	1.605168	0.579635
	H355	H	-0.442363	1.609652	0.583368
	H356	H	-0.459233	1.614255	0.589534
	O357	O	0.588842	0.486030	0.628932
	H358	H	0.597161	0.484218	0.623765
	H359	H	0.599498	0.484885	0.621503
	O360	O	1.056309	0.019609	0.831904
	H361	H	1.070437	0.020138	0.836092
	H362	H	1.059776	0.027638	0.827120
	O363	O	0.539706	0.489127	0.521279
	H364	H	0.539296	0.499592	0.525447
	H365	H	0.532108	0.488094	0.505087
	O366	O	0.550537	0.452700	0.414126
	H367	H	0.566090	0.456703	0.424197
	H368	H	0.544715	0.458528	0.406184
	O369	O	1.073723	-0.010664	-0.099110
	H370	H	1.071307	-0.015137	-0.087304
	H371	H	1.083520	-0.020402	-0.095567
	O372	O	0.431522	0.597976	0.509033
	H373	H	0.435696	0.606083	0.510001
	H374	H	0.423731	0.597570	0.529694
	O375	O	1.007298	0.148831	1.022167
	H376	H	1.011418	0.155364	1.011334
	H377	H	0.996021	0.155242	1.016599
	O378	O	-0.051158	1.103389	-0.031733
	H379	H	-0.048573	1.100301	-0.041687
	H380	H	-0.047868	1.103082	-0.044650
	O381	O	-0.026594	1.173081	1.032030
	H382	H	-0.027225	1.169064	1.015483
	H383	H	-0.037360	1.186251	1.040537
	O384	O	1.037958	0.902611	-0.146023
	H385	H	1.039183	0.896078	-0.142592
	H386	H	1.053462	0.895528	-0.146002
	O387	O	0.955195	0.064556	1.109365
	H388	H	0.948838	0.058875	1.107109
	H389	H	0.946347	0.065568	1.107338
	O390	O	0.979181	0.892243	0.000825
	H391	H	0.983905	0.891316	0.002961
	H392	H	0.983268	0.908430	-0.002520
	O393	O	0.540767	0.455547	0.546489
	H394	H	0.546790	0.446423	0.552775
	H395	H	0.543022	0.457903	0.554395
