data_Molecule from HDF5

_cell_length_a		16.595433
_cell_length_b		16.443480
_cell_length_c		16.485066
_cell_angle_alpha	89.883380
_cell_angle_beta	89.957268
_cell_angle_gamma	89.773328
_symmetry_space_group_name_H-M	'P 1'
_symmetry_Int_Tables_number		1

loop_
	_symmetry_equiv_pos_as_xyz
	x,y,z

loop_
	_atom_site_label
	_atom_site_type_symbol
	_atom_site_fract_x
	_atom_site_fract_y
	_atom_site_fract_z
	H0	H	0.386483	0.840862	0.723122
	H1	H	0.592884	0.157583	0.729494
	H2	H	0.593175	0.843289	0.284320
	H3	H	0.379972	0.158438	0.284027
	H4	H	0.711195	0.389187	0.851244
	H5	H	0.705748	0.603334	0.165583
	H6	H	0.263648	0.604905	0.851321
	H7	H	0.263281	0.391039	0.164471
	H8	H	0.824458	0.719634	0.404022
	H9	H	0.143096	0.713653	0.604191
	H10	H	0.828780	0.275761	0.614325
	H11	H	0.140685	0.276282	0.398876
	H12	H	0.829379	0.391706	0.731342
	H13	H	0.140727	0.602299	0.725581
	H14	H	0.824351	0.602254	0.288210
	H15	H	0.141283	0.395467	0.285070
	H16	H	0.382053	0.719051	0.849842
	H17	H	0.590640	0.720515	0.165142
	H18	H	0.591383	0.278211	0.848732
	H19	H	0.381541	0.277015	0.164603
	H20	H	0.709989	0.844159	0.399730
	H21	H	0.711992	0.155964	0.617400
	H22	H	0.269318	0.841560	0.607163
	H23	H	0.262999	0.158376	0.399119
	H24	H	0.878111	0.341554	0.230837
	H25	H	0.081953	0.659871	0.220386
	H26	H	0.088802	0.341903	0.786103
	H27	H	0.879594	0.658120	0.787079
	H28	H	0.203694	0.899136	0.347092
	H29	H	0.206813	0.105830	0.663429
	H30	H	0.760351	0.109387	0.350347
	H31	H	0.761317	0.890267	0.663189
	H32	H	0.330395	0.222590	0.899768
	H33	H	0.642231	0.222872	0.113695
	H34	H	0.329618	0.781599	0.110017
	H35	H	0.643037	0.776460	0.901752
	H36	H	0.330040	0.897487	0.226152
	H37	H	0.641992	0.108721	0.231665
	H38	H	0.330451	0.105974	0.783966
	H39	H	0.643010	0.892753	0.783742
	H40	H	0.878434	0.222697	0.348778
	H41	H	0.089425	0.220791	0.664044
	H42	H	0.085920	0.784191	0.346219
	H43	H	0.881555	0.778993	0.664888
	H44	H	0.206359	0.341397	0.901650
	H45	H	0.203218	0.656604	0.109995
	H46	H	0.762428	0.340545	0.114863
	H47	H	0.762161	0.656707	0.901389
	H48	H	0.400940	0.112693	0.593537
	H49	H	0.573883	0.889005	0.593629
	H50	H	0.572114	0.110604	0.425048
	H51	H	0.397718	0.889447	0.419558
	H52	H	0.578725	0.414466	0.119354
	H53	H	0.575200	0.587915	0.894949
	H54	H	0.393289	0.591814	0.122400
	H55	H	0.395086	0.407314	0.893645
	H56	H	0.093980	0.586685	0.414255
	H57	H	0.870790	0.594348	0.593170
	H58	H	0.093813	0.417797	0.595998
	H59	H	0.871170	0.407871	0.415143
	H60	H	0.098051	0.407333	0.599052
	H61	H	0.872134	0.586453	0.595379
	H62	H	0.099644	0.593936	0.405029
	H63	H	0.875704	0.411600	0.426114
	H64	H	0.392532	0.587494	0.121499
	H65	H	0.573711	0.586173	0.895858
	H66	H	0.568486	0.415574	0.114682
	H67	H	0.392250	0.415084	0.894521
	H68	H	0.576379	0.113673	0.418869
	H69	H	0.573178	0.889734	0.592719
	H70	H	0.391151	0.114870	0.591324
	H71	H	0.391712	0.886559	0.417452
	H72	H	0.891254	0.612066	0.097008
	H73	H	0.073034	0.385356	0.095973
	H74	H	0.074746	0.614626	0.912180
	H75	H	0.891094	0.385879	0.923003
	H76	H	0.079071	0.905473	0.621213
	H77	H	0.075506	0.080864	0.395620
	H78	H	0.896624	0.086665	0.617898
	H79	H	0.895901	0.913490	0.394933
	H80	H	0.597510	0.085517	0.917370
	H81	H	0.376503	0.085402	0.095880
	H82	H	0.599091	0.911924	0.098108
	H83	H	0.373751	0.913114	0.911903
	H84	H	0.599497	0.908192	0.095043
	H85	H	0.374372	0.090296	0.095665
	H86	H	0.599098	0.088690	0.916744
	H87	H	0.371741	0.904897	0.912983
	H88	H	0.898771	0.083306	0.616077
	H89	H	0.067404	0.090764	0.395243
	H90	H	0.080482	0.908725	0.621233
	H91	H	0.897033	0.911825	0.394554
	H92	H	0.070731	0.610481	0.919143
	H93	H	0.075373	0.385079	0.094471
	H94	H	0.894627	0.610643	0.096257
	H95	H	0.898916	0.385081	0.912579
	H96	H	0.394489	0.116179	0.600463
	H97	H	0.574883	0.888775	0.592635
	H98	H	0.568907	0.111542	0.417580
	H99	H	0.397292	0.886916	0.412611
	H100	H	0.571193	0.405617	0.119976
	H101	H	0.573288	0.588373	0.895582
	H102	H	0.396711	0.588683	0.120520
	H103	H	0.399967	0.412997	0.896390
	H104	H	0.097124	0.598293	0.417155
	H105	H	0.869066	0.591781	0.600727
	H106	H	0.093956	0.409172	0.588289
	H107	H	0.874580	0.419395	0.417077
	H108	H	0.892487	0.610634	0.093656
	H109	H	0.074989	0.384179	0.097257
	H110	H	0.079202	0.613367	0.920127
	H111	H	0.903239	0.391048	0.923381
	H112	H	0.076790	0.908037	0.619317
	H113	H	0.078986	0.092047	0.390414
	H114	H	0.900683	0.087218	0.616770
	H115	H	0.895034	0.912672	0.393954
	H116	H	0.597297	0.088039	0.919521
	H117	H	0.376725	0.088224	0.090955
	H118	H	0.598081	0.912250	0.093032
	H119	H	0.375536	0.909270	0.919336
	C120	C	0.365182	0.009643	0.626696
	C121	C	0.608216	0.991940	0.628204
	C122	C	0.606303	0.008719	0.386577
	C123	C	0.363477	0.992190	0.384181
	C124	C	0.606898	0.377851	0.014992
	C125	C	0.605998	0.619690	0.999602
	C126	C	0.363168	0.620827	0.016765
	C127	C	0.363724	0.377922	0.998634
	C128	C	-0.008121	0.623457	0.382794
	C129	C	0.975099	0.620772	0.626879
	C130	C	-0.007322	0.378073	0.628046
	C131	C	0.976653	0.379520	0.385550
	C132	C	0.861500	0.506862	0.128575
	C133	C	0.104273	0.490333	0.126963
	C134	C	0.106754	0.508319	0.884880
	C135	C	0.864229	0.491137	0.886578
	C136	C	0.107545	0.878288	0.514572
	C137	C	0.106197	0.120907	0.497889
	C138	C	0.864256	0.120706	0.514189
	C139	C	0.864156	0.879388	0.498405
	C140	C	0.494865	0.120734	0.884882
	C141	C	0.478511	0.121588	0.128045
	C142	C	0.495182	0.879549	0.127230
	C143	C	0.477504	0.876894	0.883731
	C144	C	0.366482	0.889082	0.684284
	C145	C	0.611430	0.109967	0.689862
	C146	C	0.610773	0.890719	0.324771
	C147	C	0.361819	0.111216	0.324212
	C148	C	0.669449	0.373011	0.897567
	C149	C	0.666067	0.621895	0.117941
	C150	C	0.303861	0.623069	0.898289
	C151	C	0.303291	0.373527	0.117087
	C152	C	0.872175	0.680987	0.384082
	C153	C	0.095060	0.676392	0.625276
	C154	C	0.875411	0.316736	0.631487
	C155	C	0.093948	0.317882	0.381780
	C156	C	0.875669	0.374364	0.689792
	C157	C	0.093705	0.621178	0.685678
	C158	C	0.872131	0.622704	0.326387
	C159	C	0.094203	0.376939	0.324760
	C160	C	0.362424	0.680149	0.897764
	C161	C	0.608644	0.680238	0.118028
	C162	C	0.610242	0.317204	0.896492
	C163	C	0.362101	0.316482	0.116837
	C164	C	0.668632	0.890848	0.382348
	C165	C	0.670779	0.109090	0.633930
	C166	C	0.308281	0.889218	0.626691
	C167	C	0.303251	0.110976	0.381358
	C168	C	0.859820	0.388417	0.190087
	C169	C	0.102736	0.611058	0.183242
	C170	C	0.107939	0.389350	0.825475
	C171	C	0.860961	0.610176	0.826424
	C172	C	0.164513	0.879379	0.394778
	C173	C	0.166650	0.123671	0.616152
	C174	C	0.801743	0.125894	0.397043
	C175	C	0.802769	0.874473	0.616382
	C176	C	0.377458	0.182062	0.881788
	C177	C	0.595502	0.182639	0.131574
	C178	C	0.376726	0.821009	0.128654
	C179	C	0.595957	0.816883	0.882792
	C180	C	0.377172	0.878484	0.186658
	C181	C	0.595276	0.125746	0.190418
	C182	C	0.377572	0.124270	0.823790
	C183	C	0.595814	0.874697	0.824107
	C184	C	0.860262	0.182732	0.396258
	C185	C	0.108076	0.180837	0.616591
	C186	C	0.105729	0.822471	0.394183
	C187	C	0.862442	0.818660	0.617228
	C188	C	0.166431	0.389105	0.882843
	C189	C	0.163012	0.609526	0.128212
	C190	C	0.802509	0.387923	0.132238
	C191	C	0.802676	0.609517	0.883636
	C192	C	0.388616	0.092997	0.602400
	C193	C	0.581594	0.910483	0.600891
	C194	C	0.580070	0.090573	0.413088
	C195	C	0.388549	0.909267	0.409241
	C196	C	0.580407	0.404200	0.096610
	C197	C	0.581197	0.594526	0.917072
	C198	C	0.387162	0.596060	0.099753
	C199	C	0.388643	0.404250	0.916339
	C200	C	0.075083	0.599951	0.405679
	C201	C	0.892405	0.597457	0.603302
	C202	C	0.074118	0.403972	0.601884
	C203	C	0.895028	0.405565	0.411901
	C204	C	0.885802	0.589390	0.102919
	C205	C	0.081067	0.406733	0.103004
	C206	C	0.082128	0.591380	0.909894
	C207	C	0.890208	0.408856	0.912341
	C208	C	0.085111	0.900802	0.598737
	C209	C	0.081091	0.095398	0.415281
	C210	C	0.891011	0.093521	0.595804
	C211	C	0.888992	0.905374	0.416006
	C212	C	0.576674	0.094812	0.910686
	C213	C	0.397077	0.095593	0.101675
	C214	C	0.577538	0.903884	0.102525
	C215	C	0.395052	0.901975	0.907894
	Zn216	Zn	0.486610	0.000149	0.755426
	Zn217	Zn	0.486420	0.000583	0.257030
	Zn218	Zn	0.734849	0.498020	0.006786
	Zn219	Zn	0.234504	0.498563	0.007551
	Zn220	Zn	-0.015724	0.750604	0.505640
	Zn221	Zn	-0.015388	0.249623	0.505970
	Zn222	Zn	-0.016164	0.500046	0.756757
	Zn223	Zn	-0.017160	0.499531	0.255666
	Zn224	Zn	0.485823	0.749168	0.007262
	Zn225	Zn	0.486694	0.249937	0.006071
	Zn226	Zn	0.735313	0.000189	0.506813
	Zn227	Zn	0.235735	0.000573	0.506011
	N228	N	0.400869	0.964977	0.684673
	N229	N	0.573408	0.035923	0.686479
	N230	N	0.572497	0.964873	0.327299
	N231	N	0.398563	0.036234	0.325728
	N232	N	0.667385	0.410050	0.972250
	N233	N	0.664542	0.584739	0.043262
	N234	N	0.304260	0.586811	0.973335
	N235	N	0.303947	0.410733	0.042405
	N236	N	0.947948	0.681900	0.418007
	N237	N	0.020281	0.676706	0.589590
	N238	N	0.949367	0.318830	0.593801
	N239	N	0.019895	0.319487	0.418753
	N240	N	0.949513	0.411752	0.687930
	N241	N	0.018019	0.587658	0.687111
	N242	N	0.947426	0.587845	0.325097
	N243	N	0.020135	0.414665	0.327148
	N244	N	0.398866	0.678854	0.972551
	N245	N	0.572058	0.679056	0.043390
	N246	N	0.571822	0.320340	0.970305
	N247	N	0.399010	0.319030	0.042168
	N248	N	0.666008	0.965244	0.420003
	N249	N	0.668853	0.034683	0.596280
	N250	N	0.307076	0.965274	0.591831
	N251	N	0.304465	0.036038	0.418071
	N252	N	0.895876	0.463495	0.188050
	N253	N	0.066961	0.535802	0.182777
	N254	N	0.071556	0.464550	0.826587
	N255	N	0.898396	0.535603	0.827946
	N256	N	0.166193	0.913050	0.470948
	N257	N	0.165824	0.087398	0.541101
	N258	N	0.803950	0.088104	0.471563
	N259	N	0.803782	0.911680	0.541547
	N260	N	0.451449	0.180093	0.919036
	N261	N	0.521817	0.180369	0.093696
	N262	N	0.451301	0.821354	0.092628
	N263	N	0.521354	0.817914	0.918968
	N264	N	0.451934	0.914093	0.186125
	N265	N	0.521311	0.088481	0.188366
	N266	N	0.451724	0.086960	0.825599
	N267	N	0.521182	0.911215	0.824461
	N268	N	0.898457	0.179537	0.470075
	N269	N	0.071450	0.179428	0.541868
	N270	N	0.071292	0.821320	0.469924
	N271	N	0.900141	0.821769	0.543069
	N272	N	0.165879	0.464151	0.919085
	N273	N	0.164423	0.533295	0.094239
	N274	N	0.803378	0.462471	0.094873
	N275	N	0.804377	0.534332	0.920199
	O276	O	0.477445	0.549778	0.289603
	H277	H	0.456562	0.534405	0.278994
	H278	H	0.490292	0.572232	0.276983
	O279	O	0.608825	0.548499	0.388973
	H280	H	0.605021	0.572150	0.365682
	H281	H	0.599510	0.544675	0.409887
	O282	O	0.832105	1.023518	-0.123584
	H283	H	0.862030	1.000777	-0.136076
	H284	H	0.820382	1.027822	-0.154830
	O285	O	0.442496	0.704074	0.420341
	H286	H	0.417294	0.704016	0.416594
	H287	H	0.428304	0.708471	0.405510
	O288	O	-0.500339	-0.572936	-0.317570
	H289	H	-0.495177	-0.562729	-0.313432
	H290	H	-0.509589	-0.576671	-0.306608
	O291	O	0.798804	1.186295	-0.171184
	H292	H	0.790839	1.139624	-0.180465
	H293	H	0.820037	1.188178	-0.155940
	O294	O	0.091369	1.115571	-1.170496
	H295	H	0.071715	1.109241	-1.161503
	H296	H	0.111379	1.102164	-1.161324
	O297	O	0.401172	0.690219	0.604579
	H298	H	0.409953	0.682756	0.584427
	H299	H	0.399082	0.675943	0.588705
	O300	O	0.657700	0.446113	0.531543
	H301	H	0.644058	0.463895	0.537606
	H302	H	0.668664	0.448345	0.557969
	O303	O	0.780141	0.981562	0.204225
	H304	H	0.792981	0.996300	0.199758
	H305	H	0.763300	1.000478	0.196655
	O306	O	0.115787	1.073724	1.044267
	H307	H	0.119940	1.047345	1.043547
	H308	H	0.114815	1.082046	1.057367
	O309	O	0.785398	0.814983	0.195507
	H310	H	0.778635	0.869806	0.202344
	H311	H	0.791518	0.803302	0.166733
	O312	O	0.698690	0.381914	0.468200
	H313	H	0.693246	0.365593	0.494081
	H314	H	0.701461	0.381710	0.478125
	O315	O	-0.226127	0.791975	1.032580
	H316	H	-0.238288	0.772301	1.031864
	H317	H	-0.237723	0.817872	1.027667
	O318	O	0.486222	0.445451	-0.527215
	H319	H	0.493959	0.452861	-0.510453
	H320	H	0.495776	0.439000	-0.531688
	O321	O	1.195709	0.019892	1.212722
	H322	H	1.196545	0.036127	1.224912
	H323	H	1.194288	0.041863	1.221613
	O324	O	1.366328	0.505738	1.346084
	H325	H	1.376802	0.503915	1.339265
	H326	H	1.370474	0.499254	1.355466
	O327	O	1.042832	0.201922	0.945537
	H328	H	1.053876	0.189138	0.946160
	H329	H	1.008132	0.203819	0.961400
	O330	O	0.880418	0.177021	0.095743
	H331	H	0.857382	0.190390	0.104829
	H332	H	0.897387	0.170409	0.112016
	O333	O	0.687225	1.696743	1.645978
	H334	H	0.683211	1.678394	1.642027
	H335	H	0.684290	1.693605	1.609074
	O336	O	0.770838	-0.075343	1.936900
	H337	H	0.773041	-0.069948	1.928465
	H338	H	0.771374	-0.060709	1.937750
	O339	O	-0.083858	0.936826	0.786077
	H340	H	-0.059483	0.936382	0.791779
	H341	H	-0.080591	0.922172	0.785670
	O342	O	1.196169	0.075294	-0.071048
	H343	H	1.191583	0.045212	-0.072492
	H344	H	1.204885	0.056931	-0.059564
	O345	O	-0.049661	-0.203970	0.223579
	H346	H	-0.074167	-0.190849	0.219349
	H347	H	-0.049932	-0.236281	0.255453
	O348	O	1.019247	-0.065085	1.169226
	H349	H	1.002340	-0.064390	1.160339
	H350	H	1.011147	-0.057073	1.174184
	O351	O	0.268670	0.718420	0.471020
	H352	H	0.258335	0.718800	0.446229
	H353	H	0.250633	0.735389	0.445499
	O354	O	0.776523	0.207351	-0.007552
	H355	H	0.776162	0.214836	-0.007305
	H356	H	0.766186	0.219898	-0.020550
	O357	O	1.248151	0.737372	0.742887
	H358	H	1.268714	0.707751	0.718554
	H359	H	1.238466	0.726425	0.731044
	O360	O	0.450091	0.502523	0.398786
	H361	H	0.461098	0.488454	0.387159
	H362	H	0.433002	0.511209	0.391460
	O363	O	0.588880	-0.400820	0.386551
	H364	H	0.584517	-0.407859	0.370259
	H365	H	0.579741	-0.406159	0.370923
	O366	O	1.071716	0.934374	-0.034091
	H367	H	1.068570	0.916492	-0.045755
	H368	H	1.087893	0.938551	-0.018522
	O369	O	0.531270	0.456673	0.691759
	H370	H	0.525691	0.446132	0.698138
	H371	H	0.522686	0.471008	0.686278
	O372	O	0.270886	0.295001	0.538747
	H373	H	0.264634	0.289018	0.525692
	H374	H	0.279344	0.285579	0.526160
	O375	O	0.269383	0.718175	1.287243
	H376	H	0.260143	0.671662	1.278934
	H377	H	0.235050	0.744837	1.255207
	O378	O	0.960965	0.210962	-0.200122
	H379	H	0.972498	0.224172	-0.202431
	H380	H	0.946269	0.212378	-0.206078
	O381	O	0.665158	0.566443	-0.666670
	H382	H	0.680529	0.566609	-0.673948
	H383	H	0.664703	0.577017	-0.654281
	O384	O	0.135211	-1.196370	0.867088
	H385	H	0.142291	-1.208868	0.856490
	H386	H	0.116200	-1.193422	0.859386
	O387	O	-0.068047	1.056003	1.219418
	H388	H	-0.067200	1.066435	1.218866
	H389	H	-0.063847	1.061417	1.215316
	O390	O	0.178559	-0.175703	1.184138
	H391	H	0.169548	-0.159915	1.164126
	H392	H	0.154783	-0.153167	1.177437
	O393	O	1.209495	0.964506	-0.214599
	H394	H	1.204535	0.944412	-0.214581
	H395	H	1.234467	0.957396	-0.240993
	O396	O	0.513803	0.710782	0.721657
	H397	H	0.527354	0.726897	0.717082
	H398	H	0.520914	0.732759	0.725360
	O399	O	0.076755	1.037952	0.032483
	H400	H	0.086334	1.046829	0.020932
	H401	H	0.095115	1.025836	0.035956
	O402	O	0.148679	0.208824	1.027684
	H403	H	0.156998	0.213375	1.010694
	H404	H	0.166141	0.207590	1.013698
	O405	O	-0.713991	-0.518432	0.722994
	H406	H	-0.723372	-0.528189	0.741449
	H407	H	-0.711397	-0.532914	0.722547
	O408	O	0.333713	0.531993	0.552125
	H409	H	0.332505	0.551091	0.536556
	H410	H	0.337555	0.513639	0.572091
	O411	O	0.340709	0.532596	0.339655
	H412	H	0.324247	0.519124	0.346831
	H413	H	0.338610	0.508698	0.322708
	O414	O	1.196525	0.801018	0.993975
	H415	H	1.184621	0.800232	0.962026
	H416	H	1.210076	0.778449	0.978082
	O417	O	0.267634	0.456982	0.467334
	H418	H	0.266389	0.466722	0.481781
	H419	H	0.269762	0.452871	0.457762
	O420	O	0.774461	1.044403	1.025913
	H421	H	0.784936	1.044798	1.015643
	H422	H	0.778694	1.068764	1.020790
	O423	O	-0.031582	0.791876	0.030503
	H424	H	-0.044370	0.791047	0.046475
	H425	H	-0.034435	0.790073	0.045909
	O426	O	1.032289	0.939119	1.070576
	H427	H	1.026667	0.941447	1.066193
	H428	H	1.026543	0.925412	1.067766
	O429	O	0.644190	0.596003	0.469809
	H430	H	0.636495	0.588207	0.461064
	H431	H	0.659629	0.610125	0.470668
	O432	O	-0.001775	-0.211981	-0.183792
	H433	H	-0.003544	-0.219201	-0.190105
	H434	H	-0.007975	-0.226069	-0.175360
	O435	O	0.040747	0.206215	0.216239
	H436	H	0.041785	0.217104	0.216387
	H437	H	0.058566	0.208583	0.215629
	O438	O	1.291566	0.308873	-0.300790
	H439	H	1.281474	0.292823	-0.329255
	H440	H	1.274114	0.307674	-0.296885
	O441	O	0.592408	0.408672	0.616672
	H442	H	0.588952	0.435880	0.623815
	H443	H	0.593493	0.407487	0.635450
	O444	O	-0.057716	1.014560	0.803079
	H445	H	-0.065277	1.018199	0.811232
	H446	H	-0.056166	1.004066	0.800907
	O447	O	0.694926	0.572687	0.711812
	H448	H	0.696912	0.568959	0.708604
	H449	H	0.674481	0.574626	0.726229
	O450	O	0.431451	0.324932	0.432008
	H451	H	0.453314	0.330040	0.420069
	H452	H	0.445920	0.328064	0.429814
	O453	O	0.686156	0.304255	0.375511
	H454	H	0.677503	0.329718	0.384458
	H455	H	0.694897	0.300380	0.406557
	O456	O	1.467203	0.347450	0.359107
	H457	H	1.474770	0.329718	0.351710
	H458	H	1.495113	0.361517	0.361732
	O459	O	0.485776	0.310016	0.684240
	H460	H	0.464858	0.314453	0.684523
	H461	H	0.465767	0.288909	0.698765
	O462	O	0.456620	0.461638	0.632330
	H463	H	0.450887	0.465060	0.643861
	H464	H	0.456899	0.462734	0.635449
	O465	O	1.268857	0.293471	0.241143
	H466	H	1.258769	0.297235	0.233723
	H467	H	1.282024	0.307803	0.231222
