data_Molecule from HDF5

_cell_length_a		16.604050
_cell_length_b		16.494891
_cell_length_c		16.705030
_cell_angle_alpha	89.959334
_cell_angle_beta	89.960108
_cell_angle_gamma	89.919647
_symmetry_space_group_name_H-M	'P 1'
_symmetry_Int_Tables_number		1

loop_
	_symmetry_equiv_pos_as_xyz
	x,y,z

loop_
	_atom_site_label
	_atom_site_type_symbol
	_atom_site_fract_x
	_atom_site_fract_y
	_atom_site_fract_z
	H0	H	0.387091	0.857777	0.730208
	H1	H	0.600959	0.168998	0.729820
	H2	H	0.600738	0.856330	0.286163
	H3	H	0.386211	0.168798	0.284320
	H4	H	0.715818	0.407725	0.851291
	H5	H	0.717802	0.618592	0.162562
	H6	H	0.274269	0.618444	0.852340
	H7	H	0.269125	0.404516	0.161584
	H8	H	0.838416	0.734796	0.400722
	H9	H	0.151019	0.731813	0.607565
	H10	H	0.838945	0.291591	0.612449
	H11	H	0.150567	0.290286	0.399946
	H12	H	0.840501	0.404402	0.731296
	H13	H	0.148847	0.619611	0.728923
	H14	H	0.839178	0.620907	0.283048
	H15	H	0.149581	0.404333	0.282350
	H16	H	0.392980	0.733205	0.851883
	H17	H	0.599847	0.733468	0.164159
	H18	H	0.598217	0.292656	0.851500
	H19	H	0.387087	0.289663	0.162587
	H20	H	0.715827	0.855991	0.401953
	H21	H	0.714509	0.169406	0.610971
	H22	H	0.273866	0.857387	0.612034
	H23	H	0.272562	0.170396	0.401950
	H24	H	0.889029	0.356382	0.227489
	H25	H	0.101338	0.668467	0.228332
	H26	H	0.102787	0.357955	0.783200
	H27	H	0.889810	0.669748	0.785375
	H28	H	0.215871	0.909435	0.352140
	H29	H	0.216652	0.120251	0.662294
	H30	H	0.767491	0.124101	0.355407
	H31	H	0.772457	0.907388	0.661809
	H32	H	0.338691	0.235110	0.902486
	H33	H	0.650020	0.234795	0.113398
	H34	H	0.337699	0.793472	0.110675
	H35	H	0.650962	0.792959	0.904359
	H36	H	0.338008	0.908993	0.227718
	H37	H	0.648226	0.121169	0.231434
	H38	H	0.339485	0.120251	0.785090
	H39	H	0.648523	0.905362	0.784449
	H40	H	0.884962	0.239342	0.354646
	H41	H	0.101148	0.238318	0.661067
	H42	H	0.099419	0.792911	0.351680
	H43	H	0.891053	0.792523	0.662229
	H44	H	0.219165	0.357621	0.898507
	H45	H	0.214240	0.670303	0.110712
	H46	H	0.775427	0.355940	0.110306
	H47	H	0.773051	0.669852	0.900860
	H48	H	0.405869	0.126199	0.596421
	H49	H	0.581623	0.900386	0.598441
	H50	H	0.581844	0.124868	0.418863
	H51	H	0.406346	0.902333	0.421205
	H52	H	0.588911	0.425381	0.119285
	H53	H	0.587610	0.605953	0.894670
	H54	H	0.404269	0.605031	0.120921
	H55	H	0.405644	0.420490	0.896174
	H56	H	0.107864	0.604604	0.413846
	H57	H	0.879722	0.602998	0.601018
	H58	H	0.104749	0.425325	0.592880
	H59	H	0.882537	0.424027	0.415054
	H60	H	0.104180	0.429053	0.593516
	H61	H	0.881719	0.604388	0.593463
	H62	H	0.104646	0.601570	0.420841
	H63	H	0.885895	0.424617	0.420293
	H64	H	0.400786	0.600802	0.119103
	H65	H	0.586230	0.596723	0.897817
	H66	H	0.582953	0.426938	0.116291
	H67	H	0.403397	0.428659	0.897733
	H68	H	0.578344	0.123598	0.419337
	H69	H	0.581714	0.901486	0.595209
	H70	H	0.406487	0.125608	0.597069
	H71	H	0.401537	0.899095	0.417812
	H72	H	0.910278	0.621771	0.087436
	H73	H	0.080005	0.402422	0.092358
	H74	H	0.081459	0.624750	0.915904
	H75	H	0.903700	0.398622	0.914341
	H76	H	0.086294	0.923587	0.619921
	H77	H	0.078908	0.103409	0.397853
	H78	H	0.908127	0.103849	0.617773
	H79	H	0.905144	0.923959	0.395129
	H80	H	0.606802	0.103174	0.916414
	H81	H	0.383222	0.101049	0.092924
	H82	H	0.607283	0.921015	0.097642
	H83	H	0.381499	0.924903	0.914651
	H84	H	0.605642	0.925166	0.097574
	H85	H	0.384536	0.096904	0.097511
	H86	H	0.605184	0.100793	0.920127
	H87	H	0.381759	0.920517	0.920466
	H88	H	0.902418	0.099481	0.618149
	H89	H	0.086160	0.103389	0.395077
	H90	H	0.083053	0.923116	0.617869
	H91	H	0.903688	0.924862	0.395873
	H92	H	0.082745	0.624808	0.919308
	H93	H	0.084008	0.401028	0.092237
	H94	H	0.899121	0.628977	0.095733
	H95	H	0.911025	0.402070	0.917176
	H96	H	0.406365	0.125597	0.595797
	H97	H	0.584113	0.899328	0.596172
	H98	H	0.580760	0.123695	0.422292
	H99	H	0.407356	0.900004	0.415060
	H100	H	0.583655	0.420544	0.118742
	H101	H	0.578922	0.603220	0.897906
	H102	H	0.405685	0.600417	0.118001
	H103	H	0.410825	0.425569	0.899587
	H104	H	0.104911	0.596604	0.414291
	H105	H	0.883739	0.597349	0.596370
	H106	H	0.105503	0.427032	0.596178
	H107	H	0.884421	0.430170	0.416650
	H108	H	0.912687	0.626025	0.102162
	H109	H	0.081383	0.400061	0.095720
	H110	H	0.084874	0.626228	0.916391
	H111	H	0.903782	0.401943	0.921807
	H112	H	0.084853	0.920018	0.619371
	H113	H	0.083647	0.096531	0.398442
	H114	H	0.908791	0.097467	0.615084
	H115	H	0.905275	0.925715	0.395733
	H116	H	0.606413	0.098270	0.916428
	H117	H	0.381492	0.102370	0.099434
	H118	H	0.607944	0.923919	0.101229
	H119	H	0.384067	0.927166	0.920601
	C120	C	0.373475	0.022376	0.628713
	C121	C	0.615125	1.004070	0.628919
	C122	C	0.614359	0.021189	0.386988
	C123	C	0.372659	1.004465	0.385975
	C124	C	0.616437	0.391843	0.015320
	C125	C	0.616761	0.634474	0.999604
	C126	C	0.372731	0.634598	0.016455
	C127	C	0.373075	0.391587	0.999781
	C128	C	0.003075	0.634472	0.383825
	C129	C	0.985325	0.633995	0.627969
	C130	C	0.002646	0.393172	0.627534
	C131	C	0.986430	0.392026	0.384516
	C132	C	0.874476	0.521751	0.127388
	C133	C	0.114804	0.504498	0.126243
	C134	C	0.116430	0.521958	0.884714
	C135	C	0.874025	0.504906	0.885921
	C136	C	0.116387	0.891432	0.516109
	C137	C	0.115695	0.134777	0.499292
	C138	C	0.872467	0.134832	0.515850
	C139	C	0.872971	0.892049	0.498368
	C140	C	0.502926	0.133624	0.886186
	C141	C	0.485465	0.133695	0.128984
	C142	C	0.502926	0.891942	0.129268
	C143	C	0.485797	0.891892	0.886602
	C144	C	0.370034	0.904577	0.689283
	C145	C	0.618613	0.121946	0.689364
	C146	C	0.618498	0.903415	0.326231
	C147	C	0.369299	0.122245	0.325394
	C148	C	0.675748	0.389548	0.898189
	C149	C	0.677547	0.636910	0.115992
	C150	C	0.314036	0.636700	0.898865
	C151	C	0.310716	0.387372	0.115395
	C152	C	0.885667	0.694905	0.381953
	C153	C	0.103560	0.692938	0.627933
	C154	C	0.885729	0.331742	0.630578
	C155	C	0.103370	0.330203	0.381718
	C156	C	0.886695	0.387864	0.689766
	C157	C	0.102652	0.637287	0.687855
	C158	C	0.885981	0.638199	0.323252
	C159	C	0.103078	0.387308	0.323308
	C160	C	0.372863	0.693850	0.898929
	C161	C	0.618288	0.693689	0.116974
	C162	C	0.617420	0.332098	0.898475
	C163	C	0.369418	0.330100	0.115968
	C164	C	0.675735	0.903382	0.383921
	C165	C	0.675133	0.122319	0.630565
	C166	C	0.313648	0.904260	0.630664
	C167	C	0.312763	0.122997	0.383986
	C168	C	0.871435	0.403512	0.187302
	C169	C	0.118579	0.621893	0.187336
	C170	C	0.120493	0.404630	0.823522
	C171	C	0.871422	0.622810	0.825619
	C172	C	0.175845	0.890663	0.398950
	C173	C	0.176295	0.138158	0.615711
	C174	C	0.809623	0.140456	0.400895
	C175	C	0.812968	0.889221	0.615202
	C176	C	0.385625	0.194524	0.884270
	C177	C	0.602853	0.194861	0.131658
	C178	C	0.384764	0.833108	0.129634
	C179	C	0.603641	0.832181	0.885257
	C180	C	0.384911	0.890540	0.187740
	C181	C	0.601867	0.138319	0.190411
	C182	C	0.385842	0.137484	0.825857
	C183	C	0.602479	0.888322	0.825780
	C184	C	0.867967	0.197889	0.400647
	C185	C	0.118752	0.196690	0.615258
	C186	C	0.117866	0.832772	0.398362
	C187	C	0.871913	0.832110	0.615399
	C188	C	0.178346	0.404622	0.880850
	C189	C	0.174775	0.622756	0.128728
	C190	C	0.815172	0.403225	0.128656
	C191	C	0.813472	0.622717	0.882997
	C192	C	0.398925	0.104505	0.603576
	C193	C	0.589588	0.921885	0.603840
	C194	C	0.587862	0.102812	0.412699
	C195	C	0.397987	0.921935	0.410828
	C196	C	0.592226	0.417015	0.096861
	C197	C	0.591519	0.609326	0.918106
	C198	C	0.396773	0.609169	0.098146
	C199	C	0.399137	0.417418	0.918965
	C200	C	0.084621	0.608229	0.409083
	C201	C	0.903203	0.608781	0.603703
	C202	C	0.083846	0.419674	0.601485
	C203	C	0.905422	0.418748	0.410051
	C204	C	0.900070	0.604138	0.102248
	C205	C	0.088966	0.422555	0.100772
	C206	C	0.090566	0.603791	0.910177
	C207	C	0.899074	0.422346	0.910753
	C208	C	0.091765	0.915319	0.597837
	C209	C	0.090098	0.108573	0.418369
	C210	C	0.899044	0.107741	0.596226
	C211	C	0.897619	0.917734	0.416579
	C212	C	0.585051	0.108096	0.910724
	C213	C	0.404157	0.107666	0.103647
	C214	C	0.585561	0.916349	0.105591
	C215	C	0.403778	0.917179	0.911470
	Zn216	Zn	0.494234	0.012982	0.756960
	Zn217	Zn	0.494234	0.013014	0.258496
	Zn218	Zn	0.745727	0.512994	0.006872
	Zn219	Zn	0.243707	0.512967	0.006764
	Zn220	Zn	-0.005938	0.762192	0.505966
	Zn221	Zn	-0.006037	0.264223	0.506936
	Zn222	Zn	-0.005816	0.513133	0.757074
	Zn223	Zn	-0.005346	0.513031	0.255805
	Zn224	Zn	0.494970	0.762908	0.008772
	Zn225	Zn	0.494555	0.262153	0.007922
	Zn226	Zn	0.743073	0.013251	0.507364
	Zn227	Zn	0.245317	0.013722	0.507704
	N228	N	0.406623	0.979063	0.688083
	N229	N	0.582159	0.047215	0.688465
	N230	N	0.581056	0.977752	0.327793
	N231	N	0.405967	0.047665	0.326629
	N232	N	0.675541	0.425874	0.972130
	N233	N	0.676757	0.600932	0.041910
	N234	N	0.313755	0.600695	0.973025
	N235	N	0.312634	0.424795	0.041974
	N236	N	0.959668	0.692989	0.418721
	N237	N	0.029519	0.691150	0.591438
	N238	N	0.959076	0.334854	0.592601
	N239	N	0.029729	0.332885	0.419233
	N240	N	0.960525	0.425248	0.688101
	N241	N	0.027964	0.601541	0.688094
	N242	N	0.960223	0.601323	0.324244
	N243	N	0.029288	0.424730	0.324596
	N244	N	0.408517	0.692655	0.973059
	N245	N	0.581421	0.692448	0.043400
	N246	N	0.581273	0.333093	0.972351
	N247	N	0.407234	0.332372	0.042877
	N248	N	0.673397	0.977677	0.421039
	N249	N	0.673127	0.047979	0.593674
	N250	N	0.315665	0.978456	0.593622
	N251	N	0.314787	0.048754	0.421218
	N252	N	0.907704	0.478324	0.186575
	N253	N	0.081587	0.547506	0.185769
	N254	N	0.082594	0.478591	0.825628
	N255	N	0.908273	0.548432	0.827164
	N256	N	0.175259	0.926126	0.473113
	N257	N	0.174418	0.100294	0.542634
	N258	N	0.812558	0.101531	0.473326
	N259	N	0.813386	0.925582	0.541236
	N260	N	0.459624	0.192467	0.921064
	N261	N	0.529365	0.192221	0.094133
	N262	N	0.459353	0.833785	0.094172
	N263	N	0.529925	0.834043	0.922510
	N264	N	0.459646	0.926114	0.187969
	N265	N	0.528095	0.101118	0.189064
	N266	N	0.459899	0.100333	0.826850
	N267	N	0.528049	0.924348	0.826304
	N268	N	0.906769	0.194255	0.473050
	N269	N	0.081836	0.194795	0.541767
	N270	N	0.081504	0.832864	0.472214
	N271	N	0.908348	0.833591	0.541488
	N272	N	0.176184	0.478680	0.918100
	N273	N	0.172546	0.548581	0.091429
	N274	N	0.816800	0.477845	0.092170
	N275	N	0.815126	0.548361	0.919828
	O276	O	-0.222461	1.020970	-0.181336
	H277	H	-0.244314	1.024590	-0.194683
	H278	H	-0.223844	1.010890	-0.158108
	O279	O	0.214233	0.229405	0.036541
	H280	H	0.212438	0.228074	0.052631
	H281	H	0.235746	0.256612	0.047614
	O282	O	0.783746	-0.030060	1.042493
	H283	H	0.793310	-0.015311	1.039634
	H284	H	0.784611	-0.033562	1.056893
	O285	O	0.519610	0.554008	0.405408
	H286	H	0.523018	0.556026	0.400140
	H287	H	0.521029	0.543087	0.401976
	O288	O	0.520380	0.371459	0.711904
	H289	H	0.517251	0.367324	0.712973
	H290	H	0.525130	0.381617	0.713327
	O291	O	0.266256	0.250278	0.282976
	H292	H	0.283479	0.263497	0.280432
	H293	H	0.271194	0.232833	0.292796
	O294	O	1.044331	-0.044733	1.230606
	H295	H	1.052126	-0.034386	1.242929
	H296	H	1.026377	-0.027121	1.221421
	O297	O	0.461346	0.729815	0.288579
	H298	H	0.433265	0.730672	0.281851
	H299	H	0.443371	0.744137	0.270791
	O300	O	-0.505790	-0.661553	0.509550
	H301	H	-0.488112	-0.652413	0.498869
	H302	H	-0.520240	-0.651063	0.508641
	O303	O	0.516332	0.730790	0.714918
	H304	H	0.518379	0.750368	0.731188
	H305	H	0.540544	0.722523	0.712431
	O306	O	0.594830	0.435994	0.607689
	H307	H	0.602570	0.434743	0.612992
	H308	H	0.590998	0.431344	0.605957
	O309	O	0.699549	0.501479	0.706737
	H310	H	0.692164	0.540580	0.703235
	H311	H	0.713995	0.507968	0.720040
	O312	O	0.474026	0.407328	0.644212
	H313	H	0.472735	0.414585	0.641029
	H314	H	0.486556	0.396352	0.633924
	O315	O	1.285277	0.721804	1.291009
	H316	H	1.282382	0.727296	1.338871
	H317	H	1.250435	0.755220	1.266509
	O318	O	0.281105	0.534409	0.291576
	H319	H	0.275629	0.559327	0.286879
	H320	H	0.275630	0.552475	0.276152
	O321	O	0.060259	1.209245	0.939326
	H322	H	0.055658	1.215828	0.950702
	H323	H	0.063713	1.215821	0.943078
	O324	O	1.177515	0.828716	0.198147
	H325	H	1.160986	0.857019	0.189907
	H326	H	1.159030	0.838576	0.173588
	O327	O	0.047170	-0.207077	1.057877
	H328	H	0.074299	-0.194821	1.043862
	H329	H	0.048697	-0.204197	1.067813
	O330	O	0.267340	0.405464	0.487454
	H331	H	0.257801	0.409252	0.491088
	H332	H	0.260350	0.414535	0.480655
	O333	O	0.524128	0.299208	0.288251
	H334	H	0.532008	0.279053	0.268580
	H335	H	0.536549	0.307722	0.294871
	O336	O	0.593098	0.410291	0.388456
	H337	H	0.594350	0.404595	0.390448
	H338	H	0.595649	0.408499	0.375404
	O339	O	0.939920	-0.214469	0.950639
	H340	H	0.953378	-0.212741	0.938466
	H341	H	0.958491	-0.215958	0.966170
	O342	O	-0.030788	0.226011	0.047254
	H343	H	-0.039136	0.231568	0.050970
	H344	H	-0.033879	0.221423	0.066137
	O345	O	0.217377	1.009750	1.018965
	H346	H	0.203668	1.009126	1.010687
	H347	H	0.220843	1.018852	0.998066
	O348	O	0.844391	0.164845	0.846727
	H349	H	0.852172	0.175979	0.837652
	H350	H	0.842034	0.149224	0.853455
	O351	O	0.454185	0.544014	0.357520
	H352	H	0.462765	0.550681	0.356708
	H353	H	0.443350	0.557955	0.357392
	O354	O	-0.030853	0.221669	0.798894
	H355	H	-0.034379	0.220578	0.810988
	H356	H	-0.032437	0.237577	0.793491
	O357	O	0.280066	0.722182	0.470002
	H358	H	0.278229	0.726461	0.486376
	H359	H	0.280659	0.722531	0.487209
	O360	O	-0.029429	-0.199257	1.223734
	H361	H	-0.026479	-0.218476	1.238560
	H362	H	-0.018277	-0.186934	1.220749
	O363	O	0.200606	0.042803	0.219154
	H364	H	0.216061	0.035079	0.225355
	H365	H	0.200897	0.029657	0.199070
	O366	O	0.569071	0.617286	0.333143
	H367	H	0.553346	0.626911	0.334996
	H368	H	0.560863	0.605209	0.330902
	O369	O	0.792377	0.003270	0.227713
	H370	H	0.786011	-0.015690	0.235564
	H371	H	0.789894	-0.000833	0.238035
	O372	O	1.203438	0.800992	-0.202648
	H373	H	1.189824	0.797936	-0.213967
	H374	H	1.210096	0.829492	-0.213115
	O375	O	1.120583	0.080602	-0.020529
	H376	H	1.115507	0.092503	-0.003575
	H377	H	1.116265	0.100800	-0.023422
	O378	O	0.714687	0.485543	0.492734
	H379	H	0.718724	0.507033	0.508487
	H380	H	0.702708	0.498580	0.490637
	O381	O	0.526882	0.557260	0.719617
	H382	H	0.519677	0.567847	0.725776
	H383	H	0.537381	0.567776	0.715199
	O384	O	0.766184	-0.001563	0.972821
	H385	H	0.765879	0.016051	1.001158
	H386	H	0.767975	-0.022118	0.989570
	O387	O	1.209778	0.798315	-0.024788
	H388	H	1.203803	0.804918	-0.066578
	H389	H	1.232846	0.770361	-0.035692
	O390	O	0.699729	0.306543	0.297686
	H391	H	0.690084	0.320517	0.299699
	H392	H	0.703811	0.306903	0.323346
	O393	O	0.703947	0.270353	0.723156
	H394	H	0.698965	0.260052	0.717600
	H395	H	0.723730	0.266239	0.713180
	O396	O	-0.190279	0.828624	0.823689
	H397	H	-0.187230	0.847363	0.849888
	H398	H	-0.165791	0.846601	0.833062
	O399	O	0.012190	-0.176594	0.796379
	H400	H	0.014249	-0.186687	0.794231
	H401	H	0.013397	-0.160657	0.790517
	O402	O	0.280836	0.491012	0.724035
	H403	H	0.284317	0.493952	0.742962
	H404	H	0.284087	0.477162	0.735938
	O405	O	1.029458	0.043192	0.774140
	H406	H	1.034274	0.037513	0.772033
	H407	H	1.029392	0.058489	0.772168
	O408	O	0.134607	0.149855	-0.146671
	H409	H	0.123914	0.146699	-0.143710
	H410	H	0.138125	0.153212	-0.149125
	O411	O	0.439206	0.429151	0.582179
	H412	H	0.442254	0.423850	0.582997
	H413	H	0.439333	0.426068	0.581252
	O414	O	0.381001	0.374222	0.418156
	H415	H	0.386972	0.387294	0.431331
	H416	H	0.394908	0.394395	0.401430
	O417	O	0.704787	0.353537	0.510755
	H418	H	0.716092	0.352393	0.519937
	H419	H	0.705645	0.379941	0.515745
	O420	O	0.442843	0.735003	0.549794
	H421	H	0.456203	0.736946	0.560197
	H422	H	0.445875	0.734115	0.544474
	O423	O	0.025881	0.133055	1.133580
	H424	H	0.017548	0.102197	1.142107
	H425	H	0.017460	0.140866	1.141548
	O426	O	0.681641	0.614358	0.438538
	H427	H	0.676962	0.612846	0.441186
	H428	H	0.664573	0.616954	0.428749
	O429	O	1.021024	1.229219	1.227218
	H430	H	1.030687	1.241483	1.229536
	H431	H	1.038735	1.241394	1.241855
	O432	O	0.276118	0.569684	0.563372
	H433	H	0.287568	0.559653	0.576428
	H434	H	0.277509	0.566520	0.578861
	O435	O	-0.196896	0.828399	0.195332
	H436	H	-0.157558	0.824273	0.193448
	H437	H	-0.204023	0.837487	0.173585
	O438	O	0.125307	-0.055512	0.029217
	H439	H	0.127568	-0.046425	0.007651
	H440	H	0.126148	-0.064464	0.015319
	O441	O	0.208239	-0.020723	-0.203581
	H442	H	0.217471	-0.004139	-0.215214
	H443	H	0.212762	-0.007803	-0.197416
	O444	O	0.279307	0.294005	-0.275869
	H445	H	0.287307	0.297089	-0.299369
	H446	H	0.286087	0.310034	-0.279404
	O447	O	0.305807	0.698974	0.694095
	H448	H	0.323380	0.679087	0.681931
	H449	H	0.303887	0.709076	0.695120
	O450	O	-0.226574	1.230857	0.976073
	H451	H	-0.213808	1.230087	0.955836
	H452	H	-0.254197	1.255636	0.966777
	O453	O	0.689086	0.719821	0.539681
	H454	H	0.693693	0.719563	0.541191
	H455	H	0.688686	0.731654	0.525911
	O456	O	0.294539	0.324618	0.543073
	H457	H	0.297979	0.334963	0.525745
	H458	H	0.280359	0.310128	0.540577
	O459	O	0.781165	0.838765	0.056232
	H460	H	0.767252	0.820465	0.059127
	H461	H	0.791948	0.821294	0.060273
	O462	O	0.821044	0.192997	0.187415
	H463	H	0.829431	0.173595	0.173330
	H464	H	0.803132	0.201720	0.195487
	O465	O	0.933695	-0.005421	-0.216545
	H466	H	0.944849	0.007876	-0.216405
	H467	H	0.913821	0.016112	-0.218933
	O468	O	0.447623	0.495488	0.379979
	H469	H	0.442518	0.496171	0.386579
	H470	H	0.445330	0.479942	0.369666
	O471	O	0.517367	0.488256	0.539341
	H472	H	0.512546	0.483080	0.534159
	H473	H	0.516884	0.486295	0.538181
	O474	O	0.041372	0.977475	-0.022262
	H475	H	0.034348	0.975084	-0.030897
	H476	H	0.041788	0.983500	-0.032324
	O477	O	0.558434	0.655821	1.552983
	H478	H	0.560270	0.662113	1.538882
	H479	H	0.565595	0.656896	1.547260
	O480	O	0.706587	0.548171	0.302202
	H481	H	0.713536	0.543763	0.293022
	H482	H	0.717139	0.550594	0.299866
	O483	O	0.701825	0.717086	0.697231
	H484	H	0.713175	0.734255	0.694997
	H485	H	0.704892	0.733021	0.685320
	O486	O	0.966821	-0.003801	1.020667
	H487	H	0.957961	0.006525	1.023095
	H488	H	0.973540	-0.004624	1.020367
	O489	O	0.956095	1.088295	0.204306
	H490	H	0.951545	1.106319	0.210961
	H491	H	0.940786	1.105075	0.210863
