data_Molecule from HDF5

_cell_length_a		16.429788
_cell_length_b		16.591612
_cell_length_c		16.642829
_cell_angle_alpha	90.175298
_cell_angle_beta	89.967664
_cell_angle_gamma	89.962106
_symmetry_space_group_name_H-M	'P 1'
_symmetry_Int_Tables_number		1

loop_
	_symmetry_equiv_pos_as_xyz
	x,y,z

loop_
	_atom_site_label
	_atom_site_type_symbol
	_atom_site_fract_x
	_atom_site_fract_y
	_atom_site_fract_z
	H0	H	0.385262	0.856081	0.700667
	H1	H	0.600220	0.166186	0.699258
	H2	H	0.600619	0.855494	0.252212
	H3	H	0.383427	0.167116	0.253420
	H4	H	0.711010	0.410498	0.820762
	H5	H	0.716139	0.617389	0.133352
	H6	H	0.268548	0.618374	0.823171
	H7	H	0.269290	0.403598	0.133794
	H8	H	0.835944	0.730687	0.372116
	H9	H	0.151128	0.731771	0.581375
	H10	H	0.836764	0.290641	0.581419
	H11	H	0.150496	0.284761	0.367584
	H12	H	0.836590	0.407930	0.696371
	H13	H	0.150752	0.617358	0.698377
	H14	H	0.836663	0.614948	0.256031
	H15	H	0.150478	0.399954	0.251911
	H16	H	0.383110	0.737775	0.824827
	H17	H	0.603574	0.737808	0.130613
	H18	H	0.595995	0.291854	0.821337
	H19	H	0.385359	0.287555	0.133741
	H20	H	0.712708	0.853002	0.372748
	H21	H	0.713902	0.167425	0.580086
	H22	H	0.274115	0.852989	0.578804
	H23	H	0.268207	0.166440	0.369978
	H24	H	0.888142	0.356177	0.200330
	H25	H	0.106664	0.664269	0.204678
	H26	H	0.104159	0.357951	0.750312
	H27	H	0.885137	0.665640	0.754837
	H28	H	0.218051	0.901603	0.321897
	H29	H	0.217629	0.117511	0.631428
	H30	H	0.773486	0.114353	0.319874
	H31	H	0.773511	0.907876	0.633194
	H32	H	0.336401	0.234138	0.870314
	H33	H	0.651333	0.229521	0.080642
	H34	H	0.337463	0.785278	0.085453
	H35	H	0.649270	0.787030	0.868279
	H36	H	0.336538	0.902419	0.200281
	H37	H	0.650026	0.116258	0.198574
	H38	H	0.337072	0.118979	0.752934
	H39	H	0.650009	0.903519	0.754512
	H40	H	0.886486	0.234384	0.322726
	H41	H	0.103654	0.236132	0.630475
	H42	H	0.103582	0.783834	0.322825
	H43	H	0.887388	0.789807	0.632007
	H44	H	0.216515	0.355436	0.869973
	H45	H	0.218232	0.665916	0.085277
	H46	H	0.773949	0.354489	0.081812
	H47	H	0.772550	0.667561	0.874114
	H48	H	0.410708	0.118964	0.562436
	H49	H	0.580433	0.897172	0.572298
	H50	H	0.577180	0.122337	0.383741
	H51	H	0.400748	0.897771	0.385420
	H52	H	0.587772	0.419562	0.093065
	H53	H	0.579889	0.594081	0.869163
	H54	H	0.405680	0.598102	0.088279
	H55	H	0.408429	0.420921	0.867888
	H56	H	0.105181	0.599431	0.394613
	H57	H	0.879473	0.603938	0.564903
	H58	H	0.107016	0.428187	0.568863
	H59	H	0.887161	0.429803	0.395361
	H60	H	0.109175	0.418155	0.565345
	H61	H	0.881913	0.597625	0.564528
	H62	H	0.104427	0.593867	0.388884
	H63	H	0.881065	0.426386	0.381102
	H64	H	0.409420	0.591747	0.083946
	H65	H	0.579676	0.604526	0.865506
	H66	H	0.582530	0.420850	0.090604
	H67	H	0.404866	0.419501	0.867130
	H68	H	0.582112	0.120959	0.392635
	H69	H	0.577971	0.900640	0.562308
	H70	H	0.401383	0.122280	0.563349
	H71	H	0.412788	0.901231	0.383198
	H72	H	0.903241	0.624464	0.068026
	H73	H	0.088448	0.398713	0.062331
	H74	H	0.081529	0.622851	0.888925
	H75	H	0.901528	0.396621	0.883120
	H76	H	0.077848	0.915858	0.587780
	H77	H	0.085364	0.094532	0.366169
	H78	H	0.905388	0.103605	0.589183
	H79	H	0.906464	0.914574	0.363605
	H80	H	0.608078	0.101704	0.882529
	H81	H	0.382480	0.099242	0.057269
	H82	H	0.601546	0.933672	0.065317
	H83	H	0.383735	0.927598	0.892436
	H84	H	0.608464	0.920356	0.070444
	H85	H	0.380248	0.092614	0.070481
	H86	H	0.606201	0.103474	0.891154
	H87	H	0.380785	0.925472	0.885127
	H88	H	0.901681	0.101133	0.588545
	H89	H	0.074160	0.093096	0.370051
	H90	H	0.088340	0.920790	0.589181
	H91	H	0.899056	0.921606	0.362352
	H92	H	0.077808	0.621228	0.889682
	H93	H	0.076685	0.399248	0.072294
	H94	H	0.908493	0.622832	0.069563
	H95	H	0.910626	0.399422	0.884554
	H96	H	0.407519	0.123546	0.570629
	H97	H	0.587750	0.897363	0.564301
	H98	H	0.586798	0.124402	0.384563
	H99	H	0.407204	0.903943	0.394158
	H100	H	0.584233	0.415507	0.092151
	H101	H	0.588482	0.599047	0.864964
	H102	H	0.413870	0.598824	0.085433
	H103	H	0.405651	0.423116	0.868420
	H104	H	0.109222	0.600699	0.387429
	H105	H	0.879264	0.600446	0.570082
	H106	H	0.104118	0.425424	0.558689
	H107	H	0.880982	0.415020	0.392782
	H108	H	0.906594	0.622295	0.064050
	H109	H	0.074487	0.404223	0.058309
	H110	H	0.081208	0.621172	0.892245
	H111	H	0.903647	0.400630	0.891678
	H112	H	0.079627	0.927183	0.585387
	H113	H	0.078098	0.103327	0.364974
	H114	H	0.905231	0.099286	0.588095
	H115	H	0.907844	0.923632	0.366652
	H116	H	0.604308	0.095302	0.888196
	H117	H	0.376768	0.106765	0.068174
	H118	H	0.603769	0.921097	0.055452
	H119	H	0.379805	0.919823	0.891697
	C120	C	0.372273	0.018964	0.598327
	C121	C	0.615110	1.001757	0.598312
	C122	C	0.614267	0.018871	0.355187
	C123	C	0.371633	1.002967	0.354414
	C124	C	0.614875	0.389189	-0.012795
	C125	C	0.615847	0.632943	0.968736
	C126	C	0.373911	0.631094	-0.015182
	C127	C	0.371725	0.388382	0.970137
	C128	C	0.002577	0.631045	0.356779
	C129	C	0.984668	0.632714	0.598461
	C130	C	0.002922	0.391054	0.597325
	C131	C	0.986497	0.389251	0.355912
	C132	C	0.873210	0.519845	0.099136
	C133	C	0.115580	0.502190	0.099017
	C134	C	0.114850	0.519860	0.855986
	C135	C	0.872387	0.502313	0.855595
	C136	C	0.115601	0.888086	0.484965
	C137	C	0.113723	0.130787	0.469012
	C138	C	0.871906	0.132840	0.485596
	C139	C	0.872228	0.888890	0.467824
	C140	C	0.502171	0.132893	0.855016
	C141	C	0.484164	0.131422	0.097496
	C142	C	0.501328	0.890411	0.097560
	C143	C	0.484852	0.890557	0.856391
	C144	C	0.368175	0.902141	0.659330
	C145	C	0.617882	0.119348	0.658551
	C146	C	0.617670	0.901783	0.293958
	C147	C	0.366360	0.119981	0.293483
	C148	C	0.672562	0.390136	0.868322
	C149	C	0.676270	0.635731	0.086338
	C150	C	0.310213	0.635831	0.869371
	C151	C	0.309777	0.385428	0.086711
	C152	C	0.883446	0.690691	0.353908
	C153	C	0.103700	0.692263	0.600272
	C154	C	0.884216	0.330757	0.599503
	C155	C	0.103753	0.326009	0.350921
	C156	C	0.884087	0.388805	0.656900
	C157	C	0.103459	0.635418	0.658402
	C158	C	0.884073	0.633221	0.296021
	C159	C	0.103705	0.383615	0.293381
	C160	C	0.366886	0.695204	0.870213
	C161	C	0.620252	0.695588	0.085039
	C162	C	0.615390	0.331369	0.868460
	C163	C	0.367783	0.327589	0.086979
	C164	C	0.673922	0.900690	0.353461
	C165	C	0.674562	0.119984	0.599319
	C166	C	0.312620	0.901001	0.599190
	C167	C	0.309186	0.119740	0.351810
	C168	C	0.870282	0.402601	0.159490
	C169	C	0.122242	0.618032	0.162695
	C170	C	0.120380	0.403948	0.792429
	C171	C	0.868360	0.619382	0.795537
	C172	C	0.177415	0.884336	0.368427
	C173	C	0.176612	0.135276	0.585093
	C174	C	0.812747	0.133629	0.367418
	C175	C	0.812782	0.888305	0.585781
	C176	C	0.383557	0.193789	0.852286
	C177	C	0.603574	0.190354	0.099463
	C178	C	0.384149	0.827142	0.102280
	C179	C	0.602484	0.828258	0.851620
	C180	C	0.383627	0.885375	0.159556
	C181	C	0.602811	0.134038	0.158007
	C182	C	0.384131	0.136580	0.793902
	C183	C	0.602589	0.886224	0.794788
	C184	C	0.868858	0.193340	0.368844
	C185	C	0.120020	0.194256	0.584717
	C186	C	0.120321	0.825593	0.368950
	C187	C	0.869893	0.829873	0.585377
	C188	C	0.176460	0.402666	0.852065
	C189	C	0.178233	0.618950	0.103327
	C190	C	0.813215	0.401823	0.100981
	C191	C	0.812183	0.620032	0.855097
	C192	C	0.398863	0.100510	0.572816
	C193	C	0.589413	0.919679	0.573303
	C194	C	0.589197	0.101166	0.379865
	C195	C	0.399105	0.922049	0.380143
	C196	C	0.591390	0.412082	0.070203
	C197	C	0.589635	0.606839	0.887635
	C198	C	0.401809	0.603985	0.064971
	C199	C	0.398499	0.414053	0.888771
	C200	C	0.084843	0.605311	0.382881
	C201	C	0.901865	0.607848	0.573605
	C202	C	0.085431	0.416780	0.571727
	C203	C	0.904495	0.415928	0.382362
	C204	C	0.898582	0.601810	0.074412
	C205	C	0.087800	0.421686	0.071950
	C206	C	0.087884	0.600697	0.882803
	C207	C	0.898133	0.420192	0.879680
	C208	C	0.089353	0.913972	0.566350
	C209	C	0.086847	0.104513	0.388372
	C210	C	0.897030	0.108402	0.567258
	C211	C	0.897247	0.912993	0.385585
	C212	C	0.584651	0.107498	0.880344
	C213	C	0.401247	0.106667	0.072353
	C214	C	0.583134	0.917217	0.071129
	C215	C	0.402831	0.916816	0.882595
	Zn216	Zn	0.493520	0.010511	0.727148
	Zn217	Zn	0.492853	0.011557	0.225972
	Zn218	Zn	0.744193	0.510959	-0.021588
	Zn219	Zn	0.243632	0.510774	-0.022211
	Zn220	Zn	-0.006580	0.759732	0.476724
	Zn221	Zn	-0.005479	0.261535	0.477101
	Zn222	Zn	-0.006079	0.511913	0.726432
	Zn223	Zn	-0.004918	0.510551	0.228112
	Zn224	Zn	0.494196	0.761860	-0.022903
	Zn225	Zn	0.493107	0.259865	-0.022117
	Zn226	Zn	0.743779	0.010503	0.476200
	Zn227	Zn	0.243910	0.010439	0.476483
	N228	N	0.404351	0.976682	0.659006
	N229	N	0.581750	0.044671	0.658169
	N230	N	0.581485	0.976405	0.294537
	N231	N	0.404475	0.046169	0.294832
	N232	N	0.672734	0.424889	0.943313
	N233	N	0.673718	0.597589	0.013165
	N234	N	0.314824	0.596386	0.941667
	N235	N	0.312120	0.422383	0.012886
	N236	N	0.958303	0.689552	0.390712
	N237	N	0.028749	0.690893	0.563899
	N238	N	0.959376	0.331782	0.563385
	N239	N	0.029785	0.329769	0.389341
	N240	N	0.959088	0.425224	0.655873
	N241	N	0.028308	0.599249	0.657536
	N242	N	0.959374	0.597155	0.297424
	N243	N	0.029856	0.422420	0.296423
	N244	N	0.405953	0.692219	0.942908
	N245	N	0.583381	0.693973	0.010868
	N246	N	0.580547	0.330263	0.943609
	N247	N	0.405507	0.329175	0.013235
	N248	N	0.671939	0.974596	0.390859
	N249	N	0.672943	0.045883	0.562532
	N250	N	0.314960	0.974867	0.562045
	N251	N	0.312237	0.046010	0.388886
	N252	N	0.906868	0.476998	0.158492
	N253	N	0.084179	0.544433	0.160405
	N254	N	0.082776	0.477876	0.794745
	N255	N	0.905187	0.545118	0.795645
	N256	N	0.174486	0.922726	0.441487
	N257	N	0.173070	0.096522	0.512291
	N258	N	0.814189	0.096833	0.441233
	N259	N	0.814074	0.924269	0.511744
	N260	N	0.458146	0.191728	0.889557
	N261	N	0.528685	0.189104	0.062747
	N262	N	0.458413	0.830273	0.064415
	N263	N	0.528124	0.830662	0.889353
	N264	N	0.457602	0.923929	0.156795
	N265	N	0.527432	0.098156	0.156827
	N266	N	0.458766	0.099438	0.795419
	N267	N	0.528379	0.924342	0.797571
	N268	N	0.904904	0.193049	0.443158
	N269	N	0.081594	0.191634	0.511521
	N270	N	0.082509	0.827770	0.442441
	N271	N	0.906176	0.830092	0.510915
	N272	N	0.173330	0.475666	0.890856
	N273	N	0.174340	0.545832	0.064516
	N274	N	0.814927	0.475815	0.064180
	N275	N	0.814546	0.546163	0.891892
	O276	O	0.817895	1.228335	-0.043818
	H277	H	0.811853	1.238933	-0.037469
	H278	H	0.816953	1.218161	-0.028912
	O279	O	0.251765	0.269130	0.710674
	H280	H	0.278801	0.254478	0.693494
	H281	H	0.228839	0.252570	0.719495
	O282	O	0.359624	0.299698	0.581335
	H283	H	0.350695	0.289385	0.579859
	H284	H	0.381169	0.304893	0.568095
	O285	O	0.472355	0.565323	0.381005
	H286	H	0.475090	0.557372	0.382020
	H287	H	0.464296	0.573219	0.385537
	O288	O	1.514297	-0.281465	0.687203
	H289	H	1.536139	-0.283915	0.691263
	H290	H	1.520728	-0.269029	0.702570
	O291	O	1.205199	0.852563	0.795958
	H292	H	1.206579	0.862449	0.798336
	H293	H	1.226554	0.826475	0.789629
	O294	O	0.021774	-0.213689	0.116093
	H295	H	-0.006589	-0.209660	0.087710
	H296	H	0.037284	-0.227438	0.114543
	O297	O	0.954573	0.192009	-0.001282
	H298	H	0.934824	0.180960	-0.008402
	H299	H	0.962459	0.190327	0.006537
	O300	O	0.701662	0.476156	0.264015
	H301	H	0.710637	0.483113	0.238543
	H302	H	0.681208	0.497066	0.260819
	O303	O	-0.495733	-0.651582	-0.397077
	H304	H	-0.479467	-0.665453	-0.398406
	H305	H	-0.501805	-0.654280	-0.422869
	O306	O	0.809796	-0.174226	0.171058
	H307	H	0.805455	-0.171410	0.135397
	H308	H	0.841458	-0.183499	0.161828
	O309	O	0.693062	0.308439	0.271911
	H310	H	0.701543	0.352298	0.273424
	H311	H	0.723700	0.285366	0.261347
	O312	O	0.126173	1.171580	0.776557
	H313	H	0.135084	1.141976	0.781456
	H314	H	0.110520	1.184637	0.785745
	O315	O	0.691236	0.711478	0.627799
	H316	H	0.705307	0.723248	0.620390
	H317	H	0.702861	0.692854	0.622952
	O318	O	1.211806	0.039195	0.194293
	H319	H	1.233697	0.032583	0.224752
	H320	H	1.187300	0.016120	0.205998
	O321	O	-0.177947	1.199787	1.160420
	H322	H	-0.171472	1.184061	1.153346
	H323	H	-0.146200	1.195191	1.146534
	O324	O	1.179513	0.039157	0.937280
	H325	H	1.181154	0.042523	0.941504
	H326	H	1.173491	0.044778	0.933089
	O327	O	0.563140	0.629164	0.384020
	H328	H	0.559173	0.624540	0.384154
	H329	H	0.555251	0.644708	0.370144
	O330	O	1.564050	1.620914	-0.436163
	H331	H	1.574969	1.610307	-0.459377
	H332	H	1.556166	1.621673	-0.425488
	O333	O	0.938169	0.052907	1.194405
	H334	H	0.942136	0.060478	1.195076
	H335	H	0.917943	0.032715	1.192531
	O336	O	0.034337	0.802859	0.169993
	H337	H	0.034082	0.771976	0.192024
	H338	H	0.048212	0.801860	0.139751
	O339	O	0.286421	0.484538	0.687696
	H340	H	0.290710	0.454950	0.691547
	H341	H	0.271411	0.470452	0.704219
	O342	O	-0.075016	1.004510	0.832178
	H343	H	-0.074455	1.020019	0.827563
	H344	H	-0.062839	0.997130	0.834458
	O345	O	0.976700	0.102223	0.871389
	H346	H	0.974262	0.097164	0.856936
	H347	H	0.976488	0.110228	0.892043
	O348	O	0.097492	0.832705	-0.097725
	H349	H	0.097750	0.844509	-0.106677
	H350	H	0.115238	0.835473	-0.095297
	O351	O	-0.078261	0.232161	0.759549
	H352	H	-0.079624	0.239599	0.759172
	H353	H	-0.095356	0.238751	0.758804
	O354	O	0.987051	0.021496	1.024753
	H355	H	0.985199	0.010179	1.024657
	H356	H	0.997218	0.036409	1.034805
	O357	O	0.371271	0.483382	0.461832
	H358	H	0.391281	0.471418	0.471619
	H359	H	0.379238	0.478636	0.465732
	O360	O	0.683852	0.618671	0.501250
	H361	H	0.694319	0.612719	0.489985
	H362	H	0.673045	0.625861	0.487728
	O363	O	0.006959	1.220560	1.186795
	H364	H	0.008910	1.213274	1.208029
	H365	H	0.043477	1.225160	1.191415
	O366	O	0.486956	0.477722	1.651125
	H367	H	0.471115	0.482346	1.651319
	H368	H	0.480334	0.488419	1.655361
	O369	O	0.039223	-0.035109	1.049167
	H370	H	0.035999	-0.038539	1.036214
	H371	H	0.045170	-0.041854	1.057292
	O372	O	0.117117	0.917561	1.116981
	H373	H	0.098110	0.930042	1.107541
	H374	H	0.114317	0.891510	1.119535
	O375	O	1.212344	0.226784	0.000904
	H376	H	1.215091	0.240172	0.004041
	H377	H	1.205312	0.246590	-0.010447
	O378	O	0.649496	0.466913	0.466282
	H379	H	0.641164	0.510652	0.465475
	H380	H	0.636390	0.452216	0.475875
	O381	O	-0.297925	0.421514	0.421912
	H382	H	-0.293418	0.424687	0.432196
	H383	H	-0.294520	0.407893	0.423188
	O384	O	0.825877	0.853805	0.823781
	H385	H	0.838735	0.855620	0.818935
	H386	H	0.829085	0.860916	0.813189
	O387	O	0.520308	1.290318	1.260748
	H388	H	0.536037	1.279837	1.242736
	H389	H	0.556808	1.283342	1.252451
	O390	O	-0.218772	1.223795	0.814603
	H391	H	-0.221468	1.230002	0.827280
	H392	H	-0.238138	1.239296	0.828457
	O393	O	1.212589	-0.026410	-0.189653
	H394	H	1.222906	-0.019428	-0.196968
	H395	H	1.214929	-0.021788	-0.176155
	O396	O	0.397553	0.302207	0.497437
	H397	H	0.433643	0.296691	0.496736
	H398	H	0.373625	0.301029	0.499412
	O399	O	0.337018	0.659453	0.449108
	H400	H	0.315577	0.669234	0.458384
	H401	H	0.349828	0.653437	0.470935
	O402	O	0.983521	-0.031046	0.760048
	H403	H	0.976439	-0.017713	0.756313
	H404	H	0.990429	-0.035419	0.751609
	O405	O	0.312428	0.697023	0.286611
	H406	H	0.300135	0.644521	0.277701
	H407	H	0.302333	0.706735	0.339573
	O408	O	0.774407	0.985138	1.192806
	H409	H	0.744037	0.977178	1.226622
	H410	H	0.784880	0.946041	1.176381
	O411	O	0.996786	0.790747	-0.181571
	H412	H	1.009355	0.771825	-0.211281
	H413	H	1.010733	0.806196	-0.182579
	O414	O	0.151521	-0.068539	-0.079708
	H415	H	0.163769	-0.043279	-0.076306
	H416	H	0.158466	-0.084102	-0.072893
	O417	O	0.166639	0.193714	1.155750
	H418	H	0.167066	0.202774	1.118120
	H419	H	0.182902	0.143721	1.169046
	O420	O	0.774385	0.043264	1.021954
	H421	H	0.776612	0.025506	1.028936
	H422	H	0.773704	0.029810	1.023375
	O423	O	1.335347	0.663731	0.641464
	H424	H	1.355005	0.671142	0.627084
	H425	H	1.337552	0.646324	0.630142
	O426	O	0.605863	0.571220	0.386564
	H427	H	0.607469	0.582352	0.380482
	H428	H	0.590718	0.566555	0.364628
	O429	O	0.789218	1.056715	-0.232484
	H430	H	0.783418	1.081107	-0.249065
	H431	H	0.780513	1.067248	-0.235049
	O432	O	1.471434	-0.268367	1.251612
	H433	H	1.441160	-0.259362	1.244747
	H434	H	1.444241	-0.252453	1.236995
	O435	O	-0.660621	-0.536199	0.479776
	H436	H	-0.663018	-0.533536	0.482821
	H437	H	-0.653783	-0.552674	0.476472
	O438	O	0.465624	0.534437	0.712186
	H439	H	0.445430	0.540632	0.703941
	H440	H	0.449730	0.542172	0.723267
	O441	O	0.521025	0.428126	0.377235
	H442	H	0.522311	0.430799	0.382243
	H443	H	0.518255	0.423612	0.384638
	O444	O	0.579174	0.293650	0.441639
	H445	H	0.602953	0.276496	0.430593
	H446	H	0.588112	0.298252	0.421754
	O447	O	0.547088	0.587859	0.411426
	H448	H	0.547998	0.587854	0.399550
	H449	H	0.544381	0.599447	0.409265
	O450	O	1.629382	-0.449221	0.688481
	H451	H	1.623490	-0.459847	0.683093
	H452	H	1.633792	-0.451601	0.691368
	O453	O	0.856680	-0.192614	0.924938
	H454	H	0.855372	-0.201429	0.907560
	H455	H	0.850707	-0.183157	0.911067
	O456	O	0.011723	1.197089	0.913537
	H457	H	0.003786	1.184212	0.908375
	H458	H	-0.003723	1.197590	0.916919
	O459	O	0.392112	0.651932	0.490593
	H460	H	0.411604	0.639485	0.484600
	H461	H	0.391599	0.642186	0.495586
	O462	O	0.609168	0.314370	0.674674
	H463	H	0.599909	0.320036	0.674082
	H464	H	0.609642	0.319943	0.662107
	O465	O	0.351294	0.430253	0.332888
	H466	H	0.372347	0.425327	0.341250
	H467	H	0.358495	0.407079	0.350144
	O468	O	0.133872	0.849917	0.026845
	H469	H	0.143989	0.837608	0.023252
	H470	H	0.134492	0.873011	0.039702
	O471	O	0.282863	0.536774	0.262002
	H472	H	0.244749	0.533009	0.234724
	H473	H	0.294631	0.505296	0.284694
	O474	O	0.786650	0.808674	-0.052618
	H475	H	0.774515	0.803424	-0.054793
	H476	H	0.791073	0.827668	-0.067839
	O477	O	-0.238749	-0.113699	0.809790
	H478	H	-0.241697	-0.125510	0.792799
	H479	H	-0.233215	-0.104108	0.800500
