data_Molecule from HDF5

_cell_length_a		16.379473
_cell_length_b		16.236659
_cell_length_c		16.230901
_cell_angle_alpha	90.120385
_cell_angle_beta	90.345175
_cell_angle_gamma	89.828994
_symmetry_space_group_name_H-M	'P 1'
_symmetry_Int_Tables_number		1

loop_
	_symmetry_equiv_pos_as_xyz
	x,y,z

loop_
	_atom_site_label
	_atom_site_type_symbol
	_atom_site_fract_x
	_atom_site_fract_y
	_atom_site_fract_z
	H0	H	0.410772	0.833357	0.707095
	H1	H	0.603645	0.162665	0.711108
	H2	H	0.602714	0.834482	0.282232
	H3	H	0.406589	0.163164	0.283809
	H4	H	0.720303	0.398390	0.831018
	H5	H	0.722420	0.598547	0.158508
	H6	H	0.288109	0.600767	0.833367
	H7	H	0.292475	0.399588	0.159184
	H8	H	0.842448	0.713478	0.395172
	H9	H	0.168452	0.713374	0.595208
	H10	H	0.842074	0.285038	0.592493
	H11	H	0.167956	0.281549	0.397501
	H12	H	0.843293	0.400049	0.709544
	H13	H	0.168977	0.596231	0.711098
	H14	H	0.843198	0.596416	0.278135
	H15	H	0.169414	0.398241	0.281812
	H16	H	0.407579	0.710846	0.830513
	H17	H	0.604935	0.711713	0.159714
	H18	H	0.603089	0.283712	0.831557
	H19	H	0.410963	0.287900	0.160363
	H20	H	0.721257	0.835017	0.395180
	H21	H	0.720904	0.162250	0.597390
	H22	H	0.291127	0.834867	0.595894
	H23	H	0.288281	0.161047	0.395404
	H24	H	0.911010	0.333293	0.206391
	H25	H	0.106061	0.661406	0.211763
	H26	H	0.103895	0.333853	0.781398
	H27	H	0.909073	0.662702	0.781779
	H28	H	0.220010	0.897992	0.331820
	H29	H	0.221245	0.097549	0.659573
	H30	H	0.788179	0.100098	0.333167
	H31	H	0.791776	0.899074	0.659387
	H32	H	0.342815	0.214433	0.896280
	H33	H	0.668939	0.212494	0.096261
	H34	H	0.342203	0.783661	0.093102
	H35	H	0.667904	0.782220	0.898009
	H36	H	0.341077	0.902709	0.207943
	H37	H	0.667607	0.097673	0.214022
	H38	H	0.343005	0.097010	0.780207
	H39	H	0.668188	0.898143	0.782008
	H40	H	0.906185	0.211447	0.330985
	H41	H	0.102914	0.211314	0.660281
	H42	H	0.102719	0.783828	0.331383
	H43	H	0.909396	0.786524	0.660253
	H44	H	0.222324	0.334853	0.895679
	H45	H	0.221374	0.662039	0.096268
	H46	H	0.791844	0.335129	0.094158
	H47	H	0.789550	0.661808	0.893158
	H48	H	0.410690	0.115422	0.586915
	H49	H	0.602973	0.879513	0.595156
	H50	H	0.590757	0.113332	0.404622
	H51	H	0.409125	0.880897	0.402704
	H52	H	0.610452	0.405890	0.115360
	H53	H	0.590769	0.595418	0.878809
	H54	H	0.408127	0.603258	0.117334
	H55	H	0.416668	0.413454	0.881977
	H56	H	0.122849	0.588628	0.395982
	H57	H	0.890764	0.590892	0.587389
	H58	H	0.121123	0.401829	0.585080
	H59	H	0.893710	0.407289	0.411526
	H60	H	0.119915	0.407992	0.588785
	H61	H	0.889408	0.592877	0.588962
	H62	H	0.122654	0.598896	0.404742
	H63	H	0.890283	0.414396	0.392312
	H64	H	0.405960	0.579247	0.110909
	H65	H	0.606575	0.593282	0.875341
	H66	H	0.598255	0.415443	0.108616
	H67	H	0.416311	0.399422	0.877884
	H68	H	0.600455	0.113421	0.411323
	H69	H	0.592778	0.884496	0.588481
	H70	H	0.412388	0.115482	0.589548
	H71	H	0.412902	0.880372	0.399915
	H72	H	0.913042	0.616348	0.089896
	H73	H	0.096420	0.381078	0.093278
	H74	H	0.097155	0.616623	0.895133
	H75	H	0.912087	0.384002	0.910406
	H76	H	0.097888	0.918989	0.608317
	H77	H	0.099883	0.094125	0.377261
	H78	H	0.914585	0.095201	0.613351
	H79	H	0.913269	0.913060	0.380691
	H80	H	0.625356	0.097095	0.896345
	H81	H	0.389297	0.094138	0.088914
	H82	H	0.622541	0.899566	0.092770
	H83	H	0.388480	0.895317	0.906017
	H84	H	0.619259	0.905076	0.083703
	H85	H	0.389519	0.093939	0.090625
	H86	H	0.619551	0.094823	0.915974
	H87	H	0.393080	0.913049	0.907879
	H88	H	0.909321	0.091295	0.613974
	H89	H	0.101552	0.086823	0.378337
	H90	H	0.090398	0.897338	0.611877
	H91	H	0.915650	0.903829	0.378860
	H92	H	0.093141	0.612083	0.908341
	H93	H	0.099514	0.383994	0.080217
	H94	H	0.917910	0.613012	0.085519
	H95	H	0.906495	0.378265	0.897830
	H96	H	0.413115	0.113979	0.586707
	H97	H	0.604823	0.882370	0.581613
	H98	H	0.600698	0.117870	0.400551
	H99	H	0.413300	0.882281	0.404743
	H100	H	0.595538	0.399363	0.112570
	H101	H	0.597310	0.581551	0.880995
	H102	H	0.427439	0.590438	0.108565
	H103	H	0.404881	0.408044	0.876558
	H104	H	0.117769	0.586662	0.408850
	H105	H	0.889586	0.593656	0.587068
	H106	H	0.123593	0.401921	0.591781
	H107	H	0.886202	0.394656	0.397026
	H108	H	0.911718	0.614801	0.083701
	H109	H	0.108769	0.378581	0.088728
	H110	H	0.106782	0.616415	0.906171
	H111	H	0.920508	0.382775	0.898782
	H112	H	0.111976	0.903055	0.617004
	H113	H	0.094210	0.090018	0.379722
	H114	H	0.914396	0.089107	0.611048
	H115	H	0.906978	0.906469	0.377385
	H116	H	0.618071	0.078760	0.902465
	H117	H	0.389385	0.095329	0.089712
	H118	H	0.620032	0.910097	0.093575
	H119	H	0.386992	0.906758	0.891703
	C120	C	0.384619	0.006746	0.616432
	C121	C	0.628440	0.990137	0.618206
	C122	C	0.626518	0.006783	0.375590
	C123	C	0.383250	0.989803	0.374231
	C124	C	0.629031	0.377113	0.004008
	C125	C	0.627755	0.619606	0.986582
	C126	C	0.384498	0.620120	0.003991
	C127	C	0.385186	0.378355	0.987304
	C128	C	0.013755	0.620322	0.373437
	C129	C	0.997621	0.620753	0.617229
	C130	C	0.013941	0.376264	0.616447
	C131	C	0.997681	0.376001	0.372916
	C132	C	0.885716	0.506642	0.115453
	C133	C	0.129342	0.489700	0.116989
	C134	C	0.127793	0.506762	0.874310
	C135	C	0.884225	0.489798	0.873187
	C136	C	0.127661	0.877192	0.504115
	C137	C	0.127133	0.119269	0.487136
	C138	C	0.883308	0.120439	0.504395
	C139	C	0.884229	0.878480	0.487403
	C140	C	0.513586	0.119672	0.875177
	C141	C	0.497048	0.121775	0.119094
	C142	C	0.513165	0.876588	0.117880
	C143	C	0.497186	0.876068	0.874048
	C144	C	0.388639	0.882818	0.670804
	C145	C	0.624922	0.113449	0.673531
	C146	C	0.623479	0.883343	0.320223
	C147	C	0.385744	0.113436	0.320066
	C148	C	0.682543	0.378733	0.880106
	C149	C	0.684602	0.618536	0.109662
	C150	C	0.327467	0.619383	0.881509
	C151	C	0.330745	0.380356	0.110504
	C152	C	0.891245	0.675394	0.375036
	C153	C	0.119985	0.675417	0.615465
	C154	C	0.891115	0.322105	0.613416
	C155	C	0.119739	0.320022	0.376607
	C156	C	0.891693	0.379414	0.671490
	C157	C	0.120154	0.617065	0.672970
	C158	C	0.891535	0.617189	0.316981
	C159	C	0.120400	0.378024	0.318908
	C160	C	0.386752	0.674463	0.880110
	C161	C	0.625896	0.674672	0.110288
	C162	C	0.624433	0.321531	0.880559
	C163	C	0.389511	0.324705	0.111102
	C164	C	0.682538	0.883862	0.376424
	C165	C	0.683202	0.113222	0.617049
	C166	C	0.329371	0.883535	0.615229
	C167	C	0.327016	0.112578	0.375701
	C168	C	0.889524	0.382761	0.169467
	C169	C	0.126434	0.612798	0.173375
	C170	C	0.124611	0.382831	0.819370
	C171	C	0.887361	0.613526	0.818594
	C172	C	0.182113	0.878355	0.380649
	C173	C	0.182905	0.117555	0.610513
	C174	C	0.826745	0.119380	0.381751
	C175	C	0.829860	0.879730	0.610562
	C176	C	0.391444	0.176200	0.876207
	C177	C	0.619862	0.175643	0.117050
	C178	C	0.390820	0.821764	0.114141
	C179	C	0.619446	0.820374	0.877311
	C180	C	0.390169	0.881059	0.171150
	C181	C	0.619440	0.117979	0.175108
	C182	C	0.391373	0.117679	0.818589
	C183	C	0.619335	0.878026	0.819478
	C184	C	0.885844	0.174515	0.380477
	C185	C	0.124036	0.173922	0.610985
	C186	C	0.123861	0.821794	0.380284
	C187	C	0.888150	0.823400	0.610767
	C188	C	0.183785	0.383603	0.875778
	C189	C	0.183728	0.613132	0.115864
	C190	C	0.830497	0.383606	0.113420
	C191	C	0.828166	0.613090	0.874014
	C192	C	0.406055	0.092720	0.594314
	C193	C	0.606558	0.904160	0.595115
	C194	C	0.603970	0.092869	0.398805
	C195	C	0.405362	0.903446	0.395966
	C196	C	0.607815	0.400112	0.090043
	C197	C	0.605014	0.596840	0.900699
	C198	C	0.407348	0.597693	0.090063
	C199	C	0.406351	0.400464	0.901124
	C200	C	0.099114	0.597955	0.396488
	C201	C	0.912168	0.598866	0.594491
	C202	C	0.099394	0.397639	0.594867
	C203	C	0.912107	0.398761	0.394110
	C204	C	0.907850	0.592530	0.092952
	C205	C	0.107819	0.403613	0.094297
	C206	C	0.105595	0.592759	0.896591
	C207	C	0.906386	0.403878	0.895743
	C208	C	0.106297	0.899761	0.590113
	C209	C	0.105007	0.096901	0.400805
	C210	C	0.905887	0.098240	0.590504
	C211	C	0.905779	0.901063	0.401411
	C212	C	0.598878	0.096843	0.898283
	C213	C	0.411533	0.100523	0.096414
	C214	C	0.598634	0.898561	0.096231
	C215	C	0.411511	0.898489	0.895649
	Zn216	Zn	0.505893	-0.001822	0.745291
	Zn217	Zn	0.504842	-0.001137	0.247031
	Zn218	Zn	0.756600	0.499274	-0.005371
	Zn219	Zn	0.256917	0.499061	-0.004114
	Zn220	Zn	0.005402	0.749831	0.495364
	Zn221	Zn	0.004978	0.247128	0.495288
	Zn222	Zn	0.005681	0.498044	0.745480
	Zn223	Zn	0.006600	0.497727	0.244076
	Zn224	Zn	0.505393	0.747491	-0.004388
	Zn225	Zn	0.505697	0.249721	-0.003599
	Zn226	Zn	0.755717	-0.001279	0.496166
	Zn227	Zn	0.256174	-0.002307	0.495532
	N228	N	0.422402	0.960324	0.671615
	N229	N	0.591736	0.035841	0.674598
	N230	N	0.589347	0.960813	0.319685
	N231	N	0.420046	0.036127	0.319080
	N232	N	0.685871	0.412176	0.958010
	N233	N	0.685776	0.585032	0.031724
	N234	N	0.326023	0.586396	0.959472
	N235	N	0.328043	0.413148	0.032481
	N236	N	0.968300	0.677539	0.409334
	N237	N	0.042770	0.677797	0.581609
	N238	N	0.968024	0.320122	0.579836
	N239	N	0.042464	0.318683	0.409419
	N240	N	0.968954	0.412543	0.673349
	N241	N	0.042937	0.583892	0.674210
	N242	N	0.968791	0.583795	0.315780
	N243	N	0.043409	0.412292	0.316571
	N244	N	0.421670	0.675000	0.957507
	N245	N	0.591599	0.675909	0.032869
	N246	N	0.591805	0.320456	0.958456
	N247	N	0.422588	0.323323	0.033517
	N248	N	0.684349	0.961683	0.410170
	N249	N	0.685463	0.035397	0.583398
	N250	N	0.326672	0.961526	0.582255
	N251	N	0.325520	0.034600	0.408844
	N252	N	0.923298	0.460208	0.170538
	N253	N	0.093149	0.535260	0.174173
	N254	N	0.090789	0.460426	0.818114
	N255	N	0.921460	0.536145	0.817887
	N256	N	0.184550	0.912116	0.458515
	N257	N	0.184835	0.084292	0.532576
	N258	N	0.824997	0.086445	0.459771
	N259	N	0.827113	0.913202	0.532786
	N260	N	0.468550	0.177557	0.910539
	N261	N	0.542946	0.177931	0.082664
	N262	N	0.468374	0.818761	0.082010
	N263	N	0.542342	0.819155	0.910425
	N264	N	0.467217	0.914611	0.173344
	N265	N	0.542110	0.085371	0.176457
	N266	N	0.468247	0.083383	0.817673
	N267	N	0.542308	0.911847	0.817243
	N268	N	0.920354	0.175321	0.457878
	N269	N	0.090349	0.175326	0.533162
	N270	N	0.090900	0.820769	0.457944
	N271	N	0.921182	0.822511	0.533152
	N272	N	0.185762	0.461539	0.909247
	N273	N	0.185540	0.535605	0.081664
	N274	N	0.827996	0.461707	0.080659
	N275	N	0.825913	0.535134	0.907217
	O276	O	1.044164	0.937773	-0.056169
	H277	H	1.044669	0.933567	-0.051904
	H278	H	1.043924	0.946047	-0.058654
	O279	O	-0.000019	0.067578	1.021915
	H280	H	-0.002878	0.065624	1.018525
	H281	H	-0.009665	0.072269	1.027450
	O282	O	-0.043359	-0.045651	0.029560
	H283	H	-0.047774	-0.052505	0.020552
	H284	H	-0.045975	-0.050439	0.024409
	O285	O	0.479012	0.617395	0.538680
	H286	H	0.471695	0.616552	0.537870
	H287	H	0.479482	0.630704	0.544272
	O288	O	-0.070546	-0.033868	0.012217
	H289	H	-0.072615	-0.040548	0.022865
	H290	H	-0.073473	-0.040028	0.012414
	O291	O	-0.049123	1.038283	-0.093058
	H292	H	-0.049112	1.049685	-0.100221
	H293	H	-0.037466	1.038230	-0.084791
	O294	O	-0.038597	0.999832	0.033237
	H295	H	-0.036110	1.005579	0.029995
	H296	H	-0.042554	0.998193	0.027798
	O297	O	0.564547	0.479456	0.484442
	H298	H	0.571424	0.485185	0.480662
	H299	H	0.546808	0.471557	0.480266
	O300	O	0.564033	0.506173	0.423253
	H301	H	0.576182	0.512302	0.429130
	H302	H	0.564353	0.509302	0.423905
	O303	O	0.986067	0.000500	0.970614
	H304	H	1.000622	-0.000996	0.971695
	H305	H	0.982616	0.004299	0.977936
	O306	O	0.009083	0.998157	0.996473
	H307	H	0.010710	0.999186	0.994777
	H308	H	0.012707	0.999906	0.997315
	O309	O	-0.028283	0.920507	0.988321
	H310	H	-0.026636	0.928809	0.992988
	H311	H	-0.033804	0.922338	0.980503
	O312	O	-0.019092	0.002928	0.944194
	H313	H	-0.020572	0.001187	0.947091
	H314	H	-0.025191	0.013258	0.929242
	O315	O	0.495318	0.455941	0.473524
	H316	H	0.489658	0.457070	0.471236
	H317	H	0.499274	0.452002	0.479917
	O318	O	0.005161	-0.021973	0.971878
	H319	H	0.001127	-0.024921	0.973502
	H320	H	-0.008928	-0.028343	0.972334
	O321	O	0.430822	0.502817	0.520512
	H322	H	0.432948	0.487799	0.509852
	H323	H	0.420949	0.499047	0.535738
	O324	O	0.984982	0.026693	1.012770
	H325	H	0.986794	0.013332	1.018406
	H326	H	0.987079	0.029852	1.025298
	O327	O	0.960947	1.018259	0.986130
	H328	H	0.960059	1.024401	0.985739
	H329	H	0.958259	1.025410	0.967074
	O330	O	0.465417	0.489910	0.520379
	H331	H	0.458020	0.496097	0.517677
	H332	H	0.461672	0.487913	0.516688
	O333	O	0.485767	0.522835	0.524629
	H334	H	0.490714	0.527428	0.523157
	H335	H	0.481365	0.524338	0.526711
	O336	O	0.454440	0.539915	0.468525
	H337	H	0.451673	0.548297	0.473131
	H338	H	0.451541	0.547761	0.468786
	O339	O	0.541120	0.486102	0.540956
	H340	H	0.535376	0.476535	0.546672
	H341	H	0.542847	0.479880	0.543000
	O342	O	0.449456	0.467072	0.459343
	H343	H	0.459969	0.467785	0.445105
	H344	H	0.453963	0.466777	0.459228
	O345	O	0.463945	0.413186	0.490765
	H346	H	0.462597	0.419361	0.495039
	H347	H	0.468020	0.409733	0.478330
