data_Molecule from HDF5

_cell_length_a		16.612724
_cell_length_b		16.732280
_cell_length_c		16.621988
_cell_angle_alpha	90.038494
_cell_angle_beta	89.938844
_cell_angle_gamma	89.919846
_symmetry_space_group_name_H-M	'P 1'
_symmetry_Int_Tables_number		1

loop_
	_symmetry_equiv_pos_as_xyz
	x,y,z

loop_
	_atom_site_label
	_atom_site_type_symbol
	_atom_site_fract_x
	_atom_site_fract_y
	_atom_site_fract_z
	H0	H	0.366297	0.830944	0.715697
	H1	H	0.580570	0.137232	0.715149
	H2	H	0.576562	0.829736	0.272485
	H3	H	0.366464	0.138284	0.268371
	H4	H	0.694741	0.381702	0.835348
	H5	H	0.691343	0.586443	0.149222
	H6	H	0.255360	0.587785	0.835665
	H7	H	0.253822	0.379456	0.147462
	H8	H	0.822345	0.709731	0.382536
	H9	H	0.128676	0.708990	0.599557
	H10	H	0.819211	0.265093	0.596936
	H11	H	0.130166	0.264156	0.387696
	H12	H	0.818272	0.381755	0.711862
	H13	H	0.130106	0.590478	0.713270
	H14	H	0.821331	0.592710	0.269428
	H15	H	0.130982	0.380933	0.272581
	H16	H	0.369126	0.705304	0.836830
	H17	H	0.575719	0.702435	0.149097
	H18	H	0.580728	0.263892	0.836192
	H19	H	0.371359	0.264524	0.147293
	H20	H	0.694877	0.830500	0.387357
	H21	H	0.695902	0.137917	0.597589
	H22	H	0.251822	0.830501	0.598145
	H23	H	0.249697	0.137313	0.384795
	H24	H	0.871232	0.329835	0.212254
	H25	H	0.079975	0.639136	0.214368
	H26	H	0.077036	0.329847	0.772373
	H27	H	0.874292	0.642512	0.775093
	H28	H	0.195712	0.880066	0.336061
	H29	H	0.197837	0.091457	0.646240
	H30	H	0.757086	0.087732	0.334416
	H31	H	0.753132	0.880217	0.646169
	H32	H	0.322403	0.210925	0.882555
	H33	H	0.631284	0.205029	0.096848
	H34	H	0.317849	0.767315	0.093464
	H35	H	0.630832	0.765507	0.888374
	H36	H	0.315720	0.886594	0.206553
	H37	H	0.630413	0.089372	0.212280
	H38	H	0.320608	0.092594	0.768610
	H39	H	0.630988	0.882933	0.773860
	H40	H	0.869303	0.206158	0.336392
	H41	H	0.082306	0.208222	0.645915
	H42	H	0.081179	0.762758	0.336629
	H43	H	0.869394	0.763420	0.645463
	H44	H	0.193424	0.329190	0.889390
	H45	H	0.195212	0.639820	0.097151
	H46	H	0.754507	0.329708	0.095997
	H47	H	0.758266	0.642724	0.892712
	H48	H	0.384385	0.094995	0.580103
	H49	H	0.568074	0.871926	0.577070
	H50	H	0.562972	0.094288	0.407339
	H51	H	0.385523	0.873887	0.402297
	H52	H	0.559280	0.389646	0.103300
	H53	H	0.564123	0.580345	0.878239
	H54	H	0.385723	0.569433	0.102204
	H55	H	0.386778	0.389088	0.878567
	H56	H	0.086127	0.572463	0.405100
	H57	H	0.864127	0.569783	0.583427
	H58	H	0.088871	0.391806	0.585900
	H59	H	0.861012	0.394174	0.399482
	H60	H	0.086013	0.391669	0.576900
	H61	H	0.861462	0.578827	0.583690
	H62	H	0.084437	0.572452	0.406355
	H63	H	0.862463	0.391894	0.405956
	H64	H	0.389522	0.579311	0.103703
	H65	H	0.569963	0.575486	0.877722
	H66	H	0.571098	0.392345	0.106342
	H67	H	0.379804	0.400299	0.880341
	H68	H	0.571639	0.099909	0.399542
	H69	H	0.563718	0.871654	0.586765
	H70	H	0.389844	0.093378	0.580642
	H71	H	0.385508	0.874410	0.401104
	H72	H	0.881641	0.594669	0.076699
	H73	H	0.067368	0.373341	0.080003
	H74	H	0.065384	0.595799	0.903122
	H75	H	0.882596	0.373738	0.904487
	H76	H	0.055697	0.891215	0.602230
	H77	H	0.058642	0.071555	0.383447
	H78	H	0.882046	0.071558	0.603202
	H79	H	0.886273	0.894922	0.379103
	H80	H	0.588389	0.077773	0.901986
	H81	H	0.362025	0.081924	0.075688
	H82	H	0.587115	0.893801	0.081476
	H83	H	0.363899	0.896580	0.907499
	H84	H	0.587701	0.893905	0.084238
	H85	H	0.367156	0.070177	0.076294
	H86	H	0.582961	0.071994	0.909328
	H87	H	0.361612	0.897418	0.898623
	H88	H	0.888392	0.075241	0.602160
	H89	H	0.062263	0.075670	0.380244
	H90	H	0.068998	0.894313	0.605460
	H91	H	0.884821	0.896497	0.378511
	H92	H	0.065295	0.597145	0.901739
	H93	H	0.062110	0.373984	0.084966
	H94	H	0.880719	0.598290	0.086833
	H95	H	0.882814	0.373179	0.897442
	H96	H	0.387401	0.093049	0.575309
	H97	H	0.557972	0.875976	0.578903
	H98	H	0.559925	0.098067	0.395235
	H99	H	0.386204	0.874707	0.401416
	H100	H	0.563603	0.400855	0.101236
	H101	H	0.563325	0.573301	0.880987
	H102	H	0.379858	0.576623	0.106090
	H103	H	0.392449	0.400185	0.883381
	H104	H	0.085040	0.570631	0.405863
	H105	H	0.864602	0.575161	0.575612
	H106	H	0.085094	0.399918	0.581616
	H107	H	0.864448	0.398529	0.404114
	H108	H	0.890498	0.594545	0.083119
	H109	H	0.061353	0.377036	0.078342
	H110	H	0.063792	0.597063	0.902676
	H111	H	0.888378	0.375266	0.901256
	H112	H	0.060556	0.903905	0.598850
	H113	H	0.064793	0.070291	0.381476
	H114	H	0.882562	0.078768	0.605389
	H115	H	0.886326	0.896696	0.380338
	H116	H	0.585428	0.067664	0.899645
	H117	H	0.361163	0.074977	0.086914
	H118	H	0.588848	0.891617	0.082544
	H119	H	0.360483	0.889444	0.903481
	C120	C	0.353434	-0.007708	0.612439
	C121	C	0.595576	0.975194	0.613014
	C122	C	0.595852	-0.005757	0.369312
	C123	C	0.352662	0.976132	0.369739
	C124	C	0.596733	0.363198	0.000201
	C125	C	0.595442	0.606081	0.983339
	C126	C	0.353291	0.606127	0.000601
	C127	C	0.354349	0.364009	0.983621
	C128	C	-0.016506	0.605334	0.371760
	C129	C	0.966152	0.606658	0.613033
	C130	C	-0.016777	0.363408	0.613543
	C131	C	0.966081	0.363805	0.371353
	C132	C	0.852954	0.493461	0.114092
	C133	C	0.096236	0.476713	0.113631
	C134	C	0.096061	0.493867	0.870676
	C135	C	0.853826	0.477350	0.870851
	C136	C	0.095307	0.863718	0.499882
	C137	C	0.095487	0.105814	0.483796
	C138	C	0.852901	0.106474	0.500175
	C139	C	0.853412	0.863855	0.482105
	C140	C	0.483461	0.106034	0.870405
	C141	C	0.466541	0.106770	0.112317
	C142	C	0.483317	0.863681	0.112634
	C143	C	0.465640	0.863361	0.871114
	C144	C	0.348988	0.877214	0.674909
	C145	C	0.598459	0.091203	0.673983
	C146	C	0.596065	0.876520	0.311584
	C147	C	0.348760	0.092046	0.308945
	C148	C	0.655483	0.362467	0.882375
	C149	C	0.652343	0.605512	0.102049
	C150	C	0.294728	0.606714	0.882740
	C151	C	0.294221	0.361484	0.100670
	C152	C	0.868181	0.668005	0.366262
	C153	C	0.082503	0.667679	0.616691
	C154	C	0.865767	0.304761	0.615323
	C155	C	0.083480	0.304117	0.369246
	C156	C	0.865549	0.362824	0.672310
	C157	C	0.083410	0.608966	0.673156
	C158	C	0.867768	0.609826	0.309765
	C159	C	0.083845	0.362177	0.312182
	C160	C	0.351258	0.665223	0.883408
	C161	C	0.594894	0.663362	0.101902
	C162	C	0.598893	0.303959	0.882816
	C163	C	0.352584	0.304451	0.100731
	C164	C	0.654580	0.877067	0.368682
	C165	C	0.655698	0.091485	0.615731
	C166	C	0.292201	0.876801	0.616203
	C167	C	0.290863	0.091656	0.366680
	C168	C	0.852214	0.376439	0.172742
	C169	C	0.098307	0.592758	0.174002
	C170	C	0.096628	0.376496	0.811794
	C171	C	0.854315	0.595535	0.814024
	C172	C	0.156020	0.861246	0.382886
	C173	C	0.157017	0.109233	0.599826
	C174	C	0.795127	0.107253	0.382127
	C175	C	0.792873	0.861396	0.599229
	C176	C	0.368010	0.168770	0.865843
	C177	C	0.584086	0.165432	0.114843
	C178	C	0.364582	0.806917	0.112410
	C179	C	0.583677	0.805019	0.869592
	C180	C	0.363615	0.866026	0.168464
	C181	C	0.583602	0.107962	0.172482
	C182	C	0.367135	0.110198	0.809178
	C183	C	0.583766	0.863152	0.812604
	C184	C	0.851264	0.166010	0.383039
	C185	C	0.099733	0.167285	0.599671
	C186	C	0.098901	0.803304	0.383220
	C187	C	0.850819	0.803841	0.599191
	C188	C	0.153984	0.376069	0.870101
	C189	C	0.155633	0.593014	0.115690
	C190	C	0.794222	0.376493	0.114954
	C191	C	0.796616	0.595518	0.872175
	C192	C	0.379771	0.072774	0.586156
	C193	C	0.570502	0.894134	0.587946
	C194	C	0.571630	0.076106	0.393546
	C195	C	0.378260	0.895401	0.394700
	C196	C	0.572056	0.387539	0.082216
	C197	C	0.572384	0.582932	0.900559
	C198	C	0.377915	0.581959	0.082572
	C199	C	0.379354	0.389217	0.901883
	C200	C	0.064220	0.579191	0.398275
	C201	C	0.884697	0.581466	0.587936
	C202	C	0.065447	0.387486	0.588630
	C203	C	0.883990	0.387931	0.395989
	C204	C	0.877460	0.574799	0.089351
	C205	C	0.070807	0.395786	0.088392
	C206	C	0.071683	0.575382	0.895381
	C207	C	0.877770	0.395380	0.894203
	C208	C	0.069307	0.889455	0.581167
	C209	C	0.069124	0.080014	0.402749
	C210	C	0.877325	0.082098	0.582253
	C211	C	0.878695	0.888673	0.400649
	C212	C	0.564519	0.079930	0.896459
	C213	C	0.384677	0.082641	0.086976
	C214	C	0.566269	0.886454	0.089451
	C215	C	0.383483	0.887627	0.895996
	Zn216	Zn	0.473820	-0.015704	0.742251
	Zn217	Zn	0.473954	-0.014706	0.240564
	Zn218	Zn	0.724216	0.485139	-0.007995
	Zn219	Zn	0.225041	0.484794	-0.007862
	Zn220	Zn	-0.025135	0.734967	0.491277
	Zn221	Zn	-0.025746	0.234637	0.492146
	Zn222	Zn	-0.025344	0.485386	0.741326
	Zn223	Zn	-0.025275	0.484865	0.243022
	Zn224	Zn	0.474336	0.734725	-0.008352
	Zn225	Zn	0.475678	0.234800	-0.008549
	Zn226	Zn	0.724782	-0.014534	0.491113
	Zn227	Zn	0.224123	-0.015786	0.491824
	N228	N	0.386467	0.950211	0.672738
	N229	N	0.561664	0.017822	0.672496
	N230	N	0.560442	0.950699	0.311419
	N231	N	0.386627	0.019204	0.310481
	N232	N	0.654465	0.398579	0.956574
	N233	N	0.653083	0.570663	0.027295
	N234	N	0.295755	0.570581	0.956729
	N235	N	0.295054	0.397720	0.026650
	N236	N	0.941212	0.665247	0.404331
	N237	N	0.008457	0.666571	0.580022
	N238	N	0.940221	0.304697	0.579498
	N239	N	0.009093	0.304830	0.405308
	N240	N	0.939923	0.398421	0.671518
	N241	N	0.010015	0.571508	0.671011
	N242	N	0.940502	0.571299	0.312889
	N243	N	0.009679	0.398366	0.313125
	N244	N	0.387160	0.664992	0.957702
	N245	N	0.560422	0.664081	0.027021
	N246	N	0.563156	0.304152	0.957251
	N247	N	0.389230	0.305700	0.026712
	N248	N	0.654781	0.951378	0.403682
	N249	N	0.654269	0.018340	0.578439
	N250	N	0.294935	0.949406	0.577885
	N251	N	0.293259	0.018635	0.403892
	N252	N	0.887759	0.450390	0.172761
	N253	N	0.061980	0.519239	0.173041
	N254	N	0.061601	0.450790	0.811718
	N255	N	0.888839	0.520919	0.812752
	N256	N	0.154051	0.898005	0.456725
	N257	N	0.154737	0.071635	0.526486
	N258	N	0.795844	0.071046	0.456151
	N259	N	0.794060	0.897774	0.525335
	N260	N	0.441474	0.166426	0.903276
	N261	N	0.509988	0.165067	0.078442
	N262	N	0.440113	0.805055	0.078704
	N263	N	0.508970	0.804756	0.905027
	N264	N	0.438544	0.900475	0.169008
	N265	N	0.509346	0.072207	0.171253
	N266	N	0.439873	0.071516	0.812124
	N267	N	0.509151	0.898319	0.813108
	N268	N	0.886517	0.165851	0.457716
	N269	N	0.062157	0.165359	0.526420
	N270	N	0.062013	0.804598	0.457079
	N271	N	0.887335	0.804902	0.525075
	N272	N	0.154045	0.450103	0.905898
	N273	N	0.154559	0.519750	0.078921
	N274	N	0.794386	0.450420	0.079322
	N275	N	0.795731	0.520852	0.906380
	O276	O	0.192467	0.768791	-0.041370
	H277	H	0.193007	0.758720	-0.046676
	H278	H	0.201377	0.760107	-0.059254
	O279	O	0.540959	0.404453	0.709983
	H280	H	0.541898	0.426059	0.711725
	H281	H	0.548522	0.405654	0.709203
	O282	O	1.091100	0.081672	1.132587
	H283	H	1.096002	0.077121	1.132687
	H284	H	1.098998	0.089540	1.133207
	O285	O	0.460937	0.414193	0.313919
	H286	H	0.461996	0.393938	0.316195
	H287	H	0.480966	0.418199	0.323158
	O288	O	0.676260	0.691612	0.292675
	H289	H	0.656815	0.676650	0.317093
	H290	H	0.659562	0.668081	0.301287
	O291	O	0.512136	0.710636	0.716771
	H292	H	0.547162	0.718511	0.725274
	H293	H	0.513508	0.723701	0.741411
	O294	O	0.999717	-0.222251	0.777044
	H295	H	0.991975	-0.215758	0.787002
	H296	H	0.999708	-0.232665	0.760360
	O297	O	0.758562	0.769941	0.028646
	H298	H	0.739400	0.753550	0.054142
	H299	H	0.763732	0.764878	0.053210
	O300	O	-0.208052	0.017993	0.819872
	H301	H	-0.217594	0.018200	0.829644
	H302	H	-0.208636	0.021966	0.818369
	O303	O	0.311808	0.451630	0.381706
	H304	H	0.326478	0.459608	0.372631
	H305	H	0.290092	0.473164	0.372566
	O306	O	0.619946	0.374311	0.598563
	H307	H	0.638182	0.368605	0.594406
	H308	H	0.625952	0.386414	0.603222
	O309	O	0.259914	0.260402	0.514342
	H310	H	0.229601	0.238988	0.527764
	H311	H	0.257061	0.281385	0.530405
	O312	O	0.674996	0.445170	0.489044
	H313	H	0.676642	0.457394	0.497235
	H314	H	0.670596	0.448263	0.479089
	O315	O	0.983648	0.939122	1.007042
	H316	H	0.978576	0.943316	0.999986
	H317	H	0.987383	0.932482	1.008977
	O318	O	0.507665	0.267590	0.271299
	H319	H	0.488713	0.254373	0.278137
	H320	H	0.493681	0.247883	0.275300
	O321	O	0.029149	1.077862	0.788940
	H322	H	0.041998	1.082276	0.802405
	H323	H	0.051797	1.078073	0.780959
	O324	O	0.757420	0.938355	0.214282
	H325	H	0.742484	0.959328	0.226493
	H326	H	0.757869	0.961040	0.205729
	O327	O	0.155273	0.170709	0.803394
	H328	H	0.189149	0.202741	0.773821
	H329	H	0.150006	0.158352	0.824666
	O330	O	0.708752	0.522170	0.473854
	H331	H	0.700724	0.523845	0.474482
	H332	H	0.711502	0.545532	0.475355
	O333	O	0.540916	0.560838	0.607685
	H334	H	0.538684	0.560258	0.633045
	H335	H	0.533397	0.555006	0.607474
	O336	O	0.689857	0.262357	0.463884
	H337	H	0.701296	0.279459	0.476862
	H338	H	0.705918	0.253256	0.461488
	O339	O	1.184810	-0.017180	1.129554
	H340	H	1.176150	-0.029069	1.113868
	H341	H	1.187102	-0.018565	1.138078
	O342	O	0.262241	0.541882	-0.419656
	H343	H	0.280711	0.561842	-0.423759
	H344	H	0.253279	0.557109	-0.431425
	O345	O	0.160703	0.797246	1.177549
	H346	H	0.142851	0.810245	1.154071
	H347	H	0.140665	0.816839	1.164078
	O348	O	0.283452	0.287799	0.301398
	H349	H	0.308064	0.281921	0.337364
	H350	H	0.293007	0.330269	0.307222
	O351	O	0.811585	1.160124	0.169346
	H352	H	0.793546	1.186695	0.192750
	H353	H	0.840294	1.171097	0.155638
	O354	O	-0.184912	-0.133406	0.955691
	H355	H	-0.179794	-0.145499	0.971833
	H356	H	-0.196829	-0.136342	0.972473
	O357	O	0.933788	0.052644	0.917740
	H358	H	0.944496	0.051211	0.916022
	H359	H	0.932850	0.045943	0.907005
	O360	O	0.688146	0.696890	0.703856
	H361	H	0.721541	0.730201	0.733752
	H362	H	0.686852	0.690671	0.672235
	O363	O	-0.000272	-0.206674	0.055581
	H364	H	-0.000623	-0.218580	0.066347
	H365	H	-0.018416	-0.201407	0.047899
	O366	O	0.543484	0.560238	0.408467
	H367	H	0.543916	0.548306	0.420494
	H368	H	0.536719	0.568326	0.415882
	O369	O	0.698037	0.709699	0.520119
	H370	H	0.706449	0.730731	0.517479
	H371	H	0.689852	0.717253	0.522101
	O372	O	1.209638	1.023579	-0.055089
	H373	H	1.212068	1.051457	-0.045118
	H374	H	1.208658	1.018001	-0.055354
	O375	O	1.182022	0.195894	0.199357
	H376	H	1.207821	0.207371	0.227978
	H377	H	1.179517	0.178031	0.210708
	O378	O	0.430182	0.532483	0.719696
	H379	H	0.419217	0.521704	0.714122
	H380	H	0.429631	0.542871	0.720272
	O381	O	0.181282	0.775503	0.782323
	H382	H	0.193925	0.787959	0.777648
	H383	H	0.151487	0.784836	0.783981
	O384	O	0.774904	0.021622	0.984558
	H385	H	0.777854	0.027519	1.003368
	H386	H	0.788732	0.024921	0.994729
	O387	O	1.428478	0.319501	0.659366
	H388	H	1.439793	0.331603	0.661284
	H389	H	1.416408	0.322641	0.670312
	O390	O	0.329308	0.645775	0.382367
	H391	H	0.324759	0.658671	0.362850
	H392	H	0.319815	0.644754	0.373490
	O393	O	0.391328	0.352551	0.611273
	H394	H	0.393235	0.356588	0.600826
	H395	H	0.396399	0.343275	0.614096
	O396	O	0.257647	1.272987	0.711095
	H397	H	0.273613	1.305266	0.707888
	H398	H	0.282231	1.288092	0.700744
	O399	O	-0.043493	-0.209570	1.203509
	H400	H	-0.068419	-0.208962	1.207591
	H401	H	-0.065943	-0.216857	1.212846
	O402	O	0.510783	0.248551	0.520667
	H403	H	0.520148	0.243185	0.538416
	H404	H	0.528333	0.248208	0.535987
	O405	O	0.752027	0.201766	0.954060
	H406	H	0.737805	0.217229	0.956801
	H407	H	0.748761	0.195252	0.943226
	O408	O	-0.233365	0.167068	-0.171912
	H409	H	-0.201671	0.171985	-0.172690
	H410	H	-0.229979	0.145516	-0.156762
	O411	O	0.932266	1.156207	1.055747
	H412	H	0.915523	1.159496	1.046491
	H413	H	0.940735	1.159522	1.043607
	O414	O	0.948013	-0.065016	0.788111
	H415	H	0.945216	-0.057540	0.795159
	H416	H	0.951850	-0.054217	0.780297
	O417	O	0.700366	0.453205	0.268612
	H418	H	0.702155	0.431175	0.266662
	H419	H	0.721759	0.432459	0.251559
	O420	O	0.442001	0.465641	0.430360
	H421	H	0.444006	0.459106	0.444962
	H422	H	0.432190	0.480814	0.438369
	O423	O	0.198691	0.207558	1.020646
	H424	H	0.204161	0.210523	1.042856
	H425	H	0.213079	0.223941	1.047562
	O426	O	0.395553	0.279898	0.431667
	H427	H	0.390534	0.277472	0.462892
	H428	H	0.393882	0.294412	0.452444
	O429	O	1.020133	0.934737	1.213766
	H430	H	1.025834	0.940180	1.216528
	H431	H	1.005344	0.923700	1.214251
	O432	O	0.286396	0.674047	0.680822
	H433	H	0.279731	0.670194	0.677549
	H434	H	0.297789	0.687852	0.668425
	O435	O	0.787472	0.798839	0.799109
	H436	H	0.801744	0.820136	0.821287
	H437	H	0.807544	0.815319	0.816535
	O438	O	0.252268	-0.300576	0.440417
	H439	H	0.261906	-0.287460	0.427198
	H440	H	0.237019	-0.274794	0.428143
	O441	O	-0.321782	0.268329	-0.302991
	H442	H	-0.333341	0.286759	-0.295703
	H443	H	-0.286934	0.250505	-0.278228
	O444	O	0.258046	0.448945	0.708429
	H445	H	0.239276	0.465325	0.713222
	H446	H	0.257078	0.466960	0.705387
	O447	O	-0.569923	1.716789	0.539971
	H448	H	-0.558648	1.712683	0.534475
	H449	H	-0.555249	1.719807	0.551631
	O450	O	-0.048963	0.782040	0.940291
	H451	H	-0.044112	0.784701	0.942859
	H452	H	-0.049815	0.793166	0.958358
	O453	O	0.677776	0.277018	0.289220
	H454	H	0.649162	0.279834	0.299451
	H455	H	0.660032	0.273393	0.307900
	O456	O	0.694696	-0.460591	0.702220
	H457	H	0.709108	-0.448906	0.717256
	H458	H	0.702943	-0.444286	0.709982
	O459	O	0.944637	1.025326	0.071071
	H460	H	0.957392	1.013465	0.061983
	H461	H	0.934668	1.030784	0.056824
	O462	O	0.535832	0.508932	0.325310
	H463	H	0.551479	0.493991	0.328023
	H464	H	0.531276	0.489033	0.327666
	O465	O	1.115810	-0.075389	-0.028909
	H466	H	1.099661	-0.076317	-0.026088
	H467	H	1.117657	-0.073417	-0.026881
	O468	O	0.257367	0.513913	0.274062
	H469	H	0.226343	0.522303	0.246252
	H470	H	0.278334	0.533134	0.277613
	O471	O	1.185214	0.960892	0.785040
	H472	H	1.197862	0.966946	0.795752
	H473	H	1.192811	0.973172	0.783359
	O474	O	0.324576	0.503629	0.491225
	H475	H	0.324050	0.511947	0.478715
	H476	H	0.331629	0.505610	0.485140
	O477	O	0.777665	0.777595	1.191263
	H478	H	0.769268	0.831986	1.199615
	H479	H	0.743181	0.750226	1.225845
	O480	O	0.467133	0.627473	0.270469
	H481	H	0.472962	0.635330	0.262757
	H482	H	0.480029	0.613321	0.267924
	O483	O	0.331307	0.708657	0.271994
	H484	H	0.298683	0.728734	0.248891
	H485	H	0.360203	0.720201	0.263689
	O486	O	0.866542	-0.007256	0.849841
	H487	H	0.866298	-0.000628	0.852646
	H488	H	0.877047	-0.005540	0.858861
	O489	O	1.039299	1.198444	-0.010413
	H490	H	1.049376	1.194098	-0.013995
	H491	H	1.050830	1.198708	-0.003527
	O492	O	-0.089485	0.009501	0.177859
	H493	H	-0.077718	0.036988	0.176628
	H494	H	-0.088315	0.003469	0.174388
	O495	O	0.009378	1.207827	1.216499
	H496	H	0.018964	1.222007	1.222643
	H497	H	0.029838	1.218036	1.224586
	O498	O	0.943081	1.202171	0.772842
	H499	H	0.960732	1.207420	0.783219
	H500	H	0.950649	1.217541	0.757595
	O501	O	0.558742	0.698752	0.432165
	H502	H	0.537252	0.685215	0.446535
	H503	H	0.558860	0.696140	0.434477
