data_Molecule from HDF5

_cell_length_a		16.518132
_cell_length_b		16.615190
_cell_length_c		16.525510
_cell_angle_alpha	89.934396
_cell_angle_beta	90.104323
_cell_angle_gamma	89.963640
_symmetry_space_group_name_H-M	'P 1'
_symmetry_Int_Tables_number		1

loop_
	_symmetry_equiv_pos_as_xyz
	x,y,z

loop_
	_atom_site_label
	_atom_site_type_symbol
	_atom_site_fract_x
	_atom_site_fract_y
	_atom_site_fract_z
	H0	H	0.400587	0.856696	0.708547
	H1	H	0.602260	0.173844	0.708654
	H2	H	0.605596	0.857654	0.271346
	H3	H	0.394849	0.170075	0.268540
	H4	H	0.718184	0.411928	0.834134
	H5	H	0.721139	0.618035	0.148233
	H6	H	0.280561	0.616310	0.834081
	H7	H	0.279408	0.408691	0.149156
	H8	H	0.843782	0.734947	0.387605
	H9	H	0.158069	0.734109	0.596524
	H10	H	0.843011	0.293574	0.595822
	H11	H	0.157733	0.292992	0.385984
	H12	H	0.842181	0.410687	0.710797
	H13	H	0.157686	0.617371	0.712439
	H14	H	0.843912	0.619590	0.270645
	H15	H	0.157599	0.408557	0.269825
	H16	H	0.396526	0.733738	0.833826
	H17	H	0.608202	0.737960	0.146285
	H18	H	0.603861	0.294310	0.834033
	H19	H	0.393392	0.291259	0.148739
	H20	H	0.719048	0.856733	0.390530
	H21	H	0.719501	0.173715	0.592708
	H22	H	0.281704	0.857520	0.594299
	H23	H	0.278266	0.169961	0.383896
	H24	H	0.894014	0.358955	0.215519
	H25	H	0.109276	0.669393	0.216743
	H26	H	0.104739	0.357093	0.771735
	H27	H	0.894476	0.669434	0.769998
	H28	H	0.223909	0.907548	0.334472
	H29	H	0.222787	0.118281	0.648034
	H30	H	0.780876	0.119347	0.333604
	H31	H	0.784487	0.914718	0.649712
	H32	H	0.343380	0.235864	0.885456
	H33	H	0.657091	0.235532	0.095676
	H34	H	0.343502	0.792851	0.096749
	H35	H	0.657511	0.794040	0.887251
	H36	H	0.344392	0.907154	0.214179
	H37	H	0.657674	0.120189	0.212965
	H38	H	0.343276	0.117639	0.770750
	H39	H	0.659482	0.912511	0.773172
	H40	H	0.895367	0.237225	0.334453
	H41	H	0.107877	0.235802	0.647992
	H42	H	0.108627	0.790191	0.335356
	H43	H	0.899836	0.796832	0.650045
	H44	H	0.221654	0.357160	0.887816
	H45	H	0.226818	0.668519	0.101230
	H46	H	0.778585	0.358189	0.097399
	H47	H	0.777954	0.669294	0.886713
	H48	H	0.418235	0.124745	0.580087
	H49	H	0.592998	0.901946	0.583830
	H50	H	0.589177	0.126133	0.402933
	H51	H	0.418002	0.904897	0.402798
	H52	H	0.592058	0.430521	0.103619
	H53	H	0.586458	0.606198	0.878867
	H54	H	0.416821	0.599545	0.101011
	H55	H	0.412074	0.421777	0.879364
	H56	H	0.112441	0.603077	0.405869
	H57	H	0.887733	0.602381	0.582870
	H58	H	0.110057	0.430232	0.578229
	H59	H	0.893469	0.431875	0.409492
	H60	H	0.115015	0.424973	0.588802
	H61	H	0.885838	0.607652	0.582558
	H62	H	0.112130	0.600376	0.404218
	H63	H	0.888106	0.429112	0.396323
	H64	H	0.416114	0.607550	0.104371
	H65	H	0.591198	0.604015	0.877765
	H66	H	0.581467	0.420641	0.102910
	H67	H	0.409220	0.427444	0.880012
	H68	H	0.591882	0.127341	0.400369
	H69	H	0.593046	0.902417	0.582299
	H70	H	0.406951	0.126456	0.574149
	H71	H	0.411528	0.904019	0.406809
	H72	H	0.908371	0.624571	0.074650
	H73	H	0.085201	0.408603	0.071807
	H74	H	0.094155	0.627547	0.899948
	H75	H	0.907849	0.399652	0.898525
	H76	H	0.088850	0.925873	0.601653
	H77	H	0.086128	0.105087	0.379161
	H78	H	0.908819	0.105393	0.604706
	H79	H	0.912894	0.918934	0.376637
	H80	H	0.616141	0.110269	0.898841
	H81	H	0.389934	0.095866	0.080925
	H82	H	0.611090	0.923780	0.076245
	H83	H	0.389017	0.926152	0.903483
	H84	H	0.610457	0.929510	0.077891
	H85	H	0.386178	0.106876	0.082980
	H86	H	0.612754	0.106343	0.906536
	H87	H	0.386582	0.926418	0.895412
	H88	H	0.912202	0.102465	0.601694
	H89	H	0.091601	0.104624	0.377941
	H90	H	0.089143	0.921480	0.603413
	H91	H	0.906399	0.923936	0.376226
	H92	H	0.085769	0.624963	0.899979
	H93	H	0.095108	0.401906	0.079936
	H94	H	0.908184	0.628673	0.085295
	H95	H	0.914033	0.402546	0.901899
	H96	H	0.408450	0.129222	0.586943
	H97	H	0.594289	0.902899	0.583415
	H98	H	0.587988	0.126529	0.398947
	H99	H	0.411787	0.901023	0.399560
	H100	H	0.594327	0.417125	0.107709
	H101	H	0.587468	0.600859	0.880513
	H102	H	0.409066	0.601864	0.104811
	H103	H	0.415647	0.426672	0.881730
	H104	H	0.113802	0.602563	0.402650
	H105	H	0.888314	0.605255	0.577968
	H106	H	0.113362	0.418036	0.578420
	H107	H	0.887549	0.419123	0.406385
	H108	H	0.917594	0.622843	0.081194
	H109	H	0.082335	0.404471	0.085264
	H110	H	0.091051	0.623570	0.907312
	H111	H	0.907077	0.402684	0.905608
	H112	H	0.092958	0.924537	0.603856
	H113	H	0.089053	0.100084	0.380655
	H114	H	0.914158	0.107205	0.604006
	H115	H	0.913016	0.926795	0.379686
	H116	H	0.613401	0.101581	0.898516
	H117	H	0.390466	0.103986	0.072240
	H118	H	0.612526	0.925554	0.081523
	H119	H	0.385729	0.919106	0.899881
	C120	C	0.379830	0.023013	0.612270
	C121	C	0.623406	1.007043	0.613039
	C122	C	0.621962	0.022799	0.369700
	C123	C	0.380005	1.005969	0.369675
	C124	C	0.620760	0.392320	0.000363
	C125	C	0.621113	0.635516	0.982754
	C126	C	0.380216	0.635016	-0.000264
	C127	C	0.379363	0.392410	0.983676
	C128	C	0.009177	0.635148	0.371005
	C129	C	0.991531	0.635841	0.613414
	C130	C	0.008690	0.392822	0.613004
	C131	C	0.992781	0.393520	0.370829
	C132	C	0.878987	0.522643	0.113347
	C133	C	0.121509	0.507026	0.112964
	C134	C	0.122326	0.522240	0.870523
	C135	C	0.878177	0.505003	0.870032
	C136	C	0.122730	0.891924	0.499304
	C137	C	0.122195	0.135322	0.482565
	C138	C	0.880040	0.136446	0.499595
	C139	C	0.880262	0.893264	0.482503
	C140	C	0.509580	0.136922	0.869598
	C141	C	0.492140	0.134850	0.111840
	C142	C	0.508521	0.893044	0.111871
	C143	C	0.491788	0.893277	0.869045
	C144	C	0.380265	0.904350	0.670180
	C145	C	0.622287	0.126322	0.669982
	C146	C	0.624025	0.904789	0.310979
	C147	C	0.376508	0.123117	0.308549
	C148	C	0.679006	0.392688	0.881376
	C149	C	0.681320	0.637332	0.100940
	C150	C	0.320421	0.635602	0.881297
	C151	C	0.319099	0.390078	0.101866
	C152	C	0.890768	0.695154	0.368787
	C153	C	0.110677	0.694417	0.615176
	C154	C	0.890303	0.333576	0.614333
	C155	C	0.110669	0.333083	0.367826
	C156	C	0.889757	0.391897	0.671369
	C157	C	0.110554	0.636216	0.672644
	C158	C	0.890982	0.637645	0.310760
	C159	C	0.110641	0.390705	0.310001
	C160	C	0.377662	0.694027	0.881102
	C161	C	0.624911	0.696506	0.100187
	C162	C	0.622187	0.334192	0.881480
	C163	C	0.375981	0.331649	0.101539
	C164	C	0.680373	0.904407	0.370449
	C165	C	0.680528	0.126174	0.612283
	C166	C	0.321201	0.904673	0.613302
	C167	C	0.318556	0.122928	0.366212
	C168	C	0.875916	0.405725	0.174814
	C169	C	0.126702	0.622803	0.175673
	C170	C	0.123653	0.404365	0.811263
	C171	C	0.876447	0.622669	0.810481
	C172	C	0.183535	0.889248	0.381552
	C173	C	0.182572	0.136831	0.600863
	C174	C	0.820546	0.138070	0.380925
	C175	C	0.823118	0.894571	0.602197
	C176	C	0.390561	0.195858	0.867237
	C177	C	0.610087	0.195480	0.114651
	C178	C	0.390733	0.832760	0.114575
	C179	C	0.610586	0.834185	0.868322
	C180	C	0.391270	0.889757	0.173039
	C181	C	0.610536	0.137770	0.172387
	C182	C	0.390568	0.137431	0.810023
	C183	C	0.611446	0.893171	0.811817
	C184	C	0.877316	0.196695	0.381469
	C185	C	0.125127	0.195133	0.600918
	C186	C	0.126557	0.830674	0.382047
	C187	C	0.880380	0.836068	0.602261
	C188	C	0.181805	0.404198	0.869143
	C189	C	0.185028	0.622672	0.118143
	C190	C	0.818454	0.405242	0.116213
	C191	C	0.818272	0.622517	0.868248
	C192	C	0.404086	0.105375	0.587659
	C193	C	0.600230	0.924181	0.589955
	C194	C	0.597074	0.105242	0.393764
	C195	C	0.406307	0.924439	0.395800
	C196	C	0.596261	0.416098	0.083399
	C197	C	0.595732	0.610615	0.900425
	C198	C	0.406442	0.610066	0.082063
	C199	C	0.404845	0.418148	0.901552
	C200	C	0.091386	0.609512	0.396863
	C201	C	0.908933	0.611931	0.588422
	C202	C	0.091297	0.417227	0.588779
	C203	C	0.911103	0.419418	0.396589
	C204	C	0.904228	0.604088	0.087698
	C205	C	0.095016	0.426108	0.086483
	C206	C	0.097481	0.604082	0.895330
	C207	C	0.902832	0.422877	0.894980
	C208	C	0.097635	0.916985	0.581454
	C209	C	0.096344	0.110288	0.400634
	C210	C	0.904830	0.112077	0.582085
	C211	C	0.904038	0.916659	0.399220
	C212	C	0.592435	0.112945	0.894323
	C213	C	0.410216	0.109320	0.086190
	C214	C	0.590289	0.918879	0.086035
	C215	C	0.408756	0.917184	0.892694
	Zn216	Zn	0.501438	0.015487	0.741439
	Zn217	Zn	0.500902	0.014061	0.240833
	Zn218	Zn	0.749116	0.513548	-0.008062
	Zn219	Zn	0.251247	0.513989	-0.007559
	Zn220	Zn	0.001015	0.763903	0.491575
	Zn221	Zn	0.000892	0.264506	0.491388
	Zn222	Zn	-0.000021	0.513917	0.741520
	Zn223	Zn	0.000703	0.514594	0.242083
	Zn224	Zn	0.500405	0.764631	-0.009158
	Zn225	Zn	0.499778	0.264218	-0.008472
	Zn226	Zn	0.751551	0.015311	0.490697
	Zn227	Zn	0.251134	0.013869	0.490305
	N228	N	0.415882	0.979071	0.669841
	N229	N	0.587708	0.051147	0.670922
	N230	N	0.588607	0.979680	0.310294
	N231	N	0.414079	0.049327	0.310538
	N232	N	0.678535	0.427845	0.956533
	N233	N	0.679318	0.600239	0.026858
	N234	N	0.321624	0.599991	0.956263
	N235	N	0.320912	0.427087	0.027443
	N236	N	0.965321	0.693628	0.405584
	N237	N	0.035553	0.694632	0.579338
	N238	N	0.965437	0.333705	0.578908
	N239	N	0.036377	0.334556	0.404903
	N240	N	0.964569	0.427828	0.670993
	N241	N	0.035409	0.600809	0.671974
	N242	N	0.965727	0.601378	0.311870
	N243	N	0.036188	0.427568	0.311601
	N244	N	0.414028	0.693947	0.955941
	N245	N	0.588397	0.695713	0.025438
	N246	N	0.586588	0.333882	0.956602
	N247	N	0.412658	0.332953	0.027017
	N248	N	0.679368	0.979072	0.405999
	N249	N	0.681519	0.051019	0.577824
	N250	N	0.320557	0.979667	0.578301
	N251	N	0.320749	0.049005	0.403730
	N252	N	0.912865	0.479602	0.173049
	N253	N	0.087588	0.550079	0.172149
	N254	N	0.087423	0.478787	0.811687
	N255	N	0.912998	0.548499	0.811598
	N256	N	0.181439	0.926637	0.455547
	N257	N	0.181028	0.100492	0.526443
	N258	N	0.821929	0.101355	0.455328
	N259	N	0.822735	0.929171	0.526569
	N260	N	0.465440	0.195472	0.903570
	N261	N	0.535574	0.193967	0.077744
	N262	N	0.464929	0.834590	0.077321
	N263	N	0.535161	0.833954	0.903283
	N264	N	0.465644	0.926549	0.171634
	N265	N	0.536167	0.100752	0.170976
	N266	N	0.465503	0.101688	0.811085
	N267	N	0.536603	0.929236	0.812119
	N268	N	0.913419	0.195910	0.456319
	N269	N	0.088317	0.194619	0.526166
	N270	N	0.089395	0.832174	0.456319
	N271	N	0.915044	0.835026	0.526680
	N272	N	0.181218	0.478567	0.905217
	N273	N	0.181695	0.549699	0.079495
	N274	N	0.819991	0.479029	0.078640
	N275	N	0.819246	0.548315	0.904744
	O276	O	1.223373	0.990717	0.121176
	H277	H	1.208813	1.011884	0.100976
	H278	H	1.244669	0.977606	0.131361
	O279	O	0.013768	0.153271	0.766255
	H280	H	0.016955	0.159871	0.783729
	H281	H	0.016086	0.164527	0.752038
	O282	O	0.591770	0.405265	0.561699
	H283	H	0.608779	0.417775	0.563048
	H284	H	0.609383	0.410827	0.570847
	O285	O	0.634250	0.646488	0.499371
	H286	H	0.636894	0.652070	0.501204
	H287	H	0.650249	0.651590	0.498226
	O288	O	1.522169	-0.307949	0.668003
	H289	H	1.507380	-0.313062	0.657273
	H290	H	1.521316	-0.292422	0.682214
	O291	O	0.679990	0.489796	0.277628
	H292	H	0.681662	0.505111	0.269156
	H293	H	0.676782	0.494002	0.282502
	O294	O	0.205348	-0.052571	-0.217130
	H295	H	0.206985	-0.063635	-0.218349
	H296	H	0.218504	-0.033295	-0.243905
	O297	O	1.198380	0.213452	0.188796
	H298	H	1.204491	0.202503	0.181647
	H299	H	1.201086	0.212823	0.205991
	O300	O	0.382806	0.673985	0.367423
	H301	H	0.364319	0.669353	0.361267
	H302	H	0.385356	0.672472	0.361196
	O303	O	-0.348308	-0.389673	-0.296699
	H304	H	-0.343585	-0.371615	-0.300686
	H305	H	-0.330374	-0.380945	-0.273904
	O306	O	0.857646	0.054336	0.020750
	H307	H	0.859854	0.052834	0.039648
	H308	H	0.856698	0.043466	0.012189
	O309	O	0.285456	0.294486	0.523453
	H310	H	0.298413	0.282416	0.537629
	H311	H	0.271539	0.272635	0.517747
	O312	O	0.108232	1.067405	0.901286
	H313	H	0.099095	1.067515	0.887228
	H314	H	0.110511	1.072089	0.900078
	O315	O	0.391931	0.530526	0.542968
	H316	H	0.387496	0.541746	0.557196
	H317	H	0.384970	0.498307	0.553888
	O318	O	0.911611	0.956873	-0.159444
	H319	H	0.901331	0.954297	-0.152605
	H320	H	0.911755	0.949408	-0.176368
	O321	O	0.211181	1.195855	0.998163
	H322	H	0.222174	1.207696	1.005740
	H323	H	0.209326	1.191150	1.016455
	O324	O	1.097682	-0.194283	1.088609
	H325	H	1.109442	-0.203797	1.089069
	H326	H	1.101704	-0.176411	1.090435
	O327	O	0.297165	0.308903	0.692548
	H328	H	0.318979	0.332686	0.696584
	H329	H	0.283955	0.297300	0.683577
	O330	O	0.983722	1.213457	-0.152237
	H331	H	0.988316	1.225687	-0.166487
	H332	H	0.992094	1.198381	-0.140251
	O333	O	0.665212	0.341834	0.670492
	H334	H	0.655986	0.359330	0.660419
	H335	H	0.681060	0.345340	0.674293
	O336	O	0.215171	1.006742	-0.006979
	H337	H	0.215124	1.012976	-0.009401
	H338	H	0.214645	1.013233	-0.005149
	O339	O	0.284690	0.477657	0.707652
	H340	H	0.268290	0.480129	0.733411
	H341	H	0.278046	0.471614	0.686108
	O342	O	-0.442567	0.400279	0.637982
	H343	H	-0.422415	0.404165	0.636837
	H344	H	-0.429539	0.402226	0.655296
	O345	O	0.721156	0.530928	0.452573
	H346	H	0.731063	0.521768	0.440662
	H347	H	0.718879	0.538479	0.468472
	O348	O	0.598244	0.485848	0.515199
	H349	H	0.613408	0.494560	0.533545
	H350	H	0.584760	0.487292	0.520202
	O351	O	-0.012109	-0.004695	1.175494
	H352	H	-0.019345	0.003583	1.172930
	H353	H	-0.006342	-0.020587	1.186453
	O354	O	1.033766	0.014446	0.980378
	H355	H	1.039217	0.007567	0.979878
	H356	H	1.046343	0.017385	0.980662
	O357	O	0.646026	0.692737	0.360162
	H358	H	0.632232	0.684820	0.373128
	H359	H	0.625651	0.675400	0.376921
	O360	O	0.684799	0.307917	0.445630
	H361	H	0.695582	0.309057	0.431764
	H362	H	0.702239	0.305275	0.432092
	O363	O	0.496307	0.709747	0.548771
	H364	H	0.498050	0.723872	0.569674
	H365	H	0.483840	0.716986	0.555039
	O366	O	0.877457	-0.009897	0.984835
	H367	H	0.874425	0.001513	0.970939
	H368	H	0.877900	-0.017025	0.979074
	O369	O	-0.007364	0.230881	1.096480
	H370	H	0.010800	0.236662	1.091385
	H371	H	0.013165	0.231870	1.100571
	O372	O	-0.030039	0.802174	1.202046
	H373	H	-0.036336	0.796921	1.222795
	H374	H	-0.021707	0.808560	1.202361
	O375	O	1.014831	0.015434	-0.220930
	H376	H	1.004331	0.013716	-0.220968
	H377	H	0.999262	0.017541	-0.226213
	O378	O	0.403674	0.585316	0.604537
	H379	H	0.409478	0.580013	0.604669
	H380	H	0.393383	0.591925	0.602962
	O381	O	0.487372	0.719796	0.453500
	H382	H	0.459242	0.737787	0.437244
	H383	H	0.508040	0.719697	0.456389
	O384	O	0.507074	0.295651	0.627496
	H385	H	0.495420	0.293859	0.631234
	H386	H	0.503871	0.288041	0.633055
	O387	O	-0.166761	1.200590	1.148175
	H388	H	-0.150213	1.179260	1.146369
	H389	H	-0.146927	1.199791	1.143618
	O390	O	-0.212762	1.218257	0.960450
	H391	H	-0.216608	1.219295	0.983191
	H392	H	-0.221956	1.210717	0.980685
	O393	O	0.981001	0.102492	0.187670
	H394	H	0.976365	0.112204	0.187575
	H395	H	0.972222	0.103740	0.193621
	O396	O	0.239797	0.783345	0.758489
	H397	H	0.242787	0.792655	0.765102
	H398	H	0.219021	0.779995	0.760613
	O399	O	0.522599	0.661889	0.314226
	H400	H	0.513356	0.656431	0.326020
	H401	H	0.498990	0.673594	0.311765
	O402	O	0.800984	-0.184833	1.193143
	H403	H	0.775672	-0.199410	1.212758
	H404	H	0.830238	-0.191458	1.175110
	O405	O	0.316407	0.397202	0.300874
	H406	H	0.345911	0.394338	0.307368
	H407	H	0.313260	0.409405	0.304241
	O408	O	0.795022	1.181208	0.786043
	H409	H	0.781862	1.189201	0.822208
	H410	H	0.829399	1.198346	0.778061
	O411	O	0.780068	1.029440	-0.188316
	H412	H	0.764515	1.052585	-0.212084
	H413	H	0.786843	1.052321	-0.194361
	O414	O	-0.208940	-0.199564	0.021103
	H415	H	-0.219240	-0.208442	0.019962
	H416	H	-0.213037	-0.190956	0.030279
	O417	O	0.200922	0.127748	0.824762
	H418	H	0.190514	0.131921	0.824610
	H419	H	0.204776	0.119502	0.831672
	O420	O	0.810718	-0.177080	0.805640
	H421	H	0.833693	-0.169569	0.827810
	H422	H	0.825982	-0.150999	0.822968
	O423	O	1.428022	0.659709	0.453445
	H424	H	1.443925	0.660306	0.463232
	H425	H	1.426470	0.640161	0.457497
	O426	O	0.706635	0.721593	0.693399
	H427	H	0.681852	0.725813	0.686730
	H428	H	0.734965	0.746726	0.725673
	O429	O	0.938630	0.822351	-0.038468
	H430	H	0.937508	0.823231	-0.027799
	H431	H	0.948423	0.826258	-0.022329
	O432	O	0.785636	-0.008173	1.183792
	H433	H	0.772459	-0.028006	1.186092
	H434	H	0.771031	-0.025400	1.191604
	O435	O	0.080489	0.048199	0.161789
	H436	H	0.079583	0.040882	0.152870
	H437	H	0.085625	0.037260	0.169406
	O438	O	0.472553	0.420568	0.521195
	H439	H	0.462758	0.405078	0.531851
	H440	H	0.482482	0.416408	0.535773
	O441	O	0.336737	0.634808	0.476369
	H442	H	0.328172	0.630507	0.484135
	H443	H	0.331652	0.618636	0.495516
	O444	O	0.465073	0.347109	0.372634
	H445	H	0.471785	0.344311	0.346513
	H446	H	0.476891	0.336892	0.400686
	O447	O	0.596134	0.566496	0.348249
	H448	H	0.588493	0.578886	0.354194
	H449	H	0.588139	0.564282	0.353054
	O450	O	1.338652	-0.376505	0.267284
	H451	H	1.340053	-0.361125	0.276839
	H452	H	1.344944	-0.408023	0.269425
	O453	O	0.945239	0.232410	0.928646
	H454	H	0.929102	0.228959	0.934275
	H455	H	0.938207	0.243168	0.930677
	O456	O	0.028193	0.797496	0.781279
	H457	H	0.021797	0.778290	0.767427
	H458	H	0.023016	0.791908	0.796967
	O459	O	0.340088	0.516890	0.376076
	H460	H	0.332224	0.501550	0.386732
	H461	H	0.354044	0.516970	0.380116
	O462	O	0.495371	0.413644	0.276275
	H463	H	0.505448	0.410835	0.269136
	H464	H	0.516816	0.408242	0.268993
	O465	O	0.695954	0.343956	0.293512
	H466	H	0.702169	0.332784	0.274117
	H467	H	0.693404	0.380333	0.290044
	O468	O	0.043773	1.081143	0.211226
	H469	H	0.064716	1.089743	0.220029
	H470	H	0.035475	1.077737	0.201063
	O471	O	0.372209	0.451451	0.608479
	H472	H	0.392535	0.456459	0.604243
	H473	H	0.380226	0.446062	0.588284
	O474	O	1.212584	0.800783	-0.036707
	H475	H	1.191908	0.797843	-0.049017
	H476	H	1.239206	0.784627	-0.041096
	O477	O	0.007540	-0.129660	0.997718
	H478	H	0.022533	-0.131012	1.016635
	H479	H	-0.001845	-0.126849	1.012106
