data_Molecule from HDF5

_cell_length_a		16.144694
_cell_length_b		16.293052
_cell_length_c		16.432439
_cell_angle_alpha	89.657674
_cell_angle_beta	90.010039
_cell_angle_gamma	89.958105
_symmetry_space_group_name_H-M	'P 1'
_symmetry_Int_Tables_number		1

loop_
	_symmetry_equiv_pos_as_xyz
	x,y,z

loop_
	_atom_site_label
	_atom_site_type_symbol
	_atom_site_fract_x
	_atom_site_fract_y
	_atom_site_fract_z
	H0	H	0.389558	0.839021	0.715153
	H1	H	0.597030	0.161477	0.712995
	H2	H	0.595080	0.837016	0.281785
	H3	H	0.391015	0.161819	0.274328
	H4	H	0.712385	0.401335	0.832905
	H5	H	0.711562	0.595628	0.157619
	H6	H	0.283476	0.598200	0.831634
	H7	H	0.281231	0.400100	0.157194
	H8	H	0.830424	0.714638	0.395459
	H9	H	0.160362	0.714721	0.590091
	H10	H	0.831486	0.286491	0.596260
	H11	H	0.158769	0.285580	0.395850
	H12	H	0.833701	0.398856	0.713334
	H13	H	0.160418	0.602602	0.709011
	H14	H	0.832663	0.602990	0.276576
	H15	H	0.159793	0.400764	0.280985
	H16	H	0.395858	0.718251	0.833725
	H17	H	0.597444	0.714703	0.157127
	H18	H	0.600495	0.281212	0.833965
	H19	H	0.396682	0.281407	0.157176
	H20	H	0.707997	0.836788	0.399929
	H21	H	0.709535	0.163849	0.594248
	H22	H	0.279147	0.837261	0.593781
	H23	H	0.281360	0.165707	0.397313
	H24	H	0.893276	0.339761	0.216249
	H25	H	0.099830	0.662814	0.209931
	H26	H	0.104252	0.340645	0.774354
	H27	H	0.894919	0.663235	0.776980
	H28	H	0.208450	0.906312	0.331810
	H29	H	0.210177	0.100516	0.656254
	H30	H	0.776943	0.102079	0.332602
	H31	H	0.779106	0.900406	0.657233
	H32	H	0.333082	0.217475	0.894769
	H33	H	0.660739	0.212053	0.094441
	H34	H	0.331323	0.783333	0.094980
	H35	H	0.661112	0.787208	0.897807
	H36	H	0.331301	0.897123	0.212232
	H37	H	0.659105	0.100013	0.212108
	H38	H	0.331762	0.104143	0.778769
	H39	H	0.657842	0.897333	0.777050
	H40	H	0.890146	0.222906	0.334353
	H41	H	0.095952	0.218526	0.656068
	H42	H	0.096016	0.786885	0.332159
	H43	H	0.892158	0.781020	0.654994
	H44	H	0.212841	0.337364	0.896581
	H45	H	0.210966	0.663646	0.089936
	H46	H	0.783452	0.335718	0.094556
	H47	H	0.780815	0.663087	0.895026
	H48	H	0.405539	0.117164	0.593482
	H49	H	0.587442	0.884533	0.588542
	H50	H	0.578516	0.113828	0.402654
	H51	H	0.395002	0.880914	0.399149
	H52	H	0.595794	0.400439	0.113315
	H53	H	0.578375	0.590848	0.884995
	H54	H	0.405115	0.594823	0.110091
	H55	H	0.400966	0.403893	0.878548
	H56	H	0.114826	0.602913	0.403870
	H57	H	0.880621	0.586880	0.585304
	H58	H	0.114525	0.409207	0.589996
	H59	H	0.878716	0.413083	0.403935
	H60	H	0.112560	0.408314	0.581146
	H61	H	0.876739	0.592074	0.591641
	H62	H	0.110404	0.587985	0.405196
	H63	H	0.880295	0.413687	0.405793
	H64	H	0.401978	0.589509	0.110227
	H65	H	0.590364	0.604027	0.876237
	H66	H	0.590252	0.411368	0.107848
	H67	H	0.405760	0.413762	0.882752
	H68	H	0.588640	0.115987	0.406193
	H69	H	0.582783	0.884635	0.590851
	H70	H	0.407148	0.113031	0.584433
	H71	H	0.408759	0.886558	0.398604
	H72	H	0.904768	0.614719	0.080948
	H73	H	0.085201	0.384560	0.092042
	H74	H	0.089926	0.616087	0.902635
	H75	H	0.912330	0.386173	0.901164
	H76	H	0.088369	0.903801	0.610778
	H77	H	0.090204	0.087848	0.381425
	H78	H	0.904274	0.089045	0.606186
	H79	H	0.898880	0.904231	0.377759
	H80	H	0.617438	0.097944	0.896179
	H81	H	0.381299	0.082192	0.086042
	H82	H	0.613697	0.909463	0.095015
	H83	H	0.379880	0.905421	0.911671
	H84	H	0.613839	0.901937	0.087822
	H85	H	0.376121	0.093795	0.092086
	H86	H	0.609201	0.091722	0.914477
	H87	H	0.380810	0.915964	0.903634
	H88	H	0.906266	0.096463	0.608492
	H89	H	0.076482	0.095585	0.382042
	H90	H	0.087835	0.910697	0.608908
	H91	H	0.898765	0.913919	0.381183
	H92	H	0.089641	0.617956	0.898998
	H93	H	0.086431	0.385394	0.085634
	H94	H	0.901291	0.617069	0.088896
	H95	H	0.906096	0.385389	0.906715
	H96	H	0.398053	0.118347	0.587433
	H97	H	0.583289	0.885871	0.586223
	H98	H	0.585513	0.118549	0.396060
	H99	H	0.401057	0.886767	0.410731
	H100	H	0.583161	0.400519	0.109439
	H101	H	0.597041	0.587059	0.879560
	H102	H	0.407451	0.589271	0.108660
	H103	H	0.412407	0.404454	0.881806
	H104	H	0.115909	0.593714	0.391455
	H105	H	0.879165	0.595633	0.583493
	H106	H	0.109909	0.415705	0.585609
	H107	H	0.879637	0.415144	0.403900
	H108	H	0.909921	0.614851	0.088237
	H109	H	0.091105	0.382708	0.089756
	H110	H	0.086334	0.615924	0.900671
	H111	H	0.904381	0.383763	0.899126
	H112	H	0.081821	0.906219	0.608497
	H113	H	0.090201	0.102871	0.376836
	H114	H	0.899100	0.094091	0.609910
	H115	H	0.907522	0.908431	0.381245
	H116	H	0.610617	0.078166	0.898507
	H117	H	0.380347	0.094301	0.078714
	H118	H	0.610134	0.912163	0.085044
	H119	H	0.375829	0.904625	0.898721
	C120	C	0.372792	0.009046	0.617411
	C121	C	0.615458	0.991996	0.617508
	C122	C	0.614790	0.008573	0.373979
	C123	C	0.372378	0.992277	0.372782
	C124	C	0.619248	0.376203	0.003365
	C125	C	0.618740	0.621940	0.987018
	C126	C	0.375272	0.621521	0.002929
	C127	C	0.375698	0.377118	0.987220
	C128	C	0.004928	0.623709	0.371408
	C129	C	0.987454	0.621496	0.614862
	C130	C	0.004710	0.380346	0.616788
	C131	C	0.987025	0.382402	0.374820
	C132	C	0.875504	0.508432	0.116269
	C133	C	0.117813	0.491947	0.116461
	C134	C	0.118988	0.509175	0.872040
	C135	C	0.876599	0.492210	0.873042
	C136	C	0.115814	0.879513	0.502252
	C137	C	0.115769	0.124197	0.486545
	C138	C	0.871946	0.124303	0.502328
	C139	C	0.872042	0.878470	0.486492
	C140	C	0.504481	0.120755	0.873561
	C141	C	0.487399	0.119605	0.115798
	C142	C	0.503979	0.877772	0.118021
	C143	C	0.487358	0.879495	0.875277
	C144	C	0.371656	0.887052	0.675063
	C145	C	0.615917	0.113448	0.674173
	C146	C	0.614531	0.885811	0.319528
	C147	C	0.372446	0.114184	0.314688
	C148	C	0.674904	0.379884	0.881530
	C149	C	0.674512	0.617495	0.108809
	C150	C	0.320250	0.619300	0.880722
	C151	C	0.319248	0.378927	0.108852
	C152	C	0.880255	0.677720	0.374458
	C153	C	0.111187	0.677308	0.611577
	C154	C	0.881300	0.323868	0.616322
	C155	C	0.110166	0.324363	0.376011
	C156	C	0.882424	0.379837	0.674749
	C157	C	0.111320	0.621527	0.670531
	C158	C	0.881360	0.622363	0.315286
	C159	C	0.110471	0.381301	0.318760
	C160	C	0.376279	0.678905	0.881666
	C161	C	0.617466	0.676516	0.108741
	C162	C	0.619130	0.320156	0.882059
	C163	C	0.376876	0.320329	0.108832
	C164	C	0.670574	0.885588	0.378322
	C165	C	0.671409	0.114770	0.614746
	C166	C	0.316689	0.886365	0.614776
	C167	C	0.317827	0.115981	0.375460
	C168	C	0.874794	0.387314	0.175816
	C169	C	0.118579	0.614120	0.171821
	C170	C	0.121486	0.388250	0.814326
	C171	C	0.875833	0.614567	0.815897
	C172	C	0.171162	0.884466	0.380438
	C173	C	0.172201	0.121556	0.608085
	C174	C	0.814797	0.123041	0.381211
	C175	C	0.816625	0.880031	0.608368
	C176	C	0.381690	0.178838	0.874766
	C177	C	0.611289	0.174797	0.114683
	C178	C	0.380342	0.821623	0.115411
	C179	C	0.611405	0.824263	0.877108
	C180	C	0.380440	0.878009	0.173821
	C181	C	0.610282	0.118874	0.173330
	C182	C	0.380980	0.121880	0.817498
	C183	C	0.609870	0.879088	0.817200
	C184	C	0.871022	0.183293	0.382111
	C185	C	0.115467	0.180270	0.607774
	C186	C	0.115228	0.824734	0.380739
	C187	C	0.872847	0.820445	0.607252
	C188	C	0.175595	0.386436	0.875293
	C189	C	0.173870	0.614648	0.112083
	C190	C	0.820069	0.385370	0.115330
	C191	C	0.818959	0.614253	0.874416
	C192	C	0.396656	0.094240	0.595063
	C193	C	0.591597	0.907085	0.594959
	C194	C	0.591271	0.094031	0.395328
	C195	C	0.394980	0.906768	0.396021
	C196	C	0.596435	0.397684	0.088129
	C197	C	0.595432	0.600402	0.902078
	C198	C	0.398193	0.598117	0.087792
	C199	C	0.399336	0.400480	0.902829
	C200	C	0.091412	0.601481	0.393700
	C201	C	0.901237	0.598174	0.593293
	C202	C	0.090309	0.404007	0.592618
	C203	C	0.901745	0.406753	0.397832
	C204	C	0.898573	0.593552	0.092822
	C205	C	0.094324	0.406390	0.095323
	C206	C	0.095409	0.594481	0.894177
	C207	C	0.900681	0.407235	0.895733
	C208	C	0.092775	0.900389	0.587363
	C209	C	0.092403	0.101895	0.401989
	C210	C	0.896218	0.100153	0.586471
	C211	C	0.894930	0.902044	0.401819
	C212	C	0.590183	0.096329	0.896416
	C213	C	0.401469	0.096796	0.092430
	C214	C	0.590076	0.900868	0.095657
	C215	C	0.401270	0.902194	0.897988
	Zn216	Zn	0.494309	-0.000349	0.746341
	Zn217	Zn	0.494628	-0.000343	0.244686
	Zn218	Zn	0.747767	0.499150	-0.005337
	Zn219	Zn	0.246342	0.499655	-0.005320
	Zn220	Zn	-0.005163	0.749909	0.493660
	Zn221	Zn	-0.005423	0.253801	0.494842
	Zn222	Zn	-0.002674	0.501173	0.743924
	Zn223	Zn	-0.003191	0.501388	0.245327
	Zn224	Zn	0.496339	0.750786	-0.004221
	Zn225	Zn	0.497195	0.247529	-0.005279
	Zn226	Zn	0.743342	0.001058	0.495461
	Zn227	Zn	0.244890	0.001649	0.495284
	N228	N	0.405970	0.964299	0.676889
	N229	N	0.581855	0.036268	0.676170
	N230	N	0.580421	0.963167	0.316841
	N231	N	0.405657	0.036374	0.312871
	N232	N	0.675492	0.413765	0.957933
	N233	N	0.675363	0.584251	0.031870
	N234	N	0.319475	0.584312	0.957144
	N235	N	0.318450	0.413523	0.032372
	N236	N	0.958060	0.678824	0.408405
	N237	N	0.033301	0.677468	0.577636
	N238	N	0.958388	0.324336	0.580863
	N239	N	0.032463	0.324696	0.410168
	N240	N	0.960268	0.414068	0.675261
	N241	N	0.033214	0.587728	0.672910
	N242	N	0.959943	0.589658	0.313094
	N243	N	0.033180	0.416872	0.318039
	N244	N	0.409710	0.680199	0.958570
	N245	N	0.583638	0.679530	0.032079
	N246	N	0.585126	0.317710	0.958833
	N247	N	0.411215	0.319113	0.032149
	N248	N	0.671015	0.962901	0.411409
	N249	N	0.671276	0.038130	0.580142
	N250	N	0.317246	0.963082	0.579689
	N251	N	0.317542	0.039247	0.410718
	N252	N	0.908719	0.464720	0.176549
	N253	N	0.084611	0.536863	0.174776
	N254	N	0.086950	0.465487	0.812221
	N255	N	0.911008	0.537616	0.814792
	N256	N	0.171630	0.917770	0.456988
	N257	N	0.172781	0.087572	0.531659
	N258	N	0.815207	0.087138	0.457106
	N259	N	0.816082	0.915581	0.532164
	N260	N	0.459368	0.178221	0.908926
	N261	N	0.534013	0.175173	0.079397
	N262	N	0.458290	0.821237	0.081505
	N263	N	0.534371	0.824699	0.912838
	N264	N	0.458240	0.912286	0.175457
	N265	N	0.532064	0.085316	0.174134
	N266	N	0.458422	0.086498	0.816483
	N267	N	0.531762	0.912834	0.816027
	N268	N	0.905805	0.184097	0.458418
	N269	N	0.080832	0.181882	0.531353
	N270	N	0.081389	0.821666	0.457589
	N271	N	0.906679	0.819495	0.530551
	N272	N	0.174095	0.462669	0.910567
	N273	N	0.173616	0.537533	0.078390
	N274	N	0.820319	0.461683	0.079099
	N275	N	0.819302	0.537295	0.909202
	O276	O	0.954939	-0.079030	0.956378
	H277	H	0.967958	-0.071441	0.954817
	H278	H	0.947929	-0.075248	0.968864
	O279	O	0.492783	0.514903	0.577486
	H280	H	0.498215	0.518208	0.579135
	H281	H	0.486387	0.514478	0.570936
	O282	O	0.913510	1.004825	0.111322
	H283	H	0.911068	1.002881	0.106964
	H284	H	0.914902	1.002701	0.113548
	O285	O	0.977640	0.039222	0.835171
	H286	H	0.993753	0.038960	0.837026
	H287	H	0.981636	0.021573	0.839462
	O288	O	0.526160	0.547557	0.439145
	H289	H	0.519718	0.549639	0.435861
	H290	H	0.529508	0.531117	0.438047
	O291	O	0.549378	0.544669	0.437573
	H292	H	0.538960	0.551012	0.445188
	H293	H	0.542811	0.540003	0.438727
	O294	O	0.463036	0.434535	0.524986
	H295	H	0.457276	0.442587	0.530207
	H296	H	0.473465	0.432900	0.525105
	O297	O	-0.050417	0.074685	0.955804
	H298	H	-0.052169	0.083138	0.953980
	H299	H	-0.045653	0.081711	0.963089
	O300	O	0.107468	1.012013	-0.042397
	H301	H	0.114861	0.998829	-0.041547
	H302	H	0.092211	1.012272	-0.036069
	O303	O	0.970334	1.058388	-0.127238
	H304	H	0.967761	1.045250	-0.126073
	H305	H	0.977641	1.060602	-0.132501
	O306	O	0.052678	0.971556	1.043236
	H307	H	0.044602	0.977259	1.049082
	H308	H	0.052033	0.983098	1.044129
	O309	O	0.552141	0.434469	0.480882
	H310	H	0.558676	0.428879	0.477411
	H311	H	0.551723	0.429710	0.469548
	O312	O	-0.003652	-0.037170	0.063916
	H313	H	-0.007463	-0.034853	0.050263
	H314	H	-0.023697	-0.025837	0.061839
	O315	O	0.961528	-0.036171	0.077877
	H316	H	0.967983	-0.028197	0.074912
	H317	H	0.974121	-0.031830	0.084031
	O318	O	0.973717	0.992742	1.012242
	H319	H	0.977359	0.987478	1.015844
	H320	H	0.970930	0.985050	1.012755
	O321	O	0.477412	0.477131	1.408928
	H322	H	0.480587	0.479040	1.403584
	H323	H	0.473524	0.472369	1.415161
	O324	O	0.447261	0.461563	0.489759
	H325	H	0.458426	0.462549	0.482362
	H326	H	0.439401	0.453419	0.489861
	O327	O	0.108569	-0.061584	-0.037156
	H328	H	0.109359	-0.080492	-0.046112
	H329	H	0.103050	-0.064040	-0.030762
	O330	O	0.548160	0.531816	0.448395
	H331	H	0.553747	0.534555	0.452460
	H332	H	0.545213	0.547481	0.443332
	O333	O	0.046646	1.068389	0.966514
	H334	H	0.043176	1.082334	0.945184
	H335	H	0.056025	1.052679	0.967961
	O336	O	0.077178	0.001809	-0.042752
	H337	H	0.072871	-0.003152	-0.049156
	H338	H	0.074876	0.002825	-0.041906
	O339	O	0.513955	0.527997	0.453974
	H340	H	0.501665	0.517154	0.452240
	H341	H	0.514756	0.535871	0.449245
	O342	O	1.029010	1.076440	0.986465
	H343	H	1.035876	1.070664	0.993761
	H344	H	1.029289	1.081982	0.985385
	O345	O	0.956713	0.973258	0.174070
	H346	H	0.944801	0.971688	0.181506
	H347	H	0.952593	0.969023	0.175755
	O348	O	0.488184	0.476585	0.488868
	H349	H	0.487645	0.481088	0.487817
	H350	H	0.493362	0.470886	0.491951
	O351	O	1.065500	0.092309	1.077120
	H352	H	1.080596	0.095624	1.078618
	H353	H	1.051199	0.072675	1.087244
	O354	O	0.467208	0.530259	0.537170
	H355	H	0.465358	0.524106	0.543308
	H356	H	0.477689	0.524415	0.539841
	O357	O	1.046233	-0.084233	0.908392
	H358	H	1.051005	-0.062822	0.903978
	H359	H	1.032851	-0.082728	0.901031
	O360	O	0.504181	0.499719	0.472912
	H361	H	0.506160	0.503571	0.477963
	H362	H	0.492211	0.494069	0.471070
	O363	O	0.515385	0.536938	0.518466
	H364	H	0.516022	0.541736	0.514104
	H365	H	0.519221	0.545624	0.524273
	O366	O	1.454194	0.491637	0.421863
	H367	H	1.452617	0.488960	0.416955
	H368	H	1.456742	0.485217	0.424387
	O369	O	0.911032	0.026698	0.973886
	H370	H	0.919630	0.036549	0.976649
	H371	H	0.930271	0.017813	0.978566
	O372	O	-0.053024	0.097000	-0.014720
	H373	H	-0.057586	0.104642	-0.009870
	H374	H	-0.054869	0.092563	-0.014792
	O375	O	0.881922	-0.127733	0.073512
	H376	H	0.878895	-0.130845	0.082273
	H377	H	0.873735	-0.121049	0.072830
	O378	O	0.449545	0.415186	0.533461
	H379	H	0.445611	0.417982	0.539629
	H380	H	0.443454	0.409601	0.543951
	O381	O	-0.118388	1.062860	0.993849
	H382	H	-0.130832	1.069830	0.990975
	H383	H	-0.129985	1.063182	0.989556
