data_Molecule from HDF5

_cell_length_a		16.165158
_cell_length_b		16.218602
_cell_length_c		16.279923
_cell_angle_alpha	89.858666
_cell_angle_beta	90.089994
_cell_angle_gamma	90.051664
_symmetry_space_group_name_H-M	'P 1'
_symmetry_Int_Tables_number		1

loop_
	_symmetry_equiv_pos_as_xyz
	x,y,z

loop_
	_atom_site_label
	_atom_site_type_symbol
	_atom_site_fract_x
	_atom_site_fract_y
	_atom_site_fract_z
	H0	H	0.402995	0.838564	0.714480
	H1	H	0.604343	0.165580	0.714153
	H2	H	0.601710	0.838093	0.284525
	H3	H	0.403387	0.165994	0.283645
	H4	H	0.716630	0.402721	0.835917
	H5	H	0.715980	0.599797	0.162751
	H6	H	0.287200	0.599933	0.835319
	H7	H	0.288998	0.403806	0.163010
	H8	H	0.837571	0.716683	0.400605
	H9	H	0.167739	0.715223	0.596757
	H10	H	0.837875	0.288040	0.597105
	H11	H	0.167249	0.290378	0.401652
	H12	H	0.836541	0.402874	0.712070
	H13	H	0.166608	0.600405	0.713283
	H14	H	0.838097	0.603976	0.282392
	H15	H	0.166513	0.405256	0.286524
	H16	H	0.402554	0.715892	0.834764
	H17	H	0.601179	0.716723	0.162161
	H18	H	0.600208	0.287928	0.835266
	H19	H	0.400923	0.285693	0.161859
	H20	H	0.715273	0.836978	0.402462
	H21	H	0.715542	0.167046	0.594787
	H22	H	0.289460	0.837457	0.596116
	H23	H	0.290984	0.167195	0.401763
	H24	H	0.901339	0.337611	0.215333
	H25	H	0.102281	0.665402	0.213137
	H26	H	0.099508	0.336869	0.785505
	H27	H	0.901085	0.665267	0.783712
	H28	H	0.215466	0.906192	0.334435
	H29	H	0.217626	0.099234	0.662728
	H30	H	0.787458	0.102370	0.335567
	H31	H	0.788818	0.904160	0.663001
	H32	H	0.336386	0.213380	0.901237
	H33	H	0.666612	0.214646	0.095507
	H34	H	0.336590	0.787935	0.095774
	H35	H	0.665897	0.787276	0.899234
	H36	H	0.337112	0.902585	0.211935
	H37	H	0.666495	0.101780	0.212906
	H38	H	0.338735	0.101050	0.782980
	H39	H	0.666592	0.902750	0.785358
	H40	H	0.904430	0.217519	0.335214
	H41	H	0.100782	0.214905	0.664092
	H42	H	0.102284	0.787974	0.335244
	H43	H	0.902835	0.787033	0.662392
	H44	H	0.214260	0.336098	0.902973
	H45	H	0.215457	0.665504	0.095957
	H46	H	0.787548	0.336855	0.098418
	H47	H	0.786868	0.665605	0.899974
	H48	H	0.413683	0.119160	0.595144
	H49	H	0.585382	0.884493	0.602479
	H50	H	0.593168	0.116681	0.410657
	H51	H	0.406974	0.885314	0.409480
	H52	H	0.597104	0.406323	0.117187
	H53	H	0.591943	0.587676	0.884637
	H54	H	0.420550	0.596700	0.113216
	H55	H	0.408537	0.412676	0.883214
	H56	H	0.121966	0.600603	0.402704
	H57	H	0.885202	0.589013	0.596055
	H58	H	0.119674	0.401103	0.584987
	H59	H	0.883993	0.415690	0.403209
	H60	H	0.116669	0.420435	0.591667
	H61	H	0.882014	0.600846	0.594439
	H62	H	0.118295	0.595279	0.410609
	H63	H	0.881951	0.405115	0.404389
	H64	H	0.403088	0.605264	0.120125
	H65	H	0.588135	0.600606	0.882097
	H66	H	0.593752	0.411553	0.115451
	H67	H	0.411102	0.403609	0.881284
	H68	H	0.601542	0.121239	0.403564
	H69	H	0.592274	0.888946	0.580073
	H70	H	0.412537	0.117780	0.586882
	H71	H	0.405700	0.882005	0.401313
	H72	H	0.914645	0.615541	0.085578
	H73	H	0.086787	0.386463	0.089138
	H74	H	0.085538	0.616627	0.902289
	H75	H	0.915021	0.388061	0.914439
	H76	H	0.101312	0.915085	0.615497
	H77	H	0.098595	0.098144	0.381586
	H78	H	0.915979	0.098395	0.614615
	H79	H	0.910595	0.899454	0.378922
	H80	H	0.619579	0.091909	0.905159
	H81	H	0.381793	0.098325	0.094734
	H82	H	0.620571	0.911345	0.096637
	H83	H	0.379489	0.894115	0.907136
	H84	H	0.620162	0.904220	0.089550
	H85	H	0.384449	0.095055	0.087879
	H86	H	0.621353	0.097366	0.903002
	H87	H	0.390040	0.918109	0.916873
	H88	H	0.904087	0.098543	0.618715
	H89	H	0.096221	0.096148	0.382104
	H90	H	0.088346	0.910638	0.612898
	H91	H	0.899282	0.913883	0.381099
	H92	H	0.096646	0.616163	0.914847
	H93	H	0.102306	0.383034	0.088954
	H94	H	0.903442	0.618723	0.089011
	H95	H	0.897268	0.380869	0.907523
	H96	H	0.405792	0.120827	0.591821
	H97	H	0.607588	0.880742	0.595575
	H98	H	0.590080	0.119922	0.400395
	H99	H	0.414231	0.885143	0.403296
	H100	H	0.591145	0.405924	0.115700
	H101	H	0.601232	0.596122	0.880216
	H102	H	0.403312	0.585406	0.114631
	H103	H	0.401776	0.406090	0.879295
	H104	H	0.119861	0.590912	0.402240
	H105	H	0.885922	0.594715	0.584285
	H106	H	0.124016	0.406508	0.604618
	H107	H	0.885970	0.411200	0.412721
	H108	H	0.912992	0.618635	0.096860
	H109	H	0.093360	0.381897	0.101736
	H110	H	0.100431	0.622836	0.899850
	H111	H	0.913031	0.382155	0.894479
	H112	H	0.098191	0.901798	0.617854
	H113	H	0.095911	0.099345	0.381026
	H114	H	0.909048	0.087947	0.613720
	H115	H	0.917001	0.916100	0.386801
	H116	H	0.620277	0.096520	0.908683
	H117	H	0.383557	0.090776	0.094627
	H118	H	0.616900	0.913229	0.087292
	H119	H	0.381718	0.916643	0.890772
	C120	C	0.381668	0.010706	0.620076
	C121	C	0.624260	0.993359	0.620503
	C122	C	0.624099	0.010725	0.376788
	C123	C	0.380824	0.993186	0.376585
	C124	C	0.622558	0.380074	0.007704
	C125	C	0.623240	0.623707	0.990282
	C126	C	0.379694	0.624156	0.007663
	C127	C	0.379116	0.379304	0.989996
	C128	C	0.010885	0.624427	0.376656
	C129	C	0.993364	0.623758	0.620336
	C130	C	0.010805	0.380780	0.621016
	C131	C	0.993098	0.382332	0.378697
	C132	C	0.880445	0.509692	0.120602
	C133	C	0.123221	0.492587	0.121121
	C134	C	0.123068	0.510006	0.877493
	C135	C	0.879750	0.492671	0.877240
	C136	C	0.124124	0.881303	0.507179
	C137	C	0.125151	0.124985	0.490371
	C138	C	0.881428	0.123842	0.507148
	C139	C	0.880511	0.880757	0.490415
	C140	C	0.511279	0.123659	0.876776
	C141	C	0.492683	0.123002	0.120047
	C142	C	0.510146	0.880765	0.119228
	C143	C	0.493086	0.880668	0.876634
	C144	C	0.383413	0.887211	0.675751
	C145	C	0.623504	0.116791	0.675923
	C146	C	0.621865	0.886960	0.322235
	C147	C	0.383363	0.117089	0.321721
	C148	C	0.677965	0.382972	0.884464
	C149	C	0.678786	0.620981	0.113529
	C150	C	0.324676	0.620792	0.884328
	C151	C	0.325254	0.382521	0.113682
	C152	C	0.886904	0.679843	0.379162
	C153	C	0.118061	0.678080	0.617717
	C154	C	0.886741	0.325416	0.617886
	C155	C	0.117814	0.328062	0.381462
	C156	C	0.886248	0.382477	0.675281
	C157	C	0.117413	0.621279	0.675730
	C158	C	0.887168	0.623179	0.320903
	C159	C	0.117327	0.384687	0.323904
	C160	C	0.381876	0.678548	0.884009
	C161	C	0.621497	0.678849	0.113316
	C162	C	0.620535	0.325514	0.884067
	C163	C	0.381289	0.323958	0.113082
	C164	C	0.678352	0.886454	0.380847
	C165	C	0.678623	0.117578	0.616502
	C166	C	0.326560	0.886777	0.617234
	C167	C	0.327029	0.117602	0.380037
	C168	C	0.881544	0.386511	0.177133
	C169	C	0.122168	0.616142	0.175719
	C170	C	0.120248	0.385961	0.823282
	C171	C	0.881744	0.616291	0.821804
	C172	C	0.178350	0.885056	0.383449
	C173	C	0.179722	0.120568	0.614055
	C174	C	0.825612	0.122135	0.384274
	C175	C	0.826026	0.883422	0.613882
	C176	C	0.386307	0.177246	0.879803
	C177	C	0.617459	0.177152	0.116497
	C178	C	0.385980	0.825781	0.116310
	C179	C	0.616942	0.825428	0.879335
	C180	C	0.386154	0.882671	0.173980
	C181	C	0.617178	0.121104	0.174747
	C182	C	0.387449	0.121281	0.821322
	C183	C	0.617100	0.882663	0.822313
	C184	C	0.883530	0.179676	0.384084
	C185	C	0.121896	0.178221	0.614499
	C186	C	0.121850	0.826575	0.383776
	C187	C	0.882848	0.825236	0.613655
	C188	C	0.177080	0.385598	0.881698
	C189	C	0.178522	0.616295	0.117514
	C190	C	0.825231	0.385957	0.118619
	C191	C	0.824706	0.616471	0.879676
	C192	C	0.404101	0.097082	0.597930
	C193	C	0.601695	0.907041	0.598966
	C194	C	0.601590	0.096957	0.398521
	C195	C	0.402589	0.906493	0.398310
	C196	C	0.600336	0.401445	0.093812
	C197	C	0.600533	0.601404	0.904526
	C198	C	0.402307	0.602231	0.093896
	C199	C	0.400941	0.401046	0.903562
	C200	C	0.097582	0.602243	0.398728
	C201	C	0.906834	0.601730	0.598131
	C202	C	0.097670	0.402784	0.599834
	C203	C	0.906541	0.404082	0.400411
	C204	C	0.903444	0.595501	0.097347
	C205	C	0.100701	0.406174	0.099616
	C206	C	0.100747	0.596321	0.899263
	C207	C	0.901960	0.406118	0.899162
	C208	C	0.102233	0.902781	0.593184
	C209	C	0.103367	0.104209	0.403949
	C210	C	0.903471	0.101532	0.593459
	C211	C	0.902729	0.903156	0.404561
	C212	C	0.598004	0.101831	0.898999
	C213	C	0.405672	0.101341	0.098775
	C214	C	0.596785	0.902996	0.097575
	C215	C	0.406358	0.903139	0.898447
	Zn216	Zn	0.502961	0.002335	0.748604
	Zn217	Zn	0.501894	0.001520	0.248108
	Zn218	Zn	0.751567	0.501355	-0.000896
	Zn219	Zn	0.251745	0.500908	-0.000493
	Zn220	Zn	0.002911	0.752228	0.498699
	Zn221	Zn	0.002433	0.253543	0.499151
	Zn222	Zn	0.001373	0.501573	0.748687
	Zn223	Zn	0.001697	0.501951	0.249068
	Zn224	Zn	0.501820	0.752650	-0.002100
	Zn225	Zn	0.501043	0.251084	-0.001135
	Zn226	Zn	0.751901	0.002331	0.498921
	Zn227	Zn	0.253090	0.002379	0.498298
	N228	N	0.416932	0.965107	0.677527
	N229	N	0.590386	0.038607	0.678318
	N230	N	0.589173	0.965334	0.319306
	N231	N	0.416019	0.038855	0.319377
	N232	N	0.679352	0.416086	0.962248
	N233	N	0.679864	0.587271	0.036063
	N234	N	0.323100	0.587661	0.962467
	N235	N	0.323932	0.416158	0.036045
	N236	N	0.964812	0.680504	0.413271
	N237	N	0.039863	0.679997	0.584206
	N238	N	0.965158	0.324159	0.585060
	N239	N	0.039598	0.326194	0.414813
	N240	N	0.964429	0.416315	0.677064
	N241	N	0.039007	0.588179	0.677461
	N242	N	0.965343	0.589616	0.319234
	N243	N	0.039051	0.417983	0.322235
	N244	N	0.415321	0.680687	0.961646
	N245	N	0.587912	0.681018	0.035590
	N246	N	0.586577	0.323774	0.961573
	N247	N	0.414118	0.321933	0.035096
	N248	N	0.680038	0.964395	0.413801
	N249	N	0.679272	0.039874	0.582800
	N250	N	0.325484	0.964555	0.583258
	N251	N	0.325598	0.039582	0.413536
	N252	N	0.915494	0.464387	0.178269
	N253	N	0.088349	0.538234	0.177882
	N254	N	0.087526	0.464270	0.820488
	N255	N	0.915163	0.538262	0.820096
	N256	N	0.179925	0.918237	0.461024
	N257	N	0.181818	0.088287	0.535990
	N258	N	0.824269	0.088144	0.461842
	N259	N	0.824374	0.917149	0.536344
	N260	N	0.464387	0.178814	0.913717
	N261	N	0.539178	0.178593	0.083280
	N262	N	0.464192	0.824457	0.082958
	N263	N	0.538643	0.823868	0.912104
	N264	N	0.464310	0.916331	0.175866
	N265	N	0.538694	0.088061	0.177052
	N266	N	0.466126	0.088979	0.819193
	N267	N	0.538993	0.916362	0.820587
	N268	N	0.917456	0.180724	0.461637
	N269	N	0.088775	0.181062	0.536491
	N270	N	0.088801	0.824055	0.461672
	N271	N	0.916236	0.823452	0.535878
	N272	N	0.178967	0.463644	0.914635
	N273	N	0.179304	0.538442	0.084210
	N274	N	0.824332	0.463682	0.084250
	N275	N	0.823414	0.538624	0.913410
	O276	O	0.904758	0.931325	0.013551
	H277	H	0.905542	0.918762	0.006206
	H278	H	0.905303	0.933051	0.010493
	O279	O	-0.034856	-0.129220	0.039573
	H280	H	-0.047037	-0.132789	0.048665
	H281	H	-0.044089	-0.134096	0.040360
	O282	O	-0.021373	-0.035641	0.994440
	H283	H	-0.013959	-0.029083	0.997795
	H284	H	-0.019112	-0.037464	0.999730
	O285	O	0.489024	0.451761	0.532823
	H286	H	0.495860	0.452836	0.542317
	H287	H	0.489878	0.448855	0.538930
	O288	O	0.504193	0.485491	0.507310
	H289	H	0.506369	0.486314	0.506535
	H290	H	0.496824	0.483444	0.511110
	O291	O	0.517508	0.501127	0.516899
	H292	H	0.525057	0.500424	0.514178
	H293	H	0.514416	0.497289	0.510580
	O294	O	-0.019065	-0.069697	0.033737
	H295	H	-0.011570	-0.076219	0.038126
	H296	H	-0.024039	-0.080654	0.026275
	O297	O	0.512909	0.487276	0.508927
	H298	H	0.505235	0.481883	0.513438
	H299	H	0.514027	0.489767	0.515949
	O300	O	0.011241	0.929076	0.961449
	H301	H	0.018161	0.926852	0.962092
	H302	H	0.011406	0.933448	0.963564
	O303	O	0.509352	0.491983	0.497924
	H304	H	0.505713	0.482227	0.496742
	H305	H	0.512289	0.491477	0.498724
	O306	O	0.000584	-0.032896	1.014439
	H307	H	-0.003606	-0.037370	1.016212
	H308	H	-0.002519	-0.038223	1.025725
	O309	O	1.017572	0.924186	0.925297
	H310	H	1.014795	0.924210	0.924016
	H311	H	1.017007	0.925570	0.918817
	O312	O	0.544482	0.498099	0.492220
	H313	H	0.535716	0.500153	0.496602
	H314	H	0.545757	0.496523	0.490504
	O315	O	0.536673	0.510204	0.538792
	H316	H	0.538977	0.511749	0.541571
	H317	H	0.541559	0.524472	0.533222
	O318	O	-0.011795	0.950072	0.015166
	H319	H	-0.018037	0.948814	0.015383
	H320	H	-0.014809	0.947161	0.014510
	O321	O	0.892937	0.944526	0.041044
	H322	H	0.895195	0.953269	0.034150
	H323	H	0.888611	0.943006	0.046805
