data_Molecule from HDF5

_cell_length_a		16.202174
_cell_length_b		16.125853
_cell_length_c		16.181196
_cell_angle_alpha	90.556948
_cell_angle_beta	89.112725
_cell_angle_gamma	89.081432
_symmetry_space_group_name_H-M	'P 1'
_symmetry_Int_Tables_number		1

loop_
	_symmetry_equiv_pos_as_xyz
	x,y,z

loop_
	_atom_site_label
	_atom_site_type_symbol
	_atom_site_fract_x
	_atom_site_fract_y
	_atom_site_fract_z
	H0	H	0.398518	0.841377	0.725682
	H1	H	0.590901	0.172325	0.726099
	H2	H	0.600732	0.842678	0.294767
	H3	H	0.396711	0.173367	0.304132
	H4	H	0.716798	0.402050	0.849000
	H5	H	0.703833	0.606909	0.177383
	H6	H	0.281704	0.608235	0.847197
	H7	H	0.279058	0.413571	0.176357
	H8	H	0.832611	0.725346	0.416180
	H9	H	0.162029	0.717245	0.607588
	H10	H	0.829791	0.299658	0.609073
	H11	H	0.161264	0.289147	0.408671
	H12	H	0.832564	0.410832	0.729076
	H13	H	0.160892	0.604471	0.725124
	H14	H	0.830298	0.607512	0.301511
	H15	H	0.160191	0.402880	0.291874
	H16	H	0.397174	0.721280	0.846944
	H17	H	0.586183	0.719849	0.177777
	H18	H	0.599816	0.289806	0.847663
	H19	H	0.397221	0.298839	0.178004
	H20	H	0.718124	0.844337	0.406194
	H21	H	0.702763	0.173977	0.608533
	H22	H	0.282841	0.842478	0.613038
	H23	H	0.281271	0.171903	0.418972
	H24	H	0.898191	0.340741	0.224918
	H25	H	0.088111	0.671275	0.224433
	H26	H	0.100218	0.341835	0.795343
	H27	H	0.895275	0.672549	0.801232
	H28	H	0.216400	0.903277	0.349170
	H29	H	0.203154	0.105579	0.677807
	H30	H	0.783158	0.107474	0.346066
	H31	H	0.778723	0.911675	0.675014
	H32	H	0.330943	0.223344	0.918456
	H33	H	0.661623	0.218332	0.108307
	H34	H	0.328010	0.801216	0.110605
	H35	H	0.659308	0.787879	0.910695
	H36	H	0.331531	0.913415	0.229790
	H37	H	0.661471	0.103160	0.223643
	H38	H	0.330519	0.107268	0.803007
	H39	H	0.659802	0.902625	0.793474
	H40	H	0.900337	0.220076	0.345085
	H41	H	0.089008	0.221794	0.676403
	H42	H	0.100013	0.790268	0.347460
	H43	H	0.896803	0.797871	0.677189
	H44	H	0.216316	0.344242	0.907060
	H45	H	0.199544	0.673462	0.109095
	H46	H	0.783025	0.340786	0.111008
	H47	H	0.779031	0.671804	0.916093
	H48	H	0.395620	0.126538	0.606722
	H49	H	0.597149	0.887333	0.598131
	H50	H	0.588762	0.126158	0.421224
	H51	H	0.397944	0.884733	0.418545
	H52	H	0.595030	0.422019	0.130420
	H53	H	0.589500	0.596548	0.894231
	H54	H	0.398696	0.612742	0.131257
	H55	H	0.401099	0.404978	0.889247
	H56	H	0.114111	0.594320	0.413337
	H57	H	0.876885	0.602006	0.615637
	H58	H	0.116685	0.407757	0.607936
	H59	H	0.873899	0.421470	0.399895
	H60	H	0.114395	0.406715	0.596316
	H61	H	0.877155	0.610808	0.603607
	H62	H	0.115393	0.597654	0.413203
	H63	H	0.874608	0.394953	0.423068
	H64	H	0.387049	0.603984	0.132873
	H65	H	0.588433	0.596106	0.894269
	H66	H	0.578022	0.415922	0.127508
	H67	H	0.399206	0.423773	0.893973
	H68	H	0.591465	0.127865	0.416647
	H69	H	0.588530	0.887539	0.607744
	H70	H	0.398077	0.126913	0.612086
	H71	H	0.414261	0.888046	0.411447
	H72	H	0.896965	0.625257	0.108677
	H73	H	0.093371	0.387572	0.097898
	H74	H	0.079661	0.622014	0.921950
	H75	H	0.909731	0.390582	0.922440
	H76	H	0.089447	0.915933	0.631036
	H77	H	0.101826	0.090143	0.392850
	H78	H	0.904719	0.105800	0.626878
	H79	H	0.904543	0.915396	0.392769
	H80	H	0.609424	0.084535	0.917438
	H81	H	0.377304	0.103164	0.115648
	H82	H	0.612798	0.916321	0.106134
	H83	H	0.376131	0.915849	0.916379
	H84	H	0.615753	0.905166	0.104642
	H85	H	0.376343	0.110058	0.108333
	H86	H	0.619048	0.100788	0.904968
	H87	H	0.376116	0.912949	0.919316
	H88	H	0.893934	0.109711	0.632333
	H89	H	0.081595	0.092613	0.397244
	H90	H	0.085169	0.910618	0.629886
	H91	H	0.909606	0.916928	0.394604
	H92	H	0.096162	0.628081	0.922111
	H93	H	0.090628	0.386181	0.104687
	H94	H	0.899656	0.623987	0.107113
	H95	H	0.902541	0.387424	0.919575
	H96	H	0.401469	0.125107	0.606845
	H97	H	0.585197	0.891501	0.597243
	H98	H	0.586223	0.126508	0.416056
	H99	H	0.411814	0.892231	0.428086
	H100	H	0.591233	0.404178	0.134164
	H101	H	0.589210	0.596984	0.893952
	H102	H	0.399745	0.598235	0.128031
	H103	H	0.416988	0.414786	0.898018
	H104	H	0.113389	0.596093	0.416569
	H105	H	0.882683	0.596962	0.603507
	H106	H	0.112936	0.418216	0.601879
	H107	H	0.885624	0.427055	0.432191
	H108	H	0.896493	0.625088	0.105764
	H109	H	0.086057	0.388854	0.099110
	H110	H	0.087342	0.629838	0.907080
	H111	H	0.910299	0.388666	0.914137
	H112	H	0.092970	0.910159	0.633333
	H113	H	0.092934	0.109211	0.389034
	H114	H	0.895332	0.097686	0.628363
	H115	H	0.909101	0.911417	0.392939
	H116	H	0.613015	0.104380	0.926069
	H117	H	0.379444	0.100903	0.105928
	H118	H	0.611222	0.911164	0.095758
	H119	H	0.377855	0.917130	0.920506
	C120	C	0.372510	0.016152	0.635793
	C121	C	0.616206	0.998591	0.630797
	C122	C	0.619887	0.017299	0.388163
	C123	C	0.377011	0.997949	0.392822
	C124	C	0.619244	0.383523	0.021730
	C125	C	0.614824	0.626678	1.003416
	C126	C	0.370095	0.631327	0.020972
	C127	C	0.375192	0.387778	1.003225
	C128	C	0.005159	0.627412	0.389073
	C129	C	0.987890	0.629376	0.634150
	C130	C	0.005003	0.385530	0.631889
	C131	C	0.987319	0.383702	0.387774
	C132	C	0.871831	0.515173	0.134958
	C133	C	0.114638	0.497468	0.130081
	C134	C	0.119024	0.516854	0.887526
	C135	C	0.875895	0.498081	0.891304
	C136	C	0.120083	0.882818	0.522177
	C137	C	0.116689	0.126973	0.502870
	C138	C	0.872344	0.131171	0.519528
	C139	C	0.876721	0.887374	0.502376
	C140	C	0.504668	0.127391	0.890548
	C141	C	0.487235	0.130654	0.135851
	C142	C	0.503811	0.886169	0.132355
	C143	C	0.485768	0.883842	0.888605
	C144	C	0.377529	0.891259	0.688943
	C145	C	0.611526	0.123131	0.687301
	C146	C	0.620278	0.892541	0.332229
	C147	C	0.377230	0.123317	0.340392
	C148	C	0.677405	0.383380	0.897896
	C149	C	0.666667	0.625811	0.128221
	C150	C	0.318590	0.628069	0.896362
	C151	C	0.318072	0.392558	0.127475
	C152	C	0.881333	0.686099	0.394851
	C153	C	0.112638	0.680974	0.629143
	C154	C	0.879944	0.334663	0.630143
	C155	C	0.111604	0.327231	0.388884
	C156	C	0.881327	0.389925	0.689741
	C157	C	0.112126	0.624818	0.687289
	C158	C	0.880223	0.627299	0.337821
	C159	C	0.111096	0.383791	0.330707
	C160	C	0.375765	0.684621	0.896334
	C161	C	0.608611	0.682543	0.128009
	C162	C	0.619088	0.327405	0.897206
	C163	C	0.376731	0.335481	0.128197
	C164	C	0.678398	0.893196	0.387858
	C165	C	0.667176	0.123980	0.629070
	C166	C	0.319997	0.891568	0.632999
	C167	C	0.319896	0.122647	0.397758
	C168	C	0.877010	0.390183	0.188100
	C169	C	0.109320	0.621976	0.186501
	C170	C	0.119672	0.392000	0.832078
	C171	C	0.875718	0.622783	0.838031
	C172	C	0.177593	0.883836	0.398092
	C173	C	0.167381	0.125499	0.628016
	C174	C	0.820131	0.127658	0.395167
	C175	C	0.818298	0.891116	0.626293
	C176	C	0.380338	0.184810	0.896724
	C177	C	0.612086	0.182177	0.130139
	C178	C	0.378194	0.836351	0.130866
	C179	C	0.610030	0.826510	0.890434
	C180	C	0.380086	0.891742	0.190625
	C181	C	0.612109	0.125054	0.187639
	C182	C	0.379934	0.126873	0.839281
	C183	C	0.610169	0.883548	0.831906
	C184	C	0.878103	0.183796	0.394733
	C185	C	0.110427	0.183170	0.627413
	C186	C	0.119934	0.827368	0.397339
	C187	C	0.877004	0.834481	0.627253
	C188	C	0.177188	0.393025	0.888076
	C189	C	0.164733	0.623224	0.128980
	C190	C	0.819852	0.390043	0.131441
	C191	C	0.817916	0.622498	0.895113
	C192	C	0.392420	0.103561	0.614700
	C193	C	0.596360	0.911378	0.607738
	C194	C	0.595925	0.104119	0.411224
	C195	C	0.400838	0.910817	0.413319
	C196	C	0.595214	0.407192	0.108447
	C197	C	0.595029	0.603329	0.916633
	C198	C	0.389420	0.611035	0.108050
	C199	C	0.398867	0.408416	0.916292
	C200	C	0.091845	0.603081	0.408607
	C201	C	0.901388	0.609248	0.613646
	C202	C	0.092226	0.405003	0.608802
	C203	C	0.900416	0.407434	0.411470
	C204	C	0.891859	0.602137	0.113689
	C205	C	0.095500	0.409993	0.107400
	C206	C	0.094682	0.604150	0.910371
	C207	C	0.900284	0.411315	0.912592
	C208	C	0.096265	0.905549	0.609062
	C209	C	0.097746	0.104105	0.415633
	C210	C	0.892047	0.110558	0.606691
	C211	C	0.900605	0.908287	0.415838
	C212	C	0.591462	0.103488	0.910194
	C213	C	0.400450	0.110747	0.116056
	C214	C	0.590917	0.905238	0.109015
	C215	C	0.399063	0.908154	0.911704
	Zn216	Zn	0.495246	0.006437	0.760538
	Zn217	Zn	0.496980	0.007558	0.262465
	Zn218	Zn	0.745453	0.506085	0.013125
	Zn219	Zn	0.243880	0.508965	0.010737
	Zn220	Zn	-0.002324	0.756911	0.512149
	Zn221	Zn	-0.004631	0.256749	0.510466
	Zn222	Zn	-0.003093	0.507150	0.761698
	Zn223	Zn	-0.005111	0.505322	0.259738
	Zn224	Zn	0.493002	0.756415	0.012032
	Zn225	Zn	0.496810	0.257389	0.012538
	Zn226	Zn	0.745988	0.008912	0.510690
	Zn227	Zn	0.246467	0.006049	0.513570
	N228	N	0.409227	0.969912	0.690795
	N229	N	0.580667	0.044141	0.688627
	N230	N	0.584546	0.970687	0.332147
	N231	N	0.412334	0.044774	0.337387
	N232	N	0.677366	0.417650	0.976205
	N233	N	0.671027	0.591826	0.049703
	N234	N	0.314785	0.595668	0.974782
	N235	N	0.317014	0.424366	0.048705
	N236	N	0.960119	0.686451	0.425805
	N237	N	0.034515	0.684210	0.596828
	N238	N	0.958007	0.331615	0.594882
	N239	N	0.033429	0.326949	0.423618
	N240	N	0.960129	0.420599	0.690947
	N241	N	0.033592	0.593407	0.690648
	N242	N	0.957916	0.591308	0.334323
	N243	N	0.032645	0.418098	0.329822
	N244	N	0.406950	0.687082	0.974884
	N245	N	0.576910	0.682998	0.049626
	N246	N	0.583659	0.327329	0.975430
	N247	N	0.411572	0.332265	0.049902
	N248	N	0.678405	0.971749	0.422101
	N249	N	0.670206	0.045481	0.594521
	N250	N	0.316577	0.970221	0.600631
	N251	N	0.319419	0.043594	0.429406
	N252	N	0.908423	0.468956	0.190482
	N253	N	0.078837	0.542801	0.187387
	N254	N	0.083947	0.470110	0.831924
	N255	N	0.910986	0.544454	0.835597
	N256	N	0.177720	0.917878	0.476713
	N257	N	0.171639	0.091340	0.549566
	N258	N	0.816353	0.095601	0.473710
	N259	N	0.817801	0.923299	0.547613
	N260	N	0.459015	0.185256	0.927912
	N261	N	0.533683	0.185911	0.098882
	N262	N	0.456243	0.832505	0.095657
	N263	N	0.531686	0.826533	0.924936
	N264	N	0.459110	0.921899	0.191580
	N265	N	0.533420	0.093739	0.191559
	N266	N	0.458290	0.092040	0.835180
	N267	N	0.531960	0.918552	0.830731
	N268	N	0.909779	0.186132	0.473041
	N269	N	0.079648	0.184181	0.548647
	N270	N	0.084883	0.826617	0.475464
	N271	N	0.912758	0.832134	0.549440
	N272	N	0.176978	0.471813	0.921762
	N273	N	0.168339	0.544784	0.094411
	N274	N	0.816223	0.468758	0.099333
	N275	N	0.817847	0.543849	0.927618
	O276	O	-0.064630	0.121157	-0.082186
	H277	H	-0.074261	0.124351	-0.087041
	H278	H	-0.050757	0.123646	-0.070864
	O279	O	0.454310	0.554731	0.488989
	H280	H	0.447327	0.558838	0.490010
	H281	H	0.453837	0.551337	0.485165
	O282	O	0.566436	0.575394	0.434246
	H283	H	0.566075	0.570330	0.433292
	H284	H	0.558859	0.568396	0.437950
	O285	O	0.962961	-0.007486	0.891487
	H286	H	0.949369	-0.004660	0.883132
	H287	H	0.966094	-0.006425	0.886983
	O288	O	0.987047	-0.095073	0.063714
	H289	H	0.983442	-0.098490	0.060038
	H290	H	0.987850	-0.097364	0.065821
	O291	O	0.605387	0.567553	0.552684
	H292	H	0.606969	0.581568	0.553432
	H293	H	0.620159	0.568815	0.559576
	O294	O	1.073795	0.014184	0.964046
	H295	H	1.073070	0.016089	0.959031
	H296	H	1.071275	0.014085	0.960170
	O297	O	-0.027948	0.080430	0.020862
	H298	H	-0.032783	0.081973	0.019362
	H299	H	-0.040218	0.079769	0.007893
	O300	O	0.485128	0.510246	0.561225
	H301	H	0.492782	0.506150	0.550061
	H302	H	0.490749	0.507668	0.561892
	O303	O	0.481456	0.527802	0.566199
	H304	H	0.474370	0.526162	0.554012
	H305	H	0.492985	0.535845	0.565277
	O306	O	0.992195	-0.006778	-0.049300
	H307	H	0.999272	-0.020165	-0.048875
	H308	H	0.997300	-0.016667	-0.039682
	O309	O	-0.016081	0.082303	0.954750
	H310	H	-0.014879	0.089162	0.961082
	H311	H	-0.023217	0.085739	0.949612
	O312	O	1.520162	0.520627	0.511257
	H313	H	1.516046	0.517293	0.510971
	H314	H	1.519792	0.511174	0.496352
	O315	O	0.975224	-0.051830	-0.081145
	H316	H	0.963587	-0.045428	-0.081217
	H317	H	0.984976	-0.046593	-0.069694
	O318	O	0.484473	0.529572	0.513964
	H319	H	0.486492	0.523027	0.515429
	H320	H	0.489931	0.534669	0.520988
	O321	O	-0.025589	1.023061	1.021534
	H322	H	-0.010547	1.016057	1.018987
	H323	H	-0.029892	1.020727	1.022519
	O324	O	1.099927	1.007855	0.037631
	H325	H	1.100434	1.000830	0.049950
	H326	H	1.095385	1.013014	0.036797
	O327	O	0.569896	0.546672	0.512865
	H328	H	0.574479	0.545231	0.519700
	H329	H	0.561715	0.549541	0.508080
	O330	O	1.028600	0.953408	0.006722
	H331	H	1.041971	0.960279	0.010134
	H332	H	1.021041	0.956817	0.004811
	O333	O	0.511368	0.484141	0.465836
	H334	H	0.515263	0.480205	0.457295
	H335	H	0.528722	0.489075	0.462617
	O336	O	0.502256	0.480964	0.515643
	H337	H	0.485750	0.487571	0.519002
	H338	H	0.507321	0.481413	0.513068
	O339	O	0.568646	0.418714	-0.507554
	H340	H	0.563157	0.416629	-0.491338
	H341	H	0.565956	0.426018	-0.510442
	O342	O	0.521682	0.414409	0.487554
	H343	H	0.524829	0.401014	0.489050
	H344	H	0.511387	0.413141	0.506978
	O345	O	0.467113	0.522131	0.571770
	H346	H	0.474733	0.521803	0.576849
	H347	H	0.474207	0.522472	0.564342
	O348	O	-0.090809	-0.044287	0.090515
	H349	H	-0.102456	-0.050638	0.098588
	H350	H	-0.094628	-0.051058	0.089218
	O351	O	-0.093410	1.058337	1.047427
	H352	H	-0.098240	1.055576	1.041139
	H353	H	-0.090985	1.068171	1.038948
	O354	O	0.517505	0.475475	0.602955
	H355	H	0.512945	0.478654	0.605814
	H356	H	0.512812	0.476253	0.600568
	O357	O	-0.058248	0.983631	1.022201
	H358	H	-0.054369	0.969215	1.010716
	H359	H	-0.060336	0.988277	1.028319
