data_Molecule from HDF5

_cell_length_a		16.025379
_cell_length_b		16.325711
_cell_length_c		16.286806
_cell_angle_alpha	90.167633
_cell_angle_beta	90.099632
_cell_angle_gamma	89.899669
_symmetry_space_group_name_H-M	'P 1'
_symmetry_Int_Tables_number		1

loop_
	_symmetry_equiv_pos_as_xyz
	x,y,z

loop_
	_atom_site_label
	_atom_site_type_symbol
	_atom_site_fract_x
	_atom_site_fract_y
	_atom_site_fract_z
	H0	H	0.390482	0.836592	0.722431
	H1	H	0.592381	0.161670	0.720537
	H2	H	0.592008	0.836126	0.288974
	H3	H	0.388915	0.161296	0.288599
	H4	H	0.705348	0.402060	0.840279
	H5	H	0.703854	0.595232	0.169458
	H6	H	0.279629	0.596439	0.839940
	H7	H	0.283294	0.406581	0.169851
	H8	H	0.825966	0.710004	0.406341
	H9	H	0.156167	0.714846	0.607557
	H10	H	0.826851	0.285295	0.603947
	H11	H	0.157977	0.283615	0.407620
	H12	H	0.827248	0.400325	0.718214
	H13	H	0.157943	0.596812	0.719154
	H14	H	0.827148	0.595508	0.292461
	H15	H	0.159498	0.399069	0.293602
	H16	H	0.391676	0.715824	0.840663
	H17	H	0.595415	0.717582	0.166047
	H18	H	0.594184	0.282510	0.841636
	H19	H	0.390764	0.283388	0.167172
	H20	H	0.703753	0.834605	0.407444
	H21	H	0.703593	0.162588	0.600980
	H22	H	0.279215	0.834905	0.600968
	H23	H	0.278175	0.163126	0.409985
	H24	H	0.895099	0.335929	0.219420
	H25	H	0.094376	0.661499	0.223573
	H26	H	0.094060	0.336775	0.789268
	H27	H	0.891003	0.660807	0.788572
	H28	H	0.203909	0.900282	0.340558
	H29	H	0.203371	0.094468	0.668614
	H30	H	0.779495	0.091957	0.339928
	H31	H	0.779089	0.903631	0.669864
	H32	H	0.326482	0.212477	0.904396
	H33	H	0.658375	0.213210	0.104217
	H34	H	0.327288	0.786328	0.101597
	H35	H	0.658514	0.785479	0.903995
	H36	H	0.325967	0.902681	0.215402
	H37	H	0.658580	0.097293	0.218969
	H38	H	0.326762	0.096882	0.791835
	H39	H	0.658332	0.900353	0.791132
	H40	H	0.888881	0.214619	0.342476
	H41	H	0.092950	0.213866	0.667332
	H42	H	0.091008	0.781067	0.342391
	H43	H	0.889235	0.781827	0.667856
	H44	H	0.206110	0.335549	0.907904
	H45	H	0.205156	0.664094	0.101731
	H46	H	0.781716	0.334663	0.100087
	H47	H	0.779870	0.662878	0.909186
	H48	H	0.386251	0.116424	0.592191
	H49	H	0.573520	0.882587	0.605419
	H50	H	0.575677	0.108628	0.424065
	H51	H	0.400087	0.884441	0.415286
	H52	H	0.586364	0.410880	0.120735
	H53	H	0.581745	0.589418	0.889323
	H54	H	0.410359	0.598845	0.119138
	H55	H	0.396933	0.403417	0.885635
	H56	H	0.114767	0.585298	0.399947
	H57	H	0.880347	0.581433	0.584016
	H58	H	0.111572	0.403944	0.598575
	H59	H	0.870508	0.402374	0.406551
	H60	H	0.112131	0.404644	0.597264
	H61	H	0.870839	0.582782	0.613231
	H62	H	0.114735	0.606312	0.419373
	H63	H	0.874055	0.402205	0.417443
	H64	H	0.393936	0.600365	0.124726
	H65	H	0.583083	0.598270	0.885282
	H66	H	0.579266	0.402423	0.120990
	H67	H	0.401303	0.408144	0.889112
	H68	H	0.600393	0.120117	0.413017
	H69	H	0.583820	0.884689	0.588596
	H70	H	0.398785	0.119584	0.613214
	H71	H	0.392580	0.879770	0.408820
	H72	H	0.895544	0.616247	0.099795
	H73	H	0.085049	0.381714	0.107609
	H74	H	0.095370	0.618894	0.910414
	H75	H	0.908312	0.381151	0.900411
	H76	H	0.088837	0.912550	0.621332
	H77	H	0.086627	0.086171	0.387756
	H78	H	0.884612	0.084873	0.624356
	H79	H	0.898659	0.906412	0.389406
	H80	H	0.612935	0.097633	0.914623
	H81	H	0.374897	0.098991	0.087325
	H82	H	0.611379	0.916398	0.104602
	H83	H	0.373610	0.909898	0.910699
	H84	H	0.616671	0.896993	0.101944
	H85	H	0.376355	0.081394	0.097114
	H86	H	0.609290	0.088629	0.916172
	H87	H	0.372429	0.903400	0.911949
	H88	H	0.911747	0.086577	0.615409
	H89	H	0.076337	0.092170	0.388958
	H90	H	0.074953	0.904858	0.618964
	H91	H	0.902101	0.899389	0.388369
	H92	H	0.078172	0.616702	0.902566
	H93	H	0.082060	0.385266	0.094995
	H94	H	0.899663	0.617812	0.105170
	H95	H	0.903596	0.385999	0.921987
	H96	H	0.410537	0.110072	0.593400
	H97	H	0.593031	0.877736	0.605196
	H98	H	0.575807	0.117080	0.396535
	H99	H	0.402823	0.881851	0.404698
	H100	H	0.589953	0.400973	0.123726
	H101	H	0.590128	0.591922	0.885668
	H102	H	0.399589	0.585379	0.118086
	H103	H	0.403983	0.401625	0.887391
	H104	H	0.105235	0.580422	0.426954
	H105	H	0.868301	0.607324	0.595990
	H106	H	0.111579	0.405478	0.597987
	H107	H	0.875700	0.411472	0.411237
	H108	H	0.901824	0.614798	0.098724
	H109	H	0.094831	0.380804	0.098053
	H110	H	0.080404	0.612557	0.919837
	H111	H	0.887808	0.377580	0.908282
	H112	H	0.087283	0.897129	0.624812
	H113	H	0.085858	0.097553	0.385246
	H114	H	0.898666	0.108853	0.626854
	H115	H	0.894645	0.900249	0.385932
	H116	H	0.613599	0.090378	0.906884
	H117	H	0.369201	0.097856	0.106791
	H118	H	0.607929	0.907701	0.086149
	H119	H	0.375831	0.907752	0.916460
	C120	C	0.369984	0.007416	0.627653
	C121	C	0.613001	0.990061	0.627275
	C122	C	0.613082	0.007413	0.382728
	C123	C	0.369305	0.990060	0.382239
	C124	C	0.614455	0.376607	0.013512
	C125	C	0.614552	0.621767	0.995388
	C126	C	0.371546	0.622779	0.012661
	C127	C	0.372082	0.377656	0.995980
	C128	C	0.001468	0.618733	0.385577
	C129	C	0.982920	0.619264	0.626704
	C130	C	0.001857	0.376861	0.625957
	C131	C	0.983811	0.376679	0.384086
	C132	C	0.871488	0.507782	0.127649
	C133	C	0.115738	0.490666	0.128310
	C134	C	0.113979	0.507955	0.883032
	C135	C	0.870979	0.489794	0.882846
	C136	C	0.112700	0.875835	0.513622
	C137	C	0.112267	0.119860	0.495563
	C138	C	0.869461	0.120427	0.513642
	C139	C	0.869301	0.875135	0.496416
	C140	C	0.501550	0.120290	0.883985
	C141	C	0.483465	0.121035	0.126101
	C142	C	0.501722	0.878890	0.125294
	C143	C	0.483973	0.878474	0.883738
	C144	C	0.371640	0.884945	0.683326
	C145	C	0.611812	0.112981	0.682370
	C146	C	0.611642	0.884713	0.327231
	C147	C	0.369693	0.112819	0.327057
	C148	C	0.668698	0.380483	0.889673
	C149	C	0.667817	0.617329	0.119633
	C150	C	0.316345	0.618315	0.889232
	C151	C	0.318943	0.383603	0.120103
	C152	C	0.876094	0.673119	0.386571
	C153	C	0.107265	0.675715	0.626134
	C154	C	0.876697	0.322214	0.624236
	C155	C	0.108767	0.321667	0.387280
	C156	C	0.876718	0.379543	0.680949
	C157	C	0.108219	0.617026	0.681669
	C158	C	0.876518	0.615709	0.330219
	C159	C	0.109428	0.379190	0.330793
	C160	C	0.372392	0.677525	0.889448
	C161	C	0.613580	0.677890	0.118112
	C162	C	0.612907	0.321241	0.890432
	C163	C	0.372556	0.322362	0.118847
	C164	C	0.666973	0.883715	0.386276
	C165	C	0.667136	0.113355	0.622719
	C166	C	0.316075	0.884056	0.623183
	C167	C	0.314225	0.113599	0.386981
	C168	C	0.874777	0.384580	0.181427
	C169	C	0.113975	0.613213	0.184777
	C170	C	0.113032	0.385105	0.827949
	C171	C	0.871867	0.612348	0.827291
	C172	C	0.167289	0.878870	0.390077
	C173	C	0.166743	0.116000	0.619435
	C174	C	0.815728	0.114746	0.389518
	C175	C	0.815304	0.880917	0.620279
	C176	C	0.376297	0.174901	0.885464
	C177	C	0.608852	0.175147	0.124019
	C178	C	0.376690	0.824105	0.122130
	C179	C	0.608898	0.823234	0.884604
	C180	C	0.375930	0.881948	0.178460
	C181	C	0.608607	0.118029	0.181337
	C182	C	0.376203	0.117427	0.829398
	C183	C	0.608539	0.880133	0.828161
	C184	C	0.870655	0.175275	0.390671
	C185	C	0.111644	0.175159	0.618742
	C186	C	0.110868	0.819752	0.390863
	C187	C	0.869991	0.820446	0.619448
	C188	C	0.168782	0.384533	0.887008
	C189	C	0.168964	0.614660	0.124028
	C190	C	0.817899	0.384056	0.122527
	C191	C	0.816717	0.613521	0.887292
	C192	C	0.392038	0.093156	0.606048
	C193	C	0.590245	0.903826	0.605959
	C194	C	0.590429	0.093158	0.404611
	C195	C	0.391877	0.904268	0.403380
	C196	C	0.592078	0.398230	0.099554
	C197	C	0.591778	0.599744	0.909198
	C198	C	0.394618	0.601359	0.098616
	C199	C	0.394069	0.398237	0.909865
	C200	C	0.088898	0.597206	0.408624
	C201	C	0.895687	0.597171	0.604324
	C202	C	0.089121	0.398342	0.604279
	C203	C	0.896189	0.398902	0.405531
	C204	C	0.892578	0.594060	0.107144
	C205	C	0.093831	0.404857	0.106581
	C206	C	0.091310	0.593749	0.904547
	C207	C	0.893375	0.403668	0.904077
	C208	C	0.090242	0.898078	0.599618
	C209	C	0.089705	0.098347	0.409488
	C210	C	0.891776	0.099464	0.600015
	C211	C	0.891787	0.896017	0.410071
	C212	C	0.589192	0.098696	0.906192
	C213	C	0.396288	0.099300	0.103728
	C214	C	0.589265	0.900649	0.103917
	C215	C	0.396578	0.900455	0.906365
	Zn216	Zn	0.492398	-0.000641	0.757037
	Zn217	Zn	0.491989	-0.000781	0.253815
	Zn218	Zn	0.742299	0.498903	0.004999
	Zn219	Zn	0.243307	0.499866	0.004214
	Zn220	Zn	-0.008720	0.746655	0.505805
	Zn221	Zn	-0.008164	0.249000	0.504855
	Zn222	Zn	-0.007337	0.498330	0.753799
	Zn223	Zn	-0.006169	0.498561	0.257398
	Zn224	Zn	0.493602	0.751114	0.003434
	Zn225	Zn	0.492489	0.248015	0.004090
	Zn226	Zn	0.740852	-0.002308	0.504757
	Zn227	Zn	0.241105	-0.001158	0.504993
	N228	N	0.404454	0.962728	0.686222
	N229	N	0.578846	0.035282	0.685324
	N230	N	0.578605	0.962696	0.324983
	N231	N	0.402897	0.035035	0.323618
	N232	N	0.669584	0.414359	0.967196
	N233	N	0.668385	0.582802	0.042356
	N234	N	0.315786	0.584846	0.966637
	N235	N	0.318335	0.417296	0.042731
	N236	N	0.954938	0.674873	0.420721
	N237	N	0.028427	0.677127	0.592633
	N238	N	0.955295	0.320535	0.590721
	N239	N	0.029489	0.320051	0.419577
	N240	N	0.955539	0.412893	0.682153
	N241	N	0.029837	0.582928	0.682306
	N242	N	0.955442	0.582790	0.329491
	N243	N	0.030471	0.412535	0.328542
	N244	N	0.405913	0.680510	0.967246
	N245	N	0.581376	0.680809	0.039893
	N246	N	0.580043	0.318484	0.968433
	N247	N	0.404787	0.318546	0.040675
	N248	N	0.667910	0.960877	0.420150
	N249	N	0.667857	0.035842	0.589251
	N250	N	0.315106	0.961020	0.589137
	N251	N	0.313913	0.036338	0.420662
	N252	N	0.907075	0.462545	0.184978
	N253	N	0.081614	0.535280	0.187378
	N254	N	0.079819	0.462789	0.825242
	N255	N	0.904941	0.534460	0.824375
	N256	N	0.168682	0.913054	0.467534
	N257	N	0.167173	0.081998	0.541936
	N258	N	0.814794	0.081432	0.467041
	N259	N	0.814617	0.913982	0.542734
	N260	N	0.455378	0.176751	0.918668
	N261	N	0.530038	0.177305	0.090537
	N262	N	0.456035	0.821970	0.089924
	N263	N	0.530297	0.822232	0.918430
	N264	N	0.454663	0.915197	0.180766
	N265	N	0.529508	0.085155	0.183011
	N266	N	0.455011	0.084091	0.828434
	N267	N	0.529884	0.913932	0.827748
	N268	N	0.903019	0.179223	0.468941
	N269	N	0.078663	0.177727	0.540835
	N270	N	0.077744	0.818054	0.468614
	N271	N	0.902622	0.816682	0.541436
	N272	N	0.169628	0.462023	0.920628
	N273	N	0.170442	0.537502	0.089764
	N274	N	0.815803	0.461670	0.089833
	N275	N	0.816054	0.536389	0.920995
	O276	O	0.495009	0.534359	0.449922
	H277	H	0.482145	0.535391	0.441485
	H278	H	0.494396	0.539434	0.450825
	O279	O	0.544237	0.466503	0.472815
	H280	H	0.556190	0.469069	0.473783
	H281	H	0.543897	0.464586	0.465654
	O282	O	0.545088	0.433167	0.503089
	H283	H	0.548587	0.431441	0.498278
	H284	H	0.533700	0.423994	0.509145
	O285	O	0.026229	0.987947	0.946862
	H286	H	0.028904	0.985798	0.939766
	H287	H	0.026904	0.984543	0.956414
	O288	O	0.530446	0.516645	0.511610
	H289	H	0.527777	0.517591	0.513128
	H290	H	0.528658	0.509170	0.500643
	O291	O	0.070966	-0.011975	0.975650
	H292	H	0.081410	-0.012446	0.973697
	H293	H	0.061702	-0.021199	0.977441
	O294	O	0.504939	0.556108	0.472938
	H295	H	0.514341	0.551362	0.470705
	H296	H	0.501408	0.565593	0.482596
	O297	O	0.520944	0.510028	0.504872
	H298	H	0.518407	0.513479	0.504134
	H299	H	0.523503	0.514874	0.508539
	O300	O	0.499356	0.440316	0.475559
	H301	H	0.504628	0.450762	0.475891
	H302	H	0.496987	0.428015	0.468585
	O303	O	0.413480	0.560247	0.501321
	H304	H	0.401631	0.556229	0.490965
	H305	H	0.414229	0.564044	0.499619
	O306	O	1.021828	-0.048727	0.956064
	H307	H	1.018615	-0.049872	0.957153
	H308	H	1.022342	-0.053406	0.946563
	O309	O	0.473711	0.568664	0.400759
	H310	H	0.475532	0.562378	0.398883
	H311	H	0.473340	0.576989	0.405459
	O312	O	0.450308	0.539577	0.460817
	H313	H	0.455959	0.541150	0.462128
	H314	H	0.435329	0.545276	0.446983
	O315	O	1.034384	-0.025364	0.979561
	H316	H	1.036722	-0.021636	0.972568
	H317	H	1.041833	-0.025388	0.983213
	O318	O	0.034597	0.010391	-0.039655
	H319	H	0.035950	0.012347	-0.036798
	H320	H	0.035602	0.009288	-0.039201
	O321	O	0.498456	0.539442	0.486170
	H322	H	0.496835	0.537194	0.486034
	H323	H	0.498428	0.553752	0.479169
	O324	O	1.053698	-0.023619	-0.031250
	H325	H	1.055307	-0.021793	-0.030473
	H326	H	1.051551	-0.023669	-0.030055
	O327	O	1.517050	1.418384	-0.541126
	H328	H	1.524745	1.412893	-0.544904
	H329	H	1.519172	1.418904	-0.532937
	O330	O	0.519102	0.483707	0.536907
	H331	H	0.523156	0.484913	0.531710
	H332	H	0.520180	0.478174	0.545593
	O333	O	0.481472	0.600772	0.478648
	H334	H	0.495384	0.590310	0.482533
	H335	H	0.482182	0.605849	0.470993
