data_Molecule from HDF5

_cell_length_a		16.211978
_cell_length_b		16.231046
_cell_length_c		16.283436
_cell_angle_alpha	90.098555
_cell_angle_beta	89.709663
_cell_angle_gamma	89.978418
_symmetry_space_group_name_H-M	'P 1'
_symmetry_Int_Tables_number		1

loop_
	_symmetry_equiv_pos_as_xyz
	x,y,z

loop_
	_atom_site_label
	_atom_site_type_symbol
	_atom_site_fract_x
	_atom_site_fract_y
	_atom_site_fract_z
	H0	H	0.396631	0.845237	0.719038
	H1	H	0.595889	0.172304	0.717967
	H2	H	0.594885	0.844797	0.289636
	H3	H	0.399036	0.172584	0.290908
	H4	H	0.712266	0.410918	0.840596
	H5	H	0.710361	0.607651	0.167267
	H6	H	0.285734	0.605947	0.839792
	H7	H	0.282187	0.410851	0.168118
	H8	H	0.830759	0.721413	0.407510
	H9	H	0.160694	0.722270	0.599776
	H10	H	0.830894	0.296636	0.601795
	H11	H	0.161302	0.294696	0.404062
	H12	H	0.833004	0.409825	0.719879
	H13	H	0.161294	0.607178	0.715762
	H14	H	0.831993	0.606176	0.290554
	H15	H	0.161286	0.409903	0.288598
	H16	H	0.400975	0.722809	0.840919
	H17	H	0.594055	0.721575	0.168331
	H18	H	0.596603	0.295026	0.840144
	H19	H	0.398585	0.296091	0.168386
	H20	H	0.709764	0.844036	0.405678
	H21	H	0.708396	0.173016	0.599706
	H22	H	0.283236	0.844558	0.601416
	H23	H	0.284035	0.173230	0.406601
	H24	H	0.899280	0.344203	0.217414
	H25	H	0.095528	0.672389	0.217673
	H26	H	0.096076	0.344732	0.789014
	H27	H	0.898567	0.672784	0.791575
	H28	H	0.210250	0.912114	0.339557
	H29	H	0.208937	0.108358	0.667439
	H30	H	0.784202	0.105392	0.338971
	H31	H	0.781639	0.911719	0.667567
	H32	H	0.332640	0.222731	0.907004
	H33	H	0.662246	0.221266	0.099900
	H34	H	0.333062	0.795293	0.103112
	H35	H	0.662518	0.796372	0.906369
	H36	H	0.333260	0.910782	0.218766
	H37	H	0.661661	0.107091	0.217588
	H38	H	0.332518	0.107284	0.791428
	H39	H	0.661255	0.911371	0.788857
	H40	H	0.899072	0.222427	0.339361
	H41	H	0.093598	0.224035	0.667193
	H42	H	0.095206	0.795004	0.339772
	H43	H	0.897815	0.796121	0.668228
	H44	H	0.210169	0.344395	0.905974
	H45	H	0.209295	0.672897	0.100437
	H46	H	0.782973	0.344431	0.102478
	H47	H	0.784855	0.673460	0.907877
	H48	H	0.400856	0.126841	0.596266
	H49	H	0.588283	0.891323	0.595644
	H50	H	0.593785	0.126895	0.409251
	H51	H	0.397955	0.886623	0.399390
	H52	H	0.575910	0.406356	0.119518
	H53	H	0.584327	0.609088	0.886746
	H54	H	0.405810	0.603381	0.120445
	H55	H	0.405926	0.408597	0.885700
	H56	H	0.117079	0.609347	0.403398
	H57	H	0.880538	0.596375	0.597239
	H58	H	0.111666	0.415400	0.591786
	H59	H	0.883181	0.421181	0.418416
	H60	H	0.113584	0.418906	0.597355
	H61	H	0.875940	0.603407	0.606274
	H62	H	0.111435	0.604824	0.419674
	H63	H	0.877607	0.419785	0.401846
	H64	H	0.399438	0.606272	0.122505
	H65	H	0.600612	0.603257	0.883540
	H66	H	0.603888	0.408692	0.126890
	H67	H	0.398139	0.417760	0.886253
	H68	H	0.586654	0.127005	0.407540
	H69	H	0.590505	0.890635	0.596164
	H70	H	0.401563	0.127212	0.600342
	H71	H	0.415907	0.895300	0.410764
	H72	H	0.907438	0.624307	0.095051
	H73	H	0.087443	0.394161	0.087526
	H74	H	0.090911	0.626449	0.908946
	H75	H	0.896998	0.386800	0.902508
	H76	H	0.085391	0.926767	0.616247
	H77	H	0.096820	0.107717	0.383685
	H78	H	0.907956	0.105662	0.619344
	H79	H	0.898492	0.917073	0.386239
	H80	H	0.613868	0.098518	0.906832
	H81	H	0.378684	0.101276	0.103118
	H82	H	0.618057	0.911939	0.105435
	H83	H	0.378747	0.916726	0.908345
	H84	H	0.614523	0.910395	0.090131
	H85	H	0.378626	0.107173	0.097055
	H86	H	0.615395	0.104868	0.908320
	H87	H	0.379568	0.912173	0.912157
	H88	H	0.896834	0.106940	0.622863
	H89	H	0.092505	0.094444	0.388451
	H90	H	0.081795	0.905033	0.621704
	H91	H	0.906758	0.917665	0.388072
	H92	H	0.092095	0.626484	0.910236
	H93	H	0.099852	0.387195	0.099336
	H94	H	0.898221	0.627192	0.096416
	H95	H	0.917045	0.393913	0.907786
	H96	H	0.404974	0.125509	0.597311
	H97	H	0.588457	0.890711	0.598207
	H98	H	0.588856	0.124390	0.414284
	H99	H	0.395403	0.891689	0.421574
	H100	H	0.589665	0.431469	0.116174
	H101	H	0.588207	0.592653	0.890355
	H102	H	0.400740	0.598266	0.121264
	H103	H	0.409692	0.418797	0.890282
	H104	H	0.111803	0.592498	0.406686
	H105	H	0.877800	0.608342	0.595196
	H106	H	0.114877	0.413133	0.597241
	H107	H	0.877307	0.405951	0.412044
	H108	H	0.904286	0.626976	0.103629
	H109	H	0.082025	0.391234	0.104593
	H110	H	0.092665	0.627211	0.908179
	H111	H	0.900499	0.393587	0.922831
	H112	H	0.102190	0.913743	0.625044
	H113	H	0.082986	0.104628	0.387884
	H114	H	0.901244	0.095831	0.618691
	H115	H	0.903720	0.909988	0.385347
	H116	H	0.613893	0.101370	0.912931
	H117	H	0.382117	0.099590	0.095722
	H118	H	0.613211	0.924582	0.097177
	H119	H	0.381526	0.918146	0.913595
	C120	C	0.374368	0.017652	0.626010
	C121	C	0.617261	0.999643	0.624495
	C122	C	0.618209	0.017484	0.382157
	C123	C	0.375218	0.999802	0.382728
	C124	C	0.618919	0.386990	0.012521
	C125	C	0.618859	0.630282	0.995276
	C126	C	0.375024	0.630742	0.012793
	C127	C	0.375488	0.386868	0.995827
	C128	C	0.004571	0.629998	0.382649
	C129	C	0.987527	0.630585	0.625856
	C130	C	0.004962	0.387349	0.625005
	C131	C	0.988308	0.387064	0.381956
	C132	C	0.875090	0.517381	0.126048
	C133	C	0.117939	0.499676	0.125030
	C134	C	0.119630	0.517776	0.881172
	C135	C	0.876119	0.500149	0.883237
	C136	C	0.118068	0.887489	0.512228
	C137	C	0.118061	0.131199	0.495050
	C138	C	0.874089	0.130998	0.511849
	C139	C	0.874397	0.887190	0.495385
	C140	C	0.505573	0.130136	0.882146
	C141	C	0.488844	0.130349	0.125902
	C142	C	0.506199	0.887595	0.125706
	C143	C	0.488530	0.887373	0.882766
	C144	C	0.376891	0.894133	0.680837
	C145	C	0.615302	0.123345	0.679604
	C146	C	0.615588	0.893575	0.327439
	C147	C	0.378225	0.123671	0.328210
	C148	C	0.674280	0.389979	0.889337
	C149	C	0.672506	0.627538	0.118682
	C150	C	0.322267	0.627274	0.889212
	C151	C	0.320063	0.390263	0.119095
	C152	C	0.880398	0.684338	0.386385
	C153	C	0.111725	0.685009	0.621082
	C154	C	0.880706	0.333461	0.622463
	C155	C	0.112248	0.332411	0.384081
	C156	C	0.881703	0.389732	0.681191
	C157	C	0.111886	0.627950	0.678971
	C158	C	0.880671	0.626963	0.328561
	C159	C	0.112276	0.389842	0.326806
	C160	C	0.379484	0.685203	0.889654
	C161	C	0.615179	0.684869	0.118798
	C162	C	0.616908	0.332253	0.889278
	C163	C	0.377672	0.332893	0.119369
	C164	C	0.672705	0.893344	0.384898
	C165	C	0.671639	0.123644	0.621240
	C166	C	0.320512	0.893751	0.622560
	C167	C	0.321308	0.123991	0.385953
	C168	C	0.877846	0.393442	0.180419
	C169	C	0.115318	0.623632	0.179507
	C170	C	0.116534	0.393794	0.826498
	C171	C	0.878456	0.623800	0.829125
	C172	C	0.172893	0.890833	0.388573
	C173	C	0.171848	0.128872	0.618315
	C174	C	0.820844	0.127057	0.388201
	C175	C	0.819660	0.890705	0.618890
	C176	C	0.381804	0.185192	0.886231
	C177	C	0.612853	0.184518	0.121831
	C178	C	0.382228	0.832850	0.123368
	C179	C	0.612882	0.833257	0.885380
	C180	C	0.382076	0.890314	0.180638
	C181	C	0.612612	0.127700	0.180035
	C182	C	0.381643	0.128047	0.828392
	C183	C	0.612578	0.890505	0.827400
	C184	C	0.877950	0.185061	0.388395
	C185	C	0.114247	0.185871	0.618360
	C186	C	0.115523	0.832880	0.388762
	C187	C	0.877234	0.833211	0.618967
	C188	C	0.173106	0.393449	0.884812
	C189	C	0.171764	0.623873	0.121136
	C190	C	0.820433	0.393553	0.122993
	C191	C	0.821714	0.624056	0.886775
	C192	C	0.396113	0.104047	0.604454
	C193	C	0.595492	0.913318	0.603021
	C194	C	0.596237	0.103724	0.403856
	C195	C	0.396673	0.913485	0.404307
	C196	C	0.596459	0.409012	0.098673
	C197	C	0.597490	0.608007	0.909068
	C198	C	0.395719	0.609131	0.099113
	C199	C	0.398063	0.408571	0.909736
	C200	C	0.090996	0.608518	0.403531
	C201	C	0.900604	0.609164	0.605605
	C202	C	0.091155	0.409307	0.602233
	C203	C	0.901798	0.409146	0.404311
	C204	C	0.896786	0.603838	0.104675
	C205	C	0.096066	0.413309	0.103485
	C206	C	0.098295	0.604352	0.902764
	C207	C	0.898396	0.413694	0.904750
	C208	C	0.096302	0.908800	0.598751
	C209	C	0.096925	0.108924	0.408939
	C210	C	0.895547	0.109171	0.598156
	C211	C	0.896395	0.908505	0.408959
	C212	C	0.592080	0.108056	0.903222
	C213	C	0.402199	0.109019	0.104859
	C214	C	0.592821	0.909357	0.104064
	C215	C	0.402206	0.909258	0.904681
	Zn216	Zn	0.496392	0.008914	0.753787
	Zn217	Zn	0.497104	0.008824	0.254408
	Zn218	Zn	0.747172	0.509154	0.004378
	Zn219	Zn	0.246468	0.508601	0.003764
	Zn220	Zn	-0.003914	0.758918	0.503933
	Zn221	Zn	-0.003727	0.259111	0.503123
	Zn222	Zn	-0.003045	0.508909	0.754237
	Zn223	Zn	-0.003161	0.508629	0.254163
	Zn224	Zn	0.497598	0.758942	0.004494
	Zn225	Zn	0.497238	0.258672	0.004131
	Zn226	Zn	0.745956	0.008584	0.503295
	Zn227	Zn	0.246591	0.008884	0.503853
	N228	N	0.409785	0.972197	0.683110
	N229	N	0.582120	0.045313	0.681767
	N230	N	0.582715	0.971609	0.325405
	N231	N	0.411004	0.045487	0.325933
	N232	N	0.675699	0.423311	0.967111
	N233	N	0.674879	0.594368	0.040883
	N234	N	0.319443	0.593993	0.966897
	N235	N	0.318471	0.423139	0.041215
	N236	N	0.958233	0.686019	0.419744
	N237	N	0.033426	0.686979	0.589094
	N238	N	0.958400	0.331684	0.588239
	N239	N	0.034185	0.330592	0.417687
	N240	N	0.959773	0.422639	0.682887
	N241	N	0.033783	0.594651	0.682040
	N242	N	0.958856	0.594083	0.325904
	N243	N	0.034099	0.423032	0.325306
	N244	N	0.411406	0.687593	0.967606
	N245	N	0.582117	0.686258	0.041181
	N246	N	0.583187	0.330460	0.966939
	N247	N	0.411546	0.330734	0.041662
	N248	N	0.674177	0.971311	0.418445
	N249	N	0.672945	0.045874	0.587614
	N250	N	0.318387	0.971650	0.589385
	N251	N	0.319232	0.046164	0.419150
	N252	N	0.911304	0.471293	0.182331
	N253	N	0.082611	0.545409	0.182169
	N254	N	0.083977	0.472219	0.824073
	N255	N	0.911697	0.545811	0.826788
	N256	N	0.174345	0.924148	0.466377
	N257	N	0.174159	0.095061	0.540679
	N258	N	0.818271	0.094302	0.466158
	N259	N	0.817781	0.923534	0.541114
	N260	N	0.459919	0.186740	0.918925
	N261	N	0.534975	0.186331	0.089041
	N262	N	0.460228	0.831318	0.089755
	N263	N	0.534906	0.831207	0.919070
	N264	N	0.460083	0.923742	0.182368
	N265	N	0.534356	0.094828	0.182794
	N266	N	0.459467	0.094688	0.825759
	N267	N	0.534369	0.923583	0.825536
	N268	N	0.910558	0.187421	0.466329
	N269	N	0.081551	0.187456	0.540682
	N270	N	0.082226	0.830714	0.466610
	N271	N	0.910743	0.831267	0.541170
	N272	N	0.175494	0.471425	0.917532
	N273	N	0.173654	0.545869	0.088221
	N274	N	0.818407	0.471570	0.089985
	N275	N	0.820050	0.546035	0.919653
	O276	O	0.360183	-0.363750	0.583548
	H277	H	0.364153	-0.358898	0.576539
	H278	H	0.361180	-0.366869	0.583731
	O279	O	0.500787	0.475913	0.495712
	H280	H	0.496691	0.481060	0.510397
	H281	H	0.497404	0.472879	0.493839
	O282	O	0.500305	0.458371	0.516708
	H283	H	0.494354	0.460266	0.520845
	H284	H	0.501213	0.469271	0.519679
	O285	O	0.417238	0.485755	0.559824
	H286	H	0.412954	0.474159	0.569170
	H287	H	0.412402	0.481955	0.554639
	O288	O	0.462916	0.496744	0.539883
	H289	H	0.465000	0.498026	0.544063
	H290	H	0.464016	0.498238	0.533581
	O291	O	0.399828	0.483523	0.527082
	H292	H	0.401236	0.482434	0.526625
	H293	H	0.396595	0.480868	0.530666
	O294	O	0.463450	0.443030	0.525988
	H295	H	0.464817	0.440353	0.525885
	H296	H	0.470066	0.442069	0.514264
	O297	O	1.053968	-0.008899	-0.049187
	H298	H	1.056053	-0.013380	-0.048071
	H299	H	1.055261	-0.010124	-0.048060
