data_Molecule from HDF5

_cell_length_a		16.559279
_cell_length_b		16.603937
_cell_length_c		16.708395
_cell_angle_alpha	90.037625
_cell_angle_beta	89.997236
_cell_angle_gamma	89.899970
_symmetry_space_group_name_H-M	'P 1'
_symmetry_Int_Tables_number		1

loop_
	_symmetry_equiv_pos_as_xyz
	x,y,z

loop_
	_atom_site_label
	_atom_site_type_symbol
	_atom_site_fract_x
	_atom_site_fract_y
	_atom_site_fract_z
	H0	H	0.395542	0.837477	0.721008
	H1	H	0.606575	0.148518	0.718313
	H2	H	0.607828	0.836008	0.277410
	H3	H	0.396811	0.146278	0.276064
	H4	H	0.726122	0.385902	0.844177
	H5	H	0.730330	0.603993	0.148843
	H6	H	0.282679	0.595039	0.842015
	H7	H	0.280096	0.385142	0.151367
	H8	H	0.850478	0.717388	0.388742
	H9	H	0.161556	0.711059	0.601194
	H10	H	0.847386	0.271991	0.604334
	H11	H	0.158582	0.270491	0.394425
	H12	H	0.848526	0.386147	0.721368
	H13	H	0.162348	0.593296	0.715082
	H14	H	0.853119	0.604964	0.269739
	H15	H	0.158475	0.383608	0.276413
	H16	H	0.398468	0.711300	0.841458
	H17	H	0.612255	0.717822	0.149632
	H18	H	0.610930	0.268178	0.845352
	H19	H	0.394732	0.267080	0.150483
	H20	H	0.721671	0.834941	0.395584
	H21	H	0.722387	0.147963	0.602755
	H22	H	0.280528	0.837272	0.604576
	H23	H	0.284437	0.148568	0.396079
	H24	H	0.893273	0.339668	0.223522
	H25	H	0.114613	0.643590	0.224325
	H26	H	0.106140	0.333005	0.781298
	H27	H	0.901545	0.648075	0.778638
	H28	H	0.224105	0.885979	0.343439
	H29	H	0.224360	0.097193	0.653281
	H30	H	0.782154	0.094717	0.343336
	H31	H	0.782135	0.887068	0.653782
	H32	H	0.345724	0.211232	0.896811
	H33	H	0.658259	0.213932	0.104230
	H34	H	0.344798	0.775041	0.098801
	H35	H	0.655963	0.768134	0.888991
	H36	H	0.347721	0.886161	0.218578
	H37	H	0.658105	0.098579	0.220681
	H38	H	0.345246	0.095660	0.779849
	H39	H	0.657478	0.885095	0.775038
	H40	H	0.897041	0.213252	0.344967
	H41	H	0.105914	0.211254	0.653845
	H42	H	0.110580	0.767380	0.345144
	H43	H	0.898182	0.770421	0.653548
	H44	H	0.219405	0.332275	0.900418
	H45	H	0.225378	0.646324	0.103566
	H46	H	0.779143	0.338740	0.105389
	H47	H	0.783379	0.648053	0.892404
	H48	H	0.414321	0.104849	0.589836
	H49	H	0.596131	0.879344	0.586015
	H50	H	0.593596	0.104888	0.407412
	H51	H	0.416525	0.881754	0.410600
	H52	H	0.594760	0.407654	0.109036
	H53	H	0.595665	0.580566	0.885165
	H54	H	0.410007	0.586657	0.111662
	H55	H	0.411905	0.407533	0.887674
	H56	H	0.114240	0.573587	0.408587
	H57	H	0.892626	0.583966	0.583254
	H58	H	0.118515	0.398484	0.592145
	H59	H	0.890900	0.403870	0.410711
	H60	H	0.115982	0.398287	0.585086
	H61	H	0.894418	0.575037	0.589789
	H62	H	0.115752	0.581316	0.413644
	H63	H	0.892519	0.405663	0.412047
	H64	H	0.412391	0.577185	0.107996
	H65	H	0.589312	0.576089	0.888818
	H66	H	0.585681	0.408403	0.105264
	H67	H	0.420044	0.401289	0.888332
	H68	H	0.588768	0.104343	0.406272
	H69	H	0.588072	0.879524	0.592337
	H70	H	0.413967	0.103636	0.587089
	H71	H	0.410482	0.878435	0.408776
	H72	H	0.921270	0.600778	0.081145
	H73	H	0.092257	0.381053	0.085494
	H74	H	0.096867	0.605804	0.902200
	H75	H	0.917753	0.379728	0.905527
	H76	H	0.092471	0.902792	0.609422
	H77	H	0.097670	0.085615	0.383936
	H78	H	0.916637	0.078793	0.607741
	H79	H	0.912362	0.903534	0.387350
	H80	H	0.613790	0.075964	0.907874
	H81	H	0.394461	0.072519	0.084983
	H82	H	0.617355	0.900154	0.089197
	H83	H	0.389682	0.905316	0.906784
	H84	H	0.613492	0.903127	0.079929
	H85	H	0.388420	0.080785	0.093015
	H86	H	0.616868	0.082449	0.904774
	H87	H	0.388732	0.902262	0.906848
	H88	H	0.913333	0.087597	0.612295
	H89	H	0.094069	0.076161	0.388329
	H90	H	0.092338	0.904685	0.607958
	H91	H	0.915171	0.905222	0.389757
	H92	H	0.092682	0.604303	0.904614
	H93	H	0.092171	0.378734	0.088234
	H94	H	0.919110	0.602123	0.082838
	H95	H	0.915894	0.380633	0.911294
	H96	H	0.411409	0.104637	0.588304
	H97	H	0.587136	0.883450	0.583487
	H98	H	0.590825	0.102722	0.410276
	H99	H	0.416115	0.878553	0.404356
	H100	H	0.589118	0.399980	0.108741
	H101	H	0.588360	0.584265	0.886073
	H102	H	0.419168	0.585075	0.107432
	H103	H	0.411470	0.398137	0.883728
	H104	H	0.110161	0.574139	0.416901
	H105	H	0.889668	0.584229	0.593695
	H106	H	0.115459	0.404828	0.589064
	H107	H	0.891858	0.405886	0.409083
	H108	H	0.921283	0.600933	0.084056
	H109	H	0.089309	0.380263	0.086947
	H110	H	0.097006	0.604698	0.906936
	H111	H	0.911770	0.378453	0.907472
	H112	H	0.090313	0.903422	0.608921
	H113	H	0.087196	0.084638	0.387364
	H114	H	0.906285	0.079523	0.611502
	H115	H	0.915892	0.901572	0.387583
	H116	H	0.614821	0.082474	0.912108
	H117	H	0.391387	0.084591	0.081104
	H118	H	0.613777	0.910209	0.088193
	H119	H	0.390382	0.903452	0.909481
	C120	C	0.381035	0.001306	0.620306
	C121	C	0.622915	0.983643	0.619494
	C122	C	0.623750	0.000528	0.376489
	C123	C	0.382290	0.982921	0.376640
	C124	C	0.623791	0.371591	0.006375
	C125	C	0.624983	0.614499	0.988067
	C126	C	0.381471	0.613747	0.006047
	C127	C	0.381981	0.370345	0.989004
	C128	C	0.012365	0.612437	0.377638
	C129	C	0.996192	0.612301	0.619170
	C130	C	0.012552	0.369864	0.620288
	C131	C	0.994239	0.371207	0.377747
	C132	C	0.884222	0.500383	0.117628
	C133	C	0.125497	0.481938	0.119968
	C134	C	0.125638	0.499809	0.876180
	C135	C	0.883016	0.482847	0.876129
	C136	C	0.124440	0.870755	0.506690
	C137	C	0.124172	0.113183	0.489656
	C138	C	0.880231	0.113597	0.507821
	C139	C	0.881805	0.870326	0.490171
	C140	C	0.511078	0.112661	0.877242
	C141	C	0.494267	0.112495	0.119420
	C142	C	0.511434	0.871797	0.117508
	C143	C	0.492830	0.870878	0.875338
	C144	C	0.378002	0.884057	0.680468
	C145	C	0.625197	0.101428	0.678801
	C146	C	0.625996	0.882808	0.317319
	C147	C	0.379337	0.100081	0.317007
	C148	C	0.685325	0.367919	0.890485
	C149	C	0.688278	0.620021	0.103063
	C150	C	0.322354	0.614121	0.888766
	C151	C	0.320755	0.367036	0.105315
	C152	C	0.897244	0.676435	0.371572
	C153	C	0.114447	0.671253	0.619866
	C154	C	0.894237	0.311369	0.622708
	C155	C	0.111431	0.310334	0.375858
	C156	C	0.895266	0.367989	0.680937
	C157	C	0.114823	0.612768	0.676522
	C158	C	0.898124	0.620250	0.312666
	C159	C	0.111526	0.366906	0.317325
	C160	C	0.379823	0.671978	0.888356
	C161	C	0.629661	0.677083	0.103191
	C162	C	0.627945	0.309597	0.891052
	C163	C	0.377620	0.308553	0.104950
	C164	C	0.682478	0.882272	0.376171
	C165	C	0.682532	0.101237	0.621179
	C166	C	0.320921	0.884036	0.622537
	C167	C	0.323678	0.101294	0.376545
	C168	C	0.877216	0.385356	0.181363
	C169	C	0.130930	0.597852	0.182413
	C170	C	0.125164	0.380353	0.820319
	C171	C	0.882025	0.600790	0.817466
	C172	C	0.184530	0.867591	0.390286
	C173	C	0.183786	0.115083	0.606640
	C174	C	0.821387	0.114402	0.390437
	C175	C	0.821825	0.868441	0.606830
	C176	C	0.392788	0.171590	0.877330
	C177	C	0.611528	0.173758	0.122481
	C178	C	0.392810	0.813465	0.118348
	C179	C	0.609737	0.809263	0.871765
	C180	C	0.393936	0.869037	0.177628
	C181	C	0.611407	0.116411	0.180231
	C182	C	0.392605	0.114525	0.819131
	C183	C	0.610287	0.867202	0.814972
	C184	C	0.878577	0.172886	0.391000
	C185	C	0.125197	0.172145	0.606919
	C186	C	0.127935	0.808873	0.390890
	C187	C	0.879795	0.810538	0.606797
	C188	C	0.181455	0.379987	0.879373
	C189	C	0.186026	0.599093	0.122541
	C190	C	0.820073	0.385121	0.123188
	C191	C	0.823455	0.600897	0.874242
	C192	C	0.406356	0.082947	0.595602
	C193	C	0.597529	0.901935	0.594649
	C194	C	0.598378	0.082604	0.401071
	C195	C	0.407308	0.901007	0.400954
	C196	C	0.597416	0.398025	0.086781
	C197	C	0.598650	0.587810	0.907589
	C198	C	0.406633	0.589710	0.087739
	C199	C	0.407176	0.395359	0.907763
	C200	C	0.092502	0.584371	0.405211
	C201	C	0.913804	0.587995	0.595555
	C202	C	0.095044	0.393684	0.595637
	C203	C	0.912930	0.397679	0.403153
	C204	C	0.912361	0.580265	0.090244
	C205	C	0.098942	0.401142	0.094276
	C206	C	0.102334	0.583238	0.898202
	C207	C	0.907766	0.400893	0.901073
	C208	C	0.099146	0.896215	0.587602
	C209	C	0.099820	0.088882	0.407730
	C210	C	0.905012	0.089089	0.589158
	C211	C	0.907298	0.895924	0.409280
	C212	C	0.593637	0.087576	0.901263
	C213	C	0.412669	0.086593	0.093747
	C214	C	0.593459	0.897217	0.092860
	C215	C	0.410947	0.896474	0.900560
	Zn216	Zn	0.502425	-0.007509	0.748142
	Zn217	Zn	0.502796	-0.008491	0.247184
	Zn218	Zn	0.754074	0.492443	-0.002528
	Zn219	Zn	0.253523	0.491194	-0.001984
	Zn220	Zn	0.004087	0.741285	0.498661
	Zn221	Zn	0.002066	0.242128	0.498930
	Zn222	Zn	0.005063	0.490942	0.747731
	Zn223	Zn	0.003918	0.491620	0.248453
	Zn224	Zn	0.502070	0.742742	-0.003109
	Zn225	Zn	0.503094	0.241226	-0.001283
	Zn226	Zn	0.751617	-0.008466	0.498573
	Zn227	Zn	0.253727	-0.008085	0.497826
	N228	N	0.414636	0.958104	0.679302
	N229	N	0.588828	0.027142	0.678029
	N230	N	0.590075	0.957442	0.317280
	N231	N	0.414988	0.025440	0.316865
	N232	N	0.682977	0.405913	0.963341
	N233	N	0.685446	0.581597	0.030476
	N234	N	0.322878	0.578757	0.963135
	N235	N	0.323741	0.404999	0.032398
	N236	N	0.969394	0.671586	0.411537
	N237	N	0.039560	0.671346	0.585050
	N238	N	0.968157	0.312427	0.585453
	N239	N	0.037427	0.312723	0.412842
	N240	N	0.969929	0.403646	0.679403
	N241	N	0.040137	0.576966	0.676585
	N242	N	0.970847	0.580866	0.316355
	N243	N	0.037533	0.404022	0.318123
	N244	N	0.415713	0.671955	0.962426
	N245	N	0.590785	0.673751	0.030696
	N246	N	0.590478	0.311637	0.964267
	N247	N	0.415346	0.310607	0.031874
	N248	N	0.681293	0.956611	0.412198
	N249	N	0.681387	0.026970	0.585012
	N250	N	0.322523	0.957982	0.585706
	N251	N	0.325099	0.027227	0.412819
	N252	N	0.916364	0.458155	0.178410
	N253	N	0.094104	0.523963	0.181231
	N254	N	0.091676	0.456160	0.817799
	N255	N	0.918374	0.526307	0.818258
	N256	N	0.182935	0.905278	0.463347
	N257	N	0.183438	0.079299	0.532526
	N258	N	0.822051	0.078513	0.464099
	N259	N	0.822719	0.904849	0.533148
	N260	N	0.467774	0.170903	0.912390
	N261	N	0.537557	0.171695	0.085549
	N262	N	0.467064	0.814645	0.081827
	N263	N	0.535638	0.811337	0.908793
	N264	N	0.468863	0.904352	0.177475
	N265	N	0.537459	0.079077	0.178500
	N266	N	0.467443	0.078900	0.818719
	N267	N	0.536401	0.904652	0.816725
	N268	N	0.914228	0.172885	0.465098
	N269	N	0.088867	0.171346	0.532983
	N270	N	0.091504	0.810510	0.464369
	N271	N	0.916221	0.811186	0.533000
	N272	N	0.182409	0.455550	0.912796
	N273	N	0.183046	0.525997	0.084409
	N274	N	0.824161	0.457746	0.084351
	N275	N	0.823512	0.526376	0.909671
	O276	O	-0.214619	1.028008	-0.218844
	H277	H	-0.214117	1.022471	-0.232707
	H278	H	-0.230717	1.013386	-0.208544
	O279	O	0.650490	0.493563	0.626390
	H280	H	0.658841	0.489703	0.633870
	H281	H	0.647974	0.478740	0.642549
	O282	O	0.993039	0.082204	1.021888
	H283	H	0.974406	0.085152	1.013749
	H284	H	0.983561	0.075971	1.023318
	O285	O	0.402404	0.724819	0.534929
	H286	H	0.410957	0.722970	0.504193
	H287	H	0.388364	0.735431	0.510692
	O288	O	0.708071	0.696180	0.710388
	H289	H	0.699850	0.683031	0.687221
	H290	H	0.680868	0.684550	0.702893
	O291	O	0.405812	0.345660	0.519207
	H292	H	0.391020	0.327392	0.537228
	H293	H	0.391053	0.340644	0.516392
	O294	O	0.771731	-0.063586	0.927278
	H295	H	0.780275	-0.057253	0.940760
	H296	H	0.773675	-0.073639	0.942533
	O297	O	0.437932	0.444476	0.268102
	H298	H	0.432352	0.441093	0.271922
	H299	H	0.409188	0.450268	0.272483
	O300	O	-0.047434	-0.007420	0.976149
	H301	H	-0.060112	-0.003295	0.970608
	H302	H	-0.044927	-0.004707	0.984320
	O303	O	0.282738	0.274199	0.535395
	H304	H	0.289009	0.277030	0.556507
	H305	H	0.259671	0.247101	0.542758
	O306	O	0.727546	0.479780	0.274264
	H307	H	0.715920	0.487643	0.262173
	H308	H	0.733322	0.471399	0.250243
	O309	O	0.555050	0.713853	0.484019
	H310	H	0.572237	0.711326	0.485835
	H311	H	0.562206	0.713892	0.464211
	O312	O	0.408399	0.518826	0.598725
	H313	H	0.390886	0.502681	0.612147
	H314	H	0.397640	0.517228	0.590135
	O315	O	1.029253	1.213367	1.224020
	H316	H	1.036751	1.220781	1.232944
	H317	H	1.031158	1.227653	1.225746
	O318	O	0.696092	0.680252	0.309797
	H319	H	0.679261	0.664148	0.311277
	H320	H	0.696027	0.673992	0.298935
	O321	O	0.201126	1.188190	1.045911
	H322	H	0.192533	1.189573	1.028456
	H323	H	0.196946	1.180017	1.024880
	O324	O	0.944594	0.896451	-0.180665
	H325	H	0.954213	0.878048	-0.191599
	H326	H	0.917206	0.891768	-0.186088
	O327	O	0.075856	-0.045443	1.218641
	H328	H	0.083470	-0.030656	1.231922
	H329	H	0.081518	-0.053740	1.217855
	O330	O	0.616622	0.305756	0.547428
	H331	H	0.608883	0.300679	0.553319
	H332	H	0.616389	0.330348	0.535315
	O333	O	0.460120	0.273334	0.721780
	H334	H	0.476888	0.278876	0.727732
	H335	H	0.455625	0.259756	0.732853
	O336	O	0.713382	0.629629	0.618868
	H337	H	0.731956	0.642629	0.631103
	H338	H	0.697798	0.644180	0.628653
	O339	O	1.021353	0.119906	0.955298
	H340	H	1.004241	0.126433	0.958031
	H341	H	1.003813	0.106590	0.959178
	O342	O	-0.055299	-0.133437	-0.148600
	H343	H	-0.075575	-0.132437	-0.146083
	H344	H	-0.049510	-0.158589	-0.168224
	O345	O	-0.034415	0.845267	1.148806
	H346	H	-0.051102	0.824976	1.161865
	H347	H	-0.057907	0.852310	1.149735
	O348	O	0.249921	0.232221	0.239490
	H349	H	0.235138	0.224249	0.239027
	H350	H	0.269004	0.231575	0.199450
	O351	O	1.075538	1.049607	-0.227908
	H352	H	1.066055	1.041690	-0.233237
	H353	H	1.059585	1.049091	-0.216801
	O354	O	-0.062818	0.046784	1.227739
	H355	H	-0.048389	0.059548	1.225408
	H356	H	-0.061066	0.057389	1.226125
	O357	O	0.635598	0.543004	0.336596
	H358	H	0.616268	0.547261	0.328787
	H359	H	0.623536	0.534780	0.334265
	O360	O	0.565800	0.397623	0.714455
	H361	H	0.558676	0.422266	0.714457
	H362	H	0.550587	0.402509	0.698862
	O363	O	-0.025968	0.203819	-0.217009
	H364	H	-0.046655	0.214133	-0.225407
	H365	H	-0.039432	0.204527	-0.223519
	O366	O	0.299475	0.700204	0.287152
	H367	H	0.302175	0.679321	0.300194
	H368	H	0.264839	0.731355	0.255547
	O369	O	0.780228	0.061401	0.057341
	H370	H	0.786893	0.057358	0.053340
	H371	H	0.777712	0.091705	0.055151
	O372	O	0.822736	1.172038	0.183438
	H373	H	0.833071	1.174183	0.185353
	H374	H	0.801132	1.191254	0.198095
	O375	O	0.794794	-0.136871	0.208337
	H376	H	0.805580	-0.096970	0.213453
	H377	H	0.766851	-0.144926	0.231866
	O378	O	0.616231	0.428838	0.426214
	H379	H	0.614358	0.434241	0.432540
	H380	H	0.613360	0.440360	0.420703
	O381	O	0.217800	0.954389	0.777581
	H382	H	0.215045	0.957639	0.772510
	H383	H	0.231990	0.952862	0.758030
	O384	O	1.176039	-0.058198	1.015995
	H385	H	1.164576	-0.055665	1.011081
	H386	H	1.185578	-0.056199	0.998500
	O387	O	1.202689	0.788090	-0.207665
	H388	H	1.218012	0.806419	-0.218329
	H389	H	1.209739	0.783878	-0.159821
	O390	O	0.325009	0.671591	0.654725
	H391	H	0.324277	0.660092	0.627458
	H392	H	0.328861	0.693180	0.654065
	O393	O	0.353081	0.289234	0.356357
	H394	H	0.341947	0.279630	0.345671
	H395	H	0.376567	0.300606	0.349179
	O396	O	0.191328	0.179838	0.806976
	H397	H	0.177259	0.169326	0.830505
	H398	H	0.161832	0.164619	0.818165
	O399	O	0.122398	-0.015877	1.085984
	H400	H	0.098745	-0.021621	1.064870
	H401	H	0.114759	-0.020292	1.097861
	O402	O	0.717391	0.277516	0.280976
	H403	H	0.694330	0.298644	0.286937
	H404	H	0.714926	0.293455	0.317382
	O405	O	0.796642	0.196491	0.795085
	H406	H	0.802717	0.156169	0.786786
	H407	H	0.764461	0.227070	0.760537
	O408	O	-0.194279	0.034967	0.109405
	H409	H	-0.201262	0.048630	0.101013
	H410	H	-0.207143	0.055415	0.103968
	O411	O	0.993401	0.904782	0.996938
	H412	H	0.997611	0.909102	0.982292
	H413	H	0.991219	0.909257	1.007089
	O414	O	0.503391	0.699451	0.706250
	H415	H	0.490001	0.710630	0.706047
	H416	H	0.493145	0.712972	0.705171
	O417	O	0.731756	0.615165	0.480472
	H418	H	0.732130	0.607794	0.463843
	H419	H	0.747115	0.636006	0.471923
	O420	O	0.451896	0.489085	0.477744
	H421	H	0.446277	0.475531	0.475146
	H422	H	0.442880	0.482293	0.482940
	O423	O	0.034084	-0.229526	0.772238
	H424	H	0.043295	-0.250108	0.744854
	H425	H	0.073102	-0.227285	0.773126
	O426	O	0.724858	0.270159	0.464776
	H427	H	0.740971	0.263895	0.467577
	H428	H	0.728265	0.270247	0.480223
	O429	O	1.221730	0.771049	0.957870
	H430	H	1.218305	0.764984	0.976070
	H431	H	1.223127	0.750722	0.973557
	O432	O	0.728462	0.489800	0.564153
	H433	H	0.730865	0.506071	0.562746
	H434	H	0.723032	0.505754	0.574164
	O435	O	0.219976	1.080342	-0.054656
	H436	H	0.220799	1.054435	-0.057495
	H437	H	0.208398	1.079995	-0.056039
	O438	O	0.212070	0.008912	0.204715
	H439	H	0.226792	0.014958	0.221268
	H440	H	0.212091	0.026741	0.206462
	O441	O	-0.220695	-0.223106	0.018473
	H442	H	-0.224922	-0.230513	0.019973
	H443	H	-0.228281	-0.233344	0.039682
	O444	O	0.490982	0.300700	0.400800
	H445	H	0.477888	0.312722	0.412357
	H446	H	0.509991	0.294666	0.407243
	O447	O	-0.477672	1.271585	1.274662
	H448	H	-0.471397	1.258609	1.263547
	H449	H	-0.467232	1.277394	1.270899
	O450	O	-0.188440	0.800723	0.808843
	H451	H	-0.217414	0.779497	0.786273
	H452	H	-0.196146	0.809951	0.826265
	O453	O	0.277978	0.453192	0.728010
	H454	H	0.238244	0.452522	0.762926
	H455	H	0.280444	0.418127	0.707641
	O456	O	0.294448	0.284054	0.705687
	H457	H	0.324688	0.276916	0.705778
	H458	H	0.270924	0.266928	0.731866
	O459	O	0.840731	0.841617	0.136494
	H460	H	0.836394	0.861498	0.137349
	H461	H	0.850886	0.842448	0.115620
	O462	O	0.285131	0.495950	0.435312
	H463	H	0.279981	0.466457	0.441186
	H464	H	0.304543	0.490604	0.427229
	O465	O	0.471968	-0.287899	0.271685
	H466	H	0.452872	-0.273985	0.267118
	H467	H	0.456468	-0.276393	0.262455
	O468	O	0.290140	0.646835	0.505584
	H469	H	0.274686	0.639651	0.491059
	H470	H	0.284559	0.660624	0.494324
	O471	O	0.285570	0.520720	0.272259
	H472	H	0.277198	0.527733	0.292597
	H473	H	0.254856	0.529392	0.248829
	O474	O	0.051572	0.766568	0.104844
	H475	H	0.033645	0.757802	0.115551
	H476	H	0.023317	0.770249	0.093651
	O477	O	0.408363	0.514806	1.494808
	H478	H	0.408210	0.526775	1.493697
	H479	H	0.415798	0.510266	1.500558
	O480	O	0.562333	0.572387	0.567838
	H481	H	0.543215	0.578775	0.582973
	H482	H	0.567531	0.567177	0.579558
	O483	O	0.503649	0.626394	0.337187
	H484	H	0.488357	0.625336	0.336337
	H485	H	0.479755	0.627291	0.328788
	O486	O	0.699053	0.297263	0.694271
	H487	H	0.692643	0.317221	0.665114
	H488	H	0.670723	0.316621	0.683600
	O489	O	1.194038	0.796676	0.190883
	H490	H	1.175929	0.814532	0.172602
	H491	H	1.170780	0.814642	0.174483
	O492	O	0.012723	0.177478	0.071825
	H493	H	0.003426	0.172998	0.067968
	H494	H	0.007124	0.177173	0.074458
	O495	O	-0.167238	1.213300	0.992322
	H496	H	-0.192749	1.228646	0.987786
	H497	H	-0.171511	1.213877	0.971597
	O498	O	1.165085	0.961106	1.039077
	H499	H	1.165983	0.948882	1.048729
	H500	H	1.143515	0.969451	1.025311
	O501	O	0.454408	0.541451	0.719488
	H502	H	0.434260	0.546867	0.721836
	H503	H	0.426734	0.549940	0.718625
