data_Molecule from HDF5

_cell_length_a		16.299423
_cell_length_b		16.174358
_cell_length_c		16.263781
_cell_angle_alpha	89.878681
_cell_angle_beta	90.031221
_cell_angle_gamma	89.942952
_symmetry_space_group_name_H-M	'P 1'
_symmetry_Int_Tables_number		1

loop_
	_symmetry_equiv_pos_as_xyz
	x,y,z

loop_
	_atom_site_label
	_atom_site_type_symbol
	_atom_site_fract_x
	_atom_site_fract_y
	_atom_site_fract_z
	H0	H	0.402192	0.835177	0.713578
	H1	H	0.597092	0.165095	0.713356
	H2	H	0.597408	0.834025	0.287975
	H3	H	0.401437	0.164440	0.285505
	H4	H	0.715610	0.399948	0.836091
	H5	H	0.715392	0.598748	0.163121
	H6	H	0.285818	0.598767	0.835754
	H7	H	0.285276	0.400856	0.163256
	H8	H	0.836262	0.714704	0.401831
	H9	H	0.163510	0.714753	0.598361
	H10	H	0.835381	0.287172	0.597020
	H11	H	0.164368	0.286858	0.404080
	H12	H	0.836320	0.401772	0.715091
	H13	H	0.163827	0.598415	0.714459
	H14	H	0.836912	0.600381	0.283345
	H15	H	0.163746	0.401763	0.286053
	H16	H	0.402328	0.713851	0.836053
	H17	H	0.595553	0.711016	0.164943
	H18	H	0.597481	0.286378	0.835613
	H19	H	0.404050	0.287103	0.164481
	H20	H	0.715703	0.835929	0.401456
	H21	H	0.713377	0.165190	0.597795
	H22	H	0.286317	0.835437	0.598708
	H23	H	0.285682	0.164775	0.400735
	H24	H	0.901768	0.335386	0.213998
	H25	H	0.097097	0.665648	0.212273
	H26	H	0.097249	0.335805	0.786929
	H27	H	0.901199	0.665172	0.785974
	H28	H	0.214981	0.902325	0.335836
	H29	H	0.215658	0.099049	0.663850
	H30	H	0.784536	0.100117	0.336596
	H31	H	0.785288	0.900451	0.663782
	H32	H	0.336501	0.213391	0.902781
	H33	H	0.664202	0.213121	0.097724
	H34	H	0.335654	0.786214	0.096744
	H35	H	0.664214	0.786271	0.904413
	H36	H	0.336014	0.900829	0.214262
	H37	H	0.663771	0.096806	0.213684
	H38	H	0.336143	0.098833	0.785866
	H39	H	0.663310	0.900814	0.786261
	H40	H	0.902909	0.213528	0.335281
	H41	H	0.095572	0.211576	0.665475
	H42	H	0.097914	0.786905	0.335614
	H43	H	0.903119	0.786389	0.663863
	H44	H	0.212764	0.335029	0.901802
	H45	H	0.214947	0.664557	0.098544
	H46	H	0.786481	0.335264	0.098731
	H47	H	0.784019	0.664118	0.899365
	H48	H	0.408246	0.117994	0.595317
	H49	H	0.592806	0.882154	0.593114
	H50	H	0.591962	0.116408	0.409129
	H51	H	0.403264	0.879176	0.400353
	H52	H	0.587349	0.402592	0.115294
	H53	H	0.595193	0.583975	0.885033
	H54	H	0.402504	0.593799	0.118196
	H55	H	0.399549	0.405758	0.880562
	H56	H	0.113321	0.586071	0.410529
	H57	H	0.882519	0.591229	0.597722
	H58	H	0.118121	0.395136	0.587319
	H59	H	0.885710	0.413200	0.409343
	H60	H	0.111878	0.416922	0.590211
	H61	H	0.882492	0.597777	0.593297
	H62	H	0.118415	0.592120	0.398132
	H63	H	0.881352	0.407004	0.399880
	H64	H	0.405664	0.588590	0.115579
	H65	H	0.585475	0.596038	0.884563
	H66	H	0.599797	0.403333	0.119174
	H67	H	0.408300	0.412251	0.884677
	H68	H	0.595280	0.118996	0.405761
	H69	H	0.593531	0.882244	0.592150
	H70	H	0.407871	0.117402	0.590109
	H71	H	0.415143	0.884743	0.407051
	H72	H	0.907516	0.616248	0.088949
	H73	H	0.094276	0.379963	0.101275
	H74	H	0.087796	0.618236	0.902879
	H75	H	0.902205	0.379497	0.900617
	H76	H	0.100326	0.917574	0.615138
	H77	H	0.099893	0.093180	0.381111
	H78	H	0.906243	0.092206	0.616886
	H79	H	0.908659	0.906203	0.383346
	H80	H	0.617669	0.091293	0.901337
	H81	H	0.378800	0.100721	0.100300
	H82	H	0.616610	0.907392	0.094917
	H83	H	0.381101	0.910554	0.893845
	H84	H	0.617600	0.904615	0.096841
	H85	H	0.386323	0.094733	0.082318
	H86	H	0.618883	0.098034	0.907084
	H87	H	0.380764	0.894529	0.910075
	H88	H	0.906407	0.093682	0.617512
	H89	H	0.090128	0.090053	0.385045
	H90	H	0.082544	0.907036	0.613037
	H91	H	0.903380	0.907498	0.382711
	H92	H	0.093763	0.615967	0.913968
	H93	H	0.085946	0.385520	0.091238
	H94	H	0.904333	0.618736	0.092562
	H95	H	0.916190	0.384698	0.905833
	H96	H	0.403596	0.119197	0.593595
	H97	H	0.594003	0.883044	0.593579
	H98	H	0.590758	0.117173	0.404130
	H99	H	0.403038	0.883137	0.414924
	H100	H	0.593900	0.413892	0.114771
	H101	H	0.599601	0.598166	0.879867
	H102	H	0.408506	0.594222	0.116820
	H103	H	0.409490	0.401308	0.881772
	H104	H	0.117150	0.599568	0.410356
	H105	H	0.885671	0.590879	0.589707
	H106	H	0.120673	0.405563	0.607225
	H107	H	0.882566	0.401688	0.410645
	H108	H	0.909588	0.617397	0.093545
	H109	H	0.099486	0.381922	0.088573
	H110	H	0.100117	0.620442	0.903956
	H111	H	0.903968	0.383679	0.915953
	H112	H	0.099174	0.897199	0.620904
	H113	H	0.091783	0.100055	0.382061
	H114	H	0.905086	0.093571	0.617213
	H115	H	0.906894	0.911508	0.384124
	H116	H	0.615150	0.089800	0.909830
	H117	H	0.385909	0.081698	0.097393
	H118	H	0.616743	0.904128	0.093644
	H119	H	0.387740	0.915456	0.914424
	C120	C	0.378754	0.008678	0.621245
	C121	C	0.621540	0.991545	0.621502
	C122	C	0.621194	0.008278	0.378493
	C123	C	0.378970	0.991404	0.378644
	C124	C	0.621877	0.378141	0.008035
	C125	C	0.621514	0.620898	0.991694
	C126	C	0.377633	0.621199	0.008506
	C127	C	0.378059	0.378262	0.991276
	C128	C	0.008327	0.621762	0.377953
	C129	C	0.991704	0.621675	0.621670
	C130	C	0.008364	0.377851	0.622706
	C131	C	0.991697	0.378559	0.378484
	C132	C	0.878533	0.508773	0.120778
	C133	C	0.121762	0.491536	0.121495
	C134	C	0.121284	0.509061	0.878621
	C135	C	0.878758	0.491615	0.878707
	C136	C	0.122514	0.878698	0.508210
	C137	C	0.121877	0.122069	0.491689
	C138	C	0.877799	0.122014	0.508711
	C139	C	0.878491	0.879327	0.491770
	C140	C	0.508680	0.121320	0.878008
	C141	C	0.491783	0.120884	0.121575
	C142	C	0.508245	0.877127	0.122924
	C143	C	0.491555	0.878198	0.878668
	C144	C	0.381718	0.884337	0.675828
	C145	C	0.618087	0.115832	0.675898
	C146	C	0.618160	0.883555	0.325236
	C147	C	0.381027	0.115491	0.323260
	C148	C	0.677064	0.380051	0.885017
	C149	C	0.676843	0.618568	0.114978
	C150	C	0.323450	0.618941	0.884650
	C151	C	0.323159	0.380571	0.114478
	C152	C	0.885157	0.677170	0.381024
	C153	C	0.114950	0.676584	0.618758
	C154	C	0.884590	0.323928	0.618797
	C155	C	0.115320	0.324601	0.382676
	C156	C	0.884979	0.381199	0.677142
	C157	C	0.114984	0.619092	0.676630
	C158	C	0.885475	0.620433	0.322206
	C159	C	0.115032	0.381671	0.324001
	C160	C	0.381200	0.676068	0.884912
	C161	C	0.617585	0.674512	0.115504
	C162	C	0.618310	0.323918	0.884555
	C163	C	0.382143	0.324007	0.115208
	C164	C	0.676978	0.884450	0.381380
	C165	C	0.675832	0.116036	0.618618
	C166	C	0.323923	0.884647	0.619037
	C167	C	0.323797	0.115671	0.380698
	C168	C	0.881540	0.384438	0.175958
	C169	C	0.118326	0.616048	0.175286
	C170	C	0.117540	0.384665	0.824683
	C171	C	0.881124	0.616069	0.823823
	C172	C	0.177129	0.881632	0.384660
	C173	C	0.176855	0.118972	0.615230
	C174	C	0.822702	0.120483	0.385314
	C175	C	0.823526	0.880707	0.614917
	C176	C	0.385038	0.175766	0.881918
	C177	C	0.615247	0.175296	0.118373
	C178	C	0.384722	0.823454	0.118408
	C179	C	0.615248	0.823938	0.882821
	C180	C	0.384944	0.880255	0.177013
	C181	C	0.615155	0.117646	0.176109
	C182	C	0.385179	0.119225	0.823434
	C183	C	0.614694	0.880384	0.823813
	C184	C	0.881552	0.176766	0.384854
	C185	C	0.117468	0.175006	0.616162
	C186	C	0.119264	0.824306	0.384581
	C187	C	0.882168	0.824113	0.615000
	C188	C	0.175224	0.384533	0.881531
	C189	C	0.176696	0.615721	0.118467
	C190	C	0.824146	0.384458	0.118754
	C191	C	0.822682	0.615399	0.880076
	C192	C	0.400283	0.095842	0.599474
	C193	C	0.599970	0.904918	0.599398
	C194	C	0.599239	0.095091	0.400048
	C195	C	0.400647	0.904684	0.400909
	C196	C	0.600015	0.400132	0.094294
	C197	C	0.599894	0.598987	0.905249
	C198	C	0.399246	0.598878	0.094647
	C199	C	0.399456	0.400057	0.904776
	C200	C	0.094221	0.599144	0.399898
	C201	C	0.905869	0.599692	0.599990
	C202	C	0.094764	0.399362	0.601186
	C203	C	0.905209	0.400873	0.400187
	C204	C	0.900493	0.595279	0.098332
	C205	C	0.099885	0.404889	0.099953
	C206	C	0.100067	0.595966	0.900467
	C207	C	0.900843	0.405006	0.901003
	C208	C	0.100481	0.900748	0.594067
	C209	C	0.100456	0.100808	0.405320
	C210	C	0.899403	0.099714	0.594925
	C211	C	0.900053	0.902008	0.405585
	C212	C	0.594999	0.099509	0.899629
	C213	C	0.405733	0.098857	0.099893
	C214	C	0.594787	0.898799	0.101632
	C215	C	0.405288	0.900391	0.900071
	Zn216	Zn	0.499797	-0.000213	0.749503
	Zn217	Zn	0.499747	-0.000545	0.250630
	Zn218	Zn	0.750311	0.499922	-0.000268
	Zn219	Zn	0.249416	0.499734	-0.000816
	Zn220	Zn	0.000247	0.750516	0.499558
	Zn221	Zn	-0.000042	0.250234	0.500500
	Zn222	Zn	0.000018	0.500636	0.750637
	Zn223	Zn	-0.000368	0.500106	0.249401
	Zn224	Zn	0.499915	0.749257	0.000142
	Zn225	Zn	0.500344	0.249655	-0.000208
	Zn226	Zn	0.749536	0.000506	0.500130
	Zn227	Zn	0.250794	0.000471	0.499786
	N228	N	0.414973	0.962559	0.677449
	N229	N	0.585129	0.037576	0.677685
	N230	N	0.584194	0.961422	0.323452
	N231	N	0.414681	0.037283	0.322011
	N232	N	0.679271	0.413346	0.962874
	N233	N	0.679204	0.585845	0.036729
	N234	N	0.321137	0.585434	0.962517
	N235	N	0.320684	0.413503	0.036405
	N236	N	0.962593	0.678035	0.415087
	N237	N	0.037354	0.678297	0.585269
	N238	N	0.962340	0.321960	0.585672
	N239	N	0.037576	0.322695	0.415625
	N240	N	0.963002	0.414105	0.679566
	N241	N	0.037363	0.585656	0.678346
	N242	N	0.962921	0.586689	0.320273
	N243	N	0.036847	0.414547	0.321350
	N244	N	0.414195	0.677729	0.962867
	N245	N	0.584018	0.675971	0.037948
	N246	N	0.584577	0.322798	0.962146
	N247	N	0.415625	0.322456	0.037549
	N248	N	0.679124	0.963145	0.413711
	N249	N	0.677968	0.037685	0.585276
	N250	N	0.322206	0.963023	0.585547
	N251	N	0.322624	0.037552	0.414751
	N252	N	0.914688	0.462607	0.177353
	N253	N	0.084695	0.537961	0.177027
	N254	N	0.084679	0.462966	0.822943
	N255	N	0.915209	0.538097	0.822757
	N256	N	0.179144	0.914790	0.462472
	N257	N	0.179592	0.086633	0.536936
	N258	N	0.820073	0.087232	0.463357
	N259	N	0.821368	0.914542	0.537156
	N260	N	0.463081	0.177525	0.914891
	N261	N	0.537627	0.177259	0.084995
	N262	N	0.462649	0.821299	0.085619
	N263	N	0.537622	0.822371	0.916053
	N264	N	0.462849	0.913050	0.179431
	N265	N	0.537269	0.084588	0.178221
	N266	N	0.462964	0.085904	0.821120
	N267	N	0.536779	0.913620	0.821305
	N268	N	0.915505	0.177488	0.462533
	N269	N	0.084007	0.176989	0.538426
	N270	N	0.085990	0.822361	0.462420
	N271	N	0.915571	0.823072	0.537290
	N272	N	0.177621	0.462928	0.914508
	N273	N	0.179091	0.537206	0.085778
	N274	N	0.822363	0.462700	0.085014
	N275	N	0.821146	0.537077	0.913651
