data_Molecule from HDF5

_cell_length_a		16.080853
_cell_length_b		16.345083
_cell_length_c		16.149862
_cell_angle_alpha	90.251730
_cell_angle_beta	89.718073
_cell_angle_gamma	89.794379
_symmetry_space_group_name_H-M	'P 1'
_symmetry_Int_Tables_number		1

loop_
	_symmetry_equiv_pos_as_xyz
	x,y,z

loop_
	_atom_site_label
	_atom_site_type_symbol
	_atom_site_fract_x
	_atom_site_fract_y
	_atom_site_fract_z
	H0	H	0.399680	0.836568	0.713884
	H1	H	0.598336	0.161333	0.713527
	H2	H	0.600083	0.836742	0.281697
	H3	H	0.398230	0.163324	0.283543
	H4	H	0.712881	0.402902	0.833266
	H5	H	0.710732	0.598312	0.164349
	H6	H	0.285405	0.598129	0.833582
	H7	H	0.286492	0.406554	0.164386
	H8	H	0.835022	0.715612	0.399286
	H9	H	0.163450	0.715554	0.600210
	H10	H	0.834685	0.284317	0.601285
	H11	H	0.163287	0.282620	0.396818
	H12	H	0.832810	0.403269	0.711945
	H13	H	0.164555	0.597556	0.712337
	H14	H	0.832605	0.595971	0.290035
	H15	H	0.164517	0.399433	0.284276
	H16	H	0.398759	0.716175	0.834197
	H17	H	0.598783	0.716728	0.163054
	H18	H	0.603793	0.282475	0.834951
	H19	H	0.395904	0.284838	0.162026
	H20	H	0.714838	0.836630	0.398407
	H21	H	0.712302	0.161373	0.597353
	H22	H	0.285043	0.834986	0.597162
	H23	H	0.282842	0.163122	0.402158
	H24	H	0.899414	0.336661	0.213284
	H25	H	0.097650	0.661983	0.215593
	H26	H	0.100002	0.337065	0.782658
	H27	H	0.898071	0.663070	0.784203
	H28	H	0.212224	0.900874	0.333774
	H29	H	0.209040	0.096015	0.664620
	H30	H	0.787213	0.094796	0.332733
	H31	H	0.786134	0.903838	0.664263
	H32	H	0.335156	0.217301	0.897213
	H33	H	0.664461	0.216484	0.098771
	H34	H	0.334280	0.787336	0.100117
	H35	H	0.663320	0.783635	0.896319
	H36	H	0.334001	0.904830	0.210895
	H37	H	0.665359	0.099017	0.211019
	H38	H	0.333527	0.096814	0.787136
	H39	H	0.665480	0.901207	0.784575
	H40	H	0.897479	0.215490	0.335077
	H41	H	0.099071	0.215670	0.662098
	H42	H	0.101630	0.781804	0.335245
	H43	H	0.897269	0.784382	0.662509
	H44	H	0.215531	0.337833	0.898299
	H45	H	0.209665	0.663654	0.097571
	H46	H	0.783396	0.336822	0.096868
	H47	H	0.784080	0.663680	0.901683
	H48	H	0.407700	0.113265	0.590372
	H49	H	0.579628	0.885369	0.593211
	H50	H	0.597258	0.117047	0.407551
	H51	H	0.408512	0.885799	0.407364
	H52	H	0.588321	0.412445	0.114301
	H53	H	0.583083	0.587293	0.885074
	H54	H	0.403166	0.610221	0.120385
	H55	H	0.395652	0.405180	0.876370
	H56	H	0.117087	0.590956	0.409828
	H57	H	0.879773	0.602553	0.585090
	H58	H	0.117551	0.406126	0.591128
	H59	H	0.884248	0.407854	0.419467
	H60	H	0.118172	0.404840	0.589166
	H61	H	0.884444	0.583915	0.586338
	H62	H	0.117181	0.590044	0.404692
	H63	H	0.880163	0.416834	0.398008
	H64	H	0.393668	0.587827	0.117960
	H65	H	0.588734	0.603627	0.878850
	H66	H	0.585446	0.403878	0.115840
	H67	H	0.413137	0.420677	0.885818
	H68	H	0.592746	0.117351	0.400930
	H69	H	0.597409	0.883108	0.579244
	H70	H	0.400524	0.116254	0.591951
	H71	H	0.402814	0.882873	0.403949
	H72	H	0.908621	0.617287	0.102123
	H73	H	0.082184	0.384315	0.097665
	H74	H	0.089144	0.614916	0.908869
	H75	H	0.912276	0.382080	0.897158
	H76	H	0.090344	0.901859	0.618588
	H77	H	0.095614	0.100145	0.377458
	H78	H	0.914487	0.093998	0.613913
	H79	H	0.901961	0.915379	0.381075
	H80	H	0.619088	0.097087	0.907353
	H81	H	0.382262	0.105326	0.079122
	H82	H	0.620034	0.902640	0.089922
	H83	H	0.379325	0.905179	0.905753
	H84	H	0.616873	0.907754	0.085599
	H85	H	0.386556	0.079806	0.086486
	H86	H	0.616228	0.089881	0.909154
	H87	H	0.381796	0.908201	0.908177
	H88	H	0.900975	0.101476	0.620645
	H89	H	0.095371	0.080959	0.381435
	H90	H	0.094632	0.907084	0.617617
	H91	H	0.919482	0.904298	0.384589
	H92	H	0.095531	0.618110	0.905052
	H93	H	0.093470	0.386183	0.079708
	H94	H	0.907638	0.612994	0.088163
	H95	H	0.909839	0.387298	0.913625
	H96	H	0.405359	0.116265	0.596569
	H97	H	0.599675	0.877435	0.600957
	H98	H	0.589213	0.114511	0.407422
	H99	H	0.408558	0.883591	0.400082
	H100	H	0.593578	0.406861	0.118001
	H101	H	0.601324	0.590348	0.878953
	H102	H	0.417464	0.592232	0.111590
	H103	H	0.417987	0.396636	0.880816
	H104	H	0.118633	0.594136	0.406447
	H105	H	0.877161	0.594040	0.602116
	H106	H	0.116403	0.407738	0.588935
	H107	H	0.875217	0.394362	0.402576
	H108	H	0.895559	0.620018	0.094947
	H109	H	0.101871	0.378421	0.096589
	H110	H	0.088171	0.617509	0.901768
	H111	H	0.897162	0.381156	0.904624
	H112	H	0.088505	0.907753	0.615929
	H113	H	0.079273	0.091763	0.383879
	H114	H	0.900555	0.086112	0.615942
	H115	H	0.902154	0.894925	0.376109
	H116	H	0.618543	0.091064	0.901127
	H117	H	0.375922	0.097633	0.105527
	H118	H	0.618457	0.909679	0.092344
	H119	H	0.380479	0.908294	0.904173
	C120	C	0.376204	0.007625	0.621515
	C121	C	0.620432	0.989823	0.619929
	C122	C	0.621800	0.008297	0.375913
	C123	C	0.377004	0.991879	0.376276
	C124	C	0.620174	0.378726	0.007241
	C125	C	0.619708	0.622356	0.990086
	C126	C	0.376420	0.623985	0.007566
	C127	C	0.378435	0.379794	0.989839
	C128	C	0.008370	0.620424	0.378528
	C129	C	0.989826	0.621845	0.620419
	C130	C	0.007834	0.378315	0.619769
	C131	C	0.989719	0.377412	0.377332
	C132	C	0.875855	0.508645	0.122440
	C133	C	0.119909	0.490927	0.120516
	C134	C	0.121038	0.509194	0.876174
	C135	C	0.877144	0.491625	0.877076
	C136	C	0.120581	0.876837	0.508263
	C137	C	0.119299	0.120063	0.489834
	C138	C	0.876624	0.121599	0.507705
	C139	C	0.878247	0.877482	0.489752
	C140	C	0.508424	0.121448	0.877140
	C141	C	0.490660	0.122939	0.119639
	C142	C	0.508576	0.879602	0.118589
	C143	C	0.490238	0.878377	0.876666
	C144	C	0.379487	0.884892	0.675832
	C145	C	0.618149	0.112671	0.675468
	C146	C	0.620047	0.885689	0.319783
	C147	C	0.378498	0.114687	0.321819
	C148	C	0.676210	0.381436	0.882998
	C149	C	0.673854	0.619124	0.114751
	C150	C	0.322544	0.619638	0.883036
	C151	C	0.323154	0.384412	0.114526
	C152	C	0.883929	0.676416	0.380154
	C153	C	0.114266	0.677102	0.619452
	C154	C	0.883834	0.322823	0.619873
	C155	C	0.113995	0.320919	0.377603
	C156	C	0.882813	0.381974	0.675030
	C157	C	0.114875	0.618588	0.675323
	C158	C	0.882934	0.617079	0.325621
	C159	C	0.114688	0.379297	0.321725
	C160	C	0.378872	0.678422	0.883508
	C161	C	0.618145	0.678040	0.114024
	C162	C	0.621722	0.321547	0.883845
	C163	C	0.377458	0.323706	0.113371
	C164	C	0.677150	0.885484	0.377756
	C165	C	0.675002	0.112672	0.617672
	C166	C	0.322382	0.884213	0.617742
	C167	C	0.320904	0.114395	0.380820
	C168	C	0.878582	0.385585	0.176184
	C169	C	0.117079	0.613743	0.176605
	C170	C	0.120002	0.386214	0.820354
	C171	C	0.878797	0.614336	0.822395
	C172	C	0.175568	0.879628	0.383523
	C173	C	0.172800	0.117122	0.614632
	C174	C	0.823438	0.116948	0.382705
	C175	C	0.823258	0.882082	0.614506
	C176	C	0.384066	0.177991	0.878300
	C177	C	0.615053	0.178424	0.118416
	C178	C	0.383746	0.825273	0.118586
	C179	C	0.614543	0.822163	0.877426
	C180	C	0.383514	0.883541	0.173829
	C181	C	0.615677	0.119887	0.174104
	C182	C	0.383401	0.118306	0.823342
	C183	C	0.615405	0.880565	0.821591
	C184	C	0.878241	0.176897	0.383934
	C185	C	0.118167	0.176737	0.613451
	C186	C	0.120301	0.820815	0.384206
	C187	C	0.878536	0.822699	0.613473
	C188	C	0.177325	0.386588	0.878198
	C189	C	0.173421	0.614444	0.118209
	C190	C	0.821040	0.385635	0.118115
	C191	C	0.821949	0.614767	0.880869
	C192	C	0.398095	0.093212	0.599482
	C193	C	0.598746	0.904071	0.597682
	C194	C	0.599571	0.094045	0.398540
	C195	C	0.400000	0.906063	0.397509
	C196	C	0.596123	0.401227	0.093654
	C197	C	0.597561	0.600188	0.903382
	C198	C	0.398285	0.602830	0.094438
	C199	C	0.401998	0.401278	0.903415
	C200	C	0.095263	0.598161	0.400476
	C201	C	0.903011	0.600034	0.598000
	C202	C	0.094704	0.400009	0.596542
	C203	C	0.902504	0.399700	0.400058
	C204	C	0.897623	0.594552	0.101544
	C205	C	0.098794	0.405184	0.098103
	C206	C	0.097786	0.594768	0.898521
	C207	C	0.899791	0.405729	0.898773
	C208	C	0.097670	0.898964	0.595172
	C209	C	0.096724	0.097492	0.403210
	C210	C	0.898642	0.100167	0.594443
	C211	C	0.901144	0.898542	0.403005
	C212	C	0.595388	0.099241	0.899384
	C213	C	0.404053	0.100746	0.097051
	C214	C	0.595860	0.900516	0.095956
	C215	C	0.403033	0.900688	0.899431
	Zn216	Zn	0.499153	-0.000814	0.749304
	Zn217	Zn	0.500009	0.000467	0.246314
	Zn218	Zn	0.747878	0.500320	-0.001118
	Zn219	Zn	0.249029	0.500925	-0.001353
	Zn220	Zn	-0.000518	0.749218	0.498738
	Zn221	Zn	-0.001342	0.249724	0.498715
	Zn222	Zn	-0.001457	0.499855	0.747655
	Zn223	Zn	-0.000780	0.499284	0.250488
	Zn224	Zn	0.499000	0.751453	-0.001385
	Zn225	Zn	0.499170	0.250354	-0.001641
	Zn226	Zn	0.749780	-0.001101	0.498675
	Zn227	Zn	0.247468	-0.001241	0.499212
	N228	N	0.412298	0.962452	0.678207
	N229	N	0.585000	0.035318	0.676944
	N230	N	0.586303	0.963139	0.318481
	N231	N	0.412620	0.037398	0.318831
	N232	N	0.675074	0.416534	0.960628
	N233	N	0.675041	0.584964	0.036651
	N234	N	0.320950	0.586548	0.961201
	N235	N	0.323751	0.418627	0.036805
	N236	N	0.963008	0.678714	0.412248
	N237	N	0.035757	0.679108	0.585869
	N238	N	0.962554	0.320471	0.586103
	N239	N	0.035308	0.319604	0.411399
	N240	N	0.961005	0.415790	0.675042
	N241	N	0.036457	0.585011	0.676261
	N242	N	0.961212	0.582806	0.324497
	N243	N	0.036267	0.413516	0.321225
	N244	N	0.411443	0.681278	0.962072
	N245	N	0.585530	0.680237	0.035580
	N246	N	0.587649	0.319827	0.962159
	N247	N	0.411025	0.320671	0.034935
	N248	N	0.678719	0.962720	0.411810
	N249	N	0.676651	0.035323	0.583718
	N250	N	0.320221	0.961558	0.584457
	N251	N	0.320058	0.036834	0.413770
	N252	N	0.911759	0.462965	0.179037
	N253	N	0.084425	0.536118	0.178006
	N254	N	0.085718	0.463389	0.818752
	N255	N	0.912394	0.536725	0.820162
	N256	N	0.175934	0.913680	0.461660
	N257	N	0.173916	0.082634	0.536675
	N258	N	0.822313	0.083246	0.460679
	N259	N	0.822866	0.915568	0.536369
	N260	N	0.462788	0.179892	0.911288
	N261	N	0.536328	0.180426	0.085364
	N262	N	0.462506	0.822652	0.085009
	N263	N	0.535601	0.820668	0.910915
	N264	N	0.462139	0.916702	0.174036
	N265	N	0.537273	0.086064	0.175358
	N266	N	0.461667	0.083869	0.822570
	N267	N	0.537103	0.914738	0.821104
	N268	N	0.910255	0.180178	0.462631
	N269	N	0.085569	0.178728	0.534808
	N270	N	0.087057	0.818925	0.462959
	N271	N	0.911928	0.819909	0.535023
	N272	N	0.178365	0.464081	0.911818
	N273	N	0.175178	0.537368	0.083641
	N274	N	0.818899	0.463231	0.085540
	N275	N	0.820712	0.537326	0.914068
	O276	O	-0.005039	-0.003851	-0.039427
	H277	H	-0.006450	0.001287	-0.028086
	H278	H	-0.010393	-0.003510	-0.031277
	O279	O	0.499249	0.483387	0.543028
	H280	H	0.492462	0.483294	0.543295
	H281	H	0.502865	0.471820	0.547199
	O282	O	0.532024	0.555952	0.611103
	H283	H	0.518210	0.551781	0.612984
	H284	H	0.537580	0.558901	0.612945
	O285	O	0.035766	0.912572	1.038308
	H286	H	0.032864	0.896589	1.034404
	H287	H	0.034017	0.910040	1.040670
	O288	O	0.558526	0.443481	0.533369
	H289	H	0.558416	0.449972	0.530293
	H290	H	0.551630	0.446704	0.532833
	O291	O	0.978196	1.023577	0.980579
	H292	H	0.975783	1.030478	0.979299
	H293	H	0.980416	1.018028	0.981380
	O294	O	0.464665	1.571104	0.521533
	H295	H	0.463119	1.572818	0.510138
	H296	H	0.466804	1.575607	0.529931
	O297	O	1.071015	-0.013426	0.980103
	H298	H	1.061440	-0.015126	0.980156
	H299	H	1.064731	-0.010084	0.980169
	O300	O	0.454546	0.524650	0.402262
	H301	H	0.457519	0.518212	0.399814
	H302	H	0.449110	0.526060	0.399270
	O303	O	0.950440	0.047258	0.055626
	H304	H	0.954035	0.044149	0.061508
	H305	H	0.960440	0.054959	0.058415
	O306	O	0.010752	1.038922	1.018836
	H307	H	-0.000907	1.036468	1.011461
	H308	H	0.013665	1.042702	1.027644
	O309	O	0.443421	0.564793	0.475328
	H310	H	0.446567	0.555683	0.481537
	H311	H	0.446638	0.555564	0.475313
	O312	O	0.980941	-0.053671	1.007205
	H313	H	0.976049	-0.046041	1.001276
	H314	H	0.988464	-0.058196	1.004336
	O315	O	0.482645	0.496932	0.629659
	H316	H	0.474891	0.501843	0.634270
	H317	H	0.491600	0.498356	0.630684
	O318	O	0.530519	0.535439	0.424159
	H319	H	0.528133	0.536102	0.418195
	H320	H	0.531263	0.542451	0.427785
	O321	O	1.027741	0.979281	0.949681
	H322	H	1.029473	0.981006	0.939658
	H323	H	1.024978	0.974636	0.960589
	O324	O	0.507315	0.487224	0.468078
	H325	H	0.511707	0.484399	0.461932
	H326	H	0.506357	0.486027	0.469353
	O327	O	0.487449	0.473752	0.524204
	H328	H	0.489814	0.469964	0.528717
	H329	H	0.481751	0.476426	0.514320
	O330	O	1.058438	-0.041494	0.973887
	H331	H	1.057715	-0.031933	0.968876
	H332	H	1.075252	-0.047697	0.970572
	O333	O	1.071708	1.028988	0.000051
	H334	H	1.076717	1.030113	-0.014923
	H335	H	1.066393	1.037249	0.004610
	O336	O	0.500031	0.369187	0.520319
	H337	H	0.502851	0.371501	0.514570
	H338	H	0.515228	0.367057	0.501794
	O339	O	0.575523	0.518377	0.502256
	H340	H	0.585601	0.510732	0.494487
	H341	H	0.568463	0.524053	0.508437
	O342	O	-0.029502	0.956290	0.028918
	H343	H	-0.027388	0.951369	0.033308
	H344	H	-0.029169	0.948248	0.022057
	O345	O	-0.013707	-0.027620	0.017527
	H346	H	-0.012749	-0.018573	0.020413
	H347	H	-0.019237	-0.035637	0.018168
	O348	O	0.576322	0.464776	0.503323
	H349	H	0.590751	0.468762	0.505173
	H350	H	0.568499	0.466584	0.505821
	O351	O	0.469916	0.539795	0.429998
	H352	H	0.480096	0.538013	0.431879
	H353	H	0.457987	0.534002	0.434066
	O354	O	0.465979	0.438000	0.444225
	H355	H	0.473219	0.444407	0.452453
	H356	H	0.459107	0.428086	0.441247
	O357	O	0.432206	0.481343	0.492371
	H358	H	0.428193	0.490184	0.493634
	H359	H	0.425614	0.487676	0.494115
	O360	O	-0.028292	0.020901	0.034759
	H361	H	-0.025755	0.019234	0.040685
	H362	H	-0.032419	0.017280	0.028712
	O363	O	0.532882	0.468531	0.497196
	H364	H	0.537570	0.462600	0.497841
	H365	H	0.531914	0.473901	0.499028
	O366	O	0.005945	0.085823	0.980094
	H367	H	0.012130	0.085350	0.983739
	H368	H	0.009928	0.087854	0.983398
	O369	O	0.513179	0.476579	0.526052
	H370	H	0.516258	0.476125	0.524153
	H371	H	0.517334	0.483269	0.520645
