data_Molecule from HDF5

_cell_length_a		16.249874
_cell_length_b		16.473227
_cell_length_c		16.281958
_cell_angle_alpha	90.184464
_cell_angle_beta	90.182456
_cell_angle_gamma	90.221441
_symmetry_space_group_name_H-M	'P 1'
_symmetry_Int_Tables_number		1

loop_
	_symmetry_equiv_pos_as_xyz
	x,y,z

loop_
	_atom_site_label
	_atom_site_type_symbol
	_atom_site_fract_x
	_atom_site_fract_y
	_atom_site_fract_z
	H0	H	0.393211	0.826396	0.711954
	H1	H	0.605178	0.144234	0.711423
	H2	H	0.601334	0.825174	0.269929
	H3	H	0.393745	0.142301	0.268502
	H4	H	0.713084	0.385791	0.827303
	H5	H	0.717484	0.588057	0.151801
	H6	H	0.277495	0.588567	0.829668
	H7	H	0.280202	0.383267	0.151169
	H8	H	0.837940	0.704211	0.383729
	H9	H	0.158359	0.707058	0.598034
	H10	H	0.838405	0.263090	0.597007
	H11	H	0.156164	0.262292	0.382550
	H12	H	0.836863	0.381755	0.708458
	H13	H	0.159543	0.590096	0.711886
	H14	H	0.836033	0.587454	0.271392
	H15	H	0.157233	0.380314	0.270489
	H16	H	0.392578	0.705151	0.830290
	H17	H	0.605449	0.707614	0.150189
	H18	H	0.604024	0.264565	0.829423
	H19	H	0.393695	0.264247	0.149755
	H20	H	0.716674	0.824084	0.386273
	H21	H	0.722052	0.143080	0.595421
	H22	H	0.276280	0.826112	0.595365
	H23	H	0.276686	0.142215	0.384494
	H24	H	0.890593	0.325962	0.211481
	H25	H	0.102820	0.643966	0.212860
	H26	H	0.102166	0.325727	0.769286
	H27	H	0.896279	0.643799	0.771237
	H28	H	0.214861	0.881312	0.328862
	H29	H	0.217071	0.087178	0.651501
	H30	H	0.780991	0.083353	0.328110
	H31	H	0.783424	0.884023	0.652911
	H32	H	0.339225	0.206016	0.882028
	H33	H	0.659732	0.205706	0.095491
	H34	H	0.340438	0.761999	0.097110
	H35	H	0.658344	0.766043	0.884287
	H36	H	0.337630	0.880372	0.208295
	H37	H	0.660786	0.086482	0.208068
	H38	H	0.337951	0.087834	0.771324
	H39	H	0.660561	0.885522	0.774222
	H40	H	0.889269	0.206337	0.331048
	H41	H	0.104645	0.205587	0.649963
	H42	H	0.103605	0.762674	0.330483
	H43	H	0.894699	0.765180	0.651132
	H44	H	0.219652	0.326072	0.884802
	H45	H	0.221368	0.642763	0.097252
	H46	H	0.777179	0.325836	0.092233
	H47	H	0.780454	0.644742	0.886873
	H48	H	0.405633	0.100005	0.581686
	H49	H	0.588501	0.870883	0.582501
	H50	H	0.588679	0.097394	0.399797
	H51	H	0.410296	0.870794	0.398865
	H52	H	0.589294	0.392014	0.106480
	H53	H	0.586706	0.580628	0.874800
	H54	H	0.410870	0.570585	0.103458
	H55	H	0.412864	0.397714	0.877828
	H56	H	0.113326	0.575649	0.401376
	H57	H	0.882628	0.578013	0.579195
	H58	H	0.116282	0.387979	0.581669
	H59	H	0.883808	0.397307	0.403142
	H60	H	0.109855	0.396724	0.570368
	H61	H	0.885649	0.572227	0.576133
	H62	H	0.110671	0.573810	0.407134
	H63	H	0.880739	0.394184	0.398112
	H64	H	0.414927	0.577527	0.103966
	H65	H	0.590772	0.576333	0.874137
	H66	H	0.589824	0.397051	0.104636
	H67	H	0.412161	0.391386	0.875799
	H68	H	0.588591	0.097277	0.400751
	H69	H	0.588994	0.871332	0.581231
	H70	H	0.413349	0.096615	0.582348
	H71	H	0.407625	0.871170	0.402307
	H72	H	0.908263	0.598675	0.082379
	H73	H	0.085361	0.371261	0.083791
	H74	H	0.089620	0.600790	0.894908
	H75	H	0.901598	0.367644	0.895267
	H76	H	0.091328	0.890743	0.607971
	H77	H	0.087166	0.063706	0.378489
	H78	H	0.917692	0.074731	0.602785
	H79	H	0.904898	0.889599	0.372873
	H80	H	0.614616	0.071261	0.896430
	H81	H	0.385862	0.072469	0.073172
	H82	H	0.616392	0.894575	0.084978
	H83	H	0.386975	0.899628	0.908940
	H84	H	0.614006	0.892189	0.073883
	H85	H	0.383451	0.071980	0.083687
	H86	H	0.617022	0.083125	0.900086
	H87	H	0.381038	0.898932	0.892933
	H88	H	0.908089	0.080121	0.606959
	H89	H	0.075777	0.077825	0.377527
	H90	H	0.088078	0.899591	0.604643
	H91	H	0.908228	0.896434	0.376681
	H92	H	0.080010	0.594884	0.902896
	H93	H	0.083257	0.373369	0.076639
	H94	H	0.911217	0.597929	0.081448
	H95	H	0.910891	0.371435	0.897093
	H96	H	0.408962	0.096325	0.575244
	H97	H	0.589726	0.870440	0.582328
	H98	H	0.588968	0.098163	0.400306
	H99	H	0.406193	0.869990	0.398830
	H100	H	0.584622	0.394569	0.104913
	H101	H	0.585505	0.574832	0.877859
	H102	H	0.407611	0.577718	0.106574
	H103	H	0.407256	0.395566	0.874947
	H104	H	0.111488	0.569778	0.402343
	H105	H	0.883597	0.572311	0.583223
	H106	H	0.112358	0.402639	0.584611
	H107	H	0.881778	0.391043	0.403786
	H108	H	0.908606	0.597485	0.079506
	H109	H	0.090750	0.371585	0.078008
	H110	H	0.092617	0.596424	0.907500
	H111	H	0.903829	0.370716	0.903737
	H112	H	0.082202	0.891666	0.603882
	H113	H	0.092930	0.079055	0.371494
	H114	H	0.907774	0.068516	0.604264
	H115	H	0.912798	0.890161	0.375075
	H116	H	0.611749	0.075403	0.908389
	H117	H	0.381549	0.081222	0.078614
	H118	H	0.611357	0.902707	0.078091
	H119	H	0.380848	0.885157	0.902538
	C120	C	0.377124	-0.007170	0.611826
	C121	C	0.621187	0.975990	0.613231
	C122	C	0.620159	-0.007523	0.368838
	C123	C	0.376006	0.975279	0.367375
	C124	C	0.619077	0.363984	-0.001562
	C125	C	0.620215	0.608505	0.981751
	C126	C	0.377747	0.606938	-0.001121
	C127	C	0.378085	0.363546	0.981575
	C128	C	0.005973	0.605005	0.370530
	C129	C	0.990182	0.606245	0.612171
	C130	C	0.006562	0.363940	0.610915
	C131	C	0.987952	0.362408	0.368970
	C132	C	0.876325	0.493014	0.112154
	C133	C	0.119548	0.476585	0.112546
	C134	C	0.119729	0.492861	0.869191
	C135	C	0.875830	0.475849	0.867801
	C136	C	0.118697	0.862609	0.498931
	C137	C	0.118867	0.106255	0.481432
	C138	C	0.877242	0.105533	0.498757
	C139	C	0.877217	0.861765	0.481472
	C140	C	0.507911	0.107033	0.868939
	C141	C	0.490501	0.106025	0.110562
	C142	C	0.507717	0.863963	0.110870
	C143	C	0.489494	0.864156	0.869459
	C144	C	0.374932	0.873876	0.671913
	C145	C	0.623712	0.096042	0.672381
	C146	C	0.620604	0.872708	0.309429
	C147	C	0.374899	0.094733	0.308170
	C148	C	0.675525	0.365331	0.876314
	C149	C	0.678499	0.607911	0.103310
	C150	C	0.316879	0.607880	0.878278
	C151	C	0.319319	0.363465	0.102802
	C152	C	0.885555	0.664561	0.366786
	C153	C	0.110568	0.666785	0.615503
	C154	C	0.886074	0.303632	0.614068
	C155	C	0.108277	0.302383	0.365353
	C156	C	0.885195	0.362851	0.669409
	C157	C	0.111170	0.608238	0.672056
	C158	C	0.884602	0.606205	0.310836
	C159	C	0.108885	0.361025	0.309360
	C160	C	0.374372	0.665856	0.878387
	C161	C	0.623074	0.667592	0.102591
	C162	C	0.621084	0.304887	0.877388
	C163	C	0.375431	0.304162	0.102089
	C164	C	0.677687	0.872181	0.367851
	C165	C	0.681923	0.095442	0.614551
	C166	C	0.316859	0.873537	0.613545
	C167	C	0.316453	0.094466	0.365636
	C168	C	0.873161	0.373549	0.171201
	C169	C	0.121760	0.595972	0.172917
	C170	C	0.121044	0.373099	0.809133
	C171	C	0.876679	0.596199	0.810161
	C172	C	0.176681	0.861986	0.377464
	C173	C	0.178225	0.106816	0.602664
	C174	C	0.818688	0.104246	0.377032
	C175	C	0.820871	0.863690	0.603779
	C176	C	0.387057	0.165852	0.865584
	C177	C	0.611617	0.165417	0.113043
	C178	C	0.387532	0.802892	0.114029
	C179	C	0.610333	0.805837	0.866726
	C180	C	0.386434	0.861599	0.169576
	C181	C	0.612039	0.106396	0.169448
	C182	C	0.386614	0.107426	0.809815
	C183	C	0.611572	0.865139	0.811850
	C184	C	0.873077	0.165103	0.378397
	C185	C	0.122490	0.166106	0.601832
	C186	C	0.121233	0.802690	0.378465
	C187	C	0.876200	0.804351	0.602860
	C188	C	0.179668	0.373545	0.866488
	C189	C	0.180429	0.595697	0.114939
	C190	C	0.816388	0.373492	0.111993
	C191	C	0.819218	0.596633	0.868177
	C192	C	0.402075	0.075916	0.586966
	C193	C	0.596072	0.892674	0.589223
	C194	C	0.595851	0.075820	0.393254
	C195	C	0.400812	0.892303	0.392558
	C196	C	0.595104	0.387591	0.083302
	C197	C	0.594996	0.584365	0.897542
	C198	C	0.403758	0.582437	0.082624
	C199	C	0.403285	0.387989	0.897820
	C200	C	0.089988	0.580223	0.396086
	C201	C	0.905955	0.581366	0.586801
	C202	C	0.090885	0.388560	0.586082
	C203	C	0.904003	0.387104	0.394199
	C204	C	0.901965	0.576493	0.088082
	C205	C	0.093928	0.393623	0.086925
	C206	C	0.094873	0.575574	0.894462
	C207	C	0.898730	0.391834	0.891568
	C208	C	0.094185	0.886984	0.583335
	C209	C	0.092733	0.080906	0.397499
	C210	C	0.903480	0.081499	0.582644
	C211	C	0.901605	0.885080	0.396900
	C212	C	0.592457	0.083418	0.894197
	C213	C	0.405610	0.082155	0.085679
	C214	C	0.591931	0.889273	0.085861
	C215	C	0.405104	0.887749	0.894341
	Zn216	Zn	0.498541	-0.014672	0.742155
	Zn217	Zn	0.498638	-0.016046	0.238904
	Zn218	Zn	0.746927	0.485728	-0.009959
	Zn219	Zn	0.249269	0.484631	-0.009525
	Zn220	Zn	-0.001595	0.733908	0.490346
	Zn221	Zn	-0.002083	0.234653	0.490686
	Zn222	Zn	-0.001740	0.484057	0.739611
	Zn223	Zn	-0.003004	0.484617	0.242011
	Zn224	Zn	0.498855	0.736340	-0.009868
	Zn225	Zn	0.498981	0.234948	-0.009943
	Zn226	Zn	0.749277	-0.016421	0.490268
	Zn227	Zn	0.246765	-0.015766	0.490061
	N228	N	0.411714	0.949041	0.670717
	N229	N	0.586616	0.020844	0.671755
	N230	N	0.585393	0.948446	0.309800
	N231	N	0.410960	0.019389	0.308890
	N232	N	0.674177	0.401600	0.952422
	N233	N	0.676902	0.571896	0.027102
	N234	N	0.318825	0.572032	0.954217
	N235	N	0.320893	0.399448	0.026867
	N236	N	0.961973	0.663856	0.403358
	N237	N	0.034290	0.665634	0.578984
	N238	N	0.962561	0.304422	0.578002
	N239	N	0.031928	0.302899	0.401429
	N240	N	0.961048	0.399786	0.667474
	N241	N	0.035181	0.571338	0.670164
	N242	N	0.960505	0.569907	0.312976
	N243	N	0.033038	0.397471	0.311277
	N244	N	0.411405	0.665494	0.954510
	N245	N	0.587784	0.668118	0.025891
	N246	N	0.586829	0.303933	0.954562
	N247	N	0.410823	0.303661	0.025500
	N248	N	0.677602	0.947551	0.404046
	N249	N	0.680643	0.019901	0.578459
	N250	N	0.318431	0.948395	0.576586
	N251	N	0.316993	0.019146	0.401771
	N252	N	0.909558	0.448934	0.171331
	N253	N	0.084684	0.520754	0.171755
	N254	N	0.084832	0.448341	0.810394
	N255	N	0.910928	0.520086	0.809720
	N256	N	0.175230	0.898491	0.453240
	N257	N	0.176270	0.070346	0.526599
	N258	N	0.821253	0.067987	0.452909
	N259	N	0.820956	0.898288	0.527158
	N260	N	0.463685	0.166094	0.901539
	N261	N	0.535039	0.165148	0.077131
	N262	N	0.463996	0.804294	0.078234
	N263	N	0.533308	0.804705	0.901593
	N264	N	0.462222	0.898867	0.167667
	N265	N	0.535705	0.070078	0.167893
	N266	N	0.462702	0.071627	0.811725
	N267	N	0.535235	0.900564	0.813255
	N268	N	0.908661	0.166166	0.455119
	N269	N	0.086530	0.165944	0.525255
	N270	N	0.086043	0.802832	0.455260
	N271	N	0.910125	0.802595	0.525665
	N272	N	0.179123	0.448801	0.902908
	N273	N	0.179134	0.520434	0.078334
	N274	N	0.818262	0.448894	0.075950
	N275	N	0.818044	0.520705	0.903036
	O276	O	0.422142	0.509191	0.322224
	H277	H	0.425857	0.507423	0.330448
	H278	H	0.417245	0.508123	0.325863
	O279	O	0.303025	0.477444	0.663968
	H280	H	0.300120	0.468626	0.667903
	H281	H	0.299260	0.483750	0.667225
	O282	O	0.456933	0.307502	0.670690
	H283	H	0.437955	0.312739	0.678525
	H284	H	0.466794	0.294863	0.661549
	O285	O	0.992272	0.061624	-0.084227
	H286	H	0.978588	0.063370	-0.084010
	H287	H	1.000706	0.061766	-0.094287
	O288	O	-0.170165	-0.072604	0.836142
	H289	H	-0.157618	-0.071146	0.848251
	H290	H	-0.178998	-0.076266	0.844029
	O291	O	0.625258	0.508642	0.344408
	H292	H	0.640720	0.500292	0.336255
	H293	H	0.622339	0.527960	0.354608
	O294	O	0.303171	0.373637	0.509693
	H295	H	0.296065	0.385855	0.493274
	H296	H	0.301216	0.372841	0.495606
	O297	O	1.151328	1.054765	1.003435
	H298	H	1.164290	1.057897	1.002402
	H299	H	1.160316	1.051034	1.017420
	O300	O	0.022029	0.193925	0.199137
	H301	H	0.016896	0.207623	0.206086
	H302	H	0.007565	0.209230	0.198821
	O303	O	0.511777	0.672890	0.598209
	H304	H	0.493830	0.692122	0.606740
	H305	H	0.500984	0.648406	0.598353
	O306	O	0.962872	-0.116264	0.015946
	H307	H	0.956329	-0.118009	0.023722
	H308	H	0.970019	-0.117232	0.011866
	O309	O	-0.016322	0.057545	0.934150
	H310	H	-0.013897	0.058783	0.955502
	H311	H	-0.002124	0.051305	0.914983
	O312	O	1.056994	0.888656	0.027848
	H313	H	1.072800	0.897167	0.036587
	H314	H	1.066356	0.899545	0.019217
	O315	O	0.679643	0.334186	0.309416
	H316	H	0.672919	0.343709	0.313413
	H317	H	0.681391	0.326005	0.325833
	O318	O	0.401873	0.426823	0.363708
	H319	H	0.394873	0.433646	0.370461
	H320	H	0.405788	0.436168	0.361743
	O321	O	1.009960	-0.106563	0.812843
	H322	H	0.989856	-0.112827	0.813196
	H323	H	1.006317	-0.091378	0.817691
	O324	O	0.169454	0.031896	0.856095
	H325	H	0.167379	0.020062	0.861782
	H326	H	0.170353	0.022164	0.866648
	O327	O	0.657802	0.498182	0.666515
	H328	H	0.667789	0.490966	0.677402
	H329	H	0.664456	0.499906	0.662483
	O330	O	0.472317	0.593809	0.385940
	H331	H	0.491703	0.593017	0.375982
	H332	H	0.484951	0.594356	0.410158
	O333	O	0.535783	1.446875	0.500447
	H334	H	0.535900	1.443154	0.497459
	H335	H	0.544002	1.452849	0.500631
	O336	O	0.309936	0.679127	0.455810
	H337	H	0.307334	0.657107	0.452988
	H338	H	0.292608	0.693127	0.449377
	O339	O	0.843164	-0.180278	1.135514
	H340	H	0.842792	-0.163233	1.157830
	H341	H	0.854397	-0.186781	1.142072
	O342	O	-0.016726	0.793462	1.041222
	H343	H	-0.022287	0.796694	1.053293
	H344	H	-0.000469	0.802811	1.054467
	O345	O	0.193363	1.181901	1.091480
	H346	H	0.190960	1.170835	1.115296
	H347	H	0.189900	1.191970	1.091912
	O348	O	0.601292	0.684063	0.683478
	H349	H	0.568578	0.684320	0.687951
	H350	H	0.608305	0.683839	0.704165
	O351	O	-0.111619	-0.020539	-0.031229
	H352	H	-0.128500	-0.026230	-0.024441
	H353	H	-0.118773	-0.015176	-0.031541
	O354	O	1.064615	1.055493	0.129130
	H355	H	1.089743	1.067284	0.138425
	H356	H	1.067134	1.053400	0.109522
	O357	O	0.620617	1.324800	0.404295
	H358	H	0.622984	1.324672	0.397505
	H359	H	0.641837	1.309755	0.400025
	O360	O	0.591296	0.527498	0.393928
	H361	H	0.596454	0.519472	0.417807
	H362	H	0.603586	0.537936	0.404372
	O363	O	0.513240	0.631784	0.422841
	H364	H	0.517544	0.628575	0.440221
	H365	H	0.516420	0.633096	0.427975
	O366	O	1.402684	1.452879	0.462186
	H367	H	1.394480	1.457002	0.458230
	H368	H	1.419232	1.465979	0.471016
	O369	O	0.702640	0.674845	0.582451
	H370	H	0.709770	0.693904	0.594849
	H371	H	0.702466	0.673051	0.606494
	O372	O	0.519137	0.655960	0.460716
	H373	H	0.518557	0.662156	0.473062
	H374	H	0.523925	0.647028	0.455822
	O375	O	0.663048	0.477208	0.508864
	H376	H	0.657593	0.494745	0.499053
	H377	H	0.650999	0.480386	0.540848
	O378	O	0.311053	0.290692	0.615705
	H379	H	0.310114	0.292248	0.624761
	H380	H	0.307822	0.294051	0.597800
	O381	O	0.308534	0.439648	0.344374
	H382	H	0.302303	0.471840	0.340758
	H383	H	0.318932	0.442710	0.339150
	O384	O	0.044317	1.141488	1.065561
	H385	H	0.045793	1.140178	1.065160
	H386	H	0.056355	1.151981	1.074184
	O387	O	1.115916	0.909328	-0.175679
	H388	H	1.103475	0.910924	-0.175269
	H389	H	1.108347	0.908826	-0.155921
	O390	O	0.497905	0.468887	0.537876
	H391	H	0.514523	0.473818	0.547060
	H392	H	0.511926	0.465638	0.542207
	O393	O	1.492097	0.296418	1.335178
	H394	H	1.497949	0.302109	1.327254
	H395	H	1.491191	0.298597	1.351648
	O396	O	-0.095093	1.027832	0.809525
	H397	H	-0.089106	1.012376	0.808012
	H398	H	-0.098865	1.022514	0.809513
	O399	O	0.543907	0.483150	0.635727
	H400	H	0.560168	0.469236	0.630260
	H401	H	0.543237	0.481630	0.639099
	O402	O	1.163482	-0.220476	0.958861
	H403	H	1.177489	-0.238516	0.955060
	H404	H	1.163864	-0.213098	0.944812
	O405	O	-0.094903	0.169805	0.047855
	H406	H	-0.107185	0.172788	0.038852
	H407	H	-0.088866	0.164515	0.025567
	O408	O	0.577825	1.348084	1.497357
	H409	H	0.581623	1.341119	1.483503
	H410	H	0.578983	1.361100	1.471949
	O411	O	1.099515	1.023367	-0.004144
	H412	H	1.098524	1.049043	-0.013099
	H413	H	1.120800	1.029003	-0.000406
	O414	O	-0.134213	-0.188460	1.055415
	H415	H	-0.134164	-0.190784	1.069765
	H416	H	-0.141537	-0.197143	1.070404
	O417	O	0.376888	0.558881	0.589629
	H418	H	0.370596	0.545813	0.595188
	H419	H	0.382360	0.541320	0.587148
	O420	O	-0.100111	0.982247	0.088386
	H421	H	-0.090377	0.996635	0.085033
	H422	H	-0.096068	0.976032	0.096068
	O423	O	1.007991	-0.108309	-0.021407
	H424	H	1.006407	-0.110736	-0.007812
	H425	H	1.011207	-0.104805	-0.016401
	O426	O	0.132839	-0.040726	1.074078
	H427	H	0.133011	-0.055131	1.070731
	H428	H	0.132920	-0.052029	1.071789
	O429	O	-0.081895	1.048288	0.070691
	H430	H	-0.076632	1.064407	0.069987
	H431	H	-0.083778	1.043974	0.060426
