data_Molecule from HDF5

_cell_length_a		16.361596
_cell_length_b		16.144469
_cell_length_c		16.117378
_cell_angle_alpha	89.880591
_cell_angle_beta	90.079080
_cell_angle_gamma	89.457227
_symmetry_space_group_name_H-M	'P 1'
_symmetry_Int_Tables_number		1

loop_
	_symmetry_equiv_pos_as_xyz
	x,y,z

loop_
	_atom_site_label
	_atom_site_type_symbol
	_atom_site_fract_x
	_atom_site_fract_y
	_atom_site_fract_z
	H0	H	0.405028	0.835276	0.712950
	H1	H	0.594331	0.166884	0.713124
	H2	H	0.599071	0.834652	0.289711
	H3	H	0.401669	0.165853	0.287626
	H4	H	0.715216	0.398313	0.835624
	H5	H	0.715412	0.598739	0.164431
	H6	H	0.282790	0.603377	0.836725
	H7	H	0.286776	0.400569	0.165351
	H8	H	0.837376	0.719363	0.399653
	H9	H	0.163840	0.712775	0.598360
	H10	H	0.836457	0.287615	0.599830
	H11	H	0.163030	0.284483	0.402114
	H12	H	0.836254	0.404909	0.715057
	H13	H	0.162992	0.598254	0.715304
	H14	H	0.836379	0.600790	0.285494
	H15	H	0.163532	0.401384	0.286752
	H16	H	0.402256	0.712315	0.834570
	H17	H	0.596607	0.710550	0.165909
	H18	H	0.596215	0.288037	0.834213
	H19	H	0.404677	0.288379	0.166101
	H20	H	0.715849	0.836192	0.403404
	H21	H	0.713575	0.166497	0.600995
	H22	H	0.287329	0.836483	0.601908
	H23	H	0.280776	0.163413	0.396259
	H24	H	0.904472	0.335255	0.213352
	H25	H	0.092757	0.666966	0.211002
	H26	H	0.097490	0.335414	0.788453
	H27	H	0.901627	0.666757	0.788893
	H28	H	0.217413	0.898435	0.336353
	H29	H	0.215311	0.099800	0.664981
	H30	H	0.783806	0.103437	0.336479
	H31	H	0.788276	0.901533	0.665526
	H32	H	0.337688	0.218866	0.900161
	H33	H	0.663988	0.211708	0.099133
	H34	H	0.336280	0.786620	0.098941
	H35	H	0.663032	0.782959	0.902165
	H36	H	0.336160	0.904059	0.215185
	H37	H	0.663544	0.095719	0.214576
	H38	H	0.336967	0.101377	0.785050
	H39	H	0.663544	0.899246	0.786344
	H40	H	0.900630	0.215507	0.335475
	H41	H	0.096029	0.211483	0.666628
	H42	H	0.097304	0.787913	0.333766
	H43	H	0.907632	0.791206	0.666217
	H44	H	0.217326	0.336716	0.899806
	H45	H	0.214281	0.664537	0.102307
	H46	H	0.787293	0.335436	0.099429
	H47	H	0.781531	0.663923	0.897568
	H48	H	0.394702	0.121813	0.591711
	H49	H	0.601585	0.880966	0.594552
	H50	H	0.586738	0.117304	0.406052
	H51	H	0.411772	0.883606	0.410215
	H52	H	0.594538	0.411021	0.116687
	H53	H	0.579395	0.585194	0.887313
	H54	H	0.402609	0.591503	0.119991
	H55	H	0.411606	0.401142	0.880336
	H56	H	0.114616	0.595755	0.410487
	H57	H	0.884335	0.594435	0.591638
	H58	H	0.115753	0.408501	0.596361
	H59	H	0.885343	0.405858	0.415205
	H60	H	0.116519	0.402882	0.594297
	H61	H	0.882505	0.595846	0.598171
	H62	H	0.114330	0.589312	0.406778
	H63	H	0.884848	0.417394	0.403406
	H64	H	0.409141	0.588413	0.117326
	H65	H	0.592612	0.604875	0.877569
	H66	H	0.591768	0.402527	0.119384
	H67	H	0.397106	0.411367	0.879837
	H68	H	0.594888	0.118014	0.414126
	H69	H	0.592465	0.883930	0.596079
	H70	H	0.412224	0.120184	0.602170
	H71	H	0.407660	0.882733	0.411231
	H72	H	0.910722	0.620432	0.102520
	H73	H	0.094558	0.379561	0.101582
	H74	H	0.091064	0.623770	0.891516
	H75	H	0.906017	0.379944	0.901376
	H76	H	0.095635	0.902703	0.619802
	H77	H	0.101450	0.085601	0.382607
	H78	H	0.906559	0.104367	0.622967
	H79	H	0.906727	0.916297	0.382636
	H80	H	0.616758	0.092446	0.907437
	H81	H	0.385555	0.096673	0.083992
	H82	H	0.616951	0.910095	0.103554
	H83	H	0.385886	0.914473	0.906467
	H84	H	0.619254	0.893167	0.095842
	H85	H	0.384624	0.086474	0.097493
	H86	H	0.616187	0.092703	0.906798
	H87	H	0.380506	0.904160	0.898508
	H88	H	0.897016	0.088327	0.619738
	H89	H	0.082870	0.086425	0.386622
	H90	H	0.100577	0.909010	0.618869
	H91	H	0.911095	0.906155	0.381928
	H92	H	0.078289	0.611800	0.916978
	H93	H	0.088151	0.385742	0.087696
	H94	H	0.910878	0.613098	0.081323
	H95	H	0.914615	0.384334	0.909038
	H96	H	0.410555	0.114523	0.582355
	H97	H	0.596270	0.884915	0.588058
	H98	H	0.596946	0.121824	0.403306
	H99	H	0.408023	0.882462	0.407200
	H100	H	0.601035	0.405125	0.121004
	H101	H	0.603852	0.582174	0.881409
	H102	H	0.408480	0.595532	0.118451
	H103	H	0.413086	0.417475	0.886220
	H104	H	0.118223	0.595405	0.403290
	H105	H	0.882113	0.601321	0.592961
	H106	H	0.114539	0.406846	0.590528
	H107	H	0.880020	0.401759	0.399878
	H108	H	0.892905	0.621333	0.090592
	H109	H	0.103948	0.381440	0.088909
	H110	H	0.107691	0.620911	0.917301
	H111	H	0.902751	0.382150	0.912863
	H112	H	0.092690	0.908748	0.617105
	H113	H	0.092379	0.102022	0.379618
	H114	H	0.914939	0.088828	0.614896
	H115	H	0.901028	0.908133	0.379074
	H116	H	0.616378	0.092614	0.907512
	H117	H	0.379964	0.102956	0.098913
	H118	H	0.612692	0.907734	0.085378
	H119	H	0.384194	0.902389	0.912296
	C120	C	0.378803	0.009495	0.621317
	C121	C	0.623239	0.992864	0.622362
	C122	C	0.621952	0.009451	0.379935
	C123	C	0.378968	0.991613	0.379681
	C124	C	0.623298	0.377461	0.009409
	C125	C	0.620301	0.619694	0.991420
	C126	C	0.377950	0.621581	0.009361
	C127	C	0.379489	0.380570	0.991687
	C128	C	0.008149	0.623202	0.378011
	C129	C	0.991371	0.623353	0.622327
	C130	C	0.007779	0.378916	0.622629
	C131	C	0.991572	0.378798	0.378361
	C132	C	0.878289	0.509228	0.120641
	C133	C	0.121800	0.491720	0.121760
	C134	C	0.121518	0.509580	0.879532
	C135	C	0.878375	0.491591	0.878826
	C136	C	0.123492	0.878326	0.509031
	C137	C	0.120963	0.120882	0.491931
	C138	C	0.877358	0.123405	0.509953
	C139	C	0.879802	0.881601	0.491158
	C140	C	0.508560	0.122388	0.878454
	C141	C	0.491733	0.122074	0.122107
	C142	C	0.508105	0.877055	0.123203
	C143	C	0.491742	0.877553	0.878365
	C144	C	0.383895	0.884888	0.675792
	C145	C	0.616949	0.117407	0.676192
	C146	C	0.619878	0.884524	0.326377
	C147	C	0.380683	0.116107	0.324341
	C148	C	0.677483	0.379003	0.884833
	C149	C	0.676075	0.617822	0.115710
	C150	C	0.321711	0.621788	0.885566
	C151	C	0.324586	0.381058	0.116068
	C152	C	0.885685	0.680258	0.379846
	C153	C	0.114802	0.675804	0.618857
	C154	C	0.884938	0.325436	0.619900
	C155	C	0.114310	0.322661	0.381594
	C156	C	0.885034	0.383513	0.677380
	C157	C	0.114351	0.618945	0.677360
	C158	C	0.885154	0.621281	0.323230
	C159	C	0.114594	0.380882	0.323998
	C160	C	0.380648	0.676500	0.884744
	C161	C	0.617253	0.673590	0.116352
	C162	C	0.618468	0.323819	0.884210
	C163	C	0.383533	0.326010	0.116810
	C164	C	0.677911	0.885410	0.382953
	C165	C	0.676462	0.117023	0.620864
	C166	C	0.325176	0.885553	0.620593
	C167	C	0.320767	0.114669	0.378826
	C168	C	0.883229	0.384609	0.175852
	C169	C	0.115833	0.616991	0.175210
	C170	C	0.119188	0.385013	0.824869
	C171	C	0.880640	0.616815	0.825168
	C172	C	0.178935	0.879017	0.385052
	C173	C	0.176687	0.119285	0.616036
	C174	C	0.822104	0.122620	0.385572
	C175	C	0.826240	0.882644	0.616162
	C176	C	0.386119	0.179761	0.880142
	C177	C	0.614918	0.175080	0.119467
	C178	C	0.385133	0.823849	0.120175
	C179	C	0.614340	0.821219	0.881533
	C180	C	0.385014	0.881978	0.177856
	C181	C	0.614846	0.117091	0.176728
	C182	C	0.385814	0.121430	0.822983
	C183	C	0.614711	0.879350	0.824022
	C184	C	0.880214	0.178229	0.385039
	C185	C	0.117435	0.174953	0.616824
	C186	C	0.119290	0.824353	0.383847
	C187	C	0.885648	0.827919	0.616631
	C188	C	0.178229	0.385648	0.880790
	C189	C	0.176041	0.615883	0.120875
	C190	C	0.824758	0.384655	0.119656
	C191	C	0.820811	0.615167	0.879090
	C192	C	0.399501	0.096441	0.598698
	C193	C	0.602820	0.905707	0.599750
	C194	C	0.599501	0.096441	0.401538
	C195	C	0.402354	0.905165	0.402777
	C196	C	0.602136	0.399718	0.096603
	C197	C	0.598419	0.597406	0.904590
	C198	C	0.400130	0.598410	0.096186
	C199	C	0.400808	0.403250	0.904801
	C200	C	0.093713	0.600156	0.400281
	C201	C	0.905310	0.603179	0.600741
	C202	C	0.093506	0.400113	0.600263
	C203	C	0.905682	0.401733	0.399604
	C204	C	0.898794	0.595895	0.098059
	C205	C	0.101579	0.404752	0.099228
	C206	C	0.098950	0.596387	0.901958
	C207	C	0.901063	0.404748	0.901236
	C208	C	0.102613	0.900367	0.596069
	C209	C	0.098686	0.098286	0.405277
	C210	C	0.899571	0.100630	0.596747
	C211	C	0.900115	0.903705	0.403816
	C212	C	0.594180	0.099241	0.900726
	C213	C	0.405733	0.101314	0.100034
	C214	C	0.593947	0.897666	0.101528
	C215	C	0.405760	0.900326	0.899625
	Zn216	Zn	0.500331	0.000249	0.749198
	Zn217	Zn	0.499976	0.000456	0.251465
	Zn218	Zn	0.749706	0.499612	-0.000237
	Zn219	Zn	0.250608	0.501001	0.000935
	Zn220	Zn	-0.000043	0.752646	0.500179
	Zn221	Zn	-0.000826	0.249302	0.500699
	Zn222	Zn	-0.000292	0.501380	0.751849
	Zn223	Zn	-0.000125	0.501106	0.249101
	Zn224	Zn	0.499403	0.748309	0.000488
	Zn225	Zn	0.500520	0.251565	0.000865
	Zn226	Zn	0.751150	0.001939	0.500774
	Zn227	Zn	0.250650	-0.000163	0.500420
	N228	N	0.416720	0.963031	0.676410
	N229	N	0.584482	0.039002	0.677136
	N230	N	0.585518	0.962732	0.324306
	N231	N	0.416412	0.038558	0.324871
	N232	N	0.680550	0.411472	0.963686
	N233	N	0.678014	0.584822	0.037080
	N234	N	0.319620	0.588648	0.964316
	N235	N	0.322149	0.414502	0.037445
	N236	N	0.963160	0.681642	0.413202
	N237	N	0.037450	0.678733	0.585293
	N238	N	0.962254	0.322498	0.586573
	N239	N	0.036770	0.321276	0.414545
	N240	N	0.962548	0.416065	0.679176
	N241	N	0.036651	0.586975	0.679543
	N242	N	0.962200	0.586436	0.321927
	N243	N	0.037305	0.415173	0.321966
	N244	N	0.415081	0.676305	0.962719
	N245	N	0.583253	0.674730	0.038227
	N246	N	0.585301	0.322810	0.962605
	N247	N	0.416936	0.325387	0.038493
	N248	N	0.679253	0.964141	0.415531
	N249	N	0.680291	0.038376	0.588191
	N250	N	0.322160	0.964009	0.587217
	N251	N	0.319675	0.036229	0.412431
	N252	N	0.915519	0.463099	0.176972
	N253	N	0.083113	0.538833	0.175998
	N254	N	0.084583	0.463083	0.824101
	N255	N	0.915711	0.538937	0.824789
	N256	N	0.181609	0.911795	0.463689
	N257	N	0.178732	0.086166	0.537479
	N258	N	0.820216	0.089154	0.464211
	N259	N	0.822608	0.915296	0.537193
	N260	N	0.463527	0.180574	0.913792
	N261	N	0.537274	0.178279	0.086134
	N262	N	0.462508	0.820682	0.087059
	N263	N	0.536845	0.820335	0.914790
	N264	N	0.462569	0.914266	0.179974
	N265	N	0.537289	0.085033	0.178431
	N266	N	0.462837	0.086262	0.821933
	N267	N	0.537394	0.913643	0.821777
	N268	N	0.914013	0.178668	0.463255
	N269	N	0.083543	0.176102	0.538508
	N270	N	0.085590	0.823493	0.462012
	N271	N	0.918248	0.827215	0.537969
	N272	N	0.179895	0.464076	0.913856
	N273	N	0.179905	0.536988	0.088452
	N274	N	0.821563	0.462941	0.086009
	N275	N	0.819205	0.536208	0.911787
	O276	O	0.560159	0.520253	0.521297
	H277	H	0.549661	0.521383	0.513039
	H278	H	0.560917	0.519102	0.525829
	O279	O	0.430024	0.555361	0.416031
	H280	H	0.432920	0.553378	0.411239
	H281	H	0.421651	0.554742	0.412042
	O282	O	0.508080	0.510206	0.550865
	H283	H	0.504554	0.515737	0.550244
	H284	H	0.514342	0.515943	0.551587
	O285	O	-0.073426	1.049738	0.988943
	H286	H	-0.076417	1.046846	0.985711
	H287	H	-0.079655	1.046775	0.978652
	O288	O	0.447667	0.484589	0.504320
	H289	H	0.441894	0.486338	0.508728
	H290	H	0.453543	0.493349	0.502251
	O291	O	-0.043194	0.007369	0.993573
	H292	H	-0.033765	0.003752	0.983336
	H293	H	-0.048934	0.012003	0.994670
	O294	O	0.514251	0.448966	0.480291
	H295	H	0.525835	0.450021	0.484223
	H296	H	0.506854	0.445407	0.474922
	O297	O	0.504446	0.473699	0.481129
	H298	H	0.504483	0.471676	0.481333
	H299	H	0.497414	0.479191	0.480882
	O300	O	0.478453	0.540410	0.504712
	H301	H	0.481018	0.539245	0.523510
	H302	H	0.485660	0.537952	0.503524
	O303	O	0.488173	0.455468	0.472667
	H304	H	0.490768	0.456439	0.474712
	H305	H	0.492145	0.445593	0.477185
	O306	O	0.961385	0.037137	0.936846
	H307	H	0.968953	0.035189	0.947854
	H308	H	0.955069	0.042823	0.925783
	O309	O	0.434661	0.516480	0.482419
	H310	H	0.435477	0.516394	0.488952
	H311	H	0.429474	0.517545	0.473715
	O312	O	0.467296	0.504017	0.484534
	H313	H	0.466977	0.506371	0.481513
	H314	H	0.461157	0.494837	0.485988
	O315	O	0.958131	0.044929	0.982854
	H316	H	0.952359	0.058167	0.981842
	H317	H	0.955068	0.049962	0.987263
	O318	O	0.007407	-0.034253	-0.003906
	H319	H	0.009799	-0.036078	-0.004355
	H320	H	0.004421	-0.034173	0.009290
	O321	O	0.395719	0.620137	0.428504
	H322	H	0.388240	0.624081	0.427728
	H323	H	0.387386	0.625939	0.411639
	O324	O	0.980396	-0.006460	-0.026698
	H325	H	0.986145	-0.011094	-0.022021
	H326	H	0.981347	-0.008860	-0.032939
	O327	O	0.986388	0.993164	0.019890
	H328	H	0.984150	0.997806	0.028338
	H329	H	0.984446	0.995570	0.014326
	O330	O	0.502623	0.483331	0.487428
	H331	H	0.508298	0.489038	0.489525
	H332	H	0.505535	0.473969	0.488110
	O333	O	0.532249	0.583791	0.478945
	H334	H	0.534090	0.595611	0.467987
	H335	H	0.529812	0.578858	0.476282
