data_Molecule from HDF5

_cell_length_a		16.263057
_cell_length_b		16.211593
_cell_length_c		16.271691
_cell_angle_alpha	89.903674
_cell_angle_beta	90.106833
_cell_angle_gamma	90.050269
_symmetry_space_group_name_H-M	'P 1'
_symmetry_Int_Tables_number		1

loop_
	_symmetry_equiv_pos_as_xyz
	x,y,z

loop_
	_atom_site_label
	_atom_site_type_symbol
	_atom_site_fract_x
	_atom_site_fract_y
	_atom_site_fract_z
	H0	H	0.402959	0.835250	0.712833
	H1	H	0.598039	0.164466	0.713065
	H2	H	0.596984	0.835557	0.287682
	H3	H	0.402605	0.163690	0.284814
	H4	H	0.714236	0.401963	0.835690
	H5	H	0.714165	0.598057	0.164003
	H6	H	0.285319	0.597943	0.836180
	H7	H	0.285435	0.400786	0.163978
	H8	H	0.836134	0.714678	0.401274
	H9	H	0.164517	0.713993	0.597077
	H10	H	0.835248	0.285989	0.596897
	H11	H	0.164846	0.287278	0.403139
	H12	H	0.835393	0.401817	0.713540
	H13	H	0.164325	0.598539	0.714294
	H14	H	0.836453	0.598574	0.284991
	H15	H	0.164592	0.403265	0.287572
	H16	H	0.402901	0.713072	0.835429
	H17	H	0.596569	0.712102	0.164410
	H18	H	0.596418	0.286577	0.835363
	H19	H	0.401758	0.285601	0.163817
	H20	H	0.712528	0.835171	0.402723
	H21	H	0.712974	0.164286	0.596808
	H22	H	0.287327	0.835579	0.596995
	H23	H	0.287956	0.164633	0.401577
	H24	H	0.902477	0.335634	0.213447
	H25	H	0.098072	0.664599	0.213011
	H26	H	0.097011	0.334774	0.786943
	H27	H	0.901705	0.664348	0.786113
	H28	H	0.213387	0.903256	0.335267
	H29	H	0.214961	0.098224	0.663465
	H30	H	0.785624	0.099115	0.335693
	H31	H	0.786568	0.901266	0.663783
	H32	H	0.335162	0.212181	0.902509
	H33	H	0.663665	0.214493	0.097950
	H34	H	0.335923	0.786626	0.097693
	H35	H	0.664292	0.788280	0.904545
	H36	H	0.336409	0.901898	0.214088
	H37	H	0.663987	0.099056	0.214826
	H38	H	0.336314	0.098566	0.784957
	H39	H	0.663664	0.903471	0.788143
	H40	H	0.903832	0.213194	0.335803
	H41	H	0.097767	0.212737	0.664417
	H42	H	0.097409	0.786617	0.335882
	H43	H	0.903396	0.786277	0.664144
	H44	H	0.213175	0.335268	0.901822
	H45	H	0.213037	0.664772	0.096826
	H46	H	0.786501	0.335235	0.097515
	H47	H	0.787099	0.664961	0.901694
	H48	H	0.414444	0.113586	0.586970
	H49	H	0.593479	0.878018	0.608425
	H50	H	0.587365	0.115654	0.406426
	H51	H	0.413444	0.886016	0.413363
	H52	H	0.593092	0.413799	0.114454
	H53	H	0.590181	0.592855	0.884641
	H54	H	0.415538	0.593103	0.114388
	H55	H	0.404878	0.404649	0.882477
	H56	H	0.114811	0.581293	0.402427
	H57	H	0.878964	0.602852	0.600578
	H58	H	0.116990	0.406280	0.595701
	H59	H	0.885376	0.413089	0.405712
	H60	H	0.116199	0.405485	0.592184
	H61	H	0.885982	0.595193	0.582183
	H62	H	0.122517	0.602529	0.396982
	H63	H	0.880119	0.402293	0.399964
	H64	H	0.401724	0.601619	0.120840
	H65	H	0.594938	0.598509	0.881464
	H66	H	0.587751	0.403753	0.115775
	H67	H	0.403920	0.409119	0.882925
	H68	H	0.595713	0.117105	0.412406
	H69	H	0.581343	0.887300	0.588876
	H70	H	0.398555	0.119687	0.590156
	H71	H	0.396863	0.880180	0.410095
	H72	H	0.907213	0.616096	0.089986
	H73	H	0.099520	0.380935	0.092178
	H74	H	0.096268	0.617532	0.909050
	H75	H	0.912955	0.383738	0.901619
	H76	H	0.096463	0.901247	0.618428
	H77	H	0.088091	0.096325	0.383867
	H78	H	0.898406	0.093990	0.619282
	H79	H	0.907171	0.906135	0.382967
	H80	H	0.618638	0.096218	0.903192
	H81	H	0.383425	0.090632	0.094243
	H82	H	0.614030	0.916892	0.096104
	H83	H	0.380321	0.904918	0.900842
	H84	H	0.622174	0.900156	0.103420
	H85	H	0.382378	0.092950	0.094098
	H86	H	0.616016	0.094898	0.909800
	H87	H	0.381360	0.902088	0.909486
	H88	H	0.908787	0.086468	0.614931
	H89	H	0.099125	0.097979	0.380603
	H90	H	0.098228	0.912067	0.616654
	H91	H	0.904301	0.907802	0.382321
	H92	H	0.092771	0.618192	0.902424
	H93	H	0.091221	0.380549	0.100290
	H94	H	0.903555	0.618421	0.093469
	H95	H	0.905439	0.384074	0.914425
	H96	H	0.410320	0.119350	0.603016
	H97	H	0.605301	0.880913	0.586915
	H98	H	0.596242	0.119527	0.402235
	H99	H	0.408975	0.880171	0.396938
	H100	H	0.598914	0.405225	0.118156
	H101	H	0.597409	0.591843	0.882277
	H102	H	0.400898	0.585367	0.116070
	H103	H	0.407971	0.408143	0.884192
	H104	H	0.114760	0.598096	0.418322
	H105	H	0.884810	0.582356	0.598842
	H106	H	0.115790	0.409382	0.593899
	H107	H	0.883967	0.401925	0.412013
	H108	H	0.909261	0.617127	0.095587
	H109	H	0.088603	0.385276	0.089009
	H110	H	0.089257	0.615333	0.908153
	H111	H	0.898637	0.378959	0.902260
	H112	H	0.087848	0.907320	0.614248
	H113	H	0.095441	0.087715	0.384468
	H114	H	0.911058	0.099147	0.617283
	H115	H	0.906677	0.909450	0.384404
	H116	H	0.616417	0.090216	0.904757
	H117	H	0.384323	0.092387	0.092211
	H118	H	0.616244	0.900973	0.084303
	H119	H	0.383657	0.911103	0.906842
	C120	C	0.379133	0.008836	0.621440
	C121	C	0.621670	0.991121	0.622133
	C122	C	0.621477	0.008513	0.378959
	C123	C	0.378677	0.990969	0.378373
	C124	C	0.621414	0.378637	0.007635
	C125	C	0.621905	0.622051	0.991622
	C126	C	0.378202	0.621311	0.008243
	C127	C	0.377790	0.378607	0.991683
	C128	C	0.008517	0.621718	0.378426
	C129	C	0.991880	0.621416	0.621628
	C130	C	0.007993	0.378365	0.621667
	C131	C	0.991873	0.378460	0.378612
	C132	C	0.878570	0.508308	0.121110
	C133	C	0.121425	0.491354	0.121653
	C134	C	0.120695	0.508211	0.878600
	C135	C	0.878214	0.491591	0.878378
	C136	C	0.122341	0.878378	0.508154
	C137	C	0.121992	0.121906	0.491525
	C138	C	0.878742	0.121247	0.508334
	C139	C	0.877870	0.878425	0.491397
	C140	C	0.508466	0.121616	0.877973
	C141	C	0.491457	0.121125	0.121828
	C142	C	0.509036	0.877957	0.122042
	C143	C	0.490692	0.878563	0.878363
	C144	C	0.382300	0.884603	0.675420
	C145	C	0.618967	0.115040	0.676125
	C146	C	0.618158	0.884711	0.324762
	C147	C	0.382294	0.115058	0.323601
	C148	C	0.675842	0.381658	0.884457
	C149	C	0.676308	0.618484	0.115089
	C150	C	0.323537	0.618636	0.884871
	C151	C	0.323172	0.380794	0.115060
	C152	C	0.884987	0.676302	0.381166
	C153	C	0.115619	0.676028	0.618101
	C154	C	0.884427	0.323268	0.618329
	C155	C	0.115749	0.324712	0.382430
	C156	C	0.884374	0.380988	0.675937
	C157	C	0.115468	0.618916	0.676462
	C158	C	0.885211	0.618880	0.323264
	C159	C	0.115595	0.381975	0.324728
	C160	C	0.381724	0.675876	0.884588
	C161	C	0.618161	0.675416	0.115274
	C162	C	0.617414	0.324329	0.884429
	C163	C	0.380919	0.323491	0.114865
	C164	C	0.675575	0.884671	0.381941
	C165	C	0.676313	0.115056	0.618444
	C166	C	0.324647	0.884767	0.618101
	C167	C	0.324834	0.115350	0.381093
	C168	C	0.881682	0.384616	0.175809
	C169	C	0.118616	0.615416	0.175596
	C170	C	0.117750	0.384028	0.824303
	C171	C	0.881472	0.615336	0.823907
	C172	C	0.176214	0.881919	0.384550
	C173	C	0.176778	0.118548	0.614945
	C174	C	0.823470	0.119309	0.384928
	C175	C	0.823872	0.880903	0.614967
	C176	C	0.384407	0.175093	0.881709
	C177	C	0.615061	0.176166	0.118544
	C178	C	0.385139	0.824009	0.118480
	C179	C	0.614835	0.825201	0.882755
	C180	C	0.385403	0.880786	0.176641
	C181	C	0.615111	0.119188	0.176725
	C182	C	0.384983	0.119065	0.822963
	C183	C	0.614680	0.882338	0.825073
	C184	C	0.882436	0.175950	0.384639
	C185	C	0.118744	0.175661	0.615244
	C186	C	0.118264	0.824373	0.384519
	C187	C	0.882115	0.823973	0.615084
	C188	C	0.175227	0.384141	0.881680
	C189	C	0.176022	0.615356	0.118232
	C190	C	0.824095	0.384445	0.118081
	C191	C	0.824464	0.615612	0.881568
	C192	C	0.401256	0.095351	0.599827
	C193	C	0.599861	0.904346	0.601001
	C194	C	0.599709	0.095111	0.400623
	C195	C	0.400289	0.904534	0.400357
	C196	C	0.599763	0.401094	0.093999
	C197	C	0.600524	0.600725	0.905172
	C198	C	0.399715	0.599644	0.094713
	C199	C	0.399304	0.400742	0.905374
	C200	C	0.095006	0.600366	0.399643
	C201	C	0.905633	0.599854	0.600265
	C202	C	0.094033	0.400386	0.600299
	C203	C	0.905415	0.399557	0.399722
	C204	C	0.900153	0.595105	0.099332
	C205	C	0.099627	0.404779	0.100116
	C206	C	0.099045	0.594488	0.900253
	C207	C	0.899576	0.404673	0.899876
	C208	C	0.100816	0.900286	0.594311
	C209	C	0.100479	0.100361	0.405186
	C210	C	0.900036	0.099577	0.594708
	C211	C	0.899555	0.901135	0.405395
	C212	C	0.594822	0.100270	0.899684
	C213	C	0.405619	0.098696	0.099864
	C214	C	0.595202	0.899562	0.100894
	C215	C	0.404018	0.899676	0.899400
	Zn216	Zn	0.500000	-0.000031	0.750106
	Zn217	Zn	0.500487	-0.000289	0.250427
	Zn218	Zn	0.750133	0.500366	-0.000351
	Zn219	Zn	0.249249	0.499823	-0.000114
	Zn220	Zn	-0.000168	0.750443	0.500062
	Zn221	Zn	0.000474	0.249976	0.500313
	Zn222	Zn	-0.000278	0.499906	0.750350
	Zn223	Zn	0.000355	0.499747	0.250059
	Zn224	Zn	0.499960	0.750177	-0.000058
	Zn225	Zn	0.499256	0.249775	-0.000037
	Zn226	Zn	0.749633	-0.000260	0.499814
	Zn227	Zn	0.250709	0.000316	0.499729
	N228	N	0.415303	0.962619	0.677708
	N229	N	0.585639	0.037185	0.678340
	N230	N	0.585152	0.962823	0.322943
	N231	N	0.414865	0.036780	0.321592
	N232	N	0.678261	0.414623	0.962313
	N233	N	0.678773	0.586254	0.036955
	N234	N	0.321227	0.585591	0.962591
	N235	N	0.321308	0.414553	0.037492
	N236	N	0.962570	0.678073	0.414748
	N237	N	0.037892	0.677864	0.584780
	N238	N	0.962115	0.321625	0.585236
	N239	N	0.037950	0.322444	0.415297
	N240	N	0.962091	0.414520	0.678303
	N241	N	0.037490	0.585928	0.678773
	N242	N	0.963066	0.585750	0.321306
	N243	N	0.037627	0.414622	0.322041
	N244	N	0.414907	0.677685	0.962406
	N245	N	0.584989	0.677720	0.037511
	N246	N	0.584087	0.322582	0.962110
	N247	N	0.413843	0.321724	0.037155
	N248	N	0.677683	0.962622	0.414881
	N249	N	0.678003	0.036995	0.585556
	N250	N	0.322542	0.963019	0.585297
	N251	N	0.322794	0.037452	0.414629
	N252	N	0.914817	0.462692	0.177882
	N253	N	0.085338	0.537364	0.177783
	N254	N	0.084677	0.462026	0.822248
	N255	N	0.914073	0.537088	0.821574
	N256	N	0.178674	0.914700	0.462388
	N257	N	0.178873	0.085771	0.537108
	N258	N	0.821086	0.086094	0.462755
	N259	N	0.821263	0.914018	0.537115
	N260	N	0.462008	0.176951	0.915222
	N261	N	0.537442	0.177670	0.085204
	N262	N	0.462802	0.822069	0.085332
	N263	N	0.536888	0.822811	0.915221
	N264	N	0.463166	0.913993	0.178820
	N265	N	0.537367	0.085487	0.178837
	N266	N	0.463058	0.086375	0.820727
	N267	N	0.536567	0.914986	0.822529
	N268	N	0.915976	0.177258	0.462290
	N269	N	0.085230	0.177575	0.537601
	N270	N	0.085216	0.822331	0.462277
	N271	N	0.915024	0.822592	0.537347
	N272	N	0.177477	0.462244	0.914626
	N273	N	0.177834	0.537261	0.085282
	N274	N	0.822185	0.462477	0.084906
	N275	N	0.822294	0.537426	0.914593
