data_Molecule from HDF5

_cell_length_a		16.527890
_cell_length_b		16.562067
_cell_length_c		16.474579
_cell_angle_alpha	89.950899
_cell_angle_beta	89.950091
_cell_angle_gamma	90.023503
_symmetry_space_group_name_H-M	'P 1'
_symmetry_Int_Tables_number		1

loop_
	_symmetry_equiv_pos_as_xyz
	x,y,z

loop_
	_atom_site_label
	_atom_site_type_symbol
	_atom_site_fract_x
	_atom_site_fract_y
	_atom_site_fract_z
	H0	H	0.416225	0.864973	0.708483
	H1	H	0.623966	0.179207	0.710779
	H2	H	0.628061	0.867425	0.264380
	H3	H	0.412948	0.178503	0.264958
	H4	H	0.738700	0.420074	0.831262
	H5	H	0.742748	0.627257	0.147175
	H6	H	0.302627	0.623864	0.831785
	H7	H	0.298424	0.415569	0.148012
	H8	H	0.864029	0.743394	0.383431
	H9	H	0.177315	0.742588	0.592148
	H10	H	0.865171	0.299937	0.595775
	H11	H	0.176670	0.297559	0.379028
	H12	H	0.863342	0.419510	0.709151
	H13	H	0.179000	0.624727	0.707800
	H14	H	0.864281	0.627405	0.267816
	H15	H	0.177320	0.415706	0.265731
	H16	H	0.418341	0.740483	0.832206
	H17	H	0.626717	0.744257	0.146851
	H18	H	0.622559	0.303472	0.831873
	H19	H	0.415746	0.299998	0.148725
	H20	H	0.745695	0.868341	0.380716
	H21	H	0.744200	0.177723	0.596726
	H22	H	0.300222	0.864856	0.591238
	H23	H	0.296881	0.178424	0.381313
	H24	H	0.914215	0.366009	0.213951
	H25	H	0.127936	0.679223	0.212276
	H26	H	0.125534	0.365436	0.768511
	H27	H	0.921526	0.680723	0.773314
	H28	H	0.242837	0.914659	0.330784
	H29	H	0.239915	0.124545	0.646209
	H30	H	0.797082	0.129932	0.333353
	H31	H	0.799349	0.917498	0.645691
	H32	H	0.362775	0.242557	0.885921
	H33	H	0.678494	0.243367	0.094687
	H34	H	0.364977	0.797259	0.098112
	H35	H	0.677340	0.802033	0.885162
	H36	H	0.363648	0.915036	0.212261
	H37	H	0.677691	0.127096	0.211252
	H38	H	0.361453	0.125495	0.770733
	H39	H	0.676752	0.918423	0.768431
	H40	H	0.911676	0.247428	0.333509
	H41	H	0.128414	0.244788	0.644849
	H42	H	0.127115	0.798877	0.331401
	H43	H	0.916994	0.802258	0.646441
	H44	H	0.240715	0.364470	0.886726
	H45	H	0.245737	0.677944	0.097581
	H46	H	0.798401	0.365120	0.097629
	H47	H	0.803673	0.680059	0.889288
	H48	H	0.429597	0.133979	0.575918
	H49	H	0.615247	0.910018	0.574343
	H50	H	0.613200	0.132422	0.409487
	H51	H	0.430245	0.910603	0.402211
	H52	H	0.605695	0.430716	0.102646
	H53	H	0.617090	0.614914	0.874025
	H54	H	0.432132	0.607499	0.102369
	H55	H	0.429933	0.426386	0.876249
	H56	H	0.133270	0.611251	0.400005
	H57	H	0.906803	0.612172	0.581243
	H58	H	0.134975	0.435310	0.582911
	H59	H	0.911945	0.442652	0.398551
	H60	H	0.135115	0.427412	0.576329
	H61	H	0.906003	0.614673	0.581992
	H62	H	0.132697	0.611660	0.403093
	H63	H	0.906004	0.428815	0.399064
	H64	H	0.435559	0.608655	0.101366
	H65	H	0.611742	0.605884	0.879083
	H66	H	0.612948	0.431469	0.105617
	H67	H	0.426653	0.434607	0.878124
	H68	H	0.608490	0.135886	0.394937
	H69	H	0.609695	0.907799	0.584834
	H70	H	0.426245	0.136563	0.579853
	H71	H	0.430985	0.910235	0.398288
	H72	H	0.935573	0.631501	0.078142
	H73	H	0.108276	0.411333	0.079164
	H74	H	0.108564	0.634036	0.897396
	H75	H	0.925854	0.407041	0.897591
	H76	H	0.109950	0.932433	0.600005
	H77	H	0.107302	0.108234	0.377542
	H78	H	0.933396	0.108557	0.600638
	H79	H	0.933981	0.938571	0.378090
	H80	H	0.632912	0.111915	0.900037
	H81	H	0.408421	0.103253	0.086766
	H82	H	0.631144	0.934751	0.077094
	H83	H	0.407701	0.929691	0.905043
	H84	H	0.631506	0.933427	0.076110
	H85	H	0.404558	0.121151	0.078234
	H86	H	0.633241	0.112910	0.897726
	H87	H	0.408168	0.936030	0.899659
	H88	H	0.935158	0.110198	0.599878
	H89	H	0.106147	0.111086	0.376397
	H90	H	0.109174	0.932348	0.600567
	H91	H	0.936102	0.930003	0.376550
	H92	H	0.112744	0.633707	0.904214
	H93	H	0.105422	0.413219	0.076152
	H94	H	0.929581	0.632902	0.075591
	H95	H	0.932419	0.408556	0.896064
	H96	H	0.431984	0.134956	0.581105
	H97	H	0.603361	0.913547	0.575935
	H98	H	0.598803	0.128996	0.404614
	H99	H	0.433350	0.911414	0.400529
	H100	H	0.609559	0.437337	0.101501
	H101	H	0.606139	0.615782	0.877616
	H102	H	0.433357	0.610703	0.104151
	H103	H	0.435342	0.433307	0.879593
	H104	H	0.132091	0.608821	0.402049
	H105	H	0.907396	0.614429	0.579475
	H106	H	0.130120	0.436157	0.573635
	H107	H	0.913122	0.434312	0.411375
	H108	H	0.931429	0.635076	0.081395
	H109	H	0.110024	0.412160	0.075132
	H110	H	0.116063	0.636706	0.897606
	H111	H	0.930348	0.409424	0.902896
	H112	H	0.109557	0.932226	0.600837
	H113	H	0.109251	0.110557	0.375240
	H114	H	0.933306	0.110630	0.601997
	H115	H	0.927787	0.933120	0.374857
	H116	H	0.633642	0.114095	0.899665
	H117	H	0.413959	0.106693	0.067618
	H118	H	0.630450	0.934916	0.075030
	H119	H	0.405140	0.928772	0.897029
	C120	C	0.398433	0.030928	0.610049
	C121	C	0.641636	1.013893	0.611043
	C122	C	0.640786	0.030151	0.368809
	C123	C	0.398370	1.013849	0.366642
	C124	C	0.640913	0.401561	-0.001529
	C125	C	0.643117	0.643977	0.981211
	C126	C	0.401454	0.640837	-0.001455
	C127	C	0.398638	0.399334	0.982276
	C128	C	0.029074	0.642788	0.369066
	C129	C	1.011576	0.644141	0.611202
	C130	C	0.029822	0.400623	0.610486
	C131	C	1.012845	0.401150	0.368367
	C132	C	0.898891	0.529875	0.111523
	C133	C	0.141836	0.514890	0.110662
	C134	C	0.143403	0.530988	0.868249
	C135	C	0.899876	0.513328	0.868607
	C136	C	0.141956	0.900135	0.496500
	C137	C	0.141182	0.143076	0.479689
	C138	C	0.899842	0.143628	0.497640
	C139	C	0.899803	0.901309	0.480114
	C140	C	0.528742	0.143724	0.868321
	C141	C	0.512470	0.143248	0.110826
	C142	C	0.528531	0.900477	0.110576
	C143	C	0.511242	0.900639	0.868472
	C144	C	0.397534	0.912183	0.668582
	C145	C	0.643278	0.132016	0.670995
	C146	C	0.645319	0.913718	0.306187
	C147	C	0.395062	0.131420	0.305235
	C148	C	0.699266	0.400969	0.878828
	C149	C	0.702827	0.645988	0.099934
	C150	C	0.342157	0.642479	0.879392
	C151	C	0.338937	0.397361	0.100986
	C152	C	0.911082	0.703107	0.365866
	C153	C	0.130458	0.702610	0.611462
	C154	C	0.911915	0.340379	0.613580
	C155	C	0.129769	0.338884	0.362818
	C156	C	0.911107	0.399660	0.670039
	C157	C	0.131172	0.644190	0.668844
	C158	C	0.911163	0.645144	0.308398
	C159	C	0.130213	0.397699	0.306110
	C160	C	0.399563	0.700330	0.879353
	C161	C	0.645396	0.704260	0.099764
	C162	C	0.641563	0.343048	0.879026
	C163	C	0.397222	0.339839	0.101142
	C164	C	0.703994	0.914295	0.363581
	C165	C	0.702612	0.131430	0.614243
	C166	C	0.339973	0.912010	0.610301
	C167	C	0.337394	0.131420	0.363469
	C168	C	0.896107	0.412647	0.173011
	C169	C	0.145661	0.632187	0.171920
	C170	C	0.144342	0.412517	0.808681
	C171	C	0.901311	0.633164	0.812102
	C172	C	0.202430	0.897066	0.377925
	C173	C	0.201379	0.144431	0.598395
	C174	C	0.837404	0.147966	0.380408
	C175	C	0.839206	0.898640	0.598520
	C176	C	0.409880	0.202929	0.867348
	C177	C	0.630824	0.203597	0.113381
	C178	C	0.411591	0.838249	0.115407
	C179	C	0.629761	0.841592	0.866314
	C180	C	0.411044	0.896973	0.172314
	C181	C	0.630678	0.145868	0.171398
	C182	C	0.409204	0.144241	0.810304
	C183	C	0.629614	0.899631	0.808382
	C184	C	0.894825	0.205995	0.380367
	C185	C	0.145664	0.204096	0.597712
	C186	C	0.144949	0.839241	0.378438
	C187	C	0.897632	0.841538	0.598731
	C188	C	0.201493	0.411747	0.867508
	C189	C	0.204313	0.631621	0.114749
	C190	C	0.838267	0.412445	0.115100
	C191	C	0.842733	0.632741	0.869503
	C192	C	0.422417	0.113768	0.585793
	C193	C	0.616641	0.931793	0.585656
	C194	C	0.614308	0.111434	0.395493
	C195	C	0.424199	0.931993	0.392791
	C196	C	0.616401	0.426182	0.081576
	C197	C	0.618588	0.619338	0.898497
	C198	C	0.426394	0.616092	0.080999
	C199	C	0.423584	0.424295	0.899425
	C200	C	0.111288	0.617700	0.394547
	C201	C	0.928519	0.620646	0.587677
	C202	C	0.112084	0.425786	0.584894
	C203	C	0.931478	0.427692	0.395421
	C204	C	0.924833	0.611866	0.085646
	C205	C	0.115279	0.433485	0.084426
	C206	C	0.119552	0.613410	0.892747
	C207	C	0.923107	0.430155	0.892080
	C208	C	0.116859	0.925292	0.578938
	C209	C	0.114988	0.117373	0.397750
	C210	C	0.926347	0.117264	0.579438
	C211	C	0.925203	0.926754	0.397833
	C212	C	0.611571	0.119936	0.892347
	C213	C	0.430478	0.117641	0.085067
	C214	C	0.609951	0.926919	0.083905
	C215	C	0.428532	0.924768	0.893552
	Zn216	Zn	0.519185	0.022460	0.739681
	Zn217	Zn	0.520352	0.022294	0.238866
	Zn218	Zn	0.770368	0.521443	-0.010072
	Zn219	Zn	0.271405	0.521673	-0.009042
	Zn220	Zn	0.020928	0.772310	0.488561
	Zn221	Zn	0.020886	0.272084	0.489095
	Zn222	Zn	0.021660	0.522203	0.739482
	Zn223	Zn	0.021062	0.522475	0.239601
	Zn224	Zn	0.520508	0.771559	-0.010145
	Zn225	Zn	0.520714	0.272055	-0.009574
	Zn226	Zn	0.771099	0.022521	0.489454
	Zn227	Zn	0.269595	0.021934	0.487808
	N228	N	0.432792	0.987285	0.668607
	N229	N	0.605997	0.057922	0.669113
	N230	N	0.606391	0.986626	0.309758
	N231	N	0.432284	0.057175	0.307112
	N232	N	0.699001	0.436413	0.954227
	N233	N	0.701551	0.609428	0.025233
	N234	N	0.343001	0.606366	0.954434
	N235	N	0.339524	0.433400	0.025885
	N236	N	0.985516	0.701750	0.402825
	N237	N	0.055122	0.702795	0.576492
	N238	N	0.986761	0.340942	0.577508
	N239	N	0.055860	0.341065	0.400884
	N240	N	0.985680	0.436517	0.668436
	N241	N	0.056263	0.608709	0.669019
	N242	N	0.985527	0.608461	0.310119
	N243	N	0.056374	0.435874	0.309326
	N244	N	0.435755	0.699525	0.954413
	N245	N	0.609041	0.703246	0.024796
	N246	N	0.606148	0.343232	0.954453
	N247	N	0.433310	0.340926	0.026098
	N248	N	0.701134	0.987643	0.401954
	N249	N	0.701557	0.057020	0.577580
	N250	N	0.340256	0.986984	0.574550
	N251	N	0.339347	0.057292	0.400758
	N252	N	0.933095	0.486843	0.171093
	N253	N	0.107228	0.558583	0.169252
	N254	N	0.109143	0.487601	0.808844
	N255	N	0.935930	0.557852	0.811280
	N256	N	0.200753	0.934289	0.452369
	N257	N	0.199050	0.107330	0.523909
	N258	N	0.840293	0.110006	0.454501
	N259	N	0.840485	0.935050	0.523748
	N260	N	0.485146	0.202814	0.902786
	N261	N	0.556223	0.202208	0.076765
	N262	N	0.485762	0.839958	0.077971
	N263	N	0.555111	0.841976	0.902933
	N264	N	0.484983	0.934846	0.169525
	N265	N	0.556027	0.109246	0.170025
	N266	N	0.484108	0.108569	0.810275
	N267	N	0.554746	0.935762	0.809756
	N268	N	0.933123	0.203337	0.454269
	N269	N	0.109392	0.203618	0.522779
	N270	N	0.107918	0.841157	0.453055
	N271	N	0.934230	0.842578	0.523914
	N272	N	0.201349	0.486471	0.903631
	N273	N	0.201866	0.557649	0.077485
	N274	N	0.840064	0.486460	0.077571
	N275	N	0.841532	0.557157	0.903720
	O276	O	0.742652	0.585252	0.440063
	H277	H	0.744882	0.563770	0.433803
	H278	H	0.734017	0.564609	0.443474
	O279	O	0.019611	-0.186372	1.085868
	H280	H	0.021010	-0.184759	1.093857
	H281	H	0.019760	-0.188748	1.096834
	O282	O	0.462326	0.421491	0.387118
	H283	H	0.463950	0.422354	0.394398
	H284	H	0.453226	0.432773	0.379656
	O285	O	0.732432	0.737777	0.517847
	H286	H	0.740550	0.726328	0.502061
	H287	H	0.747756	0.738387	0.503496
	O288	O	0.808261	0.044347	0.794638
	H289	H	0.807287	0.023518	0.802074
	H290	H	0.803622	0.042715	0.777686
	O291	O	0.221265	1.197620	-0.099594
	H292	H	0.221000	1.211967	-0.087200
	H293	H	0.217572	1.173147	-0.121410
	O294	O	0.232708	0.033400	0.166959
	H295	H	0.246601	0.031192	0.167287
	H296	H	0.232047	0.015502	0.147879
	O297	O	0.746255	0.304320	1.265475
	H298	H	0.753743	0.297350	1.283171
	H299	H	0.733538	0.295085	1.254766
	O300	O	-0.174927	-0.166875	-0.056760
	H301	H	-0.170267	-0.169052	-0.043594
	H302	H	-0.184525	-0.180803	-0.043967
	O303	O	0.097192	0.008160	0.052380
	H304	H	0.092437	0.012388	0.040370
	H305	H	0.104760	0.006865	0.060791
	O306	O	1.241595	-0.130815	-0.012223
	H307	H	1.249755	-0.141005	-0.027623
	H308	H	1.239381	-0.135678	-0.036688
	O309	O	0.312676	0.722674	0.475098
	H310	H	0.310441	0.725871	0.436662
	H311	H	0.308111	0.733576	0.469370
	O312	O	0.702005	0.339828	0.671702
	H313	H	0.686055	0.362883	0.660080
	H314	H	0.691130	0.345248	0.669706
	O315	O	0.443280	0.428477	0.367409
	H316	H	0.431846	0.407699	0.371736
	H317	H	0.454811	0.433406	0.371779
	O318	O	0.399807	0.539310	-0.303897
	H319	H	0.398964	0.547145	-0.328233
	H320	H	0.407822	0.537406	-0.290236
	O321	O	0.517374	0.557831	0.588552
	H322	H	0.505751	0.561108	0.587291
	H323	H	0.528125	0.569365	0.584900
	O324	O	1.319920	-0.683390	0.688801
	H325	H	1.300618	-0.675080	0.697626
	H326	H	1.313033	-0.654712	0.671931
	O327	O	0.233759	0.809550	0.778512
	H328	H	0.259854	0.779466	0.748363
	H329	H	0.223393	0.818245	0.786947
	O330	O	0.364407	0.725120	0.289639
	H331	H	0.390961	0.722451	0.283274
	H332	H	0.355207	0.717641	0.277282
	O333	O	0.043916	0.234735	1.202576
	H334	H	0.057796	0.246555	1.215780
	H335	H	0.031882	0.229788	1.204997
	O336	O	0.376564	0.455037	0.391498
	H337	H	0.395625	0.451977	0.389783
	H338	H	0.381902	0.452852	0.388069
	O339	O	0.530440	0.331896	0.488621
	H340	H	0.526570	0.327300	0.486656
	H341	H	0.532685	0.332112	0.505776
	O342	O	-0.183720	1.226209	-0.210257
	H343	H	-0.182574	1.235635	-0.223718
	H344	H	-0.191768	1.193044	-0.222241
	O345	O	0.873147	1.009293	-0.102913
	H346	H	0.873341	1.013897	-0.104234
	H347	H	0.869214	1.023862	-0.098419
	O348	O	0.739950	0.416818	0.522916
	H349	H	0.738452	0.419151	0.517076
	H350	H	0.743181	0.397919	0.535334
	O351	O	-0.274020	-0.269256	0.697985
	H352	H	-0.269500	-0.268568	0.655181
	H353	H	-0.253388	-0.254726	0.716556
	O354	O	1.139633	0.114195	0.820424
	H355	H	1.147784	0.120145	0.805415
	H356	H	1.112472	0.104883	0.820830
	O357	O	0.305253	0.403500	0.630380
	H358	H	0.313945	0.440007	0.607114
	H359	H	0.273102	0.404182	0.649047
	O360	O	0.077259	-0.014251	0.925781
	H361	H	0.087329	-0.009718	0.914199
	H362	H	0.080018	-0.006253	0.930951
	O363	O	0.486463	0.302541	0.700853
	H364	H	0.462448	0.299042	0.714927
	H365	H	0.459383	0.288146	0.711570
	O366	O	1.533623	0.315709	0.525848
	H367	H	1.515201	0.309564	0.542765
	H368	H	1.541116	0.315582	0.543607
	O369	O	-0.519472	-0.266580	0.526602
	H370	H	-0.515532	-0.262919	0.543595
	H371	H	-0.525916	-0.260566	0.531827
	O372	O	0.004276	1.215766	0.775140
	H373	H	0.001316	1.213419	0.779274
	H374	H	-0.009477	1.227441	0.761858
	O375	O	1.160466	-0.140591	0.146276
	H376	H	1.151830	-0.134302	0.140178
	H377	H	1.156074	-0.140229	0.136570
	O378	O	0.727188	0.315503	0.410778
	H379	H	0.746039	0.297863	0.400361
	H380	H	0.702766	0.311587	0.413305
	O381	O	-0.665535	0.706939	-0.323496
	H382	H	-0.634196	0.695505	-0.334973
	H383	H	-0.658662	0.688855	-0.350617
	O384	O	0.513479	0.741698	0.310010
	H385	H	0.516961	0.752449	0.324554
	H386	H	0.521355	0.750991	0.288947
	O387	O	0.347287	0.553271	0.412503
	H388	H	0.359654	0.560632	0.404440
	H389	H	0.346266	0.534211	0.417462
	O390	O	0.017404	0.850070	0.916856
	H391	H	0.002538	0.854024	0.937495
	H392	H	0.025700	0.843629	0.926836
	O393	O	0.903615	0.230903	-0.056605
	H394	H	0.881760	0.241621	-0.046904
	H395	H	0.915046	0.226210	-0.074759
	O396	O	-0.178871	-0.056017	0.192626
	H397	H	-0.177840	-0.038205	0.181450
	H398	H	-0.185482	-0.051731	0.183277
	O399	O	0.114069	1.055810	0.895858
	H400	H	0.112072	1.061719	0.895008
	H401	H	0.102770	1.052187	0.886502
	O402	O	1.006644	-0.158662	1.105654
	H403	H	0.996035	-0.171406	1.118125
	H404	H	0.991838	-0.159948	1.114650
	O405	O	0.734426	0.502328	0.277439
	H406	H	0.751350	0.492226	0.261262
	H407	H	0.730817	0.478947	0.277763
	O408	O	1.167786	1.202866	0.976027
	H409	H	1.152711	1.193970	0.996471
	H410	H	1.195386	1.222106	0.970750
	O411	O	0.571705	0.577366	0.268214
	H412	H	0.584583	0.569377	0.263229
	H413	H	0.568682	0.594671	0.271000
	O414	O	0.199952	-0.046954	0.061877
	H415	H	0.203114	-0.061672	0.053751
	H416	H	0.202979	-0.051475	0.066061
	O417	O	0.532851	0.727304	0.687085
	H418	H	0.551745	0.719557	0.694697
	H419	H	0.558634	0.736829	0.698798
	O420	O	1.208402	0.213402	1.183386
	H421	H	1.207399	0.173226	1.182820
	H422	H	1.188743	0.212806	1.168720
	O423	O	1.333190	1.562544	0.545879
	H424	H	1.335049	1.578318	0.522771
	H425	H	1.334856	1.558617	0.518269
	O426	O	0.008367	1.017118	1.012924
	H427	H	0.013861	1.018002	1.022655
	H428	H	0.010681	1.031213	1.002122
	O429	O	0.403161	0.312680	0.431910
	H430	H	0.379114	0.292264	0.446507
	H431	H	0.411884	0.299961	0.439265
	O432	O	0.841429	0.069277	1.002949
	H433	H	0.831118	0.069962	1.011882
	H434	H	0.857603	0.078353	1.012910
	O435	O	0.556456	0.487484	0.699284
	H436	H	0.561174	0.473232	0.712889
	H437	H	0.549974	0.492235	0.688274
	O438	O	0.310481	0.542087	0.290023
	H439	H	0.308873	0.535053	0.287547
	H440	H	0.322653	0.532065	0.274664
	O441	O	0.720138	0.541999	0.693875
	H442	H	0.732597	0.546615	0.703935
	H443	H	0.711337	0.562462	0.688620
	O444	O	1.236521	-0.007989	-0.225143
	H445	H	1.252422	-0.020474	-0.239012
	H446	H	1.238278	-0.019619	-0.227692
	O447	O	0.816795	-0.186205	1.125692
	H448	H	0.797238	-0.207355	1.139496
	H449	H	0.815330	-0.162803	1.116289
	O450	O	0.618688	0.736845	0.387654
	H451	H	0.613725	0.737245	0.396544
	H452	H	0.618628	0.748510	0.387328
	O453	O	0.705581	0.618122	0.382904
	H454	H	0.689746	0.603605	0.390926
	H455	H	0.698068	0.598380	0.383973
	O456	O	-0.115786	1.038673	1.199666
	H457	H	-0.116530	1.037436	1.203907
	H458	H	-0.100679	1.040079	1.200997
	O459	O	0.779201	0.770185	0.754998
	H460	H	0.799238	0.767699	0.759237
	H461	H	0.791577	0.779958	0.776775
	O462	O	0.520786	0.367269	0.271625
	H463	H	0.532921	0.357237	0.267924
	H464	H	0.517759	0.354428	0.274984
	O465	O	0.894290	0.132852	1.035180
	H466	H	0.911709	0.123149	1.023319
	H467	H	0.890568	0.164179	1.024328
	O468	O	-1.077997	0.223168	-0.055363
	H469	H	-1.089615	0.219067	-0.072390
	H470	H	-1.068385	0.231269	-0.062803
	O471	O	0.004484	0.139922	0.956873
	H472	H	-0.006104	0.139404	0.960018
	H473	H	0.007462	0.135165	0.956350
	O474	O	1.006817	0.960857	0.194966
	H475	H	1.021727	0.968149	0.184121
	H476	H	1.011182	0.948770	0.207716
	O477	O	0.047956	0.814871	0.778357
	H478	H	0.060337	0.802070	0.764285
	H479	H	0.056817	0.805231	0.795602
