data_Molecule from HDF5

_cell_length_a		16.220660
_cell_length_b		16.160801
_cell_length_c		16.381773
_cell_angle_alpha	90.030831
_cell_angle_beta	89.572542
_cell_angle_gamma	89.952185
_symmetry_space_group_name_H-M	'P 1'
_symmetry_Int_Tables_number		1

loop_
	_symmetry_equiv_pos_as_xyz
	x,y,z

loop_
	_atom_site_label
	_atom_site_type_symbol
	_atom_site_fract_x
	_atom_site_fract_y
	_atom_site_fract_z
	H0	H	0.405530	0.819494	0.726288
	H1	H	0.610679	0.145344	0.725033
	H2	H	0.609880	0.818962	0.291115
	H3	H	0.402012	0.143914	0.287341
	H4	H	0.730487	0.384097	0.848937
	H5	H	0.725986	0.589617	0.170907
	H6	H	0.293505	0.585853	0.848698
	H7	H	0.291629	0.382625	0.170381
	H8	H	0.844320	0.697549	0.413491
	H9	H	0.170620	0.703109	0.608840
	H10	H	0.844875	0.269272	0.610931
	H11	H	0.170529	0.267006	0.407081
	H12	H	0.847731	0.381529	0.731388
	H13	H	0.171796	0.590599	0.726849
	H14	H	0.847114	0.590034	0.292041
	H15	H	0.171153	0.381828	0.292418
	H16	H	0.412011	0.698746	0.846662
	H17	H	0.609000	0.702733	0.170010
	H18	H	0.613503	0.267038	0.847642
	H19	H	0.405605	0.266180	0.169384
	H20	H	0.724161	0.819138	0.406393
	H21	H	0.721984	0.146987	0.606459
	H22	H	0.291450	0.818899	0.607785
	H23	H	0.291233	0.146691	0.407859
	H24	H	0.906815	0.321516	0.228234
	H25	H	0.110877	0.648294	0.226596
	H26	H	0.112707	0.321782	0.792837
	H27	H	0.907209	0.647962	0.793028
	H28	H	0.226505	0.880081	0.347822
	H29	H	0.223394	0.085603	0.669783
	H30	H	0.792319	0.084615	0.345593
	H31	H	0.788457	0.883135	0.669931
	H32	H	0.345754	0.200634	0.908368
	H33	H	0.671909	0.199723	0.107895
	H34	H	0.345466	0.770216	0.106510
	H35	H	0.673204	0.769688	0.908778
	H36	H	0.347113	0.877267	0.227563
	H37	H	0.670576	0.086185	0.225859
	H38	H	0.346605	0.086527	0.791961
	H39	H	0.672091	0.881995	0.790066
	H40	H	0.905215	0.203948	0.347532
	H41	H	0.106545	0.200601	0.670318
	H42	H	0.108805	0.766742	0.347901
	H43	H	0.904562	0.769049	0.671463
	H44	H	0.225578	0.320626	0.909588
	H45	H	0.223615	0.649359	0.107670
	H46	H	0.790951	0.321960	0.112782
	H47	H	0.795763	0.649625	0.912214
	H48	H	0.416673	0.100594	0.606464
	H49	H	0.600637	0.863655	0.603957
	H50	H	0.603603	0.101926	0.412990
	H51	H	0.407525	0.861844	0.414773
	H52	H	0.596416	0.384106	0.125268
	H53	H	0.596918	0.576346	0.895701
	H54	H	0.408085	0.565402	0.123967
	H55	H	0.423487	0.398171	0.896750
	H56	H	0.120290	0.568502	0.425775
	H57	H	0.891966	0.580461	0.600451
	H58	H	0.123418	0.394290	0.596111
	H59	H	0.895582	0.400931	0.424090
	H60	H	0.124521	0.396563	0.604752
	H61	H	0.895140	0.569227	0.602046
	H62	H	0.126863	0.571653	0.408423
	H63	H	0.889649	0.396620	0.410843
	H64	H	0.429088	0.577080	0.120879
	H65	H	0.606740	0.581145	0.891642
	H66	H	0.607875	0.395576	0.125879
	H67	H	0.420025	0.385504	0.891706
	H68	H	0.594601	0.099285	0.412431
	H69	H	0.591986	0.867627	0.599183
	H70	H	0.422626	0.096889	0.597806
	H71	H	0.426759	0.866433	0.409757
	H72	H	0.923593	0.601416	0.107408
	H73	H	0.094413	0.369164	0.102959
	H74	H	0.100824	0.602296	0.916136
	H75	H	0.916467	0.368742	0.922474
	H76	H	0.100322	0.897810	0.623537
	H77	H	0.102298	0.075325	0.392451
	H78	H	0.927473	0.076841	0.618600
	H79	H	0.919757	0.884500	0.392582
	H80	H	0.628597	0.073519	0.904047
	H81	H	0.393715	0.070802	0.099627
	H82	H	0.627081	0.888612	0.100155
	H83	H	0.392137	0.895378	0.912138
	H84	H	0.623545	0.895988	0.094229
	H85	H	0.392377	0.074087	0.099922
	H86	H	0.626139	0.083832	0.920443
	H87	H	0.390420	0.887393	0.914480
	H88	H	0.906588	0.085774	0.628632
	H89	H	0.098989	0.071800	0.394569
	H90	H	0.093775	0.892650	0.623384
	H91	H	0.909267	0.891891	0.391664
	H92	H	0.100618	0.601704	0.918376
	H93	H	0.101739	0.368646	0.097443
	H94	H	0.920272	0.598781	0.096476
	H95	H	0.920847	0.367465	0.915120
	H96	H	0.411283	0.099606	0.596375
	H97	H	0.600704	0.866724	0.593964
	H98	H	0.598814	0.098443	0.420343
	H99	H	0.419357	0.871129	0.428310
	H100	H	0.592832	0.399927	0.120415
	H101	H	0.606606	0.570767	0.895537
	H102	H	0.410435	0.588362	0.129817
	H103	H	0.410990	0.394805	0.891700
	H104	H	0.127216	0.585516	0.420983
	H105	H	0.890325	0.575074	0.610635
	H106	H	0.126383	0.388607	0.601775
	H107	H	0.890567	0.386863	0.422352
	H108	H	0.912079	0.603162	0.104313
	H109	H	0.102796	0.366553	0.105914
	H110	H	0.102995	0.602406	0.917282
	H111	H	0.924457	0.370752	0.921654
	H112	H	0.100737	0.890212	0.626383
	H113	H	0.097744	0.075975	0.393491
	H114	H	0.908021	0.062943	0.621506
	H115	H	0.920243	0.896926	0.396370
	H116	H	0.620890	0.065612	0.919667
	H117	H	0.393467	0.073608	0.097853
	H118	H	0.625180	0.898055	0.103782
	H119	H	0.394319	0.892695	0.920087
	C120	C	0.386487	-0.008765	0.630432
	C121	C	0.628210	0.974317	0.628164
	C122	C	0.629074	-0.008588	0.385583
	C123	C	0.386634	0.974125	0.386736
	C124	C	0.631182	0.363037	0.017496
	C125	C	0.632069	0.607306	1.000755
	C126	C	0.387672	0.606356	0.018083
	C127	C	0.387245	0.362436	0.999873
	C128	C	0.017240	0.605980	0.388815
	C129	C	1.000033	0.606091	0.632300
	C130	C	0.017181	0.363053	0.631682
	C131	C	0.999438	0.363575	0.388451
	C132	C	0.887438	0.493519	0.133021
	C133	C	0.130124	0.476222	0.131331
	C134	C	0.131632	0.493854	0.887782
	C135	C	0.890052	0.476814	0.890184
	C136	C	0.128983	0.862113	0.517766
	C137	C	0.129053	0.105400	0.500033
	C138	C	0.884763	0.105749	0.516547
	C139	C	0.885416	0.861712	0.500437
	C140	C	0.517760	0.105459	0.885846
	C141	C	0.500158	0.104239	0.129541
	C142	C	0.517831	0.862983	0.129308
	C143	C	0.500350	0.861804	0.886036
	C144	C	0.386150	0.868496	0.687781
	C145	C	0.629007	0.097170	0.685429
	C146	C	0.628808	0.868170	0.329510
	C147	C	0.384512	0.095860	0.327614
	C148	C	0.690592	0.363919	0.896774
	C149	C	0.687531	0.607897	0.122493
	C150	C	0.331897	0.605243	0.896549
	C151	C	0.329813	0.362993	0.121705
	C152	C	0.893732	0.661238	0.392089
	C153	C	0.122382	0.664099	0.629327
	C154	C	0.894091	0.307157	0.630957
	C155	C	0.121956	0.305705	0.388313
	C156	C	0.895689	0.362824	0.690934
	C157	C	0.122949	0.607857	0.687915
	C158	C	0.895409	0.607517	0.331664
	C159	C	0.122176	0.363001	0.331123
	C160	C	0.390824	0.661616	0.895646
	C161	C	0.629450	0.664561	0.122001
	C162	C	0.632623	0.305567	0.896074
	C163	C	0.386407	0.304891	0.121249
	C164	C	0.685696	0.868231	0.386881
	C165	C	0.684227	0.097686	0.626521
	C166	C	0.329508	0.868077	0.628707
	C167	C	0.329446	0.097429	0.387774
	C168	C	0.887333	0.370579	0.189822
	C169	C	0.129943	0.599540	0.187740
	C170	C	0.131762	0.370738	0.830986
	C171	C	0.888893	0.599346	0.832361
	C172	C	0.187272	0.861413	0.396267
	C173	C	0.185102	0.104989	0.621531
	C174	C	0.829594	0.104890	0.394462
	C175	C	0.827236	0.862977	0.621690
	C176	C	0.394949	0.162463	0.888233
	C177	C	0.622754	0.161598	0.128252
	C178	C	0.394665	0.807023	0.127495
	C179	C	0.623952	0.806920	0.888133
	C180	C	0.395542	0.860468	0.187627
	C181	C	0.621943	0.105216	0.187145
	C182	C	0.395227	0.105420	0.830302
	C183	C	0.623216	0.862552	0.828898
	C184	C	0.886017	0.164014	0.395280
	C185	C	0.126827	0.162264	0.621767
	C186	C	0.128187	0.805256	0.396132
	C187	C	0.885446	0.806200	0.622641
	C188	C	0.187844	0.370113	0.889519
	C189	C	0.186039	0.600065	0.128457
	C190	C	0.830016	0.370756	0.132033
	C191	C	0.833428	0.600295	0.891774
	C192	C	0.410182	0.076852	0.607038
	C193	C	0.604584	0.888481	0.605670
	C194	C	0.605696	0.077552	0.408525
	C195	C	0.410756	0.888821	0.410660
	C196	C	0.606210	0.386484	0.101941
	C197	C	0.609727	0.583041	0.916238
	C198	C	0.409505	0.583663	0.102900
	C199	C	0.411144	0.385976	0.915391
	C200	C	0.102672	0.582100	0.411685
	C201	C	0.914561	0.582095	0.610671
	C202	C	0.102788	0.386129	0.607811
	C203	C	0.913939	0.387776	0.412162
	C204	C	0.911474	0.578999	0.109589
	C205	C	0.106590	0.390341	0.108695
	C206	C	0.108259	0.580013	0.910527
	C207	C	0.913651	0.391138	0.913175
	C208	C	0.105130	0.886563	0.602534
	C209	C	0.106398	0.081570	0.415376
	C210	C	0.907303	0.082137	0.600850
	C211	C	0.909484	0.884347	0.415412
	C212	C	0.603107	0.081420	0.908164
	C213	C	0.415192	0.079868	0.106103
	C214	C	0.603124	0.887203	0.105999
	C215	C	0.414591	0.885022	0.908775
	Zn216	Zn	0.508928	-0.016733	0.757987
	Zn217	Zn	0.508204	-0.017661	0.258141
	Zn218	Zn	0.760627	0.485699	0.010903
	Zn219	Zn	0.258947	0.484554	0.009591
	Zn220	Zn	0.007136	0.733555	0.510078
	Zn221	Zn	0.007297	0.234701	0.508428
	Zn222	Zn	0.010254	0.485162	0.760581
	Zn223	Zn	0.008941	0.484999	0.260907
	Zn224	Zn	0.509451	0.735364	0.008964
	Zn225	Zn	0.508467	0.233605	0.008124
	Zn226	Zn	0.756396	-0.017117	0.507377
	Zn227	Zn	0.257981	-0.016694	0.508411
	N228	N	0.420739	0.946192	0.688960
	N229	N	0.594840	0.019340	0.686594
	N230	N	0.594270	0.945966	0.328530
	N231	N	0.419526	0.018384	0.327325
	N232	N	0.689855	0.398751	0.973282
	N233	N	0.689207	0.572772	0.046215
	N234	N	0.329776	0.571528	0.973406
	N235	N	0.330104	0.398148	0.045287
	N236	N	0.970591	0.660621	0.426844
	N237	N	0.044991	0.663289	0.595688
	N238	N	0.970767	0.307153	0.594607
	N239	N	0.044652	0.306016	0.423330
	N240	N	0.973219	0.396913	0.691284
	N241	N	0.045938	0.572436	0.689905
	N242	N	0.973195	0.573790	0.329552
	N243	N	0.044866	0.398096	0.331026
	N244	N	0.424985	0.662315	0.972159
	N245	N	0.595712	0.664440	0.045309
	N246	N	0.596389	0.304775	0.972217
	N247	N	0.421773	0.304707	0.044773
	N248	N	0.686171	0.946083	0.420886
	N249	N	0.683728	0.020332	0.591544
	N250	N	0.329599	0.945406	0.593863
	N251	N	0.330577	0.020756	0.423953
	N252	N	0.922278	0.447983	0.190528
	N253	N	0.095932	0.521671	0.189564
	N254	N	0.097685	0.448696	0.829817
	N255	N	0.923448	0.521600	0.831412
	N256	N	0.187726	0.896107	0.472963
	N257	N	0.186837	0.070697	0.544743
	N258	N	0.828525	0.069508	0.470835
	N259	N	0.827112	0.896681	0.544780
	N260	N	0.472341	0.162667	0.921997
	N261	N	0.545912	0.161492	0.093297
	N262	N	0.471836	0.808345	0.091856
	N263	N	0.546489	0.806209	0.922783
	N264	N	0.473072	0.894506	0.188890
	N265	N	0.544696	0.070214	0.188112
	N266	N	0.472604	0.070697	0.828678
	N267	N	0.545403	0.896158	0.827658
	N268	N	0.919633	0.164938	0.471977
	N269	N	0.092797	0.162638	0.545145
	N270	N	0.092726	0.805508	0.472790
	N271	N	0.920989	0.805365	0.546080
	N272	N	0.187995	0.447765	0.924074
	N273	N	0.186318	0.522356	0.094045
	N274	N	0.829849	0.448399	0.097743
	N275	N	0.833959	0.523093	0.927129
	O276	O	0.511514	0.361839	0.322689
	H277	H	0.503618	0.365477	0.335925
	H278	H	0.518302	0.339308	0.326572
	O279	O	0.655002	0.358624	0.314325
	H280	H	0.636628	0.340960	0.342986
	H281	H	0.651585	0.339080	0.296333
	O282	O	0.910653	-0.002623	0.155522
	H283	H	0.909832	0.012993	0.152541
	H284	H	0.898753	-0.005425	0.165026
	O285	O	-0.121094	0.994980	0.058755
	H286	H	-0.120781	0.995586	0.060832
	H287	H	-0.127246	0.990798	0.077126
	O288	O	0.603770	0.372974	0.590251
	H289	H	0.592301	0.371615	0.596976
	H290	H	0.607728	0.379575	0.589429
	O291	O	0.386910	0.327451	0.543034
	H292	H	0.371328	0.315909	0.549156
	H293	H	0.394506	0.325026	0.533929
	O294	O	1.033190	0.992857	1.157804
	H295	H	1.037931	0.997440	1.152632
	H296	H	1.028385	0.989260	1.150310
	O297	O	0.161675	-0.092914	-0.016387
	H298	H	0.152799	-0.092254	-0.011975
	H299	H	0.161852	-0.082269	-0.021482
	O300	O	0.954985	0.089342	-0.067949
	H301	H	0.960510	0.080918	-0.059932
	H302	H	0.948182	0.080708	-0.064408
	O303	O	0.070524	0.956302	0.957627
	H304	H	0.065366	0.952335	0.962075
	H305	H	0.078153	0.941807	0.959768
	O306	O	0.437895	0.503137	0.645367
	H307	H	0.433122	0.492888	0.646027
	H308	H	0.454755	0.508639	0.649053
	O309	O	1.111351	-0.117770	-0.011271
	H310	H	1.102958	-0.120800	0.000321
	H311	H	1.111237	-0.107967	-0.002867
	O312	O	0.025698	-0.055111	0.857309
	H313	H	0.026204	-0.053546	0.861020
	H314	H	0.030371	-0.053168	0.850988
	O315	O	0.118043	1.030501	-0.026230
	H316	H	0.124836	1.023542	-0.038488
	H317	H	0.127044	1.034873	-0.033801
	O318	O	0.543839	0.443396	0.631188
	H319	H	0.555521	0.452643	0.626727
	H320	H	0.541973	0.427741	0.635561
	O321	O	0.959171	-0.028581	0.021673
	H322	H	0.945290	-0.038635	0.022447
	H323	H	0.953263	-0.025750	0.019345
	O324	O	-0.085603	0.979224	0.083806
	H325	H	-0.081706	0.989375	0.076869
	H326	H	-0.085851	0.980884	0.091114
	O327	O	-0.464138	1.333400	0.517896
	H328	H	-0.466088	1.354695	0.522516
	H329	H	-0.456394	1.334352	0.545223
	O330	O	0.679593	0.411180	0.370425
	H331	H	0.674967	0.401948	0.371352
	H332	H	0.686321	0.395981	0.366785
	O333	O	-0.066876	0.978672	1.022324
	H334	H	-0.064771	0.982599	1.012723
	H335	H	-0.073709	0.987285	1.020593
	O336	O	0.978114	0.849043	0.912018
	H337	H	0.980053	0.836884	0.905747
	H338	H	0.979929	0.855267	0.914205
	O339	O	0.501347	0.568482	-0.540013
	H340	H	0.504372	0.567783	-0.555534
	H341	H	0.495081	0.569478	-0.534098
	O342	O	1.013953	0.021703	-0.123082
	H343	H	1.014405	0.014167	-0.132283
	H344	H	1.028713	0.019826	-0.125443
	O345	O	0.552585	0.414211	0.614947
	H346	H	0.546735	0.415368	0.623747
	H347	H	0.561822	0.419307	0.629264
	O348	O	1.043321	1.997224	0.972820
	H349	H	1.033455	1.996196	0.975672
	H350	H	1.042955	2.001780	0.989667
	O351	O	-0.049244	1.073020	-0.095767
	H352	H	-0.058162	1.063992	-0.098127
	H353	H	-0.043300	1.075750	-0.083333
	O354	O	0.039735	1.015770	0.997506
	H355	H	0.045689	1.018671	1.008633
	H356	H	0.048026	1.006719	0.992128
	O357	O	0.435971	0.406617	0.490032
	H358	H	0.428092	0.400320	0.507692
	H359	H	0.455249	0.413939	0.495697
	O360	O	0.041542	0.039891	0.136322
	H361	H	0.051879	0.043722	0.135023
	H362	H	0.039539	0.032741	0.135767
	O363	O	0.514845	0.649670	0.529241
	H364	H	0.520031	0.659116	0.523319
	H365	H	0.514994	0.651612	0.519817
	O366	O	0.462191	0.519767	0.544806
	H367	H	0.475589	0.516269	0.546658
	H368	H	0.459179	0.526857	0.546735
	O369	O	0.432137	0.593064	0.334999
	H370	H	0.436051	0.593778	0.335312
	H371	H	0.440478	0.581298	0.327104
	O372	O	0.327435	0.408659	0.655400
	H373	H	0.333577	0.394712	0.655515
	H374	H	0.313687	0.415397	0.667782
	O375	O	0.596126	0.475908	0.625648
	H376	H	0.580491	0.490803	0.630912
	H377	H	0.587948	0.474734	0.619912
	O378	O	0.679648	0.405148	0.542373
	H379	H	0.668377	0.414651	0.539470
	H380	H	0.682165	0.408494	0.545949
	O381	O	0.414143	0.520113	0.476101
	H382	H	0.410824	0.517399	0.471656
	H383	H	0.415341	0.518626	0.467920
	O384	O	-0.078913	0.843821	0.044912
	H385	H	-0.086621	0.836786	0.045251
	H386	H	-0.085639	0.841695	0.039131
	O387	O	0.438159	0.594713	1.538039
	H388	H	0.442490	0.606660	1.534633
	H389	H	0.440709	0.592164	1.538659
	O390	O	0.049618	1.063670	0.047185
	H391	H	0.050205	1.061528	0.054749
	H392	H	0.048552	1.060409	0.043955
	O393	O	0.615280	0.619608	-0.403034
	H394	H	0.605047	0.623341	-0.410264
	H395	H	0.616331	0.623269	-0.392694
	O396	O	0.443767	0.405277	0.497400
	H397	H	0.456788	0.407735	0.502725
	H398	H	0.425153	0.401497	0.501273
	O399	O	0.470551	1.544350	1.458602
	H400	H	0.480615	1.527982	1.449079
	H401	H	0.458100	1.552307	1.446689
	O402	O	1.050678	1.017613	0.940708
	H403	H	1.043387	1.014181	0.958744
	H404	H	1.067296	1.021117	0.943334
	O405	O	0.559045	0.591057	0.391969
	H406	H	0.558249	0.581426	0.391608
	H407	H	0.567636	0.577760	0.385039
