data_Molecule from HDF5

_cell_length_a		16.327145
_cell_length_b		16.244239
_cell_length_c		16.449460
_cell_angle_alpha	90.011784
_cell_angle_beta	90.232450
_cell_angle_gamma	89.906976
_symmetry_space_group_name_H-M	'P 1'
_symmetry_Int_Tables_number		1

loop_
	_symmetry_equiv_pos_as_xyz
	x,y,z

loop_
	_atom_site_label
	_atom_site_type_symbol
	_atom_site_fract_x
	_atom_site_fract_y
	_atom_site_fract_z
	H0	H	0.399083	0.827036	0.722057
	H1	H	0.607557	0.147152	0.723537
	H2	H	0.605425	0.827740	0.283339
	H3	H	0.395714	0.148512	0.284335
	H4	H	0.723300	0.378826	0.845903
	H5	H	0.721405	0.590890	0.164334
	H6	H	0.281835	0.591684	0.844346
	H7	H	0.285041	0.387072	0.164363
	H8	H	0.842166	0.706998	0.398473
	H9	H	0.162825	0.704856	0.604964
	H10	H	0.842299	0.268199	0.607091
	H11	H	0.165086	0.271917	0.406335
	H12	H	0.843916	0.378764	0.726314
	H13	H	0.161675	0.592674	0.724411
	H14	H	0.843878	0.593612	0.281197
	H15	H	0.163414	0.384676	0.286700
	H16	H	0.400176	0.704568	0.843258
	H17	H	0.605275	0.707278	0.163522
	H18	H	0.603226	0.268139	0.843927
	H19	H	0.399939	0.269550	0.163550
	H20	H	0.720045	0.826970	0.399551
	H21	H	0.718011	0.149287	0.605884
	H22	H	0.284790	0.826715	0.606023
	H23	H	0.284977	0.150344	0.404408
	H24	H	0.900487	0.326741	0.223863
	H25	H	0.110756	0.648312	0.226884
	H26	H	0.111356	0.328808	0.780554
	H27	H	0.891171	0.645922	0.780257
	H28	H	0.223952	0.881250	0.346034
	H29	H	0.224898	0.093874	0.662915
	H30	H	0.781070	0.094357	0.345690
	H31	H	0.777643	0.878316	0.660722
	H32	H	0.340788	0.206234	0.898194
	H33	H	0.660240	0.206293	0.108518
	H34	H	0.340692	0.767832	0.105338
	H35	H	0.661303	0.764573	0.898909
	H36	H	0.340685	0.881451	0.223737
	H37	H	0.657791	0.097243	0.228085
	H38	H	0.343993	0.096126	0.777768
	H39	H	0.660393	0.877402	0.780405
	H40	H	0.900867	0.206903	0.345206
	H41	H	0.108834	0.208597	0.663353
	H42	H	0.106416	0.767732	0.343801
	H43	H	0.894483	0.763226	0.660158
	H44	H	0.222373	0.327861	0.899688
	H45	H	0.222023	0.649976	0.107905
	H46	H	0.782090	0.326695	0.111551
	H47	H	0.778945	0.646482	0.899432
	H48	H	0.402559	0.109924	0.599124
	H49	H	0.584151	0.870589	0.602751
	H50	H	0.586847	0.102637	0.411917
	H51	H	0.416417	0.872577	0.408856
	H52	H	0.589786	0.400464	0.114837
	H53	H	0.588938	0.575425	0.891381
	H54	H	0.402378	0.574464	0.119647
	H55	H	0.410602	0.398115	0.889852
	H56	H	0.120554	0.583897	0.411902
	H57	H	0.889250	0.567045	0.596968
	H58	H	0.117688	0.403406	0.601335
	H59	H	0.887452	0.394617	0.416626
	H60	H	0.119039	0.392109	0.594258
	H61	H	0.883876	0.582750	0.595643
	H62	H	0.115186	0.576118	0.420810
	H63	H	0.889187	0.403475	0.412517
	H64	H	0.418090	0.571590	0.114629
	H65	H	0.592054	0.575864	0.890574
	H66	H	0.589020	0.393258	0.118012
	H67	H	0.410358	0.396307	0.888572
	H68	H	0.589535	0.102313	0.417951
	H69	H	0.583727	0.877650	0.582786
	H70	H	0.426065	0.101230	0.600137
	H71	H	0.413061	0.874028	0.418360
	H72	H	0.918696	0.599682	0.091246
	H73	H	0.094204	0.372612	0.095834
	H74	H	0.089888	0.604340	0.908947
	H75	H	0.920606	0.373422	0.913119
	H76	H	0.090772	0.899408	0.616260
	H77	H	0.090941	0.081150	0.389883
	H78	H	0.914693	0.080523	0.618698
	H79	H	0.915657	0.895912	0.391374
	H80	H	0.616623	0.071417	0.905506
	H81	H	0.384060	0.082416	0.090991
	H82	H	0.616616	0.892548	0.092287
	H83	H	0.386955	0.896303	0.910073
	H84	H	0.611477	0.904114	0.089915
	H85	H	0.387980	0.071917	0.089601
	H86	H	0.617814	0.084057	0.916618
	H87	H	0.388994	0.897785	0.916620
	H88	H	0.907296	0.076886	0.619979
	H89	H	0.096020	0.080194	0.389208
	H90	H	0.091380	0.898752	0.616463
	H91	H	0.906352	0.897762	0.388279
	H92	H	0.083517	0.599828	0.916166
	H93	H	0.092416	0.372772	0.096145
	H94	H	0.907681	0.602831	0.088681
	H95	H	0.913348	0.374940	0.921386
	H96	H	0.412799	0.098298	0.579358
	H97	H	0.601372	0.868354	0.590328
	H98	H	0.593303	0.104903	0.412763
	H99	H	0.406967	0.870019	0.411195
	H100	H	0.595685	0.397091	0.119261
	H101	H	0.591160	0.573024	0.891763
	H102	H	0.413252	0.587475	0.120064
	H103	H	0.408520	0.397952	0.889422
	H104	H	0.117332	0.571390	0.409266
	H105	H	0.890663	0.575315	0.582889
	H106	H	0.114190	0.402490	0.588079
	H107	H	0.885848	0.396529	0.407683
	H108	H	0.911974	0.604344	0.099188
	H109	H	0.093289	0.373448	0.094423
	H110	H	0.093545	0.602422	0.918508
	H111	H	0.909867	0.370344	0.911879
	H112	H	0.091171	0.898925	0.615263
	H113	H	0.092956	0.075969	0.391699
	H114	H	0.913071	0.072558	0.615915
	H115	H	0.911570	0.905167	0.392606
	H116	H	0.611205	0.069450	0.920886
	H117	H	0.384527	0.075000	0.099619
	H118	H	0.617064	0.901250	0.101603
	H119	H	0.388653	0.903336	0.911775
	C120	C	0.381675	-0.003141	0.624693
	C121	C	0.622347	0.978425	0.624225
	C122	C	0.621720	-0.003075	0.382052
	C123	C	0.380029	0.978813	0.382345
	C124	C	0.623655	0.364372	0.012730
	C125	C	0.622905	0.607603	0.996151
	C126	C	0.379686	0.609544	0.012622
	C127	C	0.379541	0.366243	0.995290
	C128	C	0.012335	0.609594	0.381461
	C129	C	0.993315	0.607764	0.624039
	C130	C	0.011563	0.366018	0.626391
	C131	C	0.994491	0.367201	0.383290
	C132	C	0.881717	0.495727	0.125101
	C133	C	0.124792	0.479840	0.126517
	C134	C	0.122109	0.496133	0.883032
	C135	C	0.880473	0.478253	0.882722
	C136	C	0.122997	0.866722	0.511396
	C137	C	0.124928	0.110406	0.495610
	C138	C	0.880666	0.109094	0.513128
	C139	C	0.878541	0.865659	0.494631
	C140	C	0.509969	0.107795	0.881718
	C141	C	0.490960	0.109328	0.125671
	C142	C	0.508922	0.866750	0.125255
	C143	C	0.493456	0.865819	0.881436
	C144	C	0.380179	0.875478	0.683073
	C145	C	0.625091	0.099472	0.683545
	C146	C	0.623674	0.875960	0.322814
	C147	C	0.377934	0.100399	0.324194
	C148	C	0.683092	0.361796	0.893370
	C149	C	0.682105	0.609207	0.116141
	C150	C	0.321145	0.610652	0.892133
	C151	C	0.322729	0.366474	0.115895
	C152	C	0.890654	0.668117	0.379473
	C153	C	0.114358	0.666357	0.624614
	C154	C	0.890848	0.306581	0.626743
	C155	C	0.116394	0.309951	0.385492
	C156	C	0.891681	0.361802	0.686079
	C157	C	0.113647	0.610362	0.684035
	C158	C	0.891412	0.611570	0.321437
	C159	C	0.115735	0.365992	0.326078
	C160	C	0.379992	0.666847	0.891739
	C161	C	0.624296	0.667484	0.115787
	C162	C	0.623273	0.306395	0.892371
	C163	C	0.379837	0.307929	0.115443
	C164	C	0.680583	0.875507	0.381068
	C165	C	0.680423	0.100253	0.625262
	C166	C	0.323063	0.875300	0.625533
	C167	C	0.322781	0.101339	0.383608
	C168	C	0.880587	0.375106	0.185041
	C169	C	0.127684	0.600572	0.186343
	C170	C	0.127234	0.376383	0.821931
	C171	C	0.874804	0.597989	0.821264
	C172	C	0.183152	0.864099	0.392781
	C173	C	0.185000	0.112131	0.615271
	C174	C	0.821194	0.111989	0.393380
	C175	C	0.817932	0.861428	0.613196
	C176	C	0.389345	0.167459	0.879382
	C177	C	0.611718	0.167868	0.127255
	C178	C	0.388652	0.807006	0.125265
	C179	C	0.613368	0.804684	0.880060
	C180	C	0.388727	0.863774	0.184146
	C181	C	0.610394	0.113338	0.186963
	C182	C	0.390975	0.112113	0.819716
	C183	C	0.612958	0.860820	0.820914
	C184	C	0.880843	0.168025	0.393071
	C185	C	0.126786	0.169162	0.615543
	C186	C	0.124706	0.807097	0.391826
	C187	C	0.876095	0.803902	0.612975
	C188	C	0.182762	0.375818	0.881205
	C189	C	0.183284	0.601394	0.127122
	C190	C	0.822181	0.374886	0.128565
	C191	C	0.818852	0.598377	0.880548
	C192	C	0.406653	0.081415	0.600111
	C193	C	0.597205	0.894228	0.599330
	C194	C	0.597068	0.081343	0.406844
	C195	C	0.404837	0.894337	0.405954
	C196	C	0.599043	0.389666	0.095895
	C197	C	0.598048	0.582130	0.912924
	C198	C	0.404019	0.585065	0.096278
	C199	C	0.403050	0.390190	0.911104
	C200	C	0.095770	0.584680	0.406706
	C201	C	0.909534	0.582422	0.599176
	C202	C	0.095169	0.391848	0.601826
	C203	C	0.909692	0.391266	0.405686
	C204	C	0.905943	0.580110	0.100114
	C205	C	0.100237	0.395149	0.102379
	C206	C	0.096273	0.580272	0.907672
	C207	C	0.907017	0.394633	0.908248
	C208	C	0.098273	0.891760	0.594357
	C209	C	0.100316	0.086100	0.411981
	C210	C	0.904849	0.083794	0.596603
	C211	C	0.903914	0.891990	0.412170
	C212	C	0.593558	0.082258	0.907142
	C213	C	0.407335	0.083886	0.100500
	C214	C	0.593100	0.892124	0.101391
	C215	C	0.410048	0.891844	0.905862
	Zn216	Zn	0.503267	-0.013121	0.752486
	Zn217	Zn	0.499932	-0.011885	0.254047
	Zn218	Zn	0.752624	0.485609	0.004711
	Zn219	Zn	0.251175	0.488741	0.003966
	Zn220	Zn	0.002061	0.737120	0.502836
	Zn221	Zn	0.002651	0.238578	0.504827
	Zn222	Zn	0.001626	0.487443	0.753892
	Zn223	Zn	0.003367	0.488024	0.253919
	Zn224	Zn	0.501646	0.737812	0.003560
	Zn225	Zn	0.500903	0.236048	0.003242
	Zn226	Zn	0.750139	-0.011771	0.503856
	Zn227	Zn	0.252992	-0.012116	0.504522
	N228	N	0.415721	0.952138	0.682818
	N229	N	0.590091	0.022582	0.683267
	N230	N	0.587962	0.952584	0.323184
	N231	N	0.412492	0.023194	0.322947
	N232	N	0.683690	0.396900	0.969388
	N233	N	0.681654	0.573039	0.040682
	N234	N	0.320737	0.575967	0.968268
	N235	N	0.322435	0.401880	0.039997
	N236	N	0.966334	0.666874	0.416172
	N237	N	0.038399	0.665188	0.588379
	N238	N	0.966597	0.308986	0.590437
	N239	N	0.040023	0.310610	0.420220
	N240	N	0.967787	0.397665	0.686158
	N241	N	0.037161	0.575124	0.684095
	N242	N	0.967971	0.576110	0.322157
	N243	N	0.038942	0.400894	0.324669
	N244	N	0.415514	0.666432	0.967793
	N245	N	0.588253	0.666625	0.040138
	N246	N	0.587275	0.307496	0.967734
	N247	N	0.414281	0.307574	0.039303
	N248	N	0.679453	0.951848	0.417170
	N249	N	0.678999	0.023979	0.589095
	N250	N	0.323818	0.952003	0.590173
	N251	N	0.323817	0.024730	0.418965
	N252	N	0.916986	0.451304	0.183043
	N253	N	0.091762	0.524180	0.185753
	N254	N	0.089870	0.452205	0.823144
	N255	N	0.912225	0.522143	0.822262
	N256	N	0.182335	0.900504	0.468011
	N257	N	0.183807	0.076091	0.539710
	N258	N	0.820851	0.076021	0.469130
	N259	N	0.819296	0.899165	0.538488
	N260	N	0.464239	0.164834	0.917571
	N261	N	0.536286	0.165520	0.089600
	N262	N	0.464503	0.808772	0.089418
	N263	N	0.538227	0.807751	0.917201
	N264	N	0.464725	0.900226	0.184138
	N265	N	0.534491	0.077398	0.185986
	N266	N	0.466776	0.075408	0.821233
	N267	N	0.537484	0.898320	0.821825
	N268	N	0.916831	0.166729	0.468578
	N269	N	0.090039	0.168201	0.540234
	N270	N	0.087662	0.808737	0.466691
	N271	N	0.913233	0.806422	0.538335
	N272	N	0.179665	0.451356	0.918712
	N273	N	0.181446	0.525379	0.090288
	N274	N	0.822720	0.450976	0.092106
	N275	N	0.821998	0.522741	0.917923
	O276	O	0.682720	0.669248	0.504318
	H277	H	0.698348	0.686932	0.506392
	H278	H	0.679900	0.654965	0.498917
	O279	O	0.489729	0.376870	0.484864
	H280	H	0.471815	0.388429	0.495312
	H281	H	0.506651	0.365327	0.502643
	O282	O	0.639862	0.594691	0.558658
	H283	H	0.634890	0.592725	0.561504
	H284	H	0.653954	0.589403	0.560718
	O285	O	0.968235	0.060283	0.200685
	H286	H	0.967807	0.037077	0.194715
	H287	H	0.963769	0.067995	0.198155
	O288	O	-0.171282	-0.029799	1.096468
	H289	H	-0.170094	-0.030547	1.078600
	H290	H	-0.174547	-0.039304	1.078605
	O291	O	0.390639	0.517461	0.469121
	H292	H	0.402327	0.526475	0.473130
	H293	H	0.392547	0.516146	0.461342
	O294	O	0.440725	0.550041	0.522653
	H295	H	0.454369	0.547554	0.510429
	H296	H	0.436524	0.542622	0.528500
	O297	O	1.183077	0.798808	0.817573
	H298	H	1.192684	0.804774	0.851177
	H299	H	1.200518	0.832500	0.810724
	O300	O	-0.210432	-0.070109	0.154683
	H301	H	-0.213733	-0.036987	0.135185
	H302	H	-0.230530	-0.069942	0.177875
	O303	O	0.575277	0.459620	0.556075
	H304	H	0.581710	0.469488	0.578424
	H305	H	0.577661	0.450129	0.560535
	O306	O	0.827428	-0.142542	0.071790
	H307	H	0.813433	-0.167125	0.075805
	H308	H	0.839172	-0.145418	0.099094
	O309	O	0.151955	0.051433	1.010088
	H310	H	0.146279	0.050822	1.003381
	H311	H	0.142054	0.064214	1.014318
	O312	O	0.978061	0.964077	-0.212764
	H313	H	0.979804	0.943513	-0.217045
	H314	H	0.963414	0.953354	-0.213426
	O315	O	-0.050557	-0.088430	-0.072665
	H316	H	-0.028220	-0.096952	-0.085848
	H317	H	-0.036489	-0.089887	-0.069009
	O318	O	0.612242	0.369025	0.475820
	H319	H	0.616475	0.373051	0.467087
	H320	H	0.609110	0.361041	0.474874
	O321	O	1.101902	0.054766	0.824725
	H322	H	1.090681	0.065140	0.819854
	H323	H	1.082235	0.050766	0.830973
	O324	O	0.095043	-0.003482	1.073160
	H325	H	0.098103	-0.003811	1.053451
	H326	H	0.088048	0.018682	1.063925
	O327	O	0.191252	0.140703	0.200937
	H328	H	0.180944	0.130776	0.200495
	H329	H	0.185882	0.130232	0.201364
	O330	O	0.211027	0.180121	0.058686
	H331	H	0.211164	0.177178	0.081008
	H332	H	0.219306	0.197443	0.050179
	O333	O	0.371278	1.465346	0.429024
	H334	H	0.378065	1.460743	0.413127
	H335	H	0.363348	1.464981	0.427520
	O336	O	0.690090	0.559998	0.700878
	H337	H	0.691860	0.568059	0.701581
	H338	H	0.691183	0.579036	0.702363
	O339	O	0.953036	-0.079164	1.151423
	H340	H	0.953376	-0.098411	1.158096
	H341	H	0.968003	-0.068730	1.134440
	O342	O	0.524367	1.415450	0.414518
	H343	H	0.539999	1.414017	0.429905
	H344	H	0.514979	1.419943	0.409054
	O345	O	0.046351	0.787455	1.057149
	H346	H	0.049263	0.797717	1.050015
	H347	H	0.037698	0.787923	1.055328
	O348	O	0.467274	0.475972	0.601851
	H349	H	0.483001	0.475822	0.593473
	H350	H	0.451360	0.463589	0.599839
	O351	O	0.211307	-0.001448	-0.166443
	H352	H	0.218055	0.012924	-0.179686
	H353	H	0.216016	0.015540	-0.158754
	O354	O	0.936745	1.096863	0.109175
	H355	H	0.934489	1.077721	0.108638
	H356	H	0.927325	1.099437	0.116111
	O357	O	0.697587	1.753231	0.292519
	H358	H	0.687860	1.784266	0.289843
	H359	H	0.726056	1.751433	0.300466
	O360	O	0.361858	0.452709	0.487102
	H361	H	0.382140	0.449663	0.492025
	H362	H	0.359610	0.452631	0.495686
	O363	O	-0.130764	0.888681	0.892824
	H364	H	-0.120143	0.866910	0.903194
	H365	H	-0.123085	0.879920	0.901514
	O366	O	1.396371	1.577956	0.361303
	H367	H	1.392477	1.567936	0.352361
	H368	H	1.405908	1.570291	0.365034
	O369	O	0.469689	0.517090	0.562842
	H370	H	0.473413	0.503913	0.555008
	H371	H	0.464655	0.520342	0.560426
	O372	O	0.589393	0.525868	0.300280
	H373	H	0.606783	0.523892	0.289474
	H374	H	0.583980	0.542597	0.309020
	O375	O	0.372505	0.483473	0.619316
	H376	H	0.368619	0.482184	0.595313
	H377	H	0.375234	0.471601	0.627374
	O378	O	0.798116	0.189524	-0.196624
	H379	H	0.793015	0.138555	-0.205136
	H380	H	0.846499	0.201476	-0.202703
	O381	O	0.478264	0.612113	0.493996
	H382	H	0.477562	0.621264	0.495424
	H383	H	0.465111	0.605507	0.498353
	O384	O	0.207003	0.788368	0.980776
	H385	H	0.227375	0.764225	0.990846
	H386	H	0.195098	0.795540	0.991371
	O387	O	1.014587	1.007811	0.075453
	H388	H	1.018846	1.007814	0.070000
	H389	H	1.019801	1.009390	0.070028
	O390	O	0.479961	0.394781	0.487453
	H391	H	0.490829	0.387024	0.487652
	H392	H	0.486424	0.402912	0.490838
	O393	O	1.559072	0.615249	1.628178
	H394	H	1.543592	0.602505	1.613158
	H395	H	1.552407	0.630231	1.616471
	O396	O	-0.206116	1.004961	0.798148
	H397	H	-0.195536	0.980048	0.804484
	H398	H	-0.228571	0.994163	0.786657
	O399	O	0.566331	0.424821	0.454833
	H400	H	0.577241	0.423285	0.441522
	H401	H	0.564889	0.412421	0.469878
	O402	O	1.025058	-0.231704	0.779914
	H403	H	1.074171	-0.219426	0.793726
	H404	H	1.029862	-0.270611	0.747744
	O405	O	-0.164057	0.047370	0.016963
	H406	H	-0.166425	0.031128	0.007880
	H407	H	-0.176867	0.045564	0.008790
	O408	O	0.613032	1.366050	1.407887
	H409	H	0.627419	1.345605	1.397911
	H410	H	0.619005	1.385263	1.391831
	O411	O	1.112703	1.003493	0.130375
	H412	H	1.121714	1.009947	0.142920
	H413	H	1.094328	0.994864	0.121819
	O414	O	0.003317	0.174748	0.989610
	H415	H	0.025454	0.173726	1.013370
	H416	H	-0.007568	0.174937	0.995978
	O417	O	0.591645	0.332761	0.518536
	H418	H	0.600388	0.326935	0.518338
	H419	H	0.594603	0.332484	0.511402
	O420	O	-0.212079	1.200466	-0.015247
	H421	H	-0.204914	1.199257	-0.057905
	H422	H	-0.239945	1.221221	-0.029431
	O423	O	0.980645	0.197912	-0.205108
	H424	H	0.996225	0.200446	-0.201543
	H425	H	0.993253	0.217709	-0.211660
	O426	O	0.110912	-0.012723	1.063141
	H427	H	0.101333	-0.026083	1.069633
	H428	H	0.112718	-0.001639	1.078467
	O429	O	0.046165	0.807003	0.164906
	H430	H	0.047426	0.795768	0.155270
	H431	H	0.035145	0.817919	0.168374
