data_Molecule from HDF5

_cell_length_a		16.233602
_cell_length_b		16.114693
_cell_length_c		16.320911
_cell_angle_alpha	89.915205
_cell_angle_beta	90.353584
_cell_angle_gamma	90.153961
_symmetry_space_group_name_H-M	'P 1'
_symmetry_Int_Tables_number		1

loop_
	_symmetry_equiv_pos_as_xyz
	x,y,z

loop_
	_atom_site_label
	_atom_site_type_symbol
	_atom_site_fract_x
	_atom_site_fract_y
	_atom_site_fract_z
	H0	H	0.401730	0.832268	0.711454
	H1	H	0.601501	0.162368	0.712877
	H2	H	0.595718	0.833481	0.284555
	H3	H	0.399721	0.162588	0.282779
	H4	H	0.713335	0.399241	0.832618
	H5	H	0.717920	0.598260	0.158701
	H6	H	0.283896	0.598436	0.833332
	H7	H	0.285672	0.399292	0.160060
	H8	H	0.835433	0.711773	0.397632
	H9	H	0.165310	0.709584	0.592460
	H10	H	0.835229	0.286211	0.591280
	H11	H	0.165214	0.287019	0.401745
	H12	H	0.836557	0.397000	0.710382
	H13	H	0.162796	0.599669	0.713783
	H14	H	0.836446	0.598050	0.279391
	H15	H	0.163878	0.398902	0.281013
	H16	H	0.401641	0.712711	0.833330
	H17	H	0.598827	0.710796	0.161456
	H18	H	0.596252	0.283757	0.833332
	H19	H	0.402246	0.283160	0.160281
	H20	H	0.711000	0.832384	0.400000
	H21	H	0.714224	0.162933	0.596833
	H22	H	0.287191	0.831442	0.595229
	H23	H	0.286949	0.163281	0.399658
	H24	H	0.901514	0.333858	0.208217
	H25	H	0.101626	0.662750	0.210580
	H26	H	0.097389	0.333029	0.783366
	H27	H	0.901391	0.662830	0.780989
	H28	H	0.212765	0.899189	0.333631
	H29	H	0.215940	0.096247	0.661043
	H30	H	0.783513	0.097198	0.333973
	H31	H	0.785939	0.898109	0.661219
	H32	H	0.335104	0.210108	0.898809
	H33	H	0.664930	0.211091	0.095208
	H34	H	0.335372	0.783880	0.093071
	H35	H	0.665163	0.787250	0.902407
	H36	H	0.335773	0.896189	0.211109
	H37	H	0.663066	0.099134	0.215322
	H38	H	0.337249	0.098464	0.779409
	H39	H	0.664031	0.897827	0.783424
	H40	H	0.903595	0.210253	0.332570
	H41	H	0.099622	0.212279	0.661680
	H42	H	0.095191	0.786488	0.332881
	H43	H	0.902958	0.782157	0.660082
	H44	H	0.211447	0.332628	0.898988
	H45	H	0.213899	0.663482	0.094480
	H46	H	0.788347	0.332869	0.092610
	H47	H	0.787112	0.663916	0.897018
	H48	H	0.408743	0.117108	0.595146
	H49	H	0.583820	0.880472	0.596006
	H50	H	0.589794	0.115229	0.406869
	H51	H	0.412107	0.878694	0.396094
	H52	H	0.595370	0.406877	0.112174
	H53	H	0.596081	0.585920	0.880421
	H54	H	0.411179	0.593540	0.113463
	H55	H	0.407638	0.407329	0.882002
	H56	H	0.120837	0.600310	0.399190
	H57	H	0.884250	0.582143	0.590310
	H58	H	0.118902	0.408366	0.598651
	H59	H	0.879217	0.400853	0.392646
	H60	H	0.118434	0.400025	0.588825
	H61	H	0.879389	0.594769	0.594363
	H62	H	0.114622	0.590258	0.410874
	H63	H	0.883690	0.400441	0.407747
	H64	H	0.402226	0.592303	0.114797
	H65	H	0.586267	0.594150	0.881381
	H66	H	0.593422	0.404501	0.112936
	H67	H	0.406119	0.401422	0.878777
	H68	H	0.594955	0.116357	0.406435
	H69	H	0.593228	0.882541	0.581366
	H70	H	0.414324	0.111593	0.585691
	H71	H	0.408048	0.882555	0.412137
	H72	H	0.898262	0.618914	0.083848
	H73	H	0.092453	0.382901	0.082402
	H74	H	0.088242	0.614486	0.903743
	H75	H	0.908774	0.379695	0.899348
	H76	H	0.097709	0.907384	0.613137
	H77	H	0.101652	0.085367	0.379798
	H78	H	0.904021	0.086704	0.613231
	H79	H	0.905920	0.917582	0.384285
	H80	H	0.618297	0.086054	0.894534
	H81	H	0.382643	0.089976	0.090502
	H82	H	0.618552	0.898131	0.091769
	H83	H	0.381925	0.908652	0.896154
	H84	H	0.614557	0.910234	0.087439
	H85	H	0.382795	0.090316	0.089331
	H86	H	0.620347	0.100556	0.906116
	H87	H	0.380343	0.898564	0.904346
	H88	H	0.911394	0.092046	0.613102
	H89	H	0.084139	0.089830	0.385311
	H90	H	0.090296	0.906360	0.612293
	H91	H	0.914582	0.899092	0.381111
	H92	H	0.094318	0.616055	0.907512
	H93	H	0.097576	0.377269	0.092466
	H94	H	0.911867	0.619710	0.098456
	H95	H	0.906982	0.381240	0.906866
	H96	H	0.402746	0.115553	0.585030
	H97	H	0.600035	0.875262	0.595891
	H98	H	0.591669	0.116744	0.402659
	H99	H	0.395477	0.875948	0.401929
	H100	H	0.596347	0.404099	0.113527
	H101	H	0.596843	0.598028	0.876711
	H102	H	0.407108	0.585383	0.111661
	H103	H	0.402035	0.405877	0.879120
	H104	H	0.117328	0.584209	0.395954
	H105	H	0.883107	0.592842	0.581545
	H106	H	0.114303	0.412190	0.587343
	H107	H	0.885009	0.413651	0.399941
	H108	H	0.916232	0.612464	0.080436
	H109	H	0.086361	0.380660	0.091749
	H110	H	0.094485	0.618104	0.900552
	H111	H	0.900710	0.378170	0.901433
	H112	H	0.094202	0.900333	0.615406
	H113	H	0.096053	0.102818	0.378275
	H114	H	0.903738	0.095298	0.615386
	H115	H	0.894269	0.902048	0.377340
	H116	H	0.613195	0.084760	0.912175
	H117	H	0.383509	0.088465	0.090296
	H118	H	0.618337	0.908943	0.099762
	H119	H	0.386457	0.910366	0.907731
	C120	C	0.379524	0.005840	0.617998
	C121	C	0.621675	0.988611	0.619719
	C122	C	0.620022	0.006790	0.377047
	C123	C	0.377341	0.988802	0.375291
	C124	C	0.622342	0.376495	0.004939
	C125	C	0.622244	0.620999	0.987862
	C126	C	0.378250	0.619705	0.005191
	C127	C	0.377544	0.376137	0.988242
	C128	C	0.008865	0.620199	0.373408
	C129	C	0.991203	0.619024	0.617730
	C130	C	0.008885	0.377156	0.618388
	C131	C	0.991615	0.377073	0.373450
	C132	C	0.879968	0.507557	0.116257
	C133	C	0.121577	0.489448	0.117509
	C134	C	0.120369	0.506715	0.875687
	C135	C	0.877599	0.489236	0.873796
	C136	C	0.121553	0.876400	0.505520
	C137	C	0.122789	0.120520	0.489338
	C138	C	0.878338	0.119403	0.505478
	C139	C	0.877376	0.876780	0.488635
	C140	C	0.508620	0.119398	0.875207
	C141	C	0.491619	0.119304	0.119187
	C142	C	0.508390	0.876511	0.119367
	C143	C	0.491384	0.876904	0.875386
	C144	C	0.381480	0.881547	0.673552
	C145	C	0.620503	0.113212	0.674674
	C146	C	0.616710	0.882346	0.322417
	C147	C	0.379675	0.113226	0.320699
	C148	C	0.675528	0.379095	0.881590
	C149	C	0.679053	0.618778	0.110459
	C150	C	0.322612	0.617780	0.882181
	C151	C	0.322967	0.378439	0.111079
	C152	C	0.884781	0.674481	0.376582
	C153	C	0.115661	0.673334	0.614245
	C154	C	0.884568	0.322857	0.613218
	C155	C	0.115703	0.323065	0.378825
	C156	C	0.885250	0.377898	0.672217
	C157	C	0.114284	0.618453	0.674512
	C158	C	0.885172	0.617999	0.317951
	C159	C	0.115153	0.378960	0.319122
	C160	C	0.380771	0.674912	0.882211
	C161	C	0.619852	0.674606	0.111677
	C162	C	0.617343	0.321787	0.881838
	C163	C	0.381209	0.321035	0.111416
	C164	C	0.673759	0.881942	0.379860
	C165	C	0.676370	0.113584	0.616900
	C166	C	0.324402	0.881051	0.615972
	C167	C	0.323855	0.113607	0.378960
	C168	C	0.881807	0.383178	0.170648
	C169	C	0.120480	0.613668	0.172521
	C170	C	0.117674	0.382243	0.821106
	C171	C	0.880866	0.613620	0.818772
	C172	C	0.175521	0.879160	0.382406
	C173	C	0.178237	0.117293	0.612208
	C174	C	0.822333	0.117268	0.382511
	C175	C	0.823481	0.878196	0.612061
	C176	C	0.384788	0.173531	0.877836
	C177	C	0.615497	0.173916	0.116309
	C178	C	0.384612	0.821102	0.114867
	C179	C	0.615670	0.823234	0.880629
	C180	C	0.384898	0.876920	0.173754
	C181	C	0.614530	0.118461	0.176006
	C182	C	0.385769	0.117942	0.818493
	C183	C	0.615156	0.878218	0.821234
	C184	C	0.881963	0.173420	0.381748
	C185	C	0.120049	0.174779	0.612563
	C186	C	0.116831	0.823011	0.381843
	C187	C	0.881672	0.820610	0.611681
	C188	C	0.174458	0.382241	0.878573
	C189	C	0.176695	0.613874	0.114955
	C190	C	0.825624	0.382771	0.112954
	C191	C	0.824118	0.614154	0.876364
	C192	C	0.401985	0.092328	0.595215
	C193	C	0.599091	0.901843	0.597773
	C194	C	0.598464	0.093878	0.398983
	C195	C	0.398919	0.901473	0.396975
	C196	C	0.601370	0.398696	0.090752
	C197	C	0.599789	0.599133	0.902045
	C198	C	0.400433	0.597149	0.091094
	C199	C	0.398858	0.398378	0.902126
	C200	C	0.095279	0.598113	0.395436
	C201	C	0.904761	0.596576	0.595437
	C202	C	0.095118	0.399846	0.597705
	C203	C	0.905021	0.398622	0.393998
	C204	C	0.902372	0.594758	0.094237
	C205	C	0.098776	0.402673	0.095599
	C206	C	0.098771	0.593933	0.897350
	C207	C	0.899103	0.402152	0.895920
	C208	C	0.100404	0.898322	0.591406
	C209	C	0.100598	0.098967	0.403143
	C210	C	0.899928	0.097824	0.591551
	C211	C	0.898697	0.899440	0.403034
	C212	C	0.595040	0.097097	0.897847
	C213	C	0.405230	0.096415	0.096496
	C214	C	0.594735	0.899108	0.098971
	C215	C	0.405280	0.899241	0.896443
	Zn216	Zn	0.500847	-0.002493	0.746641
	Zn217	Zn	0.499176	-0.002068	0.248227
	Zn218	Zn	0.751019	0.499131	-0.004131
	Zn219	Zn	0.248557	0.498184	-0.003327
	Zn220	Zn	0.000038	0.747620	0.496218
	Zn221	Zn	0.000186	0.249432	0.497319
	Zn222	Zn	-0.000549	0.497751	0.747186
	Zn223	Zn	-0.000060	0.498744	0.244559
	Zn224	Zn	0.500126	0.748952	-0.003032
	Zn225	Zn	0.499947	0.247584	-0.002773
	Zn226	Zn	0.747977	-0.001991	0.497860
	Zn227	Zn	0.250510	-0.002855	0.497322
	N228	N	0.415242	0.959873	0.674732
	N229	N	0.586936	0.034673	0.676270
	N230	N	0.584081	0.961034	0.320579
	N231	N	0.412216	0.034475	0.318333
	N232	N	0.678744	0.412350	0.959237
	N233	N	0.680688	0.586207	0.032688
	N234	N	0.320818	0.584227	0.959768
	N235	N	0.320825	0.411805	0.033477
	N236	N	0.962670	0.675957	0.410384
	N237	N	0.038217	0.673571	0.579314
	N238	N	0.962354	0.322351	0.580322
	N239	N	0.038029	0.321825	0.411924
	N240	N	0.963352	0.411101	0.675626
	N241	N	0.035904	0.585642	0.676807
	N242	N	0.963212	0.585312	0.315730
	N243	N	0.036950	0.411532	0.315617
	N244	N	0.414620	0.676213	0.959541
	N245	N	0.585122	0.676020	0.034394
	N246	N	0.585150	0.319878	0.959536
	N247	N	0.414492	0.319502	0.033996
	N248	N	0.675707	0.960308	0.413119
	N249	N	0.677257	0.035348	0.583392
	N250	N	0.323068	0.959246	0.582083
	N251	N	0.322312	0.035177	0.412349
	N252	N	0.914881	0.461827	0.172499
	N253	N	0.086890	0.535214	0.174273
	N254	N	0.084630	0.460793	0.819164
	N255	N	0.913669	0.534980	0.817578
	N256	N	0.178198	0.911920	0.460161
	N257	N	0.180019	0.084295	0.534488
	N258	N	0.819962	0.084384	0.460335
	N259	N	0.820855	0.912448	0.534727
	N260	N	0.462190	0.174561	0.912346
	N261	N	0.537896	0.174505	0.081684
	N262	N	0.462205	0.820858	0.081756
	N263	N	0.537730	0.822240	0.913535
	N264	N	0.462879	0.910659	0.176826
	N265	N	0.536359	0.085214	0.177809
	N266	N	0.464063	0.085155	0.816671
	N267	N	0.537125	0.910909	0.818030
	N268	N	0.916201	0.174775	0.459112
	N269	N	0.086457	0.176969	0.534985
	N270	N	0.083820	0.821287	0.459255
	N271	N	0.914489	0.819475	0.534064
	N272	N	0.176247	0.460612	0.911576
	N273	N	0.177367	0.535702	0.081471
	N274	N	0.824259	0.461348	0.079860
	N275	N	0.821827	0.535857	0.909719
	O276	O	0.956796	1.039932	0.049119
	H277	H	0.957336	1.039745	0.056512
	H278	H	0.964144	1.038788	0.042499
	O279	O	0.059863	0.073323	0.068030
	H280	H	0.060923	0.077350	0.062875
	H281	H	0.063952	0.081745	0.071898
	O282	O	0.010810	-0.024619	1.018982
	H283	H	0.008987	-0.020192	1.022070
	H284	H	0.001757	-0.020330	1.021349
	O285	O	0.539118	0.483996	0.516962
	H286	H	0.543576	0.491251	0.518269
	H287	H	0.540005	0.481455	0.519235
	O288	O	0.466928	0.494386	0.489840
	H289	H	0.470192	0.493017	0.486401
	H290	H	0.466682	0.495588	0.493267
	O291	O	0.509084	0.434162	0.525955
	H292	H	0.506304	0.427035	0.528766
	H293	H	0.511158	0.434424	0.518616
	O294	O	-0.026622	-0.004890	0.008222
	H295	H	-0.023391	0.005581	0.010183
	H296	H	-0.023661	-0.007210	0.003500
	O297	O	0.500181	0.475807	0.552379
	H298	H	0.501957	0.476264	0.554296
	H299	H	0.501877	0.480568	0.550803
	O300	O	0.057051	0.983118	1.048129
	H301	H	0.059330	0.980948	1.053106
	H302	H	0.056118	0.973460	1.041831
	O303	O	0.505088	0.498259	0.502938
	H304	H	0.505769	0.498570	0.505242
	H305	H	0.495867	0.499216	0.498171
	O306	O	-0.004308	0.013512	1.009754
	H307	H	-0.006347	0.011251	1.008847
	H308	H	-0.003013	0.021798	1.014726
	O309	O	1.024635	0.967310	1.018577
	H310	H	1.020119	0.961761	1.021119
	H311	H	1.020908	0.970558	1.017004
	O312	O	0.457644	0.477337	0.504722
	H313	H	0.459662	0.474425	0.505045
	H314	H	0.459083	0.484997	0.504618
	O315	O	0.532701	0.500457	0.500657
	H316	H	0.530264	0.498794	0.505705
	H317	H	0.526734	0.495399	0.496514
	O318	O	0.042466	0.956711	0.042316
	H319	H	0.031922	0.961985	0.049535
	H320	H	0.044003	0.954037	0.048598
	O321	O	1.042745	1.058902	0.086440
	H322	H	1.044525	1.054135	0.083698
	H323	H	1.049364	1.060736	0.094650
