data_Molecule from HDF5

_cell_length_a		16.190799
_cell_length_b		16.252120
_cell_length_c		16.274843
_cell_angle_alpha	90.060750
_cell_angle_beta	89.902964
_cell_angle_gamma	90.226233
_symmetry_space_group_name_H-M	'P 1'
_symmetry_Int_Tables_number		1

loop_
	_symmetry_equiv_pos_as_xyz
	x,y,z

loop_
	_atom_site_label
	_atom_site_type_symbol
	_atom_site_fract_x
	_atom_site_fract_y
	_atom_site_fract_z
	H0	H	0.402054	0.838189	0.713081
	H1	H	0.602818	0.166265	0.713861
	H2	H	0.602186	0.839199	0.282101
	H3	H	0.403689	0.166722	0.283999
	H4	H	0.715726	0.406261	0.833230
	H5	H	0.718927	0.603171	0.160292
	H6	H	0.289832	0.600628	0.833584
	H7	H	0.286451	0.403422	0.160905
	H8	H	0.838024	0.715960	0.397884
	H9	H	0.166653	0.717314	0.595557
	H10	H	0.837869	0.288514	0.594835
	H11	H	0.167401	0.288697	0.398052
	H12	H	0.838818	0.401911	0.712040
	H13	H	0.167131	0.603475	0.710676
	H14	H	0.838069	0.599673	0.282958
	H15	H	0.166869	0.402757	0.281152
	H16	H	0.403378	0.718237	0.834248
	H17	H	0.603657	0.718294	0.161161
	H18	H	0.601267	0.289195	0.834429
	H19	H	0.403233	0.288904	0.161882
	H20	H	0.715333	0.838407	0.400955
	H21	H	0.716665	0.166955	0.597120
	H22	H	0.287183	0.838361	0.596703
	H23	H	0.289438	0.166749	0.401669
	H24	H	0.902984	0.338658	0.210276
	H25	H	0.103045	0.666232	0.212444
	H26	H	0.102830	0.338909	0.780189
	H27	H	0.905401	0.666826	0.780982
	H28	H	0.216939	0.904278	0.334518
	H29	H	0.216284	0.101383	0.661930
	H30	H	0.788962	0.099911	0.334002
	H31	H	0.788365	0.904660	0.662321
	H32	H	0.338400	0.215722	0.900625
	H33	H	0.667273	0.218444	0.097697
	H34	H	0.339311	0.786877	0.098370
	H35	H	0.667430	0.789067	0.898899
	H36	H	0.338731	0.904212	0.211529
	H37	H	0.667239	0.103445	0.213109
	H38	H	0.338292	0.100559	0.785267
	H39	H	0.666799	0.903883	0.783363
	H40	H	0.905188	0.214181	0.332881
	H41	H	0.101261	0.217812	0.660919
	H42	H	0.099556	0.789559	0.333537
	H43	H	0.902437	0.786534	0.660562
	H44	H	0.217115	0.338539	0.897938
	H45	H	0.216825	0.667564	0.094594
	H46	H	0.788074	0.339014	0.093570
	H47	H	0.789909	0.667664	0.898143
	H48	H	0.408794	0.119739	0.592636
	H49	H	0.597459	0.883222	0.595364
	H50	H	0.593557	0.120984	0.399498
	H51	H	0.405550	0.884493	0.406012
	H52	H	0.592737	0.412118	0.113088
	H53	H	0.596943	0.589997	0.882835
	H54	H	0.399475	0.600792	0.118885
	H55	H	0.419198	0.398866	0.881158
	H56	H	0.123590	0.597301	0.394068
	H57	H	0.885773	0.589721	0.591437
	H58	H	0.121344	0.404947	0.584667
	H59	H	0.883629	0.399801	0.406317
	H60	H	0.117121	0.415807	0.585982
	H61	H	0.883293	0.596595	0.591816
	H62	H	0.121312	0.604363	0.409617
	H63	H	0.888694	0.413880	0.408750
	H64	H	0.410700	0.582098	0.109894
	H65	H	0.590295	0.600321	0.881235
	H66	H	0.595785	0.406943	0.116092
	H67	H	0.397451	0.406127	0.876320
	H68	H	0.591188	0.117323	0.409831
	H69	H	0.588621	0.887616	0.591738
	H70	H	0.410768	0.119720	0.592806
	H71	H	0.410571	0.884618	0.400141
	H72	H	0.907844	0.623024	0.096791
	H73	H	0.102462	0.382734	0.092763
	H74	H	0.098608	0.621162	0.898255
	H75	H	0.917540	0.390944	0.910050
	H76	H	0.091352	0.908985	0.614019
	H77	H	0.091686	0.081590	0.386402
	H78	H	0.897367	0.088373	0.615643
	H79	H	0.903147	0.912548	0.379950
	H80	H	0.618716	0.087726	0.903753
	H81	H	0.385816	0.104679	0.082526
	H82	H	0.618706	0.914033	0.087452
	H83	H	0.382436	0.907648	0.896832
	H84	H	0.622147	0.911047	0.093115
	H85	H	0.389856	0.083716	0.088778
	H86	H	0.623458	0.100418	0.898586
	H87	H	0.384940	0.901723	0.911801
	H88	H	0.921310	0.091303	0.609028
	H89	H	0.086059	0.107316	0.379818
	H90	H	0.095466	0.907116	0.616029
	H91	H	0.914926	0.912059	0.383738
	H92	H	0.090872	0.617601	0.903593
	H93	H	0.088141	0.387073	0.094668
	H94	H	0.919151	0.617354	0.090522
	H95	H	0.899799	0.384067	0.906713
	H96	H	0.409642	0.118148	0.591908
	H97	H	0.596465	0.887425	0.585850
	H98	H	0.601373	0.120419	0.407612
	H99	H	0.413068	0.887403	0.407082
	H100	H	0.598519	0.412945	0.114457
	H101	H	0.602231	0.600394	0.878287
	H102	H	0.422286	0.602570	0.113152
	H103	H	0.413681	0.420661	0.885413
	H104	H	0.116467	0.587689	0.407009
	H105	H	0.886439	0.594503	0.585512
	H106	H	0.121513	0.409951	0.594710
	H107	H	0.882984	0.409650	0.394407
	H108	H	0.907683	0.618832	0.083713
	H109	H	0.094438	0.388713	0.080876
	H110	H	0.099339	0.618868	0.907713
	H111	H	0.912912	0.384063	0.892803
	H112	H	0.095705	0.912307	0.614159
	H113	H	0.111516	0.097535	0.375674
	H114	H	0.908758	0.110262	0.619020
	H115	H	0.909115	0.902268	0.379025
	H116	H	0.619921	0.099863	0.912122
	H117	H	0.380713	0.098435	0.103728
	H118	H	0.620900	0.907690	0.087970
	H119	H	0.388619	0.917724	0.908058
	C120	C	0.380865	0.010706	0.620409
	C121	C	0.623725	0.994444	0.620003
	C122	C	0.624001	0.011214	0.376702
	C123	C	0.381154	0.993979	0.376347
	C124	C	0.624428	0.381917	0.006411
	C125	C	0.625541	0.625577	0.988671
	C126	C	0.382141	0.623856	0.005732
	C127	C	0.380723	0.380301	0.989119
	C128	C	0.011156	0.623866	0.375240
	C129	C	0.994317	0.623476	0.618221
	C130	C	0.011415	0.381099	0.617585
	C131	C	0.993775	0.380079	0.374812
	C132	C	0.881769	0.511267	0.118496
	C133	C	0.124470	0.494343	0.118260
	C134	C	0.124821	0.510911	0.874390
	C135	C	0.881921	0.494900	0.874677
	C136	C	0.123527	0.880911	0.506537
	C137	C	0.124550	0.124555	0.489088
	C138	C	0.880930	0.124364	0.506281
	C139	C	0.880321	0.880511	0.489238
	C140	C	0.511497	0.124006	0.876921
	C141	C	0.494497	0.124608	0.119852
	C142	C	0.511791	0.881276	0.118943
	C143	C	0.494140	0.880935	0.876657
	C144	C	0.382267	0.887204	0.675243
	C145	C	0.622309	0.117496	0.675511
	C146	C	0.622031	0.887989	0.320808
	C147	C	0.383742	0.117685	0.321957
	C148	C	0.678421	0.385201	0.882407
	C149	C	0.680773	0.622982	0.111862
	C150	C	0.327305	0.621275	0.882485
	C151	C	0.324798	0.383276	0.112110
	C152	C	0.887213	0.678209	0.377889
	C153	C	0.117576	0.679455	0.615634
	C154	C	0.887290	0.326161	0.615241
	C155	C	0.118237	0.325815	0.377150
	C156	C	0.887763	0.382391	0.673676
	C157	C	0.117957	0.622305	0.672704
	C158	C	0.887318	0.620414	0.320609
	C159	C	0.117921	0.382604	0.319454
	C160	C	0.383744	0.679804	0.882971
	C161	C	0.623524	0.680593	0.112180
	C162	C	0.621648	0.326907	0.883193
	C163	C	0.382847	0.326174	0.112597
	C164	C	0.678475	0.887550	0.379617
	C165	C	0.679389	0.117667	0.617951
	C166	C	0.325241	0.887170	0.617404
	C167	C	0.327045	0.117810	0.380568
	C168	C	0.883057	0.387692	0.172758
	C169	C	0.122787	0.617653	0.174003
	C170	C	0.122896	0.387693	0.818584
	C171	C	0.885183	0.618222	0.819516
	C172	C	0.179075	0.883263	0.383338
	C173	C	0.178876	0.121733	0.612708
	C174	C	0.826354	0.120817	0.382813
	C175	C	0.825462	0.883721	0.612975
	C176	C	0.387563	0.178379	0.880142
	C177	C	0.618127	0.180507	0.117631
	C178	C	0.388263	0.825333	0.117690
	C179	C	0.618139	0.826779	0.878789
	C180	C	0.388113	0.883465	0.174377
	C181	C	0.618358	0.123332	0.174856
	C182	C	0.387320	0.120926	0.822894
	C183	C	0.617857	0.883991	0.821563
	C184	C	0.884135	0.177815	0.382432
	C185	C	0.121594	0.179821	0.612291
	C186	C	0.120715	0.826934	0.382731
	C187	C	0.882176	0.825074	0.612288
	C188	C	0.179232	0.387299	0.877352
	C189	C	0.179374	0.618165	0.115477
	C190	C	0.826245	0.387755	0.114539
	C191	C	0.827482	0.618477	0.877472
	C192	C	0.403217	0.096813	0.598721
	C193	C	0.600809	0.908262	0.597558
	C194	C	0.601818	0.097403	0.398939
	C195	C	0.403294	0.907810	0.397841
	C196	C	0.602419	0.404135	0.092303
	C197	C	0.603127	0.603513	0.902967
	C198	C	0.404189	0.601605	0.091729
	C199	C	0.403149	0.402062	0.903065
	C200	C	0.097989	0.602612	0.397156
	C201	C	0.907511	0.600477	0.596131
	C202	C	0.097603	0.403601	0.594987
	C203	C	0.907674	0.401560	0.396629
	C204	C	0.904812	0.597547	0.096719
	C205	C	0.101878	0.408337	0.096031
	C206	C	0.102763	0.596883	0.896590
	C207	C	0.903627	0.408595	0.896809
	C208	C	0.100807	0.902781	0.592436
	C209	C	0.102843	0.102289	0.402772
	C210	C	0.902759	0.102973	0.592443
	C211	C	0.902406	0.902378	0.403217
	C212	C	0.598297	0.102350	0.898364
	C213	C	0.407970	0.102214	0.098271
	C214	C	0.598148	0.904246	0.096264
	C215	C	0.407568	0.902618	0.898991
	Zn216	Zn	0.502547	0.002449	0.748562
	Zn217	Zn	0.503333	0.002882	0.247232
	Zn218	Zn	0.753295	0.503372	-0.003181
	Zn219	Zn	0.253001	0.502670	-0.003424
	Zn220	Zn	0.002436	0.752144	0.497298
	Zn221	Zn	0.002730	0.252524	0.496644
	Zn222	Zn	0.003340	0.502242	0.745589
	Zn223	Zn	0.003134	0.502321	0.247369
	Zn224	Zn	0.503349	0.752968	-0.002155
	Zn225	Zn	0.503155	0.252477	-0.001580
	Zn226	Zn	0.752425	0.002864	0.498363
	Zn227	Zn	0.252638	0.002184	0.498449
	N228	N	0.416049	0.964905	0.677243
	N229	N	0.588444	0.039765	0.676854
	N230	N	0.588849	0.965850	0.318947
	N231	N	0.416650	0.039600	0.319077
	N232	N	0.680096	0.418836	0.959884
	N233	N	0.682017	0.589238	0.034272
	N234	N	0.326209	0.587159	0.959795
	N235	N	0.323394	0.416092	0.034189
	N236	N	0.965284	0.680294	0.411205
	N237	N	0.039590	0.680066	0.582276
	N238	N	0.965126	0.324995	0.581176
	N239	N	0.040316	0.323991	0.410970
	N240	N	0.965902	0.415675	0.675284
	N241	N	0.040160	0.588073	0.674182
	N242	N	0.965479	0.587491	0.318948
	N243	N	0.039754	0.415630	0.317697
	N244	N	0.417202	0.681452	0.960612
	N245	N	0.589541	0.682045	0.034768
	N246	N	0.588597	0.324854	0.961200
	N247	N	0.417039	0.324420	0.035216
	N248	N	0.679821	0.965093	0.413428
	N249	N	0.680398	0.040014	0.584080
	N250	N	0.324116	0.964873	0.583855
	N251	N	0.325490	0.040038	0.413613
	N252	N	0.916880	0.465599	0.175355
	N253	N	0.089272	0.539676	0.175734
	N254	N	0.089625	0.465446	0.816927
	N255	N	0.918166	0.540336	0.817640
	N256	N	0.180863	0.916422	0.461076
	N257	N	0.180659	0.087852	0.535132
	N258	N	0.824411	0.088135	0.460662
	N259	N	0.824382	0.917486	0.535462
	N260	N	0.465745	0.180183	0.913213
	N261	N	0.540079	0.181411	0.084165
	N262	N	0.466131	0.824064	0.084096
	N263	N	0.540357	0.825049	0.912586
	N264	N	0.466133	0.917434	0.175535
	N265	N	0.540382	0.089283	0.176541
	N266	N	0.465485	0.088068	0.820609
	N267	N	0.539694	0.916984	0.820112
	N268	N	0.917478	0.180052	0.460195
	N269	N	0.088813	0.181644	0.534266
	N270	N	0.086857	0.825237	0.460377
	N271	N	0.915567	0.822934	0.534599
	N272	N	0.180764	0.464900	0.911265
	N273	N	0.180689	0.540589	0.081724
	N274	N	0.825385	0.465632	0.081677
	N275	N	0.825303	0.540705	0.910728
	O276	O	0.498050	0.480845	0.515663
	H277	H	0.502258	0.478267	0.521548
	H278	H	0.486180	0.476998	0.506185
	O279	O	0.028760	0.043616	0.020426
	H280	H	0.020989	0.049568	0.015495
	H281	H	0.012066	0.047786	0.012139
	O282	O	0.510762	0.462569	0.562633
	H283	H	0.510509	0.467609	0.557053
	H284	H	0.518947	0.456810	0.565683
	O285	O	0.489635	0.475673	0.516771
	H286	H	0.494687	0.481261	0.515472
	H287	H	0.488791	0.479017	0.507733
	O288	O	0.971533	0.051268	0.068665
	H289	H	0.964810	0.057779	0.087260
	H290	H	0.963551	0.046673	0.066393
	O291	O	-0.491531	0.508584	-0.538340
	H292	H	-0.490943	0.510249	-0.533186
	H293	H	-0.493417	0.512418	-0.544543
	O294	O	0.426139	0.455311	0.535374
	H295	H	0.423443	0.447198	0.532202
	H296	H	0.420350	0.452150	0.544236
	O297	O	0.435120	1.421182	0.502687
	H298	H	0.436202	1.424994	0.497615
	H299	H	0.439727	1.429241	0.500468
	O300	O	0.980902	0.045111	1.100955
	H301	H	0.989929	0.054327	1.114973
	H302	H	0.995896	0.037110	1.105210
	O303	O	0.513829	0.462989	0.436255
	H304	H	0.514523	0.463955	0.442930
	H305	H	0.516930	0.455103	0.442226
	O306	O	0.053542	1.033126	1.108730
	H307	H	0.069725	1.027570	1.108768
	H308	H	0.050534	1.033284	1.099570
	O309	O	0.514895	0.533561	0.512275
	H310	H	0.507308	0.532805	0.515355
	H311	H	0.512671	0.528604	0.511086
