data_Molecule from HDF5

_cell_length_a		16.198236
_cell_length_b		16.101191
_cell_length_c		16.253263
_cell_angle_alpha	89.510308
_cell_angle_beta	90.140549
_cell_angle_gamma	89.615001
_symmetry_space_group_name_H-M	'P 1'
_symmetry_Int_Tables_number		1

loop_
	_symmetry_equiv_pos_as_xyz
	x,y,z

loop_
	_atom_site_label
	_atom_site_type_symbol
	_atom_site_fract_x
	_atom_site_fract_y
	_atom_site_fract_z
	H0	H	0.405447	0.834874	0.710513
	H1	H	0.601949	0.164817	0.706102
	H2	H	0.601725	0.833135	0.284425
	H3	H	0.401745	0.164115	0.277855
	H4	H	0.719501	0.399784	0.831751
	H5	H	0.718205	0.595615	0.159641
	H6	H	0.287713	0.601548	0.831925
	H7	H	0.290593	0.398354	0.160187
	H8	H	0.837861	0.715829	0.397132
	H9	H	0.169323	0.708962	0.591045
	H10	H	0.837601	0.287773	0.593255
	H11	H	0.168094	0.286209	0.399978
	H12	H	0.838800	0.400761	0.710704
	H13	H	0.167953	0.596824	0.710238
	H14	H	0.839755	0.602794	0.278574
	H15	H	0.167989	0.400203	0.282628
	H16	H	0.403983	0.715822	0.831222
	H17	H	0.601440	0.711323	0.159976
	H18	H	0.601763	0.287709	0.830038
	H19	H	0.408494	0.283452	0.159828
	H20	H	0.718085	0.834586	0.398753
	H21	H	0.714251	0.165120	0.590619
	H22	H	0.292579	0.833745	0.593172
	H23	H	0.287213	0.164085	0.393605
	H24	H	0.906851	0.335219	0.211091
	H25	H	0.102545	0.665655	0.207876
	H26	H	0.103076	0.333741	0.785337
	H27	H	0.902903	0.664121	0.780882
	H28	H	0.218592	0.899235	0.331088
	H29	H	0.217727	0.096222	0.658389
	H30	H	0.788247	0.101032	0.331622
	H31	H	0.789589	0.899856	0.659925
	H32	H	0.339497	0.215215	0.896508
	H33	H	0.670393	0.206939	0.089957
	H34	H	0.338076	0.785834	0.091770
	H35	H	0.669512	0.786206	0.898763
	H36	H	0.338952	0.897779	0.210546
	H37	H	0.667555	0.096179	0.209920
	H38	H	0.339385	0.102236	0.778699
	H39	H	0.668492	0.901564	0.782266
	H40	H	0.904274	0.216979	0.331811
	H41	H	0.100416	0.209230	0.660750
	H42	H	0.100222	0.787529	0.330614
	H43	H	0.908080	0.786237	0.660470
	H44	H	0.217841	0.334066	0.901330
	H45	H	0.217318	0.665424	0.093746
	H46	H	0.794948	0.333116	0.094674
	H47	H	0.788070	0.663271	0.895109
	H48	H	0.405091	0.116780	0.576355
	H49	H	0.592494	0.881905	0.590685
	H50	H	0.603321	0.123563	0.391154
	H51	H	0.421873	0.883414	0.397847
	H52	H	0.596265	0.399527	0.112571
	H53	H	0.600092	0.591991	0.877273
	H54	H	0.412967	0.591598	0.111355
	H55	H	0.400614	0.412975	0.877209
	H56	H	0.122074	0.597968	0.402548
	H57	H	0.882547	0.587547	0.604117
	H58	H	0.121267	0.407773	0.593588
	H59	H	0.882113	0.402656	0.395455
	H60	H	0.122837	0.401093	0.592827
	H61	H	0.881513	0.608983	0.586685
	H62	H	0.118425	0.590228	0.405501
	H63	H	0.887430	0.406339	0.412028
	H64	H	0.409906	0.594643	0.114450
	H65	H	0.595687	0.589087	0.879868
	H66	H	0.603715	0.400233	0.115574
	H67	H	0.417820	0.412900	0.881962
	H68	H	0.582447	0.115752	0.396036
	H69	H	0.597929	0.881243	0.585409
	H70	H	0.402819	0.121681	0.593390
	H71	H	0.407470	0.883024	0.413438
	H72	H	0.910100	0.617122	0.083570
	H73	H	0.093132	0.384085	0.086502
	H74	H	0.093223	0.617981	0.900884
	H75	H	0.904078	0.379462	0.908094
	H76	H	0.097665	0.909237	0.611277
	H77	H	0.102165	0.094645	0.375352
	H78	H	0.891732	0.086468	0.616720
	H79	H	0.915950	0.914336	0.381566
	H80	H	0.624567	0.096184	0.895340
	H81	H	0.383633	0.089365	0.097284
	H82	H	0.619833	0.910379	0.091840
	H83	H	0.386532	0.912410	0.901858
	H84	H	0.622980	0.900772	0.093098
	H85	H	0.384074	0.102444	0.082941
	H86	H	0.620909	0.094274	0.902892
	H87	H	0.384693	0.907186	0.897345
	H88	H	0.920683	0.083774	0.607652
	H89	H	0.092909	0.086726	0.380693
	H90	H	0.094919	0.899484	0.612649
	H91	H	0.911451	0.900117	0.375546
	H92	H	0.097091	0.618527	0.903423
	H93	H	0.105002	0.379892	0.088484
	H94	H	0.906939	0.619762	0.087229
	H95	H	0.912341	0.376375	0.894965
	H96	H	0.419197	0.115225	0.586798
	H97	H	0.599173	0.878491	0.592506
	H98	H	0.598290	0.115774	0.413132
	H99	H	0.401894	0.875062	0.393951
	H100	H	0.599939	0.405998	0.112095
	H101	H	0.593871	0.595275	0.878051
	H102	H	0.408913	0.589151	0.112815
	H103	H	0.409978	0.397225	0.875404
	H104	H	0.122079	0.590465	0.396374
	H105	H	0.890797	0.584160	0.577930
	H106	H	0.120126	0.404727	0.588344
	H107	H	0.887911	0.418895	0.399710
	H108	H	0.911386	0.618659	0.088274
	H109	H	0.097101	0.380302	0.098273
	H110	H	0.095958	0.619476	0.898814
	H111	H	0.918924	0.383328	0.907412
	H112	H	0.104386	0.902978	0.615032
	H113	H	0.090183	0.100034	0.378352
	H114	H	0.909533	0.110529	0.617922
	H115	H	0.901053	0.912475	0.377566
	H116	H	0.621326	0.088344	0.896519
	H117	H	0.389940	0.084520	0.080482
	H118	H	0.620387	0.904416	0.085074
	H119	H	0.386240	0.905826	0.905061
	C120	C	0.381869	0.008606	0.615106
	C121	C	0.624303	0.990234	0.616162
	C122	C	0.624143	0.008500	0.373306
	C123	C	0.380715	0.989987	0.372360
	C124	C	0.627171	0.375727	0.004125
	C125	C	0.625138	0.619795	0.987113
	C126	C	0.381705	0.621395	0.004049
	C127	C	0.382416	0.377938	0.987084
	C128	C	0.011799	0.622467	0.373178
	C129	C	0.994786	0.620599	0.617159
	C130	C	0.012034	0.377326	0.618959
	C131	C	0.994718	0.379631	0.374466
	C132	C	0.882722	0.508921	0.116365
	C133	C	0.126050	0.491362	0.118262
	C134	C	0.125059	0.508833	0.874401
	C135	C	0.882313	0.489359	0.874375
	C136	C	0.126302	0.876078	0.504122
	C137	C	0.123972	0.120630	0.486660
	C138	C	0.879575	0.122949	0.505075
	C139	C	0.882236	0.879447	0.487079
	C140	C	0.513068	0.122254	0.870928
	C141	C	0.495148	0.119471	0.115150
	C142	C	0.511850	0.876674	0.117792
	C143	C	0.495177	0.879156	0.873586
	C144	C	0.384884	0.884088	0.671990
	C145	C	0.621185	0.115458	0.668828
	C146	C	0.622225	0.883145	0.320937
	C147	C	0.382063	0.114874	0.316354
	C148	C	0.681566	0.379702	0.880492
	C149	C	0.679835	0.615793	0.110956
	C150	C	0.325800	0.620834	0.880951
	C151	C	0.328600	0.378830	0.110946
	C152	C	0.887484	0.678398	0.376013
	C153	C	0.119607	0.672850	0.612667
	C154	C	0.887287	0.324407	0.614633
	C155	C	0.119018	0.323720	0.378493
	C156	C	0.887841	0.380435	0.673205
	C157	C	0.118798	0.616888	0.671980
	C158	C	0.888284	0.622316	0.317306
	C159	C	0.118776	0.380488	0.320181
	C160	C	0.383741	0.677301	0.880255
	C161	C	0.622229	0.673736	0.111011
	C162	C	0.623267	0.323696	0.879537
	C163	C	0.386955	0.321613	0.110859
	C164	C	0.680049	0.883900	0.377463
	C165	C	0.677557	0.115641	0.612038
	C166	C	0.328897	0.883395	0.613643
	C167	C	0.325298	0.114733	0.373918
	C168	C	0.886202	0.384304	0.173097
	C169	C	0.122808	0.615971	0.171157
	C170	C	0.123351	0.383546	0.821912
	C171	C	0.883405	0.614412	0.818557
	C172	C	0.180574	0.879280	0.380255
	C173	C	0.179560	0.116877	0.609792
	C174	C	0.825684	0.121001	0.380860
	C175	C	0.827706	0.880326	0.610996
	C176	C	0.388812	0.177474	0.875146
	C177	C	0.620438	0.171178	0.111605
	C178	C	0.387489	0.822752	0.113476
	C179	C	0.619674	0.823857	0.877548
	C180	C	0.387919	0.878670	0.172296
	C181	C	0.619002	0.116120	0.171173
	C182	C	0.388691	0.121285	0.816606
	C183	C	0.619404	0.881244	0.819673
	C184	C	0.883430	0.178432	0.380799
	C185	C	0.121071	0.173043	0.611074
	C186	C	0.121802	0.823641	0.379949
	C187	C	0.886560	0.823973	0.611332
	C188	C	0.179805	0.383571	0.879806
	C189	C	0.180001	0.615760	0.114564
	C190	C	0.830527	0.383229	0.115059
	C191	C	0.826557	0.614139	0.875450
	C192	C	0.402931	0.095458	0.592228
	C193	C	0.602941	0.903278	0.595514
	C194	C	0.601358	0.095761	0.394044
	C195	C	0.403639	0.902912	0.395132
	C196	C	0.606065	0.395896	0.090829
	C197	C	0.603079	0.598520	0.900840
	C198	C	0.404055	0.598547	0.090508
	C199	C	0.403296	0.401039	0.900616
	C200	C	0.098170	0.599655	0.395009
	C201	C	0.907490	0.599762	0.595763
	C202	C	0.098868	0.398231	0.597846
	C203	C	0.908256	0.402529	0.396041
	C204	C	0.903479	0.595962	0.093297
	C205	C	0.104707	0.403973	0.097241
	C206	C	0.102411	0.596114	0.895023
	C207	C	0.904996	0.402504	0.896828
	C208	C	0.105135	0.897398	0.590645
	C209	C	0.101520	0.099756	0.400304
	C210	C	0.900872	0.100337	0.591423
	C211	C	0.903205	0.902472	0.400676
	C212	C	0.599975	0.099639	0.891986
	C213	C	0.408471	0.098576	0.093268
	C214	C	0.598501	0.898707	0.096198
	C215	C	0.408295	0.901777	0.895036
	Zn216	Zn	0.503416	0.000287	0.743639
	Zn217	Zn	0.502714	-0.001255	0.245180
	Zn218	Zn	0.754911	0.498121	-0.004591
	Zn219	Zn	0.253011	0.500156	-0.003939
	Zn220	Zn	0.003554	0.749671	0.495300
	Zn221	Zn	0.003208	0.250071	0.496345
	Zn222	Zn	0.003695	0.498972	0.747163
	Zn223	Zn	0.003651	0.501065	0.244937
	Zn224	Zn	0.503368	0.749715	-0.004606
	Zn225	Zn	0.504891	0.248943	-0.005481
	Zn226	Zn	0.751934	0.000093	0.495791
	Zn227	Zn	0.253391	-0.001144	0.494207
	N228	N	0.417046	0.962898	0.673150
	N229	N	0.588830	0.036547	0.671671
	N230	N	0.588208	0.961831	0.318165
	N231	N	0.415735	0.036134	0.315178
	N232	N	0.684207	0.411147	0.958949
	N233	N	0.681808	0.583190	0.032885
	N234	N	0.324585	0.586569	0.958970
	N235	N	0.325661	0.413041	0.032964
	N236	N	0.965456	0.678902	0.409777
	N237	N	0.041392	0.675170	0.579271
	N238	N	0.965599	0.322264	0.581548
	N239	N	0.041036	0.323084	0.411705
	N240	N	0.966335	0.412681	0.676068
	N241	N	0.040061	0.585194	0.674823
	N242	N	0.966427	0.588198	0.315530
	N243	N	0.040557	0.414535	0.317661
	N244	N	0.417872	0.677818	0.957884
	N245	N	0.588883	0.676371	0.033115
	N246	N	0.590059	0.320978	0.957353
	N247	N	0.419812	0.321024	0.032793
	N248	N	0.681589	0.962804	0.409125
	N249	N	0.679645	0.036932	0.579944
	N250	N	0.326695	0.961709	0.578979
	N251	N	0.324397	0.036172	0.408079
	N252	N	0.918171	0.463456	0.174071
	N253	N	0.090091	0.537196	0.173758
	N254	N	0.089882	0.462381	0.818677
	N255	N	0.917648	0.535858	0.817870
	N256	N	0.183602	0.911180	0.458563
	N257	N	0.181636	0.085108	0.531551
	N258	N	0.823037	0.087225	0.459024
	N259	N	0.825058	0.914220	0.532833
	N260	N	0.467132	0.178355	0.908119
	N261	N	0.542543	0.173378	0.077352
	N262	N	0.465543	0.821481	0.080229
	N263	N	0.541392	0.822462	0.910338
	N264	N	0.466326	0.911166	0.175271
	N265	N	0.540242	0.084684	0.173548
	N266	N	0.467142	0.087845	0.813881
	N267	N	0.540997	0.914905	0.816957
	N268	N	0.916302	0.179904	0.458819
	N269	N	0.087413	0.175792	0.533209
	N270	N	0.088987	0.821449	0.457978
	N271	N	0.919595	0.823150	0.533400
	N272	N	0.181086	0.462568	0.911664
	N273	N	0.182155	0.536996	0.082402
	N274	N	0.828082	0.461570	0.080604
	N275	N	0.825491	0.535671	0.909375
	O276	O	1.037685	1.006082	-0.012384
	H277	H	1.035625	1.000014	-0.022932
	H278	H	1.044121	1.021677	-0.011727
	O279	O	0.054839	0.065279	1.129888
	H280	H	0.047411	0.079318	1.131191
	H281	H	0.047923	0.067233	1.130784
	O282	O	-0.019059	0.015225	-0.091627
	H283	H	-0.017986	0.014828	-0.104926
	H284	H	-0.020443	0.007233	-0.088605
	O285	O	0.406137	0.501708	0.395133
	H286	H	0.393569	0.497589	0.381931
	H287	H	0.408575	0.514550	0.399326
	O288	O	0.012973	0.018647	0.010552
	H289	H	0.010506	0.018274	0.013041
	H290	H	0.007689	0.011077	0.017746
	O291	O	-0.007563	1.018162	0.044983
	H292	H	0.002706	1.021503	0.041786
	H293	H	-0.014193	1.023672	0.040146
	O294	O	-0.027746	1.005890	-0.019915
	H295	H	-0.036947	0.997409	-0.022517
	H296	H	-0.032980	1.006780	-0.014623
	O297	O	0.444999	0.481459	0.522695
	H298	H	0.439403	0.480211	0.525405
	H299	H	0.438125	0.472796	0.534067
	O300	O	0.505590	0.401567	0.485301
	H301	H	0.521543	0.405814	0.482527
	H302	H	0.500821	0.408196	0.478447
	O303	O	0.936305	-0.012132	0.997097
	H304	H	0.929581	-0.010786	1.007859
	H305	H	0.940860	-0.003377	0.997137
	O306	O	-0.019268	0.928440	1.062280
	H307	H	-0.010246	0.933393	1.062454
	H308	H	-0.009246	0.918460	1.065760
	O309	O	-0.010175	1.000778	1.028129
	H310	H	-0.006966	0.990353	1.028474
	H311	H	-0.018672	1.008794	1.037237
	O312	O	0.044091	0.025846	0.983740
	H313	H	0.034622	0.026950	0.985901
	H314	H	0.043706	0.031439	0.980206
	O315	O	0.492501	0.555496	0.488260
	H316	H	0.500843	0.547556	0.497421
	H317	H	0.483157	0.564295	0.490180
	O318	O	0.206819	-0.263130	0.761314
	H319	H	0.204820	-0.275071	0.764135
	H320	H	0.209388	-0.263396	0.765826
	O321	O	0.498655	0.508510	0.556968
	H322	H	0.506133	0.508447	0.570216
	H323	H	0.484102	0.497863	0.546623
	O324	O	0.999420	-0.032601	1.007461
	H325	H	1.003712	-0.042636	1.001671
	H326	H	1.007568	-0.037579	1.006897
	O327	O	1.010873	1.032681	1.019702
	H328	H	1.013776	1.049424	1.013300
	H329	H	1.012242	1.030120	1.030597
	O330	O	0.462571	0.495422	0.427226
	H331	H	0.456045	0.496495	0.434094
	H332	H	0.463782	0.489983	0.423416
	O333	O	0.439221	0.588909	0.445639
	H334	H	0.439051	0.594902	0.446840
	H335	H	0.447918	0.589208	0.442821
	O336	O	0.560388	0.451521	0.494676
	H337	H	0.567384	0.447246	0.487441
	H338	H	0.563753	0.462431	0.478213
	O339	O	0.464599	0.501207	0.539416
	H340	H	0.461742	0.502891	0.544603
	H341	H	0.473986	0.488505	0.537350
	O342	O	0.469278	0.446619	0.554457
	H343	H	0.467122	0.440512	0.551618
	H344	H	0.466972	0.445693	0.556348
	O345	O	0.531186	0.500237	0.474131
	H346	H	0.516218	0.508482	0.472771
	H347	H	0.524231	0.506626	0.467715
