data_Molecule from HDF5

_cell_length_a		16.522919
_cell_length_b		16.485824
_cell_length_c		16.575228
_cell_angle_alpha	90.008596
_cell_angle_beta	89.887198
_cell_angle_gamma	90.077634
_symmetry_space_group_name_H-M	'P 1'
_symmetry_Int_Tables_number		1

loop_
	_symmetry_equiv_pos_as_xyz
	x,y,z

loop_
	_atom_site_label
	_atom_site_type_symbol
	_atom_site_fract_x
	_atom_site_fract_y
	_atom_site_fract_z
	H0	H	0.404910	0.864707	0.719905
	H1	H	0.617668	0.178003	0.727945
	H2	H	0.613939	0.865178	0.280213
	H3	H	0.403280	0.179768	0.280735
	H4	H	0.732115	0.412836	0.846383
	H5	H	0.728901	0.629126	0.159111
	H6	H	0.287278	0.624541	0.844924
	H7	H	0.284039	0.415508	0.158040
	H8	H	0.848502	0.743838	0.397895
	H9	H	0.163991	0.741982	0.604652
	H10	H	0.849296	0.297367	0.610573
	H11	H	0.163647	0.302622	0.397724
	H12	H	0.848932	0.413304	0.726324
	H13	H	0.163486	0.625728	0.721788
	H14	H	0.847967	0.628065	0.281423
	H15	H	0.161552	0.415817	0.278851
	H16	H	0.404846	0.740816	0.844281
	H17	H	0.611983	0.744872	0.158892
	H18	H	0.615397	0.297394	0.846421
	H19	H	0.400550	0.298938	0.158320
	H20	H	0.728561	0.865798	0.396175
	H21	H	0.732210	0.179479	0.610570
	H22	H	0.287103	0.865782	0.603644
	H23	H	0.288123	0.180625	0.397079
	H24	H	0.895694	0.365561	0.227366
	H25	H	0.111046	0.678566	0.222921
	H26	H	0.113298	0.365900	0.778449
	H27	H	0.900475	0.678477	0.780744
	H28	H	0.227904	0.918496	0.345020
	H29	H	0.229647	0.129107	0.657249
	H30	H	0.780642	0.133142	0.346782
	H31	H	0.781560	0.914718	0.656034
	H32	H	0.351004	0.243417	0.896461
	H33	H	0.661902	0.250077	0.112739
	H34	H	0.350045	0.801922	0.105653
	H35	H	0.664033	0.800849	0.896591
	H36	H	0.350909	0.917620	0.222401
	H37	H	0.662749	0.132829	0.227111
	H38	H	0.352015	0.129564	0.778845
	H39	H	0.662159	0.912922	0.776129
	H40	H	0.898613	0.247340	0.345726
	H41	H	0.110934	0.243195	0.658684
	H42	H	0.110280	0.802414	0.345347
	H43	H	0.897644	0.799247	0.656291
	H44	H	0.228900	0.365163	0.895142
	H45	H	0.226166	0.679258	0.105676
	H46	H	0.779364	0.365818	0.112419
	H47	H	0.786053	0.679077	0.898741
	H48	H	0.418423	0.138411	0.595571
	H49	H	0.597231	0.911533	0.585281
	H50	H	0.586828	0.133697	0.409611
	H51	H	0.421965	0.910253	0.410487
	H52	H	0.593144	0.436583	0.111519
	H53	H	0.599140	0.609169	0.889947
	H54	H	0.419618	0.615072	0.114916
	H55	H	0.422132	0.434548	0.892085
	H56	H	0.116564	0.612080	0.415839
	H57	H	0.889802	0.621995	0.591598
	H58	H	0.116385	0.434840	0.589896
	H59	H	0.894026	0.434231	0.418189
	H60	H	0.116832	0.434805	0.591622
	H61	H	0.898584	0.606608	0.582345
	H62	H	0.118600	0.607741	0.407809
	H63	H	0.895829	0.437986	0.415826
	H64	H	0.410737	0.614161	0.117410
	H65	H	0.594303	0.609255	0.892041
	H66	H	0.590580	0.439034	0.110551
	H67	H	0.418370	0.426749	0.888070
	H68	H	0.592361	0.131626	0.422116
	H69	H	0.594931	0.911011	0.592085
	H70	H	0.422602	0.134386	0.590093
	H71	H	0.416110	0.909981	0.415753
	H72	H	0.917971	0.631423	0.087113
	H73	H	0.094232	0.409483	0.090375
	H74	H	0.095967	0.636285	0.908688
	H75	H	0.918457	0.409615	0.916362
	H76	H	0.100120	0.935048	0.615104
	H77	H	0.096601	0.107251	0.390979
	H78	H	0.920445	0.104962	0.609598
	H79	H	0.919943	0.931537	0.389084
	H80	H	0.618067	0.108198	0.915922
	H81	H	0.394877	0.116750	0.088929
	H82	H	0.620463	0.935850	0.092677
	H83	H	0.396117	0.935393	0.913150
	H84	H	0.620762	0.931544	0.090104
	H85	H	0.399948	0.104942	0.085470
	H86	H	0.618819	0.107290	0.915171
	H87	H	0.393208	0.932614	0.907675
	H88	H	0.923640	0.111448	0.610305
	H89	H	0.092831	0.115985	0.389939
	H90	H	0.094633	0.935483	0.612743
	H91	H	0.915610	0.936066	0.388709
	H92	H	0.093669	0.633964	0.913856
	H93	H	0.093415	0.409381	0.090702
	H94	H	0.915268	0.634989	0.092136
	H95	H	0.918703	0.409148	0.914245
	H96	H	0.415286	0.136844	0.588282
	H97	H	0.590594	0.914223	0.587369
	H98	H	0.600518	0.136952	0.411949
	H99	H	0.414627	0.907208	0.408699
	H100	H	0.589745	0.435431	0.110974
	H101	H	0.596264	0.613377	0.889874
	H102	H	0.414738	0.607183	0.113674
	H103	H	0.412516	0.434748	0.888957
	H104	H	0.120618	0.616764	0.408886
	H105	H	0.891362	0.604824	0.600952
	H106	H	0.117009	0.432854	0.590470
	H107	H	0.892838	0.434800	0.413863
	H108	H	0.921355	0.631987	0.092929
	H109	H	0.093514	0.409384	0.089760
	H110	H	0.099676	0.635653	0.913126
	H111	H	0.920670	0.410116	0.915694
	H112	H	0.096690	0.930335	0.615428
	H113	H	0.101538	0.114584	0.386795
	H114	H	0.917034	0.110108	0.613301
	H115	H	0.920552	0.937356	0.391731
	H116	H	0.619088	0.108438	0.914750
	H117	H	0.395108	0.106438	0.098161
	H118	H	0.618616	0.935586	0.088082
	H119	H	0.393496	0.928719	0.913444
	C120	C	0.386915	0.031769	0.622175
	C121	C	0.628605	1.015143	0.622847
	C122	C	0.627558	0.030975	0.381097
	C123	C	0.385867	1.013644	0.379722
	C124	C	0.627187	0.401546	0.009477
	C125	C	0.628855	0.644005	0.993828
	C126	C	0.385105	0.643026	0.010877
	C127	C	0.384405	0.399152	0.992941
	C128	C	0.014414	0.644290	0.379525
	C129	C	0.997542	0.643149	0.622957
	C130	C	0.013734	0.400188	0.624460
	C131	C	0.997572	0.402219	0.382162
	C132	C	0.883585	0.529841	0.124641
	C133	C	0.126461	0.513236	0.122491
	C134	C	0.128300	0.530754	0.879818
	C135	C	0.885941	0.513217	0.882248
	C136	C	0.128397	0.901738	0.510352
	C137	C	0.128889	0.144881	0.492815
	C138	C	0.885661	0.143827	0.509060
	C139	C	0.885299	0.901612	0.492454
	C140	C	0.515715	0.141501	0.882104
	C141	C	0.499569	0.143934	0.124110
	C142	C	0.515960	0.901853	0.122374
	C143	C	0.498264	0.899953	0.879158
	C144	C	0.385520	0.912302	0.680548
	C145	C	0.634162	0.131637	0.686226
	C146	C	0.631816	0.912768	0.319875
	C147	C	0.384486	0.132343	0.320365
	C148	C	0.690668	0.396242	0.893193
	C149	C	0.688381	0.646645	0.112072
	C150	C	0.327010	0.643446	0.891803
	C151	C	0.323979	0.396779	0.110843
	C152	C	0.895770	0.703704	0.378911
	C153	C	0.116558	0.702270	0.623794
	C154	C	0.896319	0.338288	0.627999
	C155	C	0.115762	0.341675	0.378886
	C156	C	0.896152	0.395962	0.685985
	C157	C	0.116178	0.644687	0.682065
	C158	C	0.895605	0.646062	0.320885
	C159	C	0.114854	0.398190	0.319958
	C160	C	0.385379	0.701227	0.891764
	C161	C	0.630305	0.704558	0.111792
	C162	C	0.632819	0.338227	0.893024
	C163	C	0.382298	0.339060	0.111001
	C164	C	0.688644	0.912894	0.378075
	C165	C	0.691286	0.132347	0.627705
	C166	C	0.327016	0.912836	0.623254
	C167	C	0.327267	0.132791	0.378430
	C168	C	0.878745	0.412475	0.186758
	C169	C	0.129173	0.631506	0.182809
	C170	C	0.131129	0.412891	0.818900
	C171	C	0.882324	0.631410	0.820963
	C172	C	0.187892	0.899982	0.392245
	C173	C	0.189003	0.147105	0.610439
	C174	C	0.822716	0.149316	0.392933
	C175	C	0.823124	0.897852	0.609375
	C176	C	0.398083	0.203045	0.878650
	C177	C	0.615791	0.207790	0.129227
	C178	C	0.397665	0.841666	0.124587
	C179	C	0.616380	0.839973	0.877104
	C180	C	0.398024	0.899104	0.182704
	C181	C	0.616062	0.149485	0.186531
	C182	C	0.398469	0.146246	0.820187
	C183	C	0.615504	0.895841	0.817380
	C184	C	0.881326	0.206431	0.392540
	C185	C	0.129964	0.203856	0.611343
	C186	C	0.129579	0.842252	0.392287
	C187	C	0.880868	0.839976	0.609477
	C188	C	0.188505	0.412524	0.877106
	C189	C	0.186731	0.631702	0.124711
	C190	C	0.820719	0.412781	0.129418
	C191	C	0.825741	0.631817	0.879922
	C192	C	0.411592	0.114735	0.598250
	C193	C	0.601934	0.933601	0.595864
	C194	C	0.600970	0.112706	0.407003
	C195	C	0.410539	0.930705	0.404559
	C196	C	0.599159	0.429068	0.090041
	C197	C	0.603814	0.617993	0.911842
	C198	C	0.408324	0.618983	0.093657
	C199	C	0.410216	0.424796	0.911036
	C200	C	0.097002	0.619314	0.403811
	C201	C	0.914934	0.618330	0.598681
	C202	C	0.095428	0.426722	0.598234
	C203	C	0.915773	0.428252	0.408447
	C204	C	0.910545	0.611572	0.098160
	C205	C	0.101044	0.430920	0.097413
	C206	C	0.103446	0.613604	0.904652
	C207	C	0.911920	0.431234	0.907903
	C208	C	0.103998	0.926564	0.592942
	C209	C	0.104016	0.119811	0.410592
	C210	C	0.912561	0.116565	0.589912
	C211	C	0.911355	0.927658	0.410942
	C212	C	0.597280	0.115445	0.907871
	C213	C	0.417792	0.117070	0.098083
	C214	C	0.598329	0.927096	0.097320
	C215	C	0.415788	0.925262	0.904139
	Zn216	Zn	0.507697	0.022591	0.751421
	Zn217	Zn	0.508164	0.022388	0.252313
	Zn218	Zn	0.756569	0.521700	0.002599
	Zn219	Zn	0.256218	0.521566	0.001888
	Zn220	Zn	0.006357	0.772177	0.501670
	Zn221	Zn	0.006102	0.273187	0.501795
	Zn222	Zn	0.005518	0.522028	0.752434
	Zn223	Zn	0.005198	0.521796	0.251812
	Zn224	Zn	0.507016	0.772125	0.001217
	Zn225	Zn	0.507668	0.271258	0.001897
	Zn226	Zn	0.756595	0.023384	0.500746
	Zn227	Zn	0.257832	0.023290	0.500951
	N228	N	0.421645	0.987297	0.680245
	N229	N	0.596008	0.057746	0.683254
	N230	N	0.594510	0.987170	0.321590
	N231	N	0.419907	0.057057	0.320774
	N232	N	0.687497	0.434514	0.966860
	N233	N	0.687675	0.609763	0.037706
	N234	N	0.326512	0.608216	0.966892
	N235	N	0.325113	0.433313	0.036349
	N236	N	0.970752	0.702914	0.414482
	N237	N	0.041616	0.701599	0.587931
	N238	N	0.970568	0.340597	0.590677
	N239	N	0.041813	0.344062	0.416688
	N240	N	0.970327	0.433870	0.683819
	N241	N	0.041138	0.608812	0.681781
	N242	N	0.970507	0.610023	0.320951
	N243	N	0.040085	0.434637	0.321336
	N244	N	0.420577	0.701251	0.966755
	N245	N	0.594074	0.702975	0.037278
	N246	N	0.593854	0.341549	0.966284
	N247	N	0.419033	0.340152	0.036417
	N248	N	0.686147	0.987283	0.415337
	N249	N	0.688063	0.058812	0.588972
	N250	N	0.327658	0.988021	0.587797
	N251	N	0.327816	0.057665	0.414444
	N252	N	0.917016	0.486460	0.183899
	N253	N	0.092486	0.556712	0.181812
	N254	N	0.094132	0.487412	0.820708
	N255	N	0.918952	0.556629	0.822219
	N256	N	0.187355	0.936021	0.466915
	N257	N	0.188762	0.111496	0.535564
	N258	N	0.825374	0.111014	0.466403
	N259	N	0.825647	0.935551	0.535630
	N260	N	0.471937	0.200412	0.916474
	N261	N	0.542320	0.204434	0.091119
	N262	N	0.472317	0.842775	0.088052
	N263	N	0.542354	0.842337	0.914726
	N264	N	0.472715	0.935515	0.181743
	N265	N	0.542579	0.110448	0.183331
	N266	N	0.472626	0.108801	0.822040
	N267	N	0.540720	0.932264	0.818408
	N268	N	0.919823	0.203061	0.465821
	N269	N	0.093503	0.202998	0.536989
	N270	N	0.093189	0.843139	0.466832
	N271	N	0.918910	0.842132	0.535653
	N272	N	0.186871	0.487008	0.914306
	N273	N	0.185116	0.557154	0.087868
	N274	N	0.823591	0.486873	0.091567
	N275	N	0.827815	0.557385	0.917267
	O276	O	0.813707	0.830236	0.197093
	H277	H	0.798700	0.829496	0.167458
	H278	H	0.832084	0.850196	0.186232
	O279	O	-0.021583	-0.199687	1.220242
	H280	H	-0.033293	-0.226545	1.243900
	H281	H	-0.032934	-0.187621	1.215587
	O282	O	0.485256	0.311862	0.711470
	H283	H	0.482497	0.303231	0.723992
	H284	H	0.483505	0.316779	0.711162
	O285	O	0.305735	0.320195	0.648169
	H286	H	0.309722	0.330729	0.642761
	H287	H	0.321316	0.332487	0.659352
	O288	O	0.794287	-0.190943	1.031592
	H289	H	0.794440	-0.198109	1.014781
	H290	H	0.787360	-0.195152	1.020672
	O291	O	0.202817	0.775299	0.213072
	H292	H	0.188979	0.801986	0.194879
	H293	H	0.220576	0.781931	0.201134
	O294	O	-0.030346	0.241075	-0.166273
	H295	H	-0.020889	0.243992	-0.170713
	H296	H	-0.013397	0.250759	-0.185220
	O297	O	0.785340	0.000447	1.218677
	H298	H	0.759864	0.003459	1.227340
	H299	H	0.792279	-0.014752	1.215626
	O300	O	-0.059845	-0.130327	-0.100342
	H301	H	-0.062966	-0.123608	-0.114601
	H302	H	-0.049790	-0.131568	-0.075203
	O303	O	-0.141050	0.045567	-0.049835
	H304	H	-0.147080	0.035478	-0.056834
	H305	H	-0.143071	0.050184	-0.042852
	O306	O	1.117128	0.098172	0.031612
	H307	H	1.130339	0.100336	0.032527
	H308	H	1.122319	0.097108	0.030552
	O309	O	0.480393	0.317018	0.469193
	H310	H	0.475910	0.330909	0.466348
	H311	H	0.475794	0.311891	0.467124
	O312	O	0.382925	0.386132	0.304665
	H313	H	0.361753	0.379640	0.298977
	H314	H	0.372042	0.408060	0.312481
	O315	O	0.433761	0.562262	0.569744
	H316	H	0.432430	0.558844	0.556362
	H317	H	0.434737	0.554207	0.565658
	O318	O	0.609591	0.696277	-0.626117
	H319	H	0.589029	0.699990	-0.642204
	H320	H	0.593366	0.690719	-0.625892
	O321	O	0.718984	0.308612	0.481801
	H322	H	0.702188	0.314642	0.479876
	H323	H	0.743438	0.284195	0.482789
	O324	O	1.379932	-0.278986	0.634887
	H325	H	1.380964	-0.271902	0.625438
	H326	H	1.374969	-0.278374	0.636357
	O327	O	0.298840	0.731282	0.477360
	H328	H	0.287460	0.725113	0.465915
	H329	H	0.297332	0.734678	0.464035
	O330	O	0.225733	0.879424	0.012394
	H331	H	0.234647	0.871020	-0.005067
	H332	H	0.229092	0.886300	0.017105
	O333	O	0.283423	0.574595	0.555463
	H334	H	0.283365	0.579396	0.554759
	H335	H	0.281157	0.559079	0.546230
	O336	O	0.542734	0.580363	0.306995
	H337	H	0.580114	0.565445	0.299280
	H338	H	0.529023	0.575119	0.311675
	O339	O	0.499883	0.684080	0.475223
	H340	H	0.493415	0.684876	0.473227
	H341	H	0.496255	0.686635	0.473415
	O342	O	0.117960	0.931524	-0.015633
	H343	H	0.123791	0.924352	-0.004050
	H344	H	0.112365	0.939605	-0.004029
	O345	O	1.046704	0.932749	0.066332
	H346	H	1.032808	0.938512	0.061514
	H347	H	1.040441	0.935464	0.054464
	O348	O	0.509403	0.542255	0.331335
	H349	H	0.501844	0.546173	0.338708
	H350	H	0.501674	0.549336	0.335073
	O351	O	0.116012	0.004377	0.902082
	H352	H	0.126311	0.015405	0.899611
	H353	H	0.102248	-0.004867	0.899052
	O354	O	0.988437	-0.158757	1.012698
	H355	H	0.980553	-0.140842	1.017494
	H356	H	0.981159	-0.154055	1.030311
	O357	O	0.598074	0.497695	0.568852
	H358	H	0.590220	0.508326	0.575241
	H359	H	0.608952	0.504810	0.565418
	O360	O	0.138524	-0.094062	1.207367
	H361	H	0.122429	-0.068144	1.211037
	H362	H	0.134829	-0.084955	1.188725
	O363	O	0.304141	0.319548	0.484595
	H364	H	0.314129	0.328411	0.506881
	H365	H	0.281421	0.294748	0.488587
	O366	O	1.559446	0.308432	0.548553
	H367	H	1.541558	0.312611	0.558299
	H368	H	1.569141	0.303249	0.541674
	O369	O	-0.216287	-0.174438	0.763079
	H370	H	-0.210970	-0.188685	0.774742
	H371	H	-0.235198	-0.194427	0.749612
	O372	O	0.011275	1.010523	1.131628
	H373	H	0.012261	1.019341	1.145336
	H374	H	0.015356	1.012861	1.125343
	O375	O	1.152003	0.002779	0.077814
	H376	H	1.155976	0.006157	0.079637
	H377	H	1.152955	-0.000195	0.064096
	O378	O	0.309593	0.469211	0.701060
	H379	H	0.326024	0.477306	0.695591
	H380	H	0.292611	0.493132	0.709403
	O381	O	0.038177	0.805827	-0.218454
	H382	H	0.044980	0.807577	-0.208708
	H383	H	0.038543	0.786864	-0.236478
	O384	O	0.295272	0.519530	0.358708
	H385	H	0.280969	0.517720	0.350913
	H386	H	0.294529	0.529932	0.356777
	O387	O	0.307356	0.642796	0.298861
	H388	H	0.304020	0.665641	0.291097
	H389	H	0.289749	0.651074	0.294009
	O390	O	0.223119	1.239046	1.033900
	H391	H	0.221966	1.233506	1.025814
	H392	H	0.247588	1.255391	1.028244
	O393	O	0.839300	0.202918	-0.176107
	H394	H	0.836474	0.180247	-0.169770
	H395	H	0.883384	0.207502	-0.189031
	O396	O	-0.032095	0.223425	0.063577
	H397	H	-0.022353	0.218510	0.060511
	H398	H	-0.039085	0.227235	0.050318
	O399	O	0.215241	0.816962	0.792785
	H400	H	0.191617	0.817767	0.809066
	H401	H	0.232509	0.806180	0.781890
	O402	O	1.228875	-0.007361	0.777778
	H403	H	1.233793	-0.023286	0.760383
	H404	H	1.232083	-0.019379	0.763902
	O405	O	0.722585	0.551904	0.720588
	H406	H	0.723258	0.549680	0.697965
	H407	H	0.753894	0.548818	0.742448
	O408	O	0.984658	1.238063	1.190137
	H409	H	0.981007	1.250876	1.179016
	H410	H	0.978891	1.243061	1.198487
	O411	O	0.689273	0.341553	0.322158
	H412	H	0.645904	0.328658	0.319131
	H413	H	0.690412	0.338102	0.343163
	O414	O	-0.189182	0.126292	0.044151
	H415	H	-0.187409	0.126425	0.021704
	H416	H	-0.203651	0.131986	0.050750
	O417	O	0.724382	0.497605	0.283047
	H418	H	0.734654	0.481542	0.267919
	H419	H	0.732738	0.469030	0.272839
	O420	O	1.220254	0.052796	1.217710
	H421	H	1.240943	0.047302	1.227946
	H422	H	1.212614	0.068372	1.211202
	O423	O	1.200651	1.221877	0.203525
	H424	H	1.209861	1.197087	0.180023
	H425	H	1.163699	1.228699	0.193079
	O426	O	0.722563	0.610098	0.467129
	H427	H	0.717637	0.624595	0.457738
	H428	H	0.736485	0.603098	0.440066
	O429	O	0.536637	0.726112	0.301416
	H430	H	0.550946	0.726809	0.303453
	H431	H	0.548509	0.726675	0.278008
	O432	O	1.214188	0.188958	0.834653
	H433	H	1.224690	0.196843	0.825530
	H434	H	1.200519	0.176877	0.829553
	O435	O	0.663939	0.659819	0.581051
	H436	H	0.667222	0.649207	0.557373
	H437	H	0.675253	0.674287	0.571593
	O438	O	0.403485	0.457418	0.559008
	H439	H	0.416834	0.434683	0.555984
	H440	H	0.396332	0.447116	0.569474
	O441	O	0.526129	0.489398	0.597544
	H442	H	0.524637	0.488834	0.584351
	H443	H	0.537130	0.491158	0.595655
	O444	O	0.799450	0.057163	0.030235
	H445	H	0.793671	0.062694	0.024240
	H446	H	0.800082	0.080002	0.035620
	O447	O	0.997959	0.007809	0.782522
	H448	H	0.980342	-0.020787	0.786784
	H449	H	1.001057	-0.006746	0.787538
	O450	O	0.613337	0.496874	0.562493
	H451	H	0.604426	0.497364	0.561828
	H452	H	0.621912	0.498485	0.540379
	O453	O	0.710701	0.724571	0.653269
	H454	H	0.676648	0.725120	0.650436
	H455	H	0.722006	0.712747	0.637235
	O456	O	-0.092887	1.044766	1.130703
	H457	H	-0.094075	1.047158	1.136870
	H458	H	-0.115342	1.037296	1.134819
	O459	O	0.435245	0.634124	0.710012
	H460	H	0.448810	0.628808	0.700993
	H461	H	0.444730	0.629132	0.697707
	O462	O	0.530863	0.313038	0.294843
	H463	H	0.516166	0.311466	0.291456
	H464	H	0.511124	0.323011	0.284527
	O465	O	0.830578	0.056637	0.811134
	H466	H	0.813646	0.061491	0.785311
	H467	H	0.846749	0.055044	0.815082
	O468	O	-0.957750	0.040380	-0.153525
	H469	H	-0.956520	0.034328	-0.160781
	H470	H	-0.969044	0.045837	-0.160419
	O471	O	-0.075642	0.211018	0.964923
	H472	H	-0.055863	0.209314	0.962589
	H473	H	-0.093796	0.219949	0.957225
	O474	O	1.077760	1.154284	-0.062162
	H475	H	1.071647	1.143288	-0.052748
	H476	H	1.087653	1.149847	-0.069582
	O477	O	0.511949	0.656919	0.707662
	H478	H	0.515791	0.656464	0.701591
	H479	H	0.519736	0.657889	0.710908
