data_Molecule from HDF5

_cell_length_a		16.730838
_cell_length_b		16.600773
_cell_length_c		16.561296
_cell_angle_alpha	90.018624
_cell_angle_beta	89.951607
_cell_angle_gamma	89.932423
_symmetry_space_group_name_H-M	'P 1'
_symmetry_Int_Tables_number		1

loop_
	_symmetry_equiv_pos_as_xyz
	x,y,z

loop_
	_atom_site_label
	_atom_site_type_symbol
	_atom_site_fract_x
	_atom_site_fract_y
	_atom_site_fract_z
	H0	H	0.392698	0.829653	0.743676
	H1	H	0.606385	0.137592	0.743931
	H2	H	0.604056	0.828861	0.298793
	H3	H	0.394885	0.139879	0.299500
	H4	H	0.721163	0.378891	0.863513
	H5	H	0.718791	0.585226	0.177417
	H6	H	0.278489	0.592051	0.864463
	H7	H	0.275788	0.375205	0.172479
	H8	H	0.844257	0.702818	0.416771
	H9	H	0.155305	0.705429	0.624139
	H10	H	0.845155	0.263159	0.624493
	H11	H	0.155242	0.262075	0.415143
	H12	H	0.844661	0.381184	0.739925
	H13	H	0.156181	0.587574	0.739772
	H14	H	0.844120	0.586264	0.300294
	H15	H	0.155046	0.378308	0.298122
	H16	H	0.396177	0.705780	0.864026
	H17	H	0.602463	0.701205	0.177655
	H18	H	0.604708	0.263149	0.863105
	H19	H	0.394916	0.262821	0.174661
	H20	H	0.722361	0.829654	0.412830
	H21	H	0.721467	0.138969	0.626447
	H22	H	0.272553	0.831915	0.632952
	H23	H	0.275091	0.137310	0.411842
	H24	H	0.900357	0.326495	0.236969
	H25	H	0.106922	0.638183	0.242156
	H26	H	0.104382	0.326590	0.799711
	H27	H	0.900381	0.642046	0.802747
	H28	H	0.224531	0.874541	0.365876
	H29	H	0.226550	0.094924	0.672464
	H30	H	0.780522	0.088393	0.362775
	H31	H	0.778767	0.880155	0.674968
	H32	H	0.347659	0.209913	0.909815
	H33	H	0.654262	0.205008	0.124557
	H34	H	0.346637	0.761110	0.127238
	H35	H	0.654316	0.760715	0.913040
	H36	H	0.345575	0.879964	0.241523
	H37	H	0.653305	0.089991	0.241830
	H38	H	0.348126	0.093810	0.792900
	H39	H	0.652944	0.875049	0.795245
	H40	H	0.897445	0.203684	0.362994
	H41	H	0.106502	0.207000	0.674628
	H42	H	0.106965	0.760963	0.364834
	H43	H	0.896667	0.765854	0.676813
	H44	H	0.223646	0.328952	0.912149
	H45	H	0.223068	0.638147	0.126078
	H46	H	0.782999	0.327026	0.121593
	H47	H	0.781005	0.640643	0.915432
	H48	H	0.409266	0.092359	0.598511
	H49	H	0.592526	0.873153	0.603176
	H50	H	0.586200	0.096205	0.428492
	H51	H	0.408454	0.872032	0.431453
	H52	H	0.586583	0.398432	0.129035
	H53	H	0.586279	0.575699	0.908005
	H54	H	0.407863	0.575451	0.133605
	H55	H	0.412864	0.397938	0.908138
	H56	H	0.110646	0.570883	0.430612
	H57	H	0.889090	0.572064	0.613481
	H58	H	0.111124	0.397117	0.612895
	H59	H	0.888636	0.396106	0.427849
	H60	H	0.112240	0.389395	0.607419
	H61	H	0.887752	0.578325	0.611887
	H62	H	0.111003	0.573659	0.431568
	H63	H	0.887451	0.390823	0.429201
	H64	H	0.409496	0.566012	0.129654
	H65	H	0.595766	0.576350	0.904939
	H66	H	0.589142	0.385461	0.134479
	H67	H	0.414046	0.397542	0.908037
	H68	H	0.590076	0.094921	0.435824
	H69	H	0.589409	0.871225	0.610033
	H70	H	0.410208	0.096561	0.611223
	H71	H	0.414662	0.872597	0.429437
	H72	H	0.905534	0.597722	0.110497
	H73	H	0.090520	0.370193	0.110038
	H74	H	0.088385	0.595517	0.926907
	H75	H	0.909563	0.369636	0.922970
	H76	H	0.087960	0.903373	0.628780
	H77	H	0.089592	0.067212	0.409601
	H78	H	0.910182	0.076042	0.633096
	H79	H	0.908508	0.894557	0.406043
	H80	H	0.606693	0.070436	0.938026
	H81	H	0.388531	0.075903	0.106975
	H82	H	0.610168	0.898344	0.112126
	H83	H	0.390030	0.896084	0.931569
	H84	H	0.614724	0.889327	0.113659
	H85	H	0.389352	0.070885	0.108348
	H86	H	0.608890	0.066559	0.929585
	H87	H	0.391275	0.894460	0.935285
	H88	H	0.906449	0.071501	0.632044
	H89	H	0.084304	0.069818	0.410536
	H90	H	0.081752	0.894117	0.629773
	H91	H	0.911840	0.896281	0.407600
	H92	H	0.087398	0.593001	0.934252
	H93	H	0.084887	0.374706	0.106346
	H94	H	0.911678	0.596754	0.112751
	H95	H	0.914626	0.374031	0.932196
	H96	H	0.420978	0.090769	0.605160
	H97	H	0.585189	0.874497	0.604652
	H98	H	0.594026	0.098673	0.429429
	H99	H	0.413156	0.874360	0.435934
	H100	H	0.598683	0.395193	0.134052
	H101	H	0.592506	0.567839	0.909278
	H102	H	0.417040	0.572632	0.129970
	H103	H	0.413280	0.396760	0.907960
	H104	H	0.109084	0.571499	0.433127
	H105	H	0.890344	0.574807	0.607435
	H106	H	0.108633	0.397046	0.604180
	H107	H	0.891736	0.394121	0.432446
	H108	H	0.910561	0.595213	0.105998
	H109	H	0.091902	0.372952	0.102271
	H110	H	0.093801	0.596364	0.932342
	H111	H	0.903762	0.370441	0.932183
	H112	H	0.092571	0.894544	0.633587
	H113	H	0.088553	0.072801	0.407744
	H114	H	0.912039	0.071167	0.630224
	H115	H	0.911696	0.891938	0.407059
	H116	H	0.611562	0.075016	0.931630
	H117	H	0.387404	0.074313	0.112156
	H118	H	0.610665	0.891783	0.104848
	H119	H	0.392160	0.898149	0.934568
	C120	C	0.379327	-0.007914	0.640342
	C121	C	0.621402	0.975244	0.640285
	C122	C	0.621621	-0.006732	0.398582
	C123	C	0.378925	0.975612	0.399438
	C124	C	0.622334	0.361930	0.028603
	C125	C	0.621831	0.604437	1.011625
	C126	C	0.379236	0.604947	0.028372
	C127	C	0.380063	0.363678	1.010426
	C128	C	0.008032	0.604495	0.398943
	C129	C	0.991975	0.606253	0.641984
	C130	C	0.008459	0.362327	0.640937
	C131	C	0.991811	0.361823	0.398230
	C132	C	0.879716	0.492408	0.140372
	C133	C	0.122238	0.475032	0.140042
	C134	C	0.121887	0.491916	0.898437
	C135	C	0.879261	0.475618	0.898261
	C136	C	0.120977	0.863332	0.528421
	C137	C	0.121183	0.104029	0.511650
	C138	C	0.878689	0.104792	0.527952
	C139	C	0.878786	0.862846	0.510627
	C140	C	0.508239	0.104765	0.898442
	C141	C	0.490768	0.105744	0.141268
	C142	C	0.509303	0.861952	0.142403
	C143	C	0.492185	0.862362	0.899516
	C144	C	0.374844	0.876260	0.703236
	C145	C	0.624379	0.091476	0.702768
	C146	C	0.623238	0.875804	0.338652
	C147	C	0.376373	0.092987	0.339372
	C148	C	0.681294	0.360394	0.910489
	C149	C	0.679522	0.604559	0.130185
	C150	C	0.318956	0.609179	0.911071
	C151	C	0.317651	0.358826	0.126609
	C152	C	0.891020	0.663245	0.397822
	C153	C	0.108981	0.665272	0.642806
	C154	C	0.891781	0.302955	0.643107
	C155	C	0.108681	0.302271	0.396564
	C156	C	0.891499	0.361471	0.700606
	C157	C	0.109330	0.606765	0.700033
	C158	C	0.891050	0.605474	0.339694
	C159	C	0.108764	0.360294	0.338724
	C160	C	0.377343	0.665863	0.911160
	C161	C	0.621494	0.661999	0.130333
	C162	C	0.623512	0.302947	0.910317
	C163	C	0.376828	0.303034	0.127679
	C164	C	0.682010	0.876274	0.395093
	C165	C	0.681544	0.092138	0.644514
	C166	C	0.315406	0.877341	0.647653
	C167	C	0.317132	0.091654	0.395325
	C168	C	0.880686	0.373699	0.197783
	C169	C	0.125330	0.591517	0.201696
	C170	C	0.123411	0.374259	0.838794
	C171	C	0.880302	0.594566	0.841172
	C172	C	0.183395	0.857803	0.412198
	C173	C	0.184119	0.110503	0.627057
	C174	C	0.820067	0.106974	0.409813
	C175	C	0.819347	0.861643	0.628369
	C176	C	0.393319	0.168145	0.892895
	C177	C	0.607428	0.165269	0.143133
	C178	C	0.393000	0.801720	0.145046
	C179	C	0.607792	0.800937	0.895287
	C180	C	0.392278	0.860734	0.201819
	C181	C	0.607179	0.107991	0.201439
	C182	C	0.393516	0.110399	0.834882
	C183	C	0.607152	0.858085	0.836811
	C184	C	0.878140	0.164144	0.410111
	C185	C	0.124752	0.166433	0.627993
	C186	C	0.124917	0.801250	0.411714
	C187	C	0.877893	0.804952	0.629398
	C188	C	0.182767	0.375207	0.894632
	C189	C	0.183032	0.591528	0.144060
	C190	C	0.822528	0.373884	0.140596
	C191	C	0.820926	0.593701	0.897145
	C192	C	0.405935	0.072325	0.612735
	C193	C	0.596156	0.894094	0.613621
	C194	C	0.596974	0.075222	0.423852
	C195	C	0.404832	0.894062	0.424969
	C196	C	0.598403	0.386192	0.111085
	C197	C	0.598177	0.580192	0.928911
	C198	C	0.404104	0.578864	0.109796
	C199	C	0.406107	0.389968	0.929101
	C200	C	0.089214	0.579157	0.424316
	C201	C	0.910308	0.582048	0.617634
	C202	C	0.089618	0.387432	0.615543
	C203	C	0.910738	0.386687	0.422799
	C204	C	0.902745	0.575036	0.116557
	C205	C	0.096672	0.393799	0.113734
	C206	C	0.096947	0.573891	0.923972
	C207	C	0.902604	0.392869	0.921980
	C208	C	0.094854	0.889856	0.609661
	C209	C	0.094985	0.077349	0.430421
	C210	C	0.902734	0.080071	0.610393
	C211	C	0.903718	0.887096	0.428358
	C212	C	0.588184	0.078169	0.925401
	C213	C	0.409440	0.080731	0.116290
	C214	C	0.590665	0.886223	0.117547
	C215	C	0.411820	0.888645	0.926295
	Zn216	Zn	0.500124	-0.017061	0.769383
	Zn217	Zn	0.499856	-0.015426	0.270731
	Zn218	Zn	0.750792	0.483596	0.019537
	Zn219	Zn	0.250977	0.483818	0.018773
	Zn220	Zn	0.000285	0.734676	0.519615
	Zn221	Zn	0.000201	0.232819	0.519633
	Zn222	Zn	0.000816	0.483597	0.770079
	Zn223	Zn	0.000888	0.483746	0.268867
	Zn224	Zn	0.500754	0.732959	0.020368
	Zn225	Zn	0.500004	0.234416	0.019075
	Zn226	Zn	0.750206	-0.015557	0.519499
	Zn227	Zn	0.250137	-0.016661	0.520133
	N228	N	0.413930	0.948587	0.698839
	N229	N	0.587634	0.017676	0.700288
	N230	N	0.586489	0.949673	0.340481
	N231	N	0.414244	0.019652	0.341709
	N232	N	0.681017	0.396222	0.985193
	N233	N	0.680164	0.569748	0.055150
	N234	N	0.319717	0.571995	0.985143
	N235	N	0.319595	0.395948	0.052657
	N236	N	0.964924	0.663082	0.433724
	N237	N	0.034807	0.665216	0.607504
	N238	N	0.965664	0.303163	0.606955
	N239	N	0.034937	0.302873	0.432628
	N240	N	0.965260	0.397623	0.699480
	N241	N	0.035464	0.570968	0.699972
	N242	N	0.965152	0.569811	0.339893
	N243	N	0.035042	0.396484	0.339225
	N244	N	0.413947	0.663658	0.985133
	N245	N	0.586550	0.662260	0.055417
	N246	N	0.587644	0.303480	0.984891
	N247	N	0.414916	0.305790	0.054312
	N248	N	0.681119	0.950554	0.431616
	N249	N	0.680008	0.018732	0.606507
	N250	N	0.317796	0.950456	0.609219
	N251	N	0.318748	0.017614	0.431963
	N252	N	0.915260	0.448558	0.198054
	N253	N	0.088033	0.517877	0.199235
	N254	N	0.086494	0.448095	0.840853
	N255	N	0.915701	0.519987	0.841573
	N256	N	0.181143	0.895768	0.485795
	N257	N	0.181770	0.072212	0.553670
	N258	N	0.820207	0.070948	0.484352
	N259	N	0.819605	0.896816	0.553419
	N260	N	0.465628	0.164815	0.931700
	N261	N	0.533901	0.164277	0.106471
	N262	N	0.466767	0.802086	0.108718
	N263	N	0.535312	0.803477	0.933763
	N264	N	0.465724	0.897254	0.200557
	N265	N	0.533416	0.071774	0.200530
	N266	N	0.465909	0.071647	0.838002
	N267	N	0.534158	0.895664	0.839359
	N268	N	0.913854	0.163083	0.484780
	N269	N	0.086154	0.162567	0.555009
	N270	N	0.086738	0.804592	0.485000
	N271	N	0.914087	0.805388	0.555029
	N272	N	0.182017	0.449466	0.930991
	N273	N	0.181361	0.517911	0.106569
	N274	N	0.821493	0.448885	0.105867
	N275	N	0.819856	0.518529	0.931771
	O276	O	-0.049719	1.127513	-0.196759
	H277	H	-0.038828	1.126661	-0.207928
	H278	H	-0.032151	1.122323	-0.196449
	O279	O	0.294154	0.695054	0.311864
	H280	H	0.294073	0.670101	0.333732
	H281	H	0.299550	0.707574	0.297019
	O282	O	0.791456	0.195408	0.805926
	H283	H	0.833147	0.186853	0.802017
	H284	H	0.797170	0.172944	0.828111
	O285	O	0.723239	0.703490	0.554268
	H286	H	0.723733	0.714958	0.569439
	H287	H	0.733198	0.719809	0.565570
	O288	O	0.963654	0.764782	0.236589
	H289	H	0.947179	0.754766	0.250374
	H290	H	0.945792	0.759301	0.249855
	O291	O	0.727918	0.446006	0.295089
	H292	H	0.747098	0.439396	0.283316
	H293	H	0.739507	0.436061	0.298996
	O294	O	1.289250	0.269509	0.585402
	H295	H	1.299333	0.284464	0.582313
	H296	H	1.278259	0.260365	0.582042
	O297	O	0.542416	0.279789	0.532195
	H298	H	0.543311	0.285928	0.532927
	H299	H	0.560459	0.278750	0.526882
	O300	O	0.220399	0.201380	1.054938
	H301	H	0.232163	0.210189	1.060563
	H302	H	0.225213	0.200571	1.060176
	O303	O	0.546016	0.545110	0.353823
	H304	H	0.569244	0.524764	0.349374
	H305	H	0.547210	0.528606	0.367736
	O306	O	0.781117	0.766703	0.180999
	H307	H	0.780104	0.784891	0.173665
	H308	H	0.753005	0.740765	0.213329
	O309	O	0.456277	0.445940	0.477001
	H310	H	0.460314	0.444714	0.482656
	H311	H	0.463254	0.433514	0.471164
	O312	O	0.558354	0.658181	0.366241
	H313	H	0.556994	0.654361	0.375060
	H314	H	0.542839	0.674372	0.360379
	O315	O	0.915675	1.003255	1.169010
	H316	H	0.929228	1.027298	1.167693
	H317	H	0.911213	1.010374	1.160946
	O318	O	0.704483	1.279225	0.312252
	H319	H	0.737896	1.246412	0.280597
	H320	H	0.713508	1.298527	0.338788
	O321	O	-0.132776	0.995202	1.078889
	H322	H	-0.148858	0.982496	1.085757
	H323	H	-0.110289	1.000565	1.085446
	O324	O	0.959971	0.763955	-0.014237
	H325	H	0.963940	0.772407	-0.015844
	H326	H	0.970189	0.759513	0.002144
	O327	O	-0.178326	-0.239311	1.032264
	H328	H	-0.198145	-0.255959	1.047234
	H329	H	-0.171654	-0.235730	1.026573
	O330	O	0.722856	0.476079	0.644934
	H331	H	0.706682	0.466726	0.659693
	H332	H	0.736038	0.474252	0.664793
	O333	O	0.471787	0.720581	0.547753
	H334	H	0.468256	0.725150	0.547108
	H335	H	0.471762	0.711934	0.552409
	O336	O	0.518335	0.683608	0.528079
	H337	H	0.524635	0.676510	0.529806
	H338	H	0.512465	0.681253	0.526079
	O339	O	1.217472	-0.039723	0.799305
	H340	H	1.212686	-0.076207	0.813861
	H341	H	1.248311	-0.048692	0.772222
	O342	O	0.023372	0.035983	-0.065425
	H343	H	0.035419	0.037709	-0.068156
	H344	H	0.021281	0.033427	-0.061561
	O345	O	0.196271	1.088494	0.973022
	H346	H	0.195014	1.086666	0.965482
	H347	H	0.197484	1.092080	0.954527
	O348	O	0.153565	-0.086705	0.037027
	H349	H	0.155953	-0.068934	0.043647
	H350	H	0.143921	-0.082711	0.041617
	O351	O	1.030487	0.820871	0.063722
	H352	H	1.049233	0.814839	0.073520
	H353	H	1.041593	0.827426	0.084434
	O354	O	0.087913	-0.048280	1.036853
	H355	H	0.095258	-0.065220	1.017751
	H356	H	0.095014	-0.048594	1.043926
	O357	O	0.717536	0.263355	0.484117
	H358	H	0.735997	0.246172	0.494878
	H359	H	0.715924	0.275776	0.471391
	O360	O	0.433844	0.684925	0.719685
	H361	H	0.442502	0.682438	0.715073
	H362	H	0.446758	0.677820	0.711977
	O363	O	-0.045001	0.007832	-0.100701
	H364	H	-0.041552	0.011632	-0.124217
	H365	H	-0.041531	0.014500	-0.089164
	O366	O	0.531660	0.533931	0.670992
	H367	H	0.539061	0.540752	0.669122
	H368	H	0.523393	0.522047	0.678806
	O369	O	0.776625	0.022557	-0.012915
	H370	H	0.779911	-0.005309	-0.019646
	H371	H	0.768332	0.003042	0.010482
	O372	O	0.856176	0.977825	0.230090
	H373	H	0.870439	0.997873	0.229874
	H374	H	0.863075	0.977144	0.219253
	O375	O	0.985520	-0.092005	0.055970
	H376	H	0.995727	-0.112853	0.057622
	H377	H	0.977906	-0.089549	0.051306
	O378	O	0.675525	0.512050	0.482570
	H379	H	0.677318	0.524159	0.480920
	H380	H	0.673969	0.520571	0.478813
	O381	O	0.012766	1.000065	1.019518
	H382	H	-0.001107	1.005833	1.032630
	H383	H	0.008086	0.998136	1.016926
	O384	O	0.804548	-0.197810	0.981136
	H385	H	0.815399	-0.175485	0.988758
	H386	H	0.822196	-0.190699	0.998509
	O387	O	1.110775	1.041628	-0.159388
	H388	H	1.123152	1.043427	-0.158962
	H389	H	1.115261	1.028876	-0.159051
	O390	O	0.585532	0.413690	0.718589
	H391	H	0.599804	0.401436	0.722134
	H392	H	0.577533	0.402726	0.721790
	O393	O	0.208280	0.191348	0.227362
	H394	H	0.215657	0.164705	0.205004
	H395	H	0.242440	0.221650	0.259671
	O396	O	0.454584	0.272777	0.718073
	H397	H	0.443607	0.255877	0.738584
	H398	H	0.465970	0.268973	0.711053
	O399	O	0.227097	-0.023107	1.182051
	H400	H	0.235873	-0.018331	1.186484
	H401	H	0.225595	-0.009980	1.173445
	O402	O	0.775136	0.204779	-0.012138
	H403	H	0.776597	0.192402	-0.032364
	H404	H	0.746414	0.228411	-0.013376
	O405	O	1.267018	0.252401	0.751301
	H406	H	1.263758	0.253352	0.735387
	H407	H	1.281424	0.253198	0.755655
	O408	O	0.013504	0.183566	-0.069035
	H409	H	0.024193	0.203279	-0.068555
	H410	H	0.014930	0.173042	-0.063939
	O411	O	1.219659	0.768288	0.983146
	H412	H	1.234581	0.754984	0.993402
	H413	H	1.218391	0.767145	0.987915
	O414	O	0.489039	0.288948	0.517003
	H415	H	0.485614	0.288409	0.519916
	H416	H	0.495989	0.284644	0.508358
	O417	O	0.528586	0.266150	0.300139
	H418	H	0.566549	0.263438	0.302131
	H419	H	0.543375	0.243992	0.282367
	O420	O	0.356368	0.589146	0.302700
	H421	H	0.371383	0.587152	0.299987
	H422	H	0.360844	0.598087	0.281632
	O423	O	-0.210645	-0.080319	0.810393
	H424	H	-0.214791	-0.065946	0.816974
	H425	H	-0.212251	-0.073100	0.819184
	O426	O	0.277036	0.406380	0.525498
	H427	H	0.281682	0.413736	0.518894
	H428	H	0.273003	0.418663	0.525649
	O429	O	1.068834	0.872159	1.200964
	H430	H	1.052032	0.857566	1.213702
	H431	H	1.074010	0.878817	1.194844
	O432	O	0.651413	0.424541	0.467049
	H433	H	0.654388	0.438283	0.461220
	H434	H	0.657946	0.426524	0.478047
	O435	O	0.206903	0.784500	-0.185582
	H436	H	0.223929	0.765806	-0.168126
	H437	H	0.208395	0.766494	-0.189229
	O438	O	-0.198666	0.180873	0.214446
	H439	H	-0.185470	0.163225	0.185894
	H440	H	-0.175600	0.159710	0.204147
	O441	O	0.041250	-0.234155	-0.203814
	H442	H	0.049739	-0.250529	-0.215481
	H443	H	0.053125	-0.240290	-0.214329
	O444	O	-0.073035	0.087330	0.183200
	H445	H	-0.059020	0.059049	0.179728
	H446	H	-0.054859	0.121981	0.186721
	O447	O	-0.965113	2.204339	1.245299
	H448	H	-0.922382	2.199092	1.228475
	H449	H	-0.956759	2.238925	1.280218
	O450	O	-0.293374	0.691433	0.723162
	H451	H	-0.297525	0.674655	0.721849
	H452	H	-0.270780	0.712118	0.744110
	O453	O	0.674933	0.667468	0.338418
	H454	H	0.653763	0.652238	0.354312
	H455	H	0.659047	0.650464	0.356268
	O456	O	0.359107	0.463964	0.681053
	H457	H	0.359288	0.454802	0.678338
	H458	H	0.355759	0.458203	0.684360
	O459	O	1.192887	0.792208	0.210930
	H460	H	1.199452	0.788751	0.219223
	H461	H	1.192482	0.816474	0.188148
	O462	O	0.288666	0.704081	0.500988
	H463	H	0.296216	0.683573	0.483488
	H464	H	0.274273	0.734826	0.495075
	O465	O	0.280427	-0.501862	0.620705
	H466	H	0.291893	-0.492868	0.611880
	H467	H	0.280494	-0.496941	0.630497
	O468	O	0.454781	0.526853	0.489976
	H469	H	0.480833	0.528549	0.490918
	H470	H	0.448848	0.509560	0.494715
	O471	O	0.320851	0.586788	0.718490
	H472	H	0.328935	0.577307	0.708003
	H473	H	0.318389	0.585680	0.706603
	O474	O	0.133383	1.130738	-0.144005
	H475	H	0.122789	1.129547	-0.137114
	H476	H	0.144314	1.124133	-0.145473
	O477	O	0.399194	0.553192	1.342391
	H478	H	0.388171	0.572261	1.329967
	H479	H	0.405290	0.558179	1.343090
	O480	O	0.460105	0.468677	0.677143
	H481	H	0.464582	0.480264	0.680856
	H482	H	0.458133	0.451602	0.677312
	O483	O	0.309002	0.290869	0.327645
	H484	H	0.321036	0.301648	0.357020
	H485	H	0.334150	0.316377	0.333992
	O486	O	0.437298	0.420728	0.293749
	H487	H	0.442390	0.419910	0.300798
	H488	H	0.457884	0.408144	0.288349
	O489	O	1.405506	0.428402	0.463369
	H490	H	1.402023	0.424521	0.464190
	H491	H	1.417566	0.418069	0.467872
	O492	O	-0.028591	0.210697	0.033323
	H493	H	-0.030667	0.210557	0.039763
	H494	H	-0.031987	0.211092	0.018678
	O495	O	-0.239114	0.933742	0.990254
	H496	H	-0.244108	0.908341	1.006163
	H497	H	-0.231874	0.930585	0.998428
	O498	O	0.687421	1.295871	0.705812
	H499	H	0.695810	1.300623	0.690480
	H500	H	0.707072	1.269492	0.725303
	O501	O	0.632880	0.605320	0.739676
	H502	H	0.650362	0.617297	0.734411
	H503	H	0.643536	0.621015	0.763382
