data_Molecule from HDF5

_cell_length_a		16.370945
_cell_length_b		16.157268
_cell_length_c		16.019835
_cell_angle_alpha	90.634167
_cell_angle_beta	90.294816
_cell_angle_gamma	89.545682
_symmetry_space_group_name_H-M	'P 1'
_symmetry_Int_Tables_number		1

loop_
	_symmetry_equiv_pos_as_xyz
	x,y,z

loop_
	_atom_site_label
	_atom_site_type_symbol
	_atom_site_fract_x
	_atom_site_fract_y
	_atom_site_fract_z
	H0	H	0.405723	0.828677	0.709533
	H1	H	0.595682	0.159694	0.715603
	H2	H	0.600150	0.831217	0.284482
	H3	H	0.403845	0.161664	0.292728
	H4	H	0.713811	0.389366	0.832252
	H5	H	0.718452	0.598455	0.161913
	H6	H	0.280656	0.594753	0.833623
	H7	H	0.285429	0.392794	0.162251
	H8	H	0.839512	0.712376	0.395289
	H9	H	0.164551	0.708399	0.599495
	H10	H	0.837411	0.280386	0.595592
	H11	H	0.162608	0.273672	0.397034
	H12	H	0.836924	0.398315	0.710217
	H13	H	0.163779	0.591580	0.716308
	H14	H	0.837584	0.590876	0.284429
	H15	H	0.163846	0.391551	0.283327
	H16	H	0.399090	0.706391	0.832113
	H17	H	0.597105	0.706972	0.164927
	H18	H	0.598540	0.276188	0.833553
	H19	H	0.405350	0.286595	0.165519
	H20	H	0.717308	0.831142	0.397140
	H21	H	0.718031	0.157615	0.606778
	H22	H	0.285605	0.829856	0.599675
	H23	H	0.280853	0.156997	0.398310
	H24	H	0.905950	0.326782	0.207821
	H25	H	0.096977	0.657779	0.214238
	H26	H	0.096104	0.328063	0.785178
	H27	H	0.901713	0.659240	0.788119
	H28	H	0.217448	0.889582	0.334450
	H29	H	0.215351	0.097553	0.664757
	H30	H	0.781217	0.095314	0.335433
	H31	H	0.789104	0.894700	0.664031
	H32	H	0.336597	0.208586	0.901094
	H33	H	0.662051	0.211745	0.103102
	H34	H	0.336192	0.781059	0.097595
	H35	H	0.661789	0.774226	0.898285
	H36	H	0.335761	0.901984	0.212637
	H37	H	0.663255	0.093478	0.216644
	H38	H	0.336769	0.091720	0.786429
	H39	H	0.663435	0.892307	0.785615
	H40	H	0.903096	0.202275	0.331032
	H41	H	0.097339	0.208903	0.664080
	H42	H	0.100856	0.777242	0.333126
	H43	H	0.906735	0.785556	0.664864
	H44	H	0.217219	0.329944	0.893985
	H45	H	0.216524	0.656364	0.104018
	H46	H	0.784616	0.329240	0.097720
	H47	H	0.780374	0.655341	0.893933
	H48	H	0.409569	0.112474	0.599401
	H49	H	0.599204	0.875906	0.590376
	H50	H	0.592308	0.112328	0.411035
	H51	H	0.410648	0.875473	0.400529
	H52	H	0.587799	0.398587	0.117028
	H53	H	0.588579	0.579377	0.881318
	H54	H	0.405931	0.588601	0.117514
	H55	H	0.403155	0.403607	0.878548
	H56	H	0.117111	0.583181	0.406123
	H57	H	0.886397	0.587371	0.589191
	H58	H	0.121213	0.387811	0.593132
	H59	H	0.884695	0.396533	0.405638
	H60	H	0.112120	0.403216	0.578893
	H61	H	0.884066	0.590237	0.595622
	H62	H	0.116898	0.586336	0.406219
	H63	H	0.885354	0.402068	0.404067
	H64	H	0.405872	0.585372	0.116489
	H65	H	0.588376	0.586388	0.878814
	H66	H	0.604129	0.403008	0.120606
	H67	H	0.411069	0.403680	0.880749
	H68	H	0.594200	0.113381	0.413240
	H69	H	0.595785	0.875976	0.592119
	H70	H	0.411678	0.108649	0.587243
	H71	H	0.412480	0.879569	0.411246
	H72	H	0.908769	0.607014	0.081395
	H73	H	0.092429	0.378231	0.080628
	H74	H	0.108906	0.616728	0.911942
	H75	H	0.904142	0.372791	0.900117
	H76	H	0.098749	0.904198	0.619434
	H77	H	0.097243	0.086462	0.376200
	H78	H	0.909000	0.081534	0.616719
	H79	H	0.903264	0.901960	0.377213
	H80	H	0.617918	0.088291	0.908573
	H81	H	0.386496	0.084309	0.090573
	H82	H	0.618488	0.898148	0.098514
	H83	H	0.385025	0.903612	0.906730
	H84	H	0.614560	0.895903	0.086472
	H85	H	0.380994	0.091669	0.103454
	H86	H	0.614582	0.085297	0.912041
	H87	H	0.382170	0.901239	0.899903
	H88	H	0.914061	0.092044	0.617262
	H89	H	0.095216	0.074580	0.382075
	H90	H	0.093938	0.906006	0.616052
	H91	H	0.908911	0.908795	0.382622
	H92	H	0.084612	0.614195	0.893153
	H93	H	0.104099	0.371718	0.089566
	H94	H	0.899989	0.613160	0.091742
	H95	H	0.910975	0.376230	0.903400
	H96	H	0.399266	0.113769	0.590391
	H97	H	0.595491	0.877844	0.588498
	H98	H	0.594654	0.114248	0.410566
	H99	H	0.401669	0.875015	0.408169
	H100	H	0.592931	0.414045	0.112907
	H101	H	0.595260	0.582191	0.878373
	H102	H	0.409237	0.586587	0.116183
	H103	H	0.407596	0.396501	0.878001
	H104	H	0.116627	0.585252	0.408851
	H105	H	0.884811	0.594931	0.589835
	H106	H	0.117048	0.409402	0.601422
	H107	H	0.882724	0.398550	0.400622
	H108	H	0.914013	0.609154	0.094570
	H109	H	0.090099	0.373963	0.095641
	H110	H	0.082784	0.604372	0.922026
	H111	H	0.904431	0.375053	0.908401
	H112	H	0.094344	0.900110	0.618341
	H113	H	0.084783	0.083359	0.382100
	H114	H	0.902353	0.090961	0.620956
	H115	H	0.911637	0.899238	0.379939
	H116	H	0.615648	0.083067	0.907229
	H117	H	0.382187	0.099547	0.090613
	H118	H	0.613370	0.907831	0.091556
	H119	H	0.383112	0.895069	0.905758
	C120	C	0.379042	0.002885	0.620399
	C121	C	0.623797	0.985284	0.622051
	C122	C	0.622799	0.004351	0.379959
	C123	C	0.378819	0.985757	0.378764
	C124	C	0.622706	0.372585	0.007367
	C125	C	0.620929	0.614170	0.988795
	C126	C	0.377421	0.615364	0.007094
	C127	C	0.379424	0.373361	0.988952
	C128	C	0.009397	0.614891	0.376973
	C129	C	0.992591	0.617702	0.621745
	C130	C	0.008945	0.372463	0.619168
	C131	C	0.991829	0.369307	0.374623
	C132	C	0.879305	0.501221	0.118215
	C133	C	0.122993	0.483775	0.119997
	C134	C	0.121178	0.502460	0.878060
	C135	C	0.877588	0.483882	0.875781
	C136	C	0.124219	0.872119	0.508474
	C137	C	0.121229	0.113681	0.489593
	C138	C	0.878525	0.115885	0.508612
	C139	C	0.880932	0.874871	0.489794
	C140	C	0.508491	0.115043	0.879458
	C141	C	0.491379	0.119248	0.124108
	C142	C	0.507922	0.873000	0.121171
	C143	C	0.491181	0.870250	0.875915
	C144	C	0.383614	0.878222	0.673667
	C145	C	0.618243	0.109774	0.678567
	C146	C	0.620688	0.880517	0.322362
	C147	C	0.381885	0.111034	0.326997
	C148	C	0.676947	0.370640	0.882294
	C149	C	0.678502	0.615685	0.113028
	C150	C	0.319930	0.613931	0.882681
	C151	C	0.324033	0.374509	0.113262
	C152	C	0.887589	0.672429	0.377070
	C153	C	0.115559	0.671138	0.619698
	C154	C	0.885918	0.318356	0.615858
	C155	C	0.113995	0.312153	0.376796
	C156	C	0.885733	0.376930	0.672845
	C157	C	0.115048	0.613226	0.678001
	C158	C	0.886702	0.612234	0.321537
	C159	C	0.114961	0.371079	0.320600
	C160	C	0.378929	0.669396	0.881954
	C161	C	0.618253	0.669984	0.114483
	C162	C	0.619414	0.314318	0.883028
	C163	C	0.384019	0.321691	0.115040
	C164	C	0.679103	0.880622	0.378269
	C165	C	0.678974	0.108831	0.624290
	C166	C	0.323840	0.879007	0.618973
	C167	C	0.320993	0.108907	0.379819
	C168	C	0.883392	0.376686	0.172027
	C169	C	0.118304	0.608208	0.176412
	C170	C	0.117920	0.377907	0.821886
	C171	C	0.880292	0.608836	0.823048
	C172	C	0.179600	0.870729	0.383746
	C173	C	0.177422	0.115656	0.614808
	C174	C	0.820758	0.114419	0.384244
	C175	C	0.826830	0.876050	0.614609
	C176	C	0.385529	0.170786	0.880802
	C177	C	0.613728	0.173510	0.122497
	C178	C	0.385013	0.819019	0.118380
	C179	C	0.613385	0.812920	0.878111
	C180	C	0.384733	0.878838	0.175475
	C181	C	0.614216	0.114592	0.179074
	C182	C	0.385435	0.112233	0.824171
	C183	C	0.614114	0.871409	0.821917
	C184	C	0.881220	0.167915	0.382088
	C185	C	0.118575	0.170924	0.614595
	C186	C	0.121432	0.815070	0.383011
	C187	C	0.885267	0.821505	0.615061
	C188	C	0.177824	0.378711	0.876263
	C189	C	0.177823	0.607500	0.121597
	C190	C	0.823327	0.377865	0.117065
	C191	C	0.820090	0.607047	0.876091
	C192	C	0.400414	0.089209	0.598752
	C193	C	0.603027	0.898913	0.597598
	C194	C	0.600339	0.090793	0.404574
	C195	C	0.401550	0.899074	0.400327
	C196	C	0.601192	0.397880	0.094365
	C197	C	0.597683	0.589843	0.901994
	C198	C	0.400404	0.593273	0.094169
	C199	C	0.401012	0.394956	0.901808
	C200	C	0.094979	0.591633	0.400120
	C201	C	0.907256	0.596948	0.598584
	C202	C	0.094540	0.393802	0.597602
	C203	C	0.906397	0.392206	0.396680
	C204	C	0.901053	0.587256	0.095789
	C205	C	0.101839	0.396951	0.095788
	C206	C	0.098861	0.589291	0.901984
	C207	C	0.899890	0.397178	0.897551
	C208	C	0.102195	0.896191	0.595410
	C209	C	0.098963	0.088772	0.402624
	C210	C	0.901620	0.094255	0.595759
	C211	C	0.901719	0.896886	0.402589
	C212	C	0.593905	0.092351	0.902510
	C213	C	0.405535	0.098167	0.101601
	C214	C	0.593327	0.894244	0.098897
	C215	C	0.405742	0.893162	0.897685
	Zn216	Zn	0.500603	-0.006308	0.749367
	Zn217	Zn	0.500319	-0.003857	0.252229
	Zn218	Zn	0.750215	0.492968	-0.002994
	Zn219	Zn	0.250675	0.493131	-0.001621
	Zn220	Zn	0.001358	0.746729	0.498394
	Zn221	Zn	0.000079	0.241967	0.497976
	Zn222	Zn	-0.000189	0.494178	0.750076
	Zn223	Zn	0.001090	0.492427	0.247161
	Zn224	Zn	0.499177	0.742168	-0.001729
	Zn225	Zn	0.499914	0.246249	-0.000299
	Zn226	Zn	0.751764	-0.005405	0.500455
	Zn227	Zn	0.250616	-0.006132	0.499349
	N228	N	0.417391	0.956145	0.674827
	N229	N	0.584674	0.032111	0.677369
	N230	N	0.586261	0.958435	0.323326
	N231	N	0.417364	0.033277	0.326205
	N232	N	0.679181	0.406203	0.960867
	N233	N	0.680293	0.581595	0.033826
	N234	N	0.318964	0.581094	0.961625
	N235	N	0.321350	0.406353	0.034063
	N236	N	0.965151	0.674266	0.410811
	N237	N	0.038428	0.674230	0.585407
	N238	N	0.963509	0.315398	0.583303
	N239	N	0.036521	0.310974	0.409659
	N240	N	0.962983	0.410050	0.674922
	N241	N	0.037657	0.580749	0.679376
	N242	N	0.963527	0.577314	0.321422
	N243	N	0.038041	0.406011	0.318897
	N244	N	0.413811	0.670559	0.960304
	N245	N	0.583166	0.669208	0.036244
	N246	N	0.586636	0.315252	0.961852
	N247	N	0.417782	0.320825	0.036667
	N248	N	0.680667	0.958760	0.413221
	N249	N	0.682824	0.030399	0.590082
	N250	N	0.320723	0.957496	0.586797
	N251	N	0.318932	0.030030	0.410926
	N252	N	0.917448	0.454278	0.173053
	N253	N	0.085068	0.530127	0.175663
	N254	N	0.083352	0.455960	0.823003
	N255	N	0.915461	0.531226	0.822688
	N256	N	0.181252	0.905738	0.462379
	N257	N	0.178914	0.080436	0.535998
	N258	N	0.819072	0.082826	0.463734
	N259	N	0.823955	0.908503	0.535580
	N260	N	0.462986	0.172666	0.914560
	N261	N	0.536257	0.176582	0.089026
	N262	N	0.462544	0.815356	0.085369
	N263	N	0.535726	0.811575	0.910545
	N264	N	0.462132	0.911497	0.177657
	N265	N	0.536994	0.081688	0.180254
	N266	N	0.462945	0.078492	0.822834
	N267	N	0.537173	0.906299	0.820179
	N268	N	0.916329	0.169012	0.460427
	N269	N	0.084357	0.169775	0.535955
	N270	N	0.087852	0.815467	0.461725
	N271	N	0.918275	0.820495	0.536281
	N272	N	0.180013	0.457257	0.910439
	N273	N	0.180961	0.528924	0.087502
	N274	N	0.820541	0.456307	0.084307
	N275	N	0.818292	0.528365	0.908021
	O276	O	0.524173	0.441759	0.611291
	H277	H	0.517368	0.445766	0.610691
	H278	H	0.528276	0.433153	0.605664
	O279	O	0.579526	0.492044	0.317138
	H280	H	0.584961	0.491420	0.301789
	H281	H	0.562754	0.479700	0.325594
	O282	O	0.983839	0.923829	0.016103
	H283	H	0.981511	0.918661	0.017987
	H284	H	0.971605	0.938764	0.031952
	O285	O	1.036901	-0.091322	0.986213
	H286	H	1.042021	-0.091850	0.986798
	H287	H	1.032843	-0.095243	0.990151
	O288	O	0.473563	0.511627	0.553279
	H289	H	0.459422	0.506151	0.560125
	H290	H	0.489569	0.496010	0.552839
	O291	O	0.584299	0.649900	0.569463
	H292	H	0.587293	0.664846	0.581791
	H293	H	0.572764	0.642839	0.572687
	O294	O	0.389546	0.519290	0.478881
	H295	H	0.400906	0.525215	0.476823
	H296	H	0.387781	0.523415	0.478711
	O297	O	0.010360	0.050345	1.066215
	H298	H	0.007952	0.051017	1.057015
	H299	H	0.019295	0.045901	1.077097
	O300	O	0.521426	0.606884	0.610911
	H301	H	0.523500	0.587723	0.608061
	H302	H	0.508015	0.614112	0.609891
	O303	O	1.023143	1.024534	-0.078191
	H304	H	1.012206	1.019501	-0.072489
	H305	H	1.015523	1.020361	-0.079128
	O306	O	-0.070082	0.902810	0.995548
	H307	H	-0.070099	0.917609	0.993097
	H308	H	-0.075521	0.898008	0.992846
	O309	O	0.595476	0.433556	0.458228
	H310	H	0.597177	0.426867	0.446187
	H311	H	0.585971	0.448631	0.455554
	O312	O	-0.132695	0.038288	-0.058052
	H313	H	-0.131650	0.046466	-0.062373
	H314	H	-0.129099	0.044955	-0.065739
	O315	O	0.955638	-0.077769	0.064135
	H316	H	0.946285	-0.090879	0.055649
	H317	H	0.953737	-0.074805	0.067924
	O318	O	0.990865	1.108283	1.003014
	H319	H	0.986055	1.101214	0.988894
	H320	H	0.994618	1.121292	0.989410
	O321	O	0.062066	0.078670	0.950856
	H322	H	0.065012	0.079764	0.973571
	H323	H	0.067005	0.086660	0.951537
	O324	O	0.466785	0.566372	0.478087
	H325	H	0.479532	0.563273	0.484502
	H326	H	0.463528	0.554288	0.475842
	O327	O	-0.044477	0.033630	0.003519
	H328	H	-0.041263	0.031738	0.011685
	H329	H	-0.035520	0.043429	0.004854
	O330	O	0.624218	0.371125	0.457525
	H331	H	0.633537	0.359250	0.445837
	H332	H	0.610300	0.365002	0.454461
	O333	O	0.077286	0.934986	0.925112
	H334	H	0.070568	0.930733	0.925030
	H335	H	0.083320	0.928672	0.936564
	O336	O	-0.079173	-0.030839	0.124452
	H337	H	-0.079231	-0.028286	0.114132
	H338	H	-0.074651	-0.044489	0.128398
	O339	O	0.394371	0.373062	0.469875
	H340	H	0.404895	0.366494	0.472655
	H341	H	0.378903	0.378031	0.464179
	O342	O	1.009934	0.983662	1.024578
	H343	H	1.013844	0.980532	1.029640
	H344	H	1.002846	0.983273	1.023786
	O345	O	1.527052	1.432649	-0.397914
	H346	H	1.539117	1.436713	-0.404229
	H347	H	1.529809	1.434343	-0.392777
	O348	O	0.436290	0.541144	0.527805
	H349	H	0.443904	0.552074	0.533021
	H350	H	0.440174	0.543263	0.522881
	O351	O	0.393491	0.434548	0.550591
	H352	H	0.387001	0.430335	0.546393
	H353	H	0.399049	0.432977	0.551449
	O354	O	0.425943	0.661781	0.367109
	H355	H	0.429358	0.657031	0.358304
	H356	H	0.428566	0.669610	0.374924
	O357	O	0.935698	-0.058193	1.007652
	H358	H	0.922688	-0.054537	1.004780
	H359	H	0.938190	-0.055883	1.011058
	O360	O	0.493777	0.384473	0.425631
	H361	H	0.496327	0.395113	0.427039
	H362	H	0.480204	0.393816	0.438122
	O363	O	0.521091	0.656254	0.494035
	H364	H	0.530565	0.670541	0.490793
	H365	H	0.517298	0.670025	0.498709
	O366	O	0.967653	0.982242	1.058656
	H367	H	0.964904	0.975913	1.062360
	H368	H	0.960425	0.986274	1.059878
	O369	O	0.442723	0.381547	1.550034
	H370	H	0.441918	0.371806	1.555762
	H371	H	0.452341	0.381607	1.550355
	O372	O	-0.056174	0.015973	-0.101857
	H373	H	-0.049581	0.014202	-0.109653
	H374	H	-0.048904	0.012672	-0.103154
	O375	O	1.273613	0.213886	0.165918
	H376	H	1.276857	0.213865	0.169702
	H377	H	1.268712	0.218122	0.173551
	O378	O	0.585571	0.548458	0.457645
	H379	H	0.581290	0.550677	0.468645
	H380	H	0.588840	0.555049	0.451003
	O381	O	0.607488	0.507981	0.439258
	H382	H	0.612483	0.503652	0.427181
	H383	H	0.620763	0.513248	0.441864
