data_Molecule from HDF5

_cell_length_a		16.301265
_cell_length_b		16.117106
_cell_length_c		16.213220
_cell_angle_alpha	90.133840
_cell_angle_beta	89.479684
_cell_angle_gamma	90.155265
_symmetry_space_group_name_H-M	'P 1'
_symmetry_Int_Tables_number		1

loop_
	_symmetry_equiv_pos_as_xyz
	x,y,z

loop_
	_atom_site_label
	_atom_site_type_symbol
	_atom_site_fract_x
	_atom_site_fract_y
	_atom_site_fract_z
	H0	H	0.397855	0.836740	0.717187
	H1	H	0.594954	0.167126	0.718352
	H2	H	0.597400	0.837606	0.290576
	H3	H	0.401965	0.168289	0.291684
	H4	H	0.715944	0.401826	0.839793
	H5	H	0.714027	0.601782	0.166617
	H6	H	0.286444	0.602876	0.839403
	H7	H	0.278982	0.399732	0.165785
	H8	H	0.833900	0.716374	0.406122
	H9	H	0.162491	0.717695	0.598755
	H10	H	0.833467	0.289533	0.600128
	H11	H	0.161742	0.288255	0.401566
	H12	H	0.835051	0.402434	0.719366
	H13	H	0.161910	0.604925	0.715837
	H14	H	0.834928	0.602031	0.288450
	H15	H	0.161672	0.402969	0.284969
	H16	H	0.404572	0.714744	0.839210
	H17	H	0.596271	0.715088	0.168044
	H18	H	0.598394	0.288292	0.839093
	H19	H	0.400285	0.290573	0.169044
	H20	H	0.713646	0.838693	0.403485
	H21	H	0.711445	0.167605	0.603736
	H22	H	0.280722	0.838888	0.606052
	H23	H	0.286956	0.168636	0.406607
	H24	H	0.898967	0.337466	0.217083
	H25	H	0.096913	0.667586	0.214409
	H26	H	0.098923	0.338010	0.785286
	H27	H	0.902710	0.667543	0.791603
	H28	H	0.216587	0.903782	0.341084
	H29	H	0.211624	0.104929	0.668650
	H30	H	0.783034	0.104169	0.339936
	H31	H	0.781307	0.903188	0.666823
	H32	H	0.335421	0.215114	0.908854
	H33	H	0.662591	0.217066	0.101460
	H34	H	0.335617	0.786274	0.104198
	H35	H	0.663516	0.790693	0.905685
	H36	H	0.335304	0.902147	0.221248
	H37	H	0.662632	0.102406	0.218189
	H38	H	0.334597	0.099541	0.792489
	H39	H	0.660051	0.900941	0.785261
	H40	H	0.903308	0.213968	0.337285
	H41	H	0.092994	0.218439	0.667872
	H42	H	0.097162	0.791869	0.338187
	H43	H	0.898054	0.789258	0.667755
	H44	H	0.214890	0.337548	0.900018
	H45	H	0.214369	0.666567	0.101797
	H46	H	0.782390	0.338253	0.103594
	H47	H	0.785654	0.666922	0.903054
	H48	H	0.409212	0.121678	0.604913
	H49	H	0.594704	0.881656	0.601755
	H50	H	0.590494	0.118534	0.418714
	H51	H	0.406183	0.886720	0.417274
	H52	H	0.588325	0.410490	0.119381
	H53	H	0.607563	0.597026	0.880854
	H54	H	0.405626	0.592671	0.120649
	H55	H	0.400130	0.416630	0.886331
	H56	H	0.117686	0.599745	0.401554
	H57	H	0.883024	0.594117	0.595026
	H58	H	0.113632	0.407693	0.587503
	H59	H	0.879122	0.409285	0.401062
	H60	H	0.112043	0.418217	0.593262
	H61	H	0.881494	0.594838	0.600235
	H62	H	0.114371	0.600051	0.413455
	H63	H	0.881074	0.402276	0.414323
	H64	H	0.404376	0.592178	0.120459
	H65	H	0.591281	0.583828	0.889733
	H66	H	0.593745	0.406868	0.122208
	H67	H	0.417470	0.410769	0.890121
	H68	H	0.597676	0.123622	0.410213
	H69	H	0.582815	0.885974	0.596289
	H70	H	0.406567	0.118800	0.593433
	H71	H	0.404382	0.884258	0.412192
	H72	H	0.900710	0.621097	0.091409
	H73	H	0.090348	0.383849	0.092447
	H74	H	0.094255	0.623810	0.898530
	H75	H	0.895227	0.381779	0.913877
	H76	H	0.094761	0.907058	0.624140
	H77	H	0.091889	0.097181	0.385873
	H78	H	0.904102	0.096767	0.620525
	H79	H	0.893645	0.907703	0.381660
	H80	H	0.617847	0.099229	0.908171
	H81	H	0.382251	0.090407	0.104258
	H82	H	0.616047	0.906991	0.094698
	H83	H	0.379148	0.901600	0.909857
	H84	H	0.615220	0.912664	0.097815
	H85	H	0.380579	0.100803	0.101266
	H86	H	0.613477	0.093767	0.915218
	H87	H	0.382622	0.907788	0.918152
	H88	H	0.902869	0.096557	0.620498
	H89	H	0.098247	0.096161	0.385004
	H90	H	0.091121	0.916836	0.619823
	H91	H	0.909216	0.923459	0.389946
	H92	H	0.083738	0.615516	0.913229
	H93	H	0.090769	0.384214	0.093711
	H94	H	0.904259	0.622980	0.102342
	H95	H	0.911590	0.381518	0.898862
	H96	H	0.398168	0.123383	0.600097
	H97	H	0.593704	0.885625	0.587237
	H98	H	0.586721	0.121464	0.406905
	H99	H	0.409516	0.885896	0.413224
	H100	H	0.594575	0.414630	0.120832
	H101	H	0.587130	0.605907	0.884651
	H102	H	0.404763	0.591993	0.120235
	H103	H	0.404495	0.398535	0.883088
	H104	H	0.112690	0.589800	0.407397
	H105	H	0.881703	0.598813	0.596947
	H106	H	0.116807	0.408267	0.598947
	H107	H	0.884521	0.417102	0.413314
	H108	H	0.911315	0.618418	0.094607
	H109	H	0.089810	0.384890	0.093578
	H110	H	0.103597	0.621661	0.915939
	H111	H	0.914592	0.388724	0.920005
	H112	H	0.083633	0.907867	0.620519
	H113	H	0.094165	0.091853	0.387829
	H114	H	0.903451	0.095631	0.619988
	H115	H	0.914983	0.900503	0.385604
	H116	H	0.615221	0.089041	0.906383
	H117	H	0.384699	0.093457	0.094014
	H118	H	0.617314	0.907231	0.101654
	H119	H	0.382236	0.912475	0.908267
	C120	C	0.375672	0.011586	0.627241
	C121	C	0.618494	0.993761	0.624529
	C122	C	0.620414	0.011917	0.382477
	C123	C	0.378251	0.994555	0.384911
	C124	C	0.621206	0.381192	0.012434
	C125	C	0.622254	0.623983	0.994078
	C126	C	0.378047	0.622337	0.012104
	C127	C	0.377401	0.380464	0.994911
	C128	C	0.006610	0.625277	0.379967
	C129	C	0.990208	0.625385	0.624669
	C130	C	0.006258	0.381834	0.623329
	C131	C	0.989674	0.380790	0.379648
	C132	C	0.876612	0.511671	0.124814
	C133	C	0.119354	0.493225	0.122521
	C134	C	0.121934	0.511293	0.879383
	C135	C	0.878946	0.493534	0.882426
	C136	C	0.119658	0.882331	0.512523
	C137	C	0.120628	0.125068	0.495201
	C138	C	0.876268	0.124745	0.511664
	C139	C	0.876623	0.881963	0.494728
	C140	C	0.507154	0.122478	0.883058
	C141	C	0.490310	0.124323	0.127266
	C142	C	0.507951	0.879683	0.127072
	C143	C	0.489565	0.879269	0.882340
	C144	C	0.377534	0.886679	0.680759
	C145	C	0.615618	0.117948	0.680428
	C146	C	0.617852	0.887218	0.327832
	C147	C	0.381617	0.118877	0.329501
	C148	C	0.677087	0.382513	0.888520
	C149	C	0.676277	0.621920	0.117820
	C150	C	0.324256	0.622114	0.888582
	C151	C	0.318582	0.380909	0.117322
	C152	C	0.883087	0.679157	0.384602
	C153	C	0.113340	0.680652	0.620311
	C154	C	0.882887	0.326601	0.621281
	C155	C	0.112862	0.325891	0.381171
	C156	C	0.883681	0.382807	0.680525
	C157	C	0.112905	0.624131	0.678524
	C158	C	0.883598	0.622238	0.326179
	C159	C	0.112723	0.383137	0.323349
	C160	C	0.383154	0.677607	0.888479
	C161	C	0.617778	0.677921	0.118551
	C162	C	0.618670	0.325914	0.888365
	C163	C	0.379117	0.326743	0.119198
	C164	C	0.675804	0.887723	0.383857
	C165	C	0.673303	0.118094	0.623240
	C166	C	0.319527	0.887754	0.625256
	C167	C	0.324257	0.119054	0.386649
	C168	C	0.878699	0.386908	0.179421
	C169	C	0.117380	0.618132	0.177212
	C170	C	0.119382	0.387356	0.823315
	C171	C	0.882125	0.618402	0.828676
	C172	C	0.177291	0.884197	0.389488
	C173	C	0.173578	0.124103	0.619533
	C174	C	0.821493	0.123483	0.388329
	C175	C	0.820088	0.883516	0.618150
	C176	C	0.384172	0.177580	0.887300
	C177	C	0.613626	0.179664	0.123064
	C178	C	0.384597	0.823791	0.125125
	C179	C	0.613578	0.826492	0.884531
	C180	C	0.384474	0.881607	0.183290
	C181	C	0.613595	0.122580	0.180889
	C182	C	0.383713	0.119820	0.829880
	C183	C	0.611893	0.881257	0.824714
	C184	C	0.881209	0.178015	0.386924
	C185	C	0.115022	0.180824	0.619070
	C186	C	0.117906	0.828507	0.387994
	C187	C	0.878332	0.827127	0.618521
	C188	C	0.177106	0.387258	0.880269
	C189	C	0.175601	0.617755	0.121145
	C190	C	0.820676	0.387270	0.123242
	C191	C	0.823945	0.617802	0.884173
	C192	C	0.397991	0.098876	0.605710
	C193	C	0.596674	0.906776	0.601882
	C194	C	0.598165	0.098713	0.405226
	C195	C	0.400289	0.908089	0.407543
	C196	C	0.598778	0.403974	0.098618
	C197	C	0.601579	0.602050	0.907369
	C198	C	0.398866	0.599201	0.098388
	C199	C	0.400476	0.402363	0.908806
	C200	C	0.092686	0.603272	0.401336
	C201	C	0.904220	0.602700	0.603564
	C202	C	0.091946	0.404781	0.600049
	C203	C	0.903735	0.403036	0.402715
	C204	C	0.898834	0.598371	0.102627
	C205	C	0.097015	0.406816	0.099875
	C206	C	0.100274	0.598036	0.902455
	C207	C	0.900689	0.406339	0.904433
	C208	C	0.096570	0.904253	0.599114
	C209	C	0.100673	0.101930	0.408599
	C210	C	0.897122	0.102807	0.598071
	C211	C	0.899330	0.904095	0.408187
	C212	C	0.593294	0.100460	0.903822
	C213	C	0.404736	0.101535	0.106190
	C214	C	0.593844	0.902339	0.104629
	C215	C	0.403567	0.900951	0.905416
	Zn216	Zn	0.497128	0.001257	0.753662
	Zn217	Zn	0.498923	0.002768	0.255596
	Zn218	Zn	0.750344	0.502295	0.002807
	Zn219	Zn	0.248582	0.501714	0.002262
	Zn220	Zn	-0.001868	0.753835	0.502765
	Zn221	Zn	-0.002192	0.252800	0.501786
	Zn222	Zn	-0.001385	0.503125	0.753226
	Zn223	Zn	-0.001660	0.502886	0.251399
	Zn224	Zn	0.499642	0.750937	0.004039
	Zn225	Zn	0.499162	0.252391	0.004398
	Zn226	Zn	0.748058	0.003615	0.502969
	Zn227	Zn	0.249198	0.003678	0.505549
	N228	N	0.412012	0.964774	0.682134
	N229	N	0.582212	0.039501	0.681388
	N230	N	0.584391	0.965447	0.326709
	N231	N	0.414553	0.040364	0.328317
	N232	N	0.678806	0.416220	0.966541
	N233	N	0.679316	0.589008	0.039434
	N234	N	0.321114	0.587935	0.966225
	N235	N	0.317468	0.413803	0.038940
	N236	N	0.960715	0.681093	0.417165
	N237	N	0.036004	0.681491	0.587370
	N238	N	0.960111	0.326180	0.586182
	N239	N	0.035444	0.324354	0.415580
	N240	N	0.961360	0.416444	0.681958
	N241	N	0.035272	0.590191	0.681312
	N242	N	0.961511	0.589406	0.323226
	N243	N	0.035057	0.416572	0.322304
	N244	N	0.416030	0.677822	0.966375
	N245	N	0.584845	0.679185	0.040714
	N246	N	0.584553	0.325054	0.966282
	N247	N	0.415014	0.326130	0.042238
	N248	N	0.677559	0.966351	0.417015
	N249	N	0.675166	0.039834	0.589186
	N250	N	0.318529	0.966480	0.592608
	N251	N	0.322194	0.040918	0.420526
	N252	N	0.912627	0.465175	0.180579
	N253	N	0.083169	0.540033	0.178097
	N254	N	0.085677	0.465550	0.822759
	N255	N	0.915637	0.540134	0.827594
	N256	N	0.178529	0.916872	0.467956
	N257	N	0.177288	0.090326	0.541576
	N258	N	0.818071	0.091140	0.466827
	N259	N	0.818832	0.916920	0.540071
	N260	N	0.461932	0.179315	0.919725
	N261	N	0.535976	0.181079	0.090557
	N262	N	0.462197	0.822545	0.090971
	N263	N	0.536451	0.824979	0.919737
	N264	N	0.462073	0.915463	0.184664
	N265	N	0.536074	0.088762	0.183698
	N266	N	0.461228	0.086334	0.827162
	N267	N	0.533760	0.913475	0.823237
	N268	N	0.914636	0.178914	0.464461
	N269	N	0.083109	0.181653	0.540713
	N270	N	0.082720	0.827293	0.465528
	N271	N	0.912493	0.825858	0.540601
	N272	N	0.178943	0.465380	0.914321
	N273	N	0.177090	0.539031	0.087828
	N274	N	0.819213	0.465699	0.089986
	N275	N	0.821863	0.539089	0.917018
	O276	O	0.446688	0.473634	0.470033
	H277	H	0.445315	0.487579	0.458238
	H278	H	0.454056	0.465126	0.463373
	O279	O	0.485657	0.456223	0.588736
	H280	H	0.486948	0.458460	0.608657
	H281	H	0.487149	0.455032	0.582779
	O282	O	0.454753	0.574753	0.451274
	H283	H	0.456912	0.580547	0.447522
	H284	H	0.448759	0.578689	0.447943
	O285	O	-0.002921	0.980567	1.041653
	H286	H	0.002711	0.973969	1.039227
	H287	H	0.001128	0.979191	1.035814
	O288	O	0.528246	0.461088	0.522641
	H289	H	0.525144	0.455043	0.533311
	H290	H	0.540315	0.458422	0.515657
	O291	O	-0.010160	-0.005886	1.059043
	H292	H	-0.013203	-0.007373	1.066226
	H293	H	-0.017018	-0.009436	1.057453
	O294	O	0.425732	0.534389	0.573615
	H295	H	0.416735	0.515852	0.586207
	H296	H	0.435620	0.534006	0.574152
	O297	O	0.478502	0.537591	0.440633
	H298	H	0.475158	0.542461	0.441342
	H299	H	0.481559	0.544094	0.444794
	O300	O	0.396220	0.490523	0.609296
	H301	H	0.388738	0.481274	0.619706
	H302	H	0.396364	0.478573	0.599929
	O303	O	0.462964	0.497868	0.394481
	H304	H	0.456530	0.503447	0.394560
	H305	H	0.463495	0.487540	0.386079
	O306	O	0.989023	-0.016798	1.038498
	H307	H	0.987630	-0.020587	1.042043
	H308	H	0.987813	-0.013232	1.034563
	O309	O	0.519499	0.504211	0.397181
	H310	H	0.521766	0.499126	0.395479
	H311	H	0.505702	0.505481	0.393613
	O312	O	0.549350	0.526598	0.565345
	H313	H	0.551256	0.519163	0.579534
	H314	H	0.545527	0.528054	0.572882
	O315	O	0.953976	0.011705	1.057732
	H316	H	0.942265	0.008251	1.059579
	H317	H	0.958595	0.008733	1.058916
	O318	O	-0.495010	-0.429252	-0.510645
	H319	H	-0.497901	-0.428570	-0.512993
	H320	H	-0.484249	-0.441181	-0.509000
	O321	O	0.481899	0.457246	0.461366
	H322	H	0.481583	0.463488	0.465018
	H323	H	0.485433	0.462375	0.451337
	O324	O	0.996163	0.003441	0.004798
	H325	H	0.997631	0.004536	0.005447
	H326	H	0.993915	0.007259	0.003539
	O327	O	1.503904	1.490945	-0.413745
	H328	H	1.502402	1.494489	-0.421110
	H329	H	1.491295	1.484751	-0.418511
	O330	O	0.566621	0.449837	0.496698
	H331	H	0.563464	0.447249	0.502346
	H332	H	0.554509	0.452004	0.490503
	O333	O	0.528673	0.481369	0.485655
	H334	H	0.541645	0.485092	0.479691
	H335	H	0.526745	0.482452	0.474701
