data_Molecule from HDF5

_cell_length_a		16.209648
_cell_length_b		16.296617
_cell_length_c		16.410133
_cell_angle_alpha	89.661813
_cell_angle_beta	90.095285
_cell_angle_gamma	89.896979
_symmetry_space_group_name_H-M	'P 1'
_symmetry_Int_Tables_number		1

loop_
	_symmetry_equiv_pos_as_xyz
	x,y,z

loop_
	_atom_site_label
	_atom_site_type_symbol
	_atom_site_fract_x
	_atom_site_fract_y
	_atom_site_fract_z
	H0	H	0.396603	0.830091	0.719432
	H1	H	0.607500	0.150790	0.714759
	H2	H	0.607166	0.829212	0.276237
	H3	H	0.396981	0.150566	0.276063
	H4	H	0.717302	0.387939	0.835769
	H5	H	0.720733	0.590515	0.156973
	H6	H	0.279899	0.594940	0.836460
	H7	H	0.284826	0.388805	0.158588
	H8	H	0.838120	0.708623	0.389464
	H9	H	0.161350	0.706094	0.597936
	H10	H	0.837574	0.270877	0.596892
	H11	H	0.163985	0.272722	0.396582
	H12	H	0.837898	0.383489	0.715140
	H13	H	0.159644	0.594304	0.716647
	H14	H	0.838922	0.592106	0.275298
	H15	H	0.162667	0.384680	0.278340
	H16	H	0.396581	0.712243	0.837498
	H17	H	0.605219	0.707201	0.157165
	H18	H	0.602263	0.273260	0.835390
	H19	H	0.396881	0.269178	0.156561
	H20	H	0.718057	0.826937	0.396246
	H21	H	0.718224	0.151869	0.594840
	H22	H	0.282698	0.827389	0.599845
	H23	H	0.282819	0.150773	0.393334
	H24	H	0.896241	0.327991	0.216463
	H25	H	0.105897	0.648401	0.215862
	H26	H	0.101820	0.327078	0.779910
	H27	H	0.894492	0.649574	0.774830
	H28	H	0.219899	0.886789	0.335301
	H29	H	0.218486	0.087056	0.656354
	H30	H	0.782571	0.092730	0.334641
	H31	H	0.784247	0.887220	0.657180
	H32	H	0.337475	0.204563	0.896537
	H33	H	0.664781	0.203889	0.093344
	H34	H	0.339216	0.773469	0.098312
	H35	H	0.663607	0.770303	0.895013
	H36	H	0.340436	0.887176	0.215198
	H37	H	0.664257	0.092993	0.212985
	H38	H	0.339824	0.092376	0.776438
	H39	H	0.664151	0.885987	0.779085
	H40	H	0.898229	0.209477	0.335610
	H41	H	0.103513	0.204740	0.656598
	H42	H	0.104133	0.770030	0.335200
	H43	H	0.895133	0.766214	0.654391
	H44	H	0.218316	0.327212	0.897107
	H45	H	0.214675	0.651476	0.095349
	H46	H	0.784599	0.326440	0.096677
	H47	H	0.781273	0.651105	0.892935
	H48	H	0.410558	0.103110	0.581821
	H49	H	0.591062	0.875482	0.585643
	H50	H	0.583460	0.099754	0.408377
	H51	H	0.411743	0.872790	0.399724
	H52	H	0.598083	0.395647	0.113197
	H53	H	0.590850	0.577119	0.883915
	H54	H	0.413884	0.582744	0.110678
	H55	H	0.414678	0.400073	0.884527
	H56	H	0.111933	0.574370	0.409208
	H57	H	0.881073	0.583337	0.585418
	H58	H	0.117533	0.390676	0.586647
	H59	H	0.885545	0.402076	0.404011
	H60	H	0.112330	0.402434	0.582776
	H61	H	0.886847	0.575431	0.577870
	H62	H	0.117324	0.576852	0.398726
	H63	H	0.883991	0.397175	0.403625
	H64	H	0.404997	0.584917	0.113267
	H65	H	0.585183	0.581624	0.884288
	H66	H	0.589510	0.403064	0.108854
	H67	H	0.407460	0.394509	0.879194
	H68	H	0.599763	0.106011	0.409193
	H69	H	0.594640	0.873233	0.589363
	H70	H	0.410258	0.105068	0.587247
	H71	H	0.415847	0.875665	0.406143
	H72	H	0.910992	0.602642	0.081899
	H73	H	0.094876	0.369270	0.094770
	H74	H	0.087237	0.604408	0.899931
	H75	H	0.909679	0.375051	0.906135
	H76	H	0.097564	0.902534	0.610069
	H77	H	0.091941	0.080439	0.381289
	H78	H	0.903673	0.078145	0.611270
	H79	H	0.914204	0.891702	0.380155
	H80	H	0.614871	0.074720	0.907886
	H81	H	0.383774	0.077683	0.093340
	H82	H	0.617655	0.899215	0.084319
	H83	H	0.383869	0.899039	0.901340
	H84	H	0.616956	0.902358	0.087914
	H85	H	0.383442	0.086280	0.086316
	H86	H	0.620374	0.081250	0.896731
	H87	H	0.388692	0.899250	0.913402
	H88	H	0.914446	0.075353	0.607962
	H89	H	0.090117	0.081849	0.381285
	H90	H	0.082734	0.899119	0.606091
	H91	H	0.902740	0.901492	0.379484
	H92	H	0.086637	0.602532	0.907681
	H93	H	0.084724	0.375031	0.088225
	H94	H	0.909718	0.604292	0.087059
	H95	H	0.907824	0.372530	0.904729
	H96	H	0.414959	0.101502	0.585170
	H97	H	0.588845	0.874237	0.591037
	H98	H	0.590746	0.107703	0.394593
	H99	H	0.407764	0.873847	0.406830
	H100	H	0.586929	0.391580	0.111510
	H101	H	0.591408	0.583364	0.881460
	H102	H	0.407117	0.576044	0.110438
	H103	H	0.404754	0.403540	0.882751
	H104	H	0.116830	0.584093	0.407025
	H105	H	0.884349	0.571743	0.589578
	H106	H	0.117239	0.400652	0.595393
	H107	H	0.885750	0.398743	0.408088
	H108	H	0.914261	0.602591	0.086396
	H109	H	0.096247	0.373053	0.081863
	H110	H	0.093879	0.605576	0.904185
	H111	H	0.911465	0.373608	0.903921
	H112	H	0.092242	0.888011	0.612801
	H113	H	0.092084	0.081992	0.379850
	H114	H	0.911991	0.085750	0.612169
	H115	H	0.916131	0.905681	0.385360
	H116	H	0.618688	0.088026	0.909174
	H117	H	0.388086	0.076734	0.083298
	H118	H	0.618124	0.898093	0.089168
	H119	H	0.389579	0.909765	0.906856
	C120	C	0.380537	-0.002635	0.617123
	C121	C	0.623313	0.981127	0.617872
	C122	C	0.623305	-0.001937	0.373730
	C123	C	0.380087	0.980971	0.373745
	C124	C	0.621753	0.367190	0.005068
	C125	C	0.621949	0.610874	0.988642
	C126	C	0.377671	0.612867	0.005371
	C127	C	0.378797	0.368180	0.988446
	C128	C	0.008526	0.610009	0.373371
	C129	C	0.990659	0.608562	0.615577
	C130	C	0.008573	0.366689	0.618538
	C131	C	0.992261	0.367745	0.375216
	C132	C	0.880065	0.496900	0.116570
	C133	C	0.121992	0.479624	0.117950
	C134	C	0.120988	0.497354	0.874831
	C135	C	0.878020	0.480557	0.874038
	C136	C	0.122570	0.866284	0.503749
	C137	C	0.122699	0.110469	0.487167
	C138	C	0.879099	0.111200	0.504268
	C139	C	0.879445	0.867688	0.487237
	C140	C	0.510406	0.111746	0.873999
	C141	C	0.492453	0.110980	0.117206
	C142	C	0.510440	0.869350	0.117986
	C143	C	0.493877	0.869673	0.876176
	C144	C	0.378385	0.877384	0.678568
	C145	C	0.625031	0.102551	0.675251
	C146	C	0.624848	0.876971	0.316042
	C147	C	0.378603	0.102361	0.315566
	C148	C	0.679042	0.368232	0.884012
	C149	C	0.681583	0.610432	0.108865
	C150	C	0.319095	0.614196	0.884697
	C151	C	0.322404	0.368584	0.109847
	C152	C	0.886781	0.669080	0.371627
	C153	C	0.112578	0.667129	0.617018
	C154	C	0.886476	0.308945	0.617263
	C155	C	0.114862	0.310661	0.376505
	C156	C	0.886482	0.365387	0.675727
	C157	C	0.111701	0.611091	0.675864
	C158	C	0.887005	0.611052	0.314614
	C159	C	0.114116	0.366239	0.317391
	C160	C	0.377273	0.672387	0.885132
	C161	C	0.624007	0.668441	0.109122
	C162	C	0.621497	0.311108	0.883795
	C163	C	0.378379	0.308919	0.108639
	C164	C	0.680520	0.876033	0.375526
	C165	C	0.680293	0.103103	0.615519
	C166	C	0.322088	0.875892	0.619011
	C167	C	0.321525	0.102363	0.373786
	C168	C	0.878360	0.375845	0.176092
	C169	C	0.123025	0.600949	0.175753
	C170	C	0.121332	0.375538	0.818536
	C171	C	0.875969	0.601615	0.814560
	C172	C	0.180849	0.867054	0.383205
	C173	C	0.180254	0.108202	0.608263
	C174	C	0.821496	0.111865	0.383061
	C175	C	0.822032	0.867383	0.608377
	C176	C	0.386831	0.167317	0.875517
	C177	C	0.615514	0.167023	0.114853
	C178	C	0.388069	0.811911	0.117876
	C179	C	0.615270	0.810052	0.876050
	C180	C	0.388698	0.868650	0.175868
	C181	C	0.615241	0.111429	0.174125
	C182	C	0.387873	0.111488	0.816226
	C183	C	0.615710	0.867644	0.818222
	C184	C	0.879062	0.169834	0.383337
	C185	C	0.122837	0.166350	0.608389
	C186	C	0.123323	0.808920	0.383297
	C187	C	0.877234	0.807215	0.607090
	C188	C	0.179022	0.375741	0.876796
	C189	C	0.177508	0.602443	0.115951
	C190	C	0.822504	0.375156	0.116797
	C191	C	0.819714	0.602226	0.873625
	C192	C	0.405043	0.081338	0.592008
	C193	C	0.598606	0.896427	0.595262
	C194	C	0.598548	0.082593	0.397239
	C195	C	0.404513	0.896045	0.397433
	C196	C	0.598293	0.390006	0.089310
	C197	C	0.596547	0.587511	0.904948
	C198	C	0.401663	0.588354	0.089470
	C199	C	0.402094	0.392400	0.903958
	C200	C	0.093294	0.585479	0.397826
	C201	C	0.906054	0.583932	0.591104
	C202	C	0.093656	0.390957	0.595105
	C203	C	0.907121	0.392282	0.398428
	C204	C	0.904507	0.581145	0.092105
	C205	C	0.098603	0.394675	0.095011
	C206	C	0.096333	0.582311	0.897348
	C207	C	0.902331	0.395910	0.897950
	C208	C	0.098025	0.889775	0.587895
	C209	C	0.098532	0.088080	0.402850
	C210	C	0.902932	0.086812	0.588445
	C211	C	0.903838	0.892408	0.403449
	C212	C	0.595737	0.088232	0.897437
	C213	C	0.407273	0.087259	0.094305
	C214	C	0.595709	0.893047	0.094191
	C215	C	0.409294	0.895213	0.900245
	Zn216	Zn	0.502599	-0.009998	0.746493
	Zn217	Zn	0.502132	-0.010035	0.245865
	Zn218	Zn	0.750217	0.488529	-0.003919
	Zn219	Zn	0.249698	0.489806	-0.002766
	Zn220	Zn	-0.000224	0.737665	0.494615
	Zn221	Zn	0.001072	0.239574	0.496278
	Zn222	Zn	-0.001212	0.488506	0.745400
	Zn223	Zn	0.000957	0.488440	0.245674
	Zn224	Zn	0.501336	0.741129	-0.002148
	Zn225	Zn	0.500720	0.239097	-0.004086
	Zn226	Zn	0.750738	-0.010899	0.495688
	Zn227	Zn	0.251440	-0.011904	0.495310
	N228	N	0.414116	0.953805	0.677378
	N229	N	0.590289	0.025641	0.676921
	N230	N	0.590089	0.954078	0.314720
	N231	N	0.414262	0.025830	0.315410
	N232	N	0.679558	0.402342	0.960383
	N233	N	0.680295	0.575290	0.032953
	N234	N	0.319212	0.578005	0.960483
	N235	N	0.322609	0.404744	0.033978
	N236	N	0.963412	0.668362	0.407622
	N237	N	0.036429	0.665544	0.580020
	N238	N	0.963440	0.309689	0.582300
	N239	N	0.038087	0.311490	0.411694
	N240	N	0.963517	0.400537	0.676732
	N241	N	0.034970	0.575225	0.675063
	N242	N	0.963648	0.575144	0.315586
	N243	N	0.036721	0.401173	0.316348
	N244	N	0.412838	0.671785	0.961244
	N245	N	0.587734	0.668929	0.033362
	N246	N	0.586605	0.310286	0.960052
	N247	N	0.412664	0.308624	0.032008
	N248	N	0.679466	0.952220	0.410754
	N249	N	0.679208	0.026679	0.580542
	N250	N	0.323351	0.951447	0.581309
	N251	N	0.322354	0.025708	0.409376
	N252	N	0.913591	0.452481	0.175884
	N253	N	0.089446	0.523497	0.177293
	N254	N	0.086223	0.452519	0.816821
	N255	N	0.911387	0.524997	0.814631
	N256	N	0.180377	0.901937	0.459243
	N257	N	0.180367	0.074423	0.531791
	N258	N	0.821159	0.076310	0.459185
	N259	N	0.823318	0.904274	0.532898
	N260	N	0.463994	0.167839	0.910475
	N261	N	0.538285	0.166822	0.080072
	N262	N	0.464910	0.812248	0.082626
	N263	N	0.538384	0.811228	0.911256
	N264	N	0.465783	0.903693	0.175725
	N265	N	0.537784	0.077149	0.175727
	N266	N	0.465684	0.077958	0.815021
	N267	N	0.539182	0.904124	0.818277
	N268	N	0.914120	0.169538	0.459704
	N269	N	0.087984	0.168006	0.532043
	N270	N	0.087992	0.808039	0.459431
	N271	N	0.912285	0.807366	0.530781
	N272	N	0.178841	0.452552	0.910886
	N273	N	0.176942	0.526116	0.080694
	N274	N	0.823346	0.451229	0.080291
	N275	N	0.820940	0.525977	0.909792
	O276	O	0.551802	0.364147	0.465421
	H277	H	0.557165	0.381020	0.465785
	H278	H	0.542554	0.356731	0.469771
	O279	O	0.469454	0.387786	0.698255
	H280	H	0.468038	0.395508	0.712665
	H281	H	0.477502	0.394668	0.707249
	O282	O	0.960654	0.008135	0.846756
	H283	H	0.959447	0.003501	0.849941
	H284	H	0.949277	0.002003	0.845656
	O285	O	0.378637	0.531391	0.559005
	H286	H	0.378763	0.525221	0.569751
	H287	H	0.375005	0.531090	0.559890
	O288	O	1.114534	0.887643	0.946293
	H289	H	1.096912	0.897245	0.953001
	H290	H	1.122620	0.896094	0.944828
	O291	O	-0.016188	0.966195	0.046381
	H292	H	-0.023039	0.971789	0.048208
	H293	H	-0.019445	0.950491	0.050027
	O294	O	0.316607	0.465094	0.497824
	H295	H	0.311689	0.456411	0.497558
	H296	H	0.320878	0.467029	0.500422
	O297	O	0.348183	0.369059	0.608162
	H298	H	0.351956	0.377126	0.619903
	H299	H	0.339609	0.367957	0.609072
	O300	O	0.652178	0.411640	0.503092
	H301	H	0.670019	0.413989	0.503408
	H302	H	0.648699	0.402621	0.502180
	O303	O	0.579748	0.411586	0.502419
	H304	H	0.577378	0.413738	0.505316
	H305	H	0.580387	0.398850	0.490811
	O306	O	0.442344	0.491068	0.581210
	H307	H	0.427885	0.504188	0.584152
	H308	H	0.460837	0.483418	0.588629
	O309	O	0.490181	0.645446	0.665752
	H310	H	0.514367	0.641183	0.671322
	H311	H	0.482212	0.654741	0.676781
	O312	O	-0.132659	-0.096146	0.177717
	H313	H	-0.127521	-0.106098	0.164343
	H314	H	-0.154411	-0.083053	0.191024
	O315	O	0.593004	0.598160	0.667726
	H316	H	0.598642	0.590480	0.658377
	H317	H	0.590107	0.592049	0.666127
	O318	O	0.010620	0.890854	1.010245
	H319	H	0.008283	0.887967	1.015734
	H320	H	0.011943	0.894252	1.005984
	O321	O	0.561954	0.485519	0.532379
	H322	H	0.558569	0.481327	0.528777
	H323	H	0.562620	0.484509	0.521915
	O324	O	0.023631	0.905952	0.067125
	H325	H	0.022751	0.903564	0.060745
	H326	H	0.029431	0.899399	0.073691
	O327	O	0.623434	0.487238	0.386421
	H328	H	0.612994	0.483498	0.375083
	H329	H	0.620413	0.476007	0.390632
	O330	O	-0.049322	0.019817	1.018891
	H331	H	-0.053158	0.031280	1.031226
	H332	H	-0.043130	0.013747	1.025168
	O333	O	0.022738	-0.021315	1.020431
	H334	H	0.032560	-0.022781	1.001417
	H335	H	0.026902	-0.020417	1.012758
	O336	O	0.467660	0.528420	0.666115
	H337	H	0.475146	0.522543	0.678361
	H338	H	0.459291	0.533176	0.670780
	O339	O	0.621404	0.355245	0.197935
	H340	H	0.616768	0.362437	0.202985
	H341	H	0.597932	0.355029	0.187314
	O342	O	0.335621	-0.434451	0.348905
	H343	H	0.347549	-0.435870	0.349646
	H344	H	0.328281	-0.436677	0.359360
	O345	O	1.119815	-0.044385	1.011134
	H346	H	1.136323	-0.043434	1.023122
	H347	H	1.121259	-0.055129	0.998701
	O348	O	0.949991	1.067497	-0.090611
	H349	H	0.938528	1.055460	-0.084101
	H350	H	0.940255	1.074343	-0.094054
	O351	O	0.534071	0.390102	0.387944
	H352	H	0.539469	0.373009	0.392075
	H353	H	0.538669	0.403061	0.386849
	O354	O	1.021813	0.107020	0.880524
	H355	H	1.019050	0.118796	0.899024
	H356	H	1.007913	0.091302	0.877471
	O357	O	0.428964	0.427296	0.592748
	H358	H	0.432465	0.419036	0.606064
	H359	H	0.396897	0.427258	0.599709
	O360	O	0.606710	0.509846	0.607651
	H361	H	0.619007	0.516928	0.594830
	H362	H	0.591792	0.497326	0.615815
	O363	O	-0.023278	0.976189	0.981486
	H364	H	-0.032157	0.977589	0.983400
	H365	H	-0.035278	0.976450	0.988963
	O366	O	0.640308	0.642078	0.439917
	H367	H	0.638295	0.619176	0.436115
	H368	H	0.648048	0.639633	0.447380
	O369	O	-0.065836	1.049526	0.074830
	H370	H	-0.064256	1.052937	0.080202
	H371	H	-0.065500	1.049180	0.072630
	O372	O	0.412413	0.630965	0.558952
	H373	H	0.419587	0.629935	0.549443
	H374	H	0.416601	0.640440	0.556304
	O375	O	0.406858	0.511779	0.380191
	H376	H	0.406399	0.511913	0.395957
	H377	H	0.411772	0.508122	0.366146
	O378	O	0.988297	1.144825	0.032042
	H379	H	0.993486	1.132866	0.039162
	H380	H	0.990075	1.155576	0.014111
	O381	O	0.972973	-0.009856	-0.111775
	H382	H	0.962833	-0.009677	-0.117495
	H383	H	0.965739	-0.001984	-0.105678
	O384	O	1.044543	0.868065	-0.053049
	H385	H	1.044428	0.869084	-0.066944
	H386	H	1.050232	0.878069	-0.046929
	O387	O	-0.554251	0.535554	0.415142
	H388	H	-0.572103	0.525311	0.412303
	H389	H	-0.571615	0.536963	0.413542
	O390	O	0.022489	1.117611	-0.063867
	H391	H	0.019189	1.130728	-0.059493
	H392	H	0.020640	1.110360	-0.045099
	O393	O	0.857171	0.859623	1.067372
	H394	H	0.879125	0.860805	1.065178
	H395	H	0.848708	0.844470	1.060716
	O396	O	0.641524	0.480124	0.506097
	H397	H	0.639772	0.478299	0.508492
	H398	H	0.639253	0.477177	0.491558
	O399	O	0.055175	1.073473	0.962193
	H400	H	0.057893	1.064443	0.954293
	H401	H	0.061689	1.075656	0.976080
	O402	O	0.575784	0.542031	0.365266
	H403	H	0.569740	0.547995	0.360082
	H404	H	0.576292	0.535808	0.373530
	O405	O	1.119423	0.868299	0.075638
	H406	H	1.113145	0.852816	0.083703
	H407	H	1.117107	0.868489	0.062357
	O408	O	0.930533	0.973669	-0.033341
	H409	H	0.941128	0.957518	-0.027751
	H410	H	0.921824	0.977644	-0.026946
	O411	O	1.117655	-0.091416	0.957640
	H412	H	1.124384	-0.085708	0.949422
	H413	H	1.126981	-0.106162	0.961103
	O414	O	0.397496	0.428164	0.409001
	H415	H	0.396058	0.420095	0.421928
	H416	H	0.388649	0.442142	0.410194
	O417	O	0.486781	0.475878	0.359630
	H418	H	0.487788	0.472769	0.360311
	H419	H	0.488023	0.482297	0.355964
