data_Molecule from HDF5

_cell_length_a		16.249421
_cell_length_b		16.216553
_cell_length_c		16.238800
_cell_angle_alpha	90.030410
_cell_angle_beta	89.925239
_cell_angle_gamma	89.890418
_symmetry_space_group_name_H-M	'P 1'
_symmetry_Int_Tables_number		1

loop_
	_symmetry_equiv_pos_as_xyz
	x,y,z

loop_
	_atom_site_label
	_atom_site_type_symbol
	_atom_site_fract_x
	_atom_site_fract_y
	_atom_site_fract_z
	H0	H	0.395812	0.840055	0.713970
	H1	H	0.590197	0.168905	0.713336
	H2	H	0.591513	0.840472	0.286987
	H3	H	0.395915	0.168803	0.287612
	H4	H	0.708744	0.405247	0.837360
	H5	H	0.706149	0.602906	0.165524
	H6	H	0.278407	0.604679	0.837261
	H7	H	0.279740	0.406798	0.165894
	H8	H	0.828840	0.718820	0.403835
	H9	H	0.157353	0.716638	0.599400
	H10	H	0.829094	0.291240	0.599741
	H11	H	0.156415	0.288596	0.401742
	H12	H	0.829267	0.406657	0.715636
	H13	H	0.156510	0.601701	0.715370
	H14	H	0.828281	0.602497	0.288192
	H15	H	0.157728	0.406071	0.287732
	H16	H	0.395826	0.718208	0.836363
	H17	H	0.589838	0.718485	0.165346
	H18	H	0.591271	0.291463	0.836504
	H19	H	0.396097	0.291747	0.165662
	H20	H	0.707583	0.840335	0.401124
	H21	H	0.706200	0.168581	0.598807
	H22	H	0.282400	0.838716	0.597524
	H23	H	0.279170	0.168718	0.401970
	H24	H	0.895527	0.339978	0.215053
	H25	H	0.090203	0.669376	0.215282
	H26	H	0.091833	0.340031	0.787385
	H27	H	0.896025	0.668810	0.788077
	H28	H	0.207302	0.905802	0.336904
	H29	H	0.206160	0.101057	0.665537
	H30	H	0.780321	0.102215	0.337220
	H31	H	0.777405	0.905331	0.664460
	H32	H	0.328617	0.218654	0.904196
	H33	H	0.657910	0.217298	0.097527
	H34	H	0.328568	0.792666	0.096883
	H35	H	0.657423	0.790058	0.901661
	H36	H	0.329230	0.907203	0.214112
	H37	H	0.657886	0.102580	0.214612
	H38	H	0.328403	0.101753	0.787011
	H39	H	0.657755	0.906682	0.786530
	H40	H	0.896052	0.217706	0.336989
	H41	H	0.091250	0.218052	0.665234
	H42	H	0.092094	0.789803	0.337521
	H43	H	0.896448	0.792109	0.665974
	H44	H	0.208273	0.340457	0.903148
	H45	H	0.205962	0.669433	0.098780
	H46	H	0.779603	0.339979	0.099682
	H47	H	0.780385	0.668822	0.903671
	H48	H	0.402952	0.122752	0.599525
	H49	H	0.588297	0.886864	0.591393
	H50	H	0.579913	0.120368	0.405509
	H51	H	0.395719	0.886648	0.411397
	H52	H	0.592972	0.414358	0.119002
	H53	H	0.592896	0.595691	0.882539
	H54	H	0.401901	0.598422	0.116667
	H55	H	0.401275	0.408727	0.884005
	H56	H	0.112096	0.600599	0.403817
	H57	H	0.876640	0.596079	0.594088
	H58	H	0.111013	0.412286	0.596383
	H59	H	0.874838	0.411796	0.403617
	H60	H	0.110920	0.407911	0.593217
	H61	H	0.874143	0.599496	0.598750
	H62	H	0.109289	0.598985	0.412262
	H63	H	0.875707	0.407073	0.409810
	H64	H	0.398822	0.600493	0.119418
	H65	H	0.582577	0.593877	0.886855
	H66	H	0.581393	0.414763	0.116410
	H67	H	0.397004	0.413596	0.883221
	H68	H	0.589801	0.121684	0.413512
	H69	H	0.586190	0.885539	0.595855
	H70	H	0.401850	0.119948	0.588021
	H71	H	0.398904	0.884606	0.400505
	H72	H	0.907591	0.618048	0.091047
	H73	H	0.090692	0.387223	0.090696
	H74	H	0.088203	0.624166	0.903111
	H75	H	0.901405	0.389400	0.914583
	H76	H	0.092837	0.918703	0.617724
	H77	H	0.086640	0.092621	0.385032
	H78	H	0.896909	0.095682	0.619281
	H79	H	0.905936	0.912349	0.386108
	H80	H	0.607960	0.096747	0.911286
	H81	H	0.373116	0.098799	0.104609
	H82	H	0.609031	0.917095	0.094560
	H83	H	0.377662	0.910207	0.911567
	H84	H	0.613561	0.907647	0.098979
	H85	H	0.375482	0.106709	0.088292
	H86	H	0.610146	0.093930	0.901989
	H87	H	0.376322	0.916760	0.903448
	H88	H	0.903067	0.096852	0.617083
	H89	H	0.083519	0.099565	0.384160
	H90	H	0.078549	0.909110	0.616540
	H91	H	0.899192	0.904352	0.381110
	H92	H	0.081140	0.620389	0.908661
	H93	H	0.089748	0.385517	0.099748
	H94	H	0.890738	0.622293	0.089429
	H95	H	0.894442	0.384671	0.906333
	H96	H	0.392694	0.123896	0.594616
	H97	H	0.583767	0.888206	0.591883
	H98	H	0.590318	0.124969	0.401743
	H99	H	0.406252	0.889004	0.407962
	H100	H	0.585608	0.404726	0.120150
	H101	H	0.585458	0.604935	0.882113
	H102	H	0.397806	0.596887	0.117663
	H103	H	0.402534	0.414711	0.885868
	H104	H	0.108562	0.592073	0.406110
	H105	H	0.874523	0.601964	0.593298
	H106	H	0.108691	0.412932	0.591274
	H107	H	0.877722	0.415120	0.410575
	H108	H	0.899146	0.625441	0.104466
	H109	H	0.082672	0.389126	0.095008
	H110	H	0.089764	0.621425	0.912295
	H111	H	0.905536	0.386796	0.903460
	H112	H	0.093359	0.901806	0.622882
	H113	H	0.090955	0.098515	0.382825
	H114	H	0.899657	0.101010	0.619448
	H115	H	0.895172	0.915331	0.383407
	H116	H	0.612783	0.103208	0.904674
	H117	H	0.380637	0.089404	0.091318
	H118	H	0.609815	0.907610	0.088236
	H119	H	0.373754	0.906336	0.902814
	C120	C	0.371671	0.012963	0.621821
	C121	C	0.614086	0.995695	0.621088
	C122	C	0.615232	0.013565	0.378610
	C123	C	0.372098	0.995743	0.378922
	C124	C	0.614904	0.383233	0.009521
	C125	C	0.614946	0.626408	0.992687
	C126	C	0.371154	0.627034	0.009568
	C127	C	0.372177	0.383816	0.992980
	C128	C	0.001313	0.626103	0.379415
	C129	C	0.984153	0.626016	0.623050
	C130	C	0.001958	0.382890	0.622587
	C131	C	0.984630	0.382913	0.379794
	C132	C	0.871595	0.513102	0.122935
	C133	C	0.114921	0.495963	0.123144
	C134	C	0.115324	0.513113	0.879437
	C135	C	0.872232	0.495856	0.879993
	C136	C	0.115873	0.881920	0.510115
	C137	C	0.114943	0.125633	0.492700
	C138	C	0.871591	0.126028	0.510000
	C139	C	0.872093	0.882977	0.492374
	C140	C	0.501615	0.126465	0.878483
	C141	C	0.485055	0.126113	0.122495
	C142	C	0.501865	0.883467	0.121884
	C143	C	0.484616	0.883014	0.878616
	C144	C	0.375085	0.888971	0.676390
	C145	C	0.611098	0.119648	0.676023
	C146	C	0.612031	0.889574	0.324294
	C147	C	0.375442	0.119831	0.325232
	C148	C	0.669984	0.385620	0.886029
	C149	C	0.668754	0.623503	0.116404
	C150	C	0.315966	0.624956	0.886321
	C151	C	0.317417	0.386363	0.116749
	C152	C	0.877738	0.680932	0.383186
	C153	C	0.108012	0.679594	0.620210
	C154	C	0.877997	0.329006	0.620151
	C155	C	0.107885	0.327193	0.381826
	C156	C	0.878350	0.385865	0.678045
	C157	C	0.107740	0.622321	0.677639
	C158	C	0.877392	0.623188	0.325649
	C159	C	0.108237	0.385148	0.324888
	C160	C	0.374678	0.681131	0.885656
	C161	C	0.611278	0.681129	0.116275
	C162	C	0.611954	0.328759	0.885829
	C163	C	0.374851	0.328808	0.116564
	C164	C	0.669876	0.889631	0.380970
	C165	C	0.668705	0.119452	0.618908
	C166	C	0.318374	0.888606	0.618616
	C167	C	0.317237	0.119513	0.382125
	C168	C	0.875092	0.389027	0.177259
	C169	C	0.111384	0.620192	0.177632
	C170	C	0.112617	0.389219	0.825046
	C171	C	0.875237	0.619779	0.825934
	C172	C	0.169768	0.885358	0.385913
	C173	C	0.169169	0.122274	0.616310
	C174	C	0.817583	0.122993	0.386257
	C175	C	0.816712	0.885559	0.616004
	C176	C	0.377467	0.180833	0.882627
	C177	C	0.609086	0.179692	0.118333
	C178	C	0.377728	0.829933	0.118311
	C179	C	0.608586	0.828233	0.881498
	C180	C	0.378225	0.886867	0.176391
	C181	C	0.609072	0.122821	0.176438
	C182	C	0.377332	0.122901	0.824726
	C183	C	0.608625	0.885698	0.823848
	C184	C	0.875204	0.180238	0.386095
	C185	C	0.112057	0.180443	0.616227
	C186	C	0.112352	0.827858	0.386301
	C187	C	0.875525	0.829258	0.616656
	C188	C	0.170499	0.389639	0.882385
	C189	C	0.168573	0.620397	0.119761
	C190	C	0.817234	0.388960	0.120006
	C191	C	0.817773	0.619658	0.883049
	C192	C	0.392832	0.099783	0.600335
	C193	C	0.592485	0.909182	0.599382
	C194	C	0.593261	0.100113	0.400471
	C195	C	0.393879	0.909038	0.400316
	C196	C	0.593099	0.404937	0.096128
	C197	C	0.593344	0.604593	0.906088
	C198	C	0.393032	0.604942	0.095714
	C199	C	0.393751	0.405804	0.906742
	C200	C	0.087777	0.603981	0.401083
	C201	C	0.897445	0.605304	0.601808
	C202	C	0.088020	0.404602	0.600101
	C203	C	0.898351	0.404721	0.401573
	C204	C	0.892829	0.599462	0.101327
	C205	C	0.093833	0.409643	0.101553
	C206	C	0.092881	0.599908	0.901441
	C207	C	0.893946	0.409169	0.901806
	C208	C	0.094568	0.903484	0.596681
	C209	C	0.093299	0.103569	0.406276
	C210	C	0.893340	0.104309	0.596404
	C211	C	0.893620	0.904406	0.405770
	C212	C	0.587948	0.104670	0.899731
	C213	C	0.398616	0.104609	0.101087
	C214	C	0.588567	0.904661	0.100338
	C215	C	0.398277	0.904697	0.899648
	Zn216	Zn	0.492944	0.004379	0.749807
	Zn217	Zn	0.493970	0.004564	0.250890
	Zn218	Zn	0.743342	0.504660	0.000989
	Zn219	Zn	0.243346	0.505083	0.001229
	Zn220	Zn	-0.006700	0.754352	0.501615
	Zn221	Zn	-0.006865	0.254282	0.501535
	Zn222	Zn	-0.006804	0.504549	0.751405
	Zn223	Zn	-0.006937	0.504397	0.251353
	Zn224	Zn	0.493140	0.754894	0.000596
	Zn225	Zn	0.493398	0.255017	0.000970
	Zn226	Zn	0.742636	0.004219	0.500315
	Zn227	Zn	0.243578	0.003964	0.500860
	N228	N	0.407615	0.967287	0.678417
	N229	N	0.577801	0.041707	0.677532
	N230	N	0.578963	0.967561	0.322725
	N231	N	0.408779	0.041831	0.323084
	N232	N	0.671733	0.418939	0.964006
	N233	N	0.671230	0.590212	0.038513
	N234	N	0.313829	0.591884	0.964290
	N235	N	0.315690	0.419990	0.038960
	N236	N	0.955889	0.682681	0.415993
	N237	N	0.030323	0.681912	0.586909
	N238	N	0.955705	0.327007	0.586534
	N239	N	0.030170	0.325608	0.415193
	N240	N	0.956353	0.418751	0.679784
	N241	N	0.029769	0.589515	0.679410
	N242	N	0.955203	0.589863	0.323280
	N243	N	0.030613	0.419403	0.323687
	N244	N	0.408219	0.682565	0.963257
	N245	N	0.578439	0.682838	0.038259
	N246	N	0.578467	0.327261	0.963675
	N247	N	0.408408	0.327297	0.038771
	N248	N	0.671721	0.967619	0.414252
	N249	N	0.670599	0.041439	0.585462
	N250	N	0.316245	0.966720	0.585494
	N251	N	0.315129	0.041212	0.414741
	N252	N	0.908270	0.466992	0.179065
	N253	N	0.078718	0.542040	0.179766
	N254	N	0.079150	0.467261	0.823155
	N255	N	0.908254	0.541771	0.823766
	N256	N	0.172061	0.918242	0.463941
	N257	N	0.170853	0.088710	0.538497
	N258	N	0.815149	0.090016	0.464187
	N259	N	0.814201	0.918098	0.537725
	N260	N	0.455556	0.183128	0.915207
	N261	N	0.530990	0.182074	0.085575
	N262	N	0.455647	0.827762	0.085061
	N263	N	0.530646	0.826377	0.914638
	N264	N	0.456415	0.919273	0.178808
	N265	N	0.531067	0.090206	0.179068
	N266	N	0.455427	0.089914	0.821982
	N267	N	0.530875	0.919252	0.821933
	N268	N	0.908265	0.182037	0.464009
	N269	N	0.079085	0.182441	0.538301
	N270	N	0.079613	0.825626	0.464382
	N271	N	0.909318	0.827705	0.538912
	N272	N	0.172039	0.467670	0.915472
	N273	N	0.171002	0.542333	0.086503
	N274	N	0.815002	0.466942	0.086809
	N275	N	0.815904	0.541500	0.916003
	O276	O	0.443966	-0.497764	0.563641
	H277	H	0.442702	-0.505984	0.569008
	H278	H	0.451347	-0.499657	0.565632
	O279	O	0.474867	0.528932	0.482345
	H280	H	0.475680	0.534521	0.474896
	H281	H	0.471118	0.529094	0.478038
	O282	O	0.482456	0.486726	0.538902
	H283	H	0.473948	0.495538	0.532489
	H284	H	0.479196	0.473781	0.544794
	O285	O	0.421365	0.533464	0.527628
	H286	H	0.423594	0.532846	0.531721
	H287	H	0.413302	0.547001	0.536072
	O288	O	0.474818	0.484996	0.499261
	H289	H	0.470468	0.482888	0.492737
	H290	H	0.474921	0.480288	0.503931
	O291	O	0.464900	0.555236	0.497142
	H292	H	0.470727	0.549707	0.495149
	H293	H	0.468667	0.561390	0.501744
	O294	O	0.415647	0.544112	0.503384
	H295	H	0.418515	0.542878	0.501944
	H296	H	0.416547	0.548709	0.496407
	O297	O	1.502315	0.488072	0.539388
	H298	H	1.496760	0.489277	0.544566
	H299	H	1.497183	0.480820	0.541970
