data_Molecule from HDF5

_cell_length_a		16.545656
_cell_length_b		16.393862
_cell_length_c		16.484600
_cell_angle_alpha	89.886424
_cell_angle_beta	89.978962
_cell_angle_gamma	89.923925
_symmetry_space_group_name_H-M	'P 1'
_symmetry_Int_Tables_number		1

loop_
	_symmetry_equiv_pos_as_xyz
	x,y,z

loop_
	_atom_site_label
	_atom_site_type_symbol
	_atom_site_fract_x
	_atom_site_fract_y
	_atom_site_fract_z
	H0	H	0.390718	0.845100	0.723786
	H1	H	0.595780	0.163205	0.722665
	H2	H	0.604663	0.846708	0.280682
	H3	H	0.385891	0.161579	0.279602
	H4	H	0.716762	0.401083	0.848662
	H5	H	0.718002	0.611026	0.164001
	H6	H	0.271705	0.612749	0.850922
	H7	H	0.271621	0.393967	0.162843
	H8	H	0.836956	0.726589	0.397581
	H9	H	0.150858	0.726629	0.608582
	H10	H	0.837520	0.285296	0.609049
	H11	H	0.153698	0.281771	0.400669
	H12	H	0.840359	0.397120	0.730229
	H13	H	0.151107	0.611982	0.727070
	H14	H	0.838469	0.611091	0.280858
	H15	H	0.153903	0.397076	0.284048
	H16	H	0.390453	0.725973	0.849078
	H17	H	0.601478	0.725535	0.164537
	H18	H	0.597449	0.287668	0.845809
	H19	H	0.389497	0.280216	0.163013
	H20	H	0.719981	0.847125	0.396023
	H21	H	0.711705	0.163536	0.606599
	H22	H	0.274999	0.845713	0.607834
	H23	H	0.267964	0.161556	0.393996
	H24	H	0.893794	0.345691	0.225049
	H25	H	0.103269	0.661649	0.228424
	H26	H	0.101932	0.347875	0.783048
	H27	H	0.888043	0.662651	0.782096
	H28	H	0.218265	0.897199	0.349126
	H29	H	0.217436	0.111815	0.661682
	H30	H	0.770583	0.111933	0.348851
	H31	H	0.773564	0.899060	0.662837
	H32	H	0.337381	0.225034	0.901896
	H33	H	0.652523	0.224021	0.109049
	H34	H	0.339399	0.781961	0.110096
	H35	H	0.653316	0.782233	0.899945
	H36	H	0.340027	0.896970	0.229055
	H37	H	0.650378	0.111212	0.228818
	H38	H	0.335076	0.104845	0.787961
	H39	H	0.652263	0.897071	0.782404
	H40	H	0.890027	0.226097	0.347129
	H41	H	0.097047	0.223907	0.663882
	H42	H	0.098494	0.783558	0.347390
	H43	H	0.887461	0.782081	0.661585
	H44	H	0.218778	0.347885	0.898411
	H45	H	0.218687	0.661277	0.112494
	H46	H	0.773565	0.348419	0.112360
	H47	H	0.771817	0.662150	0.897462
	H48	H	0.398096	0.120643	0.594633
	H49	H	0.581610	0.891932	0.590956
	H50	H	0.573773	0.112019	0.420220
	H51	H	0.401995	0.891477	0.415990
	H52	H	0.585227	0.413872	0.119083
	H53	H	0.584667	0.584534	0.896722
	H54	H	0.407569	0.591917	0.118850
	H55	H	0.410764	0.418308	0.895860
	H56	H	0.101952	0.587010	0.422776
	H57	H	0.882090	0.595027	0.593533
	H58	H	0.110247	0.415690	0.599831
	H59	H	0.883846	0.418579	0.413997
	H60	H	0.108269	0.410411	0.591107
	H61	H	0.883157	0.590394	0.591776
	H62	H	0.109575	0.590474	0.408095
	H63	H	0.883761	0.413520	0.415805
	H64	H	0.407263	0.590251	0.118508
	H65	H	0.578715	0.598576	0.894695
	H66	H	0.585052	0.413936	0.119427
	H67	H	0.405976	0.412136	0.892463
	H68	H	0.586013	0.114991	0.424293
	H69	H	0.589490	0.887738	0.592697
	H70	H	0.407397	0.119226	0.600771
	H71	H	0.411390	0.893645	0.415802
	H72	H	0.901485	0.620368	0.093967
	H73	H	0.084884	0.391721	0.091060
	H74	H	0.077741	0.617094	0.914252
	H75	H	0.907395	0.393339	0.920607
	H76	H	0.076322	0.917805	0.614204
	H77	H	0.084917	0.092414	0.391700
	H78	H	0.901566	0.093762	0.619334
	H79	H	0.903726	0.917991	0.391480
	H80	H	0.606997	0.093678	0.915893
	H81	H	0.386355	0.084443	0.091870
	H82	H	0.609357	0.912058	0.093143
	H83	H	0.382080	0.918088	0.907952
	H84	H	0.606019	0.917991	0.090272
	H85	H	0.380891	0.092982	0.096768
	H86	H	0.608297	0.092834	0.909935
	H87	H	0.380235	0.905938	0.913812
	H88	H	0.904499	0.093702	0.617754
	H89	H	0.082401	0.090146	0.394801
	H90	H	0.085286	0.910309	0.620251
	H91	H	0.906929	0.920475	0.393751
	H92	H	0.083852	0.614949	0.925187
	H93	H	0.088067	0.389335	0.096302
	H94	H	0.910385	0.619604	0.098883
	H95	H	0.907931	0.392294	0.917718
	H96	H	0.407238	0.116558	0.589490
	H97	H	0.582970	0.888119	0.599193
	H98	H	0.582480	0.117856	0.411622
	H99	H	0.405940	0.895136	0.423083
	H100	H	0.585919	0.413988	0.119233
	H101	H	0.592875	0.595465	0.890298
	H102	H	0.408650	0.590782	0.117951
	H103	H	0.402702	0.420027	0.893940
	H104	H	0.108285	0.601998	0.420274
	H105	H	0.881799	0.591358	0.596334
	H106	H	0.105049	0.420646	0.592121
	H107	H	0.885947	0.417365	0.418402
	H108	H	0.909650	0.616200	0.089471
	H109	H	0.081333	0.391123	0.096836
	H110	H	0.089652	0.620988	0.915594
	H111	H	0.909807	0.393711	0.919895
	H112	H	0.088022	0.922720	0.617188
	H113	H	0.081069	0.094081	0.392443
	H114	H	0.903410	0.096241	0.619205
	H115	H	0.907561	0.916340	0.392655
	H116	H	0.609261	0.098180	0.911678
	H117	H	0.384474	0.093941	0.086184
	H118	H	0.607842	0.917855	0.097340
	H119	H	0.385672	0.915821	0.920989
	C120	C	0.373222	0.013077	0.625704
	C121	C	0.615339	0.994756	0.625600
	C122	C	0.615246	0.011524	0.384469
	C123	C	0.372307	0.996611	0.383320
	C124	C	0.616642	0.383206	0.014428
	C125	C	0.617878	0.625892	0.997926
	C126	C	0.374887	0.624590	0.015049
	C127	C	0.373830	0.382903	0.997899
	C128	C	0.003091	0.626264	0.383056
	C129	C	0.985501	0.626076	0.626461
	C130	C	0.004415	0.382906	0.627341
	C131	C	0.988193	0.382941	0.383757
	C132	C	0.875516	0.513876	0.126643
	C133	C	0.117456	0.495300	0.127203
	C134	C	0.116808	0.513545	0.884689
	C135	C	0.875254	0.496862	0.885234
	C136	C	0.115563	0.883761	0.513548
	C137	C	0.115558	0.125457	0.496624
	C138	C	0.871666	0.127143	0.514304
	C139	C	0.873212	0.884459	0.496437
	C140	C	0.503147	0.125634	0.882506
	C141	C	0.486616	0.124334	0.125435
	C142	C	0.504660	0.882597	0.126769
	C143	C	0.486826	0.881262	0.882465
	C144	C	0.371947	0.893168	0.684424
	C145	C	0.615191	0.115314	0.683602
	C146	C	0.620727	0.893763	0.322017
	C147	C	0.368282	0.114449	0.320347
	C148	C	0.676187	0.382539	0.895607
	C149	C	0.678282	0.628987	0.116479
	C150	C	0.313060	0.629292	0.897473
	C151	C	0.312669	0.377616	0.115786
	C152	C	0.884735	0.686917	0.379330
	C153	C	0.103753	0.686724	0.627726
	C154	C	0.885513	0.323743	0.628821
	C155	C	0.106399	0.321947	0.382183
	C156	C	0.886741	0.379564	0.688972
	C157	C	0.103896	0.629380	0.686469
	C158	C	0.885636	0.629211	0.321073
	C159	C	0.106571	0.379574	0.323950
	C160	C	0.372100	0.686043	0.896841
	C161	C	0.619646	0.685542	0.117052
	C162	C	0.617141	0.325700	0.894494
	C163	C	0.371211	0.320468	0.115698
	C164	C	0.678457	0.893938	0.379556
	C165	C	0.672742	0.115443	0.625838
	C166	C	0.314328	0.893383	0.626777
	C167	C	0.309534	0.114290	0.377454
	C168	C	0.874129	0.393754	0.185909
	C169	C	0.121073	0.614069	0.188119
	C170	C	0.120171	0.395121	0.823464
	C171	C	0.870863	0.615244	0.822928
	C172	C	0.177064	0.879917	0.395674
	C173	C	0.177029	0.129623	0.614916
	C174	C	0.811490	0.129848	0.395705
	C175	C	0.813305	0.881109	0.615298
	C176	C	0.384247	0.184596	0.882639
	C177	C	0.605035	0.184356	0.127614
	C178	C	0.386429	0.821711	0.129233
	C179	C	0.605605	0.821726	0.881111
	C180	C	0.386698	0.878772	0.188045
	C181	C	0.603853	0.128424	0.187548
	C182	C	0.383385	0.125123	0.826019
	C183	C	0.604953	0.878842	0.822218
	C184	C	0.870757	0.186638	0.395028
	C185	C	0.117008	0.185083	0.615977
	C186	C	0.117328	0.823723	0.394867
	C187	C	0.869872	0.822602	0.614634
	C188	C	0.178004	0.394856	0.880996
	C189	C	0.178447	0.614032	0.130237
	C190	C	0.814868	0.395035	0.129757
	C191	C	0.812885	0.615166	0.880334
	C192	C	0.397218	0.096884	0.601548
	C193	C	0.591644	0.911117	0.601373
	C194	C	0.588371	0.093559	0.411100
	C195	C	0.398982	0.914620	0.410534
	C196	C	0.592379	0.407122	0.097500
	C197	C	0.592761	0.600217	0.915453
	C198	C	0.400465	0.598443	0.097102
	C199	C	0.399233	0.409248	0.915583
	C200	C	0.085144	0.600467	0.409428
	C201	C	0.903697	0.599805	0.601084
	C202	C	0.086410	0.408301	0.601777
	C203	C	0.905969	0.409024	0.408957
	C204	C	0.900238	0.596872	0.101487
	C205	C	0.091991	0.412305	0.101961
	C206	C	0.091038	0.596190	0.910800
	C207	C	0.901080	0.414569	0.911846
	C208	C	0.090272	0.909499	0.595902
	C209	C	0.090080	0.099673	0.414334
	C210	C	0.896043	0.101738	0.596999
	C211	C	0.898710	0.910646	0.414059
	C212	C	0.586565	0.101757	0.905766
	C213	C	0.405096	0.098020	0.099129
	C214	C	0.586217	0.908546	0.101146
	C215	C	0.404163	0.906100	0.907127
	Zn216	Zn	0.494342	0.003521	0.753854
	Zn217	Zn	0.495233	0.004126	0.255791
	Zn218	Zn	0.745912	0.505214	0.005987
	Zn219	Zn	0.244979	0.503585	0.006253
	Zn220	Zn	-0.006868	0.755486	0.504518
	Zn221	Zn	-0.004650	0.254210	0.505103
	Zn222	Zn	-0.004508	0.504872	0.755941
	Zn223	Zn	-0.003376	0.503850	0.254897
	Zn224	Zn	0.496594	0.753814	0.006324
	Zn225	Zn	0.495083	0.254067	0.004973
	Zn226	Zn	0.744201	0.003722	0.504639
	Zn227	Zn	0.244261	0.005110	0.505568
	N228	N	0.407728	0.968546	0.683815
	N229	N	0.580330	0.039256	0.683708
	N230	N	0.581885	0.967767	0.325355
	N231	N	0.406685	0.040076	0.323890
	N232	N	0.676595	0.417100	0.971384
	N233	N	0.677430	0.592824	0.041311
	N234	N	0.314570	0.591852	0.972073
	N235	N	0.314109	0.415804	0.041478
	N236	N	0.958722	0.685294	0.417145
	N237	N	0.029110	0.685178	0.591445
	N238	N	0.959595	0.325598	0.591312
	N239	N	0.031667	0.323861	0.418492
	N240	N	0.961759	0.415329	0.688482
	N241	N	0.029394	0.592367	0.685697
	N242	N	0.960520	0.592414	0.323097
	N243	N	0.031960	0.416671	0.324778
	N244	N	0.410097	0.683200	0.970858
	N245	N	0.583052	0.684089	0.042199
	N246	N	0.580993	0.325838	0.969504
	N247	N	0.408794	0.323950	0.041499
	N248	N	0.674950	0.968182	0.417922
	N249	N	0.673164	0.039409	0.590658
	N250	N	0.314947	0.969207	0.590821
	N251	N	0.311665	0.039865	0.415670
	N252	N	0.910970	0.468652	0.184131
	N253	N	0.084001	0.539249	0.186336
	N254	N	0.083095	0.470057	0.825433
	N255	N	0.908992	0.540767	0.825848
	N256	N	0.175882	0.916842	0.470454
	N257	N	0.176415	0.093432	0.539675
	N258	N	0.811682	0.093715	0.470998
	N259	N	0.815258	0.918722	0.540714
	N260	N	0.459927	0.185241	0.916713
	N261	N	0.531216	0.181914	0.089762
	N262	N	0.460630	0.823962	0.092047
	N263	N	0.531000	0.822722	0.917688
	N264	N	0.461045	0.915784	0.186699
	N265	N	0.529226	0.091882	0.186445
	N266	N	0.458486	0.089388	0.825533
	N267	N	0.529922	0.914881	0.822755
	N268	N	0.907270	0.185177	0.469714
	N269	N	0.079758	0.182589	0.541594
	N270	N	0.079933	0.826040	0.469122
	N271	N	0.906357	0.824630	0.539684
	N272	N	0.176149	0.469686	0.918400
	N273	N	0.176260	0.538993	0.093372
	N274	N	0.815281	0.470737	0.093830
	N275	N	0.815404	0.540637	0.918520
	O276	O	0.813285	0.835424	0.189794
	H277	H	0.833943	0.821196	0.172456
	H278	H	0.819778	0.841100	0.174326
	O279	O	0.308487	0.316885	0.694562
	H280	H	0.299372	0.309151	0.641066
	H281	H	0.296995	0.367740	0.705643
	O282	O	0.783948	0.790279	0.032916
	H283	H	0.796857	0.790034	0.014314
	H284	H	0.768881	0.761090	0.025312
	O285	O	0.696598	0.351344	0.299690
	H286	H	0.699078	0.389146	0.290887
	H287	H	0.727307	0.324422	0.268280
	O288	O	-0.026647	-0.205726	0.219358
	H289	H	-0.029606	-0.237313	0.251750
	H290	H	-0.013664	-0.194784	0.193289
	O291	O	1.094172	0.914793	-0.077925
	H292	H	1.090050	0.918267	-0.099483
	H293	H	1.092325	0.927394	-0.077700
	O294	O	0.203329	0.796885	-0.020958
	H295	H	0.199299	0.806560	-0.003731
	H296	H	0.218116	0.783659	-0.030815
	O297	O	0.157661	0.168936	-0.055334
	H298	H	0.137022	0.186017	-0.050899
	H299	H	0.165803	0.163605	-0.064117
	O300	O	0.708449	0.355369	0.492413
	H301	H	0.729779	0.348512	0.481342
	H302	H	0.714005	0.350159	0.485162
	O303	O	0.710911	0.494446	0.334657
	H304	H	0.712686	0.503985	0.337387
	H305	H	0.710142	0.502208	0.315909
	O306	O	0.336548	0.666254	0.758600
	H307	H	0.340851	0.670492	0.751158
	H308	H	0.353208	0.638994	0.755618
	O309	O	0.607552	0.608785	0.507505
	H310	H	0.616251	0.612697	0.524164
	H311	H	0.601550	0.620564	0.484621
	O312	O	0.409359	0.607587	0.544456
	H313	H	0.402767	0.589868	0.537535
	H314	H	0.413976	0.616306	0.544517
	O315	O	0.360960	-0.478210	1.384958
	H316	H	0.364954	-0.474801	1.379093
	H317	H	0.359481	-0.468792	1.386202
	O318	O	0.187785	1.149303	0.188276
	H319	H	0.191261	1.118649	0.193894
	H320	H	0.181437	1.158840	0.169733
	O321	O	0.798044	0.800190	-0.195397
	H322	H	0.783648	0.810894	-0.190470
	H323	H	0.802659	0.801472	-0.219066
	O324	O	0.941151	-0.055387	0.844702
	H325	H	0.946972	-0.058831	0.834104
	H326	H	0.952770	-0.068054	0.823752
	O327	O	0.956824	0.114968	1.112460
	H328	H	0.939370	0.119841	1.100306
	H329	H	0.949938	0.122625	1.087158
	O330	O	1.029619	-0.213489	0.033554
	H331	H	1.030189	-0.208021	0.017503
	H332	H	1.019635	-0.217240	0.027087
	O333	O	1.031570	0.973564	1.229313
	H334	H	1.031147	0.981691	1.216309
	H335	H	1.013695	0.972290	1.231313
	O336	O	1.003587	0.227770	0.990647
	H337	H	0.986502	0.234113	0.987531
	H338	H	1.007890	0.228239	0.973684
	O339	O	0.283601	0.293311	0.534713
	H340	H	0.303036	0.283830	0.512357
	H341	H	0.275999	0.267610	0.520628
	O342	O	0.444246	0.698537	0.543486
	H343	H	0.458178	0.693082	0.541783
	H344	H	0.462322	0.696295	0.536019
	O345	O	-0.023647	0.218090	-0.204111
	H346	H	-0.032523	0.226252	-0.219266
	H347	H	-0.051787	0.222826	-0.215151
	O348	O	0.780805	0.038944	0.786246
	H349	H	0.776585	0.015658	0.795836
	H350	H	0.769589	0.019602	0.776712
	O351	O	1.108603	1.108808	-0.185106
	H352	H	1.124234	1.106771	-0.184002
	H353	H	1.111790	1.117154	-0.190031
	O354	O	0.683627	0.325601	0.687423
	H355	H	0.680414	0.363089	0.682192
	H356	H	0.666265	0.330463	0.661018
	O357	O	0.891897	1.068520	1.124059
	H358	H	0.899433	1.059626	1.121429
	H359	H	0.897684	1.080667	1.113927
	O360	O	0.514112	0.297611	0.525201
	H361	H	0.540602	0.291541	0.508604
	H362	H	0.514891	0.304243	0.542484
	O363	O	0.556664	0.446123	0.575901
	H364	H	0.569738	0.438015	0.576058
	H365	H	0.568713	0.429956	0.555323
	O366	O	0.795940	0.207008	0.804742
	H367	H	0.773875	0.231003	0.772628
	H368	H	0.788490	0.153980	0.795452
	O369	O	0.433715	0.471598	0.496500
	H370	H	0.442211	0.466565	0.483217
	H371	H	0.432328	0.469844	0.497743
	O372	O	0.537111	0.415732	0.667091
	H373	H	0.547310	0.406087	0.671661
	H374	H	0.532653	0.395688	0.659491
	O375	O	-0.075508	0.894390	0.965503
	H376	H	-0.063126	0.908836	0.983411
	H377	H	-0.056352	0.893562	0.942569
	O378	O	0.305497	0.656061	0.505205
	H379	H	0.307233	0.649993	0.509308
	H380	H	0.307713	0.654809	0.505034
	O381	O	1.176313	-0.021901	0.036602
	H382	H	1.164919	-0.002721	0.044336
	H383	H	1.181504	-0.006977	0.040849
	O384	O	0.112489	-0.196912	0.800382
	H385	H	0.121788	-0.194311	0.802213
	H386	H	0.143540	-0.204296	0.804850
	O387	O	0.154599	0.807423	1.169669
	H388	H	0.142333	0.827501	1.156979
	H389	H	0.136129	0.819689	1.141881
	O390	O	-0.199894	0.187398	0.958165
	H391	H	-0.211817	0.199115	0.949963
	H392	H	-0.211883	0.182529	0.933525
	O393	O	0.785603	1.010448	0.022506
	H394	H	0.787053	1.005821	0.047040
	H395	H	0.781507	1.028923	0.020266
	O396	O	0.297696	0.700772	0.306361
	H397	H	0.304666	0.698728	0.339330
	H398	H	0.269320	0.714656	0.280952
	O399	O	0.281911	0.478040	0.721841
	H400	H	0.286769	0.498694	0.723684
	H401	H	0.257197	0.487774	0.730376
	O402	O	0.000073	0.208228	1.169272
	H403	H	0.012345	0.201016	1.162926
	H404	H	-0.011688	0.229772	1.169151
	O405	O	-0.120583	-0.062813	-0.088550
	H406	H	-0.118363	-0.068453	-0.085238
	H407	H	-0.125047	-0.053001	-0.079492
	O408	O	0.688587	0.583352	0.686127
	H409	H	0.682853	0.592470	0.662825
	H410	H	0.676359	0.612713	0.685605
	O411	O	0.286899	0.605208	0.622068
	H412	H	0.296904	0.602115	0.601671
	H413	H	0.304784	0.596879	0.608318
	O414	O	0.692862	0.705894	0.524974
	H415	H	0.694619	0.731295	0.512298
	H416	H	0.696914	0.680215	0.502499
	O417	O	0.525480	0.644655	0.477092
	H418	H	0.504565	0.643187	0.463701
	H419	H	0.531356	0.644676	0.464736
	O420	O	0.408114	0.355739	0.367817
	H421	H	0.410116	0.352656	0.345102
	H422	H	0.425929	0.348182	0.378251
	O423	O	0.210987	1.015692	0.176746
	H424	H	0.187588	0.997040	0.184242
	H425	H	0.233144	1.015932	0.196386
	O426	O	0.973854	1.056058	0.981648
	H427	H	0.971761	1.068265	0.984118
	H428	H	0.970467	1.052945	0.962237
	O429	O	0.466623	0.722430	0.288295
	H430	H	0.434949	0.712201	0.298167
	H431	H	0.461870	0.754107	0.257539
	O432	O	0.430886	0.533358	0.291317
	H433	H	0.409248	0.541837	0.304508
	H434	H	0.410965	0.536355	0.281375
	O435	O	0.114077	0.044104	-0.102806
	H436	H	0.105895	0.040319	-0.119649
	H437	H	0.116058	0.041214	-0.099805
	O438	O	1.129264	0.078434	0.029773
	H439	H	1.109273	0.090927	0.027285
	H440	H	1.127213	0.096281	0.026855
	O441	O	0.510798	0.295193	0.290904
	H442	H	0.533436	0.285457	0.279653
	H443	H	0.525915	0.291257	0.279797
	O444	O	0.091809	1.004061	0.788181
	H445	H	0.101130	1.006147	0.793498
	H446	H	0.096051	1.021271	0.782122
	O447	O	0.468290	0.287567	0.721369
	H448	H	0.455767	0.263361	0.750321
	H449	H	0.425918	0.290612	0.712174
	O450	O	0.527069	0.717050	0.718248
	H451	H	0.509299	0.721067	0.718090
	H452	H	0.512750	0.724337	0.738776
	O453	O	0.709068	0.542379	0.568999
	H454	H	0.714467	0.545277	0.588694
	H455	H	0.691219	0.563700	0.566990
	O456	O	0.761654	0.237270	0.234061
	H457	H	0.776425	0.219752	0.233483
	H458	H	0.771025	0.224383	0.224021
	O459	O	0.481566	0.516150	0.333225
	H460	H	0.458373	0.511399	0.329037
	H461	H	0.473671	0.508074	0.326505
	O462	O	0.359868	0.401476	0.443222
	H463	H	0.368957	0.409111	0.434114
	H464	H	0.366231	0.374149	0.446291
	O465	O	0.791758	-0.000587	0.204258
	H466	H	0.803843	-0.004969	0.201573
	H467	H	0.784557	-0.023784	0.217659
