data_Molecule from HDF5

_cell_length_a		16.182097
_cell_length_b		16.157503
_cell_length_c		16.233587
_cell_angle_alpha	90.399817
_cell_angle_beta	89.350138
_cell_angle_gamma	90.131495
_symmetry_space_group_name_H-M	'P 1'
_symmetry_Int_Tables_number		1

loop_
	_symmetry_equiv_pos_as_xyz
	x,y,z

loop_
	_atom_site_label
	_atom_site_type_symbol
	_atom_site_fract_x
	_atom_site_fract_y
	_atom_site_fract_z
	H0	H	0.394837	0.838336	0.712449
	H1	H	0.595494	0.167338	0.710111
	H2	H	0.600031	0.838809	0.277094
	H3	H	0.399096	0.166901	0.284909
	H4	H	0.714571	0.402733	0.832376
	H5	H	0.710106	0.603646	0.160704
	H6	H	0.284985	0.600860	0.832198
	H7	H	0.278063	0.402519	0.159095
	H8	H	0.831552	0.714682	0.400558
	H9	H	0.160372	0.717383	0.593307
	H10	H	0.831201	0.290209	0.594616
	H11	H	0.161395	0.287746	0.394623
	H12	H	0.833046	0.400872	0.713375
	H13	H	0.161054	0.602035	0.706848
	H14	H	0.832695	0.599459	0.283478
	H15	H	0.160588	0.400824	0.277452
	H16	H	0.400278	0.715827	0.833029
	H17	H	0.595621	0.719189	0.160661
	H18	H	0.600663	0.285866	0.833029
	H19	H	0.397950	0.290518	0.161695
	H20	H	0.711560	0.837605	0.393800
	H21	H	0.709623	0.167846	0.593420
	H22	H	0.279465	0.838565	0.597335
	H23	H	0.285753	0.167381	0.400518
	H24	H	0.896816	0.336683	0.209081
	H25	H	0.097438	0.665273	0.210957
	H26	H	0.098504	0.338784	0.777341
	H27	H	0.899156	0.667028	0.783061
	H28	H	0.213556	0.903489	0.331848
	H29	H	0.209700	0.103559	0.660709
	H30	H	0.786326	0.097471	0.330761
	H31	H	0.778187	0.902750	0.659189
	H32	H	0.333631	0.215212	0.901405
	H33	H	0.662351	0.218039	0.094852
	H34	H	0.333332	0.789508	0.096622
	H35	H	0.662552	0.787512	0.894696
	H36	H	0.334076	0.901939	0.212933
	H37	H	0.661796	0.103863	0.210513
	H38	H	0.332974	0.100662	0.787070
	H39	H	0.661889	0.901217	0.777548
	H40	H	0.899839	0.214492	0.331225
	H41	H	0.092041	0.218523	0.660264
	H42	H	0.097090	0.787257	0.331238
	H43	H	0.894282	0.788698	0.659950
	H44	H	0.212746	0.338128	0.893347
	H45	H	0.208218	0.667156	0.092743
	H46	H	0.781127	0.337373	0.093663
	H47	H	0.785487	0.667915	0.899739
	H48	H	0.401275	0.121011	0.593839
	H49	H	0.583208	0.886783	0.586650
	H50	H	0.592802	0.123328	0.392929
	H51	H	0.406821	0.884053	0.401120
	H52	H	0.575396	0.417736	0.108036
	H53	H	0.603448	0.590934	0.877655
	H54	H	0.391958	0.594538	0.116645
	H55	H	0.406992	0.416859	0.881874
	H56	H	0.114947	0.599618	0.403954
	H57	H	0.881538	0.586091	0.589059
	H58	H	0.114096	0.410584	0.587093
	H59	H	0.879733	0.401710	0.413513
	H60	H	0.114562	0.410012	0.585942
	H61	H	0.875166	0.598201	0.599226
	H62	H	0.112711	0.590647	0.404496
	H63	H	0.881813	0.419970	0.402222
	H64	H	0.408098	0.587701	0.109688
	H65	H	0.583989	0.588086	0.883693
	H66	H	0.589560	0.395504	0.118036
	H67	H	0.413930	0.402932	0.879956
	H68	H	0.581701	0.117076	0.405755
	H69	H	0.588858	0.885783	0.583329
	H70	H	0.405248	0.121241	0.593972
	H71	H	0.406952	0.885207	0.405425
	H72	H	0.908728	0.618747	0.091981
	H73	H	0.084280	0.382223	0.097295
	H74	H	0.091903	0.623131	0.892667
	H75	H	0.902712	0.383000	0.899961
	H76	H	0.084694	0.916154	0.610966
	H77	H	0.092830	0.094302	0.379050
	H78	H	0.904095	0.095287	0.612189
	H79	H	0.897817	0.903149	0.374535
	H80	H	0.616361	0.091542	0.896684
	H81	H	0.381005	0.086868	0.096202
	H82	H	0.617764	0.908254	0.090706
	H83	H	0.384898	0.920319	0.907930
	H84	H	0.614615	0.909478	0.082093
	H85	H	0.376906	0.103069	0.097090
	H86	H	0.618479	0.100431	0.901520
	H87	H	0.376123	0.906417	0.892852
	H88	H	0.901326	0.099230	0.614573
	H89	H	0.092161	0.094932	0.378581
	H90	H	0.084204	0.904233	0.614471
	H91	H	0.903755	0.916229	0.380754
	H92	H	0.084293	0.617435	0.904528
	H93	H	0.081718	0.388399	0.078251
	H94	H	0.902447	0.619579	0.086797
	H95	H	0.910222	0.385582	0.901910
	H96	H	0.403942	0.119661	0.590523
	H97	H	0.588584	0.883309	0.589978
	H98	H	0.598725	0.120511	0.409926
	H99	H	0.402929	0.883939	0.403767
	H100	H	0.602376	0.420438	0.114928
	H101	H	0.590517	0.605928	0.876454
	H102	H	0.406905	0.606169	0.115494
	H103	H	0.399282	0.405037	0.876270
	H104	H	0.115458	0.593578	0.397101
	H105	H	0.878005	0.601548	0.583785
	H106	H	0.113358	0.411727	0.585183
	H107	H	0.874115	0.401794	0.392331
	H108	H	0.901040	0.622010	0.095276
	H109	H	0.099448	0.380317	0.083727
	H110	H	0.099146	0.621819	0.905731
	H111	H	0.904137	0.385640	0.907161
	H112	H	0.094875	0.910419	0.614238
	H113	H	0.092505	0.094680	0.378509
	H114	H	0.899584	0.094362	0.612760
	H115	H	0.912720	0.903594	0.380500
	H116	H	0.614566	0.092786	0.907516
	H117	H	0.382644	0.096702	0.083397
	H118	H	0.615166	0.915807	0.089239
	H119	H	0.380467	0.899801	0.914272
	C120	C	0.373811	0.011627	0.620634
	C121	C	0.617011	0.993820	0.616470
	C122	C	0.620084	0.011514	0.373120
	C123	C	0.376877	0.993369	0.375885
	C124	C	0.619552	0.381675	0.005141
	C125	C	0.620151	0.624889	0.987996
	C126	C	0.375280	0.624241	0.005464
	C127	C	0.375999	0.380242	0.987748
	C128	C	0.005748	0.623245	0.374516
	C129	C	0.987098	0.624203	0.617691
	C130	C	0.005415	0.381490	0.616382
	C131	C	0.987423	0.379038	0.372745
	C132	C	0.874767	0.510757	0.118675
	C133	C	0.117488	0.492684	0.115843
	C134	C	0.120316	0.511575	0.871863
	C135	C	0.877274	0.493798	0.875333
	C136	C	0.117901	0.881080	0.504396
	C137	C	0.118884	0.124401	0.487537
	C138	C	0.874568	0.123469	0.504278
	C139	C	0.874301	0.879524	0.487121
	C140	C	0.507031	0.123284	0.875480
	C141	C	0.488973	0.124807	0.119683
	C142	C	0.506936	0.881815	0.117481
	C143	C	0.489141	0.880069	0.874678
	C144	C	0.374998	0.887652	0.675032
	C145	C	0.615585	0.118045	0.672264
	C146	C	0.619219	0.887836	0.315745
	C147	C	0.379264	0.117544	0.322132
	C148	C	0.676192	0.382979	0.881508
	C149	C	0.673637	0.623787	0.111391
	C150	C	0.322204	0.621041	0.881492
	C151	C	0.317642	0.382645	0.110663
	C152	C	0.881164	0.677538	0.378735
	C153	C	0.110835	0.680153	0.614124
	C154	C	0.880753	0.327189	0.614928
	C155	C	0.111798	0.324749	0.374300
	C156	C	0.881817	0.382491	0.673766
	C157	C	0.111547	0.622519	0.670560
	C158	C	0.881672	0.620306	0.320797
	C159	C	0.111308	0.380922	0.315941
	C160	C	0.379406	0.678510	0.882172
	C161	C	0.616397	0.681044	0.111380
	C162	C	0.619317	0.324866	0.881693
	C163	C	0.376973	0.326607	0.111818
	C164	C	0.674846	0.887176	0.373861
	C165	C	0.672336	0.118273	0.614230
	C166	C	0.317388	0.887780	0.617802
	C167	C	0.323076	0.117955	0.379988
	C168	C	0.876410	0.386359	0.172204
	C169	C	0.116645	0.616325	0.172454
	C170	C	0.118424	0.387964	0.815603
	C171	C	0.879342	0.617886	0.820911
	C172	C	0.175122	0.882770	0.380850
	C173	C	0.172096	0.123494	0.611556
	C174	C	0.822571	0.118968	0.380061
	C175	C	0.816742	0.882160	0.610287
	C176	C	0.382816	0.178023	0.880274
	C177	C	0.613022	0.180167	0.115421
	C178	C	0.382963	0.826639	0.116719
	C179	C	0.613195	0.824974	0.874807
	C180	C	0.383229	0.883134	0.174255
	C181	C	0.612651	0.123556	0.173278
	C182	C	0.382534	0.120595	0.823336
	C183	C	0.612781	0.881467	0.816659
	C184	C	0.878732	0.177326	0.380404
	C185	C	0.113892	0.180642	0.611270
	C186	C	0.117090	0.825183	0.380638
	C187	C	0.874826	0.825873	0.610711
	C188	C	0.175250	0.387618	0.873314
	C189	C	0.171963	0.617344	0.113659
	C190	C	0.819149	0.386626	0.114652
	C191	C	0.823266	0.618527	0.879214
	C192	C	0.396660	0.098362	0.598958
	C193	C	0.593902	0.907720	0.593346
	C194	C	0.597671	0.097760	0.396059
	C195	C	0.398995	0.906699	0.397140
	C196	C	0.595987	0.404540	0.091494
	C197	C	0.598994	0.601742	0.901686
	C198	C	0.396101	0.602493	0.091703
	C199	C	0.399702	0.401963	0.901735
	C200	C	0.092039	0.601248	0.395713
	C201	C	0.900858	0.601637	0.597087
	C202	C	0.091414	0.404084	0.593033
	C203	C	0.900890	0.401342	0.395922
	C204	C	0.897441	0.597471	0.097554
	C205	C	0.095091	0.406042	0.092885
	C206	C	0.098268	0.598350	0.894467
	C207	C	0.899163	0.407207	0.896756
	C208	C	0.094726	0.903631	0.590782
	C209	C	0.098527	0.101425	0.401212
	C210	C	0.895463	0.102465	0.590875
	C211	C	0.897925	0.901277	0.400891
	C212	C	0.593861	0.101404	0.895862
	C213	C	0.402466	0.102168	0.098482
	C214	C	0.593525	0.904500	0.094130
	C215	C	0.402967	0.902209	0.898246
	Zn216	Zn	0.497234	0.002108	0.746862
	Zn217	Zn	0.498108	0.002412	0.246913
	Zn218	Zn	0.748240	0.503162	-0.003512
	Zn219	Zn	0.246741	0.502387	-0.004983
	Zn220	Zn	-0.004271	0.751807	0.496374
	Zn221	Zn	-0.004149	0.252668	0.495409
	Zn222	Zn	-0.002816	0.502277	0.745071
	Zn223	Zn	-0.002813	0.501534	0.245495
	Zn224	Zn	0.498003	0.752825	-0.003135
	Zn225	Zn	0.498285	0.251837	-0.003257
	Zn226	Zn	0.746305	0.001782	0.495186
	Zn227	Zn	0.247746	0.002612	0.496983
	N228	N	0.409140	0.965596	0.676998
	N229	N	0.581720	0.039811	0.673624
	N230	N	0.585658	0.966134	0.315136
	N231	N	0.412529	0.039172	0.319655
	N232	N	0.676452	0.417342	0.959318
	N233	N	0.675898	0.589342	0.033684
	N234	N	0.319348	0.587988	0.959286
	N235	N	0.316783	0.415313	0.032516
	N236	N	0.959169	0.679402	0.411240
	N237	N	0.032565	0.681197	0.582002
	N238	N	0.958412	0.326292	0.579841
	N239	N	0.033651	0.323203	0.408794
	N240	N	0.960365	0.415572	0.675007
	N241	N	0.033611	0.588398	0.673215
	N242	N	0.960121	0.587315	0.317858
	N243	N	0.033015	0.414082	0.314983
	N244	N	0.411676	0.680741	0.960242
	N245	N	0.583715	0.681828	0.033500
	N246	N	0.584710	0.323879	0.959629
	N247	N	0.412578	0.324960	0.034362
	N248	N	0.675665	0.964816	0.408702
	N249	N	0.673202	0.040055	0.579922
	N250	N	0.316644	0.966051	0.584517
	N251	N	0.321492	0.039727	0.412754
	N252	N	0.910440	0.464630	0.174786
	N253	N	0.083697	0.537812	0.174178
	N254	N	0.085257	0.466272	0.814351
	N255	N	0.912356	0.539395	0.818376
	N256	N	0.175819	0.916749	0.458848
	N257	N	0.175418	0.089391	0.533611
	N258	N	0.819763	0.086315	0.458101
	N259	N	0.816437	0.915094	0.532412
	N260	N	0.461238	0.179773	0.912198
	N261	N	0.534958	0.181236	0.082775
	N262	N	0.460953	0.825733	0.082122
	N263	N	0.535542	0.823877	0.910270
	N264	N	0.461437	0.916802	0.175100
	N265	N	0.534635	0.089925	0.176174
	N266	N	0.460798	0.087441	0.820226
	N267	N	0.534592	0.915278	0.816448
	N268	N	0.910307	0.180466	0.458774
	N269	N	0.081448	0.181322	0.533204
	N270	N	0.082368	0.823892	0.458494
	N271	N	0.909658	0.823918	0.532997
	N272	N	0.176909	0.465746	0.907327
	N273	N	0.172798	0.539209	0.079235
	N274	N	0.817665	0.465132	0.082553
	N275	N	0.821473	0.540383	0.912049
	O276	O	0.048995	0.072288	-0.092423
	H277	H	0.053485	0.077814	-0.080961
	H278	H	0.042857	0.061543	-0.094714
	O279	O	0.471856	0.518737	0.437644
	H280	H	0.483924	0.526489	0.441680
	H281	H	0.475596	0.520850	0.423850
	O282	O	0.548259	0.491369	0.449449
	H283	H	0.558545	0.491073	0.447739
	H284	H	0.536628	0.486199	0.461663
	O285	O	0.076826	0.969286	0.974458
	H286	H	0.067583	0.981371	0.980599
	H287	H	0.073165	0.974906	0.970315
	O288	O	0.422741	0.575218	0.474692
	H289	H	0.413133	0.573649	0.482002
	H290	H	0.415795	0.579215	0.471564
	O291	O	0.944365	0.995883	1.100543
	H292	H	0.936716	0.988726	1.113317
	H293	H	0.945546	0.999975	1.108680
	O294	O	0.932812	0.998123	1.012172
	H295	H	0.934011	0.996895	1.011619
	H296	H	0.932948	0.997396	1.006396
	O297	O	0.992694	0.051252	1.056379
	H298	H	0.995137	0.040669	1.065165
	H299	H	0.991852	0.043819	1.057349
	O300	O	0.553974	0.427744	0.472938
	H301	H	0.558799	0.427815	0.464912
	H302	H	0.560301	0.431364	0.478060
	O303	O	0.944563	0.040256	-0.069829
	H304	H	0.949892	0.040190	-0.065175
	H305	H	0.945679	0.047541	-0.060612
	O306	O	-0.027267	0.932163	0.963841
	H307	H	-0.026030	0.934608	0.962825
	H308	H	-0.023051	0.934342	0.960757
	O309	O	0.556529	0.442678	0.415373
	H310	H	0.566096	0.441795	0.413334
	H311	H	0.567055	0.440911	0.420210
	O312	O	0.982922	-0.082140	0.924466
	H313	H	0.985966	-0.083004	0.914825
	H314	H	0.988368	-0.082333	0.912539
	O315	O	0.505343	0.599291	0.509652
	H316	H	0.506326	0.606463	0.498202
	H317	H	0.510915	0.595264	0.510449
	O318	O	0.498234	0.503766	0.431339
	H319	H	0.501257	0.509238	0.429145
	H320	H	0.494929	0.507447	0.441542
	O321	O	1.056893	1.007495	0.915166
	H322	H	1.069159	1.008453	0.927687
	H323	H	1.055762	1.005980	0.913730
	O324	O	0.625699	0.514324	0.480146
	H325	H	0.614370	0.518989	0.486327
	H326	H	0.625060	0.518600	0.487406
	O327	O	0.360853	0.479809	0.576289
	H328	H	0.362340	0.490720	0.570908
	H329	H	0.369183	0.474769	0.578194
	O330	O	1.052335	0.020801	1.035481
	H331	H	1.061145	0.017007	1.029077
	H332	H	1.060826	0.027374	1.030967
	O333	O	1.020903	0.951177	0.029555
	H334	H	1.017219	0.943872	0.016022
	H335	H	1.020526	0.939840	0.037460
	O336	O	0.446177	0.478089	0.569167
	H337	H	0.441579	0.484704	0.580080
	H338	H	0.456883	0.471915	0.562816
	O339	O	0.488053	0.493773	0.602885
	H340	H	0.484390	0.498326	0.619065
	H341	H	0.471224	0.479738	0.601001
	O342	O	0.039776	1.061494	-0.063003
	H343	H	0.032121	1.069192	-0.060756
	H344	H	0.052355	1.062333	-0.068045
	O345	O	0.065946	-0.088392	-0.032844
	H346	H	0.058532	-0.094119	-0.032734
	H347	H	0.065384	-0.080897	-0.039673
	O348	O	0.407171	0.613378	0.407845
	H349	H	0.408590	0.602762	0.402532
	H350	H	0.410341	0.610201	0.403843
	O351	O	0.426282	0.456038	0.606883
	H352	H	0.404529	0.453386	0.610913
	H353	H	0.431009	0.437411	0.588831
	O354	O	0.456801	0.556188	0.533859
	H355	H	0.462577	0.544040	0.537780
	H356	H	0.453951	0.547762	0.538972
	O357	O	0.459104	0.449832	0.494702
	H358	H	0.470677	0.456768	0.483372
	H359	H	0.448995	0.434746	0.484302
	O360	O	0.011835	-0.042846	0.018929
	H361	H	0.010541	-0.044181	0.026929
	H362	H	0.011076	-0.046833	0.010767
	O363	O	0.426443	0.497659	0.616363
	H364	H	0.422847	0.487754	0.622175
	H365	H	0.419392	0.488296	0.611066
	O366	O	-0.000654	0.013220	1.090342
	H367	H	-0.000331	0.007512	1.091200
	H368	H	-0.003755	0.005454	1.087944
	O369	O	0.605197	0.483132	0.524614
	H370	H	0.602073	0.484085	0.535387
	H371	H	0.605046	0.496109	0.523996
