data_Molecule from HDF5

_cell_length_a		16.194847
_cell_length_b		16.446163
_cell_length_c		16.003762
_cell_angle_alpha	89.921173
_cell_angle_beta	89.916201
_cell_angle_gamma	89.907821
_symmetry_space_group_name_H-M	'P 1'
_symmetry_Int_Tables_number		1

loop_
	_symmetry_equiv_pos_as_xyz
	x,y,z

loop_
	_atom_site_label
	_atom_site_type_symbol
	_atom_site_fract_x
	_atom_site_fract_y
	_atom_site_fract_z
	H0	H	0.409993	0.829979	0.707230
	H1	H	0.606687	0.155430	0.705921
	H2	H	0.606724	0.829940	0.275320
	H3	H	0.407646	0.154330	0.275525
	H4	H	0.719792	0.393801	0.823610
	H5	H	0.719156	0.589645	0.155492
	H6	H	0.291867	0.594233	0.823622
	H7	H	0.292415	0.395629	0.154941
	H8	H	0.843556	0.712068	0.384786
	H9	H	0.167245	0.709445	0.596432
	H10	H	0.844383	0.271388	0.593708
	H11	H	0.168284	0.271441	0.384154
	H12	H	0.840360	0.392798	0.702627
	H13	H	0.170437	0.585550	0.702205
	H14	H	0.840837	0.588864	0.276760
	H15	H	0.171491	0.394483	0.277144
	H16	H	0.404160	0.710750	0.825479
	H17	H	0.609960	0.709511	0.154216
	H18	H	0.610202	0.275822	0.826219
	H19	H	0.403249	0.277857	0.153815
	H20	H	0.725178	0.831327	0.390880
	H21	H	0.725346	0.154033	0.592420
	H22	H	0.289613	0.830617	0.595056
	H23	H	0.288578	0.151826	0.388482
	H24	H	0.908212	0.328508	0.204329
	H25	H	0.105201	0.653574	0.207454
	H26	H	0.103415	0.328191	0.776678
	H27	H	0.905620	0.652369	0.773086
	H28	H	0.221569	0.891167	0.325076
	H29	H	0.218628	0.088306	0.656964
	H30	H	0.794176	0.091753	0.325142
	H31	H	0.794067	0.895096	0.656358
	H32	H	0.345078	0.212892	0.884367
	H33	H	0.669102	0.212126	0.094503
	H34	H	0.344506	0.775248	0.094234
	H35	H	0.669115	0.773342	0.883708
	H36	H	0.342281	0.896539	0.202987
	H37	H	0.672539	0.088500	0.202162
	H38	H	0.342507	0.090294	0.777644
	H39	H	0.673385	0.898260	0.779124
	H40	H	0.905570	0.206588	0.325969
	H41	H	0.111180	0.208965	0.654083
	H42	H	0.109754	0.773598	0.326018
	H43	H	0.901541	0.774332	0.654668
	H44	H	0.227133	0.332608	0.885922
	H45	H	0.222032	0.654339	0.091161
	H46	H	0.788854	0.330456	0.091264
	H47	H	0.788847	0.651790	0.885786
	H48	H	0.416078	0.106559	0.583257
	H49	H	0.605593	0.876915	0.584754
	H50	H	0.606682	0.110877	0.392532
	H51	H	0.419195	0.879033	0.403516
	H52	H	0.597805	0.405636	0.107575
	H53	H	0.603159	0.583640	0.869316
	H54	H	0.412860	0.588988	0.109674
	H55	H	0.415511	0.411148	0.872818
	H56	H	0.120742	0.579685	0.399919
	H57	H	0.887901	0.580589	0.584364
	H58	H	0.122332	0.402097	0.582800
	H59	H	0.895072	0.404881	0.410593
	H60	H	0.124756	0.393809	0.582267
	H61	H	0.886371	0.590022	0.581617
	H62	H	0.124006	0.586586	0.398151
	H63	H	0.885396	0.402222	0.384996
	H64	H	0.413877	0.581666	0.107649
	H65	H	0.593470	0.580930	0.873668
	H66	H	0.591305	0.400634	0.106710
	H67	H	0.426997	0.400284	0.873045
	H68	H	0.593320	0.106605	0.394377
	H69	H	0.597951	0.877472	0.586522
	H70	H	0.411142	0.107344	0.579094
	H71	H	0.407947	0.874476	0.399355
	H72	H	0.908766	0.607494	0.081450
	H73	H	0.098557	0.375348	0.089831
	H74	H	0.091383	0.603712	0.899525
	H75	H	0.906869	0.373843	0.894892
	H76	H	0.100452	0.901874	0.609299
	H77	H	0.092726	0.095298	0.369471
	H78	H	0.914832	0.085883	0.611270
	H79	H	0.924508	0.908609	0.376690
	H80	H	0.626407	0.098073	0.905873
	H81	H	0.390446	0.085687	0.079553
	H82	H	0.624297	0.899863	0.079088
	H83	H	0.389641	0.908451	0.890604
	H84	H	0.624910	0.899411	0.081125
	H85	H	0.389967	0.087020	0.083074
	H86	H	0.620078	0.078310	0.905570
	H87	H	0.385844	0.889806	0.899072
	H88	H	0.916100	0.080415	0.608745
	H89	H	0.110581	0.079439	0.369293
	H90	H	0.092332	0.898961	0.607121
	H91	H	0.921717	0.889934	0.370194
	H92	H	0.105287	0.607787	0.901126
	H93	H	0.092895	0.381457	0.075918
	H94	H	0.913226	0.607180	0.085301
	H95	H	0.916306	0.374952	0.894116
	H96	H	0.409741	0.108191	0.585484
	H97	H	0.601085	0.878703	0.579504
	H98	H	0.602431	0.106327	0.405643
	H99	H	0.417436	0.875669	0.391618
	H100	H	0.598544	0.398140	0.109753
	H101	H	0.595586	0.592098	0.869631
	H102	H	0.419465	0.586951	0.106825
	H103	H	0.412152	0.396503	0.867572
	H104	H	0.121273	0.584261	0.405231
	H105	H	0.890785	0.583842	0.574167
	H106	H	0.122004	0.397209	0.575690
	H107	H	0.885654	0.381449	0.401675
	H108	H	0.915458	0.605725	0.080350
	H109	H	0.106963	0.376273	0.076863
	H110	H	0.098983	0.609312	0.889019
	H111	H	0.911898	0.376347	0.901893
	H112	H	0.098257	0.893640	0.610465
	H113	H	0.089200	0.074034	0.377689
	H114	H	0.920246	0.085339	0.608936
	H115	H	0.906749	0.902252	0.369460
	H116	H	0.627823	0.086353	0.888233
	H117	H	0.389902	0.089026	0.080032
	H118	H	0.624343	0.898040	0.080125
	H119	H	0.395964	0.904776	0.911186
	C120	C	0.384195	0.000344	0.613326
	C121	C	0.630241	0.984583	0.613010
	C122	C	0.630246	0.001033	0.368288
	C123	C	0.384635	0.982897	0.368302
	C124	C	0.626550	0.372029	-0.000980
	C125	C	0.627439	0.614156	0.980415
	C126	C	0.385284	0.615067	-0.001586
	C127	C	0.386621	0.372931	0.979933
	C128	C	0.014129	0.612914	0.369925
	C129	C	0.996526	0.613148	0.611279
	C130	C	0.014590	0.368516	0.610949
	C131	C	0.997111	0.368080	0.368383
	C132	C	0.883724	0.499799	0.111982
	C133	C	0.128718	0.484288	0.111540
	C134	C	0.128587	0.500337	0.866546
	C135	C	0.883158	0.482042	0.867296
	C136	C	0.127866	0.868423	0.499658
	C137	C	0.127464	0.111850	0.481439
	C138	C	0.887223	0.112868	0.500114
	C139	C	0.886832	0.871147	0.481519
	C140	C	0.516105	0.116265	0.869113
	C141	C	0.498300	0.115516	0.111190
	C142	C	0.516172	0.870923	0.110459
	C143	C	0.498575	0.871675	0.869097
	C144	C	0.388371	0.878481	0.669573
	C145	C	0.627160	0.106797	0.668109
	C146	C	0.627743	0.878805	0.313046
	C147	C	0.387166	0.105272	0.313314
	C148	C	0.682338	0.373717	0.873703
	C149	C	0.682610	0.610814	0.105476
	C150	C	0.329500	0.613853	0.873668
	C151	C	0.329624	0.374969	0.105021
	C152	C	0.891714	0.671490	0.367685
	C153	C	0.118965	0.669963	0.613324
	C154	C	0.892352	0.311299	0.611642
	C155	C	0.119998	0.311334	0.366937
	C156	C	0.890373	0.371507	0.666053
	C157	C	0.120449	0.608569	0.666404
	C158	C	0.890373	0.610232	0.313842
	C159	C	0.121396	0.372287	0.313199
	C160	C	0.385432	0.671835	0.874337
	C161	C	0.628451	0.670543	0.104842
	C162	C	0.627783	0.315025	0.875050
	C163	C	0.385012	0.316597	0.104491
	C164	C	0.686746	0.879428	0.370376
	C165	C	0.686635	0.106097	0.611906
	C166	C	0.328649	0.878792	0.613578
	C167	C	0.327647	0.103951	0.369463
	C168	C	0.886585	0.377583	0.167389
	C169	C	0.125839	0.605553	0.168578
	C170	C	0.125654	0.377841	0.812174
	C171	C	0.885254	0.603967	0.811168
	C172	C	0.184013	0.870737	0.374863
	C173	C	0.182117	0.109144	0.606898
	C174	C	0.831383	0.111491	0.374876
	C175	C	0.831000	0.873791	0.606509
	C176	C	0.393500	0.173309	0.867425
	C177	C	0.621063	0.172281	0.112107
	C178	C	0.393196	0.814544	0.111717
	C179	C	0.620906	0.813778	0.866967
	C180	C	0.392009	0.874659	0.166072
	C181	C	0.622876	0.110706	0.165666
	C182	C	0.392256	0.112428	0.813868
	C183	C	0.622994	0.875891	0.814682
	C184	C	0.886735	0.168573	0.375247
	C185	C	0.128580	0.169188	0.605457
	C186	C	0.128087	0.812258	0.375253
	C187	C	0.884736	0.814001	0.605526
	C188	C	0.186928	0.379877	0.867043
	C189	C	0.184023	0.605864	0.110684
	C190	C	0.827567	0.378409	0.110766
	C191	C	0.826883	0.603724	0.867310
	C192	C	0.405925	0.085226	0.589625
	C193	C	0.608100	0.899794	0.590231
	C194	C	0.607692	0.085852	0.390875
	C195	C	0.407933	0.898319	0.391440
	C196	C	0.602895	0.394819	0.085648
	C197	C	0.604183	0.592141	0.893417
	C198	C	0.408603	0.592504	0.085537
	C199	C	0.410901	0.395931	0.893572
	C200	C	0.099516	0.590132	0.394018
	C201	C	0.910539	0.591085	0.587148
	C202	C	0.100582	0.391144	0.587374
	C203	C	0.911116	0.389866	0.392120
	C204	C	0.905879	0.584765	0.089145
	C205	C	0.106134	0.399675	0.087869
	C206	C	0.105310	0.585029	0.889728
	C207	C	0.905296	0.397146	0.890134
	C208	C	0.104139	0.891331	0.586640
	C209	C	0.104387	0.089531	0.394700
	C210	C	0.910250	0.090573	0.587016
	C211	C	0.910572	0.893707	0.394716
	C212	C	0.602275	0.094109	0.892953
	C213	C	0.412462	0.093693	0.087794
	C214	C	0.602342	0.892738	0.087071
	C215	C	0.412724	0.894224	0.893128
	Zn216	Zn	0.507602	-0.006519	0.741915
	Zn217	Zn	0.507424	-0.007493	0.238940
	Zn218	Zn	0.754480	0.491724	-0.010908
	Zn219	Zn	0.258586	0.493725	-0.010999
	Zn220	Zn	0.005662	0.742233	0.490505
	Zn221	Zn	0.006894	0.239798	0.489985
	Zn222	Zn	0.004815	0.490589	0.738368
	Zn223	Zn	0.005745	0.491048	0.241261
	Zn224	Zn	0.506921	0.741918	-0.010413
	Zn225	Zn	0.506862	0.244460	-0.009837
	Zn226	Zn	0.760405	-0.006860	0.490591
	Zn227	Zn	0.254484	-0.008968	0.490766
	N228	N	0.421846	0.955229	0.669750
	N229	N	0.592919	0.030426	0.668903
	N230	N	0.593610	0.955431	0.311411
	N231	N	0.422063	0.028970	0.312453
	N232	N	0.681804	0.408605	0.951780
	N233	N	0.682379	0.576673	0.027097
	N234	N	0.329383	0.579349	0.951949
	N235	N	0.330485	0.409460	0.026535
	N236	N	0.969518	0.673291	0.401790
	N237	N	0.040665	0.672973	0.580025
	N238	N	0.970667	0.309289	0.577971
	N239	N	0.041793	0.308693	0.400566
	N240	N	0.967468	0.406428	0.665512
	N241	N	0.043365	0.573840	0.665206
	N242	N	0.967358	0.574375	0.314978
	N243	N	0.044132	0.407025	0.314088
	N244	N	0.419206	0.672779	0.953074
	N245	N	0.594892	0.672869	0.025923
	N246	N	0.593800	0.313765	0.953863
	N247	N	0.419552	0.315024	0.025948
	N248	N	0.688495	0.956444	0.403890
	N249	N	0.688824	0.029185	0.578064
	N250	N	0.325615	0.955551	0.579491
	N251	N	0.325940	0.026904	0.403001
	N252	N	0.920911	0.453989	0.168064
	N253	N	0.092055	0.528887	0.169132
	N254	N	0.090108	0.453928	0.811657
	N255	N	0.919567	0.527579	0.810810
	N256	N	0.184014	0.904856	0.453365
	N257	N	0.181562	0.074249	0.528917
	N258	N	0.831532	0.077309	0.453394
	N259	N	0.832129	0.908792	0.528316
	N260	N	0.471837	0.175861	0.900888
	N261	N	0.542482	0.175566	0.079421
	N262	N	0.471466	0.811948	0.077945
	N263	N	0.542449	0.810844	0.900169
	N264	N	0.469345	0.909245	0.165289
	N265	N	0.545499	0.076127	0.165285
	N266	N	0.469514	0.077863	0.814613
	N267	N	0.545904	0.911224	0.815886
	N268	N	0.920824	0.169499	0.453871
	N269	N	0.095173	0.171000	0.526465
	N270	N	0.094110	0.810742	0.454056
	N271	N	0.918842	0.812329	0.526813
	N272	N	0.188885	0.457017	0.899912
	N273	N	0.185691	0.529390	0.075714
	N274	N	0.825513	0.455455	0.077129
	N275	N	0.825340	0.526919	0.901663
	O276	O	0.902378	-0.062160	1.066831
	H277	H	0.893110	-0.072427	1.073875
	H278	H	0.910539	-0.049740	1.070351
	O279	O	0.442732	0.392035	0.502098
	H280	H	0.447604	0.381143	0.511351
	H281	H	0.446988	0.383984	0.491527
	O282	O	0.570362	0.601866	0.556318
	H283	H	0.569195	0.607246	0.553728
	H284	H	0.562724	0.601722	0.555287
	O285	O	0.459863	0.404993	0.651626
	H286	H	0.460472	0.413176	0.668942
	H287	H	0.463792	0.410103	0.655777
	O288	O	0.333462	0.543118	0.443166
	H289	H	0.314650	0.550115	0.435591
	H290	H	0.339201	0.531695	0.439927
	O291	O	0.005729	0.002439	0.958248
	H292	H	-0.005799	0.003871	0.955109
	H293	H	-0.001945	-0.003284	0.944813
	O294	O	1.139590	0.895563	-0.020863
	H295	H	1.145301	0.875939	-0.007399
	H296	H	1.151284	0.908946	-0.038705
	O297	O	1.110622	1.088728	-0.026350
	H298	H	1.107870	1.081229	-0.026753
	H299	H	1.119078	1.096722	-0.026231
	O300	O	0.531523	0.500343	0.432893
	H301	H	0.533077	0.495663	0.432224
	H302	H	0.526612	0.492709	0.429285
	O303	O	-0.039485	0.951638	1.121476
	H304	H	-0.046676	0.954610	1.124736
	H305	H	-0.043707	0.943596	1.114160
	O306	O	0.563019	0.356255	0.545849
	H307	H	0.565394	0.356050	0.544842
	H308	H	0.553877	0.362024	0.551662
	O309	O	0.425211	0.593301	0.347552
	H310	H	0.423974	0.582380	0.342332
	H311	H	0.433352	0.594143	0.338711
	O312	O	1.434931	1.548258	1.482478
	H313	H	1.436981	1.543387	1.478395
	H314	H	1.426494	1.550906	1.482045
	O315	O	1.398093	1.479000	-0.581353
	H316	H	1.420573	1.480812	-0.577352
	H317	H	1.392959	1.476017	-0.564995
	O318	O	0.003079	0.955440	0.987701
	H319	H	-0.002253	0.948266	0.984040
	H320	H	0.010448	0.970419	0.986967
	O321	O	0.529434	0.407846	0.373523
	H322	H	0.524691	0.414243	0.379018
	H323	H	0.531724	0.409347	0.365000
	O324	O	-0.091095	1.032367	1.037733
	H325	H	-0.085730	1.031505	1.028100
	H326	H	-0.085649	1.048604	1.037105
	O327	O	0.138415	0.909615	0.856592
	H328	H	0.138564	0.915865	0.854612
	H329	H	0.141035	0.901122	0.850833
	O330	O	-0.380810	0.456486	0.559249
	H331	H	-0.377848	0.471546	0.562536
	H332	H	-0.382655	0.450086	0.545852
	O333	O	0.421106	0.308134	0.499965
	H334	H	0.425910	0.316000	0.517786
	H335	H	0.440131	0.296842	0.504035
	O336	O	-1.044000	-1.036484	0.955797
	H337	H	-1.044317	-1.037854	0.968378
	H338	H	-1.046815	-1.046766	0.967015
	O339	O	0.067094	0.020028	-0.019468
	H340	H	0.092693	0.028125	-0.014752
	H341	H	0.068591	0.007214	-0.028269
	O342	O	0.453698	0.522772	0.643697
	H343	H	0.439818	0.513152	0.642970
	H344	H	0.454843	0.527044	0.656093
	O345	O	0.094928	0.969863	0.949721
	H346	H	0.099323	0.987228	0.953578
	H347	H	0.103339	0.969013	0.948895
	O348	O	0.568048	0.602974	0.501408
	H349	H	0.554993	0.609244	0.498449
	H350	H	0.575242	0.605731	0.508826
	O351	O	0.563581	0.524725	-0.608816
	H352	H	0.564663	0.516969	-0.601202
	H353	H	0.554143	0.530624	-0.614554
	O354	O	-0.047895	1.062503	0.054218
	H355	H	-0.060912	1.056306	0.053888
	H356	H	-0.058032	1.058390	0.057027
	O357	O	0.407677	0.636927	0.424163
	H358	H	0.413809	0.637711	0.410844
	H359	H	0.395657	0.632213	0.419893
	O360	O	0.883627	0.011569	0.962724
	H361	H	0.880957	0.010506	0.961927
	H362	H	0.891186	0.004729	0.958912
	O363	O	0.580254	0.553361	0.509136
	H364	H	0.579589	0.549462	0.490411
	H365	H	0.570066	0.565765	0.511713
	O366	O	0.592226	0.456232	0.599893
	H367	H	0.590940	0.454193	0.597137
	H368	H	0.599756	0.472782	0.588419
	O369	O	1.078075	0.117073	0.117446
	H370	H	1.073318	0.120487	0.124219
	H371	H	1.077463	0.116745	0.119834
	O372	O	0.672699	0.456299	0.393083
	H373	H	0.661034	0.448732	0.404343
	H374	H	0.685548	0.442863	0.399311
	O375	O	1.005499	0.046401	0.978440
	H376	H	1.009563	0.061281	0.977999
	H377	H	0.998844	0.053796	0.969949
	O378	O	0.044662	0.979739	0.006431
	H379	H	0.052434	0.974074	0.005239
	H380	H	0.050950	0.962837	0.005935
	O381	O	-0.093442	0.919262	0.986369
	H382	H	-0.094103	0.908228	0.994528
	H383	H	-0.103613	0.921525	0.999413
	O384	O	0.925646	0.900672	-0.085558
	H385	H	0.911250	0.902966	-0.083880
	H386	H	0.931352	0.894004	-0.101501
	O387	O	1.121549	0.018850	1.086352
	H388	H	1.105854	0.018969	1.085347
	H389	H	1.135172	0.022652	1.100009
	O390	O	1.017760	1.011067	-0.124036
	H391	H	1.016102	1.008331	-0.128838
	H392	H	1.022937	1.018250	-0.132743
	O393	O	0.361025	0.446655	0.428910
	H394	H	0.361993	0.448594	0.416749
	H395	H	0.360492	0.453066	0.435815
