data_Molecule from HDF5

_cell_length_a		16.128180
_cell_length_b		16.281397
_cell_length_c		16.224266
_cell_angle_alpha	90.386300
_cell_angle_beta	90.182159
_cell_angle_gamma	89.850069
_symmetry_space_group_name_H-M	'P 1'
_symmetry_Int_Tables_number		1

loop_
	_symmetry_equiv_pos_as_xyz
	x,y,z

loop_
	_atom_site_label
	_atom_site_type_symbol
	_atom_site_fract_x
	_atom_site_fract_y
	_atom_site_fract_z
	H0	H	0.395262	0.837421	0.709125
	H1	H	0.596380	0.163186	0.712629
	H2	H	0.596234	0.838262	0.278709
	H3	H	0.394980	0.164900	0.280893
	H4	H	0.709696	0.400052	0.832864
	H5	H	0.709492	0.600134	0.160979
	H6	H	0.280197	0.597651	0.832067
	H7	H	0.282328	0.404495	0.160654
	H8	H	0.831286	0.714251	0.397624
	H9	H	0.160625	0.715764	0.599416
	H10	H	0.830630	0.288526	0.595106
	H11	H	0.159489	0.284729	0.396827
	H12	H	0.830931	0.402338	0.709519
	H13	H	0.160978	0.599328	0.711598
	H14	H	0.831201	0.599600	0.282894
	H15	H	0.159965	0.399767	0.281479
	H16	H	0.392693	0.715916	0.831623
	H17	H	0.597858	0.720099	0.158328
	H18	H	0.595698	0.283262	0.833635
	H19	H	0.395344	0.285990	0.160697
	H20	H	0.711695	0.838114	0.394583
	H21	H	0.709537	0.164845	0.595646
	H22	H	0.283409	0.836535	0.591238
	H23	H	0.281299	0.165496	0.398760
	H24	H	0.896043	0.337598	0.210415
	H25	H	0.095642	0.663741	0.213669
	H26	H	0.095559	0.337374	0.780379
	H27	H	0.894865	0.663330	0.781880
	H28	H	0.208584	0.901038	0.330803
	H29	H	0.209511	0.098782	0.660754
	H30	H	0.781958	0.097947	0.331988
	H31	H	0.781816	0.904848	0.660654
	H32	H	0.331912	0.214365	0.895926
	H33	H	0.660549	0.214291	0.096644
	H34	H	0.330948	0.787654	0.093538
	H35	H	0.659686	0.783769	0.894198
	H36	H	0.330930	0.902647	0.208265
	H37	H	0.659571	0.101970	0.211575
	H38	H	0.331560	0.098670	0.782299
	H39	H	0.661141	0.900621	0.781159
	H40	H	0.894612	0.215903	0.333840
	H41	H	0.096631	0.217753	0.660223
	H42	H	0.096246	0.782338	0.333378
	H43	H	0.896220	0.787447	0.661175
	H44	H	0.209430	0.336825	0.897306
	H45	H	0.209457	0.664830	0.096996
	H46	H	0.782871	0.336688	0.093271
	H47	H	0.778318	0.663212	0.897665
	H48	H	0.398067	0.119352	0.590967
	H49	H	0.589833	0.885807	0.578379
	H50	H	0.592550	0.115777	0.415714
	H51	H	0.400630	0.886206	0.407495
	H52	H	0.598098	0.408890	0.116807
	H53	H	0.594167	0.592954	0.877229
	H54	H	0.405616	0.612160	0.117445
	H55	H	0.402038	0.401523	0.877744
	H56	H	0.116728	0.598853	0.403016
	H57	H	0.876275	0.602800	0.586220
	H58	H	0.113104	0.414326	0.594719
	H59	H	0.878655	0.421524	0.393193
	H60	H	0.115580	0.401197	0.589505
	H61	H	0.880906	0.588312	0.583783
	H62	H	0.111989	0.591529	0.414094
	H63	H	0.871289	0.394137	0.396551
	H64	H	0.389408	0.588918	0.115249
	H65	H	0.583807	0.584361	0.882471
	H66	H	0.582757	0.416600	0.110034
	H67	H	0.399598	0.410146	0.880309
	H68	H	0.597026	0.123199	0.393509
	H69	H	0.595121	0.880586	0.591924
	H70	H	0.404667	0.117781	0.593936
	H71	H	0.399353	0.882094	0.395706
	H72	H	0.902240	0.618524	0.093284
	H73	H	0.094188	0.384667	0.080658
	H74	H	0.088949	0.619052	0.902407
	H75	H	0.905294	0.382360	0.894966
	H76	H	0.096331	0.903429	0.617680
	H77	H	0.094789	0.099175	0.375056
	H78	H	0.906104	0.097034	0.614609
	H79	H	0.903358	0.915207	0.382090
	H80	H	0.610142	0.088306	0.912665
	H81	H	0.379689	0.091095	0.084196
	H82	H	0.614616	0.909204	0.089948
	H83	H	0.374552	0.902141	0.897693
	H84	H	0.613699	0.906349	0.085247
	H85	H	0.376078	0.092800	0.091493
	H86	H	0.615447	0.086835	0.894197
	H87	H	0.379909	0.907786	0.909197
	H88	H	0.901086	0.097079	0.615120
	H89	H	0.088560	0.084671	0.382244
	H90	H	0.091095	0.915749	0.611496
	H91	H	0.912046	0.902879	0.381374
	H92	H	0.085480	0.617124	0.903935
	H93	H	0.092447	0.380711	0.097085
	H94	H	0.904459	0.617246	0.090159
	H95	H	0.907352	0.386296	0.906727
	H96	H	0.403699	0.117117	0.586479
	H97	H	0.580766	0.886342	0.590158
	H98	H	0.574796	0.115775	0.399582
	H99	H	0.410357	0.885968	0.399517
	H100	H	0.583035	0.398420	0.115704
	H101	H	0.581154	0.597888	0.878425
	H102	H	0.416732	0.588644	0.106666
	H103	H	0.408737	0.406608	0.881375
	H104	H	0.113371	0.585214	0.400918
	H105	H	0.875794	0.591958	0.597670
	H106	H	0.110457	0.411670	0.581253
	H107	H	0.881641	0.408970	0.419022
	H108	H	0.900529	0.618386	0.089572
	H109	H	0.079802	0.387168	0.088239
	H110	H	0.088942	0.617079	0.906484
	H111	H	0.896172	0.381737	0.903835
	H112	H	0.082065	0.903897	0.612047
	H113	H	0.078456	0.097627	0.380524
	H114	H	0.902921	0.092260	0.613209
	H115	H	0.897859	0.902026	0.376071
	H116	H	0.618631	0.103932	0.902786
	H117	H	0.376709	0.098097	0.086172
	H118	H	0.611919	0.911754	0.085716
	H119	H	0.378941	0.914718	0.898655
	C120	C	0.373941	0.009439	0.617810
	C121	C	0.617520	0.992208	0.616828
	C122	C	0.617291	0.010291	0.373821
	C123	C	0.373766	0.993117	0.373013
	C124	C	0.616968	0.378467	0.005757
	C125	C	0.616717	0.622023	0.987526
	C126	C	0.373684	0.623633	0.004382
	C127	C	0.374584	0.378825	0.988272
	C128	C	0.004791	0.620940	0.376435
	C129	C	0.987161	0.622722	0.618909
	C130	C	0.004251	0.380330	0.617144
	C131	C	0.986076	0.379118	0.374521
	C132	C	0.874128	0.509480	0.118302
	C133	C	0.117675	0.492343	0.118622
	C134	C	0.117142	0.509467	0.874846
	C135	C	0.873099	0.491644	0.874035
	C136	C	0.118383	0.878162	0.504967
	C137	C	0.116743	0.122711	0.487697
	C138	C	0.874034	0.123092	0.505929
	C139	C	0.874656	0.879032	0.488076
	C140	C	0.505537	0.121423	0.874408
	C141	C	0.486425	0.122311	0.116990
	C142	C	0.504578	0.880267	0.115841
	C143	C	0.487113	0.879099	0.873167
	C144	C	0.375900	0.886472	0.671830
	C145	C	0.615500	0.114963	0.673604
	C146	C	0.616098	0.887180	0.317167
	C147	C	0.374827	0.115970	0.318399
	C148	C	0.672022	0.380116	0.881972
	C149	C	0.672263	0.620768	0.111315
	C150	C	0.317972	0.619005	0.880912
	C151	C	0.319672	0.383113	0.111843
	C152	C	0.880574	0.676534	0.377920
	C153	C	0.111290	0.677861	0.618199
	C154	C	0.879999	0.325774	0.615056
	C155	C	0.110226	0.322680	0.376509
	C156	C	0.880076	0.382471	0.671979
	C157	C	0.111407	0.620086	0.674178
	C158	C	0.880492	0.619585	0.320954
	C159	C	0.110568	0.379924	0.319247
	C160	C	0.373787	0.678091	0.880791
	C161	C	0.616812	0.680341	0.110084
	C162	C	0.615537	0.322058	0.882288
	C163	C	0.375727	0.323947	0.111658
	C164	C	0.673063	0.886909	0.375297
	C165	C	0.672089	0.115696	0.615669
	C166	C	0.320133	0.885763	0.612845
	C167	C	0.318273	0.116183	0.377117
	C168	C	0.876204	0.386187	0.172871
	C169	C	0.115607	0.615177	0.174955
	C170	C	0.115187	0.386165	0.818914
	C171	C	0.874689	0.614686	0.819510
	C172	C	0.171988	0.880322	0.380624
	C173	C	0.171784	0.119714	0.611689
	C174	C	0.819034	0.119374	0.381585
	C175	C	0.819223	0.883225	0.611737
	C176	C	0.380968	0.176344	0.876491
	C177	C	0.611078	0.177029	0.116166
	C178	C	0.380148	0.825525	0.113698
	C179	C	0.610929	0.822757	0.874916
	C180	C	0.380249	0.882452	0.170783
	C181	C	0.610556	0.120966	0.173247
	C182	C	0.380881	0.118910	0.819874
	C183	C	0.611375	0.880534	0.818348
	C184	C	0.874857	0.178052	0.382470
	C185	C	0.115940	0.178909	0.611372
	C186	C	0.115938	0.821211	0.381888
	C187	C	0.876488	0.825175	0.611990
	C188	C	0.171982	0.385962	0.876860
	C189	C	0.172284	0.615615	0.117185
	C190	C	0.819843	0.385806	0.114532
	C191	C	0.816767	0.614669	0.876953
	C192	C	0.395727	0.095760	0.596644
	C193	C	0.595174	0.906555	0.593759
	C194	C	0.594627	0.096244	0.396335
	C195	C	0.396831	0.906951	0.394599
	C196	C	0.594451	0.401161	0.092014
	C197	C	0.593273	0.598545	0.901570
	C198	C	0.397061	0.602807	0.090706
	C199	C	0.396867	0.399876	0.902104
	C200	C	0.091303	0.598365	0.399237
	C201	C	0.900064	0.600841	0.595994
	C202	C	0.090914	0.402464	0.595030
	C203	C	0.899662	0.401659	0.396449
	C204	C	0.895945	0.595702	0.097493
	C205	C	0.095197	0.406236	0.095462
	C206	C	0.094542	0.595572	0.897547
	C207	C	0.895958	0.405677	0.895537
	C208	C	0.096409	0.901074	0.591423
	C209	C	0.093867	0.100464	0.401535
	C210	C	0.896694	0.101724	0.592146
	C211	C	0.897697	0.900434	0.402085
	C212	C	0.592316	0.099587	0.896767
	C213	C	0.399918	0.100373	0.094014
	C214	C	0.591035	0.902515	0.093456
	C215	C	0.400225	0.901482	0.895320
	Zn216	Zn	0.496250	0.000177	0.746034
	Zn217	Zn	0.495730	0.001744	0.244292
	Zn218	Zn	0.745000	0.499938	-0.003036
	Zn219	Zn	0.245566	0.501188	-0.003528
	Zn220	Zn	-0.004011	0.749767	0.497599
	Zn221	Zn	-0.005001	0.251843	0.496914
	Zn222	Zn	-0.004442	0.500932	0.745645
	Zn223	Zn	-0.003987	0.500681	0.246872
	Zn224	Zn	0.495472	0.751752	-0.004861
	Zn225	Zn	0.495951	0.249314	-0.003116
	Zn226	Zn	0.746230	0.001533	0.496010
	Zn227	Zn	0.245565	0.000925	0.495457
	N228	N	0.408638	0.964405	0.674825
	N229	N	0.582284	0.037084	0.674665
	N230	N	0.581906	0.964757	0.316193
	N231	N	0.408690	0.038412	0.315887
	N232	N	0.672833	0.414542	0.959725
	N233	N	0.672270	0.585168	0.033928
	N234	N	0.317715	0.585935	0.958787
	N235	N	0.318680	0.416441	0.034189
	N236	N	0.958834	0.677576	0.411831
	N237	N	0.032876	0.679534	0.584385
	N238	N	0.958043	0.324592	0.581316
	N239	N	0.032027	0.321943	0.410035
	N240	N	0.958268	0.416046	0.673239
	N241	N	0.033160	0.586683	0.674932
	N242	N	0.958774	0.585693	0.319767
	N243	N	0.032521	0.414270	0.317816
	N244	N	0.407859	0.680968	0.958592
	N245	N	0.582966	0.681244	0.032092
	N246	N	0.581923	0.320821	0.960199
	N247	N	0.409144	0.321081	0.033788
	N248	N	0.674174	0.964395	0.409535
	N249	N	0.673109	0.038611	0.580775
	N250	N	0.318542	0.963488	0.580097
	N251	N	0.317631	0.038654	0.410393
	N252	N	0.909046	0.464263	0.175648
	N253	N	0.082872	0.537310	0.176340
	N254	N	0.081810	0.464079	0.817599
	N255	N	0.908812	0.537170	0.817372
	N256	N	0.173476	0.915068	0.458322
	N257	N	0.172429	0.085388	0.533895
	N258	N	0.818419	0.086042	0.459234
	N259	N	0.817910	0.915846	0.533728
	N260	N	0.459522	0.178156	0.909878
	N261	N	0.532997	0.178088	0.081920
	N262	N	0.458512	0.824035	0.080269
	N263	N	0.532579	0.821587	0.907956
	N264	N	0.458461	0.915986	0.172350
	N265	N	0.532189	0.087586	0.173898
	N266	N	0.459060	0.085234	0.818701
	N267	N	0.533162	0.914778	0.817307
	N268	N	0.908549	0.180498	0.460515
	N269	N	0.082333	0.180951	0.533347
	N270	N	0.083394	0.819626	0.460213
	N271	N	0.910117	0.822262	0.534155
	N272	N	0.173287	0.463633	0.910861
	N273	N	0.173551	0.538051	0.082723
	N274	N	0.818552	0.463217	0.081197
	N275	N	0.815699	0.537063	0.909921
	O276	O	0.471472	0.523806	0.494985
	H277	H	0.457483	0.523201	0.502728
	H278	H	0.490775	0.533558	0.489975
	O279	O	0.523231	0.549998	0.569907
	H280	H	0.533445	0.552578	0.563627
	H281	H	0.534433	0.552100	0.573326
	O282	O	0.512308	0.460358	0.490401
	H283	H	0.507994	0.464631	0.503667
	H284	H	0.512161	0.462147	0.486770
	O285	O	0.037216	1.004534	0.976861
	H286	H	0.048804	1.011233	0.974248
	H287	H	0.041752	1.000445	0.975310
	O288	O	0.445647	0.535363	0.546280
	H289	H	0.433171	0.521287	0.541876
	H290	H	0.439389	0.545212	0.553340
	O291	O	0.031678	0.049019	1.015948
	H292	H	0.028563	0.046500	1.024588
	H293	H	0.035103	0.053949	1.013298
	O294	O	0.500101	0.536744	0.578990
	H295	H	0.512949	0.524511	0.586069
	H296	H	0.498688	0.542029	0.575435
	O297	O	0.455568	0.551547	0.508210
	H298	H	0.460542	0.553001	0.511246
	H299	H	0.464300	0.548344	0.507989
	O300	O	0.545285	0.550625	0.524228
	H301	H	0.549064	0.548386	0.525130
	H302	H	0.548087	0.541926	0.531891
	O303	O	0.553844	0.595665	0.540924
	H304	H	0.553747	0.601455	0.528242
	H305	H	0.541386	0.588183	0.538532
	O306	O	1.060553	-0.043563	0.996491
	H307	H	1.064327	-0.044246	1.003363
	H308	H	1.076686	-0.039952	0.986531
	O309	O	0.483358	0.544088	0.439914
	H310	H	0.481397	0.550686	0.444040
	H311	H	0.482689	0.541188	0.447041
	O312	O	0.438763	0.462923	0.544761
	H313	H	0.422967	0.468185	0.534546
	H314	H	0.439434	0.473107	0.551768
	O315	O	0.969108	-0.019608	1.072649
	H316	H	0.965455	-0.022789	1.072059
	H317	H	0.967706	-0.026793	1.061837
	O318	O	0.047726	-0.042867	0.010226
	H319	H	0.051504	-0.039844	0.011907
	H320	H	0.046844	-0.040439	0.009536
	O321	O	0.479754	0.516469	0.507916
	H322	H	0.478875	0.500003	0.522075
	H323	H	0.468263	0.521257	0.492177
	O324	O	1.093204	-0.060557	0.015809
	H325	H	1.091402	-0.059277	0.021467
	H326	H	1.092230	-0.058442	0.021290
	O327	O	1.081988	0.985714	0.007859
	H328	H	1.072988	0.979607	0.010050
	H329	H	1.089195	0.974415	0.011880
	O330	O	0.430916	0.506076	0.441513
	H331	H	0.430634	0.509006	0.444583
	H332	H	0.431300	0.503648	0.440237
	O333	O	0.557094	0.544750	0.550921
	H334	H	0.573018	0.530929	0.546172
	H335	H	0.560388	0.549767	0.563942
