data_Molecule from HDF5

_cell_length_a		16.287073
_cell_length_b		16.384693
_cell_length_c		16.232363
_cell_angle_alpha	90.055820
_cell_angle_beta	89.533670
_cell_angle_gamma	90.054690
_symmetry_space_group_name_H-M	'P 1'
_symmetry_Int_Tables_number		1

loop_
	_symmetry_equiv_pos_as_xyz
	x,y,z

loop_
	_atom_site_label
	_atom_site_type_symbol
	_atom_site_fract_x
	_atom_site_fract_y
	_atom_site_fract_z
	H0	H	0.391460	0.822427	0.709799
	H1	H	0.597850	0.143075	0.708521
	H2	H	0.597736	0.820755	0.272762
	H3	H	0.397175	0.143617	0.273154
	H4	H	0.716763	0.381406	0.829654
	H5	H	0.711502	0.584007	0.154906
	H6	H	0.279998	0.586784	0.827844
	H7	H	0.276088	0.379150	0.151281
	H8	H	0.835500	0.702559	0.388174
	H9	H	0.155516	0.707009	0.598930
	H10	H	0.834013	0.264109	0.595003
	H11	H	0.156150	0.262383	0.383820
	H12	H	0.833789	0.381452	0.709382
	H13	H	0.157567	0.586398	0.708379
	H14	H	0.834639	0.584563	0.275228
	H15	H	0.158005	0.381033	0.272038
	H16	H	0.395168	0.700249	0.828582
	H17	H	0.600027	0.702482	0.152024
	H18	H	0.603969	0.263194	0.829285
	H19	H	0.392345	0.263605	0.151575
	H20	H	0.717680	0.822827	0.384856
	H21	H	0.713868	0.144344	0.591903
	H22	H	0.273672	0.823772	0.596099
	H23	H	0.280418	0.144032	0.388618
	H24	H	0.896065	0.321165	0.208453
	H25	H	0.097832	0.644696	0.207800
	H26	H	0.096310	0.321655	0.772843
	H27	H	0.893346	0.643551	0.773312
	H28	H	0.214516	0.881315	0.328220
	H29	H	0.211856	0.085454	0.652405
	H30	H	0.783317	0.083103	0.326288
	H31	H	0.777010	0.882954	0.651498
	H32	H	0.336910	0.201671	0.888052
	H33	H	0.657801	0.201476	0.094284
	H34	H	0.335096	0.763363	0.093213
	H35	H	0.659152	0.764739	0.886375
	H36	H	0.334983	0.879516	0.208329
	H37	H	0.659788	0.081228	0.204224
	H38	H	0.334923	0.083742	0.775362
	H39	H	0.658165	0.880630	0.769515
	H40	H	0.893618	0.200660	0.328380
	H41	H	0.096736	0.201543	0.651289
	H42	H	0.102718	0.762066	0.330108
	H43	H	0.891125	0.766554	0.653248
	H44	H	0.214379	0.321749	0.886765
	H45	H	0.216334	0.643979	0.092569
	H46	H	0.778068	0.321472	0.095629
	H47	H	0.780756	0.644423	0.893320
	H48	H	0.403999	0.098079	0.580740
	H49	H	0.581981	0.870500	0.575202
	H50	H	0.593022	0.096621	0.402215
	H51	H	0.400495	0.866245	0.401674
	H52	H	0.588591	0.376528	0.112352
	H53	H	0.586408	0.576451	0.875470
	H54	H	0.408513	0.577617	0.105574
	H55	H	0.411630	0.391086	0.875467
	H56	H	0.111253	0.572068	0.400230
	H57	H	0.882429	0.571751	0.579591
	H58	H	0.109181	0.394653	0.578675
	H59	H	0.881097	0.397802	0.395964
	H60	H	0.111667	0.391141	0.582777
	H61	H	0.881186	0.572841	0.583869
	H62	H	0.112151	0.575757	0.400351
	H63	H	0.876828	0.383717	0.398732
	H64	H	0.401730	0.569370	0.106057
	H65	H	0.594410	0.573460	0.873697
	H66	H	0.597379	0.400844	0.107419
	H67	H	0.407473	0.387406	0.873614
	H68	H	0.593857	0.100668	0.391046
	H69	H	0.590078	0.868345	0.575643
	H70	H	0.404281	0.097364	0.583539
	H71	H	0.407027	0.866646	0.395005
	H72	H	0.907896	0.598810	0.089988
	H73	H	0.089315	0.367359	0.086524
	H74	H	0.090627	0.597805	0.900319
	H75	H	0.907480	0.366688	0.894505
	H76	H	0.086329	0.896800	0.605501
	H77	H	0.080655	0.069855	0.376668
	H78	H	0.899819	0.077094	0.608367
	H79	H	0.903034	0.891891	0.372893
	H80	H	0.612292	0.068399	0.894432
	H81	H	0.379782	0.075139	0.083459
	H82	H	0.615561	0.883646	0.083546
	H83	H	0.382206	0.899734	0.895196
	H84	H	0.610516	0.889427	0.070026
	H85	H	0.382992	0.073993	0.077281
	H86	H	0.613785	0.077298	0.898700
	H87	H	0.377173	0.880100	0.896566
	H88	H	0.903732	0.068262	0.605000
	H89	H	0.088567	0.081822	0.370861
	H90	H	0.081006	0.894652	0.605100
	H91	H	0.910554	0.895381	0.376889
	H92	H	0.088374	0.598475	0.897590
	H93	H	0.081414	0.370820	0.080158
	H94	H	0.907669	0.596070	0.078064
	H95	H	0.911772	0.371518	0.903817
	H96	H	0.405855	0.097028	0.582413
	H97	H	0.585284	0.868729	0.582429
	H98	H	0.583537	0.097097	0.394817
	H99	H	0.408814	0.870002	0.403829
	H100	H	0.572771	0.394116	0.100874
	H101	H	0.588351	0.567883	0.877328
	H102	H	0.411630	0.568621	0.102383
	H103	H	0.406308	0.393312	0.874441
	H104	H	0.109987	0.572710	0.403633
	H105	H	0.881494	0.575999	0.580560
	H106	H	0.110448	0.388514	0.577364
	H107	H	0.883140	0.391159	0.409537
	H108	H	0.897000	0.599862	0.083447
	H109	H	0.090912	0.369210	0.075309
	H110	H	0.087229	0.596638	0.900943
	H111	H	0.900839	0.367610	0.904072
	H112	H	0.085261	0.891512	0.607214
	H113	H	0.095445	0.067895	0.373655
	H114	H	0.909488	0.076669	0.604552
	H115	H	0.910754	0.886595	0.373689
	H116	H	0.609980	0.070271	0.903528
	H117	H	0.382128	0.069219	0.082095
	H118	H	0.610352	0.898495	0.083017
	H119	H	0.385826	0.890040	0.912614
	C120	C	0.373098	-0.008101	0.613142
	C121	C	0.616868	0.975133	0.609535
	C122	C	0.620105	-0.008576	0.365929
	C123	C	0.375654	0.974042	0.369204
	C124	C	0.618812	0.360359	0.000035
	C125	C	0.619002	0.603566	0.982927
	C126	C	0.376791	0.603037	-0.001976
	C127	C	0.375495	0.360094	0.981029
	C128	C	0.004631	0.604434	0.370683
	C129	C	0.987622	0.605368	0.612877
	C130	C	0.004106	0.360649	0.611943
	C131	C	0.987163	0.360616	0.369279
	C132	C	0.874121	0.491135	0.114095
	C133	C	0.118323	0.475060	0.111489
	C134	C	0.119009	0.491461	0.868013
	C135	C	0.875731	0.474941	0.870615
	C136	C	0.116907	0.862259	0.499197
	C137	C	0.117272	0.104123	0.481039
	C138	C	0.875199	0.103951	0.498528
	C139	C	0.875453	0.861555	0.481506
	C140	C	0.505846	0.103295	0.868865
	C141	C	0.488615	0.102704	0.111050
	C142	C	0.505293	0.860007	0.110471
	C143	C	0.488041	0.859696	0.868382
	C144	C	0.371921	0.870821	0.671341
	C145	C	0.617058	0.095253	0.668824
	C146	C	0.618398	0.869518	0.310126
	C147	C	0.376903	0.095319	0.311325
	C148	C	0.677978	0.361151	0.878190
	C149	C	0.674233	0.603598	0.105688
	C150	C	0.319065	0.604498	0.876405
	C151	C	0.315425	0.360099	0.102689
	C152	C	0.883638	0.662891	0.369989
	C153	C	0.107909	0.665981	0.615820
	C154	C	0.882809	0.302578	0.614105
	C155	C	0.108193	0.302254	0.366376
	C156	C	0.882504	0.361237	0.670811
	C157	C	0.108962	0.606224	0.670789
	C158	C	0.883123	0.604042	0.313631
	C159	C	0.109030	0.361288	0.310528
	C160	C	0.376351	0.661393	0.876794
	C161	C	0.618532	0.662588	0.104268
	C162	C	0.621293	0.302592	0.877877
	C163	C	0.373308	0.302456	0.102965
	C164	C	0.678030	0.870568	0.365837
	C165	C	0.675054	0.095821	0.610877
	C166	C	0.313510	0.871464	0.614568
	C167	C	0.318917	0.095803	0.369085
	C168	C	0.875648	0.369589	0.170647
	C169	C	0.117967	0.596132	0.169362
	C170	C	0.117181	0.370140	0.810866
	C171	C	0.875206	0.595801	0.813157
	C172	C	0.175996	0.861576	0.377337
	C173	C	0.173511	0.104418	0.603599
	C174	C	0.819899	0.103370	0.375718
	C175	C	0.815929	0.862776	0.603320
	C176	C	0.384648	0.161719	0.869217
	C177	C	0.609795	0.161446	0.112096
	C178	C	0.383575	0.802206	0.111889
	C179	C	0.610173	0.802785	0.866658
	C180	C	0.383575	0.860329	0.169047
	C181	C	0.610806	0.101416	0.166977
	C182	C	0.383607	0.102883	0.813369
	C183	C	0.609632	0.860580	0.808731
	C184	C	0.875451	0.161423	0.376488
	C185	C	0.116359	0.162429	0.602946
	C186	C	0.119908	0.802489	0.378294
	C187	C	0.872790	0.804868	0.604048
	C188	C	0.175930	0.370163	0.867438
	C189	C	0.176397	0.596040	0.111376
	C190	C	0.817079	0.369805	0.114221
	C191	C	0.819006	0.596223	0.872735
	C192	C	0.397495	0.075674	0.589126
	C193	C	0.592727	0.891043	0.584874
	C194	C	0.597077	0.076073	0.389107
	C195	C	0.398570	0.889706	0.393438
	C196	C	0.593690	0.383836	0.084929
	C197	C	0.596278	0.579600	0.897437
	C198	C	0.400332	0.579028	0.082855
	C199	C	0.401026	0.383710	0.896437
	C200	C	0.089376	0.580459	0.394572
	C201	C	0.903710	0.580464	0.588290
	C202	C	0.088385	0.384435	0.586957
	C203	C	0.902344	0.384093	0.394203
	C204	C	0.897397	0.576138	0.090770
	C205	C	0.094319	0.390824	0.087564
	C206	C	0.095542	0.575764	0.892404
	C207	C	0.899896	0.390375	0.894018
	C208	C	0.091483	0.887112	0.583830
	C209	C	0.094635	0.080163	0.395732
	C210	C	0.897750	0.080747	0.583746
	C211	C	0.900879	0.884314	0.396485
	C212	C	0.590238	0.079104	0.892146
	C213	C	0.403538	0.079638	0.087717
	C214	C	0.590184	0.883611	0.085807
	C215	C	0.403692	0.883111	0.894085
	Zn216	Zn	0.496178	-0.017333	0.740390
	Zn217	Zn	0.496770	-0.018274	0.239264
	Zn218	Zn	0.746751	0.482497	-0.007514
	Zn219	Zn	0.247819	0.482981	-0.010939
	Zn220	Zn	-0.003952	0.733271	0.491769
	Zn221	Zn	-0.004904	0.231777	0.489690
	Zn222	Zn	-0.003798	0.483400	0.740245
	Zn223	Zn	-0.003974	0.482956	0.241854
	Zn224	Zn	0.497620	0.730864	-0.009876
	Zn225	Zn	0.497512	0.231853	-0.009532
	Zn226	Zn	0.747497	-0.016430	0.488773
	Zn227	Zn	0.246203	-0.016392	0.490469
	N228	N	0.408138	0.946616	0.670887
	N229	N	0.581549	0.019143	0.667905
	N230	N	0.583322	0.945722	0.310005
	N231	N	0.411546	0.018852	0.311473
	N232	N	0.676641	0.396113	0.955206
	N233	N	0.674361	0.567521	0.029153
	N234	N	0.319247	0.568519	0.952814
	N235	N	0.316639	0.395065	0.025747
	N236	N	0.960380	0.663182	0.404627
	N237	N	0.031498	0.665559	0.580551
	N238	N	0.959371	0.302010	0.578101
	N239	N	0.031451	0.301825	0.402244
	N240	N	0.959000	0.396876	0.669740
	N241	N	0.033344	0.569057	0.669048
	N242	N	0.959497	0.568448	0.313899
	N243	N	0.032643	0.396881	0.312216
	N244	N	0.411530	0.660629	0.953368
	N245	N	0.584888	0.662569	0.026791
	N246	N	0.585421	0.301772	0.954844
	N247	N	0.410040	0.302364	0.026513
	N248	N	0.679505	0.947458	0.399669
	N249	N	0.674947	0.019975	0.574597
	N250	N	0.313717	0.947671	0.579429
	N251	N	0.317684	0.019258	0.404082
	N252	N	0.910379	0.446108	0.170755
	N253	N	0.082746	0.519873	0.169753
	N254	N	0.082789	0.446716	0.810800
	N255	N	0.909875	0.519276	0.811854
	N256	N	0.174300	0.897937	0.453615
	N257	N	0.174240	0.068984	0.526711
	N258	N	0.819515	0.068324	0.452584
	N259	N	0.817400	0.897373	0.526221
	N260	N	0.461650	0.162299	0.902915
	N261	N	0.532684	0.162429	0.078047
	N262	N	0.460493	0.801787	0.076224
	N263	N	0.533667	0.801957	0.902673
	N264	N	0.460231	0.895349	0.168278
	N265	N	0.534534	0.065637	0.166432
	N266	N	0.459883	0.067030	0.813012
	N267	N	0.532495	0.894890	0.809420
	N268	N	0.908836	0.162177	0.454020
	N269	N	0.082496	0.162520	0.525694
	N270	N	0.084144	0.802669	0.455207
	N271	N	0.909020	0.804117	0.527245
	N272	N	0.177367	0.446797	0.901862
	N273	N	0.177183	0.519561	0.076637
	N274	N	0.816015	0.446612	0.080081
	N275	N	0.819462	0.519902	0.907655
	O276	O	0.466199	0.551733	0.559198
	H277	H	0.460736	0.563681	0.555306
	H278	H	0.458609	0.549172	0.559333
	O279	O	0.330173	0.497471	0.292575
	H280	H	0.327041	0.526176	0.281848
	H281	H	0.333906	0.512770	0.284307
	O282	O	1.163615	-0.072553	0.817127
	H283	H	1.179344	-0.072054	0.807376
	H284	H	1.155705	-0.086343	0.823298
	O285	O	0.459530	0.590350	0.450799
	H286	H	0.473375	0.575337	0.462125
	H287	H	0.461620	0.578618	0.438762
	O288	O	0.988867	0.956043	0.977966
	H289	H	0.996983	0.958292	0.976371
	H290	H	0.987850	0.964348	0.970434
	O291	O	-0.115605	1.058554	-0.039464
	H292	H	-0.106297	1.067883	-0.043526
	H293	H	-0.123913	1.069364	-0.042445
	O294	O	0.559723	0.408490	0.656213
	H295	H	0.549605	0.413093	0.671162
	H296	H	0.556730	0.434505	0.662669
	O297	O	0.675698	0.633479	0.524880
	H298	H	0.678983	0.632240	0.529271
	H299	H	0.670025	0.628604	0.539354
	O300	O	0.354908	0.440229	0.578366
	H301	H	0.346771	0.432103	0.566289
	H302	H	0.349021	0.448853	0.571859
	O303	O	0.453842	0.617656	0.450959
	H304	H	0.465832	0.621752	0.444772
	H305	H	0.460524	0.612421	0.452676
	O306	O	0.400508	0.400045	0.654030
	H307	H	0.382537	0.392707	0.673841
	H308	H	0.389305	0.398890	0.650082
	O309	O	0.333708	0.534661	0.490759
	H310	H	0.320022	0.552619	0.481372
	H311	H	0.335442	0.528770	0.487646
	O312	O	0.019024	0.056286	0.032254
	H313	H	0.018531	0.073360	0.049891
	H314	H	0.030021	0.053268	0.031197
	O315	O	0.378530	0.396502	0.346992
	H316	H	0.361662	0.410557	0.341347
	H317	H	0.388855	0.387449	0.317268
	O318	O	0.070116	1.052261	1.078185
	H319	H	0.068077	1.044439	1.081339
	H320	H	0.061771	1.053258	1.090186
	O321	O	0.639739	0.576397	0.545620
	H322	H	0.634842	0.579966	0.554527
	H323	H	0.634749	0.589367	0.532707
	O324	O	0.106523	1.036886	-0.083267
	H325	H	0.120377	1.028709	-0.088964
	H326	H	0.096064	1.039985	-0.090108
	O327	O	0.454318	0.487320	0.326598
	H328	H	0.458976	0.463847	0.338912
	H329	H	0.449366	0.501646	0.317029
	O330	O	-0.006865	0.113693	0.942411
	H331	H	-0.009513	0.130249	0.948466
	H332	H	0.001381	0.119437	0.948137
	O333	O	0.075242	0.129240	1.103237
	H334	H	0.085178	0.130816	1.096998
	H335	H	0.077910	0.137229	1.096410
	O336	O	0.527164	0.523700	0.462251
	H337	H	0.528751	0.536463	0.457941
	H338	H	0.517423	0.507658	0.468335
	O339	O	0.334101	0.659361	0.355957
	H340	H	0.355911	0.673120	0.360497
	H341	H	0.339822	0.668742	0.366340
	O342	O	0.466578	-0.334773	0.506638
	H343	H	0.473488	-0.332545	0.498702
	H344	H	0.452108	-0.340670	0.508964
	O345	O	1.659089	0.391799	1.398392
	H346	H	1.651384	0.373792	1.415876
	H347	H	1.665815	0.380259	1.385844
	O348	O	0.908683	1.012561	0.003357
	H349	H	0.907791	1.012075	0.006588
	H350	H	0.908030	1.007405	0.013228
	O351	O	0.675224	0.355824	0.555695
	H352	H	0.667161	0.371508	0.562957
	H353	H	0.683685	0.348745	0.561384
	O354	O	0.842486	-0.005682	1.061468
	H355	H	0.840347	-0.000894	1.064415
	H356	H	0.843256	-0.003969	1.072215
	O357	O	0.412031	0.331294	0.414306
	H358	H	0.415437	0.338404	0.408542
	H359	H	0.418913	0.336924	0.421889
	O360	O	0.816515	0.913223	1.147055
	H361	H	0.822927	0.920291	1.145190
	H362	H	0.808295	0.933656	1.153880
	O363	O	-0.123852	0.931008	0.905505
	H364	H	-0.121504	0.933685	0.898681
	H365	H	-0.130376	0.920507	0.901295
	O366	O	0.678827	0.534950	0.481066
	H367	H	0.694673	0.534606	0.488133
	H368	H	0.688714	0.523629	0.481522
	O369	O	-0.010001	0.924558	0.020000
	H370	H	-0.008461	0.909442	0.007620
	H371	H	-0.002950	0.926510	0.019977
	O372	O	0.668645	0.340818	0.312999
	H373	H	0.678954	0.325445	0.348694
	H374	H	0.636048	0.331741	0.307472
	O375	O	0.583017	0.434855	0.560692
	H376	H	0.582539	0.451029	0.564804
	H377	H	0.586223	0.436267	0.563125
	O378	O	0.980895	0.961841	0.168015
	H379	H	0.981104	0.962262	0.175192
	H380	H	0.963514	0.967584	0.177330
	O381	O	0.926628	-0.055518	-0.039377
	H382	H	0.931185	-0.055900	-0.041206
	H383	H	0.930069	-0.047831	-0.043581
	O384	O	0.844642	1.019632	-0.051098
	H385	H	0.845056	1.012319	-0.060711
	H386	H	0.837667	1.031702	-0.051959
	O387	O	-0.695513	0.360792	0.664344
	H388	H	-0.705651	0.366795	0.660376
	H389	H	-0.681492	0.339557	0.666971
	O390	O	0.074798	0.940511	0.044800
	H391	H	0.081966	0.937193	0.048548
	H392	H	0.068921	0.952092	0.047804
	O393	O	1.055638	0.798578	0.858517
	H394	H	1.070944	0.797855	0.856021
	H395	H	1.049186	0.797898	0.866942
	O396	O	0.678936	0.540677	0.504015
	H397	H	0.683168	0.535232	0.526610
	H398	H	0.687991	0.555022	0.497767
	O399	O	0.006164	0.855890	1.085001
	H400	H	0.002095	0.841486	1.082400
	H401	H	0.012725	0.862416	1.081582
	O402	O	0.504719	0.358379	0.449154
	H403	H	0.521218	0.383517	0.456770
	H404	H	0.488068	0.355026	0.466183
	O405	O	1.158995	0.844770	-0.135665
	H406	H	1.164674	0.842470	-0.123319
	H407	H	1.145581	0.844425	-0.132212
	O408	O	0.964486	1.066586	-0.098929
	H409	H	0.953675	1.075961	-0.097922
	H410	H	0.962648	1.077170	-0.094837
	O411	O	1.140208	0.074634	0.942359
	H412	H	1.138629	0.062573	0.952950
	H413	H	1.143260	0.074377	0.941828
	O414	O	0.471545	0.660064	0.654649
	H415	H	0.475544	0.663946	0.667741
	H416	H	0.467111	0.677620	0.641809
	O417	O	0.318300	0.273498	0.638637
	H418	H	0.317287	0.269921	0.621091
	H419	H	0.320558	0.258267	0.645785
