data_Molecule from HDF5

_cell_length_a		16.321121
_cell_length_b		16.217806
_cell_length_c		16.319331
_cell_angle_alpha	89.729891
_cell_angle_beta	89.377503
_cell_angle_gamma	90.132232
_symmetry_space_group_name_H-M	'P 1'
_symmetry_Int_Tables_number		1

loop_
	_symmetry_equiv_pos_as_xyz
	x,y,z

loop_
	_atom_site_label
	_atom_site_type_symbol
	_atom_site_fract_x
	_atom_site_fract_y
	_atom_site_fract_z
	H0	H	0.392906	0.822172	0.702984
	H1	H	0.595746	0.147809	0.693558
	H2	H	0.602571	0.820863	0.262657
	H3	H	0.394511	0.144671	0.262167
	H4	H	0.721029	0.384146	0.818956
	H5	H	0.721008	0.591196	0.140224
	H6	H	0.287607	0.588439	0.817692
	H7	H	0.278201	0.379722	0.139643
	H8	H	0.839449	0.702282	0.374100
	H9	H	0.161252	0.699143	0.574972
	H10	H	0.838207	0.265256	0.583087
	H11	H	0.161866	0.263764	0.375009
	H12	H	0.842401	0.375004	0.704048
	H13	H	0.161826	0.586904	0.691172
	H14	H	0.840364	0.585714	0.259584
	H15	H	0.162999	0.379500	0.258578
	H16	H	0.400417	0.705090	0.819757
	H17	H	0.601998	0.702629	0.141785
	H18	H	0.604394	0.268813	0.818529
	H19	H	0.397703	0.266925	0.142526
	H20	H	0.718354	0.821303	0.377536
	H21	H	0.718840	0.144462	0.585133
	H22	H	0.280315	0.820221	0.585261
	H23	H	0.284126	0.146945	0.382589
	H24	H	0.896436	0.321659	0.197638
	H25	H	0.103866	0.645912	0.192869
	H26	H	0.104741	0.321844	0.759585
	H27	H	0.901169	0.645952	0.759600
	H28	H	0.220887	0.881029	0.320291
	H29	H	0.213713	0.084884	0.642846
	H30	H	0.781554	0.086028	0.319242
	H31	H	0.777596	0.875756	0.641607
	H32	H	0.339773	0.202243	0.882338
	H33	H	0.662442	0.200540	0.080410
	H34	H	0.339386	0.763753	0.086683
	H35	H	0.663604	0.771397	0.880495
	H36	H	0.338320	0.879037	0.202264
	H37	H	0.661134	0.086552	0.198384
	H38	H	0.337565	0.086771	0.768024
	H39	H	0.659775	0.883958	0.761050
	H40	H	0.897527	0.200521	0.318533
	H41	H	0.098020	0.200145	0.640781
	H42	H	0.098870	0.771431	0.315815
	H43	H	0.894976	0.760931	0.640374
	H44	H	0.222504	0.323188	0.873747
	H45	H	0.217147	0.646782	0.076277
	H46	H	0.778183	0.323633	0.086179
	H47	H	0.786632	0.648140	0.878036
	H48	H	0.405226	0.102262	0.582227
	H49	H	0.583979	0.869503	0.569266
	H50	H	0.587498	0.096908	0.392240
	H51	H	0.407041	0.867724	0.394563
	H52	H	0.593615	0.390277	0.097411
	H53	H	0.596005	0.577853	0.863917
	H54	H	0.408846	0.570932	0.094812
	H55	H	0.407451	0.400912	0.865585
	H56	H	0.119730	0.576106	0.373971
	H57	H	0.884118	0.570140	0.571937
	H58	H	0.115747	0.394246	0.569020
	H59	H	0.889008	0.396129	0.393693
	H60	H	0.116848	0.387811	0.567892
	H61	H	0.883652	0.572909	0.567944
	H62	H	0.116660	0.585009	0.390888
	H63	H	0.885845	0.397193	0.382510
	H64	H	0.409890	0.572331	0.093406
	H65	H	0.594600	0.575109	0.865735
	H66	H	0.591473	0.399132	0.094176
	H67	H	0.421409	0.393008	0.867518
	H68	H	0.590933	0.098505	0.392375
	H69	H	0.590671	0.867132	0.571005
	H70	H	0.411304	0.097272	0.571220
	H71	H	0.409456	0.867049	0.390046
	H72	H	0.912214	0.596885	0.060671
	H73	H	0.091070	0.368931	0.064537
	H74	H	0.091926	0.599989	0.883054
	H75	H	0.915199	0.369015	0.886852
	H76	H	0.097041	0.894098	0.597314
	H77	H	0.101435	0.065971	0.363678
	H78	H	0.901014	0.068836	0.596395
	H79	H	0.902331	0.890061	0.362694
	H80	H	0.616396	0.076380	0.885236
	H81	H	0.385901	0.071930	0.072124
	H82	H	0.614839	0.890786	0.069659
	H83	H	0.384123	0.892482	0.895608
	H84	H	0.613824	0.898063	0.070902
	H85	H	0.384363	0.074162	0.073990
	H86	H	0.615952	0.075956	0.887180
	H87	H	0.384810	0.895709	0.893263
	H88	H	0.912624	0.067575	0.591362
	H89	H	0.082639	0.066606	0.369305
	H90	H	0.080786	0.893799	0.591963
	H91	H	0.906663	0.900474	0.367610
	H92	H	0.096346	0.600664	0.886302
	H93	H	0.091394	0.367787	0.068216
	H94	H	0.904794	0.602410	0.072384
	H95	H	0.915349	0.372127	0.896243
	H96	H	0.397810	0.101732	0.570614
	H97	H	0.585487	0.866863	0.575669
	H98	H	0.589707	0.098285	0.388694
	H99	H	0.411443	0.869267	0.394661
	H100	H	0.584912	0.392675	0.093913
	H101	H	0.593586	0.577693	0.865198
	H102	H	0.408775	0.573065	0.095239
	H103	H	0.408487	0.385726	0.861859
	H104	H	0.112447	0.566090	0.388283
	H105	H	0.886137	0.568276	0.567998
	H106	H	0.113496	0.391100	0.563681
	H107	H	0.884229	0.387070	0.388111
	H108	H	0.918992	0.598457	0.073663
	H109	H	0.087913	0.368266	0.066939
	H110	H	0.096706	0.602338	0.880979
	H111	H	0.907592	0.368206	0.892780
	H112	H	0.087937	0.879485	0.598657
	H113	H	0.091437	0.082506	0.361844
	H114	H	0.909240	0.078319	0.596850
	H115	H	0.914075	0.890651	0.366005
	H116	H	0.617423	0.074499	0.885762
	H117	H	0.385468	0.075455	0.071925
	H118	H	0.616396	0.893376	0.076164
	H119	H	0.383842	0.892090	0.892071
	C120	C	0.374408	-0.007420	0.605663
	C121	C	0.617917	0.975161	0.601587
	C122	C	0.620405	-0.008904	0.360127
	C123	C	0.378474	0.974887	0.361707
	C124	C	0.622622	0.363433	-0.011196
	C125	C	0.623754	0.607086	0.971699
	C126	C	0.380589	0.604661	-0.011862
	C127	C	0.379334	0.361905	0.971315
	C128	C	0.009492	0.605731	0.354491
	C129	C	0.991453	0.602562	0.597965
	C130	C	0.009219	0.359937	0.600368
	C131	C	0.992680	0.361400	0.355982
	C132	C	0.879160	0.492949	0.101276
	C133	C	0.121462	0.475138	0.096994
	C134	C	0.125337	0.493582	0.854010
	C135	C	0.881918	0.476308	0.859388
	C136	C	0.119982	0.861002	0.488708
	C137	C	0.120249	0.102980	0.471725
	C138	C	0.877375	0.103473	0.488430
	C139	C	0.876228	0.860479	0.471527
	C140	C	0.509140	0.106084	0.858892
	C141	C	0.491592	0.104887	0.102507
	C142	C	0.508388	0.862018	0.103982
	C143	C	0.491153	0.863502	0.861263
	C144	C	0.374111	0.870661	0.664003
	C145	C	0.616491	0.098490	0.656470
	C146	C	0.621164	0.869328	0.301918
	C147	C	0.377147	0.096771	0.302459
	C148	C	0.682067	0.364076	0.867454
	C149	C	0.681565	0.608592	0.092622
	C150	C	0.325277	0.606814	0.866409
	C151	C	0.318749	0.361186	0.091949
	C152	C	0.887941	0.663136	0.355162
	C153	C	0.112834	0.660889	0.595355
	C154	C	0.887449	0.302870	0.602444
	C155	C	0.113735	0.302956	0.355797
	C156	C	0.889686	0.357757	0.662535
	C157	C	0.113277	0.604440	0.653000
	C158	C	0.888433	0.605410	0.297788
	C159	C	0.114327	0.360783	0.297762
	C160	C	0.381676	0.665017	0.867533
	C161	C	0.622425	0.664331	0.093246
	C162	C	0.623724	0.306901	0.867070
	C163	C	0.378093	0.304677	0.093183
	C164	C	0.678616	0.869300	0.359263
	C165	C	0.677452	0.096754	0.602195
	C166	C	0.318081	0.869693	0.605325
	C167	C	0.321885	0.097873	0.362205
	C168	C	0.877643	0.370814	0.159587
	C169	C	0.122136	0.597416	0.154186
	C170	C	0.124623	0.370731	0.797862
	C171	C	0.881992	0.597857	0.799614
	C172	C	0.180141	0.862133	0.367602
	C173	C	0.175421	0.103769	0.593904
	C174	C	0.820285	0.104524	0.367565
	C175	C	0.817372	0.857641	0.592884
	C176	C	0.387776	0.163759	0.861823
	C177	C	0.613771	0.162205	0.100897
	C178	C	0.387474	0.802770	0.105444
	C179	C	0.614206	0.808602	0.860843
	C180	C	0.386967	0.860355	0.163006
	C181	C	0.612959	0.105580	0.159617
	C182	C	0.386464	0.106119	0.805319
	C183	C	0.612123	0.864416	0.801277
	C184	C	0.878197	0.161609	0.367073
	C185	C	0.118109	0.161347	0.592917
	C186	C	0.119499	0.807599	0.365385
	C187	C	0.875574	0.800458	0.592337
	C188	C	0.183073	0.371629	0.854733
	C189	C	0.178721	0.597949	0.096256
	C190	C	0.818437	0.371849	0.104263
	C191	C	0.824920	0.599006	0.858532
	C192	C	0.397756	0.078123	0.581670
	C193	C	0.593798	0.890001	0.578684
	C194	C	0.596429	0.075853	0.384168
	C195	C	0.402251	0.890050	0.385939
	C196	C	0.597509	0.387093	0.073381
	C197	C	0.601258	0.583559	0.887044
	C198	C	0.402639	0.579284	0.072593
	C199	C	0.404944	0.386222	0.886791
	C200	C	0.094422	0.582482	0.377596
	C201	C	0.906611	0.577575	0.575757
	C202	C	0.093566	0.384122	0.574362
	C203	C	0.908337	0.386123	0.380918
	C204	C	0.904378	0.577230	0.076058
	C205	C	0.097332	0.390266	0.073197
	C206	C	0.101800	0.578786	0.876733
	C207	C	0.905815	0.391786	0.884641
	C208	C	0.095636	0.882831	0.573878
	C209	C	0.098157	0.078779	0.387021
	C210	C	0.900881	0.078842	0.573047
	C211	C	0.900562	0.886147	0.387198
	C212	C	0.594409	0.082581	0.879960
	C213	C	0.407136	0.081104	0.079403
	C214	C	0.593075	0.886822	0.079394
	C215	C	0.406169	0.886583	0.886423
	Zn216	Zn	0.497622	-0.015414	0.731444
	Zn217	Zn	0.499446	-0.015999	0.232047
	Zn218	Zn	0.751605	0.485660	-0.019816
	Zn219	Zn	0.251322	0.484751	-0.022049
	Zn220	Zn	-0.001046	0.732174	0.478302
	Zn221	Zn	-0.000896	0.232107	0.478743
	Zn222	Zn	0.001956	0.483125	0.727526
	Zn223	Zn	0.002090	0.483248	0.227158
	Zn224	Zn	0.500893	0.734039	-0.018448
	Zn225	Zn	0.501535	0.233408	-0.019799
	Zn226	Zn	0.748423	-0.017437	0.481531
	Zn227	Zn	0.249184	-0.017500	0.481840
	N228	N	0.408150	0.948257	0.664614
	N229	N	0.580038	0.021869	0.656197
	N230	N	0.585545	0.946154	0.302315
	N231	N	0.411501	0.019374	0.302026
	N232	N	0.681453	0.398525	0.944259
	N233	N	0.682514	0.573564	0.016013
	N234	N	0.324469	0.569792	0.942384
	N235	N	0.319165	0.395755	0.014905
	N236	N	0.964380	0.663586	0.389613
	N237	N	0.035933	0.659798	0.561885
	N238	N	0.962883	0.304227	0.564416
	N239	N	0.036899	0.303171	0.391403
	N240	N	0.966711	0.392382	0.661379
	N241	N	0.036751	0.568784	0.654667
	N242	N	0.965085	0.570536	0.297299
	N243	N	0.037922	0.396077	0.297663
	N244	N	0.415123	0.663842	0.944212
	N245	N	0.587309	0.663608	0.017202
	N246	N	0.587780	0.306059	0.943725
	N247	N	0.415142	0.305193	0.017131
	N248	N	0.678347	0.945880	0.394816
	N249	N	0.678478	0.019046	0.568720
	N250	N	0.317849	0.946644	0.570092
	N251	N	0.322534	0.021077	0.398476
	N252	N	0.914620	0.447137	0.157981
	N253	N	0.087221	0.520226	0.154648
	N254	N	0.089528	0.447503	0.797414
	N255	N	0.916768	0.520640	0.799914
	N256	N	0.180613	0.894625	0.445299
	N257	N	0.177004	0.068250	0.517608
	N258	N	0.819683	0.069074	0.444297
	N259	N	0.817545	0.894160	0.516746
	N260	N	0.465010	0.163782	0.894336
	N261	N	0.537409	0.162094	0.066103
	N262	N	0.464152	0.803756	0.069422
	N263	N	0.537807	0.807796	0.897214
	N264	N	0.463251	0.896324	0.162272
	N265	N	0.535966	0.070936	0.160896
	N266	N	0.462913	0.070892	0.803297
	N267	N	0.534586	0.897618	0.801350
	N268	N	0.912611	0.161395	0.443471
	N269	N	0.084499	0.161046	0.515959
	N270	N	0.082676	0.806802	0.441555
	N271	N	0.911390	0.802014	0.515746
	N272	N	0.183950	0.449070	0.888688
	N273	N	0.178470	0.520943	0.061325
	N274	N	0.818910	0.448857	0.068976
	N275	N	0.824850	0.522403	0.895008
	O276	O	0.409586	0.631006	0.475937
	H277	H	0.423723	0.623846	0.487259
	H278	H	0.398460	0.629349	0.478966
	O279	O	0.598932	0.285086	0.315651
	H280	H	0.598935	0.292966	0.301326
	H281	H	0.590985	0.288566	0.314809
	O282	O	0.869942	0.104989	0.886708
	H283	H	0.867611	0.106072	0.884242
	H284	H	0.868073	0.107111	0.895986
	O285	O	0.425894	0.593637	0.323961
	H286	H	0.406635	0.590718	0.331551
	H287	H	0.417445	0.608067	0.309301
	O288	O	0.920154	0.885379	0.820800
	H289	H	0.907890	0.900062	0.819240
	H290	H	0.926270	0.893264	0.827704
	O291	O	0.149306	1.020423	0.050615
	H292	H	0.149479	1.010453	0.040402
	H293	H	0.149248	1.010332	0.058968
	O294	O	0.649428	0.300231	0.385218
	H295	H	0.647782	0.306104	0.374944
	H296	H	0.671361	0.285365	0.381429
	O297	O	0.642844	0.426252	0.598019
	H298	H	0.656344	0.418692	0.594564
	H299	H	0.652346	0.450343	0.604605
	O300	O	0.576085	0.517417	0.342570
	H301	H	0.559035	0.542307	0.338978
	H302	H	0.554246	0.523196	0.359025
	O303	O	0.388868	0.373899	0.512554
	H304	H	0.392954	0.370890	0.535240
	H305	H	0.397781	0.351545	0.513876
	O306	O	0.545665	0.465813	0.526100
	H307	H	0.556481	0.472947	0.515773
	H308	H	0.557174	0.459666	0.524696
	O309	O	0.560679	0.588388	0.636284
	H310	H	0.548047	0.572882	0.641586
	H311	H	0.562831	0.596702	0.626460
	O312	O	0.043652	-0.027021	0.057933
	H313	H	0.043976	-0.029019	0.054271
	H314	H	0.048153	-0.028147	0.039843
	O315	O	0.403686	0.396964	0.670158
	H316	H	0.417085	0.396058	0.669905
	H317	H	0.407495	0.399309	0.671590
	O318	O	0.117039	0.896989	1.001503
	H319	H	0.113359	0.894958	0.998550
	H320	H	0.113245	0.904772	0.978489
	O321	O	0.344292	0.414126	0.510881
	H322	H	0.332800	0.406547	0.513761
	H323	H	0.364178	0.408763	0.520548
	O324	O	-0.135615	1.109536	-0.133810
	H325	H	-0.134654	1.118239	-0.119527
	H326	H	-0.153185	1.101664	-0.133481
	O327	O	0.393832	0.644359	0.331343
	H328	H	0.389566	0.644970	0.328348
	H329	H	0.382080	0.641021	0.334807
	O330	O	0.001016	0.162404	0.940426
	H331	H	-0.006313	0.172648	0.928984
	H332	H	-0.016879	0.165456	0.958587
	O333	O	0.035131	-0.052497	1.029220
	H334	H	0.033579	-0.066959	1.025383
	H335	H	0.032597	-0.044317	1.038664
	O336	O	0.606039	0.513573	0.497241
	H337	H	0.600412	0.519843	0.487838
	H338	H	0.594877	0.513604	0.496691
	O339	O	0.508104	0.595839	0.583820
	H340	H	0.525596	0.603679	0.584574
	H341	H	0.506346	0.593788	0.594381
	O342	O	0.318315	-0.554787	0.663429
	H343	H	0.327524	-0.556622	0.680855
	H344	H	0.320099	-0.581557	0.658855
	O345	O	0.964324	0.950542	1.900554
	H346	H	0.962923	0.951453	1.902417
	H347	H	0.982291	0.952991	1.904490
	O348	O	1.121952	1.084157	-0.091901
	H349	H	1.104351	1.099494	-0.105681
	H350	H	1.123578	1.073703	-0.077096
	O351	O	0.555425	0.490876	0.539639
	H352	H	0.566430	0.489089	0.542722
	H353	H	0.560527	0.493471	0.537609
	O354	O	0.843637	-0.118207	1.088801
	H355	H	0.827446	-0.133115	1.087431
	H356	H	0.844205	-0.121301	1.101239
	O357	O	0.542522	0.660349	0.509421
	H358	H	0.541932	0.666052	0.507757
	H359	H	0.549598	0.657355	0.504308
	O360	O	0.991422	1.052418	1.131392
	H361	H	0.995395	1.055444	1.133555
	H362	H	1.005946	1.052732	1.155414
	O363	O	0.080245	0.909943	1.078009
	H364	H	0.081162	0.909258	1.072415
	H365	H	0.078132	0.894673	1.063118
	O366	O	0.628230	0.497864	0.439514
	H367	H	0.607931	0.507300	0.444695
	H368	H	0.631989	0.493363	0.418642
	O369	O	0.161620	0.850074	-0.094567
	H370	H	0.153788	0.848782	-0.094599
	H371	H	0.172767	0.836345	-0.104953
	O372	O	0.703486	0.423417	0.375726
	H373	H	0.716005	0.426130	0.346715
	H374	H	0.691757	0.431114	0.366165
	O375	O	0.481449	0.348276	0.324372
	H376	H	0.477917	0.341149	0.307780
	H377	H	0.485504	0.344569	0.335322
	O378	O	1.094246	1.110959	0.162352
	H379	H	1.107007	1.116010	0.175974
	H380	H	1.121821	1.111469	0.155047
	O381	O	1.147427	0.024361	-0.009192
	H382	H	1.159018	0.032420	-0.014003
	H383	H	1.143097	0.039119	-0.003389
	O384	O	1.026335	0.998112	-0.195953
	H385	H	1.033299	0.986544	-0.184708
	H386	H	1.027489	1.002207	-0.208327
	O387	O	-0.325377	0.540694	0.462285
	H388	H	-0.323119	0.547626	0.459165
	H389	H	-0.328917	0.552567	0.444522
	O390	O	0.085966	1.031005	0.055606
	H391	H	0.076445	1.014888	0.052034
	H392	H	0.092837	1.033474	0.077160
	O393	O	0.983262	0.926085	0.896692
	H394	H	0.997969	0.941444	0.897106
	H395	H	0.985536	0.923178	0.898254
	O396	O	0.396283	0.414493	0.333680
	H397	H	0.394525	0.412485	0.353875
	H398	H	0.396236	0.405832	0.339801
	O399	O	-0.145848	1.052223	1.030525
	H400	H	-0.141466	1.050404	1.022110
	H401	H	-0.141122	1.046469	1.046471
	O402	O	0.362720	0.544992	0.488704
	H403	H	0.355000	0.532781	0.490253
	H404	H	0.367077	0.547141	0.487937
	O405	O	1.026112	1.064004	-0.072566
	H406	H	1.031239	1.066113	-0.079440
	H407	H	1.035872	1.066856	-0.066285
	O408	O	1.023530	0.870847	-0.174565
	H409	H	1.030074	0.888883	-0.192372
	H410	H	1.021558	0.878325	-0.167944
	O411	O	0.816928	-0.241391	2.260274
	H412	H	0.816897	-0.237845	2.257450
	H413	H	0.801223	-0.234547	2.254091
	O414	O	0.352216	0.352678	0.597804
	H415	H	0.364302	0.351112	0.604229
	H416	H	0.357785	0.350267	0.602208
	O417	O	-0.150671	-0.090299	1.117135
	H418	H	-0.140206	-0.092491	1.118379
	H419	H	-0.167671	-0.095301	1.109424
