data_Molecule from HDF5

_cell_length_a		16.458512
_cell_length_b		16.341678
_cell_length_c		16.443148
_cell_angle_alpha	89.922046
_cell_angle_beta	89.892001
_cell_angle_gamma	90.347577
_symmetry_space_group_name_H-M	'P 1'
_symmetry_Int_Tables_number		1

loop_
	_symmetry_equiv_pos_as_xyz
	x,y,z

loop_
	_atom_site_label
	_atom_site_type_symbol
	_atom_site_fract_x
	_atom_site_fract_y
	_atom_site_fract_z
	H0	H	0.395629	0.843645	0.723077
	H1	H	0.613085	0.159799	0.721897
	H2	H	0.610750	0.844229	0.277240
	H3	H	0.396701	0.158531	0.276146
	H4	H	0.731456	0.392077	0.843091
	H5	H	0.732119	0.610971	0.154516
	H6	H	0.281405	0.610921	0.843361
	H7	H	0.279137	0.389309	0.155344
	H8	H	0.847075	0.719153	0.396351
	H9	H	0.162410	0.726184	0.607235
	H10	H	0.847548	0.276765	0.607647
	H11	H	0.161141	0.275026	0.391807
	H12	H	0.849780	0.390697	0.726575
	H13	H	0.163934	0.609368	0.722224
	H14	H	0.849016	0.607327	0.276766
	H15	H	0.161148	0.388705	0.273356
	H16	H	0.400171	0.723244	0.841523
	H17	H	0.615348	0.726600	0.155590
	H18	H	0.612997	0.278079	0.842093
	H19	H	0.396590	0.275492	0.156147
	H20	H	0.723627	0.842901	0.394067
	H21	H	0.730149	0.158401	0.608519
	H22	H	0.279186	0.844809	0.609201
	H23	H	0.280591	0.157915	0.389188
	H24	H	0.895408	0.343783	0.224782
	H25	H	0.116484	0.658560	0.224041
	H26	H	0.114046	0.342781	0.777903
	H27	H	0.899421	0.658307	0.776159
	H28	H	0.230434	0.889303	0.343847
	H29	H	0.232246	0.112876	0.653036
	H30	H	0.780983	0.109162	0.343181
	H31	H	0.779521	0.891057	0.656833
	H32	H	0.348389	0.222835	0.894835
	H33	H	0.662749	0.225942	0.106598
	H34	H	0.347301	0.778142	0.104915
	H35	H	0.663369	0.782069	0.893507
	H36	H	0.347069	0.892973	0.223148
	H37	H	0.662204	0.110607	0.223881
	H38	H	0.349506	0.109603	0.775422
	H39	H	0.661544	0.893914	0.774469
	H40	H	0.895453	0.225995	0.343897
	H41	H	0.110711	0.222656	0.657100
	H42	H	0.111549	0.776970	0.343361
	H43	H	0.895964	0.775898	0.656979
	H44	H	0.228323	0.343110	0.893675
	H45	H	0.231727	0.657973	0.108799
	H46	H	0.778861	0.344627	0.110812
	H47	H	0.784625	0.658885	0.891940
	H48	H	0.412355	0.118047	0.590769
	H49	H	0.592745	0.884697	0.596142
	H50	H	0.592296	0.114057	0.415640
	H51	H	0.419984	0.888742	0.411480
	H52	H	0.586488	0.418330	0.108517
	H53	H	0.593679	0.590941	0.886910
	H54	H	0.423286	0.590190	0.111677
	H55	H	0.420268	0.414023	0.888173
	H56	H	0.120342	0.594822	0.411684
	H57	H	0.897009	0.585010	0.580856
	H58	H	0.119376	0.409923	0.589124
	H59	H	0.893239	0.409493	0.416335
	H60	H	0.116629	0.413242	0.585484
	H61	H	0.894130	0.579792	0.594937
	H62	H	0.116310	0.585996	0.416225
	H63	H	0.896790	0.418892	0.415230
	H64	H	0.415303	0.588986	0.112105
	H65	H	0.596159	0.591990	0.884379
	H66	H	0.592274	0.409506	0.113111
	H67	H	0.417240	0.412170	0.886078
	H68	H	0.596589	0.116824	0.412003
	H69	H	0.582947	0.892106	0.585901
	H70	H	0.425477	0.112856	0.589594
	H71	H	0.415646	0.888777	0.415828
	H72	H	0.918274	0.613697	0.085952
	H73	H	0.093715	0.388546	0.084836
	H74	H	0.093215	0.614190	0.914211
	H75	H	0.922250	0.386215	0.907826
	H76	H	0.089769	0.916515	0.610072
	H77	H	0.088087	0.093169	0.386267
	H78	H	0.918739	0.088727	0.612088
	H79	H	0.915365	0.913031	0.387472
	H80	H	0.619066	0.090294	0.909921
	H81	H	0.390364	0.093253	0.090633
	H82	H	0.616434	0.909510	0.082355
	H83	H	0.393683	0.911002	0.916634
	H84	H	0.614255	0.923188	0.088453
	H85	H	0.395747	0.087926	0.082197
	H86	H	0.617327	0.089143	0.913782
	H87	H	0.393704	0.917582	0.910243
	H88	H	0.913896	0.087920	0.613462
	H89	H	0.098802	0.085216	0.385645
	H90	H	0.090341	0.913458	0.611704
	H91	H	0.915080	0.909007	0.386416
	H92	H	0.097232	0.615296	0.912572
	H93	H	0.093266	0.387374	0.088379
	H94	H	0.920122	0.614061	0.089110
	H95	H	0.922608	0.390978	0.919125
	H96	H	0.416982	0.112377	0.578583
	H97	H	0.597755	0.887977	0.580865
	H98	H	0.591216	0.115955	0.409744
	H99	H	0.414429	0.885520	0.410611
	H100	H	0.598178	0.419465	0.111386
	H101	H	0.596396	0.588752	0.886556
	H102	H	0.420169	0.582811	0.109404
	H103	H	0.416094	0.415559	0.887674
	H104	H	0.119971	0.586002	0.406486
	H105	H	0.890188	0.593977	0.591046
	H106	H	0.117583	0.414799	0.590503
	H107	H	0.891735	0.414216	0.407969
	H108	H	0.921980	0.612616	0.086022
	H109	H	0.090151	0.388882	0.086552
	H110	H	0.093954	0.614640	0.910303
	H111	H	0.912248	0.386047	0.914785
	H112	H	0.092937	0.916294	0.612326
	H113	H	0.087345	0.081247	0.390749
	H114	H	0.916360	0.084384	0.611714
	H115	H	0.911830	0.911555	0.386920
	H116	H	0.616945	0.086271	0.910629
	H117	H	0.393772	0.082479	0.091959
	H118	H	0.621412	0.912554	0.096380
	H119	H	0.390298	0.908961	0.908016
	C120	C	0.383492	0.010501	0.620779
	C121	C	0.625714	0.992513	0.621000
	C122	C	0.625811	0.010736	0.379075
	C123	C	0.383127	0.992192	0.378502
	C124	C	0.626849	0.381382	0.007729
	C125	C	0.628948	0.624235	0.989685
	C126	C	0.385599	0.621435	0.007695
	C127	C	0.383912	0.379500	0.991114
	C128	C	0.014392	0.621560	0.378812
	C129	C	0.997233	0.621722	0.622100
	C130	C	0.014174	0.378628	0.622180
	C131	C	0.997207	0.379259	0.378998
	C132	C	0.884860	0.509588	0.121331
	C133	C	0.127772	0.492038	0.121642
	C134	C	0.127855	0.509958	0.878883
	C135	C	0.885932	0.492103	0.879546
	C136	C	0.125199	0.880453	0.508369
	C137	C	0.125856	0.121755	0.490615
	C138	C	0.883135	0.121222	0.508546
	C139	C	0.881398	0.877663	0.491349
	C140	C	0.514296	0.122254	0.878422
	C141	C	0.496479	0.123135	0.122020
	C142	C	0.513496	0.880299	0.121884
	C143	C	0.496581	0.880242	0.878040
	C144	C	0.378152	0.891820	0.683235
	C145	C	0.630587	0.111933	0.682100
	C146	C	0.628484	0.891771	0.317740
	C147	C	0.379067	0.110805	0.316346
	C148	C	0.689990	0.375708	0.889984
	C149	C	0.691313	0.628529	0.107579
	C150	C	0.322861	0.626934	0.890211
	C151	C	0.320739	0.373465	0.108415
	C152	C	0.895232	0.680594	0.377122
	C153	C	0.115449	0.684907	0.625103
	C154	C	0.895379	0.316902	0.626113
	C155	C	0.114489	0.316075	0.374296
	C156	C	0.896516	0.373593	0.685491
	C157	C	0.116004	0.626836	0.682544
	C158	C	0.896190	0.624555	0.317573
	C159	C	0.114211	0.372745	0.315192
	C160	C	0.382479	0.682946	0.889199
	C161	C	0.633305	0.686286	0.107956
	C162	C	0.631100	0.318795	0.889388
	C163	C	0.379252	0.316631	0.109031
	C164	C	0.684809	0.891068	0.376036
	C165	C	0.688770	0.111217	0.625287
	C166	C	0.320287	0.891946	0.625925
	C167	C	0.321210	0.110621	0.373125
	C168	C	0.878613	0.391330	0.184103
	C169	C	0.133372	0.610380	0.184011
	C170	C	0.131383	0.390627	0.818032
	C171	C	0.881954	0.610866	0.817026
	C172	C	0.188561	0.873789	0.390871
	C173	C	0.189950	0.128510	0.607036
	C174	C	0.821537	0.126297	0.390435
	C175	C	0.820097	0.873755	0.609471
	C176	C	0.395817	0.183116	0.875978
	C177	C	0.615192	0.185550	0.125182
	C178	C	0.394799	0.818074	0.124223
	C179	C	0.615596	0.820963	0.875121
	C180	C	0.394650	0.875747	0.182668
	C181	C	0.614927	0.127932	0.183561
	C182	C	0.396143	0.126578	0.816814
	C183	C	0.614361	0.876666	0.815472
	C184	C	0.878878	0.184453	0.390706
	C185	C	0.129662	0.183424	0.609011
	C186	C	0.128998	0.817804	0.390343
	C187	C	0.878135	0.816061	0.609417
	C188	C	0.188448	0.390777	0.875774
	C189	C	0.191121	0.610291	0.126618
	C190	C	0.820354	0.391862	0.127078
	C191	C	0.824679	0.611231	0.874648
	C192	C	0.410432	0.092876	0.594049
	C193	C	0.598831	0.909992	0.595067
	C194	C	0.600664	0.093915	0.405068
	C195	C	0.409203	0.909416	0.405080
	C196	C	0.600035	0.408148	0.089564
	C197	C	0.603076	0.598019	0.907455
	C198	C	0.412001	0.594843	0.089742
	C199	C	0.410419	0.406159	0.908911
	C200	C	0.097208	0.596326	0.404300
	C201	C	0.915375	0.594223	0.596503
	C202	C	0.096278	0.405113	0.595671
	C203	C	0.915342	0.406317	0.405706
	C204	C	0.912288	0.591908	0.094551
	C205	C	0.100199	0.409741	0.094369
	C206	C	0.102195	0.592943	0.904811
	C207	C	0.911627	0.409511	0.906312
	C208	C	0.098560	0.907643	0.590133
	C209	C	0.099013	0.094526	0.408919
	C210	C	0.908947	0.094584	0.590805
	C211	C	0.906849	0.903631	0.408502
	C212	C	0.596531	0.096096	0.904241
	C213	C	0.414535	0.095810	0.095826
	C214	C	0.595983	0.907111	0.096378
	C215	C	0.414032	0.905358	0.904203
	Zn216	Zn	0.504840	0.001738	0.749043
	Zn217	Zn	0.504526	0.001832	0.251292
	Zn218	Zn	0.756797	0.501273	-0.000902
	Zn219	Zn	0.255659	0.501364	-0.000361
	Zn220	Zn	0.005126	0.750771	0.500671
	Zn221	Zn	0.004478	0.249980	0.500124
	Zn222	Zn	0.006625	0.500538	0.751011
	Zn223	Zn	0.006341	0.500630	0.249580
	Zn224	Zn	0.505670	0.751470	-0.000451
	Zn225	Zn	0.505916	0.251552	-0.000398
	Zn226	Zn	0.753876	0.000328	0.499940
	Zn227	Zn	0.255255	0.000907	0.498972
	N228	N	0.416782	0.966471	0.680084
	N229	N	0.592230	0.037086	0.679640
	N230	N	0.592602	0.967390	0.319341
	N231	N	0.416950	0.036222	0.319685
	N232	N	0.687385	0.413732	0.964439
	N233	N	0.688798	0.590781	0.033047
	N234	N	0.324609	0.589503	0.965082
	N235	N	0.323548	0.412031	0.034153
	N236	N	0.969960	0.679133	0.414242
	N237	N	0.040572	0.682024	0.588369
	N238	N	0.969449	0.319822	0.587708
	N239	N	0.040701	0.320045	0.413308
	N240	N	0.971344	0.411234	0.683172
	N241	N	0.041482	0.588441	0.681062
	N242	N	0.971647	0.588971	0.318264
	N243	N	0.040395	0.411417	0.318130
	N244	N	0.421072	0.679579	0.963226
	N245	N	0.595253	0.683863	0.033745
	N246	N	0.592326	0.322229	0.963526
	N247	N	0.417761	0.320120	0.034957
	N248	N	0.683365	0.966276	0.413279
	N249	N	0.686065	0.035897	0.588196
	N250	N	0.323155	0.966880	0.587918
	N251	N	0.323659	0.035623	0.411049
	N252	N	0.918146	0.465376	0.180492
	N253	N	0.094788	0.535676	0.180943
	N254	N	0.094765	0.465943	0.819630
	N255	N	0.919248	0.535864	0.819935
	N256	N	0.186190	0.912345	0.465088
	N257	N	0.187946	0.091047	0.532358
	N258	N	0.824052	0.087646	0.464786
	N259	N	0.822020	0.911431	0.534788
	N260	N	0.470275	0.180535	0.913579
	N261	N	0.540526	0.183126	0.088109
	N262	N	0.469926	0.820448	0.087534
	N263	N	0.541260	0.822973	0.913344
	N264	N	0.469563	0.913402	0.181533
	N265	N	0.540077	0.090051	0.181913
	N266	N	0.470799	0.089693	0.818188
	N267	N	0.539183	0.912620	0.817041
	N268	N	0.916502	0.181456	0.465123
	N269	N	0.090360	0.179181	0.535609
	N270	N	0.090416	0.821827	0.464392
	N271	N	0.915471	0.818398	0.534816
	N272	N	0.186238	0.465935	0.912888
	N273	N	0.188021	0.535382	0.088740
	N274	N	0.823984	0.466641	0.088607
	N275	N	0.826828	0.536183	0.912507
	O276	O	0.448202	0.337790	0.407331
	H277	H	0.460184	0.340891	0.394939
	H278	H	0.467895	0.327896	0.402576
	O279	O	1.546238	0.361043	1.287086
	H280	H	1.544279	0.354389	1.268274
	H281	H	1.562240	0.356961	1.287851
	O282	O	0.716048	0.621860	0.482435
	H283	H	0.705644	0.621527	0.472755
	H284	H	0.718915	0.606737	0.492984
	O285	O	0.555187	0.557042	0.289503
	H286	H	0.543112	0.560762	0.289675
	H287	H	0.529484	0.573141	0.285988
	O288	O	0.996284	1.199521	-0.015958
	H289	H	1.011220	1.204833	-0.021276
	H290	H	1.000334	1.201646	-0.040255
	O291	O	0.485834	0.469997	0.670820
	H292	H	0.495101	0.465575	0.678855
	H293	H	0.477621	0.457759	0.679906
	O294	O	-0.067910	-0.007222	0.936370
	H295	H	-0.069519	0.009473	0.923382
	H296	H	-0.057018	-0.003231	0.932986
	O297	O	0.291713	0.476998	0.718150
	H298	H	0.257473	0.475556	0.752579
	H299	H	0.304217	0.469175	0.706204
	O300	O	0.416600	0.380815	0.335143
	H301	H	0.429656	0.369634	0.334088
	H302	H	0.421852	0.376329	0.337582
	O303	O	0.493913	0.543239	0.488148
	H304	H	0.493818	0.549886	0.485624
	H305	H	0.503321	0.551504	0.496454
	O306	O	0.298554	0.294540	0.524233
	H307	H	0.298908	0.272161	0.511157
	H308	H	0.309032	0.294280	0.500154
	O309	O	0.290603	0.521987	0.283479
	H310	H	0.295058	0.506627	0.276836
	H311	H	0.278073	0.512627	0.260139
	O312	O	-0.103735	0.901405	0.918004
	H313	H	-0.108468	0.907753	0.914351
	H314	H	-0.101409	0.889916	0.915818
	O315	O	0.068794	0.943253	1.173527
	H316	H	0.050083	0.948531	1.169712
	H317	H	0.056268	0.912032	1.173204
	O318	O	0.901727	-0.141217	-0.108917
	H319	H	0.898511	-0.157497	-0.101033
	H320	H	0.905638	-0.141724	-0.136165
	O321	O	0.506277	-0.494533	-0.408527
	H322	H	0.489026	-0.495219	-0.395684
	H323	H	0.501300	-0.495145	-0.408329
	O324	O	0.682157	0.677041	0.680289
	H325	H	0.692976	0.668273	0.650500
	H326	H	0.632305	0.690765	0.693291
	O327	O	-0.014285	0.213647	0.785543
	H328	H	-0.043371	0.222148	0.773881
	H329	H	-0.039099	0.222127	0.772806
	O330	O	0.215335	0.985317	-0.213471
	H331	H	0.240810	0.984972	-0.239484
	H332	H	0.205716	0.996355	-0.198399
	O333	O	0.322377	0.312807	0.688715
	H334	H	0.300155	0.328125	0.705908
	H335	H	0.311912	0.304405	0.634211
	O336	O	-0.280719	-0.490292	-0.307947
	H337	H	-0.282232	-0.463440	-0.322629
	H338	H	-0.252570	-0.486150	-0.294673
	O339	O	0.213179	1.002365	1.012191
	H340	H	0.211605	0.982814	1.027872
	H341	H	0.210137	1.009064	1.021236
	O342	O	0.175905	0.828732	0.821702
	H343	H	0.172720	0.832489	0.848014
	H344	H	0.193198	0.852200	0.832862
	O345	O	0.959434	1.007134	0.033993
	H346	H	0.953613	0.999040	0.023567
	H347	H	0.949450	0.986443	0.046750
	O348	O	0.298087	0.553223	0.562799
	H349	H	0.308569	0.549367	0.561485
	H350	H	0.299265	0.538598	0.566933
	O351	O	-0.171614	1.209668	0.976423
	H352	H	-0.164604	1.225252	0.988018
	H353	H	-0.157561	1.228789	0.984971
	O354	O	-0.070708	0.981878	-0.022648
	H355	H	-0.063646	0.991275	-0.025908
	H356	H	-0.057979	0.983876	-0.019105
	O357	O	-0.184260	-0.192243	1.121925
	H358	H	-0.207708	-0.173002	1.129584
	H359	H	-0.190248	-0.196907	1.109866
	O360	O	0.614026	0.397732	0.630384
	H361	H	0.635822	0.400842	0.630495
	H362	H	0.605562	0.377414	0.645688
	O363	O	-0.073496	0.172924	1.110341
	H364	H	-0.056303	0.163088	1.102114
	H365	H	-0.055418	0.176169	1.124874
	O366	O	0.482117	0.717906	0.275302
	H367	H	0.442592	0.720844	0.276762
	H368	H	0.462231	0.741661	0.253486
	O369	O	0.825617	0.181222	0.818524
	H370	H	0.811180	0.154978	0.828194
	H371	H	0.812767	0.168159	0.847202
	O372	O	0.860186	-0.114565	0.931932
	H373	H	0.869140	-0.120047	0.918520
	H374	H	0.848968	-0.105605	0.921711
	O375	O	0.623711	0.630916	0.511132
	H376	H	0.627913	0.626333	0.502440
	H377	H	0.631027	0.611300	0.512770
	O378	O	-0.134488	0.992988	0.004718
	H379	H	-0.134396	0.986772	0.004233
	H380	H	-0.131874	0.998473	-0.004159
	O381	O	0.305845	0.702699	0.485767
	H382	H	0.314267	0.684245	0.508865
	H383	H	0.299922	0.717755	0.495220
	O384	O	0.275665	0.446164	0.441242
	H385	H	0.277350	0.423145	0.443439
	H386	H	0.275690	0.464575	0.433203
	O387	O	0.203086	0.199308	1.015273
	H388	H	0.218299	0.209188	1.033601
	H389	H	0.200059	0.182124	0.998039
	O390	O	0.119594	0.039379	-0.001977
	H391	H	0.128298	0.044216	-0.001912
	H392	H	0.109489	0.021244	0.002214
	O393	O	1.212786	1.024521	1.208503
	H394	H	1.215646	1.010274	1.234373
	H395	H	1.195354	1.000333	1.215877
	O396	O	0.078629	0.114415	-0.154533
	H397	H	0.070920	0.100471	-0.142086
	H398	H	0.072217	0.127728	-0.162867
	O399	O	0.981380	-0.219573	1.220772
	H400	H	0.957472	-0.241697	1.242853
	H401	H	0.947873	-0.224657	1.223343
	O402	O	0.959623	1.039154	0.794928
	H403	H	0.953710	1.027460	0.787050
	H404	H	0.970550	1.023338	0.806039
	O405	O	0.796567	0.910560	0.207967
	H406	H	0.760093	0.898358	0.239965
	H407	H	0.803269	0.946045	0.198718
	O408	O	1.200538	-0.197248	-0.013506
	H409	H	1.179825	-0.190672	0.009997
	H410	H	1.194446	-0.209329	-0.005442
	O411	O	1.327806	1.683880	0.323447
	H412	H	1.316113	1.658495	0.343039
	H413	H	1.315134	1.663760	0.346335
	O414	O	0.702636	0.305500	0.413770
	H415	H	0.703629	0.318836	0.436490
	H416	H	0.721951	0.297105	0.427308
	O417	O	1.185295	1.188017	1.179221
	H418	H	1.183376	1.146830	1.188452
	H419	H	1.189437	1.185819	1.150926
	O420	O	-0.388999	-0.303796	-0.618440
	H421	H	-0.397322	-0.310806	-0.639812
	H422	H	-0.371588	-0.307922	-0.606185
	O423	O	0.488259	0.290844	0.710876
	H424	H	0.454145	0.304836	0.697576
	H425	H	0.471333	0.262409	0.739661
	O426	O	0.710380	0.465119	0.544123
	H427	H	0.705205	0.470389	0.546933
	H428	H	0.698136	0.471423	0.549455
	O429	O	0.615303	0.315775	0.308834
	H430	H	0.642748	0.308586	0.339744
	H431	H	0.620297	0.334056	0.297092
	O432	O	0.685749	0.501172	0.339812
	H433	H	0.674461	0.497512	0.322642
	H434	H	0.678206	0.516781	0.339157
	O435	O	1.069930	0.790938	0.061242
	H436	H	1.041486	0.794531	0.068385
	H437	H	1.048138	0.785404	0.074215
	O438	O	0.022111	-0.212947	-0.214281
	H439	H	0.046054	-0.217204	-0.226942
	H440	H	0.038612	-0.219707	-0.226467
	O441	O	1.020986	0.213202	0.214596
	H442	H	1.050044	0.202469	0.209254
	H443	H	1.023091	0.237684	0.241664
	O444	O	-0.114336	1.018679	1.215698
	H445	H	-0.136593	1.033691	1.226300
	H446	H	-0.109067	1.043511	1.197213
	O447	O	0.472778	0.717607	0.537710
	H448	H	0.474851	0.723712	0.525843
	H449	H	0.494683	0.714011	0.534127
	O450	O	0.523679	0.703689	0.710267
	H451	H	0.514421	0.725269	0.721574
	H452	H	0.501397	0.692072	0.722183
	O453	O	0.585161	0.361227	0.610705
	H454	H	0.578124	0.355161	0.637862
	H455	H	0.597346	0.359120	0.601501
