data_Molecule from HDF5

_cell_length_a		16.478440
_cell_length_b		16.557040
_cell_length_c		16.549446
_cell_angle_alpha	89.926960
_cell_angle_beta	90.093023
_cell_angle_gamma	90.089233
_symmetry_space_group_name_H-M	'P 1'
_symmetry_Int_Tables_number		1

loop_
	_symmetry_equiv_pos_as_xyz
	x,y,z

loop_
	_atom_site_label
	_atom_site_type_symbol
	_atom_site_fract_x
	_atom_site_fract_y
	_atom_site_fract_z
	H0	H	0.398241	0.849811	0.725696
	H1	H	0.608325	0.162695	0.725260
	H2	H	0.608369	0.851225	0.281775
	H3	H	0.394618	0.162364	0.280511
	H4	H	0.720134	0.405089	0.846234
	H5	H	0.726320	0.613606	0.159572
	H6	H	0.281829	0.610233	0.847604
	H7	H	0.280350	0.400783	0.160772
	H8	H	0.845664	0.725403	0.399842
	H9	H	0.159672	0.728316	0.610878
	H10	H	0.845835	0.283618	0.608923
	H11	H	0.159423	0.284713	0.399641
	H12	H	0.844792	0.401279	0.724370
	H13	H	0.159918	0.610897	0.725935
	H14	H	0.845719	0.610996	0.282851
	H15	H	0.158986	0.400251	0.281784
	H16	H	0.396143	0.729344	0.848812
	H17	H	0.611303	0.730998	0.158503
	H18	H	0.603780	0.287476	0.847100
	H19	H	0.394165	0.281549	0.159906
	H20	H	0.723515	0.850681	0.399097
	H21	H	0.724295	0.163392	0.607719
	H22	H	0.281594	0.848800	0.609214
	H23	H	0.278893	0.161893	0.397211
	H24	H	0.897514	0.347767	0.225226
	H25	H	0.110253	0.662501	0.227347
	H26	H	0.105671	0.349184	0.784396
	H27	H	0.899630	0.663561	0.785161
	H28	H	0.223514	0.901268	0.344890
	H29	H	0.223697	0.108905	0.660345
	H30	H	0.778520	0.114740	0.347305
	H31	H	0.783157	0.903264	0.660467
	H32	H	0.343438	0.224700	0.901423
	H33	H	0.660982	0.226927	0.107852
	H34	H	0.346196	0.782106	0.112134
	H35	H	0.659689	0.786596	0.900275
	H36	H	0.344739	0.900171	0.226105
	H37	H	0.660786	0.111220	0.224623
	H38	H	0.345771	0.112190	0.780979
	H39	H	0.659777	0.902764	0.783667
	H40	H	0.894167	0.231898	0.348352
	H41	H	0.109723	0.228435	0.659490
	H42	H	0.108745	0.783346	0.345910
	H43	H	0.900653	0.787362	0.661450
	H44	H	0.220600	0.347655	0.902581
	H45	H	0.226931	0.662412	0.111279
	H46	H	0.781820	0.347700	0.107950
	H47	H	0.783954	0.663505	0.902571
	H48	H	0.412106	0.115982	0.584930
	H49	H	0.596626	0.890998	0.599289
	H50	H	0.593832	0.119742	0.417231
	H51	H	0.418373	0.894738	0.411259
	H52	H	0.590359	0.421313	0.115621
	H53	H	0.596531	0.596972	0.889764
	H54	H	0.417367	0.598510	0.116755
	H55	H	0.408104	0.419010	0.891721
	H56	H	0.116675	0.595142	0.413739
	H57	H	0.890508	0.589030	0.597339
	H58	H	0.115797	0.414004	0.592292
	H59	H	0.887591	0.413630	0.412405
	H60	H	0.113572	0.420834	0.590430
	H61	H	0.886021	0.602097	0.598709
	H62	H	0.115629	0.595422	0.417209
	H63	H	0.891416	0.417539	0.421509
	H64	H	0.411786	0.593884	0.117694
	H65	H	0.589571	0.590648	0.893633
	H66	H	0.587765	0.412930	0.117064
	H67	H	0.417384	0.417390	0.893843
	H68	H	0.590306	0.119630	0.411317
	H69	H	0.587010	0.895378	0.595877
	H70	H	0.407874	0.121153	0.595862
	H71	H	0.414968	0.896313	0.420251
	H72	H	0.909602	0.620303	0.098466
	H73	H	0.093035	0.393187	0.094188
	H74	H	0.096213	0.618533	0.916725
	H75	H	0.913393	0.393342	0.914087
	H76	H	0.100730	0.919969	0.615817
	H77	H	0.087785	0.091846	0.393284
	H78	H	0.907559	0.092240	0.616319
	H79	H	0.908760	0.912685	0.387628
	H80	H	0.617373	0.099827	0.912682
	H81	H	0.391799	0.093374	0.088722
	H82	H	0.612318	0.916808	0.087987
	H83	H	0.391626	0.920515	0.918133
	H84	H	0.613390	0.924030	0.094035
	H85	H	0.390393	0.091176	0.095045
	H86	H	0.614290	0.097546	0.918633
	H87	H	0.390092	0.920148	0.912741
	H88	H	0.920007	0.090098	0.611813
	H89	H	0.087606	0.098251	0.391106
	H90	H	0.086041	0.920958	0.610217
	H91	H	0.912629	0.921738	0.392594
	H92	H	0.091457	0.619750	0.910700
	H93	H	0.087176	0.395489	0.095164
	H94	H	0.920520	0.615695	0.095260
	H95	H	0.908834	0.392057	0.914868
	H96	H	0.420296	0.117305	0.594810
	H97	H	0.595996	0.895087	0.588958
	H98	H	0.587448	0.117576	0.417049
	H99	H	0.409095	0.892221	0.413385
	H100	H	0.596501	0.414900	0.118308
	H101	H	0.586846	0.600044	0.891122
	H102	H	0.418313	0.590984	0.114246
	H103	H	0.411903	0.411019	0.890004
	H104	H	0.115032	0.592577	0.415493
	H105	H	0.891967	0.598673	0.586926
	H106	H	0.115502	0.419472	0.597533
	H107	H	0.891420	0.423665	0.412740
	H108	H	0.911107	0.615381	0.087243
	H109	H	0.089680	0.396364	0.089341
	H110	H	0.088723	0.616639	0.917242
	H111	H	0.911076	0.391217	0.910658
	H112	H	0.091330	0.907675	0.617304
	H113	H	0.093375	0.094674	0.390707
	H114	H	0.916449	0.102165	0.616725
	H115	H	0.918997	0.912807	0.390441
	H116	H	0.615274	0.093172	0.913233
	H117	H	0.389092	0.097323	0.093275
	H118	H	0.616353	0.915194	0.096060
	H119	H	0.388826	0.916374	0.916091
	C120	C	0.381397	0.014365	0.624713
	C121	C	0.624792	0.997668	0.625721
	C122	C	0.623279	0.015666	0.382839
	C123	C	0.380915	0.997732	0.382145
	C124	C	0.622625	0.385352	0.012860
	C125	C	0.624366	0.628527	0.994863
	C126	C	0.382211	0.627160	0.012948
	C127	C	0.380270	0.383672	0.995670
	C128	C	0.011735	0.626671	0.383110
	C129	C	0.993594	0.628187	0.626289
	C130	C	0.010553	0.385313	0.625295
	C131	C	0.993844	0.385245	0.382935
	C132	C	0.880884	0.513669	0.125897
	C133	C	0.123838	0.498125	0.125646
	C134	C	0.123782	0.514574	0.883178
	C135	C	0.880963	0.497052	0.882862
	C136	C	0.124716	0.883875	0.510944
	C137	C	0.123277	0.126963	0.495324
	C138	C	0.881137	0.128061	0.511811
	C139	C	0.882094	0.884943	0.494723
	C140	C	0.511281	0.128286	0.882408
	C141	C	0.494626	0.127246	0.125115
	C142	C	0.510389	0.885222	0.125886
	C143	C	0.494143	0.886737	0.883539
	C144	C	0.379197	0.896713	0.685703
	C145	C	0.626635	0.115869	0.685135
	C146	C	0.626109	0.897784	0.322318
	C147	C	0.377203	0.115388	0.321195
	C148	C	0.680980	0.385201	0.893615
	C149	C	0.685748	0.631428	0.112367
	C150	C	0.321765	0.629241	0.894797
	C151	C	0.320387	0.381980	0.113862
	C152	C	0.893088	0.686081	0.381148
	C153	C	0.112557	0.687871	0.628746
	C154	C	0.892741	0.324025	0.627515
	C155	C	0.112276	0.324821	0.380553
	C156	C	0.892230	0.382311	0.684974
	C157	C	0.112551	0.629713	0.686060
	C158	C	0.893038	0.628669	0.323207
	C159	C	0.112131	0.382137	0.322209
	C160	C	0.378429	0.688408	0.895391
	C161	C	0.628686	0.690133	0.111855
	C162	C	0.623533	0.326902	0.893991
	C163	C	0.376925	0.322749	0.113271
	C164	C	0.683456	0.897671	0.380547
	C165	C	0.684308	0.116270	0.626972
	C166	C	0.321590	0.896189	0.627268
	C167	C	0.319220	0.115023	0.378757
	C168	C	0.878953	0.395321	0.185644
	C169	C	0.127708	0.615745	0.186631
	C170	C	0.124898	0.396276	0.824161
	C171	C	0.880633	0.616194	0.824878
	C172	C	0.184048	0.882480	0.392466
	C173	C	0.183586	0.128169	0.613232
	C174	C	0.819409	0.131979	0.394189
	C175	C	0.823085	0.884222	0.613362
	C176	C	0.391551	0.186312	0.881529
	C177	C	0.613408	0.187337	0.126711
	C178	C	0.392823	0.823319	0.129524
	C179	C	0.612689	0.826865	0.881921
	C180	C	0.392285	0.882042	0.186397
	C181	C	0.613416	0.129705	0.184902
	C182	C	0.392705	0.130288	0.821908
	C183	C	0.612696	0.884444	0.823861
	C184	C	0.876841	0.190364	0.394757
	C185	C	0.126797	0.187381	0.612935
	C186	C	0.127130	0.823770	0.392917
	C187	C	0.881483	0.826575	0.613691
	C188	C	0.182081	0.395668	0.882859
	C189	C	0.185915	0.615658	0.129008
	C190	C	0.820984	0.395232	0.127573
	C191	C	0.823231	0.616257	0.883186
	C192	C	0.406443	0.096761	0.599168
	C193	C	0.600245	0.915294	0.601487
	C194	C	0.597859	0.097630	0.408139
	C195	C	0.406818	0.915914	0.407664
	C196	C	0.598494	0.409500	0.095526
	C197	C	0.598270	0.603105	0.912830
	C198	C	0.408234	0.601727	0.094978
	C199	C	0.405139	0.408726	0.913213
	C200	C	0.094270	0.601685	0.408357
	C201	C	0.911005	0.603563	0.601229
	C202	C	0.093369	0.410803	0.600466
	C203	C	0.911480	0.410778	0.408246
	C204	C	0.906401	0.595800	0.100796
	C205	C	0.097602	0.416313	0.100339
	C206	C	0.099251	0.596968	0.907868
	C207	C	0.904386	0.413817	0.906352
	C208	C	0.099832	0.908806	0.593071
	C209	C	0.097203	0.102131	0.413149
	C210	C	0.907376	0.102093	0.593519
	C211	C	0.906332	0.909159	0.411749
	C212	C	0.593944	0.103808	0.907643
	C213	C	0.412199	0.101507	0.099754
	C214	C	0.592668	0.911333	0.100193
	C215	C	0.411678	0.911963	0.908383
	Zn216	Zn	0.502639	0.006637	0.754144
	Zn217	Zn	0.502352	0.006768	0.254173
	Zn218	Zn	0.752273	0.505469	0.003772
	Zn219	Zn	0.252922	0.506204	0.004468
	Zn220	Zn	0.003151	0.755454	0.503267
	Zn221	Zn	0.002583	0.256709	0.504098
	Zn222	Zn	0.002284	0.505958	0.753931
	Zn223	Zn	0.002818	0.506109	0.254432
	Zn224	Zn	0.502272	0.757038	0.004271
	Zn225	Zn	0.502053	0.255963	0.004244
	Zn226	Zn	0.752714	0.006775	0.503322
	Zn227	Zn	0.252468	0.005463	0.503117
	N228	N	0.415514	0.971326	0.684185
	N229	N	0.590523	0.041081	0.684679
	N230	N	0.589503	0.972108	0.323569
	N231	N	0.414738	0.041429	0.323066
	N232	N	0.680740	0.420664	0.968665
	N233	N	0.683413	0.593821	0.038497
	N234	N	0.323797	0.592195	0.969009
	N235	N	0.322628	0.419366	0.039868
	N236	N	0.967898	0.684891	0.417732
	N237	N	0.037597	0.687383	0.592402
	N238	N	0.967501	0.325972	0.591117
	N239	N	0.037620	0.326480	0.417404
	N240	N	0.966636	0.419635	0.683624
	N241	N	0.037697	0.593113	0.684616
	N242	N	0.967940	0.592470	0.324203
	N243	N	0.037504	0.418863	0.323681
	N244	N	0.415259	0.687306	0.969934
	N245	N	0.591169	0.688330	0.037769
	N246	N	0.588198	0.326813	0.969073
	N247	N	0.413630	0.324019	0.038905
	N248	N	0.681976	0.972029	0.417173
	N249	N	0.683499	0.041743	0.590958
	N250	N	0.322602	0.970510	0.590291
	N251	N	0.321320	0.040872	0.415850
	N252	N	0.915268	0.470183	0.184896
	N253	N	0.090050	0.541790	0.184762
	N254	N	0.089641	0.471404	0.823998
	N255	N	0.915703	0.540993	0.824293
	N256	N	0.182890	0.918933	0.467025
	N257	N	0.181325	0.091201	0.539106
	N258	N	0.822010	0.093978	0.468100
	N259	N	0.823032	0.919553	0.538180
	N260	N	0.466380	0.185370	0.918246
	N261	N	0.538214	0.186268	0.090727
	N262	N	0.467490	0.825000	0.092833
	N263	N	0.537914	0.828044	0.918373
	N264	N	0.466659	0.919642	0.184357
	N265	N	0.538562	0.093417	0.184268
	N266	N	0.468175	0.095069	0.822245
	N267	N	0.538052	0.920859	0.824850
	N268	N	0.914752	0.187979	0.468610
	N269	N	0.090111	0.186750	0.538302
	N270	N	0.091027	0.824397	0.467574
	N271	N	0.917221	0.826827	0.538759
	N272	N	0.181775	0.470411	0.918708
	N273	N	0.183637	0.541538	0.091699
	N274	N	0.821739	0.469924	0.091466
	N275	N	0.823458	0.541110	0.918343
	O276	O	1.205582	0.792774	-0.014941
	H277	H	1.207825	0.802806	-0.014597
	H278	H	1.227883	0.779010	-0.011624
	O279	O	-0.075787	-0.071927	0.929569
	H280	H	-0.084261	-0.068188	0.924486
	H281	H	-0.053009	-0.058184	0.917219
	O282	O	0.708418	0.703719	0.714323
	H283	H	0.720071	0.705988	0.720083
	H284	H	0.709125	0.720747	0.729644
	O285	O	0.284376	0.290191	0.534863
	H286	H	0.283790	0.279950	0.555435
	H287	H	0.272149	0.278891	0.554173
	O288	O	0.998735	0.046997	1.023499
	H289	H	0.996520	0.038886	1.031687
	H290	H	1.010610	0.045775	1.021682
	O291	O	0.651737	0.636606	0.448079
	H292	H	0.643383	0.627466	0.458982
	H293	H	0.634288	0.637416	0.453972
	O294	O	0.205278	0.201151	0.040130
	H295	H	0.216471	0.188620	0.023956
	H296	H	0.211938	0.201319	0.027200
	O297	O	0.970204	-0.143304	0.055571
	H298	H	0.976304	-0.126395	0.057013
	H299	H	0.983118	-0.144837	0.050394
	O300	O	0.041044	0.202486	0.218273
	H301	H	0.029709	0.198588	0.223875
	H302	H	0.024345	0.194523	0.233845
	O303	O	0.052291	-0.061429	0.013493
	H304	H	0.042298	-0.073037	0.027334
	H305	H	0.058506	-0.048458	0.011254
	O306	O	0.937015	0.084306	0.218077
	H307	H	0.949744	0.055379	0.213783
	H308	H	0.920953	0.065598	0.220432
	O309	O	0.490536	0.660453	0.510641
	H310	H	0.495564	0.656913	0.492181
	H311	H	0.507417	0.660526	0.518907
	O312	O	0.438827	0.303159	0.462940
	H313	H	0.425556	0.299853	0.444434
	H314	H	0.433096	0.309346	0.457417
	O315	O	0.291011	0.544439	0.518530
	H316	H	0.287277	0.531315	0.538715
	H317	H	0.298722	0.532521	0.502059
	O318	O	0.811711	0.952198	-0.027540
	H319	H	0.811471	0.957997	-0.036276
	H320	H	0.813367	0.952720	-0.030194
	O321	O	0.335366	0.709348	0.685951
	H322	H	0.330996	0.698999	0.670979
	H323	H	0.341110	0.703567	0.678352
	O324	O	0.802891	-0.182129	0.940448
	H325	H	0.810716	-0.159730	0.934954
	H326	H	0.803888	-0.183941	0.948315
	O327	O	0.720154	0.729226	0.551857
	H328	H	0.718544	0.715115	0.572108
	H329	H	0.748585	0.754648	0.559484
	O330	O	0.115020	0.922448	0.179734
	H331	H	0.120573	0.914714	0.184578
	H332	H	0.119570	0.929471	0.187154
	O333	O	0.292008	0.524515	0.302005
	H334	H	0.314303	0.504608	0.298543
	H335	H	0.270531	0.518251	0.287777
	O336	O	0.504614	0.569436	0.588936
	H337	H	0.501987	0.567345	0.587425
	H338	H	0.506715	0.570238	0.579677
	O339	O	0.290171	0.719101	0.465929
	H340	H	0.278039	0.701984	0.463863
	H341	H	0.268602	0.736582	0.457300
	O342	O	0.221036	1.058385	-0.051749
	H343	H	0.218741	1.039838	-0.065888
	H344	H	0.218874	1.041315	-0.064373
	O345	O	0.571298	0.454276	0.615465
	H346	H	0.579309	0.459478	0.617580
	H347	H	0.575163	0.439505	0.614248
	O348	O	0.522794	0.629328	0.669324
	H349	H	0.511175	0.622279	0.668775
	H350	H	0.519131	0.638675	0.687578
	O351	O	-0.053704	0.145926	1.078967
	H352	H	-0.045335	0.126332	1.098195
	H353	H	-0.044488	0.148795	1.088360
	O354	O	1.102506	-0.078038	1.097201
	H355	H	1.108907	-0.088366	1.087894
	H356	H	1.101505	-0.072225	1.108889
	O357	O	0.323882	0.695327	0.315436
	H358	H	0.344366	0.681064	0.317413
	H359	H	0.317027	0.670898	0.325051
	O360	O	0.533385	0.483813	0.497016
	H361	H	0.539374	0.484458	0.495231
	H362	H	0.531061	0.483482	0.494190
	O363	O	0.656327	0.509452	0.280818
	H364	H	0.660591	0.514431	0.273178
	H365	H	0.640222	0.513695	0.275740
	O366	O	0.794284	0.213560	0.797937
	H367	H	0.765147	0.243577	0.782423
	H368	H	0.798442	0.220811	0.842785
	O369	O	-0.013506	0.219860	0.801090
	H370	H	-0.034257	0.226856	0.804426
	H371	H	-0.037988	0.235932	0.790080
	O372	O	-0.049486	0.808824	0.932977
	H373	H	-0.038097	0.805596	0.953905
	H374	H	-0.043462	0.810805	0.929131
	O375	O	0.789849	-0.028099	0.221818
	H376	H	0.777196	-0.057051	0.234374
	H377	H	0.779070	-0.052788	0.229888
	O378	O	0.706835	0.303402	0.482490
	H379	H	0.701479	0.303348	0.493490
	H380	H	0.706604	0.295020	0.494624
	O381	O	0.214374	1.025000	0.204184
	H382	H	0.235192	1.033284	0.225244
	H383	H	0.209511	1.047708	0.194977
	O384	O	0.475694	0.286588	0.716274
	H385	H	0.454859	0.283453	0.721842
	H386	H	0.457560	0.268908	0.726928
	O387	O	0.220434	0.981125	0.789778
	H388	H	0.212014	0.951926	0.787677
	H389	H	0.239883	0.958810	0.765647
	O390	O	0.169527	1.185279	0.821123
	H391	H	0.142145	1.170704	0.827609
	H392	H	0.158474	1.172682	0.838464
	O393	O	0.826030	0.078912	0.079613
	H394	H	0.830634	0.053787	0.085177
	H395	H	0.824683	0.072132	0.093639
	O396	O	0.294429	0.295851	0.292127
	H397	H	0.279655	0.297576	0.297008
	H398	H	0.293087	0.279285	0.272397
	O399	O	0.450207	0.655757	0.689668
	H400	H	0.455360	0.662468	0.681121
	H401	H	0.462068	0.660112	0.690263
	O402	O	0.903732	0.026325	0.785134
	H403	H	0.908330	0.060862	0.788432
	H404	H	0.875002	0.028087	0.769185
	O405	O	0.474279	0.566408	0.566701
	H406	H	0.455332	0.567916	0.560569
	H407	H	0.476241	0.559057	0.569405
	O408	O	0.849772	0.878987	0.823963
	H409	H	0.859677	0.902330	0.847777
	H410	H	0.846611	0.901067	0.825686
	O411	O	0.753793	0.758503	0.255156
	H412	H	0.750051	0.746844	0.242161
	H413	H	0.721512	0.731242	0.274260
	O414	O	0.153192	0.149206	0.157990
	H415	H	0.111730	0.151963	0.156977
	H416	H	0.164531	0.156489	0.117449
	O417	O	0.722152	0.529250	0.671799
	H418	H	0.721147	0.539279	0.686893
	H419	H	0.725632	0.543773	0.666882
	O420	O	0.926183	0.044491	0.780503
	H421	H	0.913601	0.064161	0.759011
	H422	H	0.945277	0.061794	0.785401
	O423	O	0.914202	0.910508	0.089579
	H424	H	0.927178	0.904005	0.084580
	H425	H	0.900324	0.894452	0.092805
	O426	O	0.490783	0.717191	0.308446
	H427	H	0.487301	0.738842	0.306938
	H428	H	0.475591	0.717722	0.316241
	O429	O	0.515792	0.560040	0.351178
	H430	H	0.509791	0.556644	0.354879
	H431	H	0.503292	0.561938	0.354384
	O432	O	0.792805	0.214513	0.967138
	H433	H	0.784049	0.199687	0.994984
	H434	H	0.788622	0.220801	0.984421
	O435	O	0.557050	0.282325	0.560661
	H436	H	0.542756	0.276455	0.545408
	H437	H	0.528861	0.282075	0.570760
	O438	O	0.446906	0.453469	0.284363
	H439	H	0.457441	0.421741	0.287862
	H440	H	0.450458	0.448115	0.278470
	O441	O	0.707680	0.632413	0.365117
	H442	H	0.697789	0.624651	0.375117
	H443	H	0.697321	0.625029	0.370209
	O444	O	0.691577	0.309620	0.311472
	H445	H	0.696472	0.334268	0.320115
	H446	H	0.702646	0.321775	0.338379
	O447	O	0.689164	0.318357	0.695274
	H448	H	0.674135	0.327960	0.665116
	H449	H	0.673040	0.331738	0.693247
	O450	O	1.009579	0.206036	-0.045008
	H451	H	1.005811	0.211844	-0.029085
	H452	H	0.999056	0.211423	-0.043939
	O453	O	0.318706	0.401732	0.422727
	H454	H	0.307387	0.390804	0.401922
	H455	H	0.310503	0.389121	0.437619
	O456	O	0.037935	0.798886	0.794901
	H457	H	0.024173	0.809145	0.789080
	H458	H	0.020466	0.796640	0.781972
	O459	O	0.697814	0.493682	0.487142
	H460	H	0.692558	0.492444	0.488627
	H461	H	0.715704	0.488859	0.468328
	O462	O	0.528567	0.284938	0.281364
	H463	H	0.565383	0.282005	0.286202
	H464	H	0.535496	0.259271	0.257958
	O465	O	0.527904	0.539475	0.651292
	H466	H	0.540939	0.550371	0.647510
	H467	H	0.528048	0.557115	0.660278
	O468	O	0.197381	0.823049	-0.169708
	H469	H	0.212943	0.802754	-0.159216
	H470	H	0.154021	0.815412	-0.167837
	O471	O	0.303178	0.304234	0.700906
	H472	H	0.295471	0.350165	0.702595
	H473	H	0.283984	0.282466	0.729445
	O474	O	0.968373	0.844814	0.217322
	H475	H	0.938657	0.844354	0.208846
	H476	H	0.967747	0.824442	0.235211
	O477	O	0.290449	0.465438	0.704158
	H478	H	0.308463	0.484833	0.705020
	H479	H	0.274056	0.477606	0.719626
