data_Molecule from HDF5

_cell_length_a		16.347897
_cell_length_b		16.176750
_cell_length_c		16.063814
_cell_angle_alpha	89.781494
_cell_angle_beta	90.113468
_cell_angle_gamma	90.344345
_symmetry_space_group_name_H-M	'P 1'
_symmetry_Int_Tables_number		1

loop_
	_symmetry_equiv_pos_as_xyz
	x,y,z

loop_
	_atom_site_label
	_atom_site_type_symbol
	_atom_site_fract_x
	_atom_site_fract_y
	_atom_site_fract_z
	H0	H	0.408075	0.824611	0.706154
	H1	H	0.600960	0.156089	0.704798
	H2	H	0.596454	0.824279	0.285099
	H3	H	0.406251	0.155413	0.280206
	H4	H	0.719803	0.392484	0.829461
	H5	H	0.720977	0.592477	0.159053
	H6	H	0.290319	0.593281	0.829047
	H7	H	0.290264	0.389616	0.159116
	H8	H	0.842271	0.704825	0.394655
	H9	H	0.168134	0.706251	0.594890
	H10	H	0.842435	0.273418	0.595770
	H11	H	0.169749	0.276934	0.397412
	H12	H	0.841176	0.392178	0.708087
	H13	H	0.168996	0.588528	0.709400
	H14	H	0.842524	0.587726	0.280197
	H15	H	0.169877	0.392535	0.281343
	H16	H	0.409878	0.703881	0.828086
	H17	H	0.603861	0.701631	0.160662
	H18	H	0.603026	0.279650	0.827993
	H19	H	0.407070	0.276414	0.159549
	H20	H	0.720230	0.827421	0.391194
	H21	H	0.721785	0.153691	0.596306
	H22	H	0.287208	0.827554	0.595463
	H23	H	0.291438	0.155549	0.394496
	H24	H	0.909659	0.324575	0.206358
	H25	H	0.105002	0.656310	0.207961
	H26	H	0.099223	0.325145	0.785706
	H27	H	0.908483	0.656029	0.781616
	H28	H	0.217591	0.891970	0.329557
	H29	H	0.220193	0.092115	0.659095
	H30	H	0.791692	0.089733	0.329304
	H31	H	0.788171	0.887893	0.659160
	H32	H	0.343362	0.206827	0.891854
	H33	H	0.668971	0.206285	0.093321
	H34	H	0.343869	0.772260	0.094126
	H35	H	0.670511	0.779255	0.897430
	H36	H	0.341032	0.892577	0.205450
	H37	H	0.668516	0.089458	0.210542
	H38	H	0.340831	0.085780	0.781907
	H39	H	0.668745	0.892842	0.779372
	H40	H	0.906497	0.204477	0.329450
	H41	H	0.102484	0.201404	0.661298
	H42	H	0.101241	0.779610	0.329142
	H43	H	0.907382	0.776783	0.661159
	H44	H	0.221469	0.328335	0.891157
	H45	H	0.224539	0.654148	0.097075
	H46	H	0.787207	0.327944	0.096982
	H47	H	0.792580	0.655603	0.894975
	H48	H	0.405032	0.109446	0.583482
	H49	H	0.589177	0.873454	0.591394
	H50	H	0.590429	0.107557	0.399339
	H51	H	0.421634	0.876971	0.403116
	H52	H	0.586247	0.394878	0.110725
	H53	H	0.596329	0.589761	0.874701
	H54	H	0.419342	0.588126	0.112389
	H55	H	0.406473	0.399469	0.874442
	H56	H	0.119940	0.580577	0.406607
	H57	H	0.887415	0.588168	0.585145
	H58	H	0.120994	0.406294	0.596979
	H59	H	0.888620	0.397920	0.396827
	H60	H	0.127053	0.386402	0.597004
	H61	H	0.890855	0.578793	0.585188
	H62	H	0.123856	0.584604	0.396681
	H63	H	0.889187	0.391256	0.404723
	H64	H	0.405254	0.582416	0.115440
	H65	H	0.607801	0.586812	0.873416
	H66	H	0.606115	0.390670	0.117737
	H67	H	0.414731	0.403788	0.877142
	H68	H	0.600868	0.105976	0.412303
	H69	H	0.596930	0.874555	0.576680
	H70	H	0.409876	0.111644	0.593269
	H71	H	0.398486	0.873671	0.413953
	H72	H	0.910331	0.610126	0.087621
	H73	H	0.101656	0.373635	0.085555
	H74	H	0.103145	0.608691	0.906715
	H75	H	0.917944	0.377807	0.911454
	H76	H	0.092294	0.898871	0.612069
	H77	H	0.106529	0.080688	0.374968
	H78	H	0.924690	0.089482	0.612497
	H79	H	0.902399	0.901511	0.374538
	H80	H	0.622902	0.087743	0.898505
	H81	H	0.389475	0.083416	0.084925
	H82	H	0.623726	0.900541	0.095214
	H83	H	0.390001	0.890452	0.907495
	H84	H	0.625011	0.890157	0.091886
	H85	H	0.389939	0.082327	0.086349
	H86	H	0.621953	0.086392	0.902012
	H87	H	0.392578	0.903191	0.902836
	H88	H	0.899636	0.086768	0.619212
	H89	H	0.091599	0.079759	0.378147
	H90	H	0.099261	0.894465	0.616021
	H91	H	0.917265	0.902407	0.378412
	H92	H	0.098793	0.610945	0.898618
	H93	H	0.097693	0.372786	0.090380
	H94	H	0.914110	0.608502	0.088488
	H95	H	0.897299	0.370844	0.907226
	H96	H	0.415997	0.106228	0.584940
	H97	H	0.604473	0.869450	0.589278
	H98	H	0.605953	0.111890	0.397760
	H99	H	0.402287	0.866934	0.389133
	H100	H	0.600767	0.410961	0.110516
	H101	H	0.599714	0.578960	0.876445
	H102	H	0.416838	0.573361	0.109683
	H103	H	0.414283	0.394324	0.874088
	H104	H	0.123299	0.592422	0.404893
	H105	H	0.887241	0.582189	0.594643
	H106	H	0.119421	0.394640	0.579024
	H107	H	0.892751	0.401050	0.407445
	H108	H	0.912817	0.607406	0.084631
	H109	H	0.095969	0.374997	0.084117
	H110	H	0.095762	0.606848	0.906233
	H111	H	0.911799	0.369820	0.891350
	H112	H	0.100770	0.902545	0.613820
	H113	H	0.097371	0.092147	0.373425
	H114	H	0.911378	0.066359	0.608838
	H115	H	0.911331	0.889300	0.373653
	H116	H	0.622031	0.083760	0.898764
	H117	H	0.389109	0.083001	0.086374
	H118	H	0.621259	0.898184	0.085427
	H119	H	0.386253	0.893382	0.894668
	C120	C	0.382122	-0.000088	0.615926
	C121	C	0.626189	0.981239	0.615197
	C122	C	0.625343	-0.000733	0.374285
	C123	C	0.380676	0.981694	0.372642
	C124	C	0.626097	0.370992	0.003358
	C125	C	0.628418	0.612655	0.985001
	C126	C	0.385612	0.611352	0.002673
	C127	C	0.383302	0.369252	0.984854
	C128	C	0.014442	0.613330	0.373019
	C129	C	0.996672	0.612355	0.617509
	C130	C	0.014167	0.367419	0.618884
	C131	C	0.997859	0.368532	0.374066
	C132	C	0.883768	0.499712	0.116414
	C133	C	0.127958	0.482429	0.115971
	C134	C	0.126555	0.499887	0.874441
	C135	C	0.882620	0.481876	0.874004
	C136	C	0.125564	0.870312	0.504110
	C137	C	0.126449	0.111998	0.485561
	C138	C	0.883803	0.110672	0.503711
	C139	C	0.882353	0.868407	0.485445
	C140	C	0.514086	0.113202	0.871124
	C141	C	0.497023	0.112527	0.115740
	C142	C	0.514830	0.867413	0.117877
	C143	C	0.497881	0.868637	0.873098
	C144	C	0.386606	0.874599	0.669458
	C145	C	0.623016	0.106269	0.668929
	C146	C	0.619258	0.874168	0.320972
	C147	C	0.385211	0.105841	0.317388
	C148	C	0.681629	0.373083	0.878591
	C149	C	0.683018	0.611459	0.109976
	C150	C	0.329621	0.611426	0.878179
	C151	C	0.328225	0.370260	0.109648
	C152	C	0.891222	0.666937	0.374994
	C153	C	0.119424	0.668309	0.615231
	C154	C	0.891320	0.311738	0.615631
	C155	C	0.120857	0.314394	0.376816
	C156	C	0.890394	0.370850	0.671843
	C157	C	0.120001	0.609568	0.672051
	C158	C	0.891549	0.608988	0.317661
	C159	C	0.120926	0.371905	0.318978
	C160	C	0.388982	0.666406	0.877691
	C161	C	0.624703	0.665472	0.110748
	C162	C	0.623334	0.317072	0.877816
	C163	C	0.386083	0.313656	0.109726
	C164	C	0.681091	0.875991	0.373123
	C165	C	0.683065	0.104891	0.614724
	C166	C	0.326507	0.875935	0.614505
	C167	C	0.327864	0.105972	0.374121
	C168	C	0.887335	0.374882	0.170620
	C169	C	0.126008	0.606511	0.171224
	C170	C	0.121493	0.375241	0.820984
	C171	C	0.887355	0.606491	0.818833
	C172	C	0.179969	0.872429	0.379055
	C173	C	0.181776	0.110749	0.609977
	C174	C	0.829119	0.109857	0.378850
	C175	C	0.826770	0.869061	0.610085
	C176	C	0.391633	0.168302	0.872367
	C177	C	0.619943	0.168369	0.113910
	C178	C	0.392283	0.811032	0.114291
	C179	C	0.621232	0.815918	0.876481
	C180	C	0.390805	0.870693	0.169856
	C181	C	0.619949	0.109792	0.171709
	C182	C	0.390513	0.108239	0.817436
	C183	C	0.620398	0.872156	0.817781
	C184	C	0.886643	0.166603	0.378881
	C185	C	0.123103	0.164975	0.611200
	C186	C	0.122025	0.816670	0.378711
	C187	C	0.886023	0.813882	0.611194
	C188	C	0.182198	0.376682	0.873999
	C189	C	0.185280	0.605580	0.115860
	C190	C	0.826790	0.376312	0.116041
	C191	C	0.829962	0.606625	0.875585
	C192	C	0.403685	0.086536	0.593736
	C193	C	0.603490	0.894980	0.592650
	C194	C	0.604942	0.085969	0.396372
	C195	C	0.401195	0.894869	0.395223
	C196	C	0.604207	0.392496	0.090440
	C197	C	0.607474	0.591528	0.897549
	C198	C	0.407234	0.588037	0.089800
	C199	C	0.405230	0.392361	0.897605
	C200	C	0.100241	0.592125	0.396057
	C201	C	0.910787	0.589784	0.594920
	C202	C	0.100270	0.389345	0.597541
	C203	C	0.912338	0.390227	0.396511
	C204	C	0.905816	0.586368	0.093639
	C205	C	0.105133	0.396180	0.093241
	C206	C	0.105276	0.586491	0.897137
	C207	C	0.902966	0.395303	0.896643
	C208	C	0.103777	0.892169	0.591416
	C209	C	0.104991	0.090399	0.397926
	C210	C	0.905582	0.087555	0.591096
	C211	C	0.903863	0.890837	0.398237
	C212	C	0.599985	0.092187	0.893316
	C213	C	0.411523	0.089730	0.092643
	C214	C	0.601061	0.889710	0.096942
	C215	C	0.411907	0.889463	0.895131
	Zn216	Zn	0.505102	-0.009461	0.743322
	Zn217	Zn	0.504477	-0.009839	0.245951
	Zn218	Zn	0.754533	0.491959	-0.004807
	Zn219	Zn	0.256051	0.491119	-0.005802
	Zn220	Zn	0.005184	0.741900	0.495086
	Zn221	Zn	0.005825	0.238630	0.495501
	Zn222	Zn	0.005117	0.490237	0.746824
	Zn223	Zn	0.006486	0.490841	0.244366
	Zn224	Zn	0.507632	0.739015	-0.005263
	Zn225	Zn	0.505527	0.241991	-0.006435
	Zn226	Zn	0.754907	-0.009897	0.494354
	Zn227	Zn	0.253170	-0.008675	0.494398
	N228	N	0.420545	0.952668	0.670519
	N229	N	0.588331	0.028610	0.669402
	N230	N	0.585346	0.951804	0.321387
	N231	N	0.417316	0.027410	0.316144
	N232	N	0.683554	0.405961	0.957562
	N233	N	0.685523	0.579204	0.030922
	N234	N	0.327540	0.577778	0.957049
	N235	N	0.326245	0.404022	0.030836
	N236	N	0.968735	0.669953	0.408723
	N237	N	0.041640	0.670297	0.582175
	N238	N	0.969235	0.309538	0.583281
	N239	N	0.043484	0.312162	0.410559
	N240	N	0.967729	0.404911	0.673895
	N241	N	0.042672	0.575253	0.673421
	N242	N	0.969189	0.576456	0.316289
	N243	N	0.043405	0.404891	0.317052
	N244	N	0.422898	0.666611	0.956088
	N245	N	0.591417	0.666340	0.032100
	N246	N	0.589493	0.315631	0.956273
	N247	N	0.419531	0.312836	0.031130
	N248	N	0.684810	0.954628	0.405888
	N249	N	0.685168	0.026168	0.582102
	N250	N	0.323340	0.954745	0.582318
	N251	N	0.324802	0.027708	0.407788
	N252	N	0.922121	0.452560	0.170928
	N253	N	0.090921	0.529078	0.171253
	N254	N	0.087600	0.452971	0.821182
	N255	N	0.919281	0.528124	0.817567
	N256	N	0.182329	0.904982	0.458034
	N257	N	0.183949	0.078452	0.530740
	N258	N	0.827304	0.075834	0.457523
	N259	N	0.824328	0.902168	0.530896
	N260	N	0.469444	0.171417	0.905231
	N261	N	0.542414	0.170053	0.079929
	N262	N	0.470543	0.808669	0.082749
	N263	N	0.544000	0.813370	0.910087
	N264	N	0.468027	0.904902	0.172173
	N265	N	0.542412	0.075957	0.173186
	N266	N	0.467715	0.074662	0.816488
	N267	N	0.542408	0.904140	0.815496
	N268	N	0.919652	0.167433	0.457764
	N269	N	0.089445	0.165995	0.532823
	N270	N	0.088850	0.815203	0.457431
	N271	N	0.919827	0.813059	0.532745
	N272	N	0.185420	0.455281	0.906630
	N273	N	0.186656	0.527235	0.082284
	N274	N	0.824406	0.455051	0.083111
	N275	N	0.826675	0.528214	0.909189
	O276	O	1.089370	0.949988	0.028431
	H277	H	1.092208	0.943453	0.018542
	H278	H	1.084812	0.950379	0.028066
	O279	O	0.122878	0.032458	0.965208
	H280	H	0.132462	0.044685	0.970898
	H281	H	0.116750	0.028923	0.952949
	O282	O	0.050266	0.012375	0.061198
	H283	H	0.053152	0.010437	0.059572
	H284	H	0.055065	0.019214	0.060287
	O285	O	0.563930	0.540630	0.517119
	H286	H	0.571440	0.539653	0.516389
	H287	H	0.558674	0.533226	0.521703
	O288	O	0.000045	0.005180	0.038497
	H289	H	-0.000717	-0.000446	0.040297
	H290	H	-0.008833	-0.007455	0.049467
	O291	O	-0.453555	1.478020	0.544205
	H292	H	-0.452792	1.474693	0.545531
	H293	H	-0.448573	1.462577	0.549379
	O294	O	-0.011307	1.050364	0.024019
	H295	H	0.002863	1.050801	0.020428
	H296	H	-0.015742	1.040931	0.026398
	O297	O	0.606681	0.536918	0.481675
	H298	H	0.601323	0.525956	0.490820
	H299	H	0.615189	0.548174	0.484440
	O300	O	0.591921	0.444972	0.522513
	H301	H	0.587945	0.438026	0.518486
	H302	H	0.587174	0.438739	0.515918
	O303	O	0.442440	0.541800	1.429525
	H304	H	0.452271	0.544461	1.426803
	H305	H	0.446626	0.551560	1.428389
	O306	O	1.050932	1.996069	1.012576
	H307	H	1.056241	1.996981	1.016036
	H308	H	1.058684	1.994229	1.020865
	O309	O	0.045923	1.081735	1.004593
	H310	H	0.051234	1.077054	1.009410
	H311	H	0.037478	1.092632	1.007867
	O312	O	0.065890	-0.016672	0.998142
	H313	H	0.074165	-0.017489	0.991030
	H314	H	0.067283	-0.012338	1.000930
	O315	O	0.452348	0.469983	0.478966
	H316	H	0.439049	0.474464	0.477640
	H317	H	0.452518	0.481256	0.474148
	O318	O	0.455820	-0.465506	0.444725
	H319	H	0.451472	-0.463595	0.447011
	H320	H	0.464167	-0.464753	0.448614
	O321	O	0.490798	0.480500	0.503063
	H322	H	0.493098	0.481186	0.502392
	H323	H	0.499240	0.485136	0.487662
	O324	O	1.056422	-0.010613	0.963442
	H325	H	1.048736	-0.000688	0.955948
	H326	H	1.066957	-0.006395	0.955084
	O327	O	1.019931	1.028048	0.961140
	H328	H	1.015349	1.017515	0.963897
	H329	H	1.019612	1.024769	0.941853
	O330	O	0.507445	0.442874	0.472386
	H331	H	0.500189	0.437833	0.470954
	H332	H	0.496898	0.444135	0.473600
	O333	O	0.513228	0.482475	0.527213
	H334	H	0.515818	0.480560	0.536610
	H335	H	0.516102	0.489945	0.525798
	O336	O	0.489830	0.541135	0.515849
	H337	H	0.497046	0.540201	0.520624
	H338	H	0.484234	0.547660	0.514947
	O339	O	-0.963106	0.033882	-0.059889
	H340	H	-0.967542	0.042756	-0.053933
	H341	H	-0.973333	0.040786	-0.054023
	O342	O	0.573989	0.476648	0.436778
	H343	H	0.587191	0.478799	0.431275
	H344	H	0.577083	0.478170	0.440272
	O345	O	0.469202	0.447542	0.518798
	H346	H	0.474901	0.438678	0.521044
	H347	H	0.457625	0.454666	0.521832
