data_Molecule from HDF5

_cell_length_a		16.137374
_cell_length_b		16.339894
_cell_length_c		16.175552
_cell_angle_alpha	90.084462
_cell_angle_beta	89.690370
_cell_angle_gamma	89.907163
_symmetry_space_group_name_H-M	'P 1'
_symmetry_Int_Tables_number		1

loop_
	_symmetry_equiv_pos_as_xyz
	x,y,z

loop_
	_atom_site_label
	_atom_site_type_symbol
	_atom_site_fract_x
	_atom_site_fract_y
	_atom_site_fract_z
	H0	H	0.406281	0.829236	0.705993
	H1	H	0.605329	0.154348	0.703016
	H2	H	0.607869	0.828600	0.271157
	H3	H	0.404895	0.153812	0.274164
	H4	H	0.719999	0.394851	0.827160
	H5	H	0.717430	0.593328	0.154931
	H6	H	0.292139	0.591907	0.824691
	H7	H	0.291680	0.398396	0.155757
	H8	H	0.842517	0.708427	0.390046
	H9	H	0.169185	0.707551	0.592413
	H10	H	0.840762	0.277549	0.590537
	H11	H	0.169266	0.275185	0.386577
	H12	H	0.840308	0.394540	0.702875
	H13	H	0.170376	0.589437	0.703462
	H14	H	0.840724	0.590606	0.278505
	H15	H	0.170705	0.394842	0.276494
	H16	H	0.403289	0.710236	0.826380
	H17	H	0.604474	0.710852	0.153098
	H18	H	0.607506	0.276311	0.827330
	H19	H	0.400103	0.275536	0.153732
	H20	H	0.724249	0.829117	0.387236
	H21	H	0.720162	0.154129	0.587699
	H22	H	0.288065	0.829153	0.592935
	H23	H	0.288891	0.153688	0.391373
	H24	H	0.905791	0.329587	0.205641
	H25	H	0.105084	0.655208	0.206126
	H26	H	0.103901	0.328399	0.775925
	H27	H	0.903882	0.654625	0.774166
	H28	H	0.220506	0.890674	0.326001
	H29	H	0.216288	0.088655	0.655222
	H30	H	0.793205	0.088338	0.324538
	H31	H	0.790678	0.894419	0.654471
	H32	H	0.340790	0.208306	0.889947
	H33	H	0.668720	0.207625	0.090651
	H34	H	0.340780	0.778671	0.091096
	H35	H	0.667827	0.773739	0.884890
	H36	H	0.341866	0.890984	0.205970
	H37	H	0.670399	0.089342	0.202113
	H38	H	0.340694	0.092378	0.775105
	H39	H	0.671017	0.895182	0.776452
	H40	H	0.903492	0.208524	0.326192
	H41	H	0.105807	0.208006	0.653453
	H42	H	0.109033	0.774064	0.328284
	H43	H	0.902140	0.775546	0.653527
	H44	H	0.222617	0.330500	0.888941
	H45	H	0.218368	0.656789	0.088106
	H46	H	0.788180	0.330724	0.092101
	H47	H	0.789558	0.655490	0.892469
	H48	H	0.417508	0.107443	0.587379
	H49	H	0.599158	0.872065	0.590567
	H50	H	0.594473	0.104741	0.398721
	H51	H	0.410140	0.875288	0.401142
	H52	H	0.598475	0.403093	0.108910
	H53	H	0.592479	0.578823	0.876265
	H54	H	0.411859	0.587613	0.105864
	H55	H	0.421489	0.395705	0.874759
	H56	H	0.119405	0.581042	0.408256
	H57	H	0.885965	0.584476	0.585004
	H58	H	0.123484	0.395088	0.580325
	H59	H	0.885473	0.389180	0.402906
	H60	H	0.122120	0.400659	0.578070
	H61	H	0.888097	0.587996	0.579959
	H62	H	0.124397	0.576456	0.390121
	H63	H	0.892306	0.406725	0.404573
	H64	H	0.411583	0.589244	0.108062
	H65	H	0.592908	0.590846	0.873591
	H66	H	0.589585	0.401799	0.106707
	H67	H	0.408849	0.396464	0.870158
	H68	H	0.600730	0.107892	0.398471
	H69	H	0.590256	0.878067	0.580065
	H70	H	0.412423	0.104517	0.573724
	H71	H	0.412187	0.873937	0.393881
	H72	H	0.914223	0.606438	0.077211
	H73	H	0.102877	0.375191	0.084235
	H74	H	0.100388	0.610072	0.895603
	H75	H	0.910744	0.375792	0.901184
	H76	H	0.095457	0.896731	0.608452
	H77	H	0.094152	0.084883	0.373618
	H78	H	0.905073	0.084046	0.609217
	H79	H	0.918812	0.901000	0.374622
	H80	H	0.620840	0.085094	0.901862
	H81	H	0.389376	0.080024	0.078589
	H82	H	0.620256	0.905133	0.076302
	H83	H	0.385219	0.894484	0.896364
	H84	H	0.624506	0.900401	0.085553
	H85	H	0.385599	0.083164	0.087737
	H86	H	0.623092	0.082075	0.892415
	H87	H	0.390195	0.901941	0.906111
	H88	H	0.917641	0.079782	0.603411
	H89	H	0.099231	0.086748	0.370189
	H90	H	0.096949	0.899645	0.608603
	H91	H	0.916818	0.895743	0.371900
	H92	H	0.095137	0.608732	0.894182
	H93	H	0.094560	0.376670	0.086426
	H94	H	0.903100	0.612452	0.085809
	H95	H	0.911348	0.375681	0.895740
	H96	H	0.403078	0.110408	0.584257
	H97	H	0.604253	0.873964	0.576596
	H98	H	0.596819	0.107189	0.393399
	H99	H	0.418618	0.877002	0.398787
	H100	H	0.593952	0.394928	0.109832
	H101	H	0.602321	0.582629	0.871622
	H102	H	0.410431	0.587994	0.108351
	H103	H	0.414643	0.407050	0.875196
	H104	H	0.126934	0.594368	0.396007
	H105	H	0.889388	0.581393	0.580996
	H106	H	0.123691	0.400406	0.584701
	H107	H	0.884920	0.400332	0.388303
	H108	H	0.916355	0.609630	0.092546
	H109	H	0.097075	0.379156	0.078523
	H110	H	0.097135	0.607331	0.898731
	H111	H	0.915594	0.377354	0.898608
	H112	H	0.093712	0.899580	0.607334
	H113	H	0.098083	0.081207	0.372790
	H114	H	0.916588	0.093283	0.608412
	H115	H	0.912633	0.899731	0.372604
	H116	H	0.625266	0.091198	0.895123
	H117	H	0.386470	0.090385	0.080263
	H118	H	0.624354	0.894733	0.076120
	H119	H	0.388388	0.906678	0.893509
	C120	C	0.382036	0.000187	0.612467
	C121	C	0.626899	0.982624	0.610642
	C122	C	0.627967	-0.000539	0.366766
	C123	C	0.383632	0.982703	0.368355
	C124	C	0.625114	0.370988	0.000079
	C125	C	0.624839	0.614170	0.982013
	C126	C	0.382707	0.616302	-0.001546
	C127	C	0.383303	0.371242	0.981806
	C128	C	0.014951	0.613456	0.369388
	C129	C	0.996718	0.613373	0.611679
	C130	C	0.014275	0.370326	0.610686
	C131	C	0.996577	0.370297	0.368437
	C132	C	0.882016	0.501762	0.114070
	C133	C	0.126804	0.484578	0.111680
	C134	C	0.127210	0.501037	0.867432
	C135	C	0.882819	0.483717	0.869078
	C136	C	0.126743	0.869308	0.499650
	C137	C	0.125955	0.113089	0.481057
	C138	C	0.883406	0.113880	0.498611
	C139	C	0.884529	0.870022	0.481269
	C140	C	0.513935	0.114941	0.867891
	C141	C	0.496015	0.113197	0.110986
	C142	C	0.514232	0.871538	0.109636
	C143	C	0.496779	0.871402	0.868838
	C144	C	0.385090	0.878028	0.668624
	C145	C	0.625339	0.105650	0.665798
	C146	C	0.627620	0.877190	0.309659
	C147	C	0.384589	0.104778	0.311928
	C148	C	0.682254	0.373631	0.876375
	C149	C	0.680251	0.613486	0.105693
	C150	C	0.328669	0.612912	0.874363
	C151	C	0.327751	0.375688	0.105782
	C152	C	0.891331	0.669903	0.371063
	C153	C	0.120253	0.669172	0.611358
	C154	C	0.890160	0.315494	0.609793
	C155	C	0.120421	0.314075	0.368068
	C156	C	0.889713	0.373670	0.665954
	C157	C	0.120870	0.610216	0.666460
	C158	C	0.890529	0.611475	0.315343
	C159	C	0.121179	0.373735	0.313498
	C160	C	0.383924	0.672053	0.875206
	C161	C	0.623881	0.671738	0.104630
	C162	C	0.626387	0.314834	0.876557
	C163	C	0.381937	0.314760	0.104956
	C164	C	0.685616	0.877533	0.367123
	C165	C	0.682453	0.105415	0.608361
	C166	C	0.326372	0.877813	0.612116
	C167	C	0.326841	0.104813	0.370306
	C168	C	0.884883	0.378675	0.168375
	C169	C	0.124730	0.606949	0.167537
	C170	C	0.124990	0.377721	0.812743
	C171	C	0.884147	0.606052	0.812796
	C172	C	0.183019	0.870935	0.375701
	C173	C	0.179630	0.109693	0.605545
	C174	C	0.829403	0.110093	0.374248
	C175	C	0.828266	0.873459	0.605101
	C176	C	0.390026	0.170538	0.869986
	C177	C	0.619767	0.169186	0.109803
	C178	C	0.390362	0.815987	0.110071
	C179	C	0.619544	0.813892	0.867403
	C180	C	0.390537	0.872259	0.167097
	C181	C	0.620669	0.110514	0.165464
	C182	C	0.390092	0.113037	0.812567
	C183	C	0.621092	0.873691	0.812918
	C184	C	0.884505	0.169706	0.375073
	C185	C	0.124951	0.169631	0.604515
	C186	C	0.127459	0.812959	0.376676
	C187	C	0.883527	0.813936	0.604542
	C188	C	0.183965	0.378761	0.869190
	C189	C	0.181039	0.607853	0.108696
	C190	C	0.826429	0.379289	0.111735
	C191	C	0.827332	0.606520	0.871853
	C192	C	0.404483	0.085291	0.588856
	C193	C	0.604487	0.896844	0.588833
	C194	C	0.604163	0.084495	0.390010
	C195	C	0.406773	0.897517	0.391160
	C196	C	0.601182	0.393274	0.086050
	C197	C	0.602421	0.590847	0.896041
	C198	C	0.404730	0.594495	0.085185
	C199	C	0.407673	0.393253	0.895711
	C200	C	0.101224	0.590778	0.391520
	C201	C	0.910290	0.591318	0.588841
	C202	C	0.100894	0.392168	0.587777
	C203	C	0.909969	0.392229	0.391681
	C204	C	0.904509	0.587429	0.091755
	C205	C	0.104672	0.399171	0.089470
	C206	C	0.104289	0.586450	0.889682
	C207	C	0.905705	0.398360	0.891993
	C208	C	0.102716	0.891979	0.585736
	C209	C	0.103770	0.090773	0.394593
	C210	C	0.906240	0.091946	0.584752
	C211	C	0.909041	0.892262	0.395411
	C212	C	0.600645	0.092693	0.890137
	C213	C	0.409719	0.090949	0.088706
	C214	C	0.600701	0.893605	0.086124
	C215	C	0.410581	0.894346	0.891955
	Zn216	Zn	0.505931	-0.007554	0.740264
	Zn217	Zn	0.505926	-0.008941	0.238353
	Zn218	Zn	0.753530	0.493265	-0.008027
	Zn219	Zn	0.255540	0.493621	-0.010489
	Zn220	Zn	0.006004	0.741272	0.490764
	Zn221	Zn	0.005265	0.242116	0.489418
	Zn222	Zn	0.005132	0.491731	0.739053
	Zn223	Zn	0.005281	0.492357	0.241168
	Zn224	Zn	0.504483	0.743395	-0.010155
	Zn225	Zn	0.504776	0.242266	-0.009159
	Zn226	Zn	0.755905	-0.008863	0.489434
	Zn227	Zn	0.253328	-0.009363	0.490638
	N228	N	0.418910	0.955228	0.669284
	N229	N	0.591479	0.028375	0.667500
	N230	N	0.592671	0.954179	0.309127
	N231	N	0.419195	0.027819	0.310763
	N232	N	0.681895	0.407632	0.954085
	N233	N	0.680730	0.578177	0.028564
	N234	N	0.327701	0.579027	0.952254
	N235	N	0.328579	0.410086	0.028069
	N236	N	0.969934	0.671491	0.403984
	N237	N	0.041899	0.671509	0.578185
	N238	N	0.968678	0.313227	0.576228
	N239	N	0.041930	0.311686	0.401369
	N240	N	0.967863	0.407142	0.666634
	N241	N	0.042921	0.576383	0.666901
	N242	N	0.968195	0.577100	0.314269
	N243	N	0.042942	0.407638	0.313264
	N244	N	0.416560	0.674411	0.953545
	N245	N	0.590408	0.672295	0.026601
	N246	N	0.591739	0.312788	0.954557
	N247	N	0.415645	0.311819	0.026630
	N248	N	0.685976	0.954400	0.401743
	N249	N	0.683392	0.028068	0.574733
	N250	N	0.324428	0.954710	0.577826
	N251	N	0.325930	0.027876	0.404613
	N252	N	0.918439	0.455933	0.170257
	N253	N	0.091658	0.529406	0.169306
	N254	N	0.090553	0.454805	0.811323
	N255	N	0.918063	0.528650	0.810881
	N256	N	0.182631	0.905309	0.453352
	N257	N	0.180330	0.075268	0.527911
	N258	N	0.828439	0.076195	0.452000
	N259	N	0.828766	0.907546	0.527519
	N260	N	0.468270	0.171874	0.903539
	N261	N	0.541306	0.171184	0.076794
	N262	N	0.468356	0.815323	0.075079
	N263	N	0.541184	0.812141	0.901116
	N264	N	0.468473	0.906167	0.166855
	N265	N	0.542738	0.076504	0.166573
	N266	N	0.468118	0.079091	0.811130
	N267	N	0.543713	0.908901	0.813593
	N268	N	0.917318	0.172403	0.453440
	N269	N	0.092342	0.171871	0.526037
	N270	N	0.093165	0.811545	0.454715
	N271	N	0.917794	0.811455	0.526471
	N272	N	0.185627	0.456397	0.902209
	N273	N	0.182456	0.530676	0.074620
	N274	N	0.824324	0.457019	0.078939
	N275	N	0.826453	0.529494	0.906141
	O276	O	0.977559	-0.132383	0.952797
	H277	H	0.978754	-0.138767	0.946976
	H278	H	0.982009	-0.124338	0.962851
	O279	O	0.370357	0.452426	0.448999
	H280	H	0.365717	0.450056	0.444593
	H281	H	0.375582	0.448913	0.456893
	O282	O	0.431605	0.418173	0.514395
	H283	H	0.445452	0.415527	0.508183
	H284	H	0.418361	0.419214	0.508142
	O285	O	0.562952	0.344460	0.562365
	H286	H	0.567654	0.349804	0.568455
	H287	H	0.554869	0.332772	0.570922
	O288	O	0.578889	0.453889	0.476214
	H289	H	0.570519	0.462623	0.483042
	H290	H	0.587323	0.450052	0.472106
	O291	O	0.084755	-0.030982	0.926334
	H292	H	0.096636	-0.045827	0.921581
	H293	H	0.089927	-0.027667	0.923507
	O294	O	0.973050	1.110036	-0.148325
	H295	H	0.990139	1.114786	-0.125335
	H296	H	0.968856	1.106628	-0.148118
	O297	O	1.013098	0.952332	0.145456
	H298	H	1.009644	0.948514	0.145446
	H299	H	1.008025	0.955776	0.141727
	O300	O	0.501049	0.525054	0.519363
	H301	H	0.496221	0.512130	0.508466
	H302	H	0.516361	0.528782	0.520284
	O303	O	0.043806	0.911311	0.941774
	H304	H	0.043785	0.921542	0.944969
	H305	H	0.034003	0.912974	0.936554
	O306	O	0.423689	0.463060	0.444625
	H307	H	0.428964	0.469087	0.440502
	H308	H	0.418830	0.462439	0.436938
	O309	O	0.502273	0.427404	0.549081
	H310	H	0.496594	0.422911	0.554268
	H311	H	0.498922	0.424268	0.553931
	O312	O	1.449097	1.554452	1.397318
	H313	H	1.443826	1.561182	1.390870
	H314	H	1.453817	1.553112	1.398115
	O315	O	1.437714	1.432264	-0.337575
	H316	H	1.440244	1.430654	-0.345457
	H317	H	1.430169	1.428812	-0.338439
	O318	O	0.142095	1.109427	1.076907
	H319	H	0.146511	1.118766	1.087457
	H320	H	0.135586	1.113574	1.084334
	O321	O	0.586384	0.456737	0.397847
	H322	H	0.604561	0.447030	0.401203
	H323	H	0.593342	0.453707	0.395853
	O324	O	-0.003990	0.976360	0.872734
	H325	H	-0.005377	0.967832	0.867992
	H326	H	0.004904	0.972132	0.872162
	O327	O	-0.060553	0.942078	1.124987
	H328	H	-0.059427	0.947821	1.128179
	H329	H	-0.053924	0.948529	1.133150
	O330	O	-0.438517	0.500499	0.503140
	H331	H	-0.438274	0.507596	0.499216
	H332	H	-0.437903	0.506323	0.508899
	O333	O	0.392230	0.620889	0.486996
	H334	H	0.393645	0.599623	0.499208
	H335	H	0.372749	0.642595	0.481528
	O336	O	-0.950897	-1.110235	1.099556
	H337	H	-0.960709	-1.097720	1.091008
	H338	H	-0.935850	-1.118331	1.098800
	O339	O	-0.071412	0.129306	0.085219
	H340	H	-0.066583	0.129387	0.073982
	H341	H	-0.058017	0.135947	0.085631
	O342	O	0.642983	0.645921	0.548022
	H343	H	0.638327	0.639213	0.563738
	H344	H	0.657483	0.650732	0.545132
	O345	O	0.538771	0.349257	1.478295
	H346	H	0.550214	0.350095	1.468239
	H347	H	0.521136	0.347508	1.479959
	O348	O	0.568142	0.579539	0.571216
	H349	H	0.564906	0.576895	0.570011
	H350	H	0.561706	0.578150	0.590588
	O351	O	0.571056	0.375441	-0.630266
	H352	H	0.574303	0.374391	-0.628527
	H353	H	0.582288	0.372593	-0.624180
	O354	O	-0.046867	0.919560	-0.098571
	H355	H	-0.040404	0.921873	-0.088649
	H356	H	-0.050526	0.905865	-0.095632
	O357	O	0.516241	0.506464	0.507407
	H358	H	0.505711	0.504914	0.512543
	H359	H	0.510362	0.499327	0.513956
	O360	O	0.941186	-0.030059	0.887288
	H361	H	0.954716	-0.028686	0.882302
	H362	H	0.945053	-0.043138	0.881027
	O363	O	0.480765	0.493743	0.426442
	H364	H	0.472169	0.490026	0.422049
	H365	H	0.493922	0.500135	0.423494
	O366	O	0.453453	0.487601	0.525102
	H367	H	0.460341	0.486314	0.533027
	H368	H	0.460300	0.492383	0.513473
	O369	O	0.950335	-0.063246	-0.113223
	H370	H	0.946603	-0.088464	-0.113557
	H371	H	0.937616	-0.054742	-0.096347
	O372	O	0.614268	0.533137	0.451233
	H373	H	0.621688	0.522234	0.442187
	H374	H	0.614762	0.528609	0.450423
	O375	O	0.894991	-0.013582	0.982326
	H376	H	0.893701	-0.022477	0.970120
	H377	H	0.898064	-0.017180	0.974302
	O378	O	0.055132	1.113761	-0.029265
	H379	H	0.049356	1.090428	-0.020092
	H380	H	0.058527	1.109558	-0.036838
	O381	O	0.092434	0.982335	0.940355
	H382	H	0.090664	0.976744	0.937073
	H383	H	0.098112	0.987620	0.939118
	O384	O	0.988887	1.107704	0.039794
	H385	H	0.981471	1.110522	0.031749
	H386	H	0.994207	1.109259	0.046641
	O387	O	1.073988	-0.085184	0.959939
	H388	H	1.076812	-0.083719	0.970953
	H389	H	1.071581	-0.086146	0.966528
	O390	O	1.007268	1.084950	-0.006559
	H391	H	0.993479	1.074505	-0.014822
	H392	H	1.005071	1.089756	-0.020588
	O393	O	0.104530	1.086572	0.072844
	H394	H	0.104043	1.086479	0.077733
	H395	H	0.111718	1.095096	0.083115
