data_Molecule from HDF5

_cell_length_a		16.156562
_cell_length_b		16.236514
_cell_length_c		16.190616
_cell_angle_alpha	90.115992
_cell_angle_beta	89.767809
_cell_angle_gamma	90.650157
_symmetry_space_group_name_H-M	'P 1'
_symmetry_Int_Tables_number		1

loop_
	_symmetry_equiv_pos_as_xyz
	x,y,z

loop_
	_atom_site_label
	_atom_site_type_symbol
	_atom_site_fract_x
	_atom_site_fract_y
	_atom_site_fract_z
	H0	H	0.397959	0.838471	0.709703
	H1	H	0.599281	0.166699	0.708572
	H2	H	0.596130	0.838272	0.279919
	H3	H	0.403933	0.167628	0.283250
	H4	H	0.710924	0.406789	0.831115
	H5	H	0.712805	0.603337	0.162041
	H6	H	0.287786	0.599200	0.830830
	H7	H	0.283049	0.403631	0.160441
	H8	H	0.833926	0.712736	0.400183
	H9	H	0.164491	0.718569	0.595420
	H10	H	0.835528	0.285375	0.597040
	H11	H	0.165998	0.292500	0.398778
	H12	H	0.833869	0.403158	0.709538
	H13	H	0.164657	0.602120	0.709506
	H14	H	0.833931	0.598370	0.284355
	H15	H	0.163720	0.404894	0.280404
	H16	H	0.402885	0.715203	0.831476
	H17	H	0.598611	0.720017	0.160986
	H18	H	0.597794	0.290163	0.831712
	H19	H	0.397584	0.287394	0.160882
	H20	H	0.711511	0.837287	0.395559
	H21	H	0.714530	0.166704	0.593655
	H22	H	0.284129	0.838312	0.593187
	H23	H	0.288600	0.167549	0.398352
	H24	H	0.897413	0.337542	0.208590
	H25	H	0.098871	0.666337	0.210453
	H26	H	0.096288	0.338847	0.781576
	H27	H	0.903118	0.666797	0.783469
	H28	H	0.212549	0.905271	0.331468
	H29	H	0.213252	0.100943	0.660920
	H30	H	0.788697	0.098844	0.330876
	H31	H	0.783667	0.902323	0.660501
	H32	H	0.333781	0.214324	0.896724
	H33	H	0.664036	0.217997	0.091805
	H34	H	0.334528	0.787831	0.095123
	H35	H	0.664428	0.791127	0.895738
	H36	H	0.334093	0.904166	0.208404
	H37	H	0.664761	0.103547	0.208082
	H38	H	0.334131	0.098959	0.781867
	H39	H	0.664177	0.906620	0.781433
	H40	H	0.903429	0.215008	0.331050
	H41	H	0.100890	0.218748	0.660621
	H42	H	0.098266	0.788665	0.331862
	H43	H	0.899029	0.786778	0.660958
	H44	H	0.210998	0.338293	0.896458
	H45	H	0.214694	0.666228	0.095431
	H46	H	0.782005	0.338664	0.094235
	H47	H	0.789656	0.668131	0.900768
	H48	H	0.394366	0.122037	0.583670
	H49	H	0.580630	0.885576	0.596207
	H50	H	0.606575	0.123406	0.398403
	H51	H	0.409964	0.886070	0.399053
	H52	H	0.586056	0.410877	0.113037
	H53	H	0.589628	0.596165	0.880937
	H54	H	0.395513	0.591779	0.116256
	H55	H	0.408471	0.407739	0.879172
	H56	H	0.121761	0.604906	0.397304
	H57	H	0.879778	0.597786	0.594515
	H58	H	0.116679	0.407931	0.583861
	H59	H	0.886219	0.414840	0.412237
	H60	H	0.116230	0.417019	0.590769
	H61	H	0.883023	0.595838	0.584996
	H62	H	0.115116	0.598358	0.412869
	H63	H	0.878974	0.410575	0.393226
	H64	H	0.414155	0.587504	0.109004
	H65	H	0.595282	0.602671	0.877324
	H66	H	0.591714	0.406705	0.115689
	H67	H	0.403499	0.404828	0.877083
	H68	H	0.585511	0.119063	0.394389
	H69	H	0.589246	0.888350	0.576386
	H70	H	0.408850	0.124842	0.603603
	H71	H	0.403974	0.886904	0.407784
	H72	H	0.904245	0.620220	0.092608
	H73	H	0.099746	0.381803	0.089603
	H74	H	0.091534	0.622111	0.894796
	H75	H	0.907517	0.384123	0.898258
	H76	H	0.088732	0.902409	0.616178
	H77	H	0.093877	0.091643	0.380588
	H78	H	0.911089	0.101672	0.615283
	H79	H	0.910200	0.904425	0.379300
	H80	H	0.618112	0.102801	0.901845
	H81	H	0.382767	0.095170	0.083459
	H82	H	0.615672	0.911082	0.081448
	H83	H	0.380257	0.905468	0.901203
	H84	H	0.616788	0.917348	0.091114
	H85	H	0.381542	0.089207	0.093621
	H86	H	0.615296	0.096379	0.905973
	H87	H	0.381775	0.907453	0.905175
	H88	H	0.899490	0.093124	0.615747
	H89	H	0.088750	0.100857	0.378049
	H90	H	0.098902	0.913456	0.615255
	H91	H	0.903201	0.904736	0.376289
	H92	H	0.088455	0.616511	0.909154
	H93	H	0.083370	0.384312	0.096678
	H94	H	0.907718	0.620952	0.093660
	H95	H	0.905172	0.386974	0.908018
	H96	H	0.418389	0.115285	0.582602
	H97	H	0.602352	0.880213	0.592639
	H98	H	0.593911	0.115989	0.414059
	H99	H	0.400457	0.882663	0.399170
	H100	H	0.592443	0.414090	0.113969
	H101	H	0.597621	0.594317	0.878176
	H102	H	0.409552	0.606836	0.116684
	H103	H	0.403836	0.410931	0.878172
	H104	H	0.115967	0.587112	0.397593
	H105	H	0.882185	0.588020	0.592309
	H106	H	0.120558	0.407575	0.594413
	H107	H	0.879685	0.395569	0.407428
	H108	H	0.906613	0.619669	0.089725
	H109	H	0.086562	0.388368	0.079102
	H110	H	0.102816	0.622237	0.905293
	H111	H	0.898126	0.383178	0.901358
	H112	H	0.085481	0.916074	0.610533
	H113	H	0.099377	0.099780	0.376108
	H114	H	0.911854	0.088138	0.609852
	H115	H	0.906692	0.910925	0.379339
	H116	H	0.618025	0.095982	0.897657
	H117	H	0.378833	0.100691	0.092666
	H118	H	0.620185	0.906268	0.091300
	H119	H	0.381167	0.910028	0.901863
	C120	C	0.377650	0.011614	0.617768
	C121	C	0.620601	0.993548	0.616763
	C122	C	0.622264	0.010781	0.373193
	C123	C	0.378054	0.994255	0.373950
	C124	C	0.618950	0.382842	0.005099
	C125	C	0.622041	0.626246	0.987869
	C126	C	0.378373	0.623411	0.005122
	C127	C	0.375939	0.379519	0.987393
	C128	C	0.008256	0.623390	0.375120
	C129	C	0.990663	0.623754	0.618729
	C130	C	0.008533	0.381113	0.618220
	C131	C	0.990834	0.380159	0.375142
	C132	C	0.876459	0.511255	0.119055
	C133	C	0.119772	0.493534	0.117173
	C134	C	0.121338	0.511599	0.874280
	C135	C	0.877419	0.493994	0.875337
	C136	C	0.120260	0.881706	0.505066
	C137	C	0.122602	0.125951	0.487297
	C138	C	0.879573	0.122519	0.504460
	C139	C	0.877432	0.878555	0.487373
	C140	C	0.507691	0.125122	0.873725
	C141	C	0.490618	0.124730	0.117774
	C142	C	0.508321	0.881888	0.116792
	C143	C	0.490451	0.881013	0.874130
	C144	C	0.378473	0.887901	0.672280
	C145	C	0.619201	0.117505	0.671129
	C146	C	0.617603	0.887298	0.317574
	C147	C	0.382648	0.118182	0.320118
	C148	C	0.673769	0.386204	0.880604
	C149	C	0.675801	0.623722	0.112435
	C150	C	0.324860	0.620119	0.880408
	C151	C	0.320828	0.382752	0.111356
	C152	C	0.883408	0.676206	0.378968
	C153	C	0.115246	0.679941	0.615544
	C154	C	0.884530	0.324174	0.616487
	C155	C	0.116077	0.328282	0.377801
	C156	C	0.883563	0.383024	0.672389
	C157	C	0.115161	0.622393	0.672482
	C158	C	0.883391	0.619231	0.321437
	C159	C	0.114840	0.384087	0.318870
	C160	C	0.382085	0.677721	0.880577
	C161	C	0.618801	0.681696	0.112061
	C162	C	0.617401	0.328216	0.880864
	C163	C	0.377974	0.324896	0.111286
	C164	C	0.675016	0.886937	0.375110
	C165	C	0.676668	0.117339	0.613824
	C166	C	0.321567	0.887743	0.614624
	C167	C	0.325315	0.118345	0.377377
	C168	C	0.877457	0.387039	0.172327
	C169	C	0.118748	0.617283	0.172632
	C170	C	0.117213	0.387801	0.819197
	C171	C	0.882319	0.617868	0.821352
	C172	C	0.174678	0.884839	0.380698
	C173	C	0.176691	0.122571	0.611464
	C174	C	0.825549	0.119735	0.380346
	C175	C	0.821771	0.881878	0.611387
	C176	C	0.383374	0.177668	0.876552
	C177	C	0.614710	0.180534	0.113555
	C178	C	0.383929	0.825598	0.115542
	C179	C	0.614948	0.828130	0.875962
	C180	C	0.383676	0.883610	0.171553
	C181	C	0.615240	0.123296	0.170956
	C182	C	0.383676	0.120445	0.819283
	C183	C	0.614851	0.885407	0.818780
	C184	C	0.882700	0.177530	0.380551
	C185	C	0.120288	0.180516	0.611385
	C186	C	0.118342	0.826366	0.381108
	C187	C	0.878985	0.824279	0.611611
	C188	C	0.174156	0.387472	0.876552
	C189	C	0.176354	0.617261	0.115163
	C190	C	0.820084	0.387673	0.115219
	C191	C	0.825976	0.618585	0.879613
	C192	C	0.400449	0.098235	0.596258
	C193	C	0.597486	0.907103	0.594946
	C194	C	0.601523	0.097259	0.395554
	C195	C	0.398556	0.907743	0.395620
	C196	C	0.596748	0.404415	0.091825
	C197	C	0.600504	0.604222	0.901347
	C198	C	0.399923	0.601834	0.091579
	C199	C	0.398630	0.401465	0.900595
	C200	C	0.095066	0.602903	0.396233
	C201	C	0.904036	0.600772	0.597077
	C202	C	0.095391	0.404095	0.596285
	C203	C	0.904021	0.400818	0.397615
	C204	C	0.899482	0.597907	0.098417
	C205	C	0.096460	0.407114	0.095051
	C206	C	0.100385	0.598111	0.896339
	C207	C	0.897548	0.407224	0.896329
	C208	C	0.097678	0.903925	0.591752
	C209	C	0.100722	0.103979	0.400524
	C210	C	0.901163	0.100753	0.591222
	C211	C	0.900100	0.900292	0.400742
	C212	C	0.594817	0.104476	0.895325
	C213	C	0.403559	0.101599	0.096396
	C214	C	0.594916	0.904844	0.094408
	C215	C	0.403554	0.901486	0.896283
	Zn216	Zn	0.499101	0.002746	0.745883
	Zn217	Zn	0.499492	0.002604	0.245349
	Zn218	Zn	0.748579	0.503427	-0.003144
	Zn219	Zn	0.249014	0.502260	-0.003903
	Zn220	Zn	-0.000305	0.751592	0.496678
	Zn221	Zn	0.000544	0.252595	0.496383
	Zn222	Zn	-0.000756	0.502474	0.746867
	Zn223	Zn	-0.001493	0.501891	0.246659
	Zn224	Zn	0.499356	0.753313	-0.004111
	Zn225	Zn	0.498727	0.252772	-0.004400
	Zn226	Zn	0.750424	0.001210	0.495557
	Zn227	Zn	0.249573	0.003259	0.496046
	N228	N	0.412472	0.966072	0.674482
	N229	N	0.584818	0.039612	0.672965
	N230	N	0.585678	0.965503	0.316121
	N231	N	0.414585	0.040044	0.317740
	N232	N	0.674886	0.419610	0.958832
	N233	N	0.677772	0.589893	0.034404
	N234	N	0.322760	0.586631	0.958526
	N235	N	0.319437	0.415819	0.033213
	N236	N	0.961900	0.679008	0.411669
	N237	N	0.036875	0.680931	0.582833
	N238	N	0.963178	0.322920	0.583632
	N239	N	0.037971	0.325790	0.411962
	N240	N	0.961649	0.417785	0.673663
	N241	N	0.036761	0.588251	0.674806
	N242	N	0.961913	0.587131	0.318928
	N243	N	0.036025	0.415723	0.317083
	N244	N	0.414625	0.680020	0.958983
	N245	N	0.586109	0.683510	0.033666
	N246	N	0.584060	0.325892	0.959083
	N247	N	0.411458	0.322756	0.032995
	N248	N	0.677888	0.964609	0.409116
	N249	N	0.677695	0.039227	0.580728
	N250	N	0.320900	0.965679	0.581627
	N251	N	0.322174	0.040220	0.410165
	N252	N	0.911721	0.464947	0.174932
	N253	N	0.084264	0.539436	0.173905
	N254	N	0.085038	0.465992	0.817609
	N255	N	0.913392	0.539290	0.818361
	N256	N	0.175864	0.918637	0.458705
	N257	N	0.178073	0.089068	0.533355
	N258	N	0.823615	0.086115	0.458394
	N259	N	0.820533	0.914678	0.532989
	N260	N	0.461538	0.180554	0.909725
	N261	N	0.536036	0.181519	0.081219
	N262	N	0.462236	0.824499	0.081997
	N263	N	0.536691	0.825008	0.909489
	N264	N	0.461927	0.918019	0.172401
	N265	N	0.536862	0.089434	0.173676
	N266	N	0.462065	0.088329	0.817434
	N267	N	0.536297	0.917675	0.817580
	N268	N	0.915816	0.179229	0.458773
	N269	N	0.087653	0.182934	0.532949
	N270	N	0.084879	0.824548	0.459435
	N271	N	0.912884	0.822191	0.533559
	N272	N	0.176961	0.465518	0.909848
	N273	N	0.177001	0.539324	0.081548
	N274	N	0.819071	0.465949	0.083116
	N275	N	0.822923	0.540626	0.912524
	O276	O	0.958271	1.028531	-0.026058
	H277	H	0.963146	1.034120	-0.018336
	H278	H	0.956825	1.024051	-0.021082
	O279	O	-0.049394	-0.045132	1.031672
	H280	H	-0.052866	-0.039754	1.029292
	H281	H	-0.044938	-0.041352	1.018143
	O282	O	0.011550	-0.014054	0.004820
	H283	H	0.018439	-0.015278	0.012278
	H284	H	0.004364	-0.019413	0.005281
	O285	O	0.483411	0.491058	0.489607
	H286	H	0.495752	0.493417	0.485793
	H287	H	0.492405	0.493433	0.486701
	O288	O	0.063967	0.019745	0.015631
	H289	H	0.065089	0.007863	0.015967
	H290	H	0.065574	0.026099	0.020027
	O291	O	0.000547	1.067742	0.091810
	H292	H	0.005963	1.067982	0.083518
	H293	H	-0.005124	1.062775	0.094185
	O294	O	-0.014129	0.991334	-0.053051
	H295	H	-0.018089	0.989523	-0.056658
	H296	H	-0.001671	1.000813	-0.046863
	O297	O	0.550667	0.531285	0.492552
	H298	H	0.547962	0.528121	0.498872
	H299	H	0.540234	0.525887	0.493218
	O300	O	0.457165	0.493922	0.515709
	H301	H	0.453822	0.497571	0.510730
	H302	H	0.462748	0.493410	0.513970
	O303	O	0.996737	0.092595	0.967716
	H304	H	1.000771	0.082742	0.958458
	H305	H	0.990489	0.100130	0.978646
	O306	O	0.082693	1.038488	1.007527
	H307	H	0.091117	1.032149	1.019502
	H308	H	0.078199	1.035128	1.014498
	O309	O	0.034140	0.972680	0.983750
	H310	H	0.042648	0.969655	0.979766
	H311	H	0.039814	0.977859	0.979374
	O312	O	-0.017707	-0.008085	0.935392
	H313	H	-0.023191	-0.007424	0.924764
	H314	H	-0.005908	-0.009317	0.940212
	O315	O	0.471102	0.474663	0.499036
	H316	H	0.470614	0.461549	0.497692
	H317	H	0.486178	0.478534	0.503278
	O318	O	0.513543	-0.520920	0.530356
	H319	H	0.528193	-0.508020	0.535326
	H320	H	0.519349	-0.520506	0.534234
	O321	O	0.550704	0.489056	0.524348
	H322	H	0.546188	0.482009	0.515831
	H323	H	0.545163	0.487611	0.530234
	O324	O	1.004775	-0.044688	1.013789
	H325	H	1.002099	-0.039349	1.017143
	H326	H	0.996171	-0.053576	1.010734
	O327	O	0.960002	1.004422	1.046412
	H328	H	0.949322	1.004483	1.055055
	H329	H	0.962748	1.007052	1.037133
	O330	O	0.536543	0.405407	0.514728
	H331	H	0.536897	0.404592	0.524873
	H332	H	0.530804	0.411772	0.495506
	O333	O	0.527367	0.439127	0.496870
	H334	H	0.517926	0.430916	0.492631
	H335	H	0.532366	0.442564	0.505331
	O336	O	0.459932	0.482421	0.509950
	H337	H	0.463321	0.482466	0.511073
	H338	H	0.465969	0.480099	0.505901
	O339	O	0.504912	0.469067	0.502111
	H340	H	0.504968	0.457608	0.511553
	H341	H	0.502704	0.466662	0.496684
	O342	O	0.483114	0.467578	0.574057
	H343	H	0.477426	0.470319	0.580782
	H344	H	0.478506	0.467435	0.580488
	O345	O	0.554322	0.445773	0.518222
	H346	H	0.549955	0.437860	0.515233
	H347	H	0.554885	0.442511	0.504630
