data_Molecule from HDF5

_cell_length_a		16.223622
_cell_length_b		16.305188
_cell_length_c		16.155026
_cell_angle_alpha	89.912499
_cell_angle_beta	89.875599
_cell_angle_gamma	89.699215
_symmetry_space_group_name_H-M	'P 1'
_symmetry_Int_Tables_number		1

loop_
	_symmetry_equiv_pos_as_xyz
	x,y,z

loop_
	_atom_site_label
	_atom_site_type_symbol
	_atom_site_fract_x
	_atom_site_fract_y
	_atom_site_fract_z
	H0	H	0.399999	0.838625	0.715810
	H1	H	0.591721	0.166770	0.715662
	H2	H	0.594218	0.838465	0.288097
	H3	H	0.395812	0.166105	0.288461
	H4	H	0.708770	0.403915	0.836657
	H5	H	0.706104	0.599661	0.166746
	H6	H	0.282448	0.600031	0.835838
	H7	H	0.282486	0.406261	0.167113
	H8	H	0.832409	0.720296	0.401796
	H9	H	0.159952	0.715029	0.599388
	H10	H	0.831499	0.289269	0.603089
	H11	H	0.158582	0.287300	0.401895
	H12	H	0.830297	0.407365	0.714922
	H13	H	0.160812	0.597440	0.713053
	H14	H	0.830309	0.601406	0.289929
	H15	H	0.159979	0.405400	0.288456
	H16	H	0.394908	0.718661	0.836966
	H17	H	0.591469	0.715648	0.166429
	H18	H	0.593985	0.288898	0.836822
	H19	H	0.394226	0.288804	0.165310
	H20	H	0.712699	0.839944	0.403045
	H21	H	0.708153	0.167469	0.600570
	H22	H	0.283140	0.838116	0.600226
	H23	H	0.280113	0.165406	0.404560
	H24	H	0.897005	0.338513	0.216330
	H25	H	0.090223	0.667330	0.214019
	H26	H	0.092594	0.338381	0.788980
	H27	H	0.897102	0.666793	0.787960
	H28	H	0.208247	0.905606	0.336637
	H29	H	0.206250	0.098188	0.667727
	H30	H	0.782344	0.102238	0.337229
	H31	H	0.783999	0.906619	0.667298
	H32	H	0.330766	0.217678	0.902206
	H33	H	0.657435	0.218238	0.101312
	H34	H	0.330203	0.790023	0.100990
	H35	H	0.657768	0.785550	0.902210
	H36	H	0.329633	0.906660	0.214102
	H37	H	0.659127	0.098310	0.212663
	H38	H	0.330553	0.100185	0.788147
	H39	H	0.660370	0.904447	0.789200
	H40	H	0.896394	0.218499	0.337916
	H41	H	0.093692	0.216257	0.666520
	H42	H	0.097132	0.787947	0.337928
	H43	H	0.897274	0.789380	0.666197
	H44	H	0.210289	0.339370	0.902916
	H45	H	0.207821	0.667159	0.099711
	H46	H	0.780141	0.339133	0.100271
	H47	H	0.779290	0.666877	0.902181
	H48	H	0.404432	0.118972	0.595727
	H49	H	0.596547	0.889705	0.578211
	H50	H	0.600720	0.121817	0.411031
	H51	H	0.391903	0.884233	0.415718
	H52	H	0.593234	0.404885	0.122516
	H53	H	0.592058	0.590528	0.883802
	H54	H	0.398714	0.603195	0.121368
	H55	H	0.404026	0.412934	0.884323
	H56	H	0.114280	0.595419	0.403653
	H57	H	0.886085	0.587905	0.578911
	H58	H	0.112874	0.407803	0.595762
	H59	H	0.876077	0.409281	0.404309
	H60	H	0.112632	0.406889	0.594953
	H61	H	0.875864	0.588898	0.612025
	H62	H	0.113531	0.600327	0.409291
	H63	H	0.878199	0.405621	0.414848
	H64	H	0.394800	0.592376	0.119899
	H65	H	0.579343	0.593544	0.886599
	H66	H	0.587474	0.418733	0.116966
	H67	H	0.402676	0.406850	0.882959
	H68	H	0.583647	0.121261	0.394491
	H69	H	0.602163	0.879056	0.606754
	H70	H	0.399057	0.118401	0.590683
	H71	H	0.401161	0.881134	0.395776
	H72	H	0.898055	0.620660	0.098221
	H73	H	0.088882	0.382957	0.107595
	H74	H	0.086914	0.622067	0.899114
	H75	H	0.899215	0.387286	0.913641
	H76	H	0.082767	0.901970	0.620517
	H77	H	0.089542	0.093138	0.384651
	H78	H	0.892798	0.087806	0.620568
	H79	H	0.906819	0.909911	0.384449
	H80	H	0.615622	0.108026	0.906098
	H81	H	0.375069	0.103285	0.096357
	H82	H	0.614214	0.906350	0.098295
	H83	H	0.373432	0.906956	0.898263
	H84	H	0.611140	0.904815	0.090495
	H85	H	0.378111	0.095579	0.089639
	H86	H	0.608294	0.093984	0.919577
	H87	H	0.377434	0.903282	0.916928
	H88	H	0.913141	0.095272	0.616170
	H89	H	0.084935	0.096923	0.384726
	H90	H	0.097600	0.905533	0.623364
	H91	H	0.902251	0.909820	0.382818
	H92	H	0.083249	0.617138	0.913022
	H93	H	0.078122	0.391316	0.089391
	H94	H	0.903235	0.618082	0.094345
	H95	H	0.896828	0.383797	0.904137
	H96	H	0.397779	0.120739	0.597404
	H97	H	0.574340	0.889410	0.600170
	H98	H	0.579410	0.114331	0.417666
	H99	H	0.412700	0.889684	0.412327
	H100	H	0.578408	0.406122	0.116964
	H101	H	0.587497	0.603056	0.881717
	H102	H	0.406594	0.595409	0.117008
	H103	H	0.398836	0.411540	0.882662
	H104	H	0.111233	0.593105	0.410517
	H105	H	0.872513	0.616871	0.592637
	H106	H	0.112852	0.408494	0.594833
	H107	H	0.880041	0.416203	0.411508
	H108	H	0.897578	0.619412	0.091964
	H109	H	0.099925	0.385290	0.087961
	H110	H	0.096613	0.621333	0.909348
	H111	H	0.907112	0.386809	0.906523
	H112	H	0.087962	0.915774	0.617599
	H113	H	0.090005	0.099464	0.381997
	H114	H	0.898590	0.109541	0.624850
	H115	H	0.904318	0.914264	0.385245
	H116	H	0.613118	0.087717	0.900271
	H117	H	0.376068	0.093463	0.099974
	H118	H	0.610924	0.912643	0.093939
	H119	H	0.381410	0.920490	0.909251
	C120	C	0.373380	0.010953	0.623521
	C121	C	0.617606	0.994738	0.623339
	C122	C	0.617457	0.011199	0.379485
	C123	C	0.373361	0.993390	0.380289
	C124	C	0.615560	0.381249	0.009781
	C125	C	0.614897	0.623895	0.993332
	C126	C	0.372017	0.625301	0.010394
	C127	C	0.373301	0.382207	0.992486
	C128	C	0.004217	0.625218	0.379906
	C129	C	0.986862	0.624587	0.622883
	C130	C	0.003942	0.380836	0.623745
	C131	C	0.986624	0.381892	0.381051
	C132	C	0.871867	0.511269	0.123838
	C133	C	0.116373	0.494841	0.123016
	C134	C	0.116872	0.511432	0.879617
	C135	C	0.872762	0.494651	0.879925
	C136	C	0.117645	0.880360	0.511081
	C137	C	0.116377	0.123855	0.493304
	C138	C	0.873326	0.125661	0.511286
	C139	C	0.875539	0.882812	0.493335
	C140	C	0.503903	0.124792	0.879970
	C141	C	0.485362	0.124690	0.123194
	C142	C	0.503315	0.880600	0.123097
	C143	C	0.486242	0.881537	0.880280
	C144	C	0.378206	0.887363	0.678206
	C145	C	0.613041	0.118043	0.677927
	C146	C	0.615276	0.887609	0.325476
	C147	C	0.375606	0.117073	0.325895
	C148	C	0.670860	0.383912	0.886033
	C149	C	0.669019	0.620530	0.117405
	C150	C	0.318900	0.621655	0.885533
	C151	C	0.319180	0.385251	0.117232
	C152	C	0.880886	0.681768	0.382030
	C153	C	0.110836	0.677948	0.620301
	C154	C	0.880185	0.326968	0.622458
	C155	C	0.110007	0.326070	0.382665
	C156	C	0.879600	0.385985	0.677785
	C157	C	0.111260	0.619487	0.676800
	C158	C	0.879980	0.622887	0.326099
	C159	C	0.110738	0.384614	0.326300
	C160	C	0.374495	0.680573	0.886181
	C161	C	0.611955	0.678051	0.117218
	C162	C	0.613855	0.326409	0.885971
	C163	C	0.374828	0.326933	0.116482
	C164	C	0.674111	0.888467	0.382534
	C165	C	0.670918	0.118296	0.620540
	C166	C	0.320121	0.887285	0.620774
	C167	C	0.317671	0.116631	0.383241
	C168	C	0.875816	0.387619	0.178754
	C169	C	0.111606	0.618490	0.176587
	C170	C	0.113375	0.387509	0.826298
	C171	C	0.875916	0.618105	0.825488
	C172	C	0.171657	0.884540	0.386362
	C173	C	0.169544	0.119452	0.618172
	C174	C	0.819461	0.122968	0.386823
	C175	C	0.820978	0.885694	0.617668
	C176	C	0.379748	0.179573	0.881895
	C177	C	0.608716	0.179585	0.120890
	C178	C	0.379360	0.827172	0.121104
	C179	C	0.609579	0.824973	0.882326
	C180	C	0.379080	0.885201	0.177294
	C181	C	0.609528	0.120400	0.176664
	C182	C	0.379740	0.120997	0.825721
	C183	C	0.610585	0.883611	0.825933
	C184	C	0.875965	0.180641	0.387139
	C185	C	0.113114	0.177885	0.617737
	C186	C	0.116302	0.826104	0.386899
	C187	C	0.877581	0.827463	0.617230
	C188	C	0.172203	0.388143	0.882560
	C189	C	0.169822	0.618417	0.119629
	C190	C	0.817609	0.387863	0.121313
	C191	C	0.817385	0.617849	0.882389
	C192	C	0.394265	0.097244	0.601262
	C193	C	0.597039	0.908204	0.601372
	C194	C	0.594736	0.096981	0.401393
	C195	C	0.395478	0.907178	0.401708
	C196	C	0.592752	0.403255	0.096489
	C197	C	0.592813	0.601973	0.906270
	C198	C	0.393490	0.603508	0.097182
	C199	C	0.395444	0.403863	0.905818
	C200	C	0.090616	0.602883	0.401499
	C201	C	0.900434	0.603849	0.600973
	C202	C	0.090558	0.401513	0.601776
	C203	C	0.900359	0.403869	0.403584
	C204	C	0.893302	0.597095	0.101473
	C205	C	0.095188	0.408827	0.101358
	C206	C	0.095316	0.597840	0.900907
	C207	C	0.894533	0.408228	0.901570
	C208	C	0.095857	0.901527	0.598158
	C209	C	0.094693	0.102685	0.406470
	C210	C	0.894928	0.103943	0.598110
	C211	C	0.897901	0.904801	0.406439
	C212	C	0.590108	0.103104	0.902183
	C213	C	0.398727	0.103657	0.101593
	C214	C	0.589817	0.901597	0.100727
	C215	C	0.399923	0.903778	0.901706
	Zn216	Zn	0.495446	0.002886	0.751707
	Zn217	Zn	0.494624	0.002191	0.251058
	Zn218	Zn	0.743558	0.502887	0.001530
	Zn219	Zn	0.245399	0.502838	0.001473
	Zn220	Zn	-0.003860	0.753400	0.501567
	Zn221	Zn	-0.004812	0.252749	0.502466
	Zn222	Zn	-0.004864	0.502959	0.751106
	Zn223	Zn	-0.005560	0.502959	0.252218
	Zn224	Zn	0.493811	0.752696	0.001776
	Zn225	Zn	0.493919	0.253437	0.001215
	Zn226	Zn	0.746748	0.003995	0.501906
	Zn227	Zn	0.244649	0.001895	0.502188
	N228	N	0.410651	0.965141	0.679843
	N229	N	0.580692	0.040231	0.679646
	N230	N	0.580790	0.964894	0.323355
	N231	N	0.409645	0.039498	0.324064
	N232	N	0.671763	0.417501	0.963950
	N233	N	0.670588	0.587349	0.039194
	N234	N	0.317172	0.588164	0.963590
	N235	N	0.318139	0.418903	0.039080
	N236	N	0.959127	0.683158	0.414885
	N237	N	0.032717	0.681069	0.587446
	N238	N	0.958435	0.323661	0.589438
	N239	N	0.031838	0.324278	0.416069
	N240	N	0.957510	0.418845	0.678646
	N241	N	0.033149	0.586994	0.678546
	N242	N	0.957395	0.588197	0.324777
	N243	N	0.033077	0.418489	0.325042
	N244	N	0.407012	0.682881	0.964838
	N245	N	0.579031	0.680159	0.038828
	N246	N	0.579744	0.324879	0.964117
	N247	N	0.407830	0.324987	0.038090
	N248	N	0.675378	0.966280	0.415509
	N249	N	0.673639	0.040641	0.587176
	N250	N	0.317345	0.965121	0.587358
	N251	N	0.316241	0.038930	0.416187
	N252	N	0.908849	0.465348	0.180603
	N253	N	0.078987	0.540854	0.178877
	N254	N	0.079684	0.465200	0.824239
	N255	N	0.909538	0.540586	0.823682
	N256	N	0.172713	0.917596	0.464674
	N257	N	0.171347	0.086419	0.539916
	N258	N	0.817916	0.089441	0.464876
	N259	N	0.819872	0.919408	0.539637
	N260	N	0.457758	0.181976	0.915051
	N261	N	0.530320	0.182638	0.088539
	N262	N	0.457556	0.824088	0.088193
	N263	N	0.531292	0.823331	0.915369
	N264	N	0.457126	0.917835	0.178698
	N265	N	0.531799	0.087101	0.178320
	N266	N	0.457809	0.087832	0.824189
	N267	N	0.533158	0.918402	0.824823
	N268	N	0.908654	0.182495	0.465726
	N269	N	0.080801	0.180712	0.539131
	N270	N	0.083331	0.823377	0.465373
	N271	N	0.910911	0.825638	0.538750
	N272	N	0.174248	0.466117	0.915106
	N273	N	0.172942	0.540464	0.087166
	N274	N	0.815066	0.465437	0.088098
	N275	N	0.815380	0.539983	0.915405
	O276	O	0.562043	0.479881	0.455712
	H277	H	0.566505	0.470856	0.448262
	H278	H	0.562749	0.472177	0.446211
	O279	O	-0.019844	-0.050346	0.043308
	H280	H	-0.011432	-0.053961	0.042576
	H281	H	-0.020371	-0.050247	0.039129
	O282	O	0.552432	0.481098	0.483193
	H283	H	0.558157	0.496208	0.483796
	H284	H	0.555985	0.480500	0.486530
	O285	O	0.530288	0.467671	0.497299
	H286	H	0.533053	0.462952	0.496150
	H287	H	0.521034	0.479465	0.495626
	O288	O	0.969113	-0.053421	0.041497
	H289	H	0.968759	-0.052197	0.037434
	H290	H	0.969347	-0.057945	0.043213
	O291	O	-0.435286	0.514764	-0.567495
	H292	H	-0.438199	0.509460	-0.569580
	H293	H	-0.435627	0.519785	-0.570026
	O294	O	0.531764	0.508095	0.500118
	H295	H	0.543679	0.506433	0.494338
	H296	H	0.539750	0.506559	0.508197
	O297	O	0.512336	1.482079	0.531167
	H298	H	0.523338	1.481185	0.536583
	H299	H	0.515120	1.490824	0.541751
	O300	O	1.516370	0.465062	0.458711
	H301	H	1.516959	0.451268	0.451585
	H302	H	1.508663	0.465366	0.458521
	O303	O	0.540468	0.462209	0.430647
	H304	H	0.540274	0.468358	0.430680
	H305	H	0.531582	0.457978	0.426581
	O306	O	0.316074	0.677040	1.341910
	H307	H	0.316571	0.670647	1.344061
	H308	H	0.316143	0.676573	1.342754
	O309	O	0.553142	0.493291	0.480349
	H310	H	0.554368	0.493414	0.484020
	H311	H	0.549859	0.491359	0.477210
