data_Molecule from HDF5

_cell_length_a		16.195304
_cell_length_b		16.137297
_cell_length_c		16.219018
_cell_angle_alpha	90.815625
_cell_angle_beta	89.234514
_cell_angle_gamma	89.130086
_symmetry_space_group_name_H-M	'P 1'
_symmetry_Int_Tables_number		1

loop_
	_symmetry_equiv_pos_as_xyz
	x,y,z

loop_
	_atom_site_label
	_atom_site_type_symbol
	_atom_site_fract_x
	_atom_site_fract_y
	_atom_site_fract_z
	H0	H	0.396011	0.842777	0.726535
	H1	H	0.592169	0.171072	0.729453
	H2	H	0.599554	0.842811	0.293437
	H3	H	0.395184	0.173521	0.303216
	H4	H	0.715565	0.402142	0.849743
	H5	H	0.704268	0.606829	0.178528
	H6	H	0.281445	0.606373	0.848076
	H7	H	0.278615	0.410917	0.175689
	H8	H	0.831845	0.722765	0.420958
	H9	H	0.160712	0.721254	0.612809
	H10	H	0.830173	0.301573	0.611330
	H11	H	0.159077	0.287140	0.410495
	H12	H	0.833012	0.413413	0.729890
	H13	H	0.161517	0.604932	0.725868
	H14	H	0.830949	0.608691	0.304379
	H15	H	0.159352	0.402221	0.294521
	H16	H	0.396949	0.718966	0.847333
	H17	H	0.590027	0.723917	0.175632
	H18	H	0.598106	0.289175	0.848519
	H19	H	0.397747	0.298686	0.177916
	H20	H	0.714754	0.843035	0.408131
	H21	H	0.704012	0.172651	0.612155
	H22	H	0.281436	0.843003	0.612190
	H23	H	0.278611	0.172817	0.417955
	H24	H	0.896992	0.342638	0.227296
	H25	H	0.090559	0.671934	0.229818
	H26	H	0.100692	0.344348	0.794621
	H27	H	0.896560	0.673484	0.805067
	H28	H	0.215106	0.902870	0.349802
	H29	H	0.203752	0.106962	0.677791
	H30	H	0.781111	0.106691	0.348314
	H31	H	0.777780	0.912133	0.676521
	H32	H	0.331486	0.223253	0.917708
	H33	H	0.661288	0.219441	0.109500
	H34	H	0.328320	0.799691	0.110061
	H35	H	0.658319	0.786495	0.907818
	H36	H	0.331347	0.911588	0.229689
	H37	H	0.660945	0.105098	0.226052
	H38	H	0.330418	0.106948	0.803757
	H39	H	0.658300	0.901743	0.792364
	H40	H	0.896278	0.221630	0.349127
	H41	H	0.088731	0.221289	0.677423
	H42	H	0.099196	0.787589	0.350456
	H43	H	0.896893	0.800450	0.679585
	H44	H	0.213312	0.343313	0.910450
	H45	H	0.205297	0.673144	0.113749
	H46	H	0.784803	0.341496	0.110338
	H47	H	0.780066	0.671693	0.918959
	H48	H	0.405465	0.125081	0.612849
	H49	H	0.596415	0.886790	0.600456
	H50	H	0.575808	0.117782	0.429567
	H51	H	0.407360	0.894394	0.430229
	H52	H	0.591601	0.412529	0.131331
	H53	H	0.590693	0.593408	0.895369
	H54	H	0.402526	0.599539	0.128090
	H55	H	0.408994	0.421673	0.897988
	H56	H	0.113584	0.595634	0.418813
	H57	H	0.876697	0.605048	0.614156
	H58	H	0.114610	0.405486	0.599535
	H59	H	0.874715	0.412947	0.413014
	H60	H	0.112127	0.418558	0.600525
	H61	H	0.877728	0.607046	0.611210
	H62	H	0.113083	0.597240	0.420864
	H63	H	0.877768	0.409765	0.427735
	H64	H	0.400421	0.609156	0.130002
	H65	H	0.588112	0.595173	0.896078
	H66	H	0.589659	0.416729	0.130663
	H67	H	0.411486	0.406739	0.894168
	H68	H	0.601816	0.128212	0.425827
	H69	H	0.582383	0.888538	0.608553
	H70	H	0.395536	0.125059	0.601954
	H71	H	0.396308	0.885805	0.416310
	H72	H	0.902292	0.622531	0.101661
	H73	H	0.077641	0.394369	0.097408
	H74	H	0.094541	0.626368	0.928719
	H75	H	0.903013	0.384933	0.909873
	H76	H	0.088488	0.921424	0.629983
	H77	H	0.092018	0.094086	0.395207
	H78	H	0.901314	0.103352	0.629713
	H79	H	0.909121	0.915538	0.398053
	H80	H	0.612634	0.099468	0.922798
	H81	H	0.379579	0.104233	0.104852
	H82	H	0.607838	0.922520	0.098178
	H83	H	0.375918	0.908614	0.920456
	H84	H	0.615251	0.913242	0.111052
	H85	H	0.379283	0.099514	0.109850
	H86	H	0.610690	0.089984	0.919802
	H87	H	0.379436	0.918332	0.923356
	H88	H	0.895661	0.107613	0.632298
	H89	H	0.084909	0.094288	0.396493
	H90	H	0.084078	0.913634	0.630028
	H91	H	0.907006	0.910084	0.395630
	H92	H	0.090462	0.629746	0.911879
	H93	H	0.100734	0.389144	0.095144
	H94	H	0.889123	0.628213	0.110833
	H95	H	0.917474	0.392366	0.919276
	H96	H	0.391503	0.129073	0.615960
	H97	H	0.583664	0.893135	0.592754
	H98	H	0.584209	0.130314	0.403539
	H99	H	0.415155	0.890394	0.411787
	H100	H	0.586541	0.413062	0.130436
	H101	H	0.590709	0.596268	0.894679
	H102	H	0.394481	0.602474	0.130948
	H103	H	0.397450	0.412531	0.892386
	H104	H	0.113386	0.594778	0.421010
	H105	H	0.878712	0.603918	0.611772
	H106	H	0.117367	0.412095	0.610964
	H107	H	0.881828	0.423704	0.422146
	H108	H	0.904078	0.626152	0.118565
	H109	H	0.089732	0.385864	0.116022
	H110	H	0.077949	0.623324	0.923193
	H111	H	0.900701	0.389649	0.928088
	H112	H	0.092636	0.912809	0.633501
	H113	H	0.087424	0.099366	0.394675
	H114	H	0.894568	0.101196	0.630940
	H115	H	0.903180	0.915544	0.396235
	H116	H	0.615476	0.096403	0.912920
	H117	H	0.377185	0.107031	0.110435
	H118	H	0.612491	0.904229	0.095100
	H119	H	0.375637	0.916756	0.912745
	C120	C	0.371025	0.016694	0.636498
	C121	C	0.614400	0.998386	0.631480
	C122	C	0.618452	0.016419	0.388649
	C123	C	0.375583	0.999655	0.392832
	C124	C	0.619454	0.383736	0.022158
	C125	C	0.616215	0.626883	1.003858
	C126	C	0.371777	0.630652	0.020846
	C127	C	0.375966	0.387031	1.003858
	C128	C	0.004620	0.626836	0.394298
	C129	C	0.987324	0.631755	0.638205
	C130	C	0.005572	0.386977	0.633783
	C131	C	0.986506	0.384197	0.390415
	C132	C	0.872341	0.516167	0.136978
	C133	C	0.116375	0.498804	0.133661
	C134	C	0.118735	0.517167	0.890601
	C135	C	0.876453	0.498348	0.892984
	C136	C	0.119442	0.884052	0.522875
	C137	C	0.114584	0.126324	0.504323
	C138	C	0.870827	0.131262	0.521961
	C139	C	0.875508	0.887300	0.505202
	C140	C	0.504158	0.126520	0.892205
	C141	C	0.487315	0.130672	0.135599
	C142	C	0.503013	0.887028	0.131719
	C143	C	0.485747	0.883380	0.888246
	C144	C	0.375258	0.892144	0.689688
	C145	C	0.611602	0.122232	0.689981
	C146	C	0.619003	0.892379	0.331442
	C147	C	0.375992	0.124103	0.340125
	C148	C	0.677001	0.382982	0.898768
	C149	C	0.668014	0.626454	0.128551
	C150	C	0.318395	0.626927	0.897320
	C151	C	0.318280	0.390668	0.127216
	C152	C	0.880598	0.684071	0.399507
	C153	C	0.111684	0.684471	0.633703
	C154	C	0.880043	0.336921	0.631793
	C155	C	0.110177	0.326202	0.390851
	C156	C	0.881511	0.392827	0.690563
	C157	C	0.112050	0.627007	0.690191
	C158	C	0.880192	0.627455	0.341547
	C159	C	0.110109	0.383280	0.332913
	C160	C	0.375733	0.683132	0.896807
	C161	C	0.611274	0.684906	0.127115
	C162	C	0.618377	0.326875	0.897960
	C163	C	0.377405	0.334771	0.128248
	C164	C	0.676245	0.892514	0.388557
	C165	C	0.667311	0.123007	0.631483
	C166	C	0.318244	0.892352	0.632866
	C167	C	0.318018	0.123709	0.397306
	C168	C	0.876424	0.391796	0.190045
	C169	C	0.111814	0.622833	0.191014
	C170	C	0.119459	0.393214	0.833278
	C171	C	0.877134	0.623479	0.841249
	C172	C	0.176829	0.883618	0.399064
	C173	C	0.167207	0.126076	0.628539
	C174	C	0.817953	0.127332	0.397809
	C175	C	0.817369	0.891651	0.628215
	C176	C	0.380640	0.184634	0.896523
	C177	C	0.612073	0.183053	0.131272
	C178	C	0.378368	0.835304	0.130616
	C179	C	0.609169	0.825110	0.888296
	C180	C	0.379796	0.890855	0.190125
	C181	C	0.611692	0.126277	0.189062
	C182	C	0.379825	0.126352	0.840388
	C183	C	0.609274	0.882708	0.830994
	C184	C	0.874962	0.184894	0.398257
	C185	C	0.109738	0.182734	0.628588
	C186	C	0.118992	0.826533	0.399262
	C187	C	0.876735	0.836099	0.629775
	C188	C	0.175730	0.392952	0.890999
	C189	C	0.168783	0.623426	0.133270
	C190	C	0.820750	0.391160	0.131859
	C191	C	0.818962	0.622627	0.897869
	C192	C	0.391561	0.103906	0.616386
	C193	C	0.593408	0.911869	0.607508
	C194	C	0.594232	0.103147	0.412519
	C195	C	0.399456	0.912653	0.413284
	C196	C	0.596150	0.407338	0.108684
	C197	C	0.596071	0.602271	0.917694
	C198	C	0.392945	0.609848	0.107492
	C199	C	0.399214	0.407517	0.917265
	C200	C	0.090982	0.603002	0.414380
	C201	C	0.900532	0.611471	0.618366
	C202	C	0.092374	0.406343	0.610540
	C203	C	0.900290	0.408584	0.414044
	C204	C	0.892411	0.603168	0.116509
	C205	C	0.095440	0.412205	0.109759
	C206	C	0.094560	0.603939	0.914241
	C207	C	0.900198	0.411446	0.913114
	C208	C	0.095439	0.908592	0.608877
	C209	C	0.094098	0.102896	0.417924
	C210	C	0.891057	0.110445	0.608602
	C211	C	0.899438	0.907552	0.418893
	C212	C	0.590691	0.102230	0.912547
	C213	C	0.401197	0.109585	0.114794
	C214	C	0.589415	0.907310	0.108302
	C215	C	0.399166	0.907533	0.911957
	Zn216	Zn	0.494389	0.006612	0.761605
	Zn217	Zn	0.495881	0.007862	0.262534
	Zn218	Zn	0.746700	0.506269	0.013878
	Zn219	Zn	0.245636	0.508685	0.012268
	Zn220	Zn	-0.003226	0.757115	0.515218
	Zn221	Zn	-0.005091	0.256785	0.513113
	Zn222	Zn	-0.002194	0.508725	0.763291
	Zn223	Zn	-0.005118	0.506770	0.263561
	Zn224	Zn	0.493937	0.756720	0.010884
	Zn225	Zn	0.496776	0.256764	0.013085
	Zn226	Zn	0.744486	0.007943	0.511678
	Zn227	Zn	0.245505	0.007604	0.513733
	N228	N	0.407319	0.970707	0.692362
	N229	N	0.579508	0.043636	0.690219
	N230	N	0.583734	0.970589	0.331345
	N231	N	0.411104	0.045809	0.337020
	N232	N	0.677785	0.417712	0.976844
	N233	N	0.671100	0.590852	0.050927
	N234	N	0.315921	0.594986	0.975579
	N235	N	0.317214	0.422476	0.048927
	N236	N	0.958829	0.683946	0.431651
	N237	N	0.033243	0.687623	0.602107
	N238	N	0.958032	0.333079	0.597014
	N239	N	0.032169	0.326522	0.425802
	N240	N	0.960389	0.423222	0.691878
	N241	N	0.033794	0.595178	0.693409
	N242	N	0.958238	0.592484	0.338062
	N243	N	0.032216	0.418564	0.332621
	N244	N	0.408284	0.685634	0.974801
	N245	N	0.579609	0.685246	0.048780
	N246	N	0.583455	0.327244	0.975782
	N247	N	0.412698	0.332444	0.050486
	N248	N	0.675947	0.970705	0.423380
	N249	N	0.669128	0.045259	0.595708
	N250	N	0.315480	0.970600	0.600596
	N251	N	0.317846	0.045147	0.429179
	N252	N	0.907981	0.470461	0.193434
	N253	N	0.080093	0.544281	0.191570
	N254	N	0.084563	0.471482	0.833060
	N255	N	0.912252	0.545207	0.838021
	N256	N	0.177242	0.918660	0.477011
	N257	N	0.170320	0.091680	0.550340
	N258	N	0.815149	0.094608	0.475729
	N259	N	0.816436	0.922637	0.549666
	N260	N	0.459141	0.184692	0.928325
	N261	N	0.534005	0.186038	0.098969
	N262	N	0.455957	0.832822	0.094822
	N263	N	0.531157	0.825431	0.923033
	N264	N	0.458228	0.922205	0.191105
	N265	N	0.533180	0.094642	0.192244
	N266	N	0.457528	0.090977	0.837399
	N267	N	0.531429	0.918131	0.830842
	N268	N	0.907089	0.187490	0.476321
	N269	N	0.077743	0.183064	0.550328
	N270	N	0.084293	0.826353	0.477111
	N271	N	0.912146	0.833187	0.552183
	N272	N	0.175334	0.471189	0.926002
	N273	N	0.171999	0.545067	0.098464
	N274	N	0.817755	0.469561	0.099762
	N275	N	0.818482	0.543811	0.929168
	O276	O	0.048459	0.048616	0.010365
	H277	H	0.046789	0.046169	0.014400
	H278	H	0.052722	0.057894	0.001396
	O279	O	0.479425	0.569159	0.450965
	H280	H	0.474804	0.582727	0.444359
	H281	H	0.474781	0.562534	0.442318
	O282	O	0.506111	0.595411	0.427781
	H283	H	0.506107	0.604569	0.417204
	H284	H	0.513158	0.591417	0.432832
	O285	O	0.984435	0.002273	1.071291
	H286	H	0.988026	-0.002021	1.070524
	H287	H	0.978698	0.007215	1.079148
	O288	O	0.973432	-0.005911	0.044644
	H289	H	0.973885	-0.009989	0.047470
	H290	H	0.966880	-0.008712	0.050909
	O291	O	0.473002	0.556306	0.480452
	H292	H	0.475798	0.556169	0.484479
	H293	H	0.463929	0.549350	0.484171
	O294	O	0.936579	0.005998	1.075221
	H295	H	0.943068	0.010690	1.075191
	H296	H	0.942266	0.004471	1.082622
	O297	O	0.107757	0.017289	-0.012451
	H298	H	0.107359	0.019530	-0.012414
	H299	H	0.113675	0.019734	-0.005670
	O300	O	0.561401	0.452543	0.533209
	H301	H	0.554402	0.466826	0.530253
	H302	H	0.572021	0.447328	0.533396
	O303	O	0.560793	0.504464	0.449556
	H304	H	0.559456	0.514493	0.448966
	H305	H	0.562611	0.498486	0.452224
	O306	O	1.010375	0.031368	0.040610
	H307	H	1.009148	0.024680	0.039168
	H308	H	1.004289	0.024609	0.041040
	O309	O	0.030235	-0.008095	1.081967
	H310	H	0.031814	-0.011074	1.088361
	H311	H	0.028796	0.010462	1.080573
	O312	O	1.372009	0.550406	0.472737
	H313	H	1.356563	0.548609	0.463238
	H314	H	1.379357	0.545639	0.478125
	O315	O	0.922972	0.005088	0.035763
	H316	H	0.921767	0.011886	0.027625
	H317	H	0.913109	-0.002571	0.031824
	O318	O	0.548787	0.460087	0.476199
	H319	H	0.554241	0.461260	0.473327
	H320	H	0.547517	0.452740	0.478744
	O321	O	0.033673	0.949603	0.948951
	H322	H	0.039231	0.946609	0.946538
	H323	H	0.039458	0.943696	0.948898
	O324	O	1.015914	0.997216	0.039336
	H325	H	1.018353	0.982350	0.031132
	H326	H	1.011033	0.998974	0.053883
	O327	O	0.463184	0.558022	0.576909
	H328	H	0.462106	0.577028	0.570469
	H329	H	0.461654	0.555206	0.573232
	O330	O	0.930252	1.070020	-0.027790
	H331	H	0.932031	1.068560	-0.035409
	H332	H	0.922815	1.062802	-0.037014
	O333	O	0.558874	0.424385	0.459465
	H334	H	0.552070	0.425219	0.458068
	H335	H	0.564426	0.419668	0.458301
	O336	O	0.512845	0.551491	0.494968
	H337	H	0.519014	0.554988	0.489060
	H338	H	0.514890	0.559126	0.507336
	O339	O	0.514164	0.491066	-0.530965
	H340	H	0.519095	0.486765	-0.537917
	H341	H	0.519137	0.491683	-0.535837
	O342	O	0.445515	0.522555	0.450048
	H343	H	0.451306	0.510708	0.446610
	H344	H	0.451446	0.511248	0.451577
	O345	O	0.426810	0.520892	0.515297
	H346	H	0.443196	0.513564	0.519924
	H347	H	0.428488	0.530003	0.521228
	O348	O	-0.013886	0.017167	0.020447
	H349	H	-0.016773	0.021837	0.015308
	H350	H	-0.016118	0.016497	0.006754
	O351	O	0.035613	1.027653	0.995004
	H352	H	0.028334	1.031825	1.000569
	H353	H	0.047067	1.022577	0.995190
	O354	O	0.584584	0.382031	0.421915
	H355	H	0.579781	0.381435	0.410419
	H356	H	0.583920	0.365960	0.413088
	O357	O	0.011100	0.910751	0.977798
	H358	H	0.026215	0.908519	0.972617
	H359	H	0.017649	0.912297	0.971159
