data_Molecule from HDF5

_cell_length_a		16.227674
_cell_length_b		16.261223
_cell_length_c		16.275215
_cell_angle_alpha	90.060904
_cell_angle_beta	90.436991
_cell_angle_gamma	89.758104
_symmetry_space_group_name_H-M	'P 1'
_symmetry_Int_Tables_number		1

loop_
	_symmetry_equiv_pos_as_xyz
	x,y,z

loop_
	_atom_site_label
	_atom_site_type_symbol
	_atom_site_fract_x
	_atom_site_fract_y
	_atom_site_fract_z
	H0	H	0.396787	0.836992	0.715301
	H1	H	0.602929	0.160464	0.717099
	H2	H	0.599204	0.836009	0.280664
	H3	H	0.395833	0.162036	0.280791
	H4	H	0.714702	0.395246	0.835143
	H5	H	0.718138	0.597957	0.160569
	H6	H	0.281211	0.598797	0.836075
	H7	H	0.285522	0.397245	0.162126
	H8	H	0.836949	0.714125	0.392702
	H9	H	0.162148	0.713579	0.600565
	H10	H	0.836131	0.280364	0.597338
	H11	H	0.160760	0.277970	0.396056
	H12	H	0.836879	0.393286	0.714240
	H13	H	0.162465	0.596361	0.715026
	H14	H	0.837989	0.599140	0.279243
	H15	H	0.163431	0.397309	0.285016
	H16	H	0.395061	0.715871	0.835999
	H17	H	0.602143	0.714275	0.160657
	H18	H	0.602435	0.278382	0.837090
	H19	H	0.402438	0.283444	0.161952
	H20	H	0.714633	0.835858	0.393361
	H21	H	0.717207	0.159829	0.600052
	H22	H	0.284263	0.835351	0.597056
	H23	H	0.279893	0.161329	0.396193
	H24	H	0.902729	0.334383	0.211912
	H25	H	0.103410	0.659833	0.217341
	H26	H	0.101805	0.333915	0.781864
	H27	H	0.895932	0.657791	0.777421
	H28	H	0.212833	0.897143	0.333866
	H29	H	0.213861	0.098157	0.659090
	H30	H	0.779875	0.097782	0.333479
	H31	H	0.780405	0.894984	0.658392
	H32	H	0.336364	0.216017	0.897303
	H33	H	0.663068	0.212861	0.101125
	H34	H	0.335794	0.782763	0.098285
	H35	H	0.660927	0.779076	0.896128
	H36	H	0.334632	0.901452	0.209663
	H37	H	0.660964	0.099348	0.217882
	H38	H	0.336133	0.101499	0.781040
	H39	H	0.660759	0.895143	0.780585
	H40	H	0.894619	0.214008	0.334119
	H41	H	0.101233	0.214212	0.658057
	H42	H	0.099560	0.779224	0.334816
	H43	H	0.899519	0.780951	0.659397
	H44	H	0.215607	0.334025	0.899853
	H45	H	0.216202	0.660750	0.100162
	H46	H	0.787089	0.334061	0.096026
	H47	H	0.782125	0.659330	0.894849
	H48	H	0.413017	0.113390	0.588565
	H49	H	0.592839	0.882680	0.587115
	H50	H	0.589831	0.114589	0.406369
	H51	H	0.399975	0.879263	0.399310
	H52	H	0.591018	0.394699	0.117364
	H53	H	0.590951	0.584314	0.882817
	H54	H	0.422842	0.588809	0.109413
	H55	H	0.413478	0.413056	0.887165
	H56	H	0.120734	0.591672	0.398534
	H57	H	0.883337	0.592281	0.582515
	H58	H	0.114833	0.402614	0.584315
	H59	H	0.885578	0.410288	0.408887
	H60	H	0.113284	0.408336	0.590595
	H61	H	0.885558	0.582112	0.585109
	H62	H	0.116333	0.595363	0.416142
	H63	H	0.880454	0.408695	0.396282
	H64	H	0.404468	0.602878	0.120298
	H65	H	0.586295	0.590125	0.882825
	H66	H	0.605916	0.409966	0.116281
	H67	H	0.411145	0.398669	0.881117
	H68	H	0.585124	0.113515	0.405960
	H69	H	0.586473	0.882183	0.591691
	H70	H	0.401935	0.113748	0.583299
	H71	H	0.411068	0.882825	0.400460
	H72	H	0.914313	0.609208	0.078870
	H73	H	0.089482	0.383075	0.088277
	H74	H	0.095008	0.615259	0.902584
	H75	H	0.919452	0.382147	0.900730
	H76	H	0.094318	0.904630	0.613958
	H77	H	0.084765	0.086231	0.381702
	H78	H	0.899189	0.088294	0.615091
	H79	H	0.904498	0.907375	0.381621
	H80	H	0.615759	0.090123	0.908607
	H81	H	0.380924	0.095445	0.090709
	H82	H	0.614595	0.903821	0.084612
	H83	H	0.386086	0.909012	0.911988
	H84	H	0.612850	0.912111	0.090000
	H85	H	0.382686	0.093484	0.085767
	H86	H	0.614128	0.087575	0.910174
	H87	H	0.383306	0.912349	0.902977
	H88	H	0.910467	0.080999	0.607520
	H89	H	0.087224	0.092865	0.378718
	H90	H	0.090218	0.906586	0.612437
	H91	H	0.909326	0.907677	0.382506
	H92	H	0.083842	0.612621	0.903391
	H93	H	0.100124	0.380366	0.090598
	H94	H	0.898067	0.616753	0.088583
	H95	H	0.906073	0.383879	0.916225
	H96	H	0.403386	0.117927	0.594499
	H97	H	0.585178	0.885815	0.584608
	H98	H	0.587085	0.113235	0.409621
	H99	H	0.404611	0.884556	0.409753
	H100	H	0.586307	0.414261	0.110250
	H101	H	0.593036	0.591726	0.880134
	H102	H	0.400077	0.578909	0.113376
	H103	H	0.399537	0.409868	0.881010
	H104	H	0.112167	0.578475	0.408923
	H105	H	0.882020	0.588793	0.592921
	H106	H	0.117457	0.401771	0.592654
	H107	H	0.880146	0.398707	0.404907
	H108	H	0.915372	0.615119	0.097979
	H109	H	0.093226	0.379586	0.098281
	H110	H	0.090682	0.610815	0.913293
	H111	H	0.899977	0.374896	0.898369
	H112	H	0.091008	0.902991	0.613562
	H113	H	0.092895	0.086144	0.379402
	H114	H	0.912997	0.094933	0.612280
	H115	H	0.907161	0.903548	0.380592
	H116	H	0.615363	0.087531	0.905988
	H117	H	0.383643	0.089651	0.090220
	H118	H	0.617206	0.903770	0.094410
	H119	H	0.380895	0.903079	0.905786
	C120	C	0.376886	0.007395	0.618463
	C121	C	0.620079	0.989857	0.619277
	C122	C	0.617617	0.006677	0.376468
	C123	C	0.374985	0.989762	0.374028
	C124	C	0.622679	0.375718	0.006888
	C125	C	0.621100	0.618964	0.989177
	C126	C	0.377526	0.620095	0.007007
	C127	C	0.379354	0.377339	0.990811
	C128	C	0.008609	0.618419	0.376597
	C129	C	0.990898	0.617699	0.618427
	C130	C	0.007654	0.374483	0.618661
	C131	C	0.990131	0.375684	0.375061
	C132	C	0.880132	0.505961	0.117848
	C133	C	0.123407	0.488944	0.121468
	C134	C	0.120396	0.505229	0.877316
	C135	C	0.877384	0.487536	0.874675
	C136	C	0.121037	0.874781	0.505847
	C137	C	0.118930	0.118261	0.487240
	C138	C	0.876375	0.118402	0.504678
	C139	C	0.876884	0.875528	0.488438
	C140	C	0.507866	0.119967	0.877227
	C141	C	0.490334	0.121196	0.120339
	C142	C	0.507000	0.877489	0.118751
	C143	C	0.490391	0.876878	0.876281
	C144	C	0.377749	0.885348	0.676016
	C145	C	0.621513	0.111758	0.677739
	C146	C	0.618276	0.884609	0.318866
	C147	C	0.375580	0.112596	0.317933
	C148	C	0.677866	0.375508	0.884432
	C149	C	0.679100	0.617966	0.111888
	C150	C	0.319660	0.618910	0.884688
	C151	C	0.323919	0.378236	0.113454
	C152	C	0.885766	0.675391	0.374990
	C153	C	0.113344	0.674714	0.619341
	C154	C	0.884988	0.318392	0.617194
	C155	C	0.112589	0.317867	0.377016
	C156	C	0.885426	0.374866	0.675296
	C157	C	0.113834	0.616328	0.675957
	C158	C	0.886387	0.618574	0.318099
	C159	C	0.113782	0.377164	0.321690
	C160	C	0.376493	0.677159	0.884772
	C161	C	0.621421	0.675751	0.111918
	C162	C	0.621415	0.317552	0.885349
	C163	C	0.382035	0.321452	0.113334
	C164	C	0.675562	0.884394	0.375246
	C165	C	0.678404	0.111481	0.619510
	C166	C	0.321606	0.884493	0.617106
	C167	C	0.317930	0.112395	0.375717
	C168	C	0.882394	0.383242	0.174171
	C169	C	0.122484	0.611427	0.178348
	C170	C	0.120592	0.382604	0.821015
	C171	C	0.877066	0.609667	0.816728
	C172	C	0.175753	0.876801	0.382831
	C173	C	0.175906	0.117594	0.610247
	C174	C	0.818468	0.117616	0.382389
	C175	C	0.819722	0.875810	0.610128
	C176	C	0.385207	0.177673	0.877390
	C177	C	0.613792	0.175716	0.120779
	C178	C	0.384551	0.821183	0.117503
	C179	C	0.612326	0.818554	0.876820
	C180	C	0.383875	0.880070	0.173165
	C181	C	0.612831	0.119154	0.178350
	C182	C	0.385302	0.120761	0.819435
	C183	C	0.612284	0.876269	0.819264
	C184	C	0.875840	0.175259	0.382632
	C185	C	0.119727	0.175223	0.609738
	C186	C	0.119233	0.818213	0.383243
	C187	C	0.878688	0.818820	0.610583
	C188	C	0.177709	0.382771	0.879317
	C189	C	0.178495	0.611847	0.119902
	C190	C	0.824660	0.383047	0.116494
	C191	C	0.819939	0.610018	0.874557
	C192	C	0.399570	0.092949	0.595320
	C193	C	0.595400	0.905453	0.594922
	C194	C	0.594198	0.091722	0.400471
	C195	C	0.398518	0.904363	0.396603
	C196	C	0.600823	0.399417	0.092342
	C197	C	0.597268	0.595703	0.904270
	C198	C	0.402039	0.596994	0.092326
	C199	C	0.401535	0.400596	0.905302
	C200	C	0.094124	0.595340	0.400940
	C201	C	0.905763	0.594567	0.593967
	C202	C	0.093153	0.397547	0.595895
	C203	C	0.904454	0.398988	0.396963
	C204	C	0.902625	0.591581	0.095139
	C205	C	0.100879	0.403227	0.098981
	C206	C	0.096800	0.590569	0.899707
	C207	C	0.901482	0.402398	0.898161
	C208	C	0.098505	0.897910	0.591245
	C209	C	0.095094	0.095206	0.402184
	C210	C	0.900644	0.094949	0.589621
	C211	C	0.900212	0.899282	0.403486
	C212	C	0.592961	0.095589	0.901418
	C213	C	0.404671	0.099295	0.096044
	C214	C	0.592795	0.900060	0.096413
	C215	C	0.405323	0.901197	0.899914
	Zn216	Zn	0.498443	-0.000919	0.747628
	Zn217	Zn	0.498087	-0.001370	0.246916
	Zn218	Zn	0.750198	0.497102	-0.002847
	Zn219	Zn	0.249692	0.497735	-0.000886
	Zn220	Zn	-0.001090	0.746399	0.497070
	Zn221	Zn	-0.001742	0.246569	0.496506
	Zn222	Zn	-0.000275	0.496203	0.746876
	Zn223	Zn	0.000579	0.498488	0.248360
	Zn224	Zn	0.498847	0.748105	-0.001717
	Zn225	Zn	0.500547	0.248296	-0.001085
	Zn226	Zn	0.747312	-0.002688	0.496317
	Zn227	Zn	0.247852	-0.001762	0.497156
	N228	N	0.411302	0.962803	0.677137
	N229	N	0.585975	0.035160	0.677906
	N230	N	0.582935	0.961577	0.319482
	N231	N	0.410358	0.035397	0.316684
	N232	N	0.678818	0.410978	0.961109
	N233	N	0.679229	0.583391	0.034613
	N234	N	0.320044	0.584317	0.961777
	N235	N	0.322159	0.412370	0.036122
	N236	N	0.962996	0.675556	0.410536
	N237	N	0.035939	0.675717	0.584228
	N238	N	0.961972	0.318089	0.582525
	N239	N	0.034725	0.316676	0.409648
	N240	N	0.962705	0.409189	0.676257
	N241	N	0.036648	0.581835	0.675695
	N242	N	0.963585	0.583764	0.319216
	N243	N	0.036697	0.412469	0.320460
	N244	N	0.411531	0.678085	0.961885
	N245	N	0.586426	0.676946	0.034772
	N246	N	0.587895	0.317538	0.962621
	N247	N	0.415678	0.320583	0.036021
	N248	N	0.675523	0.961227	0.410376
	N249	N	0.677711	0.034693	0.583866
	N250	N	0.321039	0.961387	0.581902
	N251	N	0.317299	0.035037	0.409754
	N252	N	0.916271	0.460830	0.174974
	N253	N	0.088918	0.533999	0.179486
	N254	N	0.085896	0.459909	0.819355
	N255	N	0.911741	0.532312	0.816353
	N256	N	0.177132	0.911120	0.460123
	N257	N	0.175622	0.082810	0.533135
	N258	N	0.818709	0.082781	0.459370
	N259	N	0.818446	0.910114	0.532886
	N260	N	0.462603	0.177394	0.912467
	N261	N	0.536678	0.177059	0.085279
	N262	N	0.462201	0.819376	0.084353
	N263	N	0.535429	0.818881	0.911606
	N264	N	0.461155	0.914293	0.173999
	N265	N	0.535006	0.086194	0.178259
	N266	N	0.462554	0.085631	0.819113
	N267	N	0.535309	0.911985	0.818929
	N268	N	0.910893	0.176129	0.459792
	N269	N	0.084958	0.175834	0.532473
	N270	N	0.086017	0.816734	0.460761
	N271	N	0.913395	0.818672	0.533840
	N272	N	0.177436	0.459805	0.913987
	N273	N	0.179297	0.534709	0.085351
	N274	N	0.823230	0.460184	0.082199
	N275	N	0.820043	0.533267	0.909894
	O276	O	0.018914	-0.126753	0.013274
	H277	H	0.008170	-0.130442	0.015262
	H278	H	0.014682	-0.138722	0.006828
	O279	O	0.415213	0.450820	0.403982
	H280	H	0.411453	0.454007	0.402465
	H281	H	0.421481	0.458253	0.408894
	O282	O	1.010563	-0.032506	0.037771
	H283	H	1.004554	-0.044603	0.038551
	H284	H	1.006090	-0.034600	0.031846
	O285	O	-0.070758	1.003784	-0.110825
	H286	H	-0.064049	1.004065	-0.116526
	H287	H	-0.062511	1.010192	-0.106461
	O288	O	0.515760	0.454870	0.624570
	H289	H	0.514248	0.438103	0.611037
	H290	H	0.525404	0.459112	0.635251
	O291	O	0.436217	0.579733	0.543420
	H292	H	0.434690	0.582943	0.543118
	H293	H	0.421993	0.578289	0.539864
	O294	O	1.008738	1.059015	1.043152
	H295	H	1.008814	1.054256	1.041738
	H296	H	1.010526	1.049230	1.049206
	O297	O	0.030421	-0.078444	0.133325
	H298	H	0.018412	-0.072068	0.113933
	H299	H	0.026633	-0.080916	0.142013
	O300	O	0.545750	0.551924	0.657387
	H301	H	0.545875	0.547693	0.659494
	H302	H	0.542846	0.558418	0.650782
	O303	O	0.000054	1.039514	0.859189
	H304	H	-0.007349	1.032086	0.867645
	H305	H	0.001237	1.049932	0.857099
	O306	O	0.402347	0.596487	0.361403
	H307	H	0.404347	0.598024	0.363292
	H308	H	0.407843	0.597412	0.356969
	O309	O	0.841684	0.092397	-0.055884
	H310	H	0.826027	0.098170	-0.056735
	H311	H	0.849683	0.085477	-0.050561
	O312	O	0.020666	-0.057156	1.013006
	H313	H	0.022099	-0.050753	1.013511
	H314	H	0.020582	-0.062421	1.005676
	O315	O	0.392708	0.325307	0.673351
	H316	H	0.396673	0.322242	0.661400
	H317	H	0.394618	0.317269	0.679824
	O318	O	0.517381	0.417362	0.546634
	H319	H	0.515172	0.419624	0.547404
	H320	H	0.523183	0.417895	0.549364
	O321	O	0.596366	0.538671	0.424335
	H322	H	0.587894	0.558971	0.431369
	H323	H	0.602189	0.530376	0.428520
	O324	O	0.408019	0.559596	0.417962
	H325	H	0.417615	0.567031	0.408015
	H326	H	0.413546	0.561041	0.409947
	O327	O	-0.091601	0.975501	1.088871
	H328	H	-0.102365	0.992844	1.080865
	H329	H	-0.088668	0.972394	1.096175
	O330	O	0.457879	0.375175	0.379471
	H331	H	0.458793	0.378225	0.382747
	H332	H	0.466522	0.379392	0.374739
	O333	O	0.030210	0.987542	0.969497
	H334	H	0.032681	0.988527	0.969600
	H335	H	0.037162	0.991224	0.965480
	O336	O	1.156133	0.938239	0.835978
	H337	H	1.170209	0.928657	0.836661
	H338	H	1.153169	0.942206	0.827984
	O339	O	0.386100	0.382051	0.507042
	H340	H	0.376955	0.379564	0.488741
	H341	H	0.402707	0.386683	0.517558
	O342	O	0.979022	-0.066625	0.040388
	H343	H	0.979036	-0.076642	0.041791
	H344	H	0.987072	-0.073157	0.054190
	O345	O	0.582707	0.442304	0.618558
	H346	H	0.563864	0.433838	0.622130
	H347	H	0.580349	0.436826	0.608477
	O348	O	0.938746	1.143918	1.006308
	H349	H	0.940363	1.146303	1.003012
	H350	H	0.945861	1.138354	1.002916
	O351	O	0.924177	1.138508	-0.087857
	H352	H	0.930918	1.150551	-0.090450
	H353	H	0.920306	1.138092	-0.074836
	O354	O	0.588395	0.598699	0.421979
	H355	H	0.588283	0.585452	0.424312
	H356	H	0.603005	0.609203	0.444180
	O357	O	0.524846	0.343211	0.483069
	H358	H	0.528059	0.336762	0.473038
	H359	H	0.531448	0.345873	0.485918
	O360	O	-0.062556	-0.031829	0.005245
	H361	H	-0.059459	-0.024357	-0.010219
	H362	H	-0.068365	-0.034263	0.005993
	O363	O	0.654122	0.618999	0.531366
	H364	H	0.657980	0.610879	0.541610
	H365	H	0.649221	0.619390	0.538994
	O366	O	0.384737	0.594928	0.592337
	H367	H	0.392378	0.602620	0.591180
	H368	H	0.378679	0.576157	0.589992
	O369	O	0.321933	0.661489	0.468544
	H370	H	0.302297	0.670788	0.465676
	H371	H	0.329117	0.656020	0.456632
	O372	O	0.632695	0.504327	0.481586
	H373	H	0.627194	0.502081	0.486801
	H374	H	0.620020	0.502191	0.485161
	O375	O	0.487405	0.466609	0.423262
	H376	H	0.487934	0.480884	0.419469
	H377	H	0.497221	0.466364	0.421254
	O378	O	0.682400	0.480820	0.471948
	H379	H	0.672526	0.485956	0.463708
	H380	H	0.697644	0.480825	0.477629
	O381	O	0.577518	0.563554	0.512380
	H382	H	0.574950	0.566689	0.521149
	H383	H	0.570675	0.577405	0.523260
	O384	O	-0.018060	0.898139	-0.041289
	H385	H	-0.009197	0.898129	-0.052946
	H386	H	-0.029392	0.908835	-0.036667
	O387	O	1.005382	0.141156	1.036162
	H388	H	1.020863	0.134663	1.044855
	H389	H	1.008015	0.135843	1.044179
	O390	O	0.168205	0.920292	0.074620
	H391	H	0.165621	0.921013	0.080658
	H392	H	0.169320	0.926556	0.073054
	O393	O	0.976561	1.018521	-0.006788
	H394	H	0.986686	1.017407	-0.007265
	H395	H	0.976224	1.027419	-0.018366
	O396	O	0.387460	0.446782	0.663035
	H397	H	0.372866	0.430792	0.665569
	H398	H	0.380397	0.438193	0.656601
	O399	O	-0.013925	0.912405	0.969648
	H400	H	-0.016497	0.911831	0.976543
	H401	H	-0.013785	0.911105	0.966979
	O402	O	1.056201	1.018447	0.976405
	H403	H	1.051830	1.025638	0.975114
	H404	H	1.054147	1.015520	0.988477
	O405	O	0.580775	0.579355	0.459583
	H406	H	0.580861	0.579212	0.470880
	H407	H	0.595125	0.593818	0.469550
