data_Molecule from HDF5

_cell_length_a		16.351152
_cell_length_b		16.162653
_cell_length_c		16.151707
_cell_angle_alpha	89.830472
_cell_angle_beta	89.836501
_cell_angle_gamma	90.077619
_symmetry_space_group_name_H-M	'P 1'
_symmetry_Int_Tables_number		1

loop_
	_symmetry_equiv_pos_as_xyz
	x,y,z

loop_
	_atom_site_label
	_atom_site_type_symbol
	_atom_site_fract_x
	_atom_site_fract_y
	_atom_site_fract_z
	H0	H	0.398408	0.831375	0.712945
	H1	H	0.591615	0.161984	0.708267
	H2	H	0.593271	0.831739	0.284439
	H3	H	0.398389	0.161517	0.284314
	H4	H	0.710669	0.396882	0.833117
	H5	H	0.710790	0.597481	0.161220
	H6	H	0.282221	0.597541	0.832538
	H7	H	0.280192	0.395981	0.160890
	H8	H	0.832650	0.709849	0.397560
	H9	H	0.158993	0.709551	0.595549
	H10	H	0.832107	0.281301	0.594739
	H11	H	0.159785	0.281368	0.398770
	H12	H	0.833446	0.394432	0.713518
	H13	H	0.160342	0.591992	0.708712
	H14	H	0.832259	0.592815	0.283142
	H15	H	0.159465	0.397812	0.281898
	H16	H	0.398534	0.711069	0.832635
	H17	H	0.592946	0.708902	0.162980
	H18	H	0.593253	0.285678	0.832325
	H19	H	0.398068	0.283380	0.162181
	H20	H	0.711684	0.832434	0.396583
	H21	H	0.712540	0.159292	0.599535
	H22	H	0.281336	0.830972	0.598844
	H23	H	0.279707	0.159926	0.397611
	H24	H	0.897623	0.330535	0.210048
	H25	H	0.092209	0.661870	0.208789
	H26	H	0.091585	0.329890	0.787153
	H27	H	0.898927	0.660723	0.782217
	H28	H	0.212669	0.893977	0.334563
	H29	H	0.209778	0.094280	0.662316
	H30	H	0.781816	0.094883	0.334174
	H31	H	0.779586	0.892275	0.661916
	H32	H	0.333367	0.211705	0.899212
	H33	H	0.659853	0.211550	0.095158
	H34	H	0.333315	0.781016	0.098005
	H35	H	0.659123	0.782794	0.899835
	H36	H	0.333074	0.897235	0.213479
	H37	H	0.659717	0.096277	0.212045
	H38	H	0.332760	0.095415	0.784187
	H39	H	0.659402	0.898793	0.782931
	H40	H	0.898786	0.207198	0.332716
	H41	H	0.093052	0.206757	0.663300
	H42	H	0.093004	0.784389	0.331923
	H43	H	0.897312	0.779456	0.662249
	H44	H	0.211801	0.332752	0.896690
	H45	H	0.210418	0.661130	0.095667
	H46	H	0.779125	0.332171	0.098480
	H47	H	0.780589	0.660710	0.896340
	H48	H	0.402326	0.115569	0.595868
	H49	H	0.589342	0.879928	0.585513
	H50	H	0.588855	0.110453	0.417400
	H51	H	0.406060	0.880809	0.409011
	H52	H	0.582466	0.402775	0.114488
	H53	H	0.598233	0.590773	0.876932
	H54	H	0.405243	0.585750	0.113039
	H55	H	0.401255	0.397732	0.876150
	H56	H	0.112853	0.584008	0.397282
	H57	H	0.881796	0.582921	0.590231
	H58	H	0.112583	0.401795	0.591184
	H59	H	0.878196	0.396308	0.403653
	H60	H	0.112955	0.399317	0.592452
	H61	H	0.878190	0.589323	0.594138
	H62	H	0.114438	0.596204	0.400676
	H63	H	0.881515	0.402672	0.406865
	H64	H	0.401983	0.592265	0.116422
	H65	H	0.586338	0.580985	0.883075
	H66	H	0.592858	0.401961	0.117392
	H67	H	0.396817	0.408338	0.878086
	H68	H	0.599252	0.117105	0.403251
	H69	H	0.592092	0.875400	0.593365
	H70	H	0.404942	0.111460	0.586312
	H71	H	0.397775	0.877979	0.407862
	H72	H	0.907029	0.612997	0.090154
	H73	H	0.094430	0.376775	0.090151
	H74	H	0.086837	0.613968	0.901160
	H75	H	0.895727	0.378046	0.910774
	H76	H	0.084803	0.893418	0.617003
	H77	H	0.083721	0.082394	0.382773
	H78	H	0.899633	0.082372	0.616617
	H79	H	0.894284	0.907610	0.379484
	H80	H	0.612842	0.088391	0.900797
	H81	H	0.378166	0.095249	0.094215
	H82	H	0.613035	0.902473	0.092075
	H83	H	0.381354	0.914116	0.901617
	H84	H	0.611798	0.902408	0.088620
	H85	H	0.382094	0.089657	0.085078
	H86	H	0.614052	0.095467	0.901720
	H87	H	0.376142	0.896737	0.898914
	H88	H	0.906320	0.085797	0.614682
	H89	H	0.088317	0.093192	0.378324
	H90	H	0.097394	0.904073	0.618230
	H91	H	0.909772	0.908036	0.383233
	H92	H	0.092394	0.614513	0.904891
	H93	H	0.083928	0.379685	0.091544
	H94	H	0.900524	0.612965	0.083924
	H95	H	0.901159	0.376551	0.898474
	H96	H	0.395247	0.114224	0.587623
	H97	H	0.583873	0.879276	0.592022
	H98	H	0.581598	0.113318	0.400053
	H99	H	0.403589	0.877056	0.401781
	H100	H	0.589161	0.410668	0.113220
	H101	H	0.583386	0.596339	0.879012
	H102	H	0.397912	0.585476	0.115501
	H103	H	0.408019	0.406002	0.880858
	H104	H	0.109911	0.587905	0.408679
	H105	H	0.880511	0.589396	0.585870
	H106	H	0.112756	0.399410	0.589982
	H107	H	0.879284	0.402384	0.399662
	H108	H	0.899359	0.615029	0.091880
	H109	H	0.088336	0.380871	0.082100
	H110	H	0.091669	0.616193	0.898977
	H111	H	0.908290	0.381157	0.908652
	H112	H	0.083180	0.908838	0.611694
	H113	H	0.095045	0.083937	0.379779
	H114	H	0.901697	0.090583	0.617779
	H115	H	0.903442	0.894537	0.377724
	H116	H	0.611642	0.091932	0.907266
	H117	H	0.380939	0.084583	0.095636
	H118	H	0.610758	0.905121	0.090775
	H119	H	0.382627	0.901617	0.916183
	C120	C	0.373295	0.004768	0.619650
	C121	C	0.616942	0.987187	0.619022
	C122	C	0.617957	0.004847	0.377134
	C123	C	0.373886	0.987447	0.376753
	C124	C	0.616877	0.376177	0.006147
	C125	C	0.617175	0.618090	0.988598
	C126	C	0.374213	0.617863	0.006372
	C127	C	0.373869	0.375182	0.987993
	C128	C	0.004225	0.617492	0.374266
	C129	C	0.988129	0.616102	0.618392
	C130	C	0.004686	0.372022	0.619413
	C131	C	0.987536	0.372343	0.374518
	C132	C	0.873850	0.504650	0.117905
	C133	C	0.117306	0.488034	0.117164
	C134	C	0.117491	0.505351	0.875034
	C135	C	0.874061	0.487498	0.876154
	C136	C	0.117640	0.873619	0.506809
	C137	C	0.117287	0.115778	0.489247
	C138	C	0.874381	0.115710	0.507316
	C139	C	0.873645	0.873346	0.489002
	C140	C	0.504659	0.119561	0.875337
	C141	C	0.488206	0.118872	0.119901
	C142	C	0.504264	0.874387	0.120041
	C143	C	0.487641	0.875344	0.876303
	C144	C	0.377398	0.880453	0.674922
	C145	C	0.613410	0.112070	0.672346
	C146	C	0.614258	0.880943	0.321885
	C147	C	0.377025	0.111982	0.321906
	C148	C	0.672276	0.377561	0.882201
	C149	C	0.672762	0.617048	0.112235
	C150	C	0.319980	0.616965	0.881610
	C151	C	0.318286	0.376277	0.111803
	C152	C	0.881482	0.672212	0.377173
	C153	C	0.110609	0.671323	0.615300
	C154	C	0.881369	0.318157	0.615821
	C155	C	0.110715	0.318476	0.377652
	C156	C	0.882017	0.374253	0.674899
	C157	C	0.111170	0.613275	0.672094
	C158	C	0.881119	0.614018	0.320185
	C159	C	0.110619	0.376447	0.319604
	C160	C	0.377653	0.673610	0.881756
	C161	C	0.613778	0.672382	0.113140
	C162	C	0.614346	0.321928	0.881962
	C163	C	0.377256	0.320522	0.112433
	C164	C	0.673348	0.881231	0.377508
	C165	C	0.673536	0.110557	0.618381
	C166	C	0.319291	0.880202	0.618418
	C167	C	0.318098	0.111068	0.377997
	C168	C	0.876971	0.380041	0.172835
	C169	C	0.113885	0.612316	0.171794
	C170	C	0.113265	0.379853	0.822802
	C171	C	0.877671	0.611564	0.820113
	C172	C	0.173811	0.875016	0.383235
	C173	C	0.171650	0.114048	0.613446
	C174	C	0.819866	0.114501	0.383123
	C175	C	0.818025	0.873388	0.612797
	C176	C	0.381866	0.174030	0.878500
	C177	C	0.610853	0.174362	0.116478
	C178	C	0.381969	0.819156	0.118046
	C179	C	0.610287	0.820204	0.878783
	C180	C	0.382007	0.876633	0.176031
	C181	C	0.610995	0.116749	0.174402
	C182	C	0.381682	0.115994	0.821371
	C183	C	0.610403	0.877582	0.820592
	C184	C	0.877760	0.170469	0.382648
	C185	C	0.113591	0.169867	0.613758
	C186	C	0.114390	0.820439	0.381942
	C187	C	0.876582	0.817197	0.612884
	C188	C	0.172734	0.381331	0.877545
	C189	C	0.172468	0.612013	0.115389
	C190	C	0.817919	0.380896	0.117468
	C191	C	0.819157	0.611710	0.876994
	C192	C	0.394531	0.091369	0.596721
	C193	C	0.594875	0.900582	0.596852
	C194	C	0.596301	0.091293	0.400109
	C195	C	0.395910	0.901057	0.399583
	C196	C	0.594597	0.398502	0.092753
	C197	C	0.595609	0.595971	0.902082
	C198	C	0.395444	0.594704	0.092655
	C199	C	0.395642	0.397466	0.900937
	C200	C	0.090276	0.595663	0.395720
	C201	C	0.902303	0.593688	0.596516
	C202	C	0.090680	0.393976	0.597622
	C203	C	0.901734	0.393982	0.396801
	C204	C	0.895847	0.591178	0.095279
	C205	C	0.095439	0.401449	0.094639
	C206	C	0.096436	0.592358	0.895554
	C207	C	0.895405	0.401074	0.899100
	C208	C	0.095209	0.895549	0.593452
	C209	C	0.095590	0.093163	0.402667
	C210	C	0.895947	0.093032	0.593988
	C211	C	0.895908	0.896613	0.402444
	C212	C	0.590617	0.098047	0.896792
	C213	C	0.402520	0.096471	0.098069
	C214	C	0.590030	0.896952	0.097322
	C215	C	0.402026	0.897730	0.898881
	Zn216	Zn	0.496223	-0.002746	0.746879
	Zn217	Zn	0.496690	-0.003045	0.248727
	Zn218	Zn	0.745047	0.496486	-0.002679
	Zn219	Zn	0.245884	0.497154	-0.003935
	Zn220	Zn	-0.004041	0.745597	0.496999
	Zn221	Zn	-0.004093	0.243246	0.498119
	Zn222	Zn	-0.003682	0.494979	0.747693
	Zn223	Zn	-0.004484	0.495912	0.245430
	Zn224	Zn	0.495821	0.745641	-0.002328
	Zn225	Zn	0.496481	0.247906	-0.002979
	Zn226	Zn	0.745974	-0.004568	0.498482
	Zn227	Zn	0.245297	-0.004892	0.498503
	N228	N	0.410272	0.958890	0.676015
	N229	N	0.579096	0.034429	0.672882
	N230	N	0.580574	0.958872	0.321560
	N231	N	0.410767	0.034180	0.320702
	N232	N	0.674018	0.410597	0.960476
	N233	N	0.674949	0.583812	0.033975
	N234	N	0.317504	0.583075	0.959822
	N235	N	0.315970	0.409440	0.033211
	N236	N	0.959040	0.674497	0.410180
	N237	N	0.032970	0.673157	0.582551
	N238	N	0.958654	0.316870	0.581908
	N239	N	0.033226	0.315752	0.411002
	N240	N	0.959669	0.407156	0.677231
	N241	N	0.033831	0.579595	0.674058
	N242	N	0.958408	0.580633	0.318511
	N243	N	0.033003	0.409234	0.317338
	N244	N	0.410449	0.674447	0.960048
	N245	N	0.579793	0.673088	0.035320
	N246	N	0.580168	0.321140	0.960040
	N247	N	0.411010	0.319794	0.034401
	N248	N	0.675456	0.959154	0.411492
	N249	N	0.675798	0.031877	0.585716
	N250	N	0.316763	0.958323	0.584715
	N251	N	0.316036	0.032587	0.411522
	N252	N	0.910782	0.457921	0.173455
	N253	N	0.080125	0.534367	0.172864
	N254	N	0.079680	0.457830	0.821049
	N255	N	0.911258	0.533465	0.819472
	N256	N	0.175883	0.907310	0.461943
	N257	N	0.173964	0.081003	0.535119
	N258	N	0.817696	0.080951	0.461579
	N259	N	0.815880	0.907325	0.534686
	N260	N	0.459169	0.176179	0.911492
	N261	N	0.533412	0.175633	0.083097
	N262	N	0.459070	0.817868	0.083919
	N263	N	0.532821	0.818571	0.912492
	N264	N	0.459271	0.910550	0.177038
	N265	N	0.533710	0.083092	0.176639
	N266	N	0.459174	0.083019	0.819274
	N267	N	0.533157	0.911166	0.819043
	N268	N	0.911070	0.171174	0.460785
	N269	N	0.080288	0.170916	0.535547
	N270	N	0.080133	0.819222	0.459869
	N271	N	0.910410	0.817027	0.534768
	N272	N	0.175517	0.460195	0.909385
	N273	N	0.174672	0.533691	0.082144
	N274	N	0.815952	0.459406	0.083999
	N275	N	0.816612	0.533583	0.910833
	O276	O	1.029838	0.995280	0.036302
	H277	H	1.037988	0.988626	0.033063
	H278	H	1.021885	0.990604	0.036725
	O279	O	0.043741	0.060880	0.086065
	H280	H	0.038553	0.056068	0.086522
	H281	H	0.046292	0.052850	0.085432
	O282	O	0.022038	-0.011544	1.025096
	H283	H	0.023588	-0.007963	1.031376
	H284	H	0.031850	-0.008506	1.021666
	O285	O	0.572379	0.502247	0.522792
	H286	H	0.575114	0.508213	0.524441
	H287	H	0.574446	0.511986	0.521195
	O288	O	0.532491	0.556241	0.517686
	H289	H	0.538425	0.557571	0.519013
	H290	H	0.532784	0.557906	0.522818
	O291	O	0.549267	0.518139	0.512258
	H292	H	0.553597	0.518787	0.515339
	H293	H	0.545975	0.516420	0.508284
	O294	O	0.056515	0.015510	0.041047
	H295	H	0.049666	0.011333	0.041497
	H296	H	0.054325	0.016661	0.028676
	O297	O	0.593743	0.541184	0.515766
	H298	H	0.593061	0.543707	0.514517
	H299	H	0.590956	0.544109	0.513958
	O300	O	0.016521	1.000321	1.041828
	H301	H	0.008423	0.997059	1.045029
	H302	H	0.014283	1.003346	1.039567
	O303	O	0.583696	0.540299	0.511850
	H304	H	0.580193	0.543104	0.521342
	H305	H	0.578176	0.535136	0.507034
	O306	O	0.092155	0.016409	1.019883
	H307	H	0.082978	0.021756	1.021348
	H308	H	0.100704	0.020638	1.018626
	O309	O	1.050348	0.991704	1.059031
	H310	H	1.068866	0.992915	1.057017
	H311	H	1.048578	0.992436	1.068005
	O312	O	0.546797	0.522074	0.463586
	H313	H	0.550997	0.523399	0.464244
	H314	H	0.549610	0.515961	0.457378
	O315	O	0.527775	0.476237	0.457813
	H316	H	0.526678	0.477058	0.452545
	H317	H	0.535412	0.472993	0.451487
	O318	O	0.065035	1.023612	0.006001
	H319	H	0.059159	1.022948	0.022831
	H320	H	0.068381	1.024683	0.011844
	O321	O	1.008325	1.015186	0.026472
	H322	H	1.013725	1.022505	0.025513
	H323	H	1.009231	1.011442	0.025385
