data_Molecule from HDF5

_cell_length_a		16.678621
_cell_length_b		16.649181
_cell_length_c		16.553637
_cell_angle_alpha	90.092487
_cell_angle_beta	90.041019
_cell_angle_gamma	89.898003
_symmetry_space_group_name_H-M	'P 1'
_symmetry_Int_Tables_number		1

loop_
	_symmetry_equiv_pos_as_xyz
	x,y,z

loop_
	_atom_site_label
	_atom_site_type_symbol
	_atom_site_fract_x
	_atom_site_fract_y
	_atom_site_fract_z
	H0	H	0.391070	0.832920	0.723868
	H1	H	0.597004	0.146126	0.721487
	H2	H	0.603349	0.835356	0.278277
	H3	H	0.389180	0.143882	0.281662
	H4	H	0.713980	0.386908	0.846092
	H5	H	0.716682	0.595785	0.159188
	H6	H	0.269773	0.599210	0.849924
	H7	H	0.274968	0.385440	0.159928
	H8	H	0.840066	0.712192	0.397147
	H9	H	0.145361	0.716930	0.615258
	H10	H	0.842659	0.265635	0.610315
	H11	H	0.146916	0.263850	0.392391
	H12	H	0.842184	0.382583	0.725987
	H13	H	0.147856	0.599694	0.729147
	H14	H	0.838043	0.593103	0.283473
	H15	H	0.149020	0.383713	0.280339
	H16	H	0.385486	0.714063	0.849572
	H17	H	0.602156	0.712974	0.158661
	H18	H	0.597362	0.272383	0.845198
	H19	H	0.390879	0.268948	0.159126
	H20	H	0.720451	0.835590	0.393796
	H21	H	0.715268	0.144605	0.607467
	H22	H	0.273227	0.834125	0.609013
	H23	H	0.270933	0.142585	0.395006
	H24	H	0.892388	0.333752	0.222586
	H25	H	0.101676	0.645225	0.226422
	H26	H	0.102378	0.335474	0.780489
	H27	H	0.887615	0.642885	0.779290
	H28	H	0.217653	0.880654	0.348429
	H29	H	0.218069	0.096152	0.657049
	H30	H	0.770834	0.097715	0.348734
	H31	H	0.771938	0.882678	0.658143
	H32	H	0.339179	0.209224	0.899820
	H33	H	0.650161	0.210319	0.106695
	H34	H	0.344727	0.762166	0.115696
	H35	H	0.650062	0.766258	0.896496
	H36	H	0.342687	0.880395	0.229172
	H37	H	0.649625	0.095499	0.224931
	H38	H	0.337823	0.090307	0.785563
	H39	H	0.651554	0.886796	0.783980
	H40	H	0.889429	0.210421	0.347186
	H41	H	0.102226	0.211878	0.656630
	H42	H	0.102006	0.764940	0.348222
	H43	H	0.882689	0.762490	0.654901
	H44	H	0.218526	0.335715	0.896131
	H45	H	0.219830	0.643001	0.113522
	H46	H	0.775065	0.334565	0.107266
	H47	H	0.770648	0.643113	0.894635
	H48	H	0.412177	0.098905	0.593623
	H49	H	0.584943	0.876296	0.595334
	H50	H	0.585282	0.099419	0.419027
	H51	H	0.412811	0.878456	0.411764
	H52	H	0.580714	0.398037	0.114884
	H53	H	0.584900	0.572923	0.892339
	H54	H	0.413700	0.576235	0.112743
	H55	H	0.408958	0.393282	0.889791
	H56	H	0.105938	0.579026	0.416367
	H57	H	0.882568	0.578646	0.593299
	H58	H	0.108470	0.400828	0.596780
	H59	H	0.885067	0.397127	0.421306
	H60	H	0.106806	0.394973	0.585398
	H61	H	0.886777	0.577267	0.583574
	H62	H	0.103603	0.575925	0.417716
	H63	H	0.885260	0.408210	0.413222
	H64	H	0.406888	0.579049	0.115376
	H65	H	0.577608	0.578193	0.893811
	H66	H	0.589113	0.394941	0.119122
	H67	H	0.397679	0.402346	0.889285
	H68	H	0.584192	0.100332	0.413127
	H69	H	0.584557	0.877722	0.590844
	H70	H	0.402867	0.098690	0.586044
	H71	H	0.410233	0.881626	0.421980
	H72	H	0.901101	0.603888	0.096896
	H73	H	0.082060	0.380517	0.091239
	H74	H	0.082259	0.600309	0.917082
	H75	H	0.905627	0.377531	0.911586
	H76	H	0.081531	0.903507	0.613304
	H77	H	0.082294	0.078860	0.389873
	H78	H	0.906568	0.081580	0.616382
	H79	H	0.910459	0.902731	0.394345
	H80	H	0.609444	0.082866	0.908335
	H81	H	0.387722	0.074123	0.087121
	H82	H	0.602924	0.906397	0.087499
	H83	H	0.384386	0.902942	0.911305
	H84	H	0.604525	0.904342	0.091355
	H85	H	0.382277	0.077443	0.099556
	H86	H	0.608265	0.084485	0.912442
	H87	H	0.384057	0.897197	0.916136
	H88	H	0.903972	0.075633	0.614509
	H89	H	0.086150	0.075679	0.390145
	H90	H	0.081936	0.901656	0.613984
	H91	H	0.908160	0.900699	0.391353
	H92	H	0.080617	0.599163	0.918719
	H93	H	0.083934	0.379988	0.090105
	H94	H	0.909578	0.600543	0.093810
	H95	H	0.908766	0.379874	0.916364
	H96	H	0.401302	0.102000	0.597522
	H97	H	0.588909	0.875310	0.592337
	H98	H	0.579505	0.098166	0.417037
	H99	H	0.402637	0.876782	0.415623
	H100	H	0.588722	0.404622	0.115320
	H101	H	0.585500	0.581523	0.889455
	H102	H	0.407019	0.571199	0.112906
	H103	H	0.409944	0.406502	0.895695
	H104	H	0.105660	0.576168	0.413718
	H105	H	0.886985	0.569432	0.590506
	H106	H	0.103071	0.407723	0.586762
	H107	H	0.881012	0.396447	0.408750
	H108	H	0.902336	0.601153	0.087659
	H109	H	0.083448	0.379292	0.092486
	H110	H	0.082875	0.598949	0.919512
	H111	H	0.903239	0.377818	0.917561
	H112	H	0.083510	0.902864	0.613859
	H113	H	0.081990	0.074655	0.392657
	H114	H	0.910509	0.076976	0.613420
	H115	H	0.907172	0.904097	0.391729
	H116	H	0.607511	0.080365	0.911876
	H117	H	0.382224	0.086438	0.089109
	H118	H	0.604597	0.902539	0.087423
	H119	H	0.386731	0.903394	0.918371
	C120	C	0.373527	-0.002921	0.624328
	C121	C	0.616678	0.980251	0.624313
	C122	C	0.616919	-0.002528	0.381862
	C123	C	0.374780	0.980799	0.382594
	C124	C	0.616625	0.368335	0.011948
	C125	C	0.615899	0.610682	0.994866
	C126	C	0.374429	0.610482	0.012228
	C127	C	0.373938	0.368726	0.995115
	C128	C	0.002693	0.610607	0.382538
	C129	C	0.985887	0.610750	0.624595
	C130	C	0.004390	0.368187	0.623264
	C131	C	0.985566	0.367580	0.380820
	C132	C	0.873208	0.498800	0.124790
	C133	C	0.116550	0.481432	0.125462
	C134	C	0.115898	0.497921	0.883727
	C135	C	0.873271	0.480674	0.881664
	C136	C	0.115730	0.867946	0.511486
	C137	C	0.116393	0.109765	0.493568
	C138	C	0.873911	0.110773	0.511718
	C139	C	0.873932	0.868528	0.494327
	C140	C	0.504157	0.112015	0.880738
	C141	C	0.486577	0.111297	0.124094
	C142	C	0.503609	0.869277	0.124118
	C143	C	0.487377	0.868572	0.882466
	C144	C	0.372218	0.880009	0.684190
	C145	C	0.616787	0.098528	0.682754
	C146	C	0.620724	0.881671	0.319568
	C147	C	0.371017	0.097237	0.321495
	C148	C	0.674882	0.367683	0.893372
	C149	C	0.676704	0.613840	0.112160
	C150	C	0.310999	0.615897	0.896366
	C151	C	0.314764	0.366840	0.112906
	C152	C	0.886029	0.671068	0.379811
	C153	C	0.100020	0.675238	0.631495
	C154	C	0.888709	0.306527	0.627713
	C155	C	0.101110	0.305414	0.375808
	C156	C	0.888590	0.364675	0.685420
	C157	C	0.100959	0.616849	0.688274
	C158	C	0.885373	0.612221	0.322824
	C159	C	0.102142	0.364870	0.319958
	C160	C	0.368498	0.673481	0.896255
	C161	C	0.619531	0.671936	0.112035
	C162	C	0.616668	0.310866	0.892914
	C163	C	0.372213	0.308968	0.112403
	C164	C	0.679089	0.881788	0.376947
	C165	C	0.675424	0.097861	0.625988
	C166	C	0.313495	0.880476	0.627216
	C167	C	0.312482	0.096610	0.378139
	C168	C	0.872866	0.381179	0.183481
	C169	C	0.119643	0.598015	0.186603
	C170	C	0.119891	0.381975	0.821609
	C171	C	0.869719	0.596544	0.819784
	C172	C	0.177244	0.863063	0.395018
	C173	C	0.177546	0.113737	0.610335
	C174	C	0.812145	0.114668	0.395113
	C175	C	0.811844	0.864406	0.610872
	C176	C	0.385841	0.169468	0.880889
	C177	C	0.603386	0.170853	0.125938
	C178	C	0.389752	0.804975	0.131075
	C179	C	0.603882	0.807762	0.879222
	C180	C	0.388913	0.863632	0.187926
	C181	C	0.603091	0.113778	0.184499
	C182	C	0.385341	0.110409	0.824138
	C183	C	0.604614	0.867279	0.822982
	C184	C	0.870981	0.170778	0.394253
	C185	C	0.119876	0.171274	0.610108
	C186	C	0.119570	0.805613	0.395070
	C187	C	0.867298	0.804927	0.609430
	C188	C	0.177726	0.382041	0.879193
	C189	C	0.178283	0.597219	0.129990
	C190	C	0.814449	0.381305	0.126262
	C191	C	0.811702	0.596757	0.877278
	C192	C	0.398231	0.078754	0.599461
	C193	C	0.592972	0.897985	0.599951
	C194	C	0.590350	0.078261	0.408799
	C195	C	0.401119	0.900165	0.408896
	C196	C	0.593061	0.392238	0.094737
	C197	C	0.590075	0.584887	0.913209
	C198	C	0.401754	0.583286	0.092639
	C199	C	0.398437	0.393652	0.912875
	C200	C	0.083858	0.584709	0.408682
	C201	C	0.906324	0.583141	0.596998
	C202	C	0.085070	0.393936	0.597109
	C203	C	0.904835	0.393089	0.407039
	C204	C	0.897318	0.580578	0.099839
	C205	C	0.090550	0.400747	0.098811
	C206	C	0.089410	0.578586	0.910704
	C207	C	0.898639	0.399638	0.907769
	C208	C	0.089709	0.894945	0.592709
	C209	C	0.090714	0.083811	0.412181
	C210	C	0.899646	0.085403	0.593573
	C211	C	0.900814	0.895061	0.413561
	C212	C	0.586856	0.089260	0.904071
	C213	C	0.405249	0.086520	0.098952
	C214	C	0.583304	0.896796	0.096341
	C215	C	0.406281	0.893998	0.908083
	Zn216	Zn	0.494929	-0.010898	0.752925
	Zn217	Zn	0.495624	-0.010038	0.253290
	Zn218	Zn	0.744544	0.489755	0.002905
	Zn219	Zn	0.245919	0.490011	0.004186
	Zn220	Zn	-0.005493	0.739604	0.503443
	Zn221	Zn	-0.004825	0.238547	0.501886
	Zn222	Zn	-0.004408	0.489499	0.753411
	Zn223	Zn	-0.005447	0.490146	0.253579
	Zn224	Zn	0.495198	0.739466	0.003366
	Zn225	Zn	0.495198	0.240499	0.002990
	Zn226	Zn	0.745927	-0.010363	0.502937
	Zn227	Zn	0.244918	-0.011377	0.502382
	N228	N	0.408913	0.953715	0.682682
	N229	N	0.581328	0.024082	0.682337
	N230	N	0.582752	0.954807	0.322584
	N231	N	0.409137	0.024195	0.323923
	N232	N	0.675132	0.402613	0.968470
	N233	N	0.674866	0.576714	0.037977
	N234	N	0.314255	0.577488	0.969436
	N235	N	0.315637	0.403057	0.038671
	N236	N	0.960200	0.670262	0.415841
	N237	N	0.027545	0.671582	0.592447
	N238	N	0.961778	0.308403	0.589916
	N239	N	0.027594	0.306788	0.412942
	N240	N	0.961760	0.402252	0.683075
	N241	N	0.028905	0.577430	0.684391
	N242	N	0.959157	0.575445	0.324329
	N243	N	0.029234	0.402810	0.322824
	N244	N	0.407309	0.670361	0.969324
	N245	N	0.582449	0.670137	0.038019
	N246	N	0.581323	0.310762	0.967824
	N247	N	0.408241	0.309877	0.037971
	N248	N	0.676842	0.955023	0.415037
	N249	N	0.675769	0.023197	0.590545
	N250	N	0.314204	0.954314	0.590748
	N251	N	0.314492	0.023084	0.415422
	N252	N	0.908495	0.455292	0.182780
	N253	N	0.081925	0.524899	0.184003
	N254	N	0.082122	0.455106	0.824222
	N255	N	0.907161	0.523225	0.822153
	N256	N	0.175142	0.901086	0.468523
	N257	N	0.175717	0.076265	0.536564
	N258	N	0.813756	0.078214	0.469355
	N259	N	0.815860	0.903374	0.538146
	N260	N	0.460814	0.170871	0.915268
	N261	N	0.529756	0.169666	0.089230
	N262	N	0.461956	0.808532	0.091890
	N263	N	0.529806	0.808286	0.915384
	N264	N	0.460846	0.903240	0.183782
	N265	N	0.529349	0.077566	0.183762
	N266	N	0.460129	0.075852	0.823541
	N267	N	0.531081	0.904336	0.824757
	N268	N	0.908711	0.168650	0.467937
	N269	N	0.082711	0.169155	0.536244
	N270	N	0.082036	0.808385	0.468679
	N271	N	0.905370	0.807358	0.536122
	N272	N	0.175426	0.455360	0.917281
	N273	N	0.176855	0.523616	0.092641
	N274	N	0.814253	0.455765	0.090584
	N275	N	0.813613	0.523545	0.915091
	O276	O	-0.026344	0.966550	-0.237626
	H277	H	-0.051052	0.970127	-0.229478
	H278	H	-0.030245	0.949949	-0.226619
	O279	O	0.640796	0.636216	0.531632
	H280	H	0.645288	0.655535	0.543368
	H281	H	0.638214	0.626992	0.528384
	O282	O	0.995350	-0.195076	0.935811
	H283	H	0.998015	-0.181600	0.952303
	H284	H	0.989873	-0.199907	0.956230
	O285	O	0.457629	0.577442	0.484922
	H286	H	0.443571	0.591129	0.489123
	H287	H	0.462750	0.567344	0.473043
	O288	O	0.706118	0.694407	0.710468
	H289	H	0.709659	0.674569	0.676241
	H290	H	0.668949	0.685110	0.713487
	O291	O	0.495906	0.535816	0.723168
	H292	H	0.482063	0.510616	0.722356
	H293	H	0.515011	0.534265	0.720687
	O294	O	0.999683	-0.107031	0.926915
	H295	H	0.988899	-0.102987	0.928420
	H296	H	1.005697	-0.098735	0.922461
	O297	O	0.437730	0.455642	0.281103
	H298	H	0.432862	0.458672	0.275400
	H299	H	0.429649	0.442382	0.292269
	O300	O	-0.032528	0.210131	0.778582
	H301	H	-0.067813	0.205747	0.784646
	H302	H	-0.048719	0.236076	0.749656
	O303	O	0.260348	0.430584	0.444158
	H304	H	0.257408	0.423378	0.446622
	H305	H	0.261417	0.414774	0.447977
	O306	O	0.714928	0.452735	0.287216
	H307	H	0.730412	0.457083	0.264974
	H308	H	0.709759	0.469409	0.294674
	O309	O	0.532667	0.709434	0.718618
	H310	H	0.529200	0.711798	0.731196
	H311	H	0.524074	0.705415	0.732188
	O312	O	0.443254	0.647930	0.556826
	H313	H	0.440052	0.646396	0.563585
	H314	H	0.435823	0.650473	0.570478
	O315	O	1.130540	1.018278	1.009123
	H316	H	1.125382	1.016237	0.992608
	H317	H	1.120896	1.032436	1.013405
	O318	O	0.467160	0.701576	0.286682
	H319	H	0.470233	0.697964	0.308404
	H320	H	0.471172	0.724287	0.273071
	O321	O	0.192606	1.007103	0.842489
	H322	H	0.209691	1.022137	0.843524
	H323	H	0.180923	1.016139	0.844365
	O324	O	0.962173	0.766307	0.226201
	H325	H	0.958201	0.772503	0.223985
	H326	H	0.959168	0.744733	0.248910
	O327	O	0.151583	0.000369	1.190178
	H328	H	0.157045	-0.015753	1.195070
	H329	H	0.151440	-0.016710	1.182316
	O330	O	0.457365	0.630552	0.471750
	H331	H	0.438602	0.632872	0.484575
	H332	H	0.473539	0.631186	0.487500
	O333	O	0.458662	0.261149	0.728652
	H334	H	0.428155	0.254104	0.738107
	H335	H	0.437997	0.244778	0.748818
	O336	O	0.573672	0.387681	0.373402
	H337	H	0.586338	0.388311	0.366651
	H338	H	0.580522	0.402138	0.357681
	O339	O	0.952576	0.200628	1.019813
	H340	H	0.966728	0.215967	0.994325
	H341	H	0.940553	0.198154	1.015928
	O342	O	-0.133623	-0.216137	-0.122344
	H343	H	-0.147395	-0.236789	-0.138317
	H344	H	-0.118740	-0.218180	-0.111604
	O345	O	-0.109516	1.020554	1.083354
	H346	H	-0.107287	1.010955	1.080248
	H347	H	-0.108039	1.012550	1.093766
	O348	O	0.200461	0.193147	0.208033
	H349	H	0.186344	0.162551	0.209460
	H350	H	0.184513	0.208336	0.223597
	O351	O	1.018665	1.036838	0.169664
	H352	H	1.008801	1.038877	0.159099
	H353	H	1.021452	1.027096	0.175664
	O354	O	0.031607	0.053262	0.820185
	H355	H	0.028095	0.048126	0.826127
	H356	H	0.001088	0.049005	0.810611
	O357	O	0.723818	0.553278	0.437565
	H358	H	0.723611	0.552590	0.450536
	H359	H	0.723999	0.550308	0.435315
	O360	O	0.558528	0.390696	0.687267
	H361	H	0.568950	0.386884	0.677905
	H362	H	0.541475	0.377979	0.688907
	O363	O	-0.237353	-0.010189	-0.008404
	H364	H	-0.235838	-0.021663	-0.010673
	H365	H	-0.243384	0.002247	-0.028392
	O366	O	0.290264	0.695161	0.294196
	H367	H	0.302557	0.699859	0.330416
	H368	H	0.313369	0.667745	0.293420
	O369	O	0.772524	0.202639	-0.030204
	H370	H	0.770345	0.203143	-0.048918
	H371	H	0.761066	0.217037	-0.035692
	O372	O	0.823495	1.141640	0.152175
	H373	H	0.843302	1.132947	0.127001
	H374	H	0.829890	1.114607	0.145453
	O375	O	0.924828	-0.109063	0.098421
	H376	H	0.929908	-0.105685	0.096646
	H377	H	0.913212	-0.108417	0.099902
	O378	O	0.568202	0.704679	0.425570
	H379	H	0.554698	0.704134	0.431270
	H380	H	0.565390	0.704772	0.446542
	O381	O	0.007602	0.776982	0.781085
	H382	H	0.013301	0.762727	0.788111
	H383	H	0.012849	0.777609	0.768325
	O384	O	0.862076	-0.095319	1.139210
	H385	H	0.873342	-0.107594	1.133764
	H386	H	0.849757	-0.092792	1.139396
	O387	O	1.203070	0.783899	-0.206874
	H388	H	1.197839	0.821215	-0.203291
	H389	H	1.177219	0.793585	-0.190776
	O390	O	0.568094	0.453195	0.498713
	H391	H	0.564352	0.448078	0.488643
	H392	H	0.566864	0.450657	0.503226
	O393	O	0.716059	0.521535	0.716619
	H394	H	0.747142	0.515226	0.740073
	H395	H	0.707849	0.513180	0.695897
	O396	O	0.389846	0.391072	0.572752
	H397	H	0.388818	0.384675	0.577654
	H398	H	0.397992	0.401084	0.569851
	O399	O	0.181675	0.181027	0.817446
	H400	H	0.168008	0.160518	0.840021
	H401	H	0.163438	0.162627	0.829322
	O402	O	0.300046	0.299361	0.315705
	H403	H	0.309097	0.299313	0.316884
	H404	H	0.299624	0.294851	0.329277
	O405	O	0.776937	0.029414	0.779872
	H406	H	0.764196	0.015654	0.772682
	H407	H	0.771184	0.014426	0.779035
	O408	O	0.126763	-0.044777	0.228726
	H409	H	0.130545	-0.042983	0.224864
	H410	H	0.139041	-0.039186	0.234096
	O411	O	0.788031	0.885864	0.917331
	H412	H	0.800129	0.864704	0.912957
	H413	H	0.800388	0.877648	0.905436
	O414	O	0.690483	0.298231	0.692949
	H415	H	0.673708	0.299386	0.692843
	H416	H	0.683663	0.308072	0.660535
	O417	O	0.420688	0.279237	0.438651
	H418	H	0.428231	0.280106	0.430527
	H419	H	0.420460	0.273910	0.440365
	O420	O	0.274881	0.461976	0.721473
	H421	H	0.264805	0.452642	0.739341
	H422	H	0.270703	0.461460	0.714711
	O423	O	0.222971	-0.060683	0.945091
	H424	H	0.202424	-0.065596	0.946505
	H425	H	0.232005	-0.049869	0.945891
	O426	O	0.716608	0.273321	0.481115
	H427	H	0.731344	0.251407	0.456528
	H428	H	0.701383	0.262232	0.463423
	O429	O	1.217030	0.768499	0.991204
	H430	H	1.232976	0.764571	0.976417
	H431	H	1.222939	0.762520	0.974157
	O432	O	0.698538	0.692650	0.426287
	H433	H	0.689063	0.689975	0.434329
	H434	H	0.698682	0.685955	0.432114
	O435	O	0.028102	1.203736	0.217978
	H436	H	0.012750	1.203996	0.218148
	H437	H	0.019001	1.217112	0.227479
	O438	O	0.281957	0.276409	-0.283365
	H439	H	0.253086	0.251732	-0.265947
	H440	H	0.268694	0.293988	-0.291498
	O441	O	-0.129722	-0.131396	0.041608
	H442	H	-0.128497	-0.135506	0.059551
	H443	H	-0.137401	-0.149077	0.053947
	O444	O	0.277321	0.521639	0.287781
	H445	H	0.263515	0.523859	0.280187
	H446	H	0.276775	0.519937	0.283458
	O447	O	-0.257956	1.249380	1.256485
	H448	H	-0.257382	1.267283	1.246750
	H449	H	-0.233177	1.218510	1.230525
	O450	O	0.203964	1.007822	0.942406
	H451	H	0.211087	1.036330	0.966968
	H452	H	0.202446	0.995926	0.936765
	O453	O	0.472832	0.408286	0.662544
	H454	H	0.480486	0.402931	0.650162
	H455	H	0.467746	0.402303	0.664623
	O456	O	0.267741	0.269245	0.528610
	H457	H	0.277373	0.261649	0.537696
	H458	H	0.264790	0.246266	0.534257
	O459	O	0.783431	0.971624	0.219068
	H460	H	0.769347	0.964254	0.216285
	H461	H	0.783628	0.958296	0.223709
	O462	O	0.562532	0.533893	0.275230
	H463	H	0.554821	0.531408	0.274692
	H464	H	0.551287	0.533692	0.279023
	O465	O	0.768931	-0.236614	0.231914
	H466	H	0.768303	-0.249830	0.249223
	H467	H	0.769729	-0.228531	0.219962
	O468	O	0.265657	0.553205	0.552878
	H469	H	0.271199	0.550761	0.553940
	H470	H	0.275538	0.545522	0.559329
	O471	O	0.499822	0.307129	0.318366
	H472	H	0.504806	0.287634	0.300440
	H473	H	0.511932	0.322794	0.325072
	O474	O	0.188770	0.812826	0.176393
	H475	H	0.202939	0.800288	0.166838
	H476	H	0.202410	0.801586	0.181848
	O477	O	0.331418	0.660641	1.678290
	H478	H	0.337446	0.630136	1.686811
	H479	H	0.307790	0.684590	1.698481
	O480	O	0.728159	0.430486	0.559680
	H481	H	0.726939	0.422706	0.548901
	H482	H	0.721611	0.408890	0.547811
	O483	O	0.538892	0.264114	0.442201
	H484	H	0.548298	0.256804	0.427487
	H485	H	0.544044	0.268598	0.443670
	O486	O	0.787171	0.197235	0.794688
	H487	H	0.765874	0.221421	0.784195
	H488	H	0.780942	0.147290	0.791436
	O489	O	1.053307	0.767936	0.085623
	H490	H	1.074476	0.763324	0.082948
	H491	H	1.047926	0.766736	0.109784
	O492	O	0.217670	0.216864	0.033003
	H493	H	0.233255	0.228330	0.054910
	H494	H	0.227281	0.223952	0.061890
	O495	O	0.017068	1.226190	0.995239
	H496	H	0.017552	1.222422	0.979943
	H497	H	0.040224	1.231676	0.984991
	O498	O	0.919063	1.013844	0.877803
	H499	H	0.914345	1.026887	0.896106
	H500	H	0.919570	0.995068	0.885277
	O501	O	0.292037	0.709021	0.516691
	H502	H	0.269657	0.716578	0.520930
	H503	H	0.281050	0.704450	0.534946
