data_Molecule from HDF5

_cell_length_a		16.350431
_cell_length_b		16.260953
_cell_length_c		16.399285
_cell_angle_alpha	89.842487
_cell_angle_beta	90.061300
_cell_angle_gamma	90.031139
_symmetry_space_group_name_H-M	'P 1'
_symmetry_Int_Tables_number		1

loop_
	_symmetry_equiv_pos_as_xyz
	x,y,z

loop_
	_atom_site_label
	_atom_site_type_symbol
	_atom_site_fract_x
	_atom_site_fract_y
	_atom_site_fract_z
	H0	H	0.395480	0.825972	0.710088
	H1	H	0.604347	0.147190	0.709190
	H2	H	0.602455	0.825237	0.274518
	H3	H	0.394909	0.148038	0.269904
	H4	H	0.720874	0.381491	0.831796
	H5	H	0.720855	0.592471	0.149788
	H6	H	0.281799	0.587335	0.829358
	H7	H	0.279917	0.381294	0.150799
	H8	H	0.838780	0.707320	0.390754
	H9	H	0.162782	0.705917	0.591266
	H10	H	0.838349	0.272083	0.593268
	H11	H	0.160941	0.270654	0.388691
	H12	H	0.839409	0.385449	0.711909
	H13	H	0.161592	0.592230	0.710484
	H14	H	0.841653	0.598506	0.268426
	H15	H	0.160606	0.386270	0.272059
	H16	H	0.393747	0.707401	0.830781
	H17	H	0.603908	0.706781	0.149901
	H18	H	0.600664	0.269387	0.829847
	H19	H	0.395993	0.266241	0.151607
	H20	H	0.719704	0.827143	0.387368
	H21	H	0.715387	0.150225	0.591586
	H22	H	0.279897	0.827723	0.594450
	H23	H	0.284404	0.151545	0.389558
	H24	H	0.893365	0.331424	0.216333
	H25	H	0.106011	0.651308	0.207536
	H26	H	0.102619	0.328190	0.772132
	H27	H	0.896064	0.650262	0.772791
	H28	H	0.220808	0.885775	0.331856
	H29	H	0.221252	0.094233	0.650261
	H30	H	0.778774	0.095894	0.331571
	H31	H	0.779413	0.883049	0.650582
	H32	H	0.338734	0.204485	0.887370
	H33	H	0.661090	0.204331	0.092430
	H34	H	0.336412	0.770712	0.089664
	H35	H	0.659683	0.765415	0.887736
	H36	H	0.339443	0.880587	0.212129
	H37	H	0.660054	0.088929	0.209566
	H38	H	0.340704	0.088621	0.770146
	H39	H	0.660143	0.878340	0.768689
	H40	H	0.894515	0.212636	0.332518
	H41	H	0.102689	0.207694	0.652482
	H42	H	0.103641	0.770771	0.331004
	H43	H	0.898547	0.771597	0.652445
	H44	H	0.214857	0.325066	0.888892
	H45	H	0.220875	0.648428	0.091955
	H46	H	0.779126	0.328247	0.098998
	H47	H	0.778004	0.648022	0.886229
	H48	H	0.407084	0.102375	0.578483
	H49	H	0.588870	0.873758	0.575629
	H50	H	0.588187	0.100087	0.405721
	H51	H	0.410818	0.875218	0.406095
	H52	H	0.588561	0.399131	0.103422
	H53	H	0.588554	0.578125	0.875958
	H54	H	0.411249	0.581031	0.105342
	H55	H	0.411773	0.391426	0.876505
	H56	H	0.117816	0.585809	0.397952
	H57	H	0.884880	0.586276	0.580121
	H58	H	0.116255	0.397561	0.586415
	H59	H	0.889465	0.405704	0.406904
	H60	H	0.113741	0.398422	0.579189
	H61	H	0.888205	0.574640	0.579740
	H62	H	0.113202	0.579911	0.406181
	H63	H	0.887676	0.405458	0.400547
	H64	H	0.404048	0.574379	0.105844
	H65	H	0.591495	0.571003	0.877595
	H66	H	0.587250	0.393648	0.105463
	H67	H	0.401433	0.392751	0.874360
	H68	H	0.595657	0.105374	0.397645
	H69	H	0.593887	0.870573	0.579565
	H70	H	0.412877	0.104450	0.585792
	H71	H	0.405147	0.871870	0.401735
	H72	H	0.903343	0.607327	0.083277
	H73	H	0.086726	0.375075	0.082249
	H74	H	0.092804	0.604970	0.899521
	H75	H	0.910556	0.373673	0.902200
	H76	H	0.085908	0.901462	0.603426
	H77	H	0.096549	0.080921	0.375264
	H78	H	0.905968	0.085821	0.608074
	H79	H	0.907929	0.899848	0.377372
	H80	H	0.616747	0.080612	0.896576
	H81	H	0.384634	0.075514	0.080181
	H82	H	0.613191	0.898316	0.082624
	H83	H	0.382828	0.895004	0.893227
	H84	H	0.613850	0.894865	0.082489
	H85	H	0.386163	0.074032	0.080325
	H86	H	0.613503	0.078063	0.904595
	H87	H	0.387482	0.894187	0.905118
	H88	H	0.903004	0.075522	0.605387
	H89	H	0.088265	0.074011	0.380371
	H90	H	0.091161	0.894827	0.606657
	H91	H	0.910096	0.901973	0.378894
	H92	H	0.089762	0.602927	0.900777
	H93	H	0.091741	0.372148	0.082115
	H94	H	0.921106	0.601103	0.083501
	H95	H	0.911527	0.373603	0.901903
	H96	H	0.415888	0.100064	0.577743
	H97	H	0.587401	0.872017	0.582577
	H98	H	0.583864	0.103080	0.394252
	H99	H	0.412047	0.872976	0.399207
	H100	H	0.592521	0.396276	0.105725
	H101	H	0.583844	0.573182	0.880131
	H102	H	0.413243	0.572046	0.102022
	H103	H	0.407289	0.400709	0.877882
	H104	H	0.114867	0.575282	0.396038
	H105	H	0.883913	0.579248	0.589547
	H106	H	0.113930	0.404423	0.584148
	H107	H	0.885960	0.400099	0.404445
	H108	H	0.910525	0.599466	0.068707
	H109	H	0.088459	0.372134	0.086766
	H110	H	0.092825	0.603393	0.903173
	H111	H	0.911365	0.374488	0.903129
	H112	H	0.094722	0.903173	0.605744
	H113	H	0.085448	0.085498	0.376599
	H114	H	0.913763	0.078927	0.603321
	H115	H	0.911084	0.899609	0.377108
	H116	H	0.613966	0.071403	0.898315
	H117	H	0.384697	0.075087	0.082116
	H118	H	0.613064	0.896843	0.079893
	H119	H	0.388580	0.905179	0.898491
	C120	C	0.379615	-0.003732	0.611920
	C121	C	0.621350	0.978377	0.611053
	C122	C	0.620564	-0.003852	0.369398
	C123	C	0.378217	0.979781	0.370034
	C124	C	0.620951	0.365048	-0.000629
	C125	C	0.620690	0.607459	0.982453
	C126	C	0.377685	0.607232	-0.001450
	C127	C	0.376119	0.362905	0.982240
	C128	C	0.009385	0.612397	0.368995
	C129	C	0.992208	0.610966	0.613474
	C130	C	0.008298	0.368459	0.613777
	C131	C	0.992487	0.370281	0.371309
	C132	C	0.878582	0.497681	0.112826
	C133	C	0.121304	0.479742	0.112913
	C134	C	0.121576	0.496834	0.870182
	C135	C	0.878963	0.480195	0.870919
	C136	C	0.122439	0.868098	0.499835
	C137	C	0.121392	0.111321	0.483119
	C138	C	0.876685	0.111838	0.499897
	C139	C	0.878707	0.868311	0.483333
	C140	C	0.508808	0.107662	0.868462
	C141	C	0.491077	0.106937	0.112209
	C142	C	0.507382	0.864485	0.112600
	C143	C	0.491689	0.865043	0.867779
	C144	C	0.377362	0.874568	0.670521
	C145	C	0.622655	0.099318	0.669665
	C146	C	0.621308	0.873917	0.312901
	C147	C	0.376746	0.100207	0.309965
	C148	C	0.680822	0.363040	0.879377
	C149	C	0.680890	0.610500	0.102062
	C150	C	0.319922	0.607331	0.877604
	C151	C	0.318590	0.362201	0.102757
	C152	C	0.887592	0.669921	0.369681
	C153	C	0.114062	0.667710	0.611674
	C154	C	0.886926	0.310607	0.613164
	C155	C	0.112830	0.310159	0.369781
	C156	C	0.887360	0.367285	0.672003
	C157	C	0.113357	0.611417	0.671335
	C158	C	0.888998	0.615442	0.309159
	C159	C	0.112588	0.367709	0.311555
	C160	C	0.376112	0.666781	0.878285
	C161	C	0.622452	0.667565	0.102018
	C162	C	0.620688	0.307608	0.878224
	C163	C	0.376527	0.304639	0.102964
	C164	C	0.679996	0.875078	0.368810
	C165	C	0.677942	0.100866	0.611244
	C166	C	0.319497	0.875475	0.613197
	C167	C	0.321593	0.101916	0.369504
	C168	C	0.875581	0.378622	0.175310
	C169	C	0.123530	0.602237	0.168928
	C170	C	0.121369	0.375965	0.811351
	C171	C	0.877216	0.601651	0.812081
	C172	C	0.181375	0.866928	0.379632
	C173	C	0.181036	0.112531	0.602998
	C174	C	0.818129	0.113900	0.379775
	C175	C	0.819506	0.865726	0.603093
	C176	C	0.387508	0.165419	0.867948
	C177	C	0.612356	0.165315	0.112244
	C178	C	0.385632	0.807682	0.111102
	C179	C	0.611708	0.804888	0.867951
	C180	C	0.387036	0.862706	0.171642
	C181	C	0.611888	0.107975	0.170683
	C182	C	0.388296	0.107986	0.809475
	C183	C	0.612108	0.861605	0.809051
	C184	C	0.875908	0.172193	0.380185
	C185	C	0.122018	0.169043	0.603891
	C186	C	0.123070	0.809491	0.379456
	C187	C	0.878984	0.809927	0.603845
	C188	C	0.177048	0.374296	0.869796
	C189	C	0.181289	0.600826	0.111800
	C190	C	0.818532	0.377051	0.116884
	C191	C	0.818506	0.600595	0.868282
	C192	C	0.404776	0.080468	0.587619
	C193	C	0.597230	0.893979	0.586457
	C194	C	0.596150	0.080760	0.392397
	C195	C	0.402298	0.895287	0.395014
	C196	C	0.596516	0.389218	0.082828
	C197	C	0.595387	0.581468	0.899647
	C198	C	0.402218	0.582727	0.082491
	C199	C	0.399945	0.387622	0.898066
	C200	C	0.093319	0.587559	0.392875
	C201	C	0.907689	0.587050	0.589970
	C202	C	0.092654	0.393002	0.590143
	C203	C	0.909325	0.396329	0.396482
	C204	C	0.904156	0.581007	0.085998
	C205	C	0.096344	0.395112	0.090357
	C206	C	0.098469	0.581745	0.894243
	C207	C	0.903925	0.395938	0.895471
	C208	C	0.097962	0.892796	0.583526
	C209	C	0.097148	0.087139	0.399243
	C210	C	0.900651	0.087068	0.583779
	C211	C	0.902838	0.893262	0.399466
	C212	C	0.592814	0.083531	0.892754
	C213	C	0.407129	0.082136	0.087811
	C214	C	0.591540	0.889405	0.088743
	C215	C	0.407901	0.890729	0.891907
	Zn216	Zn	0.501623	-0.013790	0.739051
	Zn217	Zn	0.499064	-0.013914	0.241542
	Zn218	Zn	0.750380	0.487235	-0.009140
	Zn219	Zn	0.248892	0.486015	-0.008578
	Zn220	Zn	0.000342	0.739470	0.491353
	Zn221	Zn	0.000068	0.240158	0.492161
	Zn222	Zn	0.000157	0.489507	0.742976
	Zn223	Zn	0.000559	0.491145	0.241281
	Zn224	Zn	0.498435	0.736560	-0.009642
	Zn225	Zn	0.499566	0.235922	-0.009285
	Zn226	Zn	0.748528	-0.011536	0.490728
	Zn227	Zn	0.250789	-0.010098	0.491332
	N228	N	0.413995	0.950578	0.669859
	N229	N	0.588375	0.022106	0.669821
	N230	N	0.585163	0.950196	0.312900
	N231	N	0.411358	0.023230	0.310221
	N232	N	0.681539	0.397980	0.955714
	N233	N	0.679774	0.573789	0.026808
	N234	N	0.320692	0.571181	0.953538
	N235	N	0.318134	0.397639	0.026507
	N236	N	0.963373	0.668495	0.405795
	N237	N	0.037603	0.667709	0.576665
	N238	N	0.963046	0.311353	0.577895
	N239	N	0.037040	0.311330	0.405992
	N240	N	0.963954	0.402697	0.672507
	N241	N	0.036509	0.576920	0.672554
	N242	N	0.965738	0.580496	0.308543
	N243	N	0.036688	0.404131	0.312056
	N244	N	0.411194	0.666821	0.954440
	N245	N	0.585694	0.666005	0.026606
	N246	N	0.584192	0.308695	0.953714
	N247	N	0.411297	0.304930	0.026757
	N248	N	0.679774	0.952079	0.403140
	N249	N	0.677416	0.024584	0.575540
	N250	N	0.320891	0.952020	0.577437
	N251	N	0.322094	0.025752	0.405795
	N252	N	0.912206	0.454581	0.172902
	N253	N	0.087090	0.526031	0.169770
	N254	N	0.087438	0.453168	0.811662
	N255	N	0.913961	0.525695	0.813503
	N256	N	0.181189	0.902510	0.455479
	N257	N	0.180757	0.077169	0.526871
	N258	N	0.818493	0.077118	0.455268
	N259	N	0.819425	0.901714	0.527150
	N260	N	0.463382	0.165488	0.903793
	N261	N	0.536226	0.164799	0.076717
	N262	N	0.461613	0.808415	0.075401
	N263	N	0.535743	0.806848	0.903631
	N264	N	0.463864	0.897180	0.172758
	N265	N	0.535500	0.072414	0.170786
	N266	N	0.464816	0.072953	0.809593
	N267	N	0.536283	0.898009	0.808765
	N268	N	0.911879	0.170985	0.455969
	N269	N	0.085554	0.168166	0.528514
	N270	N	0.087164	0.810106	0.455127
	N271	N	0.915051	0.811322	0.528216
	N272	N	0.177432	0.450682	0.905692
	N273	N	0.179882	0.523761	0.077509
	N274	N	0.820412	0.452205	0.078472
	N275	N	0.819622	0.524140	0.904302
	O276	O	0.369686	0.361967	0.526330
	H277	H	0.375814	0.360506	0.513817
	H278	H	0.360737	0.364824	0.525726
	O279	O	0.545467	0.665610	0.374732
	H280	H	0.543391	0.678099	0.359848
	H281	H	0.523491	0.664141	0.387869
	O282	O	0.419415	0.600317	0.404128
	H283	H	0.417249	0.601205	0.396641
	H284	H	0.426737	0.610827	0.425755
	O285	O	0.797869	-0.005693	-0.042498
	H286	H	0.793459	0.021214	-0.035510
	H287	H	0.792481	-0.018309	-0.027508
	O288	O	0.132281	-0.011910	1.191133
	H289	H	0.120794	-0.019023	1.179799
	H290	H	0.144623	-0.012254	1.200979
	O291	O	0.508326	0.579045	0.290932
	H292	H	0.499008	0.606181	0.282484
	H293	H	0.495565	0.573676	0.298747
	O294	O	0.328746	0.649309	0.330193
	H295	H	0.335622	0.650431	0.350114
	H296	H	0.319607	0.637745	0.339650
	O297	O	1.014588	0.952008	1.160473
	H298	H	1.012692	0.958583	1.168624
	H299	H	1.025588	0.951226	1.161309
	O300	O	0.121587	-0.194838	-0.175385
	H301	H	0.130549	-0.208705	-0.182794
	H302	H	0.118173	-0.189503	-0.173548
	O303	O	0.411265	0.370134	0.503957
	H304	H	0.414951	0.364567	0.503453
	H305	H	0.412361	0.382041	0.508526
	O306	O	1.199680	0.021233	-0.141734
	H307	H	1.193598	0.003205	-0.151625
	H308	H	1.192769	-0.005611	-0.137689
	O309	O	0.350086	0.330424	0.655675
	H310	H	0.342031	0.342248	0.668069
	H311	H	0.343069	0.328619	0.644929
	O312	O	1.003660	1.023501	-0.172500
	H313	H	1.000073	1.022567	-0.183875
	H314	H	0.979165	1.023597	-0.165174
	O315	O	0.497325	0.452408	0.588280
	H316	H	0.484152	0.472371	0.590114
	H317	H	0.482991	0.436817	0.580941
	O318	O	0.532764	0.394431	0.331778
	H319	H	0.538565	0.389642	0.316312
	H320	H	0.521336	0.409026	0.328912
	O321	O	0.863350	0.052145	0.800401
	H322	H	0.844915	0.057951	0.783741
	H323	H	0.860409	0.054207	0.813182
	O324	O	0.057446	-0.074729	0.821409
	H325	H	0.060447	-0.086650	0.816906
	H326	H	0.050241	-0.086410	0.811109
	O327	O	0.490399	0.547878	0.487409
	H328	H	0.498302	0.548087	0.481370
	H329	H	0.496169	0.549526	0.488549
	O330	O	0.615009	0.550311	0.560768
	H331	H	0.621827	0.539461	0.545798
	H332	H	0.608749	0.546061	0.563395
	O333	O	0.938619	0.964892	1.154263
	H334	H	0.943245	0.983006	1.162463
	H335	H	0.950339	0.983945	1.143916
	O336	O	0.670998	0.500080	0.648679
	H337	H	0.675720	0.473653	0.644985
	H338	H	0.665565	0.494249	0.661389
	O339	O	1.056158	0.129549	1.153041
	H340	H	1.065291	0.134826	1.163652
	H341	H	1.070466	0.127776	1.159277
	O342	O	-0.174708	0.828141	1.031267
	H343	H	-0.190222	0.811739	1.038965
	H344	H	-0.175427	0.839116	1.037122
	O345	O	0.050784	1.106406	0.851321
	H346	H	0.050514	1.104036	0.859659
	H347	H	0.044605	1.099255	0.843752
	O348	O	0.368603	0.546757	0.385299
	H349	H	0.366571	0.555638	0.375449
	H350	H	0.375357	0.537988	0.382539
	O351	O	-0.038564	-0.142792	0.103416
	H352	H	-0.041903	-0.148349	0.096929
	H353	H	-0.048207	-0.154412	0.104475
	O354	O	1.139553	0.844813	0.034121
	H355	H	1.111576	0.844495	0.025357
	H356	H	1.136126	0.836245	0.057014
	O357	O	0.655465	1.619693	0.585207
	H358	H	0.660572	1.597055	0.568797
	H359	H	0.658592	1.602659	0.573933
	O360	O	0.501335	0.550980	0.599710
	H361	H	0.493779	0.548792	0.598683
	H362	H	0.506521	0.573036	0.605351
	O363	O	0.433755	0.342955	0.641696
	H364	H	0.419153	0.341691	0.640666
	H365	H	0.419400	0.336645	0.651185
	O366	O	0.969619	1.125520	1.051008
	H367	H	0.971684	1.135009	1.047132
	H368	H	0.981029	1.129000	1.073562
	O369	O	0.634697	0.360191	0.513549
	H370	H	0.641672	0.359143	0.506719
	H371	H	0.610547	0.348020	0.517222
	O372	O	0.581137	0.639690	0.527052
	H373	H	0.593151	0.633823	0.513838
	H374	H	0.584704	0.635012	0.540992
	O375	O	0.473307	0.422404	0.614702
	H376	H	0.467477	0.428352	0.616335
	H377	H	0.457990	0.418761	0.619191
	O378	O	0.612451	0.336266	0.342532
	H379	H	0.621141	0.347156	0.343028
	H380	H	0.612068	0.343585	0.341790
	O381	O	0.571272	0.343522	0.472717
	H382	H	0.571995	0.343441	0.448573
	H383	H	0.575613	0.324721	0.474750
	O384	O	-0.211228	1.096131	1.040977
	H385	H	-0.229132	1.120210	1.045022
	H386	H	-0.191721	1.090090	1.052431
	O387	O	0.843889	0.973496	0.168154
	H388	H	0.864475	0.993521	0.176738
	H389	H	0.848421	0.975662	0.167658
	O390	O	0.344666	0.552127	0.429794
	H391	H	0.352850	0.546492	0.423872
	H392	H	0.332963	0.562782	0.438806
	O393	O	1.184692	0.168756	1.144662
	H394	H	1.188514	0.141215	1.148595
	H395	H	1.197931	0.177035	1.118168
	O396	O	0.061332	0.962706	1.063912
	H397	H	0.052635	0.968405	1.074572
	H398	H	0.058870	0.958848	1.057781
	O399	O	0.627496	0.523443	0.355959
	H400	H	0.633773	0.523930	0.372820
	H401	H	0.612605	0.525191	0.356519
	O402	O	0.978904	-0.075079	0.968261
	H403	H	0.970961	-0.064698	0.965975
	H404	H	0.958792	-0.074999	0.969355
	O405	O	0.100192	-0.174794	-0.127606
	H406	H	0.103480	-0.186210	-0.120245
	H407	H	0.090428	-0.175025	-0.116254
	O408	O	0.436765	1.328536	1.376142
	H409	H	0.435229	1.310451	1.365054
	H410	H	0.465889	1.341945	1.384982
	O411	O	0.893218	0.926572	-0.097957
	H412	H	0.894929	0.921419	-0.106751
	H413	H	0.886232	0.936943	-0.095759
	O414	O	-0.182801	0.172665	0.806834
	H415	H	-0.179499	0.169994	0.801951
	H416	H	-0.186109	0.170858	0.820402
	O417	O	0.529487	0.695311	0.701616
	H418	H	0.572435	0.689898	0.685907
	H419	H	0.542150	0.726578	0.733472
	O420	O	0.050284	1.123769	-0.118837
	H421	H	0.052589	1.129890	-0.134792
	H422	H	0.052755	1.125671	-0.124064
	O423	O	1.190501	0.177582	-0.021735
	H424	H	1.186323	0.160011	-0.044213
	H425	H	1.215731	0.192430	-0.022148
	O426	O	-0.052539	0.181843	1.018925
	H427	H	-0.024722	0.185251	1.001854
	H428	H	-0.044827	0.179299	1.026479
	O429	O	-0.108305	0.791400	0.189580
	H430	H	-0.106747	0.779100	0.203359
	H431	H	-0.113510	0.804443	0.187609
