data_Molecule from HDF5

_cell_length_a		16.044654
_cell_length_b		16.451898
_cell_length_c		16.038495
_cell_angle_alpha	90.551522
_cell_angle_beta	90.515846
_cell_angle_gamma	90.121541
_symmetry_space_group_name_H-M	'P 1'
_symmetry_Int_Tables_number		1

loop_
	_symmetry_equiv_pos_as_xyz
	x,y,z

loop_
	_atom_site_label
	_atom_site_type_symbol
	_atom_site_fract_x
	_atom_site_fract_y
	_atom_site_fract_z
	H0	H	0.400515	0.838551	0.708198
	H1	H	0.598150	0.163941	0.716438
	H2	H	0.594794	0.838345	0.280455
	H3	H	0.397188	0.164055	0.280852
	H4	H	0.704172	0.403399	0.828694
	H5	H	0.710354	0.598620	0.162071
	H6	H	0.284052	0.593489	0.828944
	H7	H	0.287253	0.407555	0.163630
	H8	H	0.831952	0.717214	0.393399
	H9	H	0.161727	0.719933	0.601195
	H10	H	0.833603	0.284734	0.599530
	H11	H	0.160931	0.284766	0.393131
	H12	H	0.829483	0.410497	0.702208
	H13	H	0.163069	0.600505	0.710642
	H14	H	0.828727	0.595103	0.286312
	H15	H	0.164235	0.407249	0.286644
	H16	H	0.390841	0.715366	0.831345
	H17	H	0.601447	0.718932	0.160450
	H18	H	0.598008	0.282920	0.832695
	H19	H	0.395246	0.285878	0.160836
	H20	H	0.710844	0.839156	0.397838
	H21	H	0.713013	0.164435	0.598890
	H22	H	0.282475	0.839221	0.591692
	H23	H	0.282768	0.165382	0.399954
	H24	H	0.899592	0.338326	0.207985
	H25	H	0.095287	0.664740	0.213212
	H26	H	0.093692	0.339818	0.778297
	H27	H	0.896943	0.665614	0.783418
	H28	H	0.204734	0.906915	0.328994
	H29	H	0.209499	0.100085	0.663409
	H30	H	0.784222	0.096503	0.330852
	H31	H	0.789232	0.907937	0.664552
	H32	H	0.332829	0.215087	0.893279
	H33	H	0.660790	0.220296	0.103525
	H34	H	0.332201	0.785377	0.096912
	H35	H	0.661078	0.783227	0.894338
	H36	H	0.328806	0.907676	0.202783
	H37	H	0.663331	0.097939	0.210532
	H38	H	0.331054	0.094049	0.786133
	H39	H	0.665285	0.904969	0.787597
	H40	H	0.893773	0.215626	0.331595
	H41	H	0.102241	0.221181	0.660265
	H42	H	0.097898	0.786694	0.331636
	H43	H	0.896248	0.786793	0.660901
	H44	H	0.207422	0.337774	0.897508
	H45	H	0.212789	0.664255	0.096677
	H46	H	0.783321	0.337878	0.089937
	H47	H	0.779578	0.663086	0.898872
	H48	H	0.410138	0.118777	0.600494
	H49	H	0.596307	0.881495	0.602563
	H50	H	0.579563	0.111909	0.411192
	H51	H	0.400725	0.888693	0.409305
	H52	H	0.581919	0.408770	0.113926
	H53	H	0.589585	0.594556	0.875905
	H54	H	0.407722	0.588742	0.112162
	H55	H	0.397399	0.397324	0.873777
	H56	H	0.119783	0.597531	0.397469
	H57	H	0.874914	0.603014	0.590377
	H58	H	0.115141	0.415915	0.589238
	H59	H	0.874120	0.399745	0.399007
	H60	H	0.118232	0.406180	0.589921
	H61	H	0.879289	0.599212	0.581936
	H62	H	0.116660	0.604408	0.410868
	H63	H	0.879974	0.406603	0.412316
	H64	H	0.412421	0.600860	0.114871
	H65	H	0.585499	0.588404	0.878622
	H66	H	0.592317	0.402082	0.118666
	H67	H	0.398620	0.412625	0.877772
	H68	H	0.600159	0.118303	0.410387
	H69	H	0.581864	0.889564	0.588426
	H70	H	0.407804	0.113967	0.584400
	H71	H	0.391905	0.883580	0.396125
	H72	H	0.905238	0.613035	0.078295
	H73	H	0.094764	0.385041	0.091820
	H74	H	0.098644	0.618984	0.908373
	H75	H	0.890113	0.385124	0.907283
	H76	H	0.091088	0.918457	0.613918
	H77	H	0.076523	0.084204	0.384398
	H78	H	0.914201	0.094370	0.613214
	H79	H	0.912534	0.910966	0.381304
	H80	H	0.617013	0.098646	0.911296
	H81	H	0.379292	0.088885	0.088658
	H82	H	0.616613	0.916772	0.098332
	H83	H	0.374915	0.892547	0.906791
	H84	H	0.619928	0.894966	0.090120
	H85	H	0.374492	0.100865	0.091959
	H86	H	0.615696	0.090565	0.909128
	H87	H	0.384582	0.915582	0.913137
	H88	H	0.907343	0.105353	0.618621
	H89	H	0.082515	0.111895	0.374260
	H90	H	0.081215	0.906657	0.614036
	H91	H	0.904425	0.899233	0.375027
	H92	H	0.090276	0.620213	0.895829
	H93	H	0.089393	0.384386	0.093426
	H94	H	0.890565	0.621251	0.094581
	H95	H	0.898232	0.381156	0.884272
	H96	H	0.395249	0.120782	0.592747
	H97	H	0.600781	0.885530	0.582465
	H98	H	0.587841	0.120002	0.392894
	H99	H	0.409273	0.886272	0.394799
	H100	H	0.593828	0.414614	0.114959
	H101	H	0.581050	0.595814	0.877482
	H102	H	0.399670	0.598580	0.117520
	H103	H	0.412304	0.404051	0.879098
	H104	H	0.112638	0.590300	0.409683
	H105	H	0.878157	0.593166	0.590400
	H106	H	0.114579	0.409790	0.580783
	H107	H	0.879059	0.414869	0.398908
	H108	H	0.912062	0.617260	0.099438
	H109	H	0.090368	0.385926	0.089448
	H110	H	0.084509	0.614444	0.908020
	H111	H	0.914101	0.390456	0.901823
	H112	H	0.096335	0.904411	0.620196
	H113	H	0.103972	0.089839	0.372577
	H114	H	0.901426	0.093309	0.617166
	H115	H	0.897590	0.912558	0.377021
	H116	H	0.618963	0.096263	0.904899
	H117	H	0.379416	0.098241	0.079883
	H118	H	0.610780	0.910474	0.075503
	H119	H	0.375608	0.910697	0.889612
	C120	C	0.375772	0.010204	0.618925
	C121	C	0.621266	0.993095	0.621069
	C122	C	0.618618	0.009681	0.374680
	C123	C	0.372905	0.993619	0.372805
	C124	C	0.617130	0.379561	0.005825
	C125	C	0.616759	0.622322	0.986849
	C126	C	0.375652	0.622337	0.004889
	C127	C	0.375285	0.378584	0.987085
	C128	C	0.005834	0.624086	0.376157
	C129	C	0.987646	0.626167	0.617531
	C130	C	0.006329	0.382263	0.615495
	C131	C	0.987853	0.379846	0.374981
	C132	C	0.874711	0.509563	0.117421
	C133	C	0.120128	0.493134	0.120150
	C134	C	0.118102	0.509995	0.874351
	C135	C	0.872549	0.493045	0.871659
	C136	C	0.117933	0.881343	0.505589
	C137	C	0.118619	0.124517	0.486849
	C138	C	0.876748	0.124409	0.506354
	C139	C	0.876692	0.880580	0.487943
	C140	C	0.506904	0.121891	0.877544
	C141	C	0.487498	0.123880	0.117889
	C142	C	0.505679	0.880184	0.116210
	C143	C	0.488340	0.878290	0.874537
	C144	C	0.379094	0.887296	0.671334
	C145	C	0.618593	0.115536	0.677873
	C146	C	0.615423	0.887303	0.318707
	C147	C	0.376407	0.115683	0.318669
	C148	C	0.668793	0.382448	0.879334
	C149	C	0.672938	0.619505	0.112277
	C150	C	0.320566	0.615896	0.879116
	C151	C	0.323001	0.384739	0.113431
	C152	C	0.881232	0.678893	0.375367
	C153	C	0.112570	0.681087	0.618655
	C154	C	0.882243	0.325005	0.616394
	C155	C	0.112017	0.323842	0.375035
	C156	C	0.880118	0.387188	0.667824
	C157	C	0.113289	0.622018	0.673386
	C158	C	0.879711	0.618398	0.321874
	C159	C	0.113633	0.384688	0.321784
	C160	C	0.374028	0.676529	0.880402
	C161	C	0.618671	0.679520	0.111310
	C162	C	0.616099	0.322254	0.881495
	C163	C	0.376376	0.324280	0.111844
	C164	C	0.673438	0.887668	0.377213
	C165	C	0.675750	0.115836	0.619334
	C166	C	0.320159	0.887788	0.613634
	C167	C	0.318996	0.116087	0.377538
	C168	C	0.878517	0.386808	0.170671
	C169	C	0.116589	0.616003	0.175154
	C170	C	0.114234	0.388033	0.817320
	C171	C	0.876368	0.616271	0.820042
	C172	C	0.169785	0.885215	0.379724
	C173	C	0.173672	0.121754	0.612903
	C174	C	0.820893	0.118970	0.380812
	C175	C	0.824203	0.885853	0.613794
	C176	C	0.382240	0.176803	0.875699
	C177	C	0.611867	0.180673	0.120522
	C178	C	0.380979	0.824720	0.115032
	C179	C	0.612102	0.822077	0.875515
	C180	C	0.379375	0.885307	0.167911
	C181	C	0.613061	0.119951	0.173924
	C182	C	0.381248	0.116502	0.822344
	C183	C	0.614310	0.882589	0.822465
	C184	C	0.875407	0.178390	0.381434
	C185	C	0.120055	0.181673	0.611510
	C186	C	0.116421	0.825279	0.381015
	C187	C	0.877604	0.825643	0.612122
	C188	C	0.170615	0.386788	0.876912
	C189	C	0.174923	0.615593	0.117272
	C190	C	0.820671	0.386614	0.112094
	C191	C	0.817657	0.614982	0.877336
	C192	C	0.397902	0.095725	0.598587
	C193	C	0.599386	0.907810	0.598067
	C194	C	0.595991	0.094867	0.397977
	C195	C	0.394320	0.908315	0.393760
	C196	C	0.595655	0.401849	0.093322
	C197	C	0.592643	0.599476	0.899771
	C198	C	0.399575	0.602090	0.092410
	C199	C	0.396513	0.398717	0.899817
	C200	C	0.093599	0.603498	0.399195
	C201	C	0.900273	0.604769	0.594402
	C202	C	0.093358	0.404048	0.592988
	C203	C	0.900263	0.400865	0.396985
	C204	C	0.896246	0.595039	0.096992
	C205	C	0.098215	0.407463	0.097848
	C206	C	0.097302	0.595840	0.897337
	C207	C	0.894229	0.407624	0.891857
	C208	C	0.096014	0.903412	0.593446
	C209	C	0.094738	0.102035	0.399808
	C210	C	0.900724	0.103944	0.593695
	C211	C	0.898375	0.901422	0.400403
	C212	C	0.594525	0.101226	0.901521
	C213	C	0.400444	0.102391	0.094012
	C214	C	0.593201	0.901303	0.094490
	C215	C	0.400780	0.899991	0.896538
	Zn216	Zn	0.498779	0.001261	0.749660
	Zn217	Zn	0.496317	0.000855	0.243621
	Zn218	Zn	0.743631	0.500033	-0.004456
	Zn219	Zn	0.248515	0.500139	-0.003699
	Zn220	Zn	-0.002762	0.753197	0.496279
	Zn221	Zn	-0.002313	0.252483	0.496370
	Zn222	Zn	-0.003545	0.503337	0.743287
	Zn223	Zn	-0.003611	0.502096	0.248897
	Zn224	Zn	0.496267	0.751089	-0.004089
	Zn225	Zn	0.497047	0.251459	-0.003295
	Zn226	Zn	0.749566	0.002429	0.497773
	Zn227	Zn	0.244543	0.002731	0.496521
	N228	N	0.412831	0.964288	0.674854
	N229	N	0.585600	0.038219	0.678974
	N230	N	0.582214	0.964421	0.316923
	N231	N	0.408966	0.038402	0.315124
	N232	N	0.669687	0.417420	0.957733
	N233	N	0.672002	0.584660	0.033781
	N234	N	0.321420	0.583031	0.957604
	N235	N	0.322054	0.417733	0.035008
	N236	N	0.960821	0.682621	0.408327
	N237	N	0.033569	0.683812	0.584649
	N238	N	0.961847	0.321680	0.584828
	N239	N	0.032766	0.320621	0.407358
	N240	N	0.958211	0.422098	0.667466
	N241	N	0.034645	0.588394	0.672773
	N242	N	0.958195	0.585019	0.322179
	N243	N	0.035350	0.418820	0.321707
	N244	N	0.407762	0.680480	0.959646
	N245	N	0.584647	0.681371	0.032239
	N246	N	0.584643	0.320488	0.961006
	N247	N	0.408324	0.320322	0.032512
	N248	N	0.675465	0.964810	0.411361
	N249	N	0.677811	0.038889	0.584863
	N250	N	0.318125	0.965184	0.581624
	N251	N	0.316724	0.039088	0.410250
	N252	N	0.911400	0.464214	0.174155
	N253	N	0.083417	0.538883	0.177195
	N254	N	0.082396	0.465697	0.815751
	N255	N	0.909831	0.539325	0.816327
	N256	N	0.170749	0.919516	0.458236
	N257	N	0.172969	0.086911	0.534482
	N258	N	0.821582	0.086138	0.459394
	N259	N	0.823551	0.919538	0.535506
	N260	N	0.461562	0.180418	0.909244
	N261	N	0.532856	0.183236	0.086226
	N262	N	0.460622	0.821368	0.083681
	N263	N	0.532549	0.819162	0.907233
	N264	N	0.457908	0.919205	0.168754
	N265	N	0.534956	0.085270	0.172259
	N266	N	0.459726	0.083077	0.823430
	N267	N	0.536074	0.916813	0.821590
	N268	N	0.909389	0.181923	0.460568
	N269	N	0.086415	0.183427	0.532297
	N270	N	0.085008	0.822733	0.460621
	N271	N	0.909421	0.822343	0.532769
	N272	N	0.173317	0.463754	0.911542
	N273	N	0.177252	0.538105	0.083679
	N274	N	0.818200	0.463725	0.079669
	N275	N	0.814954	0.537549	0.908647
	O276	O	-0.022115	-0.023505	0.019687
	H277	H	-0.020014	-0.017596	0.014032
	H278	H	-0.033472	-0.024187	0.028543
	O279	O	0.452623	0.532819	0.454621
	H280	H	0.457721	0.544893	0.449272
	H281	H	0.446301	0.533403	0.459961
	O282	O	0.498253	0.499926	0.418835
	H283	H	0.498634	0.488772	0.421259
	H284	H	0.506514	0.508431	0.425523
	O285	O	-0.043170	1.003377	1.019007
	H286	H	-0.048482	0.997377	0.998482
	H287	H	-0.051047	1.004476	1.018477
	O288	O	0.533921	0.606703	0.534672
	H289	H	0.542777	0.604738	0.523104
	H290	H	0.534682	0.619258	0.540783
	O291	O	1.146504	0.962946	1.046774
	H292	H	1.149919	0.955761	1.051677
	H293	H	1.140079	0.965774	1.046907
	O294	O	0.937489	0.910260	0.938497
	H295	H	0.935256	0.907316	0.933076
	H296	H	0.945564	0.916891	0.935535
	O297	O	0.939767	-0.046377	0.979364
	H298	H	0.941577	-0.041624	0.976483
	H299	H	0.935582	-0.031327	0.984421
	O300	O	0.465551	0.526696	0.452239
	H301	H	0.468717	0.510769	0.447588
	H302	H	0.469706	0.529468	0.445936
	O303	O	1.022823	0.103458	0.056868
	H304	H	1.027889	0.100923	0.058662
	H305	H	1.029649	0.115450	0.065882
	O306	O	-0.006873	0.978849	0.942310
	H307	H	-0.008986	0.980870	0.945659
	H308	H	-0.012628	0.970912	0.945429
	O309	O	0.572244	0.492281	0.511275
	H310	H	0.567715	0.496301	0.516797
	H311	H	0.579141	0.488090	0.514871
	O312	O	1.022929	0.035807	1.060886
	H313	H	1.030953	0.038474	1.065141
	H314	H	1.034307	0.037599	1.058174
	O315	O	0.585305	0.599202	0.431569
	H316	H	0.585937	0.589606	0.436257
	H317	H	0.579804	0.599982	0.423228
	O318	O	0.493622	0.484624	0.437566
	H319	H	0.494026	0.503532	0.429872
	H320	H	0.491670	0.490818	0.447585
	O321	O	1.022028	1.122831	0.989797
	H322	H	1.018622	1.120418	0.989338
	H323	H	1.015390	1.122701	0.985501
	O324	O	0.517997	0.475472	0.557117
	H325	H	0.504087	0.474941	0.565661
	H326	H	0.513268	0.478223	0.552776
	O327	O	0.495902	0.442222	0.395202
	H328	H	0.499550	0.433788	0.398327
	H329	H	0.496143	0.434311	0.404804
	O330	O	1.094754	-0.029120	1.004462
	H331	H	1.094531	-0.042371	1.004699
	H332	H	1.094208	-0.031839	1.003742
	O333	O	0.889829	1.009207	0.030848
	H334	H	0.895912	1.008476	0.037932
	H335	H	0.890364	1.009298	0.031519
	O336	O	0.490304	0.439700	0.578623
	H337	H	0.473760	0.437275	0.576802
	H338	H	0.486283	0.448176	0.575186
	O339	O	0.435955	0.452323	0.557862
	H340	H	0.449264	0.449191	0.545522
	H341	H	0.421838	0.451202	0.561400
	O342	O	-0.027878	0.999302	-0.038450
	H343	H	-0.025366	1.006510	-0.036057
	H344	H	-0.027643	1.007655	-0.022728
	O345	O	0.014665	-0.025517	0.026586
	H346	H	0.012847	-0.021271	0.025670
	H347	H	0.003827	-0.026774	0.021443
	O348	O	0.459104	0.492935	0.564403
	H349	H	0.473494	0.484652	0.564755
	H350	H	0.456421	0.491833	0.568956
	O351	O	0.457931	0.554875	0.508974
	H352	H	0.463121	0.538015	0.508418
	H353	H	0.448160	0.559218	0.517999
	O354	O	0.392189	0.510087	0.422565
	H355	H	0.385568	0.497552	0.416816
	H356	H	0.385527	0.525833	0.404216
	O357	O	0.454553	0.489844	0.525831
	H358	H	0.457547	0.486496	0.526540
	H359	H	0.469018	0.479587	0.525456
	O360	O	-0.033733	-0.068343	-0.054794
	H361	H	-0.034962	-0.067664	-0.056627
	H362	H	-0.038191	-0.079352	-0.051782
	O363	O	0.596018	0.431671	0.492807
	H364	H	0.595280	0.434000	0.487762
	H365	H	0.601255	0.438004	0.497435
	O366	O	0.030673	0.110756	1.013490
	H367	H	0.040733	0.108861	1.011319
	H368	H	0.032291	0.111600	1.006966
	O369	O	0.565392	0.490935	0.538708
	H370	H	0.566665	0.502525	0.544260
	H371	H	0.555106	0.490748	0.531294
