data_Molecule from HDF5

_cell_length_a		16.263743
_cell_length_b		16.213490
_cell_length_c		16.252111
_cell_angle_alpha	89.707490
_cell_angle_beta	89.797772
_cell_angle_gamma	90.042749
_symmetry_space_group_name_H-M	'P 1'
_symmetry_Int_Tables_number		1

loop_
	_symmetry_equiv_pos_as_xyz
	x,y,z

loop_
	_atom_site_label
	_atom_site_type_symbol
	_atom_site_fract_x
	_atom_site_fract_y
	_atom_site_fract_z
	H0	H	0.400009	0.837097	0.720063
	H1	H	0.596911	0.165453	0.718005
	H2	H	0.596723	0.835903	0.292940
	H3	H	0.401723	0.165478	0.291325
	H4	H	0.713769	0.403404	0.841684
	H5	H	0.711976	0.597177	0.169923
	H6	H	0.286078	0.599092	0.840830
	H7	H	0.282775	0.400358	0.168335
	H8	H	0.834461	0.714763	0.408307
	H9	H	0.163773	0.712854	0.600268
	H10	H	0.835147	0.287011	0.603235
	H11	H	0.163974	0.289677	0.408400
	H12	H	0.835333	0.401097	0.720920
	H13	H	0.163528	0.599324	0.717972
	H14	H	0.835208	0.600278	0.290373
	H15	H	0.163338	0.404006	0.290219
	H16	H	0.401601	0.715507	0.841550
	H17	H	0.594152	0.712148	0.171066
	H18	H	0.595224	0.290242	0.840075
	H19	H	0.399752	0.285195	0.168948
	H20	H	0.713731	0.836176	0.408156
	H21	H	0.712103	0.165137	0.601974
	H22	H	0.284682	0.836728	0.605023
	H23	H	0.286678	0.165371	0.407069
	H24	H	0.899174	0.336772	0.221739
	H25	H	0.096479	0.665814	0.216305
	H26	H	0.096459	0.335850	0.791855
	H27	H	0.901423	0.665567	0.791304
	H28	H	0.214774	0.902716	0.341469
	H29	H	0.212399	0.097023	0.669385
	H30	H	0.785644	0.099160	0.341649
	H31	H	0.783268	0.899885	0.669633
	H32	H	0.334928	0.214809	0.907057
	H33	H	0.662528	0.214984	0.102817
	H34	H	0.334177	0.787744	0.104446
	H35	H	0.662734	0.787673	0.907827
	H36	H	0.335100	0.901584	0.221835
	H37	H	0.662610	0.099028	0.218651
	H38	H	0.334830	0.100117	0.790944
	H39	H	0.662425	0.903146	0.791053
	H40	H	0.901428	0.215751	0.341119
	H41	H	0.095871	0.212558	0.670235
	H42	H	0.096134	0.789724	0.340464
	H43	H	0.900924	0.786318	0.670526
	H44	H	0.213039	0.336428	0.906333
	H45	H	0.212401	0.664837	0.101988
	H46	H	0.784091	0.335877	0.105710
	H47	H	0.785593	0.665399	0.907285
	H48	H	0.407031	0.117068	0.594724
	H49	H	0.583725	0.889940	0.587909
	H50	H	0.589468	0.114519	0.419752
	H51	H	0.411746	0.883966	0.408113
	H52	H	0.594087	0.402316	0.124289
	H53	H	0.592844	0.592579	0.889093
	H54	H	0.407677	0.593902	0.121585
	H55	H	0.411692	0.408605	0.890088
	H56	H	0.115950	0.599567	0.413742
	H57	H	0.884116	0.589011	0.598260
	H58	H	0.120344	0.402535	0.605885
	H59	H	0.885901	0.413117	0.421101
	H60	H	0.115035	0.402810	0.591445
	H61	H	0.880264	0.594268	0.603800
	H62	H	0.113867	0.590839	0.411685
	H63	H	0.881606	0.413126	0.404062
	H64	H	0.401249	0.596206	0.124126
	H65	H	0.590299	0.596635	0.889228
	H66	H	0.593312	0.411069	0.122430
	H67	H	0.403400	0.401668	0.885600
	H68	H	0.602822	0.120685	0.410531
	H69	H	0.607127	0.878941	0.597828
	H70	H	0.401062	0.120123	0.598447
	H71	H	0.407446	0.885647	0.421123
	H72	H	0.897976	0.619373	0.096851
	H73	H	0.102137	0.380114	0.097615
	H74	H	0.099825	0.620513	0.909564
	H75	H	0.902198	0.383252	0.914696
	H76	H	0.085662	0.909198	0.619903
	H77	H	0.093843	0.095470	0.387377
	H78	H	0.911119	0.093373	0.620505
	H79	H	0.902118	0.915362	0.390582
	H80	H	0.610978	0.086709	0.917168
	H81	H	0.384420	0.087080	0.095708
	H82	H	0.614231	0.910413	0.098414
	H83	H	0.382992	0.917010	0.909472
	H84	H	0.616356	0.906076	0.101155
	H85	H	0.379368	0.092907	0.106773
	H86	H	0.617876	0.092282	0.901454
	H87	H	0.378249	0.900991	0.906118
	H88	H	0.902996	0.098109	0.624103
	H89	H	0.093964	0.095241	0.388259
	H90	H	0.093342	0.898387	0.625890
	H91	H	0.914034	0.908236	0.391723
	H92	H	0.087962	0.618343	0.905308
	H93	H	0.084224	0.382500	0.108316
	H94	H	0.908458	0.619108	0.104174
	H95	H	0.905926	0.382335	0.909394
	H96	H	0.407931	0.119428	0.602302
	H97	H	0.585264	0.881069	0.614041
	H98	H	0.587509	0.118901	0.402669
	H99	H	0.398559	0.880655	0.411437
	H100	H	0.586353	0.405769	0.120270
	H101	H	0.594741	0.595873	0.887529
	H102	H	0.402176	0.589348	0.122598
	H103	H	0.400820	0.412745	0.887169
	H104	H	0.118015	0.596441	0.404958
	H105	H	0.881596	0.597005	0.595168
	H106	H	0.113853	0.415809	0.599953
	H107	H	0.880103	0.398188	0.413127
	H108	H	0.909297	0.614639	0.091881
	H109	H	0.085303	0.388045	0.088280
	H110	H	0.090629	0.615253	0.917073
	H111	H	0.908263	0.384760	0.915026
	H112	H	0.099809	0.911424	0.622979
	H113	H	0.093978	0.095773	0.387944
	H114	H	0.902479	0.088482	0.621992
	H115	H	0.902640	0.901832	0.386396
	H116	H	0.617000	0.103979	0.914649
	H117	H	0.380842	0.100399	0.095323
	H118	H	0.615753	0.905619	0.095600
	H119	H	0.382982	0.904983	0.921587
	C120	C	0.377182	0.009898	0.627220
	C121	C	0.619773	0.992214	0.626746
	C122	C	0.621313	0.009073	0.383526
	C123	C	0.378129	0.992303	0.384385
	C124	C	0.619912	0.379041	0.013838
	C125	C	0.619981	0.622435	0.997506
	C126	C	0.376573	0.621959	0.013983
	C127	C	0.376585	0.378653	0.996214
	C128	C	0.007411	0.623904	0.382345
	C129	C	0.990760	0.621568	0.626474
	C130	C	0.007818	0.378867	0.627255
	C131	C	0.990824	0.380223	0.384016
	C132	C	0.876478	0.509047	0.127102
	C133	C	0.119622	0.492357	0.125580
	C134	C	0.120732	0.509160	0.882715
	C135	C	0.877504	0.492244	0.884088
	C136	C	0.120828	0.879236	0.513740
	C137	C	0.121167	0.122765	0.496673
	C138	C	0.877662	0.122233	0.513900
	C139	C	0.877696	0.879181	0.497914
	C140	C	0.507040	0.122622	0.882920
	C141	C	0.490453	0.122127	0.126581
	C142	C	0.507091	0.878782	0.127588
	C143	C	0.490062	0.879406	0.883781
	C144	C	0.379706	0.886008	0.682335
	C145	C	0.617152	0.116269	0.680549
	C146	C	0.618079	0.885287	0.329651
	C147	C	0.381011	0.116212	0.328971
	C148	C	0.675176	0.382635	0.890275
	C149	C	0.674478	0.618415	0.121092
	C150	C	0.323363	0.619337	0.889843
	C151	C	0.320891	0.380160	0.119599
	C152	C	0.883592	0.677951	0.386425
	C153	C	0.114729	0.675640	0.622080
	C154	C	0.884195	0.324054	0.624407
	C155	C	0.114798	0.326485	0.387038
	C156	C	0.884294	0.381034	0.682644
	C157	C	0.114357	0.619154	0.680461
	C158	C	0.883978	0.620773	0.328161
	C159	C	0.114487	0.383154	0.328428
	C160	C	0.380495	0.677349	0.890387
	C161	C	0.615899	0.675384	0.121727
	C162	C	0.616486	0.326481	0.889580
	C163	C	0.379083	0.322823	0.119779
	C164	C	0.675862	0.885251	0.387187
	C165	C	0.674508	0.116210	0.623207
	C166	C	0.322661	0.885693	0.624754
	C167	C	0.323835	0.116235	0.386512
	C168	C	0.878954	0.385660	0.183196
	C169	C	0.116520	0.616542	0.178901
	C170	C	0.117286	0.385105	0.828929
	C171	C	0.880667	0.616314	0.829018
	C172	C	0.176033	0.882745	0.390225
	C173	C	0.174778	0.118512	0.620493
	C174	C	0.823207	0.120072	0.390376
	C175	C	0.821938	0.880354	0.621063
	C176	C	0.383853	0.177304	0.885980
	C177	C	0.613501	0.177164	0.123318
	C178	C	0.383297	0.824547	0.125248
	C179	C	0.613675	0.825248	0.887199
	C180	C	0.383941	0.881080	0.183671
	C181	C	0.613678	0.119512	0.180950
	C182	C	0.383868	0.120581	0.828081
	C183	C	0.613446	0.882252	0.828833
	C184	C	0.881045	0.177631	0.390127
	C185	C	0.117279	0.176241	0.620670
	C186	C	0.117197	0.826358	0.389735
	C187	C	0.880192	0.823690	0.621366
	C188	C	0.175102	0.385296	0.885815
	C189	C	0.174553	0.615833	0.122386
	C190	C	0.821922	0.385169	0.125471
	C191	C	0.822846	0.616134	0.886438
	C192	C	0.398928	0.096596	0.605001
	C193	C	0.598365	0.905707	0.606065
	C194	C	0.599877	0.095628	0.404811
	C195	C	0.399725	0.905733	0.406850
	C196	C	0.597975	0.400242	0.100102
	C197	C	0.598862	0.601476	0.910969
	C198	C	0.397478	0.599713	0.100509
	C199	C	0.398702	0.401152	0.909811
	C200	C	0.093652	0.602091	0.403648
	C201	C	0.904344	0.599985	0.605297
	C202	C	0.094174	0.400695	0.605627
	C203	C	0.904797	0.401790	0.406110
	C204	C	0.898732	0.595380	0.104288
	C205	C	0.097222	0.405825	0.104364
	C206	C	0.099369	0.595770	0.904344
	C207	C	0.899168	0.405735	0.906386
	C208	C	0.099292	0.900099	0.600461
	C209	C	0.100180	0.101796	0.410085
	C210	C	0.899157	0.099850	0.599931
	C211	C	0.899676	0.901792	0.411821
	C212	C	0.593272	0.100623	0.904431
	C213	C	0.403811	0.099893	0.105441
	C214	C	0.593197	0.900808	0.105104
	C215	C	0.403763	0.901177	0.905834
	Zn216	Zn	0.498275	0.001217	0.754855
	Zn217	Zn	0.498850	0.000437	0.255663
	Zn218	Zn	0.748532	0.500351	0.005630
	Zn219	Zn	0.247993	0.500672	0.004842
	Zn220	Zn	-0.001100	0.750727	0.505540
	Zn221	Zn	-0.000383	0.251141	0.505461
	Zn222	Zn	-0.000662	0.500749	0.755200
	Zn223	Zn	-0.001020	0.501504	0.254566
	Zn224	Zn	0.498359	0.750710	0.006436
	Zn225	Zn	0.498773	0.250440	0.004593
	Zn226	Zn	0.749061	0.000641	0.506156
	Zn227	Zn	0.249633	0.001019	0.505579
	N228	N	0.413027	0.964074	0.683576
	N229	N	0.583849	0.038225	0.682934
	N230	N	0.585021	0.963330	0.327045
	N231	N	0.414070	0.038163	0.327615
	N232	N	0.677482	0.414585	0.968451
	N233	N	0.676949	0.586094	0.043008
	N234	N	0.320934	0.585473	0.967728
	N235	N	0.319327	0.414162	0.041866
	N236	N	0.961375	0.679985	0.419299
	N237	N	0.036819	0.677377	0.589229
	N238	N	0.961832	0.322959	0.590458
	N239	N	0.037132	0.324638	0.421009
	N240	N	0.962058	0.414448	0.684382
	N241	N	0.036386	0.586157	0.683017
	N242	N	0.961966	0.588039	0.325397
	N243	N	0.036554	0.416084	0.326489
	N244	N	0.413032	0.678862	0.968374
	N245	N	0.582939	0.677987	0.043852
	N246	N	0.582944	0.324113	0.967396
	N247	N	0.412966	0.321923	0.042041
	N248	N	0.677815	0.963236	0.419919
	N249	N	0.676315	0.038181	0.590406
	N250	N	0.320834	0.963876	0.591412
	N251	N	0.322010	0.038213	0.420405
	N252	N	0.912261	0.463771	0.184382
	N253	N	0.083143	0.538495	0.181138
	N254	N	0.084265	0.463113	0.826888
	N255	N	0.913913	0.538324	0.827511
	N256	N	0.178434	0.914750	0.468456
	N257	N	0.177412	0.086118	0.542558
	N258	N	0.820999	0.086251	0.468113
	N259	N	0.820207	0.914060	0.543300
	N260	N	0.461421	0.178798	0.919178
	N261	N	0.535701	0.178716	0.090327
	N262	N	0.460789	0.823178	0.091081
	N263	N	0.535826	0.823202	0.920618
	N264	N	0.461765	0.914330	0.184898
	N265	N	0.536024	0.085750	0.182913
	N266	N	0.461643	0.086909	0.826373
	N267	N	0.535610	0.915297	0.826750
	N268	N	0.914180	0.179145	0.467873
	N269	N	0.084880	0.179037	0.542505
	N270	N	0.083496	0.824114	0.467579
	N271	N	0.914089	0.822839	0.543753
	N272	N	0.177440	0.463420	0.918525
	N273	N	0.176230	0.537669	0.089781
	N274	N	0.820333	0.462966	0.091384
	N275	N	0.820783	0.537978	0.920061
	O276	O	0.945677	-0.013063	1.071300
	H277	H	0.941853	-0.016903	1.076258
	H278	H	0.948443	-0.013779	1.071758
	O279	O	0.906169	-0.041884	0.098201
	H280	H	0.906008	-0.032158	0.096593
	H281	H	0.915660	-0.040590	0.098430
	O282	O	0.936230	0.955228	0.076587
	H283	H	0.926527	0.943919	0.087221
	H284	H	0.931079	0.948313	0.075616
	O285	O	-0.100915	0.929120	0.096321
	H286	H	-0.108229	0.921810	0.092317
	H287	H	-0.101020	0.937833	0.103998
