data_Molecule from HDF5

_cell_length_a		16.235485
_cell_length_b		16.417637
_cell_length_c		16.086692
_cell_angle_alpha	90.500435
_cell_angle_beta	90.085736
_cell_angle_gamma	89.643319
_symmetry_space_group_name_H-M	'P 1'
_symmetry_Int_Tables_number		1

loop_
	_symmetry_equiv_pos_as_xyz
	x,y,z

loop_
	_atom_site_label
	_atom_site_type_symbol
	_atom_site_fract_x
	_atom_site_fract_y
	_atom_site_fract_z
	H0	H	0.410299	0.821167	0.722255
	H1	H	0.609301	0.144297	0.725917
	H2	H	0.607739	0.821209	0.288885
	H3	H	0.409434	0.146902	0.295012
	H4	H	0.722553	0.383074	0.842312
	H5	H	0.722570	0.585279	0.171754
	H6	H	0.290949	0.582900	0.843746
	H7	H	0.293468	0.384954	0.173070
	H8	H	0.846172	0.702381	0.405720
	H9	H	0.172039	0.698984	0.611530
	H10	H	0.847041	0.265976	0.612497
	H11	H	0.170877	0.262245	0.405293
	H12	H	0.843304	0.389417	0.718555
	H13	H	0.172384	0.580121	0.723416
	H14	H	0.843040	0.579170	0.297970
	H15	H	0.171445	0.381735	0.292190
	H16	H	0.403934	0.700957	0.844898
	H17	H	0.607389	0.699370	0.172515
	H18	H	0.612820	0.263882	0.844958
	H19	H	0.405096	0.267986	0.170951
	H20	H	0.725607	0.820367	0.404213
	H21	H	0.724760	0.144889	0.608736
	H22	H	0.294704	0.820688	0.604657
	H23	H	0.286729	0.142160	0.403273
	H24	H	0.906890	0.320928	0.222248
	H25	H	0.104896	0.644914	0.228107
	H26	H	0.108732	0.321267	0.791518
	H27	H	0.907607	0.646515	0.794353
	H28	H	0.223370	0.880221	0.341934
	H29	H	0.226132	0.081825	0.672159
	H30	H	0.795281	0.080293	0.342294
	H31	H	0.795776	0.885657	0.672610
	H32	H	0.347645	0.204635	0.901811
	H33	H	0.670268	0.203743	0.111651
	H34	H	0.347378	0.767273	0.113188
	H35	H	0.670182	0.762078	0.902716
	H36	H	0.344427	0.889799	0.218962
	H37	H	0.672454	0.082436	0.221868
	H38	H	0.345019	0.080964	0.793141
	H39	H	0.673318	0.883409	0.793540
	H40	H	0.905324	0.200126	0.345024
	H41	H	0.112361	0.200063	0.672780
	H42	H	0.112351	0.761631	0.344056
	H43	H	0.910205	0.770453	0.672998
	H44	H	0.228301	0.323475	0.904113
	H45	H	0.225097	0.644479	0.115702
	H46	H	0.790264	0.322543	0.106692
	H47	H	0.788948	0.645010	0.906665
	H48	H	0.427259	0.093607	0.597586
	H49	H	0.607233	0.867667	0.595837
	H50	H	0.598644	0.098691	0.409132
	H51	H	0.412767	0.865922	0.410460
	H52	H	0.605418	0.393097	0.127026
	H53	H	0.600152	0.571498	0.890830
	H54	H	0.404513	0.581707	0.130747
	H55	H	0.426270	0.400265	0.896089
	H56	H	0.121456	0.565743	0.421050
	H57	H	0.890092	0.573026	0.610494
	H58	H	0.125378	0.395099	0.604399
	H59	H	0.893297	0.389120	0.422958
	H60	H	0.127900	0.382114	0.599205
	H61	H	0.888078	0.590872	0.599757
	H62	H	0.126816	0.574591	0.412562
	H63	H	0.892059	0.393798	0.415352
	H64	H	0.419026	0.565047	0.121420
	H65	H	0.593565	0.575302	0.890712
	H66	H	0.597114	0.401473	0.121363
	H67	H	0.420369	0.384137	0.888239
	H68	H	0.598813	0.095222	0.422567
	H69	H	0.604462	0.865640	0.602880
	H70	H	0.411809	0.096423	0.589596
	H71	H	0.420822	0.867458	0.406926
	H72	H	0.908695	0.601163	0.107280
	H73	H	0.098916	0.367948	0.103163
	H74	H	0.090899	0.594323	0.923138
	H75	H	0.914357	0.369572	0.920173
	H76	H	0.105923	0.889666	0.626448
	H77	H	0.101599	0.076350	0.388358
	H78	H	0.912965	0.073150	0.626395
	H79	H	0.910976	0.886074	0.386446
	H80	H	0.624249	0.071789	0.916212
	H81	H	0.390312	0.086057	0.099670
	H82	H	0.628796	0.890748	0.106486
	H83	H	0.392806	0.888268	0.919901
	H84	H	0.625276	0.883086	0.091509
	H85	H	0.394969	0.077408	0.091476
	H86	H	0.626591	0.079462	0.917108
	H87	H	0.394360	0.896766	0.917336
	H88	H	0.922043	0.074237	0.624000
	H89	H	0.099614	0.067048	0.392400
	H90	H	0.102183	0.895510	0.622754
	H91	H	0.919056	0.899035	0.392862
	H92	H	0.107247	0.599519	0.922855
	H93	H	0.096939	0.371173	0.094234
	H94	H	0.919576	0.597628	0.104677
	H95	H	0.908365	0.366392	0.910931
	H96	H	0.413664	0.101187	0.607459
	H97	H	0.600124	0.868788	0.596605
	H98	H	0.610054	0.100747	0.416446
	H99	H	0.419037	0.869622	0.416632
	H100	H	0.593280	0.389182	0.124515
	H101	H	0.600519	0.578870	0.887579
	H102	H	0.427084	0.586903	0.125414
	H103	H	0.407325	0.398533	0.890560
	H104	H	0.124074	0.578159	0.425369
	H105	H	0.896058	0.573845	0.590599
	H106	H	0.122943	0.391925	0.591733
	H107	H	0.889748	0.384920	0.415717
	H108	H	0.911736	0.598054	0.096499
	H109	H	0.105718	0.368035	0.096557
	H110	H	0.097017	0.600994	0.908521
	H111	H	0.919385	0.368566	0.910521
	H112	H	0.098319	0.889264	0.623486
	H113	H	0.091815	0.074885	0.392882
	H114	H	0.917436	0.080989	0.626765
	H115	H	0.926136	0.884881	0.390824
	H116	H	0.623392	0.075631	0.924025
	H117	H	0.391651	0.074332	0.103589
	H118	H	0.622516	0.899587	0.092699
	H119	H	0.391028	0.890628	0.911069
	C120	C	0.388180	-0.009349	0.627498
	C121	C	0.632374	0.974321	0.629121
	C122	C	0.631687	-0.008480	0.384387
	C123	C	0.386845	0.974473	0.383199
	C124	C	0.628942	0.363870	0.015789
	C125	C	0.628051	0.605215	0.998403
	C126	C	0.385610	0.606931	0.017286
	C127	C	0.387752	0.364165	0.999842
	C128	C	0.016380	0.602827	0.389229
	C129	C	0.999785	0.606392	0.630395
	C130	C	0.017197	0.361809	0.628778
	C131	C	0.999219	0.359240	0.386965
	C132	C	0.884306	0.491837	0.130536
	C133	C	0.129479	0.475086	0.130877
	C134	C	0.129495	0.491993	0.886896
	C135	C	0.884868	0.475309	0.885233
	C136	C	0.131207	0.860275	0.515623
	C137	C	0.129377	0.102888	0.499777
	C138	C	0.887428	0.104752	0.516962
	C139	C	0.889127	0.861866	0.499105
	C140	C	0.517422	0.105339	0.887418
	C141	C	0.499769	0.108025	0.129393
	C142	C	0.517401	0.863836	0.127343
	C143	C	0.500209	0.861090	0.885831
	C144	C	0.390048	0.869364	0.683904
	C145	C	0.629762	0.095945	0.686962
	C146	C	0.628900	0.869620	0.327071
	C147	C	0.388685	0.097348	0.330579
	C148	C	0.684785	0.363815	0.891788
	C149	C	0.684626	0.604752	0.122415
	C150	C	0.328706	0.603963	0.893417
	C151	C	0.331250	0.365389	0.123467
	C152	C	0.894300	0.661771	0.388004
	C153	C	0.122826	0.661315	0.630725
	C154	C	0.895006	0.305707	0.630099
	C155	C	0.122039	0.301547	0.386155
	C156	C	0.893307	0.367138	0.682833
	C157	C	0.123219	0.602151	0.686292
	C158	C	0.892316	0.600324	0.334614
	C159	C	0.122108	0.360800	0.329804
	C160	C	0.385026	0.662778	0.893924
	C161	C	0.627506	0.661680	0.122713
	C162	C	0.630111	0.304704	0.893093
	C163	C	0.387100	0.307123	0.122417
	C164	C	0.687485	0.869211	0.384646
	C165	C	0.687226	0.096215	0.628620
	C166	C	0.332891	0.868939	0.625066
	C167	C	0.327681	0.095290	0.384602
	C168	C	0.886473	0.369913	0.185133
	C169	C	0.126292	0.596472	0.189550
	C170	C	0.128934	0.370204	0.829327
	C171	C	0.886899	0.597530	0.831049
	C172	C	0.186399	0.860283	0.391639
	C173	C	0.187552	0.102124	0.623205
	C174	C	0.831821	0.101879	0.392397
	C175	C	0.833335	0.864905	0.623081
	C176	C	0.395471	0.163935	0.884669
	C177	C	0.621940	0.164758	0.130573
	C178	C	0.395214	0.807456	0.129702
	C179	C	0.622127	0.802164	0.884586
	C180	C	0.393823	0.868435	0.182347
	C181	C	0.623000	0.104545	0.185286
	C182	C	0.394385	0.102634	0.830314
	C183	C	0.623721	0.862379	0.830208
	C184	C	0.887023	0.161173	0.393692
	C185	C	0.130744	0.160650	0.623518
	C186	C	0.130988	0.801432	0.392701
	C187	C	0.890448	0.807883	0.623441
	C188	C	0.188090	0.371058	0.885977
	C189	C	0.185754	0.596467	0.133164
	C190	C	0.828372	0.370574	0.127475
	C191	C	0.828058	0.596882	0.887116
	C192	C	0.410762	0.075169	0.604643
	C193	C	0.610364	0.889364	0.605378
	C194	C	0.609080	0.076207	0.408793
	C195	C	0.410544	0.889740	0.405148
	C196	C	0.605442	0.387671	0.101836
	C197	C	0.604856	0.581912	0.912136
	C198	C	0.409715	0.584451	0.103611
	C199	C	0.411388	0.387412	0.913871
	C200	C	0.101785	0.579591	0.412944
	C201	C	0.913718	0.585352	0.607141
	C202	C	0.103014	0.383326	0.605383
	C203	C	0.913872	0.382338	0.410981
	C204	C	0.906759	0.576851	0.109033
	C205	C	0.107185	0.390980	0.105478
	C206	C	0.105406	0.576370	0.911279
	C207	C	0.907510	0.390411	0.907329
	C208	C	0.108690	0.884487	0.601914
	C209	C	0.104770	0.079673	0.413577
	C210	C	0.910826	0.082721	0.603381
	C211	C	0.911937	0.883709	0.412500
	C212	C	0.602561	0.082481	0.911920
	C213	C	0.414390	0.085805	0.105277
	C214	C	0.603174	0.884910	0.103851
	C215	C	0.414796	0.884920	0.909211
	Zn216	Zn	0.509627	-0.017293	0.758016
	Zn217	Zn	0.508439	-0.015610	0.255503
	Zn218	Zn	0.756197	0.484144	0.007052
	Zn219	Zn	0.258789	0.484049	0.009028
	Zn220	Zn	0.009402	0.733662	0.508596
	Zn221	Zn	0.008776	0.231813	0.509524
	Zn222	Zn	0.007631	0.483748	0.757177
	Zn223	Zn	0.006739	0.482327	0.259865
	Zn224	Zn	0.508080	0.734084	0.007998
	Zn225	Zn	0.508404	0.235765	0.007811
	Zn226	Zn	0.761202	-0.017313	0.506931
	Zn227	Zn	0.258661	-0.017866	0.505645
	N228	N	0.423767	0.946000	0.685560
	N229	N	0.596465	0.019137	0.687512
	N230	N	0.595200	0.946661	0.326586
	N231	N	0.424746	0.021346	0.329737
	N232	N	0.684100	0.400073	0.969128
	N233	N	0.685346	0.570361	0.044049
	N234	N	0.328803	0.570203	0.971445
	N235	N	0.331625	0.400398	0.046073
	N236	N	0.972434	0.663462	0.421273
	N237	N	0.044962	0.664045	0.596791
	N238	N	0.973263	0.302023	0.597468
	N239	N	0.044569	0.300436	0.420872
	N240	N	0.970346	0.401539	0.682175
	N241	N	0.045643	0.569008	0.686526
	N242	N	0.969092	0.564534	0.335161
	N243	N	0.044909	0.396046	0.330352
	N244	N	0.419272	0.664930	0.972233
	N245	N	0.593004	0.662103	0.044677
	N246	N	0.595951	0.304650	0.971162
	N247	N	0.421580	0.306377	0.044480
	N248	N	0.689729	0.946172	0.419310
	N249	N	0.688923	0.019515	0.593463
	N250	N	0.331349	0.945503	0.591111
	N251	N	0.326076	0.017861	0.416176
	N252	N	0.920365	0.446368	0.187214
	N253	N	0.091847	0.520193	0.188109
	N254	N	0.093095	0.446309	0.829913
	N255	N	0.921593	0.520968	0.829633
	N256	N	0.186723	0.896383	0.469115
	N257	N	0.186517	0.066635	0.545380
	N258	N	0.831977	0.067575	0.470072
	N259	N	0.832423	0.897861	0.544734
	N260	N	0.472839	0.165550	0.919713
	N261	N	0.544218	0.167034	0.096541
	N262	N	0.473023	0.804468	0.096075
	N263	N	0.544391	0.801234	0.918526
	N264	N	0.470798	0.902862	0.181067
	N265	N	0.545994	0.070277	0.184807
	N266	N	0.471210	0.067007	0.831793
	N267	N	0.547000	0.898355	0.830841
	N268	N	0.920808	0.163151	0.472272
	N269	N	0.095644	0.161366	0.545654
	N270	N	0.097317	0.801476	0.470967
	N271	N	0.924503	0.805922	0.545267
	N272	N	0.188756	0.447929	0.920854
	N273	N	0.188009	0.520071	0.097346
	N274	N	0.826784	0.447522	0.094291
	N275	N	0.826459	0.519931	0.920024
	O276	O	0.501471	0.481157	0.606629
	H277	H	0.502683	0.486470	0.612973
	H278	H	0.501325	0.478643	0.601964
	O279	O	0.596726	0.574911	0.434747
	H280	H	0.586495	0.577034	0.437737
	H281	H	0.601747	0.568109	0.433383
	O282	O	1.109530	0.023923	0.086090
	H283	H	1.118803	0.024014	0.094140
	H284	H	1.123344	0.026574	0.073093
	O285	O	0.133293	0.850362	-0.021492
	H286	H	0.135147	0.841614	-0.036831
	H287	H	0.135335	0.847313	-0.025392
	O288	O	0.923193	0.022753	-0.000413
	H289	H	0.928278	0.002088	-0.004120
	H290	H	0.937843	0.041394	-0.003312
	O291	O	0.382823	0.508562	0.533428
	H292	H	0.368510	0.508821	0.540221
	H293	H	0.376449	0.509928	0.520854
	O294	O	0.898015	1.096538	0.880826
	H295	H	0.903824	1.103169	0.871589
	H296	H	0.901159	1.104111	0.881282
	O297	O	0.105041	0.035732	0.065006
	H298	H	0.116429	0.045397	0.065698
	H299	H	0.110149	0.021418	0.068290
	O300	O	0.995270	-0.063639	-0.108198
	H301	H	0.999692	-0.064371	-0.112155
	H302	H	0.991944	-0.055528	-0.108027
	O303	O	-0.076811	1.154923	0.954084
	H304	H	-0.081747	1.165592	0.955933
	H305	H	-0.084862	1.151127	0.958208
	O306	O	0.383016	0.527674	0.503419
	H307	H	0.387512	0.517192	0.505741
	H308	H	0.392884	0.522788	0.509894
	O309	O	1.162213	0.089609	-0.042179
	H310	H	1.160947	0.083062	-0.031860
	H311	H	1.172742	0.086649	-0.046468
	O312	O	-0.071163	-0.119113	1.084531
	H313	H	-0.085597	-0.124118	1.092866
	H314	H	-0.064319	-0.116034	1.083681
	O315	O	0.004043	0.914037	-0.022501
	H316	H	-0.002896	0.907861	-0.006918
	H317	H	0.008183	0.906534	-0.035558
	O318	O	0.364208	0.406923	0.513265
	H319	H	0.355459	0.407374	0.505755
	H320	H	0.371052	0.415046	0.504126
	O321	O	0.906419	-0.112212	0.032052
	H322	H	0.902299	-0.117696	0.041010
	H323	H	0.897805	-0.102650	0.020525
	O324	O	-0.008185	0.837471	0.002334
	H325	H	-0.023443	0.845294	-0.000231
	H326	H	-0.012810	0.860154	0.021190
	O327	O	-0.485845	1.381192	0.464941
	H328	H	-0.485738	1.384295	0.468527
	H329	H	-0.481020	1.383926	0.473555
	O330	O	0.545888	0.376157	0.483235
	H331	H	0.550990	0.379178	0.476811
	H332	H	0.542572	0.365810	0.468244
	O333	O	-0.002029	1.028751	0.854758
	H334	H	-0.008364	1.037574	0.858898
	H335	H	0.000867	1.017668	0.843513
	O336	O	1.023610	1.079767	1.160995
	H337	H	1.026956	1.091944	1.160124
	H338	H	1.032141	1.085504	1.169507
	O339	O	0.552017	0.473044	-0.519973
	H340	H	0.552844	0.462875	-0.525124
	H341	H	0.555784	0.476554	-0.534492
	O342	O	1.106595	0.011599	0.072704
	H343	H	1.100288	0.011582	0.083807
	H344	H	1.115652	0.014260	0.067573
	O345	O	-0.010785	0.961983	1.077651
	H346	H	-0.013082	0.948096	1.080607
	H347	H	-0.019085	0.959102	1.088916
	O348	O	1.139006	1.949330	1.048080
	H349	H	1.145060	1.932937	1.045045
	H350	H	1.125689	1.954681	1.039540
	O351	O	-0.085767	1.017423	-0.057843
	H352	H	-0.079497	1.013025	-0.060816
	H353	H	-0.097148	1.018280	-0.054373
	O354	O	0.022711	0.832779	1.010920
	H355	H	0.032311	0.825719	1.004699
	H356	H	0.020471	0.817494	0.999204
	O357	O	0.563970	0.423247	0.629422
	H358	H	0.558887	0.419931	0.632594
	H359	H	0.561376	0.429729	0.631838
	O360	O	-0.113153	-0.022837	0.108160
	H361	H	-0.093613	-0.022735	0.097926
	H362	H	-0.108491	-0.025764	0.108344
	O363	O	0.506226	0.522172	0.564688
	H364	H	0.511720	0.507387	0.567098
	H365	H	0.510534	0.527415	0.579750
	O366	O	0.617769	0.462384	0.558081
	H367	H	0.618535	0.475431	0.563583
	H368	H	0.616801	0.469652	0.556254
	O369	O	0.355169	0.477103	0.384468
	H370	H	0.361365	0.475958	0.385535
	H371	H	0.351638	0.480200	0.369512
	O372	O	0.517438	0.569407	0.631623
	H373	H	0.521457	0.566854	0.628091
	H374	H	0.526127	0.569820	0.645876
	O375	O	0.456945	0.540745	0.593191
	H376	H	0.450343	0.535971	0.597963
	H377	H	0.457480	0.533882	0.590805
	O378	O	0.606321	0.612426	0.459093
	H379	H	0.586973	0.616249	0.454632
	H380	H	0.612312	0.613676	0.461214
	O381	O	0.573357	0.387088	0.412802
	H382	H	0.571007	0.380840	0.414099
	H383	H	0.587967	0.378727	0.407160
	O384	O	0.061621	0.941370	-0.084102
	H385	H	0.052266	0.944145	-0.077607
	H386	H	0.056135	0.932364	-0.093482
	O387	O	0.643762	0.469753	1.492749
	H388	H	0.659511	0.464027	1.492950
	H389	H	0.634863	0.474991	1.485780
	O390	O	0.094639	1.019824	0.108883
	H391	H	0.108740	1.019637	0.098286
	H392	H	0.089970	1.018860	0.121788
	O393	O	0.512404	0.470316	-0.568114
	H394	H	0.520642	0.478821	-0.572152
	H395	H	0.517032	0.457376	-0.558919
	O396	O	0.560057	0.551923	0.501127
	H397	H	0.552123	0.547785	0.501080
	H398	H	0.561337	0.542802	0.509071
	O399	O	0.441939	1.420768	1.565475
	H400	H	0.445831	1.406327	1.553537
	H401	H	0.454593	1.420485	1.565152
	O402	O	0.937424	1.080146	1.032978
	H403	H	0.941665	1.086739	1.036255
	H404	H	0.943065	1.068049	1.028387
	O405	O	0.518251	0.310570	0.433056
	H406	H	0.524633	0.320041	0.434322
	H407	H	0.519711	0.292062	0.434153
