data_Molecule from HDF5

_cell_length_a		16.132388
_cell_length_b		16.311755
_cell_length_c		16.115865
_cell_angle_alpha	89.954185
_cell_angle_beta	89.611517
_cell_angle_gamma	89.976252
_symmetry_space_group_name_H-M	'P 1'
_symmetry_Int_Tables_number		1

loop_
	_symmetry_equiv_pos_as_xyz
	x,y,z

loop_
	_atom_site_label
	_atom_site_type_symbol
	_atom_site_fract_x
	_atom_site_fract_y
	_atom_site_fract_z
	H0	H	0.398944	0.840001	0.718400
	H1	H	0.596210	0.167006	0.713207
	H2	H	0.600226	0.840144	0.285010
	H3	H	0.401369	0.167407	0.288075
	H4	H	0.712752	0.407160	0.835132
	H5	H	0.711570	0.601003	0.166508
	H6	H	0.289353	0.602790	0.834290
	H7	H	0.286290	0.409055	0.166861
	H8	H	0.835397	0.718319	0.397743
	H9	H	0.164162	0.716446	0.597092
	H10	H	0.834636	0.288245	0.599572
	H11	H	0.163616	0.286715	0.396343
	H12	H	0.834887	0.404194	0.714265
	H13	H	0.164962	0.600143	0.709873
	H14	H	0.832952	0.597470	0.289845
	H15	H	0.164991	0.405281	0.285017
	H16	H	0.401074	0.719625	0.836202
	H17	H	0.600091	0.719271	0.165140
	H18	H	0.602516	0.288425	0.836644
	H19	H	0.398392	0.288734	0.166638
	H20	H	0.713807	0.838388	0.402556
	H21	H	0.715318	0.164188	0.601084
	H22	H	0.286463	0.837995	0.600641
	H23	H	0.283157	0.165238	0.402230
	H24	H	0.899504	0.339536	0.212550
	H25	H	0.096404	0.667589	0.213873
	H26	H	0.099478	0.339840	0.784899
	H27	H	0.903161	0.667607	0.785893
	H28	H	0.216196	0.903259	0.336479
	H29	H	0.207413	0.096606	0.667812
	H30	H	0.786858	0.099216	0.334540
	H31	H	0.787882	0.904391	0.666612
	H32	H	0.335425	0.218300	0.903263
	H33	H	0.665517	0.217301	0.100459
	H34	H	0.334945	0.789479	0.103181
	H35	H	0.663990	0.789353	0.900002
	H36	H	0.335265	0.907139	0.215779
	H37	H	0.666667	0.100263	0.211694
	H38	H	0.333129	0.100024	0.791082
	H39	H	0.665039	0.907363	0.787976
	H40	H	0.898950	0.217322	0.335300
	H41	H	0.099458	0.218484	0.664162
	H42	H	0.101135	0.788406	0.334944
	H43	H	0.898335	0.786101	0.664019
	H44	H	0.216414	0.340969	0.899876
	H45	H	0.212293	0.669002	0.097317
	H46	H	0.785660	0.340062	0.097578
	H47	H	0.785344	0.667420	0.900899
	H48	H	0.397810	0.119632	0.590322
	H49	H	0.597135	0.884668	0.590218
	H50	H	0.602602	0.124570	0.400390
	H51	H	0.410085	0.889776	0.418062
	H52	H	0.594690	0.412656	0.119259
	H53	H	0.582660	0.588816	0.888221
	H54	H	0.410117	0.608680	0.121121
	H55	H	0.417815	0.407697	0.885146
	H56	H	0.115724	0.588307	0.403352
	H57	H	0.884284	0.591698	0.586330
	H58	H	0.117666	0.411424	0.593608
	H59	H	0.878280	0.404051	0.402440
	H60	H	0.119017	0.404732	0.588265
	H61	H	0.880626	0.592595	0.597354
	H62	H	0.120566	0.599971	0.400765
	H63	H	0.881721	0.406479	0.411566
	H64	H	0.394093	0.594617	0.122012
	H65	H	0.589660	0.610351	0.879463
	H66	H	0.588034	0.411393	0.118255
	H67	H	0.403828	0.402019	0.879774
	H68	H	0.581991	0.117285	0.404914
	H69	H	0.595328	0.882774	0.601420
	H70	H	0.400963	0.122209	0.603076
	H71	H	0.400096	0.883534	0.406804
	H72	H	0.909959	0.619537	0.091357
	H73	H	0.094440	0.387168	0.089581
	H74	H	0.091209	0.617049	0.912656
	H75	H	0.912373	0.387676	0.902072
	H76	H	0.096342	0.900313	0.622466
	H77	H	0.092720	0.089290	0.383717
	H78	H	0.904164	0.101801	0.620875
	H79	H	0.908251	0.913163	0.382768
	H80	H	0.621367	0.102067	0.902592
	H81	H	0.380923	0.096223	0.099964
	H82	H	0.617384	0.913226	0.096644
	H83	H	0.383713	0.919464	0.907733
	H84	H	0.620526	0.903413	0.092247
	H85	H	0.381356	0.101802	0.091633
	H86	H	0.616362	0.099384	0.913125
	H87	H	0.376786	0.904754	0.903625
	H88	H	0.902882	0.088576	0.618110
	H89	H	0.087960	0.096173	0.383153
	H90	H	0.093251	0.914438	0.618156
	H91	H	0.910689	0.906009	0.382244
	H92	H	0.104348	0.624374	0.902354
	H93	H	0.091311	0.387756	0.092990
	H94	H	0.900177	0.621637	0.091950
	H95	H	0.906254	0.388974	0.913873
	H96	H	0.410344	0.118158	0.594207
	H97	H	0.586387	0.886876	0.595708
	H98	H	0.597024	0.116118	0.419981
	H99	H	0.415461	0.886865	0.403134
	H100	H	0.592235	0.405860	0.121174
	H101	H	0.604329	0.592776	0.880941
	H102	H	0.413331	0.589347	0.114321
	H103	H	0.405011	0.417398	0.883971
	H104	H	0.116183	0.597869	0.412946
	H105	H	0.879549	0.600743	0.590209
	H106	H	0.115603	0.411548	0.585995
	H107	H	0.881792	0.413457	0.404985
	H108	H	0.904731	0.622583	0.100204
	H109	H	0.090855	0.389552	0.087802
	H110	H	0.087817	0.621492	0.895244
	H111	H	0.899718	0.383858	0.903988
	H112	H	0.082736	0.903876	0.617203
	H113	H	0.096017	0.096682	0.381348
	H114	H	0.915144	0.094803	0.615829
	H115	H	0.903430	0.907526	0.379729
	H116	H	0.616899	0.091469	0.905047
	H117	H	0.384862	0.092619	0.091568
	H118	H	0.616227	0.912340	0.086105
	H119	H	0.382986	0.907389	0.919490
	C120	C	0.375875	0.011363	0.624346
	C121	C	0.621400	0.993194	0.623627
	C122	C	0.622611	0.011325	0.379334
	C123	C	0.378672	0.994371	0.380265
	C124	C	0.621027	0.382199	0.009991
	C125	C	0.620785	0.625197	0.992114
	C126	C	0.378253	0.625893	0.009503
	C127	C	0.378587	0.381707	0.992444
	C128	C	0.007974	0.623912	0.377484
	C129	C	0.990767	0.623549	0.619281
	C130	C	0.008534	0.380612	0.619839
	C131	C	0.990106	0.379628	0.376668
	C132	C	0.876815	0.512756	0.122097
	C133	C	0.120340	0.496157	0.119763
	C134	C	0.123417	0.512759	0.875697
	C135	C	0.877667	0.495026	0.877788
	C136	C	0.120984	0.879065	0.509763
	C137	C	0.120353	0.122874	0.491653
	C138	C	0.878368	0.123524	0.508598
	C139	C	0.878258	0.880233	0.491131
	C140	C	0.508833	0.125457	0.879606
	C141	C	0.491682	0.124833	0.122324
	C142	C	0.509079	0.881753	0.122163
	C143	C	0.490634	0.882386	0.880334
	C144	C	0.378942	0.888408	0.679897
	C145	C	0.617853	0.117207	0.676994
	C146	C	0.620453	0.888624	0.323335
	C147	C	0.380961	0.117780	0.325307
	C148	C	0.676071	0.385622	0.885085
	C149	C	0.674600	0.621642	0.116951
	C150	C	0.325948	0.622834	0.884121
	C151	C	0.323216	0.386765	0.117175
	C152	C	0.884456	0.679858	0.378884
	C153	C	0.114903	0.678723	0.617381
	C154	C	0.883959	0.325905	0.619297
	C155	C	0.114315	0.324776	0.377407
	C156	C	0.884212	0.383574	0.676180
	C157	C	0.115371	0.620650	0.673234
	C158	C	0.882956	0.619542	0.325236
	C159	C	0.115037	0.383518	0.321591
	C160	C	0.381249	0.681164	0.885155
	C161	C	0.619334	0.680532	0.116307
	C162	C	0.620861	0.326717	0.885713
	C163	C	0.379318	0.327167	0.117114
	C164	C	0.677022	0.887765	0.381654
	C165	C	0.676687	0.116151	0.620971
	C166	C	0.322953	0.887438	0.621177
	C167	C	0.321997	0.116828	0.382273
	C168	C	0.879385	0.388936	0.176160
	C169	C	0.117122	0.619093	0.175663
	C170	C	0.120311	0.389128	0.821890
	C171	C	0.881461	0.618560	0.822954
	C172	C	0.177865	0.882551	0.385538
	C173	C	0.172427	0.118982	0.617323
	C174	C	0.823726	0.120213	0.384364
	C175	C	0.824211	0.883384	0.616465
	C176	C	0.384468	0.180388	0.882955
	C177	C	0.616183	0.179770	0.120366
	C178	C	0.384461	0.827078	0.122393
	C179	C	0.614808	0.827502	0.881037
	C180	C	0.384569	0.885415	0.178332
	C181	C	0.617007	0.121390	0.175454
	C182	C	0.383279	0.121577	0.827181
	C183	C	0.615429	0.886381	0.825469
	C184	C	0.879418	0.179270	0.384798
	C185	C	0.118672	0.179547	0.615506
	C186	C	0.120480	0.825557	0.384645
	C187	C	0.878994	0.824288	0.615033
	C188	C	0.178981	0.389815	0.878677
	C189	C	0.174642	0.619810	0.117737
	C190	C	0.822954	0.389029	0.118485
	C191	C	0.823081	0.618387	0.880422
	C192	C	0.396839	0.097644	0.602418
	C193	C	0.599491	0.907219	0.602206
	C194	C	0.600480	0.097221	0.401800
	C195	C	0.401737	0.908817	0.402752
	C196	C	0.598269	0.403625	0.097155
	C197	C	0.598778	0.603607	0.905213
	C198	C	0.399538	0.604116	0.096728
	C199	C	0.401748	0.402849	0.905313
	C200	C	0.095088	0.601979	0.399379
	C201	C	0.903960	0.601356	0.597637
	C202	C	0.094961	0.402538	0.596182
	C203	C	0.903135	0.401447	0.399632
	C204	C	0.898499	0.598840	0.100684
	C205	C	0.098529	0.410499	0.096932
	C206	C	0.100937	0.598762	0.897027
	C207	C	0.899616	0.409060	0.900097
	C208	C	0.097679	0.900025	0.596550
	C209	C	0.098575	0.100632	0.405137
	C210	C	0.900896	0.101619	0.595837
	C211	C	0.900846	0.902418	0.403762
	C212	C	0.595767	0.103895	0.900447
	C213	C	0.404995	0.103270	0.100853
	C214	C	0.595685	0.903312	0.098512
	C215	C	0.403458	0.904047	0.903532
	Zn216	Zn	0.498791	0.003529	0.751639
	Zn217	Zn	0.501219	0.004169	0.250017
	Zn218	Zn	0.748643	0.503829	0.001065
	Zn219	Zn	0.250670	0.505254	-0.000815
	Zn220	Zn	-0.000788	0.752085	0.499119
	Zn221	Zn	-0.000194	0.252133	0.499425
	Zn222	Zn	-0.000478	0.502814	0.748223
	Zn223	Zn	-0.001248	0.502757	0.249818
	Zn224	Zn	0.499318	0.753407	0.001249
	Zn225	Zn	0.500830	0.253237	0.001491
	Zn226	Zn	0.750566	0.001638	0.501262
	Zn227	Zn	0.248330	0.001435	0.502271
	N228	N	0.411400	0.966408	0.681847
	N229	N	0.584150	0.039932	0.678546
	N230	N	0.587314	0.966377	0.321627
	N231	N	0.415436	0.040541	0.323717
	N232	N	0.676332	0.419379	0.963249
	N233	N	0.675943	0.588140	0.038505
	N234	N	0.324013	0.589131	0.962384
	N235	N	0.322801	0.420086	0.038607
	N236	N	0.963298	0.682453	0.410933
	N237	N	0.036492	0.680400	0.584444
	N238	N	0.962331	0.323865	0.585050
	N239	N	0.035683	0.322049	0.410740
	N240	N	0.962440	0.417029	0.676610
	N241	N	0.037161	0.586875	0.674427
	N242	N	0.960898	0.585308	0.324368
	N243	N	0.036568	0.416715	0.320665
	N244	N	0.413124	0.683243	0.964214
	N245	N	0.586448	0.682926	0.037831
	N246	N	0.587300	0.324367	0.964507
	N247	N	0.412871	0.323781	0.038506
	N248	N	0.678473	0.965054	0.415847
	N249	N	0.679114	0.038034	0.588571
	N250	N	0.320849	0.964990	0.587539
	N251	N	0.320264	0.039160	0.415555
	N252	N	0.912208	0.466747	0.178655
	N253	N	0.083961	0.541259	0.177023
	N254	N	0.086740	0.466625	0.819570
	N255	N	0.914603	0.540693	0.820985
	N256	N	0.178255	0.915053	0.464247
	N257	N	0.173839	0.084674	0.539322
	N258	N	0.823012	0.086358	0.462527
	N259	N	0.823685	0.917478	0.538236
	N260	N	0.463376	0.182885	0.914703
	N261	N	0.537532	0.181861	0.087870
	N262	N	0.463016	0.824337	0.088178
	N263	N	0.536035	0.825087	0.914586
	N264	N	0.462805	0.918573	0.178580
	N265	N	0.538754	0.087767	0.176847
	N266	N	0.461567	0.088038	0.824905
	N267	N	0.537041	0.919820	0.824949
	N268	N	0.912927	0.181226	0.463193
	N269	N	0.087105	0.182225	0.536333
	N270	N	0.085910	0.823091	0.462866
	N271	N	0.911935	0.822348	0.536052
	N272	N	0.181110	0.467770	0.911274
	N273	N	0.176848	0.542367	0.083973
	N274	N	0.821011	0.466845	0.085721
	N275	N	0.820420	0.540552	0.913410
	O276	O	0.020960	0.029401	-0.030300
	H277	H	0.017193	0.018730	-0.030745
	H278	H	0.024335	0.030577	-0.028140
	O279	O	0.501942	0.506944	0.476420
	H280	H	0.510883	0.504244	0.470433
	H281	H	0.499404	0.504188	0.485732
	O282	O	0.569056	0.455498	0.567150
	H283	H	0.572037	0.464326	0.570884
	H284	H	0.561628	0.458889	0.573717
	O285	O	1.008895	0.040069	1.026461
	H286	H	1.023871	0.036009	1.022371
	H287	H	1.013433	0.057998	1.031572
	O288	O	1.016048	-0.036404	-0.026310
	H289	H	1.027476	-0.031783	-0.030919
	H290	H	1.009408	-0.039458	-0.028507
	O291	O	0.468744	0.494865	0.537258
	H292	H	0.469811	0.500262	0.540162
	H293	H	0.472428	0.496051	0.534752
	O294	O	0.974516	0.113273	0.915381
	H295	H	0.963527	0.108541	0.910026
	H296	H	0.971212	0.123783	0.915554
	O297	O	0.039547	-0.011428	-0.042058
	H298	H	0.048979	-0.010747	-0.034244
	H299	H	0.035021	-0.016597	-0.043733
	O300	O	0.523814	0.540794	0.516040
	H301	H	0.529460	0.538463	0.514255
	H302	H	0.530156	0.535052	0.526227
	O303	O	0.420906	0.448466	0.509833
	H304	H	0.410361	0.445835	0.499508
	H305	H	0.419886	0.444159	0.501257
	O306	O	0.975935	-0.020796	0.006657
	H307	H	0.967731	-0.006915	0.024844
	H308	H	0.966998	-0.038056	0.001183
	O309	O	-0.030251	-0.059083	0.977954
	H310	H	-0.024624	-0.063387	0.989166
	H311	H	-0.037165	-0.052986	0.971138
	O312	O	1.493363	0.552534	0.485620
	H313	H	1.497218	0.546288	0.490882
	H314	H	1.502169	0.540705	0.491402
	O315	O	0.470416	0.458742	0.577940
	H316	H	0.476954	0.452338	0.574065
	H317	H	0.477767	0.464513	0.585195
	O318	O	0.473697	0.441712	0.601757
	H319	H	0.457615	0.450447	0.604116
	H320	H	0.469487	0.430864	0.609985
	O321	O	0.036088	1.042676	0.947415
	H322	H	0.038125	1.030045	0.943379
	H323	H	0.020564	1.037431	0.940646
	O324	O	0.497614	0.485235	0.523123
	H325	H	0.495967	0.496152	0.513495
	H326	H	0.506705	0.485634	0.529698
	O327	O	0.393458	0.585566	0.548779
	H328	H	0.398830	0.589220	0.553696
	H329	H	0.403672	0.591505	0.554247
	O330	O	0.989360	1.012313	0.091540
	H331	H	0.986929	1.019314	0.098759
	H332	H	0.985318	1.017757	0.092207
	O333	O	0.534862	0.511340	0.475536
	H334	H	0.530542	0.507491	0.473115
	H335	H	0.539597	0.519779	0.478173
	O336	O	0.500866	0.455763	0.492685
	H337	H	0.486804	0.457390	0.496173
	H338	H	0.502143	0.452546	0.504815
	O339	O	1.008700	1.100511	0.020785
	H340	H	1.001726	1.107944	0.033237
	H341	H	1.025542	1.096363	0.021733
	O342	O	0.561355	0.566453	0.496879
	H343	H	0.550197	0.560789	0.504258
	H344	H	0.556629	0.561007	0.487441
	O345	O	0.488019	0.444692	0.439766
	H346	H	0.483336	0.446122	0.445749
	H347	H	0.479981	0.442249	0.432960
	O348	O	-0.000833	0.008602	0.091171
	H349	H	0.005089	0.008275	0.101603
	H350	H	0.005494	0.014286	0.098257
	O351	O	0.044129	1.131790	1.073304
	H352	H	0.047510	1.122685	1.071977
	H353	H	0.044359	1.135805	1.063157
	O354	O	0.418448	0.483147	0.534800
	H355	H	0.415021	0.495515	0.540661
	H356	H	0.419205	0.472656	0.518338
	O357	O	0.008825	1.087375	1.066117
	H358	H	0.018579	1.100135	1.063654
	H359	H	0.009198	1.094791	1.069077
