data_Molecule from HDF5

_cell_length_a		16.293771
_cell_length_b		16.314362
_cell_length_c		15.985658
_cell_angle_alpha	89.563738
_cell_angle_beta	89.734231
_cell_angle_gamma	90.249181
_symmetry_space_group_name_H-M	'P 1'
_symmetry_Int_Tables_number		1

loop_
	_symmetry_equiv_pos_as_xyz
	x,y,z

loop_
	_atom_site_label
	_atom_site_type_symbol
	_atom_site_fract_x
	_atom_site_fract_y
	_atom_site_fract_z
	H0	H	0.392744	0.834267	0.703685
	H1	H	0.586598	0.162905	0.700403
	H2	H	0.586588	0.834145	0.277220
	H3	H	0.395214	0.163172	0.277639
	H4	H	0.704175	0.398388	0.827228
	H5	H	0.699272	0.595568	0.158540
	H6	H	0.274361	0.598037	0.826132
	H7	H	0.272703	0.393244	0.157270
	H8	H	0.824954	0.716281	0.390631
	H9	H	0.149109	0.717886	0.597217
	H10	H	0.824985	0.279465	0.596542
	H11	H	0.151677	0.283066	0.391189
	H12	H	0.823795	0.398524	0.708902
	H13	H	0.152631	0.592637	0.703665
	H14	H	0.822534	0.594866	0.280078
	H15	H	0.152568	0.402569	0.278113
	H16	H	0.389933	0.712171	0.824700
	H17	H	0.591000	0.715122	0.155585
	H18	H	0.586674	0.288167	0.824261
	H19	H	0.385442	0.279257	0.155066
	H20	H	0.709585	0.836836	0.386916
	H21	H	0.705905	0.160896	0.589699
	H22	H	0.270555	0.836421	0.596643
	H23	H	0.270804	0.159775	0.384831
	H24	H	0.890321	0.333813	0.207372
	H25	H	0.084188	0.662697	0.202558
	H26	H	0.085307	0.333396	0.780614
	H27	H	0.892994	0.661401	0.778850
	H28	H	0.201800	0.900903	0.325239
	H29	H	0.204188	0.097577	0.657158
	H30	H	0.779393	0.099109	0.325209
	H31	H	0.772647	0.897928	0.656078
	H32	H	0.325059	0.215299	0.888403
	H33	H	0.650847	0.214997	0.088749
	H34	H	0.326116	0.779544	0.093375
	H35	H	0.651133	0.781573	0.884999
	H36	H	0.324877	0.898762	0.206842
	H37	H	0.654036	0.094432	0.199094
	H38	H	0.323698	0.094226	0.777158
	H39	H	0.653534	0.905553	0.776677
	H40	H	0.892014	0.212662	0.326778
	H41	H	0.087644	0.209979	0.659375
	H42	H	0.088928	0.784035	0.326934
	H43	H	0.885955	0.783244	0.657454
	H44	H	0.205210	0.335807	0.891885
	H45	H	0.207449	0.659102	0.095197
	H46	H	0.769898	0.335719	0.098003
	H47	H	0.773001	0.659847	0.890491
	H48	H	0.398802	0.112264	0.573288
	H49	H	0.585881	0.881866	0.577972
	H50	H	0.584501	0.111771	0.405191
	H51	H	0.396520	0.881365	0.395242
	H52	H	0.568224	0.403268	0.108028
	H53	H	0.589471	0.584833	0.871345
	H54	H	0.408152	0.583873	0.105776
	H55	H	0.396276	0.406334	0.871739
	H56	H	0.100612	0.587156	0.405781
	H57	H	0.870137	0.589533	0.590433
	H58	H	0.104383	0.403425	0.584057
	H59	H	0.869246	0.405878	0.388748
	H60	H	0.105065	0.403913	0.586480
	H61	H	0.869679	0.596128	0.583215
	H62	H	0.105053	0.590783	0.392226
	H63	H	0.869699	0.390306	0.406928
	H64	H	0.397594	0.600898	0.113458
	H65	H	0.574032	0.586476	0.876253
	H66	H	0.582764	0.396499	0.114207
	H67	H	0.394047	0.408439	0.872063
	H68	H	0.594511	0.118626	0.392845
	H69	H	0.585002	0.880436	0.585967
	H70	H	0.387664	0.117735	0.581150
	H71	H	0.398516	0.884550	0.404645
	H72	H	0.897687	0.613633	0.084689
	H73	H	0.075718	0.383268	0.084455
	H74	H	0.079427	0.613802	0.896402
	H75	H	0.879245	0.375299	0.902310
	H76	H	0.071784	0.909874	0.607633
	H77	H	0.077615	0.096921	0.373129
	H78	H	0.892419	0.094888	0.614818
	H79	H	0.907728	0.900658	0.373394
	H80	H	0.606038	0.098878	0.896215
	H81	H	0.371863	0.091050	0.080112
	H82	H	0.603029	0.905485	0.073741
	H83	H	0.371638	0.900194	0.901864
	H84	H	0.604552	0.910766	0.083909
	H85	H	0.372045	0.088113	0.082633
	H86	H	0.604718	0.092407	0.897322
	H87	H	0.373914	0.907042	0.899468
	H88	H	0.891369	0.082781	0.611594
	H89	H	0.087021	0.092156	0.371412
	H90	H	0.081069	0.899130	0.613405
	H91	H	0.890447	0.905052	0.368668
	H92	H	0.080737	0.612225	0.904316
	H93	H	0.086678	0.381184	0.081281
	H94	H	0.890444	0.614222	0.080965
	H95	H	0.902642	0.379893	0.890445
	H96	H	0.400115	0.114842	0.587650
	H97	H	0.578093	0.883678	0.581632
	H98	H	0.578309	0.114790	0.389208
	H99	H	0.390093	0.880901	0.402548
	H100	H	0.582016	0.412986	0.109958
	H101	H	0.581432	0.599493	0.870143
	H102	H	0.387433	0.581855	0.111659
	H103	H	0.397273	0.408821	0.872609
	H104	H	0.104450	0.600194	0.402775
	H105	H	0.873759	0.587473	0.580925
	H106	H	0.105327	0.401054	0.585922
	H107	H	0.876355	0.413405	0.410244
	H108	H	0.890692	0.617039	0.088930
	H109	H	0.083159	0.378446	0.092145
	H110	H	0.087181	0.615944	0.899894
	H111	H	0.899002	0.386629	0.916401
	H112	H	0.086929	0.912198	0.611131
	H113	H	0.078875	0.087480	0.374927
	H114	H	0.902526	0.088460	0.609683
	H115	H	0.901462	0.917130	0.376088
	H116	H	0.606063	0.095701	0.890593
	H117	H	0.370486	0.091355	0.084302
	H118	H	0.607068	0.899898	0.083115
	H119	H	0.370110	0.903027	0.893679
	C120	C	0.366383	0.007208	0.611710
	C121	C	0.611034	0.990038	0.610372
	C122	C	0.614114	0.007324	0.366978
	C123	C	0.367134	0.989831	0.369505
	C124	C	0.608014	0.376793	0.000919
	C125	C	0.609824	0.619125	0.982493
	C126	C	0.368564	0.618393	0.000389
	C127	C	0.366130	0.376219	0.981838
	C128	C	-0.004257	0.621139	0.370666
	C129	C	0.979174	0.619877	0.614323
	C130	C	-0.003319	0.374257	0.615461
	C131	C	0.979887	0.376025	0.371645
	C132	C	0.864671	0.506818	0.115433
	C133	C	0.110360	0.489085	0.114388
	C134	C	0.110460	0.506185	0.871155
	C135	C	0.865963	0.488691	0.872261
	C136	C	0.109250	0.877802	0.500886
	C137	C	0.110172	0.119857	0.482984
	C138	C	0.868481	0.118847	0.501568
	C139	C	0.868310	0.877463	0.482236
	C140	C	0.496714	0.122137	0.866885
	C141	C	0.479886	0.119297	0.110379
	C142	C	0.497457	0.875416	0.111968
	C143	C	0.480356	0.876616	0.868321
	C144	C	0.370441	0.883696	0.667269
	C145	C	0.607540	0.113565	0.664188
	C146	C	0.609305	0.883683	0.313231
	C147	C	0.372068	0.113509	0.313786
	C148	C	0.665176	0.379154	0.876365
	C149	C	0.663396	0.616848	0.108022
	C150	C	0.312551	0.617643	0.875587
	C151	C	0.310172	0.374722	0.107036
	C152	C	0.873290	0.677444	0.371444
	C153	C	0.101175	0.677613	0.614923
	C154	C	0.873867	0.318081	0.615554
	C155	C	0.102770	0.321260	0.371976
	C156	C	0.873232	0.377289	0.671522
	C157	C	0.102914	0.615708	0.668315
	C158	C	0.872122	0.616800	0.316511
	C159	C	0.103333	0.381025	0.315780
	C160	C	0.369849	0.674591	0.874852
	C161	C	0.609076	0.675934	0.106686
	C162	C	0.606865	0.323934	0.874859
	C163	C	0.366416	0.317876	0.105731
	C164	C	0.670456	0.885155	0.367813
	C165	C	0.667147	0.112704	0.609096
	C166	C	0.310213	0.884734	0.613286
	C167	C	0.310201	0.111684	0.367289
	C168	C	0.868442	0.383417	0.170937
	C169	C	0.106115	0.613016	0.166926
	C170	C	0.106865	0.382843	0.817109
	C171	C	0.871035	0.612118	0.816477
	C172	C	0.164503	0.880182	0.375314
	C173	C	0.165988	0.117394	0.607878
	C174	C	0.815741	0.118245	0.375442
	C175	C	0.810747	0.878144	0.606804
	C176	C	0.373815	0.176772	0.868840
	C177	C	0.602734	0.175722	0.108176
	C178	C	0.374756	0.818387	0.112569
	C179	C	0.602979	0.821296	0.867773
	C180	C	0.374099	0.877886	0.168892
	C181	C	0.604137	0.116142	0.163468
	C182	C	0.373090	0.116466	0.813643
	C183	C	0.604207	0.882843	0.813700
	C184	C	0.871518	0.175094	0.376423
	C185	C	0.108055	0.173429	0.608993
	C186	C	0.108563	0.822046	0.376122
	C187	C	0.867238	0.821340	0.607476
	C188	C	0.166321	0.383908	0.872650
	C189	C	0.167373	0.611270	0.113447
	C190	C	0.808566	0.384258	0.116322
	C191	C	0.811217	0.611337	0.871881
	C192	C	0.388847	0.092681	0.587604
	C193	C	0.589347	0.904306	0.588385
	C194	C	0.592210	0.092758	0.388950
	C195	C	0.388713	0.904490	0.393701
	C196	C	0.584722	0.398038	0.088094
	C197	C	0.588045	0.596862	0.895232
	C198	C	0.391023	0.595535	0.087589
	C199	C	0.388969	0.400829	0.894826
	C200	C	0.081211	0.599186	0.393524
	C201	C	0.893436	0.597647	0.591440
	C202	C	0.082680	0.396184	0.592343
	C203	C	0.893844	0.397013	0.395005
	C204	C	0.886425	0.592900	0.091913
	C205	C	0.088435	0.403171	0.092570
	C206	C	0.088863	0.591880	0.893616
	C207	C	0.887266	0.402866	0.895914
	C208	C	0.086706	0.900345	0.588041
	C209	C	0.087802	0.098581	0.395877
	C210	C	0.889295	0.095705	0.589345
	C211	C	0.892744	0.900856	0.395158
	C212	C	0.583125	0.101791	0.888283
	C213	C	0.393941	0.096927	0.088870
	C214	C	0.582670	0.898541	0.087593
	C215	C	0.394220	0.897350	0.891581
	Zn216	Zn	0.489041	-0.001010	0.739149
	Zn217	Zn	0.489336	-0.001499	0.240280
	Zn218	Zn	0.736563	0.497701	-0.005984
	Zn219	Zn	0.240106	0.497404	-0.007104
	Zn220	Zn	-0.011949	0.749867	0.492808
	Zn221	Zn	-0.011784	0.245750	0.493196
	Zn222	Zn	-0.011818	0.497208	0.742924
	Zn223	Zn	-0.012333	0.498450	0.242074
	Zn224	Zn	0.489343	0.746716	-0.009894
	Zn225	Zn	0.487538	0.249656	-0.009819
	Zn226	Zn	0.741910	-0.001544	0.490357
	Zn227	Zn	0.237320	-0.001483	0.491131
	N228	N	0.404682	0.960747	0.666622
	N229	N	0.573281	0.036301	0.665204
	N230	N	0.575180	0.960575	0.312394
	N231	N	0.406897	0.036697	0.314965
	N232	N	0.666131	0.411438	0.955748
	N233	N	0.664220	0.582307	0.029726
	N234	N	0.311304	0.583449	0.954748
	N235	N	0.310134	0.410631	0.028932
	N236	N	0.951115	0.680293	0.404435
	N237	N	0.023229	0.680177	0.581899
	N238	N	0.951729	0.315938	0.581230
	N239	N	0.024965	0.317903	0.405987
	N240	N	0.950423	0.411563	0.671430
	N241	N	0.026000	0.580593	0.668179
	N242	N	0.949236	0.582593	0.315602
	N243	N	0.025865	0.414365	0.315554
	N244	N	0.403940	0.675157	0.953493
	N245	N	0.576658	0.677666	0.027392
	N246	N	0.571839	0.322261	0.953263
	N247	N	0.400387	0.318556	0.026827
	N248	N	0.673795	0.963033	0.400430
	N249	N	0.669208	0.035125	0.576097
	N250	N	0.307548	0.962688	0.579234
	N251	N	0.307042	0.033844	0.401269
	N252	N	0.902438	0.460671	0.170458
	N253	N	0.071196	0.536012	0.167433
	N254	N	0.072812	0.459746	0.816094
	N255	N	0.904308	0.534783	0.816500
	N256	N	0.165009	0.914189	0.453799
	N257	N	0.167768	0.085102	0.528591
	N258	N	0.813428	0.084108	0.454435
	N259	N	0.811296	0.912434	0.527748
	N260	N	0.451816	0.180527	0.900993
	N261	N	0.524482	0.177965	0.076173
	N262	N	0.452331	0.816820	0.077954
	N263	N	0.524957	0.817453	0.900991
	N264	N	0.451477	0.912306	0.169063
	N265	N	0.526901	0.081560	0.164940
	N266	N	0.450629	0.083266	0.812207
	N267	N	0.526809	0.916400	0.813740
	N268	N	0.903595	0.175566	0.455772
	N269	N	0.074182	0.175211	0.530264
	N270	N	0.075090	0.820354	0.455300
	N271	N	0.902056	0.820832	0.528966
	N272	N	0.168758	0.461617	0.905716
	N273	N	0.170484	0.533020	0.081813
	N274	N	0.805947	0.462114	0.082611
	N275	N	0.807979	0.533656	0.906033
	O276	O	0.528141	0.507764	0.444071
	H277	H	0.533301	0.507354	0.440215
	H278	H	0.541415	0.507176	0.444580
	O279	O	0.504131	0.547196	0.354184
	H280	H	0.504086	0.542001	0.359268
	H281	H	0.505394	0.535040	0.359184
	O282	O	1.037540	1.027646	-0.052999
	H283	H	1.037213	1.037213	-0.053269
	H284	H	1.044939	1.018252	-0.051860
	O285	O	1.059946	0.042589	1.111890
	H286	H	1.055502	0.039305	1.100232
	H287	H	1.060350	0.053707	1.118370
	O288	O	0.520702	0.582941	0.460195
	H289	H	0.519111	0.584043	0.453198
	H290	H	0.515215	0.590216	0.448804
	O291	O	0.520845	0.392286	0.458814
	H292	H	0.517138	0.387431	0.460361
	H293	H	0.523700	0.380907	0.465980
	O294	O	0.516367	0.615211	0.558399
	H295	H	0.526538	0.619126	0.573588
	H296	H	0.514760	0.613017	0.559770
	O297	O	0.086050	-0.043605	1.010136
	H298	H	0.091333	-0.042612	1.005634
	H299	H	0.089770	-0.045227	1.016775
	O300	O	0.458681	0.542397	0.407455
	H301	H	0.462168	0.542543	0.411402
	H302	H	0.459352	0.542526	0.411363
	O303	O	0.932003	1.033522	0.071386
	H304	H	0.937693	1.041864	0.068134
	H305	H	0.928204	1.028222	0.068724
	O306	O	-0.034993	1.020810	0.977159
	H307	H	-0.020955	1.016660	0.967861
	H308	H	-0.039386	1.010858	0.972619
	O309	O	0.444001	0.469729	0.523146
	H310	H	0.454010	0.482673	0.506163
	H311	H	0.440073	0.456652	0.514666
	O312	O	0.012754	-0.097239	0.006250
	H313	H	-0.000283	-0.112732	0.016748
	H314	H	0.006661	-0.095466	0.015374
	O315	O	0.955002	-0.034669	0.043187
	H316	H	0.934612	-0.033362	0.042687
	H317	H	0.949994	-0.036124	0.062778
	O318	O	1.017305	0.970965	0.963146
	H319	H	1.028049	0.978627	0.958603
	H320	H	1.014257	0.973237	0.957190
	O321	O	-0.051193	-0.016767	0.996891
	H322	H	-0.061288	-0.019990	0.993661
	H323	H	-0.051055	-0.023464	0.980687
	O324	O	0.402202	0.335984	0.564846
	H325	H	0.392277	0.330531	0.563034
	H326	H	0.390856	0.337599	0.570657
	O327	O	-0.121588	-0.031878	0.028557
	H328	H	-0.117113	-0.035388	0.028323
	H329	H	-0.114483	-0.036649	0.021317
	O330	O	0.557126	0.588303	0.464557
	H331	H	0.565958	0.597665	0.469171
	H332	H	0.546566	0.575410	0.459683
	O333	O	0.387754	0.372610	1.512922
	H334	H	0.383454	0.374099	1.514317
	H335	H	0.375675	0.370007	1.509796
	O336	O	0.556564	-0.482054	0.521131
	H337	H	0.552272	-0.479868	0.515290
	H338	H	0.563952	-0.478449	0.510502
	O339	O	0.400770	0.685124	0.468335
	H340	H	0.402928	0.681286	0.469242
	H341	H	0.405713	0.695412	0.469176
	O342	O	0.941584	0.990836	1.010252
	H343	H	0.938277	0.998052	1.014623
	H344	H	0.929120	0.979657	1.016329
	O345	O	1.614523	1.435601	-0.576098
	H346	H	1.617336	1.445300	-0.574607
	H347	H	1.612144	1.452134	-0.576840
	O348	O	0.409106	0.597455	0.359217
	H349	H	0.393540	0.602835	0.346095
	H350	H	0.417068	0.590146	0.362550
	O351	O	0.988658	0.985566	0.922917
	H352	H	0.993454	0.992906	0.922744
	H353	H	0.992109	0.985773	0.917968
	O354	O	0.365379	0.429826	0.591669
	H355	H	0.366807	0.438442	0.590779
	H356	H	0.353821	0.428191	0.592624
	O357	O	0.914082	-0.014622	1.021665
	H358	H	0.901556	-0.017645	1.027880
	H359	H	0.917999	-0.008711	1.024789
	O360	O	0.991115	-0.063616	-0.100616
	H361	H	0.997856	-0.069950	-0.098972
	H362	H	0.985148	-0.060925	-0.103072
	O363	O	0.347098	0.622327	0.497727
	H364	H	0.345019	0.632201	0.496227
	H365	H	0.352270	0.617776	0.471844
	O366	O	1.062191	0.944753	0.952523
	H367	H	1.062519	0.932202	0.958916
	H368	H	1.072805	0.952363	0.950709
	O369	O	0.476622	0.386045	1.507261
	H370	H	0.477059	0.363014	1.514309
	H371	H	0.479634	0.395127	1.514865
	O372	O	-0.046907	0.120732	-0.080853
	H373	H	-0.055127	0.114755	-0.070907
	H374	H	-0.044858	0.116936	-0.086866
	O375	O	1.500936	0.532754	0.635744
	H376	H	1.504896	0.527955	0.630580
	H377	H	1.505035	0.526612	0.638217
	O378	O	0.573380	0.475937	0.623820
	H379	H	0.568903	0.472603	0.608327
	H380	H	0.568773	0.458888	0.638334
	O381	O	0.510706	0.441124	0.450202
	H382	H	0.500890	0.448005	0.463161
	H383	H	0.511589	0.438759	0.458469
