data_Molecule from HDF5

_cell_length_a		16.328074
_cell_length_b		16.431576
_cell_length_c		16.368663
_cell_angle_alpha	89.959842
_cell_angle_beta	89.968324
_cell_angle_gamma	89.898917
_symmetry_space_group_name_H-M	'P 1'
_symmetry_Int_Tables_number		1

loop_
	_symmetry_equiv_pos_as_xyz
	x,y,z

loop_
	_atom_site_label
	_atom_site_type_symbol
	_atom_site_fract_x
	_atom_site_fract_y
	_atom_site_fract_z
	H0	H	0.386275	0.835969	0.718765
	H1	H	0.600228	0.150852	0.720406
	H2	H	0.601105	0.835175	0.275133
	H3	H	0.386001	0.151894	0.273173
	H4	H	0.714425	0.387034	0.838400
	H5	H	0.715001	0.599888	0.155610
	H6	H	0.273127	0.600040	0.835118
	H7	H	0.271320	0.390986	0.153769
	H8	H	0.835605	0.721040	0.385822
	H9	H	0.153455	0.716609	0.600866
	H10	H	0.835800	0.273367	0.600664
	H11	H	0.154529	0.277195	0.391044
	H12	H	0.834687	0.389211	0.716113
	H13	H	0.153230	0.600033	0.715793
	H14	H	0.835351	0.604845	0.271218
	H15	H	0.154170	0.392940	0.276070
	H16	H	0.384149	0.719661	0.838095
	H17	H	0.598432	0.714607	0.155611
	H18	H	0.598350	0.271508	0.838492
	H19	H	0.383182	0.271600	0.153827
	H20	H	0.719173	0.837798	0.389994
	H21	H	0.714268	0.153505	0.601477
	H22	H	0.270374	0.836922	0.603548
	H23	H	0.275876	0.154750	0.394032
	H24	H	0.887529	0.336574	0.218840
	H25	H	0.096824	0.654548	0.214699
	H26	H	0.094310	0.335484	0.777001
	H27	H	0.886108	0.654664	0.774416
	H28	H	0.213043	0.894392	0.336314
	H29	H	0.212962	0.098741	0.656630
	H30	H	0.774142	0.099890	0.336424
	H31	H	0.775912	0.892377	0.656309
	H32	H	0.333578	0.212963	0.892912
	H33	H	0.650875	0.218300	0.105955
	H34	H	0.334903	0.774661	0.101738
	H35	H	0.653464	0.771637	0.891794
	H36	H	0.334558	0.890851	0.216340
	H37	H	0.654132	0.098306	0.216396
	H38	H	0.334331	0.097525	0.776312
	H39	H	0.653805	0.886063	0.775380
	H40	H	0.890048	0.215789	0.335474
	H41	H	0.096309	0.215022	0.655937
	H42	H	0.099479	0.775840	0.337518
	H43	H	0.885726	0.771945	0.653742
	H44	H	0.211574	0.335432	0.891574
	H45	H	0.214254	0.653720	0.098373
	H46	H	0.773446	0.334613	0.100809
	H47	H	0.769293	0.653039	0.890892
	H48	H	0.408818	0.108425	0.594633
	H49	H	0.583693	0.881230	0.583225
	H50	H	0.584974	0.109915	0.401538
	H51	H	0.401679	0.880852	0.409006
	H52	H	0.576374	0.407172	0.107921
	H53	H	0.579542	0.578660	0.885264
	H54	H	0.394701	0.584847	0.112176
	H55	H	0.413418	0.402472	0.884309
	H56	H	0.107366	0.583219	0.403686
	H57	H	0.880255	0.587289	0.579145
	H58	H	0.109911	0.410486	0.594974
	H59	H	0.882745	0.408154	0.414455
	H60	H	0.111612	0.396297	0.583290
	H61	H	0.881362	0.580084	0.582155
	H62	H	0.108044	0.589157	0.405084
	H63	H	0.880320	0.412888	0.402343
	H64	H	0.407174	0.573315	0.104704
	H65	H	0.577306	0.584092	0.883908
	H66	H	0.581584	0.399478	0.113125
	H67	H	0.399838	0.394913	0.876779
	H68	H	0.577727	0.105301	0.406722
	H69	H	0.585254	0.880806	0.585699
	H70	H	0.411062	0.103466	0.581194
	H71	H	0.405260	0.879783	0.404017
	H72	H	0.901523	0.610236	0.089043
	H73	H	0.085691	0.380484	0.084402
	H74	H	0.086043	0.612278	0.899521
	H75	H	0.910704	0.384063	0.902846
	H76	H	0.076718	0.902160	0.610856
	H77	H	0.086990	0.087882	0.380306
	H78	H	0.905718	0.081777	0.608272
	H79	H	0.909021	0.910180	0.384212
	H80	H	0.604554	0.073490	0.911181
	H81	H	0.379699	0.085930	0.081535
	H82	H	0.610693	0.905090	0.089923
	H83	H	0.381110	0.908774	0.906912
	H84	H	0.609500	0.900865	0.083255
	H85	H	0.381671	0.077443	0.086256
	H86	H	0.610271	0.084042	0.902678
	H87	H	0.378857	0.903598	0.906311
	H88	H	0.910031	0.089604	0.608712
	H89	H	0.086156	0.086902	0.380668
	H90	H	0.088831	0.904050	0.613932
	H91	H	0.907978	0.907306	0.382358
	H92	H	0.077361	0.607238	0.904722
	H93	H	0.080755	0.381300	0.088480
	H94	H	0.909711	0.605090	0.082811
	H95	H	0.902076	0.382678	0.912442
	H96	H	0.398126	0.109180	0.585209
	H97	H	0.583111	0.881657	0.586005
	H98	H	0.586303	0.107906	0.411358
	H99	H	0.407814	0.882443	0.408985
	H100	H	0.585833	0.408697	0.110988
	H101	H	0.582947	0.582926	0.883019
	H102	H	0.411463	0.590488	0.108683
	H103	H	0.398972	0.411505	0.882042
	H104	H	0.106217	0.585158	0.409284
	H105	H	0.878501	0.586053	0.586768
	H106	H	0.103490	0.412315	0.577853
	H107	H	0.876881	0.400552	0.405471
	H108	H	0.899411	0.606558	0.078248
	H109	H	0.080116	0.382857	0.082546
	H110	H	0.087065	0.608714	0.910582
	H111	H	0.899563	0.378864	0.900843
	H112	H	0.082459	0.913252	0.608113
	H113	H	0.085802	0.088613	0.381530
	H114	H	0.901939	0.088927	0.611730
	H115	H	0.906227	0.910265	0.383187
	H116	H	0.606380	0.087164	0.916737
	H117	H	0.377648	0.085081	0.090491
	H118	H	0.606263	0.907743	0.083266
	H119	H	0.381527	0.905248	0.911492
	C120	C	0.372735	0.002572	0.618807
	C121	C	0.616200	0.985634	0.618116
	C122	C	0.616331	0.003234	0.374369
	C123	C	0.372953	0.986293	0.375531
	C124	C	0.613595	0.372510	0.005685
	C125	C	0.613213	0.614549	0.988788
	C126	C	0.371708	0.616208	0.003609
	C127	C	0.371065	0.372276	0.986485
	C128	C	0.002033	0.618923	0.372973
	C129	C	0.985446	0.616838	0.615751
	C130	C	0.002779	0.373882	0.616765
	C131	C	0.985751	0.375780	0.375289
	C132	C	0.871354	0.502715	0.117017
	C133	C	0.114656	0.486567	0.116512
	C134	C	0.114444	0.503980	0.873575
	C135	C	0.870567	0.486365	0.873419
	C136	C	0.115198	0.875246	0.505385
	C137	C	0.116935	0.118400	0.487110
	C138	C	0.873338	0.118033	0.504054
	C139	C	0.873960	0.875353	0.487521
	C140	C	0.502157	0.113876	0.876871
	C141	C	0.484430	0.116249	0.119109
	C142	C	0.503156	0.873253	0.117595
	C143	C	0.485615	0.872024	0.875409
	C144	C	0.369386	0.883306	0.678474
	C145	C	0.618128	0.104092	0.679403
	C146	C	0.619284	0.883361	0.314658
	C147	C	0.369680	0.105014	0.314496
	C148	C	0.674391	0.369095	0.886092
	C149	C	0.674633	0.617506	0.107854
	C150	C	0.312061	0.618374	0.883503
	C151	C	0.310855	0.371807	0.106334
	C152	C	0.883141	0.680478	0.369117
	C153	C	0.105059	0.676799	0.618862
	C154	C	0.883078	0.313918	0.618588
	C155	C	0.106368	0.316698	0.372875
	C156	C	0.882547	0.371416	0.676309
	C157	C	0.105283	0.618610	0.676219
	C158	C	0.883138	0.622483	0.311568
	C159	C	0.106389	0.374538	0.315798
	C160	C	0.367557	0.678191	0.885211
	C161	C	0.616480	0.674812	0.108089
	C162	C	0.616549	0.311399	0.886228
	C163	C	0.366532	0.312201	0.106072
	C164	C	0.678106	0.884627	0.371773
	C165	C	0.674691	0.105656	0.620052
	C166	C	0.311393	0.883900	0.621047
	C167	C	0.314379	0.106475	0.374679
	C168	C	0.869322	0.383885	0.178156
	C169	C	0.115908	0.606807	0.175212
	C170	C	0.114370	0.383661	0.815486
	C171	C	0.867690	0.606446	0.813888
	C172	C	0.173927	0.874998	0.384458
	C173	C	0.174324	0.118444	0.608265
	C174	C	0.813566	0.119019	0.384190
	C175	C	0.814332	0.873157	0.607988
	C176	C	0.381565	0.173157	0.874443
	C177	C	0.603682	0.177523	0.122750
	C178	C	0.382701	0.814100	0.120169
	C179	C	0.605378	0.811245	0.873077
	C180	C	0.382503	0.872097	0.177043
	C181	C	0.605266	0.117785	0.177904
	C182	C	0.382224	0.115788	0.816367
	C183	C	0.605483	0.868345	0.815069
	C184	C	0.871206	0.176797	0.383777
	C185	C	0.116505	0.176408	0.607758
	C186	C	0.117475	0.816087	0.385152
	C187	C	0.869447	0.813451	0.606575
	C188	C	0.172897	0.383603	0.872462
	C189	C	0.174135	0.606288	0.117285
	C190	C	0.812600	0.382624	0.119177
	C191	C	0.809370	0.605759	0.871568
	C192	C	0.398590	0.085519	0.594230
	C193	C	0.591283	0.902759	0.592403
	C194	C	0.590442	0.086116	0.399273
	C195	C	0.397772	0.902845	0.400159
	C196	C	0.588464	0.397917	0.088922
	C197	C	0.587297	0.589098	0.905554
	C198	C	0.397169	0.590362	0.086900
	C199	C	0.396684	0.396129	0.902855
	C200	C	0.085385	0.593277	0.398750
	C201	C	0.901856	0.591724	0.590155
	C202	C	0.086548	0.399240	0.592304
	C203	C	0.901956	0.400277	0.400139
	C204	C	0.896284	0.585626	0.090961
	C205	C	0.089365	0.403241	0.092224
	C206	C	0.090363	0.587684	0.897914
	C207	C	0.896373	0.403540	0.898189
	C208	C	0.090095	0.899524	0.589054
	C209	C	0.093237	0.094518	0.402911
	C210	C	0.898515	0.093649	0.587845
	C211	C	0.900039	0.901648	0.404848
	C212	C	0.585168	0.088832	0.902732
	C213	C	0.401350	0.090461	0.093442
	C214	C	0.587024	0.897354	0.092557
	C215	C	0.402209	0.898310	0.900886
	Zn216	Zn	0.494432	-0.007168	0.747459
	Zn217	Zn	0.494363	-0.006131	0.245957
	Zn218	Zn	0.742477	0.494128	-0.004078
	Zn219	Zn	0.243870	0.494358	-0.005490
	Zn220	Zn	-0.006141	0.746820	0.495649
	Zn221	Zn	-0.005183	0.246517	0.494732
	Zn222	Zn	-0.007132	0.495667	0.744595
	Zn223	Zn	-0.006471	0.495465	0.246062
	Zn224	Zn	0.493431	0.744287	-0.002913
	Zn225	Zn	0.492670	0.243242	-0.002681
	Zn226	Zn	0.745147	-0.004247	0.496604
	Zn227	Zn	0.244535	-0.004629	0.497366
	N228	N	0.406957	0.958053	0.677104
	N229	N	0.582742	0.028297	0.678561
	N230	N	0.581844	0.958300	0.315885
	N231	N	0.405584	0.029244	0.314758
	N232	N	0.673033	0.406002	0.961324
	N233	N	0.672534	0.580550	0.032541
	N234	N	0.314577	0.580337	0.958342
	N235	N	0.313625	0.408325	0.030926
	N236	N	0.958179	0.678114	0.406979
	N237	N	0.029467	0.675520	0.581942
	N238	N	0.958764	0.315557	0.582184
	N239	N	0.030502	0.317270	0.409132
	N240	N	0.958015	0.408284	0.675286
	N241	N	0.029664	0.581946	0.674433
	N242	N	0.958021	0.584789	0.313936
	N243	N	0.030407	0.410636	0.317234
	N244	N	0.404120	0.676726	0.960770
	N245	N	0.579164	0.672959	0.032970
	N246	N	0.579785	0.313156	0.961799
	N247	N	0.403468	0.312433	0.030697
	N248	N	0.676520	0.960032	0.408205
	N249	N	0.673571	0.031092	0.582737
	N250	N	0.313369	0.959146	0.584649
	N251	N	0.316168	0.031653	0.411869
	N252	N	0.905069	0.459536	0.176861
	N253	N	0.079824	0.531437	0.174850
	N254	N	0.079093	0.459718	0.815569
	N255	N	0.904866	0.531208	0.814629
	N256	N	0.172685	0.910894	0.460333
	N257	N	0.174998	0.083427	0.532157
	N258	N	0.814661	0.083338	0.460157
	N259	N	0.816967	0.910980	0.533061
	N260	N	0.456935	0.172108	0.911436
	N261	N	0.527492	0.176685	0.087039
	N262	N	0.458600	0.814782	0.083897
	N263	N	0.529596	0.813443	0.909816
	N264	N	0.458470	0.907860	0.175827
	N265	N	0.530015	0.080575	0.175975
	N266	N	0.458210	0.079689	0.817648
	N267	N	0.529841	0.905067	0.816193
	N268	N	0.907593	0.176355	0.459406
	N269	N	0.081590	0.176447	0.531341
	N270	N	0.081745	0.816086	0.461115
	N271	N	0.905407	0.814515	0.530703
	N272	N	0.172980	0.459436	0.907627
	N273	N	0.173648	0.530540	0.081655
	N274	N	0.813566	0.457723	0.081952
	N275	N	0.810839	0.530240	0.907542
	O276	O	0.588426	0.474270	0.455218
	H277	H	0.584581	0.479918	0.454634
	H278	H	0.595143	0.481797	0.449288
	O279	O	0.320271	0.609133	0.445562
	H280	H	0.315399	0.599499	0.435946
	H281	H	0.315849	0.592332	0.460709
	O282	O	0.452842	0.283520	0.463975
	H283	H	0.455525	0.284312	0.458027
	H284	H	0.456012	0.289924	0.452285
	O285	O	0.871984	0.860794	0.082145
	H286	H	0.874558	0.864082	0.076319
	H287	H	0.869658	0.856148	0.084307
	O288	O	0.600659	0.454760	0.709926
	H289	H	0.594524	0.460038	0.725971
	H290	H	0.579937	0.471894	0.701258
	O291	O	0.283230	0.466465	0.707158
	H292	H	0.281457	0.438536	0.709911
	H293	H	0.264046	0.441315	0.726191
	O294	O	1.010583	0.804135	1.155188
	H295	H	1.008388	0.791797	1.177650
	H296	H	1.009867	0.816181	1.155199
	O297	O	0.377916	0.294615	0.694925
	H298	H	0.379478	0.276676	0.708481
	H299	H	0.384538	0.285271	0.675215
	O300	O	0.449210	0.632192	0.622959
	H301	H	0.474352	0.610302	0.626226
	H302	H	0.453534	0.668588	0.650052
	O303	O	0.619367	0.311802	0.429889
	H304	H	0.599863	0.321956	0.449728
	H305	H	0.599931	0.304624	0.419125
	O306	O	-0.203976	0.011622	1.019708
	H307	H	-0.204827	0.015045	1.019579
	H308	H	-0.211624	0.029529	1.026181
	O309	O	0.989282	-0.132059	-0.008603
	H310	H	0.999859	-0.127491	-0.003980
	H311	H	0.980536	-0.139630	-0.007836
	O312	O	0.697539	0.701133	0.548212
	H313	H	0.716467	0.709557	0.528720
	H314	H	0.702558	0.688666	0.544556
	O315	O	0.497758	0.481196	0.302318
	H316	H	0.487882	0.500463	0.302799
	H317	H	0.480385	0.497981	0.311672
	O318	O	-0.055970	0.082665	-0.153732
	H319	H	-0.056808	0.086959	-0.159178
	H320	H	-0.051286	0.059812	-0.146719
	O321	O	0.577263	0.669422	0.632698
	H322	H	0.583637	0.680964	0.600937
	H323	H	0.585517	0.635759	0.637326
	O324	O	0.883981	0.184499	0.815618
	H325	H	0.895842	0.156220	0.808616
	H326	H	0.897868	0.183030	0.802891
	O327	O	0.713094	0.475784	0.286721
	H328	H	0.748360	0.469399	0.252060
	H329	H	0.691540	0.460034	0.298026
	O330	O	0.034645	0.872200	0.816844
	H331	H	0.036568	0.872822	0.817752
	H332	H	0.038794	0.872131	0.805328
	O333	O	-0.142209	0.811247	0.026160
	H334	H	-0.136849	0.796847	0.014355
	H335	H	-0.130344	0.802363	0.025694
	O336	O	1.127045	1.105329	0.181010
	H337	H	1.128783	1.108494	0.198999
	H338	H	1.137738	1.103358	0.172219
	O339	O	-0.091237	0.946157	1.050640
	H340	H	-0.087890	0.951622	1.043451
	H341	H	-0.087801	0.952031	1.057635
	O342	O	0.346041	0.693036	0.288818
	H343	H	0.372938	0.690457	0.300750
	H344	H	0.343258	0.682358	0.288032
	O345	O	-0.218751	0.203736	0.963959
	H346	H	-0.224249	0.216808	0.942505
	H347	H	-0.227360	0.213137	0.930134
	O348	O	0.657984	0.601339	0.537799
	H349	H	0.661985	0.591550	0.535088
	H350	H	0.656975	0.577644	0.528138
	O351	O	0.920373	1.055487	-0.016576
	H352	H	0.908089	1.050397	-0.023135
	H353	H	0.908266	1.064937	-0.020205
	O354	O	0.930728	1.083999	1.032335
	H355	H	0.914108	1.084726	1.030445
	H356	H	0.925972	1.057889	1.031013
	O357	O	0.180987	0.032579	-0.053904
	H358	H	0.179217	0.027891	-0.056514
	H359	H	0.182614	0.033487	-0.059011
	O360	O	0.448049	0.537015	0.701219
	H361	H	0.421302	0.540650	0.701125
	H362	H	0.437461	0.556703	0.699034
	O363	O	1.218107	-0.172814	0.219379
	H364	H	1.241779	-0.174867	0.227636
	H365	H	1.228876	-0.155847	0.221921
	O366	O	0.283278	0.285005	1.526425
	H367	H	0.305064	0.288909	1.516719
	H368	H	0.255553	0.254231	1.524654
	O369	O	0.995075	-0.124915	0.862442
	H370	H	0.982323	-0.120285	0.871397
	H371	H	0.993516	-0.121493	0.881960
	O372	O	0.548010	0.296761	0.657393
	H373	H	0.560603	0.291945	0.647889
	H374	H	0.551366	0.317329	0.654512
	O375	O	-0.045042	-0.046522	1.103048
	H376	H	-0.061226	-0.044116	1.114859
	H377	H	-0.056715	-0.054477	1.107859
	O378	O	0.498495	0.500398	0.352385
	H379	H	0.490413	0.497016	0.371178
	H380	H	0.501804	0.513705	0.357922
	O381	O	0.145105	1.133563	0.024071
	H382	H	0.152674	1.145192	0.034118
	H383	H	0.157401	1.143406	0.008801
	O384	O	0.357176	0.486880	0.297261
	H385	H	0.356192	0.484531	0.294178
	H386	H	0.350965	0.499707	0.299307
	O387	O	0.486784	0.644100	0.325594
	H388	H	0.504891	0.653383	0.325559
	H389	H	0.498198	0.650076	0.331690
	O390	O	0.972902	0.997364	0.195002
	H391	H	0.962288	0.996969	0.203889
	H392	H	0.985138	0.997817	0.193603
	O393	O	0.795685	0.063420	0.809598
	H394	H	0.796926	0.056143	0.803174
	H395	H	0.789930	0.053044	0.809292
	O396	O	0.665999	0.533118	0.668576
	H397	H	0.689659	0.526016	0.697768
	H398	H	0.641662	0.521086	0.683979
	O399	O	0.696613	0.293499	0.483140
	H400	H	0.716535	0.281519	0.478626
	H401	H	0.673042	0.301162	0.474745
	O402	O	1.175860	0.824018	-0.011947
	H403	H	1.188152	0.819457	-0.002179
	H404	H	1.170156	0.821799	-0.002146
	O405	O	0.510147	0.277431	0.284084
	H406	H	0.520021	0.252990	0.257023
	H407	H	0.497220	0.292385	0.281526
	O408	O	0.326778	0.367102	0.529996
	H409	H	0.343848	0.373783	0.514440
	H410	H	0.316147	0.369107	0.536658
	O411	O	0.866903	1.102003	0.970924
	H412	H	0.843782	1.111829	0.972420
	H413	H	0.868231	1.124737	0.985117
	O414	O	0.483111	0.514084	0.475184
	H415	H	0.473773	0.513991	0.488652
	H416	H	0.486855	0.538395	0.473107
	O417	O	0.050013	1.147904	1.059913
	H418	H	0.050885	1.156653	1.078563
	H419	H	0.031928	1.143149	1.065391
	O420	O	0.063081	0.940518	1.102827
	H421	H	0.068723	0.937666	1.095414
	H422	H	0.054273	0.947487	1.111122
	O423	O	0.151558	0.857135	-0.169254
	H424	H	0.154095	0.855574	-0.150722
	H425	H	0.136883	0.862223	-0.162393
	O426	O	0.571082	0.711025	0.444764
	H427	H	0.592466	0.718546	0.454381
	H428	H	0.561666	0.706742	0.468439
	O429	O	0.281910	0.489002	0.488792
	H430	H	0.292804	0.484121	0.499891
	H431	H	0.277066	0.481590	0.489482
	O432	O	0.665414	0.421878	0.606894
	H433	H	0.671831	0.424213	0.607041
	H434	H	0.658708	0.437733	0.630250
	O435	O	0.190044	0.194823	0.069946
	H436	H	0.192985	0.212766	0.068079
	H437	H	0.189408	0.176401	0.077711
	O438	O	0.139584	0.985228	0.823599
	H439	H	0.139366	0.964874	0.826534
	H440	H	0.141190	0.983556	0.827348
	O441	O	0.375534	0.697800	0.526732
	H442	H	0.375306	0.698613	0.543741
	H443	H	0.357525	0.706355	0.525685
