data_Molecule from HDF5

_cell_length_a		16.055280
_cell_length_b		16.170097
_cell_length_c		16.294003
_cell_angle_alpha	89.779197
_cell_angle_beta	90.301141
_cell_angle_gamma	88.704136
_symmetry_space_group_name_H-M	'P 1'
_symmetry_Int_Tables_number		1

loop_
	_symmetry_equiv_pos_as_xyz
	x,y,z

loop_
	_atom_site_label
	_atom_site_type_symbol
	_atom_site_fract_x
	_atom_site_fract_y
	_atom_site_fract_z
	H0	H	0.401261	0.843403	0.727464
	H1	H	0.595722	0.171330	0.726480
	H2	H	0.602429	0.842692	0.296305
	H3	H	0.392763	0.171318	0.294608
	H4	H	0.714515	0.406591	0.847608
	H5	H	0.707813	0.599234	0.175493
	H6	H	0.279027	0.610695	0.847570
	H7	H	0.289047	0.412240	0.176103
	H8	H	0.833170	0.725340	0.410890
	H9	H	0.165308	0.712169	0.608612
	H10	H	0.830220	0.297805	0.607734
	H11	H	0.162736	0.289012	0.414053
	H12	H	0.830786	0.410646	0.724207
	H13	H	0.162458	0.602423	0.727151
	H14	H	0.831838	0.610825	0.296189
	H15	H	0.163137	0.402565	0.298208
	H16	H	0.394003	0.726121	0.846972
	H17	H	0.595892	0.717847	0.174259
	H18	H	0.600241	0.289813	0.847553
	H19	H	0.402636	0.293495	0.174455
	H20	H	0.715090	0.841865	0.414801
	H21	H	0.705853	0.173111	0.606603
	H22	H	0.293739	0.840007	0.607222
	H23	H	0.279307	0.170504	0.412010
	H24	H	0.902281	0.342762	0.226613
	H25	H	0.095723	0.671095	0.228095
	H26	H	0.102393	0.341992	0.796494
	H27	H	0.891123	0.670556	0.793533
	H28	H	0.215018	0.904459	0.346827
	H29	H	0.208478	0.097801	0.675740
	H30	H	0.781145	0.108907	0.347225
	H31	H	0.788238	0.910994	0.674859
	H32	H	0.333779	0.226876	0.909245
	H33	H	0.665065	0.213359	0.108501
	H34	H	0.330942	0.798451	0.106444
	H35	H	0.663074	0.789452	0.912891
	H36	H	0.332520	0.910297	0.225105
	H37	H	0.663130	0.102933	0.225534
	H38	H	0.332613	0.111447	0.795417
	H39	H	0.663950	0.904277	0.797520
	H40	H	0.894489	0.224368	0.347591
	H41	H	0.096364	0.217979	0.674415
	H42	H	0.101511	0.787366	0.347900
	H43	H	0.904077	0.794833	0.675070
	H44	H	0.216563	0.342716	0.914328
	H45	H	0.206427	0.673808	0.108290
	H46	H	0.792059	0.340927	0.107717
	H47	H	0.780283	0.671256	0.912413
	H48	H	0.399838	0.124235	0.598049
	H49	H	0.595886	0.887389	0.612351
	H50	H	0.581832	0.127205	0.404987
	H51	H	0.410349	0.885917	0.407888
	H52	H	0.590029	0.399883	0.130418
	H53	H	0.592184	0.588915	0.894960
	H54	H	0.388248	0.594066	0.129696
	H55	H	0.411569	0.420597	0.896703
	H56	H	0.116621	0.599104	0.424661
	H57	H	0.874914	0.602042	0.613408
	H58	H	0.117979	0.416317	0.614433
	H59	H	0.880652	0.419671	0.421997
	H60	H	0.118340	0.399102	0.603101
	H61	H	0.876929	0.612883	0.596590
	H62	H	0.114152	0.587343	0.417712
	H63	H	0.877500	0.420659	0.410376
	H64	H	0.418275	0.595070	0.121904
	H65	H	0.578647	0.603022	0.894949
	H66	H	0.605035	0.408926	0.131560
	H67	H	0.408753	0.411849	0.892620
	H68	H	0.581538	0.121423	0.424361
	H69	H	0.587104	0.891270	0.602781
	H70	H	0.397173	0.128620	0.607304
	H71	H	0.417146	0.891870	0.419279
	H72	H	0.897834	0.626368	0.101475
	H73	H	0.092726	0.392471	0.099568
	H74	H	0.084182	0.626550	0.910382
	H75	H	0.905589	0.385037	0.908074
	H76	H	0.094495	0.914378	0.624999
	H77	H	0.086630	0.102459	0.392962
	H78	H	0.897018	0.102041	0.629610
	H79	H	0.916140	0.915103	0.396209
	H80	H	0.617249	0.099054	0.922095
	H81	H	0.380459	0.101428	0.098890
	H82	H	0.619276	0.906167	0.107847
	H83	H	0.376915	0.914048	0.913997
	H84	H	0.615473	0.909989	0.098603
	H85	H	0.378920	0.099474	0.105599
	H86	H	0.616841	0.091485	0.915706
	H87	H	0.380008	0.919516	0.922810
	H88	H	0.906080	0.097544	0.626172
	H89	H	0.093314	0.097124	0.392787
	H90	H	0.091424	0.902577	0.628153
	H91	H	0.903291	0.907523	0.390423
	H92	H	0.080414	0.622269	0.920718
	H93	H	0.101794	0.387019	0.107612
	H94	H	0.901341	0.627251	0.109097
	H95	H	0.915878	0.390650	0.918132
	H96	H	0.407239	0.124260	0.606013
	H97	H	0.599528	0.888505	0.600336
	H98	H	0.599038	0.128521	0.416209
	H99	H	0.402596	0.886803	0.420306
	H100	H	0.591069	0.416226	0.125654
	H101	H	0.596683	0.606075	0.888580
	H102	H	0.403337	0.620910	0.132385
	H103	H	0.401547	0.419773	0.893557
	H104	H	0.120622	0.597969	0.410619
	H105	H	0.883255	0.593347	0.596769
	H106	H	0.111590	0.416443	0.595262
	H107	H	0.875282	0.410866	0.416314
	H108	H	0.906048	0.623697	0.102719
	H109	H	0.090604	0.388737	0.110738
	H110	H	0.090374	0.625283	0.919820
	H111	H	0.901819	0.387959	0.922123
	H112	H	0.103262	0.906305	0.631365
	H113	H	0.085454	0.094344	0.395545
	H114	H	0.905611	0.107123	0.629702
	H115	H	0.901380	0.922781	0.393217
	H116	H	0.620379	0.100285	0.912527
	H117	H	0.377347	0.105649	0.102111
	H118	H	0.615690	0.916112	0.106826
	H119	H	0.379901	0.923163	0.912780
	C120	C	0.376874	0.015859	0.632150
	C121	C	0.620341	0.998182	0.633048
	C122	C	0.619758	0.016468	0.387825
	C123	C	0.376960	0.997364	0.387517
	C124	C	0.623629	0.381164	0.020572
	C125	C	0.617816	0.626458	1.001621
	C126	C	0.373545	0.632240	0.019624
	C127	C	0.378855	0.388165	1.002557
	C128	C	0.007398	0.627779	0.389010
	C129	C	0.988716	0.627767	0.631617
	C130	C	0.005788	0.384840	0.631993
	C131	C	0.987815	0.385164	0.388864
	C132	C	0.876685	0.516093	0.132426
	C133	C	0.120222	0.498733	0.133618
	C134	C	0.118317	0.516026	0.888759
	C135	C	0.875772	0.497219	0.888070
	C136	C	0.124107	0.880011	0.519752
	C137	C	0.117692	0.125398	0.502215
	C138	C	0.873724	0.131174	0.519808
	C139	C	0.879115	0.886704	0.501804
	C140	C	0.508007	0.128816	0.887992
	C141	C	0.488885	0.127813	0.131340
	C142	C	0.506807	0.884801	0.132011
	C143	C	0.488634	0.886956	0.888955
	C144	C	0.381282	0.892075	0.688438
	C145	C	0.615804	0.122318	0.688044
	C146	C	0.621267	0.892056	0.333965
	C147	C	0.374475	0.121850	0.332658
	C148	C	0.677473	0.385164	0.896598
	C149	C	0.671414	0.621105	0.125972
	C150	C	0.316943	0.630830	0.896363
	C151	C	0.325263	0.391061	0.126523
	C152	C	0.882655	0.686291	0.390769
	C153	C	0.114743	0.677562	0.629376
	C154	C	0.880197	0.333507	0.628557
	C155	C	0.112950	0.327087	0.392778
	C156	C	0.880297	0.390215	0.686078
	C157	C	0.113126	0.623074	0.688809
	C158	C	0.881874	0.629255	0.334047
	C159	C	0.113251	0.383659	0.335224
	C160	C	0.374537	0.687859	0.896119
	C161	C	0.615712	0.680299	0.125198
	C162	C	0.620614	0.327319	0.896654
	C163	C	0.381962	0.331881	0.125768
	C164	C	0.677140	0.891622	0.393078
	C165	C	0.670300	0.123461	0.628044
	C166	C	0.327691	0.890357	0.628529
	C167	C	0.318272	0.121422	0.391159
	C168	C	0.881785	0.391812	0.188077
	C169	C	0.115855	0.622476	0.189154
	C170	C	0.120770	0.391513	0.834159
	C171	C	0.873180	0.621060	0.832087
	C172	C	0.178313	0.883276	0.396118
	C173	C	0.171884	0.120099	0.626300
	C174	C	0.818500	0.128914	0.396324
	C175	C	0.825442	0.889977	0.625575
	C176	C	0.383184	0.187646	0.889780
	C177	C	0.614942	0.177785	0.128601
	C178	C	0.380921	0.834071	0.127920
	C179	C	0.613681	0.828520	0.892268
	C180	C	0.381943	0.889595	0.186909
	C181	C	0.613780	0.123304	0.187223
	C182	C	0.382636	0.130446	0.832893
	C183	C	0.614014	0.885485	0.834951
	C184	C	0.874781	0.186609	0.396534
	C185	C	0.116121	0.180065	0.625472
	C186	C	0.121966	0.825044	0.396660
	C187	C	0.882933	0.831821	0.625573
	C188	C	0.177938	0.391905	0.892673
	C189	C	0.171031	0.623736	0.129710
	C190	C	0.827160	0.390622	0.128703
	C191	C	0.817854	0.621548	0.891124
	C192	C	0.395628	0.103246	0.610211
	C193	C	0.600348	0.911485	0.611682
	C194	C	0.594875	0.103374	0.408858
	C195	C	0.402537	0.910700	0.409226
	C196	C	0.601979	0.402243	0.106660
	C197	C	0.595678	0.605402	0.915165
	C198	C	0.396477	0.610069	0.105756
	C199	C	0.400867	0.410682	0.916435
	C200	C	0.094626	0.602228	0.411111
	C201	C	0.900901	0.608474	0.608865
	C202	C	0.093411	0.404633	0.610694
	C203	C	0.900347	0.409895	0.410001
	C204	C	0.895826	0.603111	0.110898
	C205	C	0.100931	0.411858	0.112151
	C206	C	0.092649	0.602270	0.910512
	C207	C	0.900353	0.410349	0.909911
	C208	C	0.102706	0.901317	0.605698
	C209	C	0.094997	0.104277	0.415939
	C210	C	0.896190	0.108935	0.606232
	C211	C	0.900616	0.908567	0.415571
	C212	C	0.595417	0.104328	0.910221
	C213	C	0.401348	0.107914	0.108809
	C214	C	0.594129	0.904816	0.110656
	C215	C	0.401380	0.911604	0.910255
	Zn216	Zn	0.497845	0.007556	0.760537
	Zn217	Zn	0.498657	0.007257	0.259317
	Zn218	Zn	0.748711	0.505840	0.010720
	Zn219	Zn	0.247541	0.508969	0.011092
	Zn220	Zn	-0.000154	0.754614	0.510242
	Zn221	Zn	-0.003858	0.257469	0.510587
	Zn222	Zn	-0.003213	0.506044	0.759467
	Zn223	Zn	-0.002206	0.507150	0.261536
	Zn224	Zn	0.497334	0.757922	0.009877
	Zn225	Zn	0.499686	0.255475	0.010770
	Zn226	Zn	0.747745	0.008178	0.510689
	Zn227	Zn	0.249621	0.004167	0.510788
	N228	N	0.410916	0.971358	0.690881
	N229	N	0.585251	0.043559	0.691004
	N230	N	0.586272	0.970608	0.330968
	N231	N	0.410452	0.043623	0.330245
	N232	N	0.679582	0.417944	0.974527
	N233	N	0.672776	0.588487	0.048040
	N234	N	0.316121	0.597049	0.974084
	N235	N	0.323294	0.425429	0.048911
	N236	N	0.961659	0.685316	0.424134
	N237	N	0.036242	0.680759	0.594691
	N238	N	0.959101	0.330111	0.595487
	N239	N	0.034087	0.328071	0.425623
	N240	N	0.959467	0.421300	0.688271
	N241	N	0.033683	0.592968	0.690099
	N242	N	0.960603	0.593486	0.332738
	N243	N	0.034266	0.418919	0.332544
	N244	N	0.408984	0.688986	0.973769
	N245	N	0.583000	0.683667	0.046901
	N246	N	0.587844	0.324554	0.974504
	N247	N	0.414670	0.330072	0.047738
	N248	N	0.676095	0.970059	0.425946
	N249	N	0.673280	0.045408	0.594328
	N250	N	0.324834	0.968375	0.594111
	N251	N	0.319610	0.042978	0.424595
	N252	N	0.911716	0.470876	0.190466
	N253	N	0.085232	0.543725	0.191982
	N254	N	0.084720	0.469635	0.831434
	N255	N	0.908628	0.542761	0.830072
	N256	N	0.180065	0.916567	0.473611
	N257	N	0.173135	0.086914	0.548522
	N258	N	0.817565	0.095100	0.474053
	N259	N	0.822892	0.923406	0.547621
	N260	N	0.462121	0.186904	0.923356
	N261	N	0.536307	0.180771	0.094281
	N262	N	0.459486	0.830828	0.094623
	N263	N	0.534768	0.829197	0.925117
	N264	N	0.461260	0.920493	0.189628
	N265	N	0.534445	0.092875	0.188776
	N266	N	0.461236	0.094514	0.831834
	N267	N	0.535309	0.921248	0.833005
	N268	N	0.908642	0.187961	0.474273
	N269	N	0.082988	0.183457	0.547245
	N270	N	0.088929	0.822763	0.474394
	N271	N	0.915925	0.829898	0.547713
	N272	N	0.176486	0.470217	0.925953
	N273	N	0.173732	0.545922	0.095759
	N274	N	0.823666	0.468751	0.094668
	N275	N	0.819410	0.543576	0.925444
	O276	O	0.022038	0.056945	-0.037728
	H277	H	0.016860	0.072519	-0.047879
	H278	H	0.022201	0.055094	-0.039952
	O279	O	0.460428	0.453912	0.558321
	H280	H	0.457344	0.448201	0.566256
	H281	H	0.461034	0.463615	0.559204
	O282	O	0.455797	0.603126	0.549571
	H283	H	0.454322	0.598529	0.566464
	H284	H	0.464962	0.602408	0.553423
	O285	O	1.022211	-0.040072	0.993056
	H286	H	1.027334	-0.042475	0.996357
	H287	H	1.028730	-0.042498	0.990116
	O288	O	0.981535	-0.112755	-0.019136
	H289	H	0.996439	-0.120992	-0.021495
	H290	H	0.979607	-0.116670	-0.016426
	O291	O	0.531677	0.534403	0.512351
	H292	H	0.528841	0.534853	0.511945
	H293	H	0.521751	0.536427	0.502836
	O294	O	1.034672	-0.065870	0.969928
	H295	H	1.029975	-0.067007	0.971405
	H296	H	1.038590	-0.070016	0.963372
	O297	O	-0.003033	0.069367	-0.009086
	H298	H	0.001326	0.065223	-0.001290
	H299	H	-0.007346	0.059985	-0.013022
	O300	O	0.516599	0.464270	0.551922
	H301	H	0.513851	0.447380	0.562961
	H302	H	0.498056	0.466794	0.551011
	O303	O	0.478624	0.537996	0.514105
	H304	H	0.473605	0.526815	0.506179
	H305	H	0.482996	0.533482	0.517191
	O306	O	0.935771	-0.055759	-0.038078
	H307	H	0.936916	-0.064690	-0.026649
	H308	H	0.926270	-0.058202	-0.037900
	O309	O	0.015769	0.042389	0.986467
	H310	H	0.014220	0.041258	0.993468
	H311	H	0.004472	0.047311	0.981153
	O312	O	1.474623	0.530087	0.544775
	H313	H	1.481636	0.534122	0.541737
	H314	H	1.473898	0.518582	0.538452
	O315	O	1.020528	0.002488	-0.013024
	H316	H	1.025019	0.000695	-0.016148
	H317	H	1.017074	-0.000746	-0.007285
	O318	O	0.464613	0.483743	0.429216
	H319	H	0.472815	0.497588	0.430913
	H320	H	0.467716	0.485072	0.421058
	O321	O	-0.049461	0.986934	1.089349
	H322	H	-0.050477	0.990062	1.091095
	H323	H	-0.056704	0.994390	1.092443
	O324	O	1.008352	1.001853	0.071362
	H325	H	0.997836	1.007275	0.069416
	H326	H	1.007619	1.000762	0.080266
	O327	O	0.433401	0.435055	0.524520
	H328	H	0.432175	0.435549	0.527237
	H329	H	0.439883	0.431415	0.523675
	O330	O	0.992537	1.084425	0.007874
	H331	H	0.987510	1.093493	0.006911
	H332	H	0.995703	1.089660	0.004216
	O333	O	0.422874	0.592350	0.451047
	H334	H	0.435288	0.604667	0.458163
	H335	H	0.419670	0.593355	0.440586
	O336	O	0.527676	0.510252	0.473758
	H337	H	0.511247	0.504596	0.473398
	H338	H	0.543581	0.520977	0.472662
	O339	O	0.556548	0.489827	-0.413310
	H340	H	0.546918	0.492873	-0.412393
	H341	H	0.559736	0.494916	-0.399387
	O342	O	0.399208	0.574570	0.461709
	H343	H	0.408775	0.569340	0.446861
	H344	H	0.391614	0.573227	0.454330
	O345	O	0.481142	0.510411	0.627204
	H346	H	0.480191	0.511993	0.623477
	H347	H	0.469073	0.515822	0.626771
	O348	O	-0.024976	0.034655	0.028617
	H349	H	-0.011692	0.033113	0.024619
	H350	H	-0.027357	0.037856	0.013157
	O351	O	-0.032898	1.055873	1.027396
	H352	H	-0.041953	1.060868	1.025372
	H353	H	-0.033108	1.049759	1.020259
	O354	O	0.492985	0.565594	0.496602
	H355	H	0.487021	0.564290	0.493407
	H356	H	0.488155	0.575086	0.486384
	O357	O	0.022872	0.958051	1.015838
	H358	H	0.019363	0.960257	1.026630
	H359	H	0.031500	0.963140	1.005123
