data_Molecule from HDF5

_cell_length_a		16.091363
_cell_length_b		16.183000
_cell_length_c		16.352223
_cell_angle_alpha	90.438698
_cell_angle_beta	89.299093
_cell_angle_gamma	89.268699
_symmetry_space_group_name_H-M	'P 1'
_symmetry_Int_Tables_number		1

loop_
	_symmetry_equiv_pos_as_xyz
	x,y,z

loop_
	_atom_site_label
	_atom_site_type_symbol
	_atom_site_fract_x
	_atom_site_fract_y
	_atom_site_fract_z
	H0	H	0.395674	0.841206	0.721123
	H1	H	0.596208	0.166935	0.717206
	H2	H	0.605453	0.841215	0.277887
	H3	H	0.394854	0.168352	0.290166
	H4	H	0.712515	0.400880	0.838045
	H5	H	0.705526	0.603218	0.163388
	H6	H	0.278857	0.604859	0.836612
	H7	H	0.276083	0.407868	0.162938
	H8	H	0.833503	0.719047	0.400178
	H9	H	0.161665	0.708650	0.597466
	H10	H	0.831153	0.289183	0.597218
	H11	H	0.162212	0.283944	0.397385
	H12	H	0.831650	0.399258	0.716391
	H13	H	0.158343	0.600919	0.715784
	H14	H	0.829184	0.600013	0.290223
	H15	H	0.157423	0.392606	0.276838
	H16	H	0.391727	0.723254	0.839020
	H17	H	0.591520	0.718628	0.162443
	H18	H	0.598085	0.285553	0.838560
	H19	H	0.392364	0.290111	0.162881
	H20	H	0.711624	0.836422	0.402421
	H21	H	0.708745	0.167059	0.598384
	H22	H	0.285280	0.836611	0.601706
	H23	H	0.279867	0.165814	0.407564
	H24	H	0.890502	0.336655	0.215794
	H25	H	0.091660	0.662817	0.218773
	H26	H	0.099422	0.338007	0.781619
	H27	H	0.889334	0.664206	0.781626
	H28	H	0.220036	0.896390	0.339204
	H29	H	0.204201	0.096888	0.664774
	H30	H	0.783541	0.098729	0.336890
	H31	H	0.780679	0.902013	0.663473
	H32	H	0.331518	0.219030	0.904688
	H33	H	0.661370	0.216383	0.096254
	H34	H	0.330253	0.794386	0.104084
	H35	H	0.659628	0.785156	0.899616
	H36	H	0.333195	0.907579	0.220268
	H37	H	0.661298	0.106315	0.215405
	H38	H	0.331685	0.107889	0.788762
	H39	H	0.660568	0.899921	0.784247
	H40	H	0.899002	0.214603	0.336446
	H41	H	0.097072	0.218127	0.660681
	H42	H	0.102718	0.780318	0.338141
	H43	H	0.898102	0.786192	0.663197
	H44	H	0.214224	0.339987	0.896962
	H45	H	0.200570	0.668059	0.098279
	H46	H	0.780478	0.336667	0.095536
	H47	H	0.779715	0.668205	0.905671
	H48	H	0.401023	0.119002	0.593392
	H49	H	0.593237	0.883998	0.594680
	H50	H	0.589578	0.123929	0.395828
	H51	H	0.416814	0.888461	0.411102
	H52	H	0.582761	0.403190	0.118241
	H53	H	0.586009	0.590132	0.885443
	H54	H	0.409373	0.599973	0.112938
	H55	H	0.395862	0.420351	0.885069
	H56	H	0.116918	0.593161	0.400012
	H57	H	0.877331	0.592766	0.593059
	H58	H	0.113322	0.414824	0.593203
	H59	H	0.880060	0.410180	0.413080
	H60	H	0.118317	0.400371	0.594043
	H61	H	0.877653	0.593096	0.591022
	H62	H	0.110959	0.587504	0.414606
	H63	H	0.876628	0.410738	0.401794
	H64	H	0.390471	0.609829	0.120607
	H65	H	0.583613	0.597149	0.884469
	H66	H	0.593403	0.411750	0.119050
	H67	H	0.416563	0.414779	0.888761
	H68	H	0.579971	0.115969	0.413206
	H69	H	0.584135	0.885181	0.597498
	H70	H	0.397532	0.121926	0.596950
	H71	H	0.406884	0.886138	0.411044
	H72	H	0.893754	0.617447	0.085381
	H73	H	0.080414	0.385705	0.088472
	H74	H	0.078540	0.617105	0.907550
	H75	H	0.914480	0.386901	0.900264
	H76	H	0.090880	0.899856	0.618546
	H77	H	0.096040	0.088990	0.383392
	H78	H	0.901375	0.088107	0.614301
	H79	H	0.909085	0.912042	0.387211
	H80	H	0.615577	0.096620	0.906637
	H81	H	0.379016	0.097448	0.094188
	H82	H	0.613927	0.909924	0.086980
	H83	H	0.378100	0.912246	0.912893
	H84	H	0.613046	0.913177	0.090089
	H85	H	0.378756	0.095296	0.099886
	H86	H	0.614255	0.092367	0.909215
	H87	H	0.379834	0.918340	0.912708
	H88	H	0.909286	0.098562	0.615136
	H89	H	0.088376	0.086688	0.385484
	H90	H	0.092955	0.906521	0.617213
	H91	H	0.910502	0.904822	0.385257
	H92	H	0.088623	0.620573	0.907877
	H93	H	0.086479	0.385393	0.082794
	H94	H	0.891449	0.622932	0.106509
	H95	H	0.903397	0.388030	0.917124
	H96	H	0.402732	0.119932	0.599062
	H97	H	0.587332	0.887170	0.588042
	H98	H	0.600504	0.121823	0.414005
	H99	H	0.412793	0.884521	0.403065
	H100	H	0.582008	0.415568	0.114229
	H101	H	0.591445	0.595421	0.882890
	H102	H	0.390454	0.588534	0.115488
	H103	H	0.403059	0.399749	0.880317
	H104	H	0.111711	0.577075	0.401254
	H105	H	0.878151	0.591621	0.591219
	H106	H	0.111674	0.405676	0.581616
	H107	H	0.875758	0.399782	0.407414
	H108	H	0.911367	0.615965	0.099109
	H109	H	0.087909	0.382777	0.090874
	H110	H	0.082710	0.621447	0.898965
	H111	H	0.895440	0.380586	0.900166
	H112	H	0.086920	0.903901	0.615837
	H113	H	0.089304	0.093563	0.382673
	H114	H	0.897253	0.099562	0.618676
	H115	H	0.904156	0.907084	0.382858
	H116	H	0.614717	0.092172	0.904229
	H117	H	0.377296	0.100131	0.098952
	H118	H	0.615074	0.909230	0.091605
	H119	H	0.377336	0.915763	0.907732
	C120	C	0.373380	0.011698	0.625103
	C121	C	0.616944	0.994168	0.622106
	C122	C	0.620218	0.011567	0.377657
	C123	C	0.379141	0.994597	0.381406
	C124	C	0.617201	0.380300	0.009510
	C125	C	0.614676	0.623955	0.991837
	C126	C	0.368789	0.628636	0.008773
	C127	C	0.373638	0.383047	0.991972
	C128	C	0.004612	0.618575	0.378335
	C129	C	0.986591	0.620360	0.620245
	C130	C	0.005145	0.379008	0.619358
	C131	C	0.986267	0.376114	0.376302
	C132	C	0.870381	0.509730	0.123598
	C133	C	0.112591	0.492965	0.118659
	C134	C	0.115951	0.511373	0.875492
	C135	C	0.872966	0.493377	0.877790
	C136	C	0.121782	0.874595	0.509592
	C137	C	0.118131	0.120197	0.491289
	C138	C	0.874795	0.123349	0.508218
	C139	C	0.876907	0.878647	0.492296
	C140	C	0.505614	0.124584	0.879951
	C141	C	0.487426	0.126338	0.123535
	C142	C	0.505100	0.883540	0.121504
	C143	C	0.486822	0.882799	0.879960
	C144	C	0.375857	0.889115	0.681998
	C145	C	0.615648	0.117676	0.678488
	C146	C	0.622212	0.889214	0.318834
	C147	C	0.376624	0.118591	0.327663
	C148	C	0.674317	0.381252	0.886940
	C149	C	0.668379	0.622878	0.114541
	C150	C	0.315416	0.625772	0.886050
	C151	C	0.315092	0.386482	0.114234
	C152	C	0.881584	0.678814	0.380791
	C153	C	0.111402	0.673107	0.617672
	C154	C	0.880770	0.325397	0.617729
	C155	C	0.111561	0.320411	0.376768
	C156	C	0.880999	0.380308	0.677043
	C157	C	0.109654	0.619465	0.677018
	C158	C	0.879525	0.619674	0.325964
	C159	C	0.109193	0.374260	0.316575
	C160	C	0.371842	0.684636	0.887167
	C161	C	0.611560	0.680431	0.114129
	C162	C	0.617575	0.323666	0.887180
	C163	C	0.373070	0.327809	0.114200
	C164	C	0.675699	0.886833	0.380235
	C165	C	0.671607	0.117901	0.619147
	C166	C	0.320628	0.887200	0.622711
	C167	C	0.319151	0.117104	0.385903
	C168	C	0.871499	0.385992	0.177843
	C169	C	0.110651	0.614960	0.178314
	C170	C	0.117977	0.387624	0.819625
	C171	C	0.871829	0.616171	0.821519
	C172	C	0.180729	0.876433	0.387554
	C173	C	0.168982	0.117697	0.615075
	C174	C	0.820880	0.119167	0.385551
	C175	C	0.819687	0.881550	0.614867
	C176	C	0.381002	0.181548	0.883739
	C177	C	0.612084	0.179812	0.118197
	C178	C	0.380371	0.830851	0.122660
	C179	C	0.610500	0.823843	0.879966
	C180	C	0.381996	0.886805	0.180999
	C181	C	0.612003	0.125040	0.177172
	C182	C	0.381105	0.125832	0.826174
	C183	C	0.610954	0.881276	0.822572
	C184	C	0.878306	0.177240	0.385532
	C185	C	0.115514	0.178021	0.613069
	C186	C	0.122240	0.818685	0.386916
	C187	C	0.877829	0.823690	0.614565
	C188	C	0.175220	0.388563	0.877166
	C189	C	0.164937	0.617733	0.118291
	C190	C	0.816673	0.385805	0.117966
	C191	C	0.817286	0.618152	0.883320
	C192	C	0.394164	0.097871	0.602991
	C193	C	0.594746	0.907916	0.599794
	C194	C	0.596853	0.098162	0.400857
	C195	C	0.404719	0.908711	0.402362
	C196	C	0.593053	0.403425	0.094979
	C197	C	0.593171	0.600964	0.906384
	C198	C	0.390386	0.606125	0.094170
	C199	C	0.398180	0.404990	0.906857
	C200	C	0.090837	0.593226	0.399192
	C201	C	0.900073	0.598801	0.598336
	C202	C	0.091855	0.400722	0.596466
	C203	C	0.899827	0.399993	0.400579
	C204	C	0.892304	0.596243	0.103231
	C205	C	0.091209	0.406948	0.094398
	C206	C	0.090615	0.597497	0.898217
	C207	C	0.897209	0.407363	0.899571
	C208	C	0.097319	0.896812	0.595009
	C209	C	0.097366	0.096600	0.405810
	C210	C	0.896310	0.101646	0.593751
	C211	C	0.900893	0.901294	0.407230
	C212	C	0.592248	0.100728	0.900491
	C213	C	0.400882	0.104342	0.103644
	C214	C	0.591700	0.904586	0.096688
	C215	C	0.400746	0.908003	0.903981
	Zn216	Zn	0.495637	0.004446	0.752051
	Zn217	Zn	0.498314	0.004818	0.249982
	Zn218	Zn	0.743933	0.502527	0.000837
	Zn219	Zn	0.242219	0.504603	-0.001029
	Zn220	Zn	-0.002357	0.746908	0.499940
	Zn221	Zn	-0.002278	0.250338	0.498874
	Zn222	Zn	-0.005462	0.500542	0.747817
	Zn223	Zn	-0.006898	0.498506	0.249833
	Zn224	Zn	0.494115	0.754320	0.000869
	Zn225	Zn	0.496274	0.252367	0.001186
	Zn226	Zn	0.746093	0.001239	0.500678
	Zn227	Zn	0.247581	-0.000067	0.502008
	N228	N	0.407768	0.967584	0.683950
	N229	N	0.582394	0.039742	0.680412
	N230	N	0.588704	0.968029	0.316957
	N231	N	0.413244	0.041364	0.324744
	N232	N	0.674040	0.415658	0.964028
	N233	N	0.670475	0.588262	0.037616
	N234	N	0.313364	0.591753	0.962860
	N235	N	0.315386	0.420003	0.037251
	N236	N	0.960365	0.678176	0.412855
	N237	N	0.033843	0.674017	0.583054
	N238	N	0.958893	0.324454	0.582634
	N239	N	0.034018	0.321285	0.413137
	N240	N	0.959502	0.412897	0.678284
	N241	N	0.031149	0.587135	0.678593
	N242	N	0.956969	0.582919	0.324288
	N243	N	0.030307	0.408052	0.316131
	N244	N	0.404141	0.686767	0.964616
	N245	N	0.578739	0.681107	0.036774
	N246	N	0.582747	0.322957	0.964375
	N247	N	0.408725	0.325429	0.037190
	N248	N	0.674472	0.963996	0.416137
	N249	N	0.672689	0.039915	0.584758
	N250	N	0.318982	0.964302	0.588001
	N251	N	0.320400	0.038990	0.418493
	N252	N	0.904161	0.464113	0.181523
	N253	N	0.078975	0.536337	0.178952
	N254	N	0.081804	0.465060	0.818554
	N255	N	0.905523	0.537592	0.818129
	N256	N	0.180520	0.910354	0.464808
	N257	N	0.170644	0.082150	0.538459
	N258	N	0.818482	0.086360	0.462964
	N259	N	0.818791	0.915101	0.537874
	N260	N	0.459339	0.181153	0.916468
	N261	N	0.533798	0.180852	0.085487
	N262	N	0.457945	0.828799	0.086094
	N263	N	0.532319	0.824659	0.914905
	N264	N	0.460644	0.919033	0.180246
	N265	N	0.533470	0.092847	0.181021
	N266	N	0.459497	0.090994	0.823672
	N267	N	0.533087	0.917262	0.822462
	N268	N	0.910815	0.179977	0.462857
	N269	N	0.084575	0.179925	0.534982
	N270	N	0.086474	0.817359	0.463750
	N271	N	0.912865	0.821972	0.537365
	N272	N	0.174194	0.466603	0.911144
	N273	N	0.166216	0.540828	0.081781
	N274	N	0.815771	0.463737	0.085146
	N275	N	0.817830	0.540714	0.917582
	O276	O	1.040949	0.124952	0.992281
	H277	H	1.036295	0.125795	1.002768
	H278	H	1.042549	0.130434	0.996006
	O279	O	0.394469	0.480707	0.413207
	H280	H	0.394294	0.474733	0.405549
	H281	H	0.401498	0.479150	0.402363
	O282	O	0.660021	0.438249	0.352214
	H283	H	0.650845	0.423217	0.360744
	H284	H	0.673407	0.428791	0.343375
	O285	O	0.357271	0.667531	0.383883
	H286	H	0.355831	0.679567	0.385654
	H287	H	0.366148	0.652422	0.357178
	O288	O	0.464518	0.516944	0.458784
	H289	H	0.467525	0.517229	0.462229
	H290	H	0.462085	0.515246	0.448040
	O291	O	-0.042253	0.019939	1.000027
	H292	H	-0.032517	0.026690	1.007765
	H293	H	-0.039138	0.037440	0.995450
	O294	O	1.093166	0.947025	-0.123139
	H295	H	1.105595	0.936675	-0.122782
	H296	H	1.087054	0.959883	-0.115046
	O297	O	0.988535	1.039316	0.027503
	H298	H	0.985642	1.041717	0.032891
	H299	H	0.984559	1.041294	0.029100
	O300	O	0.547697	0.661353	0.617388
	H301	H	0.556758	0.655448	0.613045
	H302	H	0.539822	0.661365	0.635712
	O303	O	0.416163	0.442488	0.546427
	H304	H	0.404800	0.454359	0.540573
	H305	H	0.418907	0.440423	0.551282
	O306	O	0.597150	0.461580	0.609730
	H307	H	0.598347	0.454513	0.617246
	H308	H	0.608001	0.467755	0.599298
	O309	O	0.522616	0.498639	0.437287
	H310	H	0.538666	0.492188	0.443375
	H311	H	0.524200	0.496481	0.426668
	O312	O	1.082633	0.958545	1.114949
	H313	H	1.079023	0.958412	1.115649
	H314	H	1.081629	0.967723	1.120378
	O315	O	0.944250	1.012934	-0.108159
	H316	H	0.942554	1.010505	-0.116205
	H317	H	0.942385	1.023459	-0.106450
	O318	O	0.317126	0.389092	0.571220
	H319	H	0.308238	0.393018	0.579319
	H320	H	0.320906	0.387484	0.563095
	O321	O	0.486011	0.557355	0.586067
	H322	H	0.477408	0.556120	0.584729
	H323	H	0.476119	0.567522	0.587642
	O324	O	-0.054372	0.986831	1.043097
	H325	H	-0.062688	0.996990	1.033255
	H326	H	-0.072067	0.986677	1.039788
	O327	O	-0.008135	1.117607	1.012062
	H328	H	-0.004915	1.116800	1.021325
	H329	H	-0.003713	1.120999	1.010267
	O330	O	-0.006172	-0.055864	-0.108870
	H331	H	-0.001804	-0.061661	-0.113985
	H332	H	0.007915	-0.052412	-0.108714
	O333	O	0.467543	0.476441	0.472839
	H334	H	0.476753	0.482284	0.463481
	H335	H	0.471618	0.468883	0.485741
	O336	O	-0.011494	-0.061495	0.056807
	H337	H	-0.006631	-0.064116	0.053432
	H338	H	-0.019559	-0.061548	0.060229
	O339	O	0.150865	-0.146331	-0.095991
	H340	H	0.162420	-0.163943	-0.097570
	H341	H	0.155723	-0.151181	-0.104251
	O342	O	0.502817	0.545176	0.530169
	H343	H	0.505870	0.548326	0.539907
	H344	H	0.484458	0.554075	0.532015
	O345	O	-0.143785	1.096636	0.948641
	H346	H	-0.149869	1.085520	0.950642
	H347	H	-0.144953	1.100989	0.942696
	O348	O	0.541068	0.481233	0.544994
	H349	H	0.549925	0.486279	0.549063
	H350	H	0.528146	0.475024	0.554585
	O351	O	0.596911	0.340360	0.399109
	H352	H	0.591348	0.349666	0.406804
	H353	H	0.594361	0.332548	0.412836
	O354	O	-0.079041	0.964648	0.056752
	H355	H	-0.071046	0.963703	0.058657
	H356	H	-0.075510	0.961332	0.054769
	O357	O	0.430542	0.486070	0.519743
	H358	H	0.429585	0.496147	0.517043
	H359	H	0.434347	0.498163	0.525087
	O360	O	1.118028	0.131012	1.017037
	H361	H	1.120174	0.127722	1.021628
	H362	H	1.115741	0.133568	1.018986
	O363	O	0.523580	0.408878	0.582812
	H364	H	0.534465	0.390273	0.595416
	H365	H	0.508251	0.402892	0.572047
	O366	O	0.348479	0.617862	0.422997
	H367	H	0.339231	0.617256	0.418664
	H368	H	0.370016	0.624359	0.405227
	O369	O	1.120214	0.105260	0.058665
	H370	H	1.117419	0.114106	0.064466
	H371	H	1.120193	0.103003	0.065067
	O372	O	0.621416	0.579237	0.534708
	H373	H	0.619504	0.599318	0.539800
	H374	H	0.627468	0.571992	0.551012
	O375	O	0.918923	-0.115253	1.115724
	H376	H	0.913965	-0.115503	1.099357
	H377	H	0.911838	-0.120263	1.131640
	O378	O	0.005706	0.953102	-0.053503
	H379	H	0.013320	0.943735	-0.050826
	H380	H	0.006823	0.940146	-0.050896
	O381	O	0.482768	0.505714	0.568964
	H382	H	0.481027	0.491513	0.569680
	H383	H	0.482591	0.508994	0.562061
	O384	O	0.978434	0.988505	-0.111573
	H385	H	0.977206	0.986760	-0.120772
	H386	H	0.987689	0.998380	-0.108167
	O387	O	1.014595	-0.043853	1.034894
	H388	H	1.021624	-0.057682	1.026049
	H389	H	1.001193	-0.050449	1.040653
	O390	O	0.908025	1.035832	0.077148
	H391	H	0.896065	1.033598	0.071510
	H392	H	0.907628	1.042611	0.071293
	O393	O	0.528166	0.506427	0.495384
	H394	H	0.527965	0.506014	0.488220
	H395	H	0.518643	0.505247	0.506185
