data_Molecule from HDF5

_cell_length_a		16.432333
_cell_length_b		16.410164
_cell_length_c		16.420523
_cell_angle_alpha	90.077182
_cell_angle_beta	89.881421
_cell_angle_gamma	90.093968
_symmetry_space_group_name_H-M	'P 1'
_symmetry_Int_Tables_number		1

loop_
	_symmetry_equiv_pos_as_xyz
	x,y,z

loop_
	_atom_site_label
	_atom_site_type_symbol
	_atom_site_fract_x
	_atom_site_fract_y
	_atom_site_fract_z
	H0	H	0.397872	0.847385	0.721683
	H1	H	0.616327	0.160901	0.726230
	H2	H	0.613539	0.848407	0.274923
	H3	H	0.395383	0.163200	0.274499
	H4	H	0.731016	0.394116	0.844550
	H5	H	0.730935	0.617377	0.155139
	H6	H	0.280125	0.615458	0.842891
	H7	H	0.278222	0.398275	0.156183
	H8	H	0.848858	0.733131	0.389411
	H9	H	0.160881	0.733483	0.608967
	H10	H	0.847340	0.284499	0.604871
	H11	H	0.162660	0.283610	0.390324
	H12	H	0.847811	0.399231	0.721785
	H13	H	0.160886	0.616941	0.723915
	H14	H	0.847510	0.614523	0.276333
	H15	H	0.161310	0.398567	0.273865
	H16	H	0.395161	0.730901	0.842592
	H17	H	0.614579	0.732727	0.155227
	H18	H	0.612140	0.281322	0.842690
	H19	H	0.392427	0.280368	0.155987
	H20	H	0.729230	0.849354	0.390545
	H21	H	0.727365	0.163839	0.606428
	H22	H	0.279999	0.849694	0.609104
	H23	H	0.281679	0.164162	0.392096
	H24	H	0.895092	0.349726	0.224265
	H25	H	0.113158	0.663266	0.223959
	H26	H	0.114401	0.350725	0.772918
	H27	H	0.897209	0.663935	0.776208
	H28	H	0.232102	0.896431	0.343813
	H29	H	0.230405	0.116899	0.656316
	H30	H	0.779481	0.116974	0.342578
	H31	H	0.780046	0.898771	0.655578
	H32	H	0.347450	0.229813	0.889733
	H33	H	0.659987	0.232002	0.109539
	H34	H	0.346646	0.781812	0.107849
	H35	H	0.660266	0.780703	0.891137
	H36	H	0.346890	0.898266	0.222689
	H37	H	0.661052	0.115324	0.224040
	H38	H	0.349076	0.115436	0.772908
	H39	H	0.661542	0.896503	0.775928
	H40	H	0.898472	0.230083	0.341920
	H41	H	0.113575	0.231590	0.656558
	H42	H	0.116400	0.780083	0.343476
	H43	H	0.896794	0.784596	0.655871
	H44	H	0.229264	0.349688	0.888812
	H45	H	0.228709	0.663690	0.108077
	H46	H	0.781001	0.348993	0.107914
	H47	H	0.778515	0.662190	0.890093
	H48	H	0.419521	0.118488	0.590300
	H49	H	0.594683	0.893349	0.583533
	H50	H	0.590621	0.118282	0.411418
	H51	H	0.419225	0.894291	0.412776
	H52	H	0.588605	0.424192	0.109596
	H53	H	0.590719	0.597374	0.886199
	H54	H	0.416767	0.592116	0.110697
	H55	H	0.419595	0.414439	0.886833
	H56	H	0.116406	0.595239	0.414227
	H57	H	0.893346	0.594936	0.582846
	H58	H	0.119039	0.423103	0.592669
	H59	H	0.891585	0.415686	0.410360
	H60	H	0.119922	0.412830	0.585960
	H61	H	0.891861	0.592394	0.588550
	H62	H	0.115629	0.590895	0.413675
	H63	H	0.893331	0.418219	0.415323
	H64	H	0.417106	0.594075	0.111397
	H65	H	0.595695	0.589046	0.887204
	H66	H	0.586705	0.414817	0.113130
	H67	H	0.412852	0.418204	0.885019
	H68	H	0.591706	0.117576	0.412394
	H69	H	0.595028	0.890893	0.589672
	H70	H	0.421950	0.116024	0.584744
	H71	H	0.417694	0.895194	0.412796
	H72	H	0.917836	0.617718	0.083927
	H73	H	0.094207	0.393472	0.084637
	H74	H	0.087985	0.619911	0.904952
	H75	H	0.913187	0.391972	0.910577
	H76	H	0.096262	0.917642	0.614127
	H77	H	0.091163	0.090093	0.389039
	H78	H	0.920807	0.094527	0.610487
	H79	H	0.917738	0.921026	0.386336
	H80	H	0.616534	0.094428	0.912844
	H81	H	0.392546	0.094462	0.083484
	H82	H	0.617925	0.917349	0.089284
	H83	H	0.391184	0.916523	0.912280
	H84	H	0.616576	0.916880	0.083563
	H85	H	0.393393	0.088521	0.087255
	H86	H	0.615477	0.092496	0.915246
	H87	H	0.392922	0.919627	0.914372
	H88	H	0.914260	0.099350	0.613263
	H89	H	0.091480	0.097265	0.386957
	H90	H	0.092790	0.926831	0.610035
	H91	H	0.918696	0.920502	0.386803
	H92	H	0.088552	0.615478	0.918205
	H93	H	0.087949	0.394888	0.088394
	H94	H	0.913131	0.620595	0.087537
	H95	H	0.922229	0.393658	0.908429
	H96	H	0.415798	0.118997	0.584571
	H97	H	0.589433	0.893798	0.587603
	H98	H	0.591990	0.118143	0.411506
	H99	H	0.418318	0.894434	0.411781
	H100	H	0.595971	0.419284	0.113203
	H101	H	0.586157	0.589882	0.890139
	H102	H	0.415602	0.593313	0.111861
	H103	H	0.418183	0.421972	0.889576
	H104	H	0.116757	0.593031	0.410064
	H105	H	0.891037	0.598543	0.587456
	H106	H	0.114853	0.423275	0.581553
	H107	H	0.893345	0.421255	0.410518
	H108	H	0.919413	0.619220	0.090516
	H109	H	0.088045	0.396467	0.081313
	H110	H	0.099444	0.621517	0.912036
	H111	H	0.918926	0.396412	0.916156
	H112	H	0.085876	0.918453	0.610227
	H113	H	0.097609	0.093504	0.385939
	H114	H	0.912853	0.090793	0.611318
	H115	H	0.917932	0.919660	0.386095
	H116	H	0.616105	0.091401	0.912524
	H117	H	0.390577	0.093989	0.089837
	H118	H	0.615781	0.921909	0.086507
	H119	H	0.391788	0.920315	0.910007
	C120	C	0.384191	0.014299	0.620757
	C121	C	0.627024	0.996635	0.621186
	C122	C	0.626190	0.014672	0.377388
	C123	C	0.383749	0.998029	0.378179
	C124	C	0.625111	0.384805	0.008490
	C125	C	0.625566	0.627154	0.990955
	C126	C	0.382848	0.627372	0.007817
	C127	C	0.381792	0.384205	0.990756
	C128	C	0.013453	0.628070	0.378091
	C129	C	0.995556	0.629353	0.620805
	C130	C	0.013989	0.385670	0.620480
	C131	C	0.996241	0.384534	0.377336
	C132	C	0.882356	0.515606	0.121808
	C133	C	0.124409	0.498798	0.119240
	C134	C	0.126274	0.515496	0.876982
	C135	C	0.883500	0.497821	0.877910
	C136	C	0.126385	0.885831	0.508025
	C137	C	0.127017	0.128250	0.491181
	C138	C	0.883097	0.128380	0.507694
	C139	C	0.884126	0.886511	0.490026
	C140	C	0.512937	0.127002	0.878072
	C141	C	0.495615	0.127096	0.121128
	C142	C	0.513108	0.884221	0.121010
	C143	C	0.495371	0.884200	0.878244
	C144	C	0.380109	0.895527	0.682095
	C145	C	0.632180	0.114463	0.684171
	C146	C	0.630650	0.895825	0.315631
	C147	C	0.379015	0.116243	0.315940
	C148	C	0.689059	0.378422	0.891155
	C149	C	0.689262	0.633363	0.108348
	C150	C	0.320963	0.632093	0.889671
	C151	C	0.318635	0.380138	0.108624
	C152	C	0.895888	0.691690	0.372846
	C153	C	0.113680	0.692408	0.625929
	C154	C	0.895100	0.324257	0.623307
	C155	C	0.114867	0.323414	0.372715
	C156	C	0.895101	0.381682	0.681349
	C157	C	0.113710	0.634030	0.682979
	C158	C	0.895109	0.632364	0.316405
	C159	C	0.114381	0.380785	0.314717
	C160	C	0.378543	0.689890	0.889969
	C161	C	0.631272	0.691003	0.108274
	C162	C	0.630017	0.321774	0.890452
	C163	C	0.375875	0.321518	0.108615
	C164	C	0.688301	0.896361	0.373304
	C165	C	0.688067	0.115644	0.624735
	C166	C	0.321208	0.896514	0.625640
	C167	C	0.322074	0.116568	0.374506
	C168	C	0.877976	0.397072	0.183778
	C169	C	0.129612	0.616435	0.182415
	C170	C	0.131276	0.397693	0.814204
	C171	C	0.879143	0.616264	0.816207
	C172	C	0.190713	0.879433	0.390832
	C173	C	0.189516	0.133808	0.609139
	C174	C	0.820672	0.133772	0.389904
	C175	C	0.821280	0.881771	0.608220
	C176	C	0.394984	0.189247	0.872931
	C177	C	0.613253	0.190458	0.125886
	C178	C	0.394263	0.822636	0.125079
	C179	C	0.613504	0.821730	0.874056
	C180	C	0.394179	0.880707	0.182333
	C181	C	0.613562	0.132242	0.183178
	C182	C	0.395932	0.132144	0.814375
	C183	C	0.613949	0.879378	0.816481
	C184	C	0.880106	0.190057	0.389403
	C185	C	0.131010	0.190852	0.609393
	C186	C	0.132614	0.821878	0.390514
	C187	C	0.879599	0.824737	0.608475
	C188	C	0.188757	0.397343	0.872055
	C189	C	0.187372	0.616510	0.124577
	C190	C	0.820941	0.396832	0.125812
	C191	C	0.820344	0.615388	0.873224
	C192	C	0.411246	0.096620	0.594145
	C193	C	0.600668	0.914228	0.594678
	C194	C	0.599291	0.096629	0.403942
	C195	C	0.410687	0.916015	0.404824
	C196	C	0.598291	0.411921	0.090539
	C197	C	0.598506	0.599953	0.909235
	C198	C	0.409123	0.600776	0.089986
	C199	C	0.408929	0.410642	0.908654
	C200	C	0.095013	0.600914	0.405167
	C201	C	0.913726	0.602751	0.594038
	C202	C	0.096389	0.412122	0.594436
	C203	C	0.914148	0.410868	0.404216
	C204	C	0.909016	0.597666	0.095160
	C205	C	0.097574	0.416406	0.092436
	C206	C	0.099582	0.597554	0.903888
	C207	C	0.910384	0.415627	0.904163
	C208	C	0.099555	0.913065	0.589788
	C209	C	0.100884	0.101259	0.409030
	C210	C	0.908600	0.102355	0.590175
	C211	C	0.910508	0.912971	0.407977
	C212	C	0.594797	0.100298	0.905572
	C213	C	0.413565	0.100144	0.094560
	C214	C	0.595339	0.910959	0.094275
	C215	C	0.413324	0.911039	0.904516
	Zn216	Zn	0.505204	0.004970	0.749447
	Zn217	Zn	0.504547	0.005332	0.249344
	Zn218	Zn	0.754535	0.505637	-0.000340
	Zn219	Zn	0.253784	0.506546	-0.000869
	Zn220	Zn	0.004789	0.757127	0.499393
	Zn221	Zn	0.006097	0.256683	0.498913
	Zn222	Zn	0.004571	0.507063	0.748345
	Zn223	Zn	0.004627	0.506354	0.249078
	Zn224	Zn	0.503983	0.756098	-0.000340
	Zn225	Zn	0.503490	0.255952	-0.000063
	Zn226	Zn	0.754732	0.006645	0.498535
	Zn227	Zn	0.255544	0.006746	0.500051
	N228	N	0.418596	0.969906	0.679122
	N229	N	0.594993	0.039423	0.682027
	N230	N	0.592772	0.970545	0.317870
	N231	N	0.416642	0.041530	0.318137
	N232	N	0.685932	0.416909	0.965469
	N233	N	0.685791	0.594167	0.034316
	N234	N	0.323421	0.593985	0.963947
	N235	N	0.322243	0.418297	0.034212
	N236	N	0.970588	0.689297	0.410462
	N237	N	0.039342	0.689642	0.588018
	N238	N	0.970336	0.326286	0.586496
	N239	N	0.040328	0.325485	0.410779
	N240	N	0.970050	0.418744	0.679950
	N241	N	0.039295	0.595598	0.680002
	N242	N	0.968977	0.593496	0.319601
	N243	N	0.039515	0.417959	0.317247
	N244	N	0.416310	0.687044	0.964536
	N245	N	0.592357	0.687262	0.034494
	N246	N	0.590833	0.325484	0.964492
	N247	N	0.414316	0.323760	0.034183
	N248	N	0.685604	0.971047	0.410971
	N249	N	0.684957	0.041378	0.586135
	N250	N	0.323650	0.971399	0.588288
	N251	N	0.325048	0.041969	0.412554
	N252	N	0.915278	0.472096	0.181753
	N253	N	0.091165	0.542145	0.179028
	N254	N	0.093360	0.472154	0.816992
	N255	N	0.917633	0.542100	0.819046
	N256	N	0.187087	0.918373	0.464944
	N257	N	0.187271	0.095672	0.534681
	N258	N	0.822123	0.096254	0.464662
	N259	N	0.823852	0.919396	0.533536
	N260	N	0.468849	0.186230	0.912015
	N261	N	0.538704	0.187534	0.088055
	N262	N	0.469361	0.824541	0.087846
	N263	N	0.538807	0.824472	0.911556
	N264	N	0.469032	0.918132	0.179924
	N265	N	0.539349	0.093654	0.180302
	N266	N	0.470360	0.094227	0.817493
	N267	N	0.539522	0.917520	0.819005
	N268	N	0.918168	0.186966	0.463589
	N269	N	0.092886	0.187478	0.534968
	N270	N	0.093526	0.825472	0.464420
	N271	N	0.917930	0.827395	0.534018
	N272	N	0.186079	0.471899	0.910227
	N273	N	0.184059	0.542251	0.085860
	N274	N	0.823410	0.471442	0.088099
	N275	N	0.822747	0.540571	0.910664
	O276	O	0.709546	0.504381	0.498484
	H277	H	0.706566	0.489573	0.509401
	H278	H	0.705876	0.518511	0.513482
	O279	O	1.107505	0.050952	0.970066
	H280	H	1.123805	0.039532	0.976158
	H281	H	1.091370	0.053661	0.995479
	O282	O	0.709664	0.315888	0.477091
	H283	H	0.708282	0.310262	0.495224
	H284	H	0.702201	0.299244	0.487575
	O285	O	0.515805	0.521470	0.562181
	H286	H	0.506741	0.518052	0.574921
	H287	H	0.525298	0.514742	0.559058
	O288	O	0.796642	0.800270	0.013809
	H289	H	0.794994	0.782544	0.010088
	H290	H	0.806386	0.791261	0.006156
	O291	O	0.522397	0.717319	0.714726
	H292	H	0.523169	0.741583	0.737124
	H293	H	0.567729	0.715391	0.709648
	O294	O	0.183427	0.176434	1.177870
	H295	H	0.189566	0.193434	1.130086
	H296	H	0.139797	0.183505	1.180115
	O297	O	0.299419	0.300633	0.520504
	H298	H	0.325787	0.298976	0.496762
	H299	H	0.284162	0.279615	0.510072
	O300	O	0.569260	0.289350	0.560883
	H301	H	0.554660	0.296671	0.564101
	H302	H	0.541808	0.283915	0.579637
	O303	O	0.586469	0.441740	0.706887
	H304	H	0.561544	0.439993	0.703309
	H305	H	0.572301	0.421631	0.694613
	O306	O	0.452153	0.564128	0.707216
	H307	H	0.461910	0.605963	0.715503
	H308	H	0.446720	0.541248	0.703113
	O309	O	0.568373	0.575179	0.282201
	H310	H	0.552353	0.553096	0.284038
	H311	H	0.585180	0.558631	0.291964
	O312	O	0.049253	0.960742	1.022084
	H313	H	0.055458	0.964366	1.049527
	H314	H	0.052576	0.947683	1.027698
	O315	O	-0.207518	0.932871	0.920064
	H316	H	-0.213017	0.942435	0.939139
	H317	H	-0.209335	0.923059	0.935007
	O318	O	0.983338	-0.206983	0.214111
	H319	H	0.985168	-0.234601	0.254757
	H320	H	1.012040	-0.168768	0.218276
	O321	O	0.445518	-0.280659	-0.457314
	H322	H	0.454956	-0.287248	-0.453342
	H323	H	0.452336	-0.284012	-0.445858
	O324	O	0.720879	0.531623	0.714145
	H325	H	0.749035	0.526712	0.753277
	H326	H	0.687923	0.501579	0.713449
	O327	O	0.192900	0.069527	0.893311
	H328	H	0.198987	0.054173	0.894275
	H329	H	0.172063	0.056662	0.888299
	O330	O	-0.019283	1.222700	-0.212536
	H331	H	-0.017006	1.247357	-0.236421
	H332	H	0.003348	1.214878	-0.202511
	O333	O	0.322847	0.682050	0.316198
	H334	H	0.326954	0.694703	0.354495
	H335	H	0.348225	0.683505	0.320101
	O336	O	-0.077966	0.064641	0.196526
	H337	H	-0.105501	0.071218	0.189362
	H338	H	-0.076936	0.075050	0.196119
	O339	O	0.218112	1.021164	1.218343
	H340	H	0.244270	1.040668	1.244493
	H341	H	0.215154	1.057246	1.203134
	O342	O	0.199355	0.875654	0.811938
	H343	H	0.185750	0.871880	0.796123
	H344	H	0.203304	0.888748	0.814059
	O345	O	0.830100	0.830919	0.170227
	H346	H	0.855959	0.816319	0.157609
	H347	H	0.844508	0.827489	0.154159
	O348	O	0.300596	0.519732	0.289779
	H349	H	0.297530	0.518845	0.287825
	H350	H	0.293703	0.557331	0.278707
	O351	O	0.147814	1.023651	0.807083
	H352	H	0.153015	1.023941	0.803356
	H353	H	0.135770	1.021189	0.797067
	O354	O	-0.211846	1.222695	-0.018022
	H355	H	-0.216373	1.225482	-0.058873
	H356	H	-0.232689	1.235436	-0.032730
	O357	O	0.183606	-0.019913	1.054151
	H358	H	0.185041	-0.021438	1.056287
	H359	H	0.184475	-0.034593	1.053857
	O360	O	0.487053	0.287511	0.714792
	H361	H	0.470516	0.263874	0.741306
	H362	H	0.443883	0.289676	0.713239
	O363	O	0.052508	-0.000590	1.217184
	H364	H	0.033870	0.029261	1.215664
	H365	H	0.077115	0.015421	1.220284
	O366	O	0.506568	0.718261	0.316260
	H367	H	0.504398	0.730948	0.289537
	H368	H	0.527400	0.692186	0.303145
	O369	O	0.548749	0.712333	0.415835
	H370	H	0.528577	0.708236	0.411455
	H371	H	0.536876	0.716026	0.399836
	O372	O	1.205423	-0.192025	0.934288
	H373	H	1.202394	-0.202855	0.931118
	H374	H	1.191019	-0.209679	0.932532
	O375	O	0.448657	0.444950	0.288116
	H376	H	0.462738	0.417375	0.288844
	H377	H	0.428315	0.444126	0.284986
	O378	O	0.288531	0.719947	0.477574
	H379	H	0.305319	0.729918	0.497925
	H380	H	0.265621	0.735933	0.484655
	O381	O	0.521215	0.289874	0.283533
	H382	H	0.550078	0.287899	0.278368
	H383	H	0.550152	0.273972	0.266433
	O384	O	0.492810	0.485291	0.452909
	H385	H	0.492986	0.478610	0.462894
	H386	H	0.490526	0.509245	0.447599
	O387	O	-0.074479	-0.027061	0.802109
	H388	H	-0.091018	-0.023437	0.816228
	H389	H	-0.070142	-0.022884	0.821428
	O390	O	0.215936	0.222115	0.020118
	H391	H	0.231409	0.233449	0.005185
	H392	H	0.234884	0.212205	0.003518
	O393	O	0.919735	1.186750	1.066926
	H394	H	0.899109	1.192385	1.055705
	H395	H	0.926491	1.180022	1.052638
	O396	O	0.806265	-0.013846	0.209154
	H397	H	0.791440	-0.034628	0.214353
	H398	H	0.798656	-0.038998	0.217094
	O399	O	1.062843	0.129317	0.851811
	H400	H	1.066762	0.134353	0.851357
	H401	H	1.049568	0.129377	0.844492
	O402	O	0.839179	1.024729	1.029047
	H403	H	0.833661	1.032529	1.060153
	H404	H	0.849986	1.028324	1.039446
	O405	O	0.948941	0.798382	-0.069422
	H406	H	0.956026	0.802594	-0.091350
	H407	H	0.977582	0.803869	-0.050347
	O408	O	1.023628	-0.196446	-0.214439
	H409	H	1.023217	-0.208394	-0.230549
	H410	H	1.010273	-0.187261	-0.228098
	O411	O	1.063738	0.784627	0.063141
	H412	H	1.053579	0.774690	0.087159
	H413	H	1.076474	0.801767	0.066410
	O414	O	0.291742	0.457964	0.449859
	H415	H	0.298379	0.470074	0.435879
	H416	H	0.295685	0.437863	0.444802
	O417	O	0.685086	0.692701	0.682810
	H418	H	0.697936	0.639061	0.694159
	H419	H	0.691596	0.702183	0.634972
	O420	O	-0.204942	0.026072	-0.214385
	H421	H	-0.221608	0.007104	-0.225857
	H422	H	-0.223388	0.011135	-0.196557
	O423	O	0.717669	0.488733	0.287844
	H424	H	0.708784	0.506798	0.310999
	H425	H	0.753365	0.481096	0.258942
	O426	O	0.678148	0.323673	0.322650
	H427	H	0.692880	0.332032	0.351778
	H428	H	0.691555	0.350048	0.335267
	O429	O	0.290602	0.486078	0.717589
	H430	H	0.284209	0.500556	0.730308
	H431	H	0.270356	0.498991	0.717038
	O432	O	0.735985	0.439738	0.563890
	H433	H	0.739918	0.416840	0.562497
	H434	H	0.734719	0.432719	0.571844
	O435	O	0.717567	0.713617	0.520567
	H436	H	0.725250	0.722295	0.505117
	H437	H	0.706376	0.725894	0.510033
	O438	O	0.030228	0.030006	-0.024074
	H439	H	0.018204	0.019848	-0.019645
	H440	H	0.037396	0.033937	0.000533
	O441	O	0.999252	0.217877	0.166303
	H442	H	1.000923	0.225358	0.168990
	H443	H	0.988719	0.224769	0.154494
	O444	O	-0.150336	1.162822	0.888085
	H445	H	-0.164676	1.120877	0.876455
	H446	H	-0.107604	1.174756	0.880549
	O447	O	0.293166	0.573280	0.569338
	H448	H	0.308584	0.577442	0.556299
	H449	H	0.294402	0.562990	0.558529
	O450	O	0.331193	0.327884	0.681263
	H451	H	0.316550	0.318272	0.627928
	H452	H	0.316974	0.381045	0.693644
	O453	O	0.448426	0.281247	0.444492
	H454	H	0.451441	0.276507	0.415664
	H455	H	0.469146	0.293965	0.434307
