data_Molecule from HDF5

_cell_length_a		16.366726
_cell_length_b		16.096462
_cell_length_c		16.109781
_cell_angle_alpha	90.248976
_cell_angle_beta	90.498481
_cell_angle_gamma	89.897295
_symmetry_space_group_name_H-M	'P 1'
_symmetry_Int_Tables_number		1

loop_
	_symmetry_equiv_pos_as_xyz
	x,y,z

loop_
	_atom_site_label
	_atom_site_type_symbol
	_atom_site_fract_x
	_atom_site_fract_y
	_atom_site_fract_z
	H0	H	0.390457	0.833530	0.706727
	H1	H	0.586168	0.164047	0.708847
	H2	H	0.583645	0.832401	0.281149
	H3	H	0.387772	0.163059	0.280091
	H4	H	0.702928	0.394040	0.829567
	H5	H	0.705208	0.600896	0.157470
	H6	H	0.267945	0.601051	0.829665
	H7	H	0.272407	0.396631	0.157529
	H8	H	0.823433	0.712449	0.391548
	H9	H	0.148649	0.715904	0.594252
	H10	H	0.824536	0.284734	0.589224
	H11	H	0.148853	0.280105	0.391014
	H12	H	0.824940	0.398019	0.707470
	H13	H	0.149378	0.599915	0.710125
	H14	H	0.825315	0.600077	0.274234
	H15	H	0.149810	0.398939	0.279673
	H16	H	0.388321	0.710360	0.827611
	H17	H	0.585873	0.712905	0.159296
	H18	H	0.583764	0.283048	0.829011
	H19	H	0.392528	0.288658	0.159887
	H20	H	0.701341	0.832803	0.393831
	H21	H	0.705198	0.161445	0.599986
	H22	H	0.271340	0.833951	0.594237
	H23	H	0.268308	0.161439	0.389031
	H24	H	0.892721	0.332828	0.203393
	H25	H	0.085537	0.664643	0.207114
	H26	H	0.085974	0.333781	0.778691
	H27	H	0.889246	0.664067	0.780654
	H28	H	0.201763	0.895191	0.328281
	H29	H	0.204654	0.101544	0.655684
	H30	H	0.765453	0.099213	0.330524
	H31	H	0.774647	0.897639	0.658862
	H32	H	0.324593	0.212372	0.895241
	H33	H	0.649331	0.214349	0.097804
	H34	H	0.323014	0.784505	0.089903
	H35	H	0.648801	0.782286	0.896186
	H36	H	0.322689	0.899002	0.207139
	H37	H	0.649294	0.097071	0.211962
	H38	H	0.326621	0.101475	0.776179
	H39	H	0.650555	0.899650	0.782794
	H40	H	0.886598	0.210306	0.326511
	H41	H	0.086143	0.212058	0.657382
	H42	H	0.079536	0.786208	0.326038
	H43	H	0.889626	0.785070	0.657989
	H44	H	0.202962	0.333885	0.890648
	H45	H	0.204887	0.662618	0.096772
	H46	H	0.774191	0.333705	0.092611
	H47	H	0.768675	0.661663	0.889273
	H48	H	0.388055	0.117119	0.580903
	H49	H	0.584165	0.879917	0.586498
	H50	H	0.583300	0.118751	0.400430
	H51	H	0.405284	0.880662	0.393794
	H52	H	0.573333	0.398236	0.112562
	H53	H	0.575118	0.591628	0.876052
	H54	H	0.399414	0.601793	0.113623
	H55	H	0.383677	0.401512	0.870872
	H56	H	0.101817	0.588559	0.403011
	H57	H	0.868697	0.598432	0.585879
	H58	H	0.103459	0.408634	0.588720
	H59	H	0.869513	0.402063	0.394316
	H60	H	0.104677	0.403237	0.586060
	H61	H	0.872337	0.589362	0.579834
	H62	H	0.103421	0.590981	0.397956
	H63	H	0.871713	0.404776	0.400716
	H64	H	0.383024	0.587485	0.114682
	H65	H	0.582606	0.590188	0.873701
	H66	H	0.595256	0.406812	0.116231
	H67	H	0.393094	0.419145	0.879598
	H68	H	0.570478	0.113788	0.402894
	H69	H	0.581519	0.879168	0.591218
	H70	H	0.396129	0.118121	0.591847
	H71	H	0.393303	0.884561	0.415184
	H72	H	0.899450	0.613049	0.076776
	H73	H	0.082510	0.379760	0.085750
	H74	H	0.082263	0.615875	0.907582
	H75	H	0.893184	0.380866	0.901598
	H76	H	0.079402	0.905372	0.610041
	H77	H	0.074483	0.088739	0.374675
	H78	H	0.897390	0.091618	0.610394
	H79	H	0.884824	0.918899	0.376697
	H80	H	0.603926	0.094301	0.907114
	H81	H	0.369814	0.090275	0.090446
	H82	H	0.604048	0.904106	0.092858
	H83	H	0.368552	0.904205	0.894953
	H84	H	0.602290	0.902706	0.084500
	H85	H	0.369114	0.097486	0.087997
	H86	H	0.602520	0.087199	0.903895
	H87	H	0.370005	0.903033	0.901889
	H88	H	0.893914	0.093251	0.612060
	H89	H	0.081048	0.092161	0.371777
	H90	H	0.083605	0.908632	0.611037
	H91	H	0.903626	0.905609	0.378443
	H92	H	0.082169	0.618885	0.899925
	H93	H	0.081785	0.380539	0.085206
	H94	H	0.886890	0.619377	0.082613
	H95	H	0.893682	0.379238	0.899019
	H96	H	0.400324	0.112418	0.579799
	H97	H	0.579172	0.879996	0.585573
	H98	H	0.579711	0.113844	0.412182
	H99	H	0.381330	0.875080	0.395694
	H100	H	0.578827	0.420625	0.106170
	H101	H	0.578512	0.584069	0.877194
	H102	H	0.402645	0.581968	0.106655
	H103	H	0.404561	0.401083	0.876683
	H104	H	0.102741	0.595322	0.403499
	H105	H	0.870051	0.587584	0.591374
	H106	H	0.101738	0.406773	0.583179
	H107	H	0.871229	0.407754	0.395593
	H108	H	0.899487	0.617855	0.091015
	H109	H	0.081728	0.381052	0.084629
	H110	H	0.075136	0.614770	0.902785
	H111	H	0.896007	0.380284	0.900660
	H112	H	0.079609	0.910442	0.609434
	H113	H	0.080394	0.084345	0.374521
	H114	H	0.894494	0.089369	0.611094
	H115	H	0.883885	0.897057	0.370014
	H116	H	0.605556	0.092692	0.900318
	H117	H	0.371576	0.091893	0.083463
	H118	H	0.600484	0.910390	0.088067
	H119	H	0.372283	0.909567	0.899708
	C120	C	0.366102	0.007341	0.614075
	C121	C	0.610261	0.988896	0.617503
	C122	C	0.607018	0.006150	0.374827
	C123	C	0.364393	0.988946	0.371695
	C124	C	0.609844	0.377138	0.002903
	C125	C	0.608536	0.619515	0.984743
	C126	C	0.365090	0.619767	0.002448
	C127	C	0.366151	0.378074	0.984899
	C128	C	-0.004601	0.620766	0.371084
	C129	C	0.977924	0.621547	0.615366
	C130	C	-0.004096	0.377221	0.614332
	C131	C	0.978331	0.375397	0.369108
	C132	C	0.867234	0.507718	0.113045
	C133	C	0.110309	0.489483	0.115324
	C134	C	0.108761	0.507582	0.873011
	C135	C	0.865146	0.489248	0.870872
	C136	C	0.108334	0.877194	0.501146
	C137	C	0.108312	0.119230	0.482774
	C138	C	0.864535	0.119952	0.502096
	C139	C	0.864202	0.877567	0.484326
	C140	C	0.496674	0.120649	0.873409
	C141	C	0.478162	0.121290	0.117591
	C142	C	0.494622	0.876550	0.116050
	C143	C	0.478018	0.876682	0.871461
	C144	C	0.369422	0.882928	0.669356
	C145	C	0.607236	0.113966	0.672378
	C146	C	0.604445	0.881837	0.318742
	C147	C	0.366882	0.113432	0.316711
	C148	C	0.664629	0.376008	0.878771
	C149	C	0.665986	0.619846	0.108518
	C150	C	0.307664	0.619136	0.878738
	C151	C	0.310941	0.378551	0.108575
	C152	C	0.872545	0.675372	0.371769
	C153	C	0.100137	0.677802	0.614228
	C154	C	0.873332	0.322155	0.610638
	C155	C	0.100330	0.318861	0.371246
	C156	C	0.873731	0.378662	0.669649
	C157	C	0.100459	0.620106	0.671963
	C158	C	0.873453	0.619468	0.313406
	C159	C	0.101002	0.378032	0.315647
	C160	C	0.367010	0.674199	0.877601
	C161	C	0.606337	0.675296	0.109344
	C162	C	0.605424	0.320506	0.878657
	C163	C	0.370522	0.324365	0.109729
	C164	C	0.662642	0.882067	0.375223
	C165	C	0.666691	0.112521	0.618369
	C166	C	0.310090	0.883276	0.613270
	C167	C	0.307529	0.112574	0.371063
	C168	C	0.871154	0.382504	0.167005
	C169	C	0.106822	0.614661	0.170198
	C170	C	0.106550	0.383177	0.816502
	C171	C	0.867523	0.614053	0.816416
	C172	C	0.163459	0.876447	0.377280
	C173	C	0.165449	0.119883	0.606715
	C174	C	0.805673	0.118631	0.378783
	C175	C	0.811415	0.878269	0.609238
	C176	C	0.373848	0.175696	0.874718
	C177	C	0.600617	0.176662	0.117381
	C178	C	0.371764	0.821750	0.111628
	C179	C	0.600596	0.820538	0.875130
	C180	C	0.371595	0.878988	0.169656
	C181	C	0.600644	0.118058	0.173993
	C182	C	0.374810	0.120153	0.815517
	C183	C	0.601490	0.879115	0.818861
	C184	C	0.866096	0.173491	0.376719
	C185	C	0.106708	0.175259	0.607294
	C186	C	0.102913	0.822076	0.376190
	C187	C	0.868730	0.822417	0.608787
	C188	C	0.164607	0.383327	0.872445
	C189	C	0.165951	0.613681	0.115176
	C190	C	0.812156	0.383054	0.111902
	C191	C	0.807733	0.612729	0.870716
	C192	C	0.388325	0.093720	0.590962
	C193	C	0.588260	0.902258	0.594640
	C194	C	0.584460	0.093039	0.398279
	C195	C	0.386789	0.902365	0.394767
	C196	C	0.588650	0.401380	0.089449
	C197	C	0.585310	0.595715	0.898076
	C198	C	0.388329	0.597093	0.089189
	C199	C	0.387447	0.400545	0.898149
	C200	C	0.080813	0.598294	0.394529
	C201	C	0.892593	0.598701	0.592371
	C202	C	0.081195	0.399467	0.592445
	C203	C	0.892804	0.397956	0.390516
	C204	C	0.888870	0.594337	0.090205
	C205	C	0.088579	0.402890	0.092251
	C206	C	0.086358	0.594238	0.896584
	C207	C	0.887696	0.402496	0.893685
	C208	C	0.087134	0.901115	0.587658
	C209	C	0.085275	0.095450	0.396107
	C210	C	0.888267	0.097966	0.588574
	C211	C	0.884734	0.900451	0.397622
	C212	C	0.581956	0.097898	0.896776
	C213	C	0.392362	0.099614	0.094065
	C214	C	0.580016	0.898967	0.094716
	C215	C	0.392505	0.899003	0.892350
	Zn216	Zn	0.488309	-0.001064	0.743499
	Zn217	Zn	0.486048	-0.002039	0.245060
	Zn218	Zn	0.737924	0.498437	-0.007010
	Zn219	Zn	0.237275	0.498027	-0.006518
	Zn220	Zn	-0.014823	0.749868	0.492655
	Zn221	Zn	-0.012370	0.247398	0.491652
	Zn222	Zn	-0.012244	0.499216	0.744406
	Zn223	Zn	-0.012502	0.499280	0.241949
	Zn224	Zn	0.486063	0.747580	-0.006738
	Zn225	Zn	0.487447	0.249844	-0.005031
	Zn226	Zn	0.736415	-0.002401	0.495713
	Zn227	Zn	0.236791	-0.001409	0.492025
	N228	N	0.403648	0.961016	0.669962
	N229	N	0.572781	0.036047	0.672144
	N230	N	0.570684	0.960153	0.318275
	N231	N	0.401434	0.035632	0.316847
	N232	N	0.667336	0.410575	0.957003
	N233	N	0.667470	0.585940	0.029892
	N234	N	0.306211	0.586179	0.957506
	N235	N	0.307891	0.411172	0.029797
	N236	N	0.949336	0.676257	0.407160
	N237	N	0.022863	0.678941	0.579938
	N238	N	0.950216	0.320956	0.576817
	N239	N	0.023028	0.316970	0.403623
	N240	N	0.951074	0.412267	0.672001
	N241	N	0.023584	0.585848	0.672703
	N242	N	0.950879	0.586050	0.312911
	N243	N	0.024056	0.412655	0.314137
	N244	N	0.402133	0.674539	0.955476
	N245	N	0.571402	0.675285	0.031281
	N246	N	0.571958	0.321121	0.956860
	N247	N	0.404233	0.323951	0.031790
	N248	N	0.664410	0.960682	0.409167
	N249	N	0.668546	0.034003	0.584661
	N250	N	0.307813	0.961713	0.579561
	N251	N	0.306056	0.034194	0.404736
	N252	N	0.904656	0.460985	0.168119
	N253	N	0.072883	0.536496	0.170540
	N254	N	0.072398	0.461430	0.816726
	N255	N	0.902533	0.536320	0.816344
	N256	N	0.167009	0.909803	0.455997
	N257	N	0.166654	0.085963	0.528077
	N258	N	0.804302	0.086438	0.457836
	N259	N	0.808537	0.911926	0.530910
	N260	N	0.450505	0.175997	0.910229
	N261	N	0.523339	0.178748	0.082901
	N262	N	0.448960	0.820076	0.078908
	N263	N	0.522882	0.818768	0.906999
	N264	N	0.449115	0.912159	0.172682
	N265	N	0.523402	0.084611	0.174398
	N266	N	0.452201	0.086790	0.814382
	N267	N	0.524401	0.913305	0.816320
	N268	N	0.901982	0.174559	0.454417
	N269	N	0.071992	0.174982	0.529184
	N270	N	0.069125	0.822457	0.454213
	N271	N	0.900749	0.821739	0.530185
	N272	N	0.165874	0.461675	0.906973
	N273	N	0.168345	0.534914	0.081873
	N274	N	0.809531	0.461837	0.079233
	N275	N	0.806150	0.534018	0.903846
	O276	O	0.484675	0.413745	0.464854
	H277	H	0.474793	0.423300	0.483416
	H278	H	0.495542	0.409266	0.473802
	O279	O	0.479216	0.564568	0.529939
	H280	H	0.481825	0.569276	0.528752
	H281	H	0.475001	0.560356	0.530860
	O282	O	0.985607	1.020035	-0.004290
	H283	H	0.995240	1.016035	0.000587
	H284	H	0.992542	1.028222	-0.000011
	O285	O	0.902408	0.020245	0.895502
	H286	H	0.893975	0.021633	0.879281
	H287	H	0.915064	0.021510	0.894437
	O288	O	0.346385	0.607042	0.379972
	H289	H	0.345816	0.607131	0.389210
	H290	H	0.333602	0.602973	0.379616
	O291	O	0.494674	0.441019	0.586076
	H292	H	0.507702	0.436120	0.579054
	H293	H	0.491307	0.446759	0.584796
	O294	O	0.465803	0.505529	0.499309
	H295	H	0.457428	0.518401	0.497096
	H296	H	0.462124	0.511584	0.505966
	O297	O	0.023292	0.081924	1.015847
	H298	H	0.026537	0.093015	1.026171
	H299	H	0.016413	0.074880	1.019495
	O300	O	0.421533	0.486937	0.352250
	H301	H	0.424609	0.480233	0.351660
	H302	H	0.425619	0.475543	0.354096
	O303	O	1.034497	0.961987	-0.100634
	H304	H	1.028633	0.947030	-0.093033
	H305	H	1.022106	0.962109	-0.098626
	O306	O	-0.089011	0.997315	0.963795
	H307	H	-0.095093	0.992964	0.955160
	H308	H	-0.085325	0.989221	0.956822
	O309	O	0.631927	0.488014	0.432782
	H310	H	0.630777	0.483815	0.426955
	H311	H	0.623649	0.496324	0.422891
	O312	O	-0.120190	0.001335	-0.115286
	H313	H	-0.122698	0.006386	-0.122563
	H314	H	-0.120781	0.009585	-0.120132
	O315	O	0.915707	0.075874	-0.043053
	H316	H	0.914466	0.074572	-0.037951
	H317	H	0.921925	0.087294	-0.041246
	O318	O	1.066527	1.050345	0.918213
	H319	H	1.082708	1.048480	0.917296
	H320	H	1.060241	1.044844	0.920680
	O321	O	-0.028560	-0.106256	0.996405
	H322	H	-0.030149	-0.102624	0.992200
	H323	H	-0.033072	-0.105000	0.998129
	O324	O	0.455597	0.534072	0.652621
	H325	H	0.455959	0.539236	0.644118
	H326	H	0.446967	0.533083	0.646414
	O327	O	0.031055	-0.079555	0.052685
	H328	H	0.025980	-0.085780	0.055341
	H329	H	0.039547	-0.072944	0.054467
	O330	O	0.541633	0.417428	0.677750
	H331	H	0.544161	0.432939	0.679940
	H332	H	0.544505	0.411042	0.689876
	O333	O	0.637362	0.519449	1.387345
	H334	H	0.629705	0.526489	1.380680
	H335	H	0.637725	0.543017	1.398273
	O336	O	0.577429	-0.621055	0.329012
	H337	H	0.583215	-0.625229	0.331004
	H338	H	0.579489	-0.626864	0.325528
	O339	O	0.558148	0.362549	0.556380
	H340	H	0.555173	0.362767	0.545657
	H341	H	0.558286	0.359443	0.548451
	O342	O	0.977191	1.021300	1.050079
	H343	H	0.969998	1.029100	1.034984
	H344	H	0.977731	1.010468	1.041666
	O345	O	1.507652	1.606423	-0.485086
	H346	H	1.496541	1.618527	-0.498078
	H347	H	1.507787	1.601503	-0.471547
	O348	O	0.405168	0.541713	0.554633
	H349	H	0.403984	0.555674	0.560341
	H350	H	0.407761	0.532428	0.541375
	O351	O	1.034412	0.972653	0.975872
	H352	H	1.039079	0.971620	0.959991
	H353	H	1.039259	0.967303	0.980040
	O354	O	0.411406	0.406388	0.434864
	H355	H	0.413069	0.402413	0.446056
	H356	H	0.434656	0.403062	0.428032
	O357	O	1.009910	-0.032407	1.035388
	H358	H	1.012828	-0.021795	1.040489
	H359	H	1.005809	-0.033651	1.035536
	O360	O	0.982730	-0.013160	0.101550
	H361	H	0.979663	-0.011707	0.098479
	H362	H	0.984673	-0.004451	0.106350
	O363	O	0.614653	0.484923	0.583963
	H364	H	0.632785	0.492583	0.591146
	H365	H	0.603704	0.474433	0.593125
	O366	O	1.049502	1.002765	0.966226
	H367	H	1.048130	1.019930	0.967685
	H368	H	1.041531	0.991879	0.970716
	O369	O	0.492260	0.520689	1.496245
	H370	H	0.490719	0.502003	1.494643
	H371	H	0.495306	0.528605	1.493481
	O372	O	0.029536	-0.007660	-0.061164
	H373	H	0.027524	-0.014725	-0.044872
	H374	H	0.041987	-0.001519	-0.058028
	O375	O	1.492315	0.647879	0.461421
	H376	H	1.484736	0.649596	0.465098
	H377	H	1.501575	0.643814	0.471609
	O378	O	0.400713	0.579996	0.387849
	H379	H	0.399808	0.572655	0.386899
	H380	H	0.390760	0.577061	0.377496
	O381	O	0.346558	0.373834	0.480574
	H382	H	0.351331	0.373421	0.473112
	H383	H	0.357476	0.363241	0.475477
