data_Molecule from HDF5

_cell_length_a		16.196080
_cell_length_b		16.141786
_cell_length_c		16.335536
_cell_angle_alpha	90.061595
_cell_angle_beta	90.130197
_cell_angle_gamma	89.953985
_symmetry_space_group_name_H-M	'P 1'
_symmetry_Int_Tables_number		1

loop_
	_symmetry_equiv_pos_as_xyz
	x,y,z

loop_
	_atom_site_label
	_atom_site_type_symbol
	_atom_site_fract_x
	_atom_site_fract_y
	_atom_site_fract_z
	H0	H	0.401070	0.831794	0.712502
	H1	H	0.600810	0.160015	0.714610
	H2	H	0.599052	0.832028	0.284441
	H3	H	0.399767	0.161366	0.283077
	H4	H	0.713476	0.398918	0.834744
	H5	H	0.716370	0.596934	0.160727
	H6	H	0.284114	0.596366	0.835601
	H7	H	0.284799	0.396743	0.161201
	H8	H	0.834943	0.711108	0.400666
	H9	H	0.165110	0.709337	0.595763
	H10	H	0.835270	0.284313	0.594042
	H11	H	0.165022	0.283601	0.401775
	H12	H	0.835700	0.397137	0.711964
	H13	H	0.163633	0.597044	0.713839
	H14	H	0.836353	0.599072	0.281131
	H15	H	0.163502	0.395772	0.282646
	H16	H	0.399961	0.711367	0.835790
	H17	H	0.597589	0.710161	0.161669
	H18	H	0.597655	0.282575	0.834340
	H19	H	0.402645	0.282848	0.161476
	H20	H	0.713111	0.831843	0.401103
	H21	H	0.711982	0.162231	0.595666
	H22	H	0.288710	0.831489	0.594875
	H23	H	0.287369	0.162702	0.401173
	H24	H	0.899573	0.332346	0.212156
	H25	H	0.099911	0.661442	0.213840
	H26	H	0.098777	0.332174	0.784076
	H27	H	0.898943	0.660944	0.782573
	H28	H	0.214504	0.898127	0.334784
	H29	H	0.216456	0.096584	0.662116
	H30	H	0.784791	0.094917	0.335708
	H31	H	0.785020	0.897086	0.661442
	H32	H	0.335951	0.210151	0.900385
	H33	H	0.666145	0.208919	0.095320
	H34	H	0.335187	0.785101	0.094996
	H35	H	0.664489	0.782515	0.902055
	H36	H	0.336607	0.896972	0.213103
	H37	H	0.664404	0.097476	0.214686
	H38	H	0.336818	0.097016	0.782672
	H39	H	0.664415	0.894740	0.783396
	H40	H	0.903161	0.209553	0.334772
	H41	H	0.099283	0.211329	0.662290
	H42	H	0.098230	0.781970	0.335459
	H43	H	0.902759	0.783156	0.662149
	H44	H	0.213438	0.332089	0.900001
	H45	H	0.211545	0.663046	0.095436
	H46	H	0.787183	0.331432	0.094993
	H47	H	0.785705	0.661869	0.899744
	H48	H	0.400902	0.118239	0.595352
	H49	H	0.590278	0.881955	0.583040
	H50	H	0.594643	0.116839	0.401789
	H51	H	0.405443	0.878714	0.405965
	H52	H	0.586817	0.404728	0.112076
	H53	H	0.587874	0.587754	0.883576
	H54	H	0.406841	0.595416	0.116274
	H55	H	0.408229	0.396729	0.881220
	H56	H	0.118045	0.588150	0.401800
	H57	H	0.881170	0.584517	0.600876
	H58	H	0.119470	0.405615	0.597869
	H59	H	0.882543	0.408897	0.398181
	H60	H	0.118190	0.399290	0.590233
	H61	H	0.878882	0.600702	0.590799
	H62	H	0.117133	0.591114	0.406928
	H63	H	0.879554	0.396768	0.402197
	H64	H	0.400652	0.589251	0.116640
	H65	H	0.593447	0.595517	0.879241
	H66	H	0.596718	0.397875	0.117212
	H67	H	0.398781	0.407098	0.879831
	H68	H	0.586852	0.112609	0.404822
	H69	H	0.600790	0.875723	0.592180
	H70	H	0.415944	0.114352	0.598213
	H71	H	0.406796	0.878185	0.401430
	H72	H	0.902425	0.617509	0.095076
	H73	H	0.102764	0.376711	0.088775
	H74	H	0.090150	0.614506	0.904889
	H75	H	0.904252	0.377155	0.901528
	H76	H	0.105602	0.895155	0.620261
	H77	H	0.092150	0.082663	0.385696
	H78	H	0.900554	0.098142	0.619075
	H79	H	0.908856	0.901072	0.382425
	H80	H	0.622207	0.097906	0.901103
	H81	H	0.382107	0.087560	0.097646
	H82	H	0.618620	0.909527	0.099145
	H83	H	0.384028	0.899154	0.911235
	H84	H	0.621891	0.896024	0.094330
	H85	H	0.381974	0.095382	0.089466
	H86	H	0.615376	0.088236	0.915571
	H87	H	0.385759	0.914507	0.905212
	H88	H	0.902745	0.081274	0.614155
	H89	H	0.088399	0.095911	0.382589
	H90	H	0.098660	0.917564	0.611728
	H91	H	0.903405	0.905036	0.380994
	H92	H	0.091813	0.615261	0.905699
	H93	H	0.086995	0.378018	0.100878
	H94	H	0.915555	0.613090	0.093564
	H95	H	0.910955	0.379640	0.901783
	H96	H	0.409360	0.112197	0.583882
	H97	H	0.587013	0.878200	0.597573
	H98	H	0.593882	0.114363	0.410325
	H99	H	0.409664	0.879660	0.405111
	H100	H	0.598243	0.410391	0.113789
	H101	H	0.597943	0.586016	0.881577
	H102	H	0.409413	0.587165	0.112967
	H103	H	0.412376	0.409295	0.885486
	H104	H	0.114874	0.585201	0.406589
	H105	H	0.886226	0.584330	0.582926
	H106	H	0.115684	0.408572	0.589127
	H107	H	0.884306	0.405855	0.410085
	H108	H	0.906461	0.613074	0.083398
	H109	H	0.085446	0.384468	0.082212
	H110	H	0.092131	0.615033	0.904000
	H111	H	0.906919	0.379379	0.907541
	H112	H	0.081718	0.898389	0.613184
	H113	H	0.101297	0.091284	0.379928
	H114	H	0.916340	0.093076	0.613744
	H115	H	0.908632	0.908180	0.383973
	H116	H	0.617133	0.079662	0.899125
	H117	H	0.385551	0.085195	0.086894
	H118	H	0.614897	0.905914	0.084895
	H119	H	0.379316	0.901944	0.895951
	C120	C	0.379778	0.005668	0.620232
	C121	C	0.621541	0.987623	0.619955
	C122	C	0.620995	0.005391	0.377227
	C123	C	0.378867	0.988493	0.376555
	C124	C	0.622160	0.375066	0.006618
	C125	C	0.621999	0.618777	0.989394
	C126	C	0.377417	0.619061	0.007277
	C127	C	0.378221	0.375466	0.990044
	C128	C	0.008241	0.618073	0.376588
	C129	C	0.991226	0.618505	0.620117
	C130	C	0.008825	0.375686	0.619921
	C131	C	0.991101	0.375035	0.376362
	C132	C	0.878952	0.505483	0.118991
	C133	C	0.120966	0.488737	0.119697
	C134	C	0.120434	0.505827	0.876475
	C135	C	0.878271	0.487889	0.875843
	C136	C	0.123007	0.875041	0.506916
	C137	C	0.122663	0.118914	0.490543
	C138	C	0.878336	0.119012	0.507590
	C139	C	0.878399	0.875119	0.489961
	C140	C	0.509359	0.117779	0.876509
	C141	C	0.492115	0.118305	0.120210
	C142	C	0.509488	0.875427	0.120323
	C143	C	0.491588	0.875044	0.876329
	C144	C	0.381499	0.881121	0.674558
	C145	C	0.619957	0.111368	0.675740
	C146	C	0.619350	0.881377	0.322130
	C147	C	0.380110	0.112416	0.321278
	C148	C	0.676605	0.377508	0.883578
	C149	C	0.677966	0.616711	0.112073
	C150	C	0.322099	0.616582	0.884265
	C151	C	0.323009	0.377323	0.112520
	C152	C	0.884517	0.673958	0.379350
	C153	C	0.115604	0.672252	0.616717
	C154	C	0.884509	0.321315	0.615679
	C155	C	0.115654	0.320780	0.380489
	C156	C	0.884769	0.377314	0.674208
	C157	C	0.114635	0.616727	0.675657
	C158	C	0.884867	0.617613	0.320467
	C159	C	0.114920	0.376425	0.321317
	C160	C	0.379747	0.673711	0.884271
	C161	C	0.619061	0.673269	0.112619
	C162	C	0.619177	0.319821	0.883431
	C163	C	0.381567	0.320281	0.112564
	C164	C	0.676216	0.881223	0.379947
	C165	C	0.675693	0.112361	0.617132
	C166	C	0.325517	0.880815	0.616315
	C167	C	0.324415	0.113083	0.380113
	C168	C	0.880522	0.381505	0.174106
	C169	C	0.119457	0.612445	0.175512
	C170	C	0.118590	0.381398	0.821664
	C171	C	0.879515	0.612089	0.820858
	C172	C	0.177366	0.877424	0.384035
	C173	C	0.178108	0.116632	0.613372
	C174	C	0.822674	0.116093	0.384414
	C175	C	0.823531	0.877375	0.612916
	C176	C	0.385295	0.172911	0.879494
	C177	C	0.616442	0.172514	0.116665
	C178	C	0.384883	0.821713	0.116408
	C179	C	0.615501	0.819698	0.880424
	C180	C	0.385607	0.877238	0.175267
	C181	C	0.615796	0.116853	0.175916
	C182	C	0.385825	0.116683	0.820964
	C183	C	0.615251	0.875318	0.821310
	C184	C	0.881539	0.172754	0.383914
	C185	C	0.119735	0.173637	0.613474
	C186	C	0.119496	0.819894	0.384106
	C187	C	0.881816	0.820558	0.613139
	C188	C	0.175403	0.381276	0.879343
	C189	C	0.175389	0.612963	0.117110
	C190	C	0.824688	0.380934	0.115790
	C191	C	0.823222	0.612414	0.879177
	C192	C	0.402031	0.092455	0.598840
	C193	C	0.599282	0.900966	0.597590
	C194	C	0.598426	0.092106	0.399172
	C195	C	0.400903	0.901519	0.397820
	C196	C	0.600310	0.397628	0.092113
	C197	C	0.599777	0.596429	0.903643
	C198	C	0.399098	0.597050	0.093094
	C199	C	0.400096	0.397805	0.904274
	C200	C	0.094412	0.594892	0.398690
	C201	C	0.904505	0.596508	0.598040
	C202	C	0.095315	0.398059	0.598688
	C203	C	0.904696	0.397279	0.397449
	C204	C	0.901376	0.592129	0.097090
	C205	C	0.098434	0.402042	0.097257
	C206	C	0.097991	0.592535	0.898453
	C207	C	0.900699	0.401231	0.897349
	C208	C	0.101705	0.896979	0.593037
	C209	C	0.100600	0.096720	0.404880
	C210	C	0.900210	0.097169	0.593392
	C211	C	0.900392	0.898096	0.404487
	C212	C	0.595838	0.095109	0.898688
	C213	C	0.405625	0.095890	0.097883
	C214	C	0.596014	0.897347	0.099059
	C215	C	0.405310	0.898263	0.897834
	Zn216	Zn	0.500925	-0.003854	0.748161
	Zn217	Zn	0.500005	-0.003065	0.248229
	Zn218	Zn	0.751191	0.496278	-0.001859
	Zn219	Zn	0.248553	0.497419	-0.001940
	Zn220	Zn	0.000247	0.746537	0.498546
	Zn221	Zn	0.000259	0.247399	0.498471
	Zn222	Zn	-0.000155	0.496767	0.747981
	Zn223	Zn	-0.000256	0.496520	0.247754
	Zn224	Zn	0.499575	0.747387	-0.001676
	Zn225	Zn	0.500609	0.246072	-0.001824
	Zn226	Zn	0.749318	-0.003114	0.498649
	Zn227	Zn	0.252113	-0.002934	0.498993
	N228	N	0.414443	0.959679	0.677071
	N229	N	0.587346	0.032723	0.677656
	N230	N	0.585556	0.959599	0.320448
	N231	N	0.413125	0.033954	0.318981
	N232	N	0.678638	0.411090	0.961064
	N233	N	0.679636	0.583293	0.034567
	N234	N	0.320838	0.583082	0.961597
	N235	N	0.320721	0.410920	0.035051
	N236	N	0.962180	0.674350	0.413359
	N237	N	0.037691	0.673600	0.582818
	N238	N	0.962601	0.320114	0.582684
	N239	N	0.037714	0.319761	0.413768
	N240	N	0.963024	0.410266	0.677037
	N241	N	0.036267	0.583768	0.677604
	N242	N	0.962908	0.583488	0.318608
	N243	N	0.036585	0.409453	0.318459
	N244	N	0.413447	0.675412	0.961763
	N245	N	0.584859	0.674627	0.035403
	N246	N	0.585768	0.318465	0.960682
	N247	N	0.415169	0.319123	0.035470
	N248	N	0.677319	0.959350	0.413594
	N249	N	0.676709	0.034379	0.582979
	N250	N	0.324341	0.959201	0.583123
	N251	N	0.323436	0.035016	0.413795
	N252	N	0.913818	0.459988	0.176151
	N253	N	0.086606	0.533861	0.177475
	N254	N	0.085134	0.459861	0.819897
	N255	N	0.912983	0.533835	0.818664
	N256	N	0.179702	0.911080	0.461496
	N257	N	0.180057	0.083239	0.535926
	N258	N	0.820475	0.083542	0.462144
	N259	N	0.821351	0.910770	0.535316
	N260	N	0.463195	0.173778	0.913436
	N261	N	0.538456	0.173646	0.082945
	N262	N	0.462725	0.820317	0.082957
	N263	N	0.537503	0.819354	0.913833
	N264	N	0.463975	0.910047	0.177649
	N265	N	0.537324	0.084037	0.178305
	N266	N	0.463887	0.083061	0.819079
	N267	N	0.537321	0.909111	0.818977
	N268	N	0.915304	0.174562	0.461332
	N269	N	0.086286	0.175417	0.536053
	N270	N	0.086379	0.818406	0.461599
	N271	N	0.915292	0.819187	0.535781
	N272	N	0.176784	0.459549	0.912695
	N273	N	0.176264	0.535063	0.082923
	N274	N	0.823632	0.458977	0.082406
	N275	N	0.822376	0.534178	0.912602
	O276	O	1.005520	1.022244	-0.024688
	H277	H	1.000775	1.024700	-0.019410
	H278	H	1.008460	1.030503	-0.023908
	O279	O	0.031038	0.046034	0.054495
	H280	H	0.039032	0.050578	0.048584
	H281	H	0.033780	0.050868	0.055484
	O282	O	0.012924	-0.014458	1.095830
	H283	H	0.009772	-0.031673	1.091158
	H284	H	0.008416	-0.023035	1.098540
	O285	O	0.553616	0.498707	0.505659
	H286	H	0.547846	0.498555	0.506687
	H287	H	0.548824	0.500717	0.508084
	O288	O	0.508802	0.514402	0.547746
	H289	H	0.509962	0.516791	0.541622
	H290	H	0.508218	0.512442	0.550970
	O291	O	0.476769	0.464445	0.482544
	H292	H	0.478074	0.464619	0.491438
	H293	H	0.472917	0.459176	0.486104
	O294	O	0.037937	0.021104	0.043179
	H295	H	0.036904	0.009448	0.041486
	H296	H	0.024376	0.010468	0.047229
	O297	O	0.511971	0.526589	0.571001
	H298	H	0.507861	0.536359	0.570764
	H299	H	0.510853	0.523006	0.570852
	O300	O	-0.014616	0.955883	0.999961
	H301	H	-0.010303	0.961379	0.995355
	H302	H	-0.023396	0.951075	1.003537
	O303	O	0.484476	0.464668	0.444402
	H304	H	0.492595	0.460343	0.449989
	H305	H	0.488831	0.471026	0.441620
	O306	O	0.047952	0.047124	1.007925
	H307	H	0.051536	0.057650	1.015609
	H308	H	0.051875	0.038101	1.016408
	O309	O	1.073088	1.010355	1.044771
	H310	H	1.078632	1.013639	1.054164
	H311	H	1.076516	0.999497	1.043243
	O312	O	0.468585	0.533580	0.502591
	H313	H	0.469222	0.526169	0.499402
	H314	H	0.475324	0.525235	0.504280
	O315	O	0.447423	0.528808	0.492960
	H316	H	0.445716	0.534227	0.484835
	H317	H	0.449147	0.529345	0.487918
	O318	O	0.013023	1.019171	-0.019846
	H319	H	0.016057	1.022971	-0.029456
	H320	H	0.018165	1.027951	-0.023809
	O321	O	0.978462	0.984914	-0.037544
	H322	H	0.976387	0.994921	-0.042585
	H323	H	0.983005	0.988157	-0.032154
