data_Molecule from HDF5

_cell_length_a		16.318288
_cell_length_b		16.030600
_cell_length_c		16.244045
_cell_angle_alpha	89.706457
_cell_angle_beta	89.216784
_cell_angle_gamma	89.688121
_symmetry_space_group_name_H-M	'P 1'
_symmetry_Int_Tables_number		1

loop_
	_symmetry_equiv_pos_as_xyz
	x,y,z

loop_
	_atom_site_label
	_atom_site_type_symbol
	_atom_site_fract_x
	_atom_site_fract_y
	_atom_site_fract_z
	H0	H	0.402235	0.830764	0.715338
	H1	H	0.600256	0.160899	0.709818
	H2	H	0.603390	0.828962	0.285068
	H3	H	0.405804	0.161188	0.286132
	H4	H	0.722543	0.392801	0.839867
	H5	H	0.711972	0.596048	0.165381
	H6	H	0.283489	0.600180	0.837816
	H7	H	0.283258	0.393768	0.163356
	H8	H	0.836193	0.712545	0.408114
	H9	H	0.165662	0.708802	0.594887
	H10	H	0.838583	0.280716	0.604367
	H11	H	0.164378	0.284798	0.402160
	H12	H	0.838998	0.395093	0.722553
	H13	H	0.163473	0.598714	0.717455
	H14	H	0.836178	0.599554	0.288139
	H15	H	0.161773	0.393559	0.281502
	H16	H	0.403441	0.711599	0.835623
	H17	H	0.592879	0.708430	0.165210
	H18	H	0.601826	0.285802	0.835033
	H19	H	0.401441	0.281007	0.163512
	H20	H	0.721319	0.831118	0.395471
	H21	H	0.714001	0.160185	0.595914
	H22	H	0.286416	0.829932	0.601865
	H23	H	0.287884	0.160504	0.397711
	H24	H	0.898694	0.330366	0.220148
	H25	H	0.092410	0.662439	0.210546
	H26	H	0.101222	0.331223	0.788104
	H27	H	0.900536	0.661790	0.789481
	H28	H	0.221641	0.892406	0.337468
	H29	H	0.217175	0.096815	0.661809
	H30	H	0.788701	0.099567	0.335626
	H31	H	0.781833	0.893119	0.660957
	H32	H	0.337830	0.211024	0.902688
	H33	H	0.666038	0.206931	0.091189
	H34	H	0.336689	0.785878	0.098529
	H35	H	0.664858	0.780402	0.899477
	H36	H	0.340025	0.893267	0.220243
	H37	H	0.665881	0.094063	0.211088
	H38	H	0.339175	0.098730	0.782813
	H39	H	0.663868	0.892216	0.778231
	H40	H	0.904701	0.215144	0.337093
	H41	H	0.096629	0.207485	0.665014
	H42	H	0.102502	0.782784	0.336522
	H43	H	0.903145	0.785763	0.665112
	H44	H	0.217349	0.331579	0.899687
	H45	H	0.213187	0.661065	0.101802
	H46	H	0.784299	0.329983	0.105523
	H47	H	0.786710	0.661062	0.904971
	H48	H	0.414783	0.117764	0.607223
	H49	H	0.592646	0.874821	0.594347
	H50	H	0.594477	0.110292	0.416134
	H51	H	0.408472	0.876469	0.409888
	H52	H	0.590463	0.404360	0.117538
	H53	H	0.590950	0.582995	0.887647
	H54	H	0.401536	0.591139	0.118804
	H55	H	0.411227	0.400073	0.882057
	H56	H	0.116993	0.592063	0.403560
	H57	H	0.885060	0.594973	0.592397
	H58	H	0.119508	0.397858	0.596058
	H59	H	0.889536	0.408495	0.427325
	H60	H	0.115759	0.405902	0.590322
	H61	H	0.886871	0.583806	0.596248
	H62	H	0.115325	0.586391	0.407354
	H63	H	0.884534	0.419439	0.401905
	H64	H	0.403977	0.585536	0.115956
	H65	H	0.594806	0.594302	0.881804
	H66	H	0.589696	0.397780	0.118620
	H67	H	0.401830	0.407138	0.880384
	H68	H	0.606344	0.119219	0.399856
	H69	H	0.588932	0.877918	0.585843
	H70	H	0.420115	0.106256	0.575922
	H71	H	0.412060	0.875172	0.405598
	H72	H	0.894421	0.620752	0.103452
	H73	H	0.096440	0.376033	0.089786
	H74	H	0.092621	0.615826	0.908891
	H75	H	0.909738	0.378259	0.914622
	H76	H	0.096509	0.911554	0.615101
	H77	H	0.095189	0.092008	0.382100
	H78	H	0.905302	0.090331	0.617490
	H79	H	0.907507	0.907953	0.381781
	H80	H	0.619315	0.087047	0.897289
	H81	H	0.383772	0.094633	0.091549
	H82	H	0.619163	0.901736	0.095958
	H83	H	0.386291	0.907422	0.906465
	H84	H	0.619237	0.897257	0.088326
	H85	H	0.389185	0.082082	0.089439
	H86	H	0.618902	0.092301	0.904051
	H87	H	0.384705	0.904750	0.905192
	H88	H	0.902104	0.084538	0.617116
	H89	H	0.098773	0.087850	0.382229
	H90	H	0.088079	0.901146	0.616735
	H91	H	0.914965	0.905226	0.383232
	H92	H	0.089950	0.614560	0.909944
	H93	H	0.091922	0.375559	0.097735
	H94	H	0.916182	0.612072	0.099965
	H95	H	0.908931	0.375956	0.911925
	H96	H	0.389908	0.118346	0.584994
	H97	H	0.598699	0.876035	0.585877
	H98	H	0.586243	0.113684	0.396172
	H99	H	0.413943	0.877051	0.411094
	H100	H	0.595421	0.401263	0.119271
	H101	H	0.602913	0.584561	0.883016
	H102	H	0.407517	0.589730	0.116527
	H103	H	0.411176	0.411115	0.885381
	H104	H	0.116598	0.586744	0.400888
	H105	H	0.883041	0.592229	0.604636
	H106	H	0.118702	0.406824	0.599973
	H107	H	0.877738	0.392132	0.407512
	H108	H	0.901848	0.611345	0.083136
	H109	H	0.087484	0.378668	0.089939
	H110	H	0.092880	0.615499	0.911146
	H111	H	0.912553	0.377067	0.911698
	H112	H	0.099854	0.899481	0.620637
	H113	H	0.093936	0.087288	0.383720
	H114	H	0.908398	0.084315	0.615135
	H115	H	0.910192	0.900100	0.379763
	H116	H	0.616822	0.084623	0.904146
	H117	H	0.383757	0.085255	0.102521
	H118	H	0.616608	0.906788	0.088743
	H119	H	0.386124	0.905354	0.907732
	C120	C	0.379532	0.004621	0.620255
	C121	C	0.622187	0.985911	0.617416
	C122	C	0.625153	0.004465	0.375555
	C123	C	0.382645	0.986055	0.379046
	C124	C	0.622694	0.373376	0.009747
	C125	C	0.622196	0.616683	0.992678
	C126	C	0.376915	0.618928	0.008883
	C127	C	0.378740	0.375067	0.990894
	C128	C	0.008190	0.618833	0.378244
	C129	C	0.992907	0.619252	0.624468
	C130	C	0.010192	0.374176	0.625116
	C131	C	0.991429	0.376439	0.381008
	C132	C	0.876164	0.504874	0.125446
	C133	C	0.119564	0.486647	0.121287
	C134	C	0.122086	0.505681	0.880464
	C135	C	0.880684	0.486541	0.883161
	C136	C	0.124429	0.874273	0.509236
	C137	C	0.123352	0.117279	0.490900
	C138	C	0.878823	0.118107	0.508324
	C139	C	0.880711	0.875223	0.490098
	C140	C	0.510723	0.118260	0.874764
	C141	C	0.493756	0.116260	0.120554
	C142	C	0.510441	0.873407	0.121224
	C143	C	0.492923	0.874571	0.876454
	C144	C	0.381769	0.880130	0.677363
	C145	C	0.620269	0.111027	0.672548
	C146	C	0.623517	0.879183	0.321532
	C147	C	0.385079	0.111406	0.323524
	C148	C	0.682124	0.374303	0.887679
	C149	C	0.674678	0.615466	0.116150
	C150	C	0.322236	0.618814	0.886194
	C151	C	0.322089	0.374765	0.114469
	C152	C	0.885098	0.674776	0.385381
	C153	C	0.116267	0.672831	0.617924
	C154	C	0.887441	0.318670	0.624236
	C155	C	0.114903	0.321143	0.381501
	C156	C	0.887494	0.375693	0.682882
	C157	C	0.115105	0.617979	0.678969
	C158	C	0.885222	0.618978	0.325362
	C159	C	0.113582	0.375671	0.321690
	C160	C	0.381960	0.674196	0.884954
	C161	C	0.615959	0.671836	0.115931
	C162	C	0.621957	0.320823	0.885376
	C163	C	0.380690	0.318404	0.114331
	C164	C	0.682235	0.880079	0.376468
	C165	C	0.676851	0.110719	0.615949
	C166	C	0.324045	0.879900	0.621015
	C167	C	0.326340	0.110843	0.378887
	C168	C	0.878827	0.379708	0.181706
	C169	C	0.114598	0.612337	0.174446
	C170	C	0.121277	0.380815	0.825154
	C171	C	0.881110	0.611905	0.827364
	C172	C	0.182366	0.873939	0.386193
	C173	C	0.178400	0.115757	0.613647
	C174	C	0.825695	0.118928	0.384879
	C175	C	0.822026	0.875056	0.612948
	C176	C	0.387199	0.173788	0.880296
	C177	C	0.617065	0.169965	0.113792
	C178	C	0.386439	0.820874	0.119673
	C179	C	0.615927	0.817863	0.878375
	C180	C	0.388307	0.874591	0.180301
	C181	C	0.616880	0.113933	0.173588
	C182	C	0.387853	0.117720	0.820790
	C183	C	0.615588	0.873714	0.818370
	C184	C	0.883461	0.176382	0.385643
	C185	C	0.118507	0.171032	0.615365
	C186	C	0.122732	0.819699	0.385536
	C187	C	0.882631	0.821967	0.615078
	C188	C	0.179126	0.381250	0.880872
	C189	C	0.174863	0.611389	0.120419
	C190	C	0.822010	0.379668	0.124462
	C191	C	0.824809	0.611738	0.885047
	C192	C	0.401729	0.091447	0.596428
	C193	C	0.600099	0.898912	0.595174
	C194	C	0.602423	0.091809	0.397584
	C195	C	0.404968	0.898721	0.402050
	C196	C	0.598850	0.394898	0.096029
	C197	C	0.602095	0.593888	0.906364
	C198	C	0.398044	0.595699	0.094929
	C199	C	0.401462	0.398957	0.904945
	C200	C	0.094143	0.595401	0.398018
	C201	C	0.907053	0.596930	0.604040
	C202	C	0.095868	0.396853	0.601966
	C203	C	0.906053	0.399920	0.405341
	C204	C	0.897694	0.592098	0.102365
	C205	C	0.098364	0.399333	0.099057
	C206	C	0.098662	0.592791	0.903180
	C207	C	0.903651	0.399582	0.905900
	C208	C	0.101501	0.897277	0.595224
	C209	C	0.102063	0.095451	0.405016
	C210	C	0.899184	0.093613	0.594223
	C211	C	0.904125	0.897764	0.403925
	C212	C	0.596188	0.094868	0.895585
	C213	C	0.407804	0.093877	0.100366
	C214	C	0.596161	0.895315	0.097793
	C215	C	0.407705	0.898691	0.899833
	Zn216	Zn	0.502289	-0.003684	0.745650
	Zn217	Zn	0.503064	-0.005462	0.250510
	Zn218	Zn	0.751058	0.494562	0.002684
	Zn219	Zn	0.249251	0.496158	0.000786
	Zn220	Zn	0.001943	0.747996	0.500757
	Zn221	Zn	0.001491	0.246465	0.501631
	Zn222	Zn	0.000986	0.496866	0.753944
	Zn223	Zn	-0.001091	0.495575	0.250182
	Zn224	Zn	0.500102	0.745991	-0.000254
	Zn225	Zn	0.501376	0.246058	-0.001470
	Zn226	Zn	0.751086	-0.004480	0.497857
	Zn227	Zn	0.252724	-0.004430	0.498949
	N228	N	0.415203	0.958650	0.677208
	N229	N	0.586937	0.032343	0.673670
	N230	N	0.588743	0.957633	0.320910
	N231	N	0.419271	0.032785	0.323431
	N232	N	0.682722	0.406275	0.966101
	N233	N	0.678706	0.581879	0.038339
	N234	N	0.318903	0.585377	0.964204
	N235	N	0.320732	0.409134	0.036852
	N236	N	0.962811	0.675108	0.417280
	N237	N	0.039061	0.673942	0.585095
	N238	N	0.964616	0.317745	0.589011
	N239	N	0.038253	0.321680	0.418037
	N240	N	0.964902	0.409381	0.683831
	N241	N	0.037300	0.585392	0.683264
	N242	N	0.962722	0.585047	0.320753
	N243	N	0.035693	0.409273	0.321132
	N244	N	0.415212	0.674385	0.962405
	N245	N	0.583903	0.672553	0.038195
	N246	N	0.585671	0.319918	0.962395
	N247	N	0.415401	0.318325	0.036436
	N248	N	0.683351	0.958987	0.409455
	N249	N	0.678158	0.032017	0.582321
	N250	N	0.322516	0.958374	0.586022
	N251	N	0.324872	0.031949	0.412870
	N252	N	0.911590	0.458500	0.182376
	N253	N	0.081023	0.533688	0.175255
	N254	N	0.086643	0.459373	0.824530
	N255	N	0.915287	0.533279	0.826037
	N256	N	0.183496	0.907260	0.464042
	N257	N	0.181691	0.083456	0.535349
	N258	N	0.822834	0.083393	0.462114
	N259	N	0.820553	0.907587	0.534259
	N260	N	0.464569	0.174691	0.912871
	N261	N	0.539336	0.171618	0.081656
	N262	N	0.463243	0.819942	0.083454
	N263	N	0.538511	0.817748	0.913662
	N264	N	0.466501	0.906219	0.181645
	N265	N	0.539089	0.081153	0.177943
	N266	N	0.465517	0.084007	0.817159
	N267	N	0.538313	0.908049	0.816942
	N268	N	0.915661	0.176090	0.463502
	N269	N	0.084816	0.172034	0.538085
	N270	N	0.087232	0.819689	0.462999
	N271	N	0.918192	0.821750	0.537834
	N272	N	0.179910	0.460078	0.914244
	N273	N	0.178020	0.532195	0.087879
	N274	N	0.819914	0.458618	0.090436
	N275	N	0.824240	0.532814	0.918850
	O276	O	0.609036	0.449048	0.516241
	H277	H	0.603142	0.450070	0.497067
	H278	H	0.622971	0.441516	0.515366
	O279	O	0.471298	0.587120	0.444852
	H280	H	0.470704	0.587860	0.461343
	H281	H	0.470402	0.574818	0.445805
	O282	O	1.068582	0.984640	-0.050934
	H283	H	1.066717	0.986064	-0.049008
	H284	H	1.064529	0.976040	-0.049886
	O285	O	1.048625	-0.058897	0.921502
	H286	H	1.042995	-0.052034	0.903621
	H287	H	1.064855	-0.062391	0.914161
	O288	O	0.477004	0.425359	0.421423
	H289	H	0.478142	0.424908	0.409607
	H290	H	0.479627	0.433177	0.430060
	O291	O	0.601990	0.445387	0.508438
	H292	H	0.602879	0.435645	0.507471
	H293	H	0.587623	0.454803	0.497691
	O294	O	0.357073	0.410286	0.611096
	H295	H	0.356821	0.409327	0.630557
	H296	H	0.364669	0.412356	0.618298
	O297	O	-0.018600	0.071925	1.064103
	H298	H	-0.017428	0.072631	1.070834
	H299	H	-0.010516	0.070857	1.046173
	O300	O	0.547932	0.492454	0.432880
	H301	H	0.546016	0.487822	0.434304
	H302	H	0.545192	0.498487	0.434219
	O303	O	0.967209	0.997025	-0.146754
	H304	H	0.957788	1.004427	-0.143510
	H305	H	0.973368	0.997866	-0.154451
	O306	O	-0.064532	1.019675	1.033613
	H307	H	-0.055743	1.009891	1.041460
	H308	H	-0.061848	1.023994	1.034621
	O309	O	0.543137	0.413711	0.616966
	H310	H	0.550973	0.413176	0.613613
	H311	H	0.542529	0.408132	0.618241
	O312	O	-0.016949	-0.085379	0.095428
	H313	H	-0.017208	-0.096239	0.111999
	H314	H	-0.012335	-0.074786	0.092842
	O315	O	0.975385	-0.009047	-0.057986
	H316	H	0.973170	-0.001715	-0.038021
	H317	H	0.968461	-0.019013	-0.068421
	O318	O	0.939056	0.978229	0.970310
	H319	H	0.942486	0.972791	0.969032
	H320	H	0.933246	0.974746	0.972007
	O321	O	0.006930	-0.024551	0.886315
	H322	H	0.008212	-0.021041	0.897386
	H323	H	-0.000807	-0.024489	0.884794
	O324	O	0.466116	0.499255	0.368063
	H325	H	0.454443	0.496823	0.364931
	H326	H	0.461276	0.499461	0.370732
	O327	O	0.085113	-0.026754	-0.017482
	H328	H	0.084812	-0.036880	-0.028361
	H329	H	0.082557	-0.026900	-0.029440
	O330	O	0.487108	0.531847	0.466185
	H331	H	0.491370	0.526939	0.469446
	H332	H	0.476583	0.531641	0.467850
	O333	O	-0.072272	1.002988	0.980676
	H334	H	-0.076337	1.006844	0.963739
	H335	H	-0.074551	0.999765	0.978772
	O336	O	0.104399	-0.041482	-0.022650
	H337	H	0.115834	-0.048933	-0.025579
	H338	H	0.107113	-0.048400	-0.017369
	O339	O	0.478045	0.578070	0.448938
	H340	H	0.488622	0.579342	0.440261
	H341	H	0.461682	0.568540	0.450384
	O342	O	0.921475	1.002134	1.015730
	H343	H	0.930688	1.002894	1.012247
	H344	H	0.918036	1.000154	1.028111
	O345	O	1.602784	1.625974	-0.417498
	H346	H	1.597061	1.622302	-0.425820
	H347	H	1.604654	1.627112	-0.417996
	O348	O	0.502403	0.474796	0.501149
	H349	H	0.503877	0.472596	0.507131
	H350	H	0.493224	0.484676	0.492787
	O351	O	0.452449	0.544145	0.428529
	H352	H	0.451276	0.559994	0.423884
	H353	H	0.456317	0.545138	0.425177
	O354	O	0.564396	0.493785	0.478523
	H355	H	0.562631	0.493858	0.476482
	H356	H	0.570219	0.503505	0.474661
	O357	O	0.958627	0.015026	1.012667
	H358	H	0.947723	0.011808	1.024873
	H359	H	0.959824	0.018922	1.012915
	O360	O	0.380493	0.392899	0.512439
	H361	H	0.388082	0.388307	0.525750
	H362	H	0.392083	0.397671	0.527174
	O363	O	0.490226	0.504389	0.472202
	H364	H	0.485500	0.510340	0.467089
	H365	H	0.483446	0.509943	0.460469
	O366	O	1.060559	1.019291	1.009379
	H367	H	1.066325	1.008020	1.010639
	H368	H	1.061180	1.015677	1.021169
	O369	O	0.492471	0.534582	1.625339
	H370	H	0.499248	0.527666	1.624347
	H371	H	0.500401	0.543081	1.625218
	O372	O	0.023527	-0.008034	0.002059
	H373	H	0.030484	-0.000179	0.008476
	H374	H	0.017428	0.002172	-0.005306
	O375	O	1.002123	0.003219	0.101958
	H376	H	0.993068	-0.005137	0.107293
	H377	H	1.010125	0.020304	0.082927
	O378	O	0.558861	0.481711	0.592016
	H379	H	0.557896	0.488248	0.588509
	H380	H	0.570693	0.492353	0.596283
	O381	O	0.358931	0.500905	0.558919
	H382	H	0.365082	0.494615	0.559761
	H383	H	0.356167	0.495251	0.571445
