data_Molecule from HDF5

_cell_length_a		16.385162
_cell_length_b		16.092530
_cell_length_c		16.128745
_cell_angle_alpha	90.091423
_cell_angle_beta	89.860485
_cell_angle_gamma	90.057578
_symmetry_space_group_name_H-M	'P 1'
_symmetry_Int_Tables_number		1

loop_
	_symmetry_equiv_pos_as_xyz
	x,y,z

loop_
	_atom_site_label
	_atom_site_type_symbol
	_atom_site_fract_x
	_atom_site_fract_y
	_atom_site_fract_z
	H0	H	0.403350	0.834832	0.712098
	H1	H	0.599373	0.165371	0.714422
	H2	H	0.595189	0.835199	0.288885
	H3	H	0.401698	0.166237	0.287186
	H4	H	0.716215	0.400728	0.835661
	H5	H	0.716507	0.604508	0.163671
	H6	H	0.284664	0.603137	0.836314
	H7	H	0.282551	0.398603	0.163813
	H8	H	0.836414	0.716404	0.403527
	H9	H	0.163394	0.718229	0.596794
	H10	H	0.836220	0.287780	0.601201
	H11	H	0.162506	0.286705	0.401640
	H12	H	0.837200	0.405110	0.716431
	H13	H	0.162845	0.604538	0.716212
	H14	H	0.836855	0.601522	0.285161
	H15	H	0.163133	0.403618	0.284474
	H16	H	0.404105	0.713884	0.835521
	H17	H	0.595058	0.712719	0.166778
	H18	H	0.598622	0.288523	0.834507
	H19	H	0.403562	0.289688	0.166160
	H20	H	0.716080	0.837629	0.398250
	H21	H	0.715647	0.164962	0.603705
	H22	H	0.283089	0.837329	0.601934
	H23	H	0.285003	0.165572	0.398402
	H24	H	0.902755	0.336121	0.211675
	H25	H	0.096907	0.668441	0.210207
	H26	H	0.097226	0.337409	0.786631
	H27	H	0.902475	0.668899	0.788736
	H28	H	0.216422	0.900418	0.336120
	H29	H	0.217684	0.106608	0.663611
	H30	H	0.783389	0.104942	0.337782
	H31	H	0.783434	0.899765	0.664208
	H32	H	0.338425	0.216124	0.901344
	H33	H	0.663247	0.217604	0.100820
	H34	H	0.337212	0.786636	0.100016
	H35	H	0.664177	0.786674	0.903517
	H36	H	0.337305	0.901306	0.215668
	H37	H	0.662844	0.100182	0.215992
	H38	H	0.338808	0.100808	0.783061
	H39	H	0.662919	0.899025	0.782938
	H40	H	0.902763	0.214053	0.335265
	H41	H	0.097616	0.216761	0.665794
	H42	H	0.096696	0.791799	0.333920
	H43	H	0.904118	0.791627	0.665869
	H44	H	0.216142	0.338270	0.896897
	H45	H	0.215824	0.666084	0.101351
	H46	H	0.784891	0.337292	0.100559
	H47	H	0.783096	0.666191	0.897798
	H48	H	0.411038	0.116995	0.586085
	H49	H	0.598242	0.881325	0.589198
	H50	H	0.600913	0.122055	0.410283
	H51	H	0.410776	0.883358	0.403455
	H52	H	0.595417	0.408339	0.119040
	H53	H	0.600867	0.594880	0.879384
	H54	H	0.402037	0.601019	0.122301
	H55	H	0.399929	0.402125	0.878128
	H56	H	0.114965	0.591484	0.405695
	H57	H	0.883923	0.597917	0.596938
	H58	H	0.111965	0.419635	0.592018
	H59	H	0.883368	0.413049	0.398953
	H60	H	0.118506	0.407791	0.601035
	H61	H	0.883781	0.599061	0.593427
	H62	H	0.118603	0.600233	0.396711
	H63	H	0.881594	0.402015	0.407801
	H64	H	0.400749	0.584435	0.117628
	H65	H	0.592051	0.585435	0.884937
	H66	H	0.595044	0.413152	0.117990
	H67	H	0.404060	0.420633	0.884656
	H68	H	0.588365	0.119775	0.400725
	H69	H	0.592501	0.881295	0.594830
	H70	H	0.402339	0.120986	0.592147
	H71	H	0.408236	0.885491	0.415741
	H72	H	0.903178	0.619370	0.083618
	H73	H	0.090487	0.382522	0.096948
	H74	H	0.100329	0.623530	0.906229
	H75	H	0.895742	0.382732	0.915109
	H76	H	0.090451	0.917486	0.615303
	H77	H	0.090502	0.098876	0.383006
	H78	H	0.899342	0.086638	0.618820
	H79	H	0.906661	0.905492	0.379408
	H80	H	0.615245	0.087677	0.906555
	H81	H	0.383143	0.097953	0.094586
	H82	H	0.613215	0.913774	0.087353
	H83	H	0.383606	0.902044	0.907063
	H84	H	0.617916	0.910261	0.104960
	H85	H	0.386861	0.094009	0.090001
	H86	H	0.618122	0.096654	0.903977
	H87	H	0.386803	0.910219	0.910380
	H88	H	0.915083	0.093772	0.615667
	H89	H	0.098862	0.095290	0.380406
	H90	H	0.089293	0.907703	0.618803
	H91	H	0.901182	0.913247	0.380893
	H92	H	0.086618	0.620385	0.905009
	H93	H	0.089085	0.385508	0.086452
	H94	H	0.899506	0.625108	0.098125
	H95	H	0.908188	0.381115	0.894763
	H96	H	0.412770	0.118918	0.597019
	H97	H	0.590806	0.884165	0.588376
	H98	H	0.588076	0.115821	0.417075
	H99	H	0.400049	0.879500	0.407792
	H100	H	0.590944	0.409049	0.117254
	H101	H	0.587486	0.597659	0.882633
	H102	H	0.416470	0.592159	0.115630
	H103	H	0.417761	0.406914	0.884500
	H104	H	0.116361	0.603073	0.408933
	H105	H	0.884390	0.595288	0.593907
	H106	H	0.114868	0.405122	0.585248
	H107	H	0.886989	0.414562	0.413018
	H108	H	0.913782	0.618680	0.093364
	H109	H	0.098216	0.381959	0.089496
	H110	H	0.092850	0.618634	0.917305
	H111	H	0.918062	0.390761	0.915643
	H112	H	0.098269	0.912318	0.618996
	H113	H	0.091795	0.088103	0.384206
	H114	H	0.902119	0.102767	0.622061
	H115	H	0.911438	0.913691	0.384172
	H116	H	0.615044	0.095175	0.912474
	H117	H	0.384121	0.091687	0.096226
	H118	H	0.618842	0.897477	0.091453
	H119	H	0.384275	0.909472	0.901282
	C120	C	0.379252	0.010047	0.621484
	C121	C	0.622371	0.991605	0.621364
	C122	C	0.621203	0.010164	0.379493
	C123	C	0.378473	0.992229	0.379381
	C124	C	0.622469	0.380731	0.008918
	C125	C	0.621785	0.622616	0.991515
	C126	C	0.378461	0.622442	0.009436
	C127	C	0.378426	0.380205	0.991668
	C128	C	0.008845	0.626157	0.376672
	C129	C	0.991854	0.626183	0.622745
	C130	C	0.007806	0.381347	0.622568
	C131	C	0.991413	0.380166	0.377530
	C132	C	0.877783	0.511183	0.120752
	C133	C	0.121341	0.492785	0.120205
	C134	C	0.121740	0.511761	0.879191
	C135	C	0.878777	0.493979	0.879484
	C136	C	0.121576	0.882117	0.508874
	C137	C	0.122157	0.124133	0.491554
	C138	C	0.877748	0.123399	0.509888
	C139	C	0.878568	0.881784	0.491075
	C140	C	0.509165	0.122694	0.878301
	C141	C	0.492039	0.123854	0.122988
	C142	C	0.508770	0.878904	0.123166
	C143	C	0.492146	0.878041	0.877850
	C144	C	0.381938	0.884889	0.675779
	C145	C	0.619768	0.115922	0.677211
	C146	C	0.617262	0.885213	0.324991
	C147	C	0.380981	0.116675	0.323978
	C148	C	0.678339	0.381151	0.884960
	C149	C	0.677412	0.622558	0.115168
	C150	C	0.323333	0.621894	0.885479
	C151	C	0.321474	0.380001	0.114938
	C152	C	0.885298	0.679266	0.381820
	C153	C	0.114379	0.681161	0.618649
	C154	C	0.885270	0.325645	0.621320
	C155	C	0.113965	0.324771	0.380726
	C156	C	0.885884	0.383907	0.678719
	C157	C	0.114105	0.624500	0.678034
	C158	C	0.885747	0.622415	0.322603
	C159	C	0.114346	0.383255	0.322699
	C160	C	0.382369	0.677264	0.884956
	C161	C	0.617258	0.676719	0.116639
	C162	C	0.619614	0.325772	0.884280
	C163	C	0.382059	0.325946	0.116231
	C164	C	0.677022	0.886491	0.379711
	C165	C	0.677599	0.115746	0.621821
	C166	C	0.322096	0.886205	0.621175
	C167	C	0.323319	0.116591	0.379794
	C168	C	0.881618	0.386200	0.175015
	C169	C	0.117990	0.618295	0.174036
	C170	C	0.118237	0.386996	0.823579
	C171	C	0.881419	0.618893	0.825001
	C172	C	0.177783	0.882265	0.385052
	C173	C	0.178789	0.124999	0.614764
	C174	C	0.822095	0.123345	0.386305
	C175	C	0.822576	0.881840	0.615083
	C176	C	0.387074	0.178733	0.880302
	C177	C	0.614276	0.179584	0.120962
	C178	C	0.385808	0.824354	0.120304
	C179	C	0.615075	0.823292	0.881297
	C180	C	0.386058	0.881170	0.178148
	C181	C	0.614088	0.121205	0.178273
	C182	C	0.387233	0.120888	0.821940
	C183	C	0.614438	0.879347	0.821486
	C184	C	0.881307	0.177962	0.385190
	C185	C	0.118924	0.179946	0.615993
	C186	C	0.118262	0.827729	0.384048
	C187	C	0.882499	0.827769	0.615918
	C188	C	0.177339	0.387418	0.878420
	C189	C	0.177289	0.617061	0.120029
	C190	C	0.822755	0.386667	0.119792
	C191	C	0.822014	0.617473	0.879507
	C192	C	0.402043	0.096463	0.598485
	C193	C	0.600238	0.904566	0.597814
	C194	C	0.599089	0.096866	0.402571
	C195	C	0.399938	0.905355	0.402300
	C196	C	0.600212	0.403448	0.095762
	C197	C	0.599928	0.599470	0.904750
	C198	C	0.400007	0.599446	0.096115
	C199	C	0.400851	0.403176	0.904880
	C200	C	0.094427	0.604651	0.397579
	C201	C	0.906159	0.603831	0.601080
	C202	C	0.093061	0.404092	0.599383
	C203	C	0.906235	0.402940	0.399886
	C204	C	0.899171	0.598606	0.098264
	C205	C	0.099127	0.405914	0.097437
	C206	C	0.099785	0.598289	0.902577
	C207	C	0.900811	0.407262	0.901997
	C208	C	0.099260	0.905616	0.595424
	C209	C	0.100180	0.100899	0.404961
	C210	C	0.899273	0.101104	0.596640
	C211	C	0.900089	0.904177	0.404109
	C212	C	0.594116	0.099730	0.900958
	C213	C	0.406615	0.101139	0.100302
	C214	C	0.594416	0.900615	0.101127
	C215	C	0.406963	0.900574	0.899866
	Zn216	Zn	0.501343	0.000338	0.748182
	Zn217	Zn	0.499175	0.000773	0.251764
	Zn218	Zn	0.749958	0.502072	-0.000268
	Zn219	Zn	0.249618	0.501626	0.000156
	Zn220	Zn	-0.000069	0.754873	0.499800
	Zn221	Zn	-0.001195	0.251140	0.500846
	Zn222	Zn	0.000588	0.503564	0.752128
	Zn223	Zn	0.000008	0.502979	0.247217
	Zn224	Zn	0.500065	0.750043	0.001518
	Zn225	Zn	0.501146	0.252865	0.000226
	Zn226	Zn	0.749721	0.002166	0.500529
	Zn227	Zn	0.250362	0.002323	0.499829
	N228	N	0.416401	0.962842	0.676363
	N229	N	0.586018	0.037613	0.676963
	N230	N	0.583075	0.963345	0.324809
	N231	N	0.414872	0.038470	0.323780
	N232	N	0.679877	0.414908	0.963366
	N233	N	0.680461	0.589951	0.036219
	N234	N	0.320642	0.588885	0.963991
	N235	N	0.319251	0.413116	0.036317
	N236	N	0.962764	0.681937	0.414456
	N237	N	0.037214	0.682193	0.585182
	N238	N	0.962345	0.323692	0.587059
	N239	N	0.036530	0.322588	0.413932
	N240	N	0.963056	0.417794	0.679518
	N241	N	0.036794	0.591249	0.680863
	N242	N	0.963329	0.590000	0.319309
	N243	N	0.037212	0.416936	0.320545
	N244	N	0.416003	0.677667	0.963140
	N245	N	0.583446	0.676965	0.038647
	N246	N	0.585645	0.325162	0.962429
	N247	N	0.416599	0.325748	0.038332
	N248	N	0.679570	0.965277	0.412735
	N249	N	0.679504	0.037240	0.588041
	N250	N	0.319847	0.965134	0.588345
	N251	N	0.321381	0.038147	0.413312
	N252	N	0.915027	0.464700	0.175773
	N253	N	0.083893	0.539994	0.174392
	N254	N	0.084449	0.465367	0.823744
	N255	N	0.916133	0.541100	0.824708
	N256	N	0.179932	0.915466	0.463843
	N257	N	0.180845	0.091125	0.536328
	N258	N	0.819788	0.090129	0.464786
	N259	N	0.819886	0.914660	0.536429
	N260	N	0.463853	0.179925	0.914655
	N261	N	0.537205	0.181338	0.087441
	N262	N	0.463099	0.822628	0.086689
	N263	N	0.538033	0.822142	0.915482
	N264	N	0.463393	0.914388	0.180185
	N265	N	0.536828	0.087438	0.179826
	N266	N	0.464106	0.086693	0.820708
	N267	N	0.537163	0.912769	0.819316
	N268	N	0.915196	0.178227	0.463169
	N269	N	0.084313	0.179546	0.538417
	N270	N	0.084198	0.827537	0.462033
	N271	N	0.916621	0.827560	0.537788
	N272	N	0.179669	0.465890	0.912199
	N273	N	0.179405	0.538184	0.087090
	N274	N	0.820216	0.465610	0.086970
	N275	N	0.820234	0.538825	0.912579
	O276	O	0.557886	0.493155	0.506254
	H277	H	0.577387	0.487380	0.506422
	H278	H	0.559875	0.504713	0.497177
	O279	O	0.513690	0.583809	0.461731
	H280	H	0.498441	0.587375	0.455179
	H281	H	0.518459	0.591053	0.475859
	O282	O	0.999885	1.126318	0.014939
	H283	H	1.005883	1.135926	0.024474
	H284	H	1.001871	1.120744	0.003104
	O285	O	1.003870	-0.092763	0.935762
	H286	H	1.020045	-0.092509	0.925074
	H287	H	1.017589	-0.093187	0.942359
	O288	O	0.543619	0.448934	0.366573
	H289	H	0.549512	0.460756	0.358610
	H290	H	0.558057	0.435932	0.372928
	O291	O	0.367902	0.384037	0.522293
	H292	H	0.352940	0.390292	0.528704
	H293	H	0.358249	0.364609	0.521564
	O294	O	0.372304	0.458785	0.557781
	H295	H	0.366095	0.462211	0.560854
	H296	H	0.371145	0.449975	0.565020
	O297	O	0.075250	-0.033320	0.851096
	H298	H	0.084710	-0.036511	0.869662
	H299	H	0.081012	-0.020539	0.837778
	O300	O	0.469077	0.552226	0.507575
	H301	H	0.469314	0.547179	0.498340
	H302	H	0.473209	0.550301	0.507849
	O303	O	0.999675	0.930556	-0.007390
	H304	H	0.991985	0.930714	-0.007062
	H305	H	0.995817	0.929059	-0.011049
	O306	O	0.068606	0.975772	0.990936
	H307	H	0.064425	0.983942	0.988439
	H308	H	0.064057	0.976415	1.000221
	O309	O	0.537634	0.550186	0.480686
	H310	H	0.536239	0.543999	0.483221
	H311	H	0.535039	0.564287	0.478601
	O312	O	0.130591	0.046244	0.071694
	H313	H	0.128761	0.047720	0.074813
	H314	H	0.127172	0.046966	0.083001
	O315	O	0.937426	0.032173	0.108991
	H316	H	0.930780	0.020356	0.106025
	H317	H	0.927658	0.024682	0.104127
	O318	O	1.075905	1.023366	1.017032
	H319	H	1.076713	1.014180	1.024182
	H320	H	1.073166	1.019116	1.017908
	O321	O	0.062441	0.073922	1.007667
	H322	H	0.062853	0.072120	1.012117
	H323	H	0.057113	0.079013	1.007439
	O324	O	0.436278	0.409667	0.509567
	H325	H	0.441282	0.400924	0.515695
	H326	H	0.433423	0.403495	0.514962
	O327	O	0.026579	-0.017275	0.093923
	H328	H	0.020941	-0.011026	0.094145
	H329	H	0.006617	-0.024637	0.092998
	O330	O	0.569512	0.518450	0.553744
	H331	H	0.579017	0.513888	0.552330
	H332	H	0.568335	0.521945	0.563906
	O333	O	0.097184	0.992161	1.003760
	H334	H	0.093734	0.997086	1.000683
	H335	H	0.102166	0.989141	1.008206
	O336	O	-0.009774	-0.021946	-0.108859
	H337	H	-0.019474	-0.017371	-0.117475
	H338	H	-0.000190	-0.019938	-0.110048
	O339	O	0.464994	0.453061	0.517503
	H340	H	0.474521	0.468678	0.508431
	H341	H	0.466431	0.454507	0.514253
	O342	O	0.877366	1.068773	0.887043
	H343	H	0.882168	1.078940	0.871625
	H344	H	0.888942	1.060712	0.883472
	O345	O	0.932759	0.982757	0.006229
	H346	H	0.933247	0.982145	-0.003344
	H347	H	0.936964	0.987972	0.015108
	O348	O	0.546689	0.577284	0.562300
	H349	H	0.543987	0.587098	0.562850
	H350	H	0.542428	0.583421	0.548810
	O351	O	0.553649	0.549800	0.465124
	H352	H	0.540387	0.558451	0.471147
	H353	H	0.556630	0.535976	0.459187
	O354	O	0.409711	0.436690	0.511147
	H355	H	0.417537	0.430987	0.503672
	H356	H	0.408724	0.429272	0.526106
	O357	O	1.063818	-0.062441	0.937928
	H358	H	1.069177	-0.069355	0.928652
	H359	H	1.073053	-0.070635	0.932712
	O360	O	0.519241	0.451387	0.470889
	H361	H	0.518538	0.443366	0.460943
	H362	H	0.527095	0.457519	0.472446
	O363	O	0.586247	0.410838	0.487119
	H364	H	0.577429	0.406148	0.492370
	H365	H	0.583243	0.406848	0.487833
	O366	O	0.882055	1.035296	1.025005
	H367	H	0.877819	1.028134	1.013652
	H368	H	0.889422	1.041641	1.019261
	O369	O	0.949886	-0.054946	1.091211
	H370	H	0.932278	-0.058318	1.099553
	H371	H	0.947770	-0.064993	1.085049
	O372	O	-0.020490	0.032193	-0.036240
	H373	H	-0.023655	0.033936	-0.030121
	H374	H	-0.006245	0.033317	-0.039330
	O375	O	0.995191	-0.004387	-0.018905
	H376	H	0.992531	-0.008374	-0.032192
	H377	H	0.994324	-0.010138	-0.019413
	O378	O	0.482275	0.510031	0.558004
	H379	H	0.474994	0.506327	0.561471
	H380	H	0.473250	0.505358	0.553173
	O381	O	0.509396	0.497709	0.477070
	H382	H	0.507786	0.491038	0.467406
	H383	H	0.506343	0.485657	0.470917
