data_Molecule from HDF5

_cell_length_a		16.104766
_cell_length_b		16.157111
_cell_length_c		16.280826
_cell_angle_alpha	90.184495
_cell_angle_beta	90.096188
_cell_angle_gamma	90.271787
_symmetry_space_group_name_H-M	'P 1'
_symmetry_Int_Tables_number		1

loop_
	_symmetry_equiv_pos_as_xyz
	x,y,z

loop_
	_atom_site_label
	_atom_site_type_symbol
	_atom_site_fract_x
	_atom_site_fract_y
	_atom_site_fract_z
	H0	H	0.400086	0.831048	0.711738
	H1	H	0.605624	0.158584	0.718211
	H2	H	0.600950	0.830950	0.283132
	H3	H	0.400508	0.159627	0.282663
	H4	H	0.714775	0.396719	0.837015
	H5	H	0.717160	0.597246	0.164241
	H6	H	0.286513	0.594071	0.836022
	H7	H	0.285568	0.395105	0.163256
	H8	H	0.834488	0.709997	0.402163
	H9	H	0.165265	0.714273	0.600215
	H10	H	0.835520	0.284108	0.597003
	H11	H	0.165517	0.287494	0.401749
	H12	H	0.835158	0.396813	0.713664
	H13	H	0.164334	0.601962	0.717323
	H14	H	0.836445	0.598885	0.281949
	H15	H	0.165328	0.397427	0.285993
	H16	H	0.402823	0.708161	0.835225
	H17	H	0.602805	0.714025	0.162919
	H18	H	0.602249	0.280075	0.837781
	H19	H	0.400271	0.280452	0.162948
	H20	H	0.716473	0.831780	0.398494
	H21	H	0.714401	0.162172	0.596217
	H22	H	0.286741	0.831984	0.595882
	H23	H	0.291146	0.162956	0.401930
	H24	H	0.900812	0.332006	0.214538
	H25	H	0.104583	0.660584	0.217600
	H26	H	0.101181	0.333487	0.781535
	H27	H	0.898776	0.661117	0.785356
	H28	H	0.212251	0.900382	0.334165
	H29	H	0.218150	0.099249	0.663125
	H30	H	0.786405	0.096035	0.335201
	H31	H	0.786007	0.898825	0.661516
	H32	H	0.336267	0.211070	0.899992
	H33	H	0.666951	0.211073	0.098609
	H34	H	0.335486	0.781769	0.094453
	H35	H	0.666025	0.781539	0.898799
	H36	H	0.335654	0.893932	0.211768
	H37	H	0.666222	0.097008	0.214737
	H38	H	0.336182	0.094774	0.783055
	H39	H	0.665762	0.894043	0.782696
	H40	H	0.903503	0.211051	0.334622
	H41	H	0.101298	0.216133	0.662530
	H42	H	0.100841	0.780814	0.337610
	H43	H	0.897056	0.782961	0.661622
	H44	H	0.213678	0.331329	0.900372
	H45	H	0.216590	0.661821	0.098523
	H46	H	0.788290	0.331424	0.098145
	H47	H	0.786873	0.661198	0.901997
	H48	H	0.416664	0.112964	0.594248
	H49	H	0.586802	0.877423	0.598531
	H50	H	0.591460	0.114939	0.399127
	H51	H	0.407324	0.878896	0.403859
	H52	H	0.594388	0.398431	0.119278
	H53	H	0.596666	0.592899	0.881643
	H54	H	0.413350	0.583609	0.114232
	H55	H	0.407829	0.400543	0.882191
	H56	H	0.115491	0.578969	0.403417
	H57	H	0.884699	0.585952	0.589013
	H58	H	0.119420	0.414609	0.600733
	H59	H	0.881974	0.409425	0.406237
	H60	H	0.121654	0.398916	0.594459
	H61	H	0.880690	0.587747	0.597642
	H62	H	0.122984	0.598328	0.402297
	H63	H	0.880251	0.403067	0.401321
	H64	H	0.413813	0.596923	0.116419
	H65	H	0.597700	0.583853	0.883536
	H66	H	0.598905	0.405374	0.119102
	H67	H	0.406520	0.405848	0.882945
	H68	H	0.588181	0.111151	0.409714
	H69	H	0.589081	0.882460	0.581087
	H70	H	0.409867	0.113476	0.587963
	H71	H	0.404015	0.877548	0.405141
	H72	H	0.916289	0.611568	0.086743
	H73	H	0.095408	0.376493	0.098602
	H74	H	0.090310	0.611710	0.914016
	H75	H	0.906775	0.376424	0.899079
	H76	H	0.095463	0.901616	0.618804
	H77	H	0.101599	0.100157	0.378401
	H78	H	0.908337	0.089230	0.614815
	H79	H	0.898988	0.903685	0.378294
	H80	H	0.617298	0.079874	0.903477
	H81	H	0.383657	0.083905	0.094093
	H82	H	0.621827	0.894498	0.088506
	H83	H	0.385109	0.898365	0.914547
	H84	H	0.614441	0.912960	0.084751
	H85	H	0.380336	0.091757	0.093815
	H86	H	0.622812	0.093540	0.903726
	H87	H	0.384455	0.912809	0.901217
	H88	H	0.910255	0.096199	0.616234
	H89	H	0.098453	0.084355	0.383607
	H90	H	0.098228	0.910896	0.616458
	H91	H	0.913436	0.913413	0.385598
	H92	H	0.100471	0.615855	0.909603
	H93	H	0.087376	0.380487	0.092922
	H94	H	0.902004	0.616256	0.090129
	H95	H	0.914509	0.381889	0.906345
	H96	H	0.407671	0.116774	0.595457
	H97	H	0.603437	0.875090	0.591066
	H98	H	0.599020	0.114807	0.408504
	H99	H	0.404853	0.876124	0.402727
	H100	H	0.590274	0.406799	0.115822
	H101	H	0.588875	0.589245	0.885826
	H102	H	0.402276	0.588631	0.119419
	H103	H	0.411950	0.403635	0.883964
	H104	H	0.114879	0.591407	0.419909
	H105	H	0.881296	0.595133	0.591318
	H106	H	0.115723	0.411710	0.585120
	H107	H	0.881510	0.401873	0.408399
	H108	H	0.913875	0.616235	0.101087
	H109	H	0.097253	0.379627	0.088337
	H110	H	0.091652	0.615770	0.902475
	H111	H	0.904181	0.377869	0.910553
	H112	H	0.088774	0.908407	0.614755
	H113	H	0.086918	0.095770	0.384377
	H114	H	0.903944	0.093704	0.617383
	H115	H	0.914632	0.895520	0.380926
	H116	H	0.615580	0.088432	0.916120
	H117	H	0.384815	0.088743	0.087020
	H118	H	0.621922	0.908038	0.101704
	H119	H	0.378949	0.894752	0.896295
	C120	C	0.381173	0.005211	0.620091
	C121	C	0.623098	0.987090	0.620115
	C122	C	0.622536	0.004783	0.376703
	C123	C	0.378086	0.986907	0.376258
	C124	C	0.623504	0.374102	0.009864
	C125	C	0.624140	0.618463	0.991624
	C126	C	0.380438	0.617636	0.008166
	C127	C	0.379403	0.374249	0.991112
	C128	C	0.009043	0.618964	0.378731
	C129	C	0.991155	0.620270	0.622594
	C130	C	0.009445	0.378104	0.621039
	C131	C	0.991019	0.376942	0.377683
	C132	C	0.880764	0.505642	0.121732
	C133	C	0.123666	0.487599	0.122706
	C134	C	0.122495	0.505836	0.878486
	C135	C	0.879300	0.487971	0.877886
	C136	C	0.122519	0.877069	0.508454
	C137	C	0.124617	0.122271	0.490485
	C138	C	0.879413	0.120557	0.507656
	C139	C	0.879292	0.875986	0.489701
	C140	C	0.509678	0.116766	0.878031
	C141	C	0.492515	0.117610	0.121078
	C142	C	0.509945	0.874810	0.119482
	C143	C	0.492272	0.873720	0.876127
	C144	C	0.380917	0.880760	0.674586
	C145	C	0.623394	0.110329	0.677875
	C146	C	0.620665	0.880619	0.321143
	C147	C	0.380661	0.110860	0.320816
	C148	C	0.677838	0.376545	0.886272
	C149	C	0.680090	0.617646	0.114769
	C150	C	0.324471	0.614483	0.884838
	C151	C	0.323746	0.375733	0.114359
	C152	C	0.884444	0.673493	0.381003
	C153	C	0.115413	0.676711	0.620745
	C154	C	0.884989	0.321433	0.618026
	C155	C	0.115788	0.323350	0.380877
	C156	C	0.884856	0.377593	0.676179
	C157	C	0.115047	0.620544	0.678925
	C158	C	0.885518	0.617948	0.321429
	C159	C	0.115828	0.378420	0.323462
	C160	C	0.382380	0.671150	0.884470
	C161	C	0.622901	0.675883	0.114164
	C162	C	0.622001	0.318228	0.886563
	C163	C	0.380642	0.318293	0.114050
	C164	C	0.678234	0.880805	0.378645
	C165	C	0.677770	0.112057	0.617409
	C166	C	0.324349	0.881260	0.616928
	C167	C	0.326158	0.112384	0.380162
	C168	C	0.881656	0.381544	0.176820
	C169	C	0.123895	0.611426	0.179064
	C170	C	0.120915	0.382257	0.820773
	C171	C	0.879888	0.611856	0.823136
	C172	C	0.175941	0.879423	0.384242
	C173	C	0.180077	0.119551	0.613936
	C174	C	0.824089	0.117298	0.384170
	C175	C	0.823533	0.878679	0.612841
	C176	C	0.385672	0.173021	0.879557
	C177	C	0.617201	0.173486	0.118900
	C178	C	0.385055	0.818890	0.116038
	C179	C	0.616602	0.818870	0.878644
	C180	C	0.385213	0.874930	0.174200
	C181	C	0.616625	0.116840	0.177061
	C182	C	0.385649	0.115212	0.821357
	C183	C	0.616448	0.874723	0.820636
	C184	C	0.882328	0.174380	0.383829
	C185	C	0.121880	0.177661	0.613819
	C186	C	0.120667	0.819896	0.385768
	C187	C	0.879329	0.821352	0.612837
	C188	C	0.176597	0.381076	0.880041
	C189	C	0.179764	0.611971	0.120025
	C190	C	0.825855	0.380941	0.118672
	C191	C	0.824365	0.611966	0.881418
	C192	C	0.404724	0.092011	0.598782
	C193	C	0.599899	0.900634	0.596894
	C194	C	0.599771	0.091057	0.399271
	C195	C	0.399296	0.900032	0.397515
	C196	C	0.601158	0.396823	0.095566
	C197	C	0.601142	0.595410	0.905944
	C198	C	0.403063	0.595985	0.094299
	C199	C	0.402173	0.396680	0.905497
	C200	C	0.095568	0.596287	0.401857
	C201	C	0.904587	0.596642	0.599523
	C202	C	0.096385	0.401425	0.599544
	C203	C	0.903893	0.398539	0.398898
	C204	C	0.904009	0.592313	0.099298
	C205	C	0.100287	0.401343	0.100138
	C206	C	0.100535	0.592100	0.901787
	C207	C	0.901771	0.401129	0.899091
	C208	C	0.100581	0.900052	0.594284
	C209	C	0.102146	0.100123	0.404259
	C210	C	0.901203	0.099431	0.593973
	C211	C	0.902148	0.897800	0.403946
	C212	C	0.596292	0.094015	0.901044
	C213	C	0.405478	0.094755	0.098331
	C214	C	0.596861	0.898164	0.097965
	C215	C	0.405448	0.895660	0.897678
	Zn216	Zn	0.501683	-0.004954	0.748496
	Zn217	Zn	0.500074	-0.004417	0.248648
	Zn218	Zn	0.752495	0.495863	0.000781
	Zn219	Zn	0.251637	0.496113	-0.000061
	Zn220	Zn	-0.000212	0.747980	0.500428
	Zn221	Zn	0.000308	0.250399	0.498658
	Zn222	Zn	0.000169	0.498343	0.750061
	Zn223	Zn	0.001132	0.496666	0.250414
	Zn224	Zn	0.501306	0.746929	-0.001637
	Zn225	Zn	0.501516	0.246143	0.000002
	Zn226	Zn	0.751156	-0.003093	0.498156
	Zn227	Zn	0.252369	-0.001901	0.498761
	N228	N	0.415622	0.958932	0.676730
	N229	N	0.590291	0.031644	0.679601
	N230	N	0.586696	0.958655	0.319928
	N231	N	0.412058	0.031831	0.318032
	N232	N	0.679125	0.410587	0.963931
	N233	N	0.680917	0.582476	0.037566
	N234	N	0.323300	0.582048	0.962790
	N235	N	0.322708	0.409734	0.036894
	N236	N	0.962334	0.674190	0.416082
	N237	N	0.037266	0.676929	0.586465
	N238	N	0.963506	0.321468	0.584365
	N239	N	0.037316	0.322250	0.414232
	N240	N	0.963287	0.411979	0.678275
	N241	N	0.036689	0.586170	0.680135
	N242	N	0.964152	0.585012	0.319607
	N243	N	0.037251	0.411210	0.321534
	N244	N	0.416240	0.673512	0.962287
	N245	N	0.589007	0.676858	0.036403
	N246	N	0.588928	0.316422	0.964289
	N247	N	0.414787	0.317205	0.036545
	N248	N	0.679821	0.959068	0.412469
	N249	N	0.677620	0.034407	0.582054
	N250	N	0.324436	0.959690	0.583776
	N251	N	0.324145	0.034183	0.413803
	N252	N	0.915278	0.460113	0.178700
	N253	N	0.089610	0.533337	0.180676
	N254	N	0.088002	0.460778	0.819597
	N255	N	0.913207	0.533645	0.820771
	N256	N	0.177246	0.914247	0.461312
	N257	N	0.182012	0.086028	0.536045
	N258	N	0.822261	0.084376	0.461991
	N259	N	0.823487	0.912331	0.535376
	N260	N	0.463880	0.174135	0.914031
	N261	N	0.538787	0.174190	0.084947
	N262	N	0.463512	0.818811	0.082608
	N263	N	0.538451	0.818238	0.912705
	N264	N	0.463945	0.908882	0.176671
	N265	N	0.537962	0.082906	0.178446
	N266	N	0.463933	0.081317	0.820320
	N267	N	0.538168	0.907997	0.818844
	N268	N	0.915883	0.176527	0.461660
	N269	N	0.088216	0.179555	0.536113
	N270	N	0.088162	0.817840	0.464171
	N271	N	0.913298	0.819363	0.535347
	N272	N	0.177794	0.458783	0.915354
	N273	N	0.179867	0.533961	0.085592
	N274	N	0.825019	0.459119	0.085271
	N275	N	0.823750	0.533723	0.914831
	O276	O	0.419108	0.530790	0.607168
	H277	H	0.407766	0.516639	0.602724
	H278	H	0.421060	0.541927	0.611606
	O279	O	0.489478	0.401502	0.391342
	H280	H	0.492510	0.391523	0.398892
	H281	H	0.502738	0.408267	0.391814
	O282	O	1.032971	0.956142	-0.105765
	H283	H	1.037705	0.956813	-0.115836
	H284	H	1.021526	0.958241	-0.093850
	O285	O	0.920825	-0.089292	1.021495
	H286	H	0.916763	-0.073165	1.018886
	H287	H	0.923446	-0.085574	1.015613
	O288	O	0.485173	0.580272	0.483790
	H289	H	0.490236	0.581831	0.480591
	H290	H	0.486107	0.583812	0.481842
	O291	O	0.538313	0.527996	0.525528
	H292	H	0.526047	0.523656	0.528139
	H293	H	0.529496	0.538474	0.513611
	O294	O	0.456081	0.351497	0.651048
	H295	H	0.455320	0.359923	0.662199
	H296	H	0.439524	0.349611	0.654222
	O297	O	-0.069194	0.026448	0.970542
	H298	H	-0.066785	0.036856	0.972005
	H299	H	-0.075035	0.028430	0.966871
	O300	O	0.384002	0.613486	0.394749
	H301	H	0.382856	0.617394	0.374984
	H302	H	0.366501	0.610295	0.400957
	O303	O	0.966862	0.962704	-0.042806
	H304	H	0.956949	0.966469	-0.043278
	H305	H	0.967070	0.964504	-0.049725
	O306	O	-0.030882	0.890245	1.083028
	H307	H	-0.016033	0.881332	1.097463
	H308	H	-0.036698	0.885573	1.072987
	O309	O	0.471047	0.473873	0.512664
	H310	H	0.467389	0.466835	0.500886
	H311	H	0.466527	0.466458	0.507029
	O312	O	0.042680	0.033754	-0.009101
	H313	H	0.043035	0.024849	0.009720
	H314	H	0.038161	0.052217	-0.017734
	O315	O	1.037224	-0.126949	-0.041170
	H316	H	1.034465	-0.135057	-0.041067
	H317	H	1.045742	-0.136679	-0.047160
	O318	O	1.028826	1.065400	1.071553
	H319	H	1.021519	1.066981	1.063618
	H320	H	1.040230	1.076574	1.067591
	O321	O	-0.014275	0.019895	1.081408
	H322	H	-0.016620	0.026372	1.067099
	H323	H	-0.003237	0.022255	1.078858
	O324	O	0.546441	0.441115	0.479287
	H325	H	0.559067	0.441588	0.475973
	H326	H	0.559353	0.450453	0.470805
	O327	O	0.028225	0.009029	-0.071678
	H328	H	0.034983	0.012898	-0.068416
	H329	H	0.021055	-0.003724	-0.074550
	O330	O	0.469389	0.501980	0.457124
	H331	H	0.467349	0.499427	0.457366
	H332	H	0.454470	0.510078	0.464383
	O333	O	-0.048833	0.996758	0.946939
	H334	H	-0.043864	0.991428	0.955817
	H335	H	-0.051153	0.996154	0.953397
	O336	O	-0.015601	-0.068177	0.071300
	H337	H	-0.020488	-0.070152	0.071182
	H338	H	-0.011922	-0.071133	0.078270
	O339	O	0.581639	0.370656	0.495248
	H340	H	0.572165	0.384272	0.498852
	H341	H	0.574199	0.354232	0.507084
	O342	O	0.973483	1.043327	1.015704
	H343	H	0.979424	1.043538	1.019850
	H344	H	0.979745	1.034324	1.006321
	O345	O	1.501983	1.490377	-0.511009
	H346	H	1.503840	1.483785	-0.517766
	H347	H	1.499793	1.480916	-0.507255
	O348	O	0.416331	0.578643	0.437897
	H349	H	0.408105	0.574014	0.427589
	H350	H	0.424119	0.579082	0.439541
	O351	O	0.418489	0.452371	0.571529
	H352	H	0.416077	0.448231	0.577128
	H353	H	0.434710	0.457438	0.559961
	O354	O	0.401858	0.540223	0.475898
	H355	H	0.398216	0.546952	0.480923
	H356	H	0.411544	0.538506	0.469714
	O357	O	0.890585	-0.001694	1.003175
	H358	H	0.892227	-0.001933	0.999484
	H359	H	0.880422	-0.013770	1.007011
	O360	O	0.595891	0.493146	0.416972
	H361	H	0.598193	0.483218	0.417003
	H362	H	0.589623	0.483784	0.416230
	O363	O	0.499232	0.447737	0.509694
	H364	H	0.507179	0.450975	0.511819
	H365	H	0.498970	0.444933	0.503170
	O366	O	1.082876	0.930212	0.987917
	H367	H	1.066306	0.925382	0.991845
	H368	H	1.085958	0.926713	0.984979
	O369	O	0.501853	0.476291	1.428202
	H370	H	0.518820	0.477017	1.429964
	H371	H	0.496000	0.486452	1.421688
	O372	O	0.087939	0.024627	0.014290
	H373	H	0.097363	0.022758	0.029115
	H374	H	0.093688	0.017517	0.014574
	O375	O	1.156209	0.074617	0.046029
	H376	H	1.155127	0.083216	0.051355
	H377	H	1.162980	0.079122	0.041824
	O378	O	0.576901	0.536978	0.640583
	H379	H	0.578779	0.536007	0.654426
	H380	H	0.561899	0.539006	0.630537
	O381	O	0.600174	0.524162	0.504599
	H382	H	0.607693	0.521617	0.509799
	H383	H	0.614476	0.521233	0.515293
