data_Molecule from HDF5

_cell_length_a		16.124214
_cell_length_b		16.406939
_cell_length_c		16.054607
_cell_angle_alpha	90.284013
_cell_angle_beta	90.606416
_cell_angle_gamma	90.468596
_symmetry_space_group_name_H-M	'P 1'
_symmetry_Int_Tables_number		1

loop_
	_symmetry_equiv_pos_as_xyz
	x,y,z

loop_
	_atom_site_label
	_atom_site_type_symbol
	_atom_site_fract_x
	_atom_site_fract_y
	_atom_site_fract_z
	H0	H	0.405404	0.829784	0.712866
	H1	H	0.602788	0.155875	0.721398
	H2	H	0.597758	0.831293	0.287084
	H3	H	0.402663	0.157162	0.287082
	H4	H	0.705534	0.397251	0.835199
	H5	H	0.714227	0.592107	0.167899
	H6	H	0.287923	0.586455	0.835265
	H7	H	0.287773	0.397440	0.169320
	H8	H	0.836503	0.707367	0.397822
	H9	H	0.162045	0.711137	0.608831
	H10	H	0.836930	0.274067	0.601564
	H11	H	0.164403	0.277182	0.401287
	H12	H	0.831987	0.397128	0.708171
	H13	H	0.164039	0.590138	0.715874
	H14	H	0.833752	0.586978	0.289697
	H15	H	0.165650	0.397008	0.291303
	H16	H	0.394422	0.707438	0.838133
	H17	H	0.603809	0.710997	0.166596
	H18	H	0.594849	0.277696	0.838706
	H19	H	0.397139	0.277395	0.168534
	H20	H	0.712286	0.829769	0.404373
	H21	H	0.719300	0.156264	0.603557
	H22	H	0.284825	0.832429	0.602618
	H23	H	0.285594	0.157119	0.402684
	H24	H	0.902084	0.329273	0.212579
	H25	H	0.100291	0.656014	0.220231
	H26	H	0.092561	0.329844	0.788285
	H27	H	0.899802	0.656174	0.786626
	H28	H	0.211062	0.896539	0.335896
	H29	H	0.216231	0.092183	0.669238
	H30	H	0.788981	0.088149	0.336009
	H31	H	0.791013	0.896877	0.668720
	H32	H	0.334874	0.204997	0.899991
	H33	H	0.661482	0.213300	0.110361
	H34	H	0.334849	0.775915	0.102988
	H35	H	0.662209	0.776005	0.900996
	H36	H	0.334992	0.894678	0.215837
	H37	H	0.666834	0.089365	0.213495
	H38	H	0.335182	0.086381	0.789102
	H39	H	0.666928	0.898265	0.795084
	H40	H	0.898959	0.205430	0.337682
	H41	H	0.107374	0.212921	0.666546
	H42	H	0.100026	0.775502	0.338221
	H43	H	0.900238	0.776985	0.666521
	H44	H	0.211881	0.330452	0.902988
	H45	H	0.217905	0.656064	0.104135
	H46	H	0.783381	0.330071	0.098608
	H47	H	0.783391	0.656018	0.902179
	H48	H	0.403453	0.110955	0.590732
	H49	H	0.599183	0.876413	0.594624
	H50	H	0.594920	0.108178	0.414516
	H51	H	0.406144	0.876880	0.399820
	H52	H	0.596165	0.402309	0.123317
	H53	H	0.591064	0.582590	0.883581
	H54	H	0.401602	0.587375	0.123993
	H55	H	0.416625	0.397933	0.888145
	H56	H	0.112777	0.576108	0.420468
	H57	H	0.880519	0.588582	0.587583
	H58	H	0.117819	0.404166	0.597208
	H59	H	0.881135	0.392456	0.409801
	H60	H	0.119279	0.397997	0.597083
	H61	H	0.880799	0.582527	0.592359
	H62	H	0.121083	0.585007	0.402214
	H63	H	0.882486	0.398530	0.410963
	H64	H	0.412714	0.580263	0.117901
	H65	H	0.583719	0.587585	0.885136
	H66	H	0.588891	0.406708	0.120058
	H67	H	0.401249	0.385362	0.880315
	H68	H	0.601384	0.111500	0.410217
	H69	H	0.597614	0.875807	0.601147
	H70	H	0.408931	0.113538	0.606339
	H71	H	0.415862	0.882692	0.413729
	H72	H	0.905751	0.609680	0.096695
	H73	H	0.084362	0.379695	0.098367
	H74	H	0.085697	0.607213	0.910095
	H75	H	0.898984	0.376423	0.905570
	H76	H	0.096693	0.896639	0.623840
	H77	H	0.091982	0.084683	0.385122
	H78	H	0.911865	0.096160	0.624929
	H79	H	0.904647	0.903243	0.383397
	H80	H	0.619312	0.086179	0.910807
	H81	H	0.377999	0.093575	0.094472
	H82	H	0.613795	0.896468	0.080126
	H83	H	0.382025	0.899677	0.907846
	H84	H	0.614441	0.912926	0.099122
	H85	H	0.384368	0.082358	0.087371
	H86	H	0.618844	0.093751	0.915683
	H87	H	0.379739	0.895401	0.907596
	H88	H	0.903735	0.079683	0.622082
	H89	H	0.091057	0.086871	0.383781
	H90	H	0.095463	0.906866	0.618685
	H91	H	0.913279	0.897002	0.384768
	H92	H	0.098207	0.609112	0.916910
	H93	H	0.097029	0.379876	0.086559
	H94	H	0.909516	0.608715	0.096980
	H95	H	0.902696	0.376556	0.903750
	H96	H	0.418090	0.106360	0.594881
	H97	H	0.592211	0.878984	0.597099
	H98	H	0.594155	0.110298	0.405873
	H99	H	0.399149	0.878995	0.416617
	H100	H	0.588776	0.397833	0.122254
	H101	H	0.591288	0.589690	0.881328
	H102	H	0.413839	0.592841	0.122728
	H103	H	0.397368	0.405682	0.885109
	H104	H	0.119369	0.597053	0.419549
	H105	H	0.878073	0.589042	0.595705
	H106	H	0.117605	0.402018	0.592548
	H107	H	0.881223	0.396220	0.405786
	H108	H	0.906976	0.608643	0.092781
	H109	H	0.098954	0.373621	0.102834
	H110	H	0.096237	0.611906	0.903001
	H111	H	0.902769	0.377907	0.908615
	H112	H	0.086716	0.899556	0.619378
	H113	H	0.093848	0.086431	0.383968
	H114	H	0.921746	0.082692	0.617432
	H115	H	0.904283	0.892094	0.380502
	H116	H	0.616887	0.086481	0.919982
	H117	H	0.379608	0.080582	0.101424
	H118	H	0.623378	0.889702	0.102874
	H119	H	0.382167	0.897631	0.911818
	C120	C	0.380629	0.002652	0.624753
	C121	C	0.625941	0.984588	0.627207
	C122	C	0.623368	0.002022	0.381333
	C123	C	0.378473	0.986673	0.380448
	C124	C	0.618425	0.372894	0.011952
	C125	C	0.619582	0.615343	0.993333
	C126	C	0.378927	0.613681	0.011623
	C127	C	0.376691	0.369780	0.994028
	C128	C	0.008794	0.613817	0.382736
	C129	C	0.989188	0.615339	0.623450
	C130	C	0.008620	0.371926	0.622917
	C131	C	0.990919	0.369359	0.380560
	C132	C	0.877882	0.501384	0.123110
	C133	C	0.123489	0.484878	0.126137
	C134	C	0.119946	0.501675	0.880719
	C135	C	0.874415	0.484799	0.878043
	C136	C	0.121517	0.871972	0.511348
	C137	C	0.123017	0.115457	0.493972
	C138	C	0.881741	0.113452	0.511555
	C139	C	0.879330	0.870154	0.492777
	C140	C	0.508842	0.114354	0.883801
	C141	C	0.490049	0.114793	0.124550
	C142	C	0.508168	0.870879	0.123618
	C143	C	0.490562	0.870373	0.881111
	C144	C	0.383884	0.879251	0.677016
	C145	C	0.623600	0.107293	0.683096
	C146	C	0.618656	0.879682	0.325525
	C147	C	0.381480	0.108446	0.324633
	C148	C	0.669793	0.376276	0.885801
	C149	C	0.676357	0.612861	0.118365
	C150	C	0.323844	0.608614	0.885727
	C151	C	0.323756	0.375277	0.119559
	C152	C	0.884859	0.668307	0.380882
	C153	C	0.113108	0.671866	0.626006
	C154	C	0.885189	0.313965	0.620931
	C155	C	0.115284	0.315314	0.381887
	C156	C	0.882727	0.375103	0.673756
	C157	C	0.114208	0.611764	0.679314
	C158	C	0.883779	0.608831	0.326776
	C159	C	0.115874	0.374774	0.327252
	C160	C	0.377432	0.668443	0.886984
	C161	C	0.621208	0.671703	0.117738
	C162	C	0.614942	0.316481	0.887597
	C163	C	0.378081	0.315703	0.119104
	C164	C	0.675632	0.878910	0.383940
	C165	C	0.681560	0.107308	0.624487
	C166	C	0.323879	0.880596	0.622054
	C167	C	0.323206	0.108546	0.382371
	C168	C	0.880690	0.378412	0.176247
	C169	C	0.120976	0.607419	0.182105
	C170	C	0.114647	0.378774	0.825707
	C171	C	0.878731	0.607509	0.824118
	C172	C	0.175001	0.874893	0.386035
	C173	C	0.179294	0.113504	0.619152
	C174	C	0.825989	0.109109	0.386191
	C175	C	0.826770	0.874813	0.618631
	C176	C	0.384366	0.167414	0.882134
	C177	C	0.613445	0.172697	0.126814
	C178	C	0.384192	0.814532	0.122636
	C179	C	0.614042	0.815111	0.882700
	C180	C	0.384047	0.873960	0.178352
	C181	C	0.616006	0.111489	0.178435
	C182	C	0.384490	0.108427	0.826821
	C183	C	0.616332	0.875567	0.829617
	C184	C	0.880685	0.167725	0.386970
	C185	C	0.125189	0.173468	0.617625
	C186	C	0.119762	0.814757	0.387098
	C187	C	0.880925	0.815366	0.617450
	C188	C	0.173914	0.379029	0.882662
	C189	C	0.179362	0.607570	0.124190
	C190	C	0.822056	0.378656	0.119084
	C191	C	0.820880	0.607404	0.881805
	C192	C	0.403521	0.088362	0.603530
	C193	C	0.603018	0.899149	0.604587
	C194	C	0.602940	0.087907	0.403682
	C195	C	0.400545	0.901412	0.403393
	C196	C	0.597451	0.395515	0.099405
	C197	C	0.595657	0.593246	0.906121
	C198	C	0.402289	0.592850	0.098792
	C199	C	0.398480	0.390374	0.906955
	C200	C	0.095357	0.592539	0.407005
	C201	C	0.902226	0.593138	0.599254
	C202	C	0.095742	0.394792	0.601940
	C203	C	0.904170	0.389733	0.402245
	C204	C	0.900695	0.586985	0.101876
	C205	C	0.100342	0.399634	0.102763
	C206	C	0.099422	0.587378	0.903347
	C207	C	0.895301	0.398934	0.899520
	C208	C	0.099440	0.894496	0.598129
	C209	C	0.099272	0.092607	0.406885
	C210	C	0.905477	0.092371	0.598836
	C211	C	0.901082	0.891200	0.405640
	C212	C	0.595896	0.094473	0.908087
	C213	C	0.403231	0.092173	0.101238
	C214	C	0.594821	0.893204	0.100891
	C215	C	0.403787	0.891418	0.902457
	Zn216	Zn	0.501833	-0.007065	0.755435
	Zn217	Zn	0.500924	-0.005757	0.251260
	Zn218	Zn	0.746811	0.493914	0.002028
	Zn219	Zn	0.251289	0.493238	0.002276
	Zn220	Zn	-0.000470	0.742351	0.502473
	Zn221	Zn	0.001097	0.242218	0.502466
	Zn222	Zn	-0.002243	0.493691	0.749833
	Zn223	Zn	-0.000680	0.492680	0.254537
	Zn224	Zn	0.498630	0.742322	0.001774
	Zn225	Zn	0.498164	0.242849	0.004800
	Zn226	Zn	0.753958	-0.007249	0.502461
	Zn227	Zn	0.250068	-0.005767	0.503489
	N228	N	0.418497	0.956186	0.678980
	N229	N	0.589891	0.029992	0.685215
	N230	N	0.586502	0.957201	0.324068
	N231	N	0.415065	0.031618	0.323314
	N232	N	0.671943	0.410626	0.964158
	N233	N	0.675230	0.578420	0.040077
	N234	N	0.324802	0.575145	0.964085
	N235	N	0.322472	0.408121	0.040854
	N236	N	0.963647	0.671674	0.414878
	N237	N	0.034339	0.674043	0.591960
	N238	N	0.964627	0.311764	0.590176
	N239	N	0.036696	0.311804	0.414277
	N240	N	0.960414	0.410343	0.675189
	N241	N	0.036131	0.577313	0.677888
	N242	N	0.961737	0.575369	0.327949
	N243	N	0.037659	0.407635	0.325957
	N244	N	0.410898	0.671815	0.966318
	N245	N	0.586558	0.673420	0.038939
	N246	N	0.583687	0.314346	0.967091
	N247	N	0.410314	0.312188	0.040174
	N248	N	0.678607	0.955908	0.418046
	N249	N	0.682952	0.030154	0.590408
	N250	N	0.321907	0.958317	0.590232
	N251	N	0.321169	0.031576	0.416300
	N252	N	0.914764	0.455634	0.178864
	N253	N	0.087028	0.530247	0.183433
	N254	N	0.081969	0.456005	0.824324
	N255	N	0.911387	0.530239	0.821603
	N256	N	0.176478	0.909554	0.464209
	N257	N	0.177765	0.078014	0.541356
	N258	N	0.826342	0.076130	0.464872
	N259	N	0.825589	0.908155	0.540319
	N260	N	0.462796	0.171312	0.916783
	N261	N	0.534141	0.175056	0.094025
	N262	N	0.462381	0.812638	0.089209
	N263	N	0.534926	0.811732	0.914033
	N264	N	0.462347	0.908117	0.179344
	N265	N	0.538336	0.076039	0.177096
	N266	N	0.463046	0.076256	0.827540
	N267	N	0.538701	0.909582	0.828744
	N268	N	0.915069	0.170151	0.465828
	N269	N	0.090856	0.174755	0.538648
	N270	N	0.087562	0.812522	0.466253
	N271	N	0.912823	0.812221	0.538135
	N272	N	0.177388	0.456391	0.916253
	N273	N	0.181246	0.530275	0.090412
	N274	N	0.820333	0.456190	0.086778
	N275	N	0.818066	0.530020	0.914416
	O276	O	1.006496	1.006423	0.056104
	H277	H	1.009629	0.995784	0.057877
	H278	H	1.003016	1.001477	0.044430
	O279	O	0.042638	-0.021620	0.991039
	H280	H	0.053008	-0.018706	0.991081
	H281	H	0.049011	-0.026975	0.997072
	O282	O	0.038768	0.049862	-0.002171
	H283	H	0.039526	0.047670	-0.003551
	H284	H	0.033933	0.047041	-0.007621
	O285	O	0.512199	0.583201	0.545038
	H286	H	0.508881	0.586028	0.557704
	H287	H	0.510529	0.583884	0.544340
	O288	O	-0.069357	0.114760	-0.011349
	H289	H	-0.062302	0.105626	-0.003930
	H290	H	-0.050383	0.124504	-0.003053
	O291	O	0.002053	0.995614	0.013752
	H292	H	0.012679	0.996839	0.008369
	H293	H	0.003473	0.996660	0.017932
	O294	O	0.061718	1.096993	-0.037854
	H295	H	0.062318	1.096264	-0.038164
	H296	H	0.064950	1.103374	-0.036466
	O297	O	0.452384	0.512440	0.543300
	H298	H	0.452335	0.524691	0.545742
	H299	H	0.448108	0.510170	0.546223
	O300	O	0.518631	0.526156	0.436069
	H301	H	0.520284	0.523726	0.437709
	H302	H	0.514977	0.530499	0.436412
	O303	O	0.933860	0.017081	0.993843
	H304	H	0.935583	0.025430	1.005013
	H305	H	0.933052	0.007503	1.007019
	O306	O	1.009854	1.968198	0.987471
	H307	H	1.009916	1.964448	0.975857
	H308	H	1.009729	1.956332	0.980819
	O309	O	-0.033736	0.979533	0.932891
	H310	H	-0.038263	0.978014	0.929203
	H311	H	-0.037271	0.984027	0.924785
	O312	O	-0.043379	-0.039398	0.979980
	H313	H	-0.047201	-0.032618	0.979909
	H314	H	-0.040487	-0.043608	0.983655
	O315	O	0.369804	0.575712	0.419165
	H316	H	0.382363	0.572127	0.420436
	H317	H	0.365495	0.574436	0.411903
	O318	O	0.412965	-0.419418	0.499875
	H319	H	0.409821	-0.420499	0.500242
	H320	H	0.403631	-0.407763	0.492911
	O321	O	0.480187	0.623771	0.477567
	H322	H	0.478155	0.622016	0.469420
	H323	H	0.473891	0.634150	0.467111
	O324	O	0.933052	0.078197	0.864125
	H325	H	0.933629	0.101632	0.868106
	H326	H	0.921643	0.088489	0.862072
	O327	O	0.960993	1.007395	0.994885
	H328	H	0.955413	1.022468	0.993554
	H329	H	0.959345	1.008723	0.995820
	O330	O	0.505704	0.488530	0.471920
	H331	H	0.515057	0.482819	0.467401
	H332	H	0.506095	0.493994	0.470749
	O333	O	0.437857	0.559132	0.539132
	H334	H	0.431288	0.560596	0.549897
	H335	H	0.443506	0.557501	0.533755
	O336	O	0.500492	0.504583	0.501878
	H337	H	0.499103	0.507722	0.500931
	H338	H	0.511772	0.495909	0.507917
	O339	O	0.031526	0.007930	0.087688
	H340	H	0.029780	0.006956	0.087065
	H341	H	0.030600	0.008695	0.081312
	O342	O	0.471672	0.513631	0.451205
	H343	H	0.470739	0.510942	0.452474
	H344	H	0.477135	0.520739	0.457455
	O345	O	0.497717	0.487998	0.452308
	H346	H	0.505123	0.488180	0.455740
	H347	H	0.486776	0.483872	0.446950
