data_Molecule from HDF5

_cell_length_a		16.162570
_cell_length_b		16.165055
_cell_length_c		16.287509
_cell_angle_alpha	89.908158
_cell_angle_beta	89.970869
_cell_angle_gamma	89.937300
_symmetry_space_group_name_H-M	'P 1'
_symmetry_Int_Tables_number		1

loop_
	_symmetry_equiv_pos_as_xyz
	x,y,z

loop_
	_atom_site_label
	_atom_site_type_symbol
	_atom_site_fract_x
	_atom_site_fract_y
	_atom_site_fract_z
	H0	H	0.396828	0.837462	0.712288
	H1	H	0.595882	0.165911	0.711508
	H2	H	0.597915	0.837880	0.281353
	H3	H	0.397929	0.166753	0.283115
	H4	H	0.711035	0.403500	0.833031
	H5	H	0.713933	0.600040	0.160915
	H6	H	0.284003	0.600032	0.832854
	H7	H	0.282814	0.402117	0.160332
	H8	H	0.832994	0.714759	0.398533
	H9	H	0.162750	0.714201	0.595034
	H10	H	0.833244	0.289122	0.595901
	H11	H	0.162082	0.287073	0.399695
	H12	H	0.835043	0.400331	0.712892
	H13	H	0.162444	0.601570	0.711179
	H14	H	0.833978	0.602297	0.281150
	H15	H	0.161902	0.401075	0.283348
	H16	H	0.398701	0.716676	0.833729
	H17	H	0.596637	0.715581	0.161323
	H18	H	0.596877	0.287442	0.834046
	H19	H	0.400163	0.287365	0.161782
	H20	H	0.711297	0.836860	0.398784
	H21	H	0.708590	0.167203	0.594392
	H22	H	0.285288	0.836201	0.594324
	H23	H	0.283601	0.166926	0.399264
	H24	H	0.898527	0.337818	0.212532
	H25	H	0.098881	0.665617	0.212367
	H26	H	0.098142	0.336537	0.784079
	H27	H	0.899005	0.665259	0.782197
	H28	H	0.211470	0.902962	0.333541
	H29	H	0.211447	0.099446	0.661548
	H30	H	0.782573	0.101177	0.333919
	H31	H	0.782153	0.902842	0.661726
	H32	H	0.332930	0.215753	0.900161
	H33	H	0.662279	0.213389	0.095127
	H34	H	0.332931	0.787984	0.096110
	H35	H	0.662267	0.788074	0.898561
	H36	H	0.333598	0.900388	0.213055
	H37	H	0.661067	0.102048	0.212035
	H38	H	0.332910	0.101887	0.782486
	H39	H	0.661041	0.901194	0.782138
	H40	H	0.898071	0.217012	0.333829
	H41	H	0.095469	0.214671	0.661922
	H42	H	0.094680	0.787942	0.333657
	H43	H	0.897861	0.785470	0.661085
	H44	H	0.211454	0.337056	0.899836
	H45	H	0.211344	0.666546	0.094541
	H46	H	0.785813	0.336128	0.095444
	H47	H	0.784679	0.665821	0.899167
	H48	H	0.399347	0.120927	0.591186
	H49	H	0.593133	0.884291	0.586240
	H50	H	0.575838	0.118882	0.393307
	H51	H	0.412945	0.886326	0.402978
	H52	H	0.597803	0.410227	0.115947
	H53	H	0.592610	0.601891	0.878179
	H54	H	0.395401	0.591060	0.115234
	H55	H	0.397293	0.408288	0.878397
	H56	H	0.119037	0.598262	0.396450
	H57	H	0.879192	0.597065	0.590651
	H58	H	0.122067	0.393823	0.593431
	H59	H	0.879853	0.405179	0.409908
	H60	H	0.111570	0.412295	0.577686
	H61	H	0.881796	0.590699	0.586561
	H62	H	0.114892	0.598773	0.412067
	H63	H	0.881987	0.416821	0.404303
	H64	H	0.411895	0.588418	0.110039
	H65	H	0.597105	0.589744	0.880753
	H66	H	0.587652	0.410820	0.112144
	H67	H	0.409017	0.415170	0.883490
	H68	H	0.586327	0.113641	0.418931
	H69	H	0.590361	0.881991	0.594908
	H70	H	0.406707	0.120010	0.594320
	H71	H	0.402166	0.885947	0.411563
	H72	H	0.910807	0.617285	0.088636
	H73	H	0.087896	0.383443	0.091944
	H74	H	0.081495	0.617956	0.898619
	H75	H	0.904778	0.381939	0.902227
	H76	H	0.098493	0.900358	0.619012
	H77	H	0.083855	0.094893	0.383307
	H78	H	0.901354	0.095740	0.615590
	H79	H	0.902614	0.915122	0.383140
	H80	H	0.616999	0.095335	0.898427
	H81	H	0.378900	0.085304	0.098212
	H82	H	0.613016	0.910143	0.084565
	H83	H	0.382750	0.911085	0.912391
	H84	H	0.614842	0.913778	0.093933
	H85	H	0.375155	0.105243	0.094348
	H86	H	0.616191	0.097513	0.906394
	H87	H	0.378930	0.915150	0.898014
	H88	H	0.902978	0.093926	0.613592
	H89	H	0.093483	0.100281	0.378145
	H90	H	0.093903	0.916665	0.612846
	H91	H	0.911549	0.905637	0.382260
	H92	H	0.092665	0.618430	0.911945
	H93	H	0.090124	0.384416	0.087839
	H94	H	0.903430	0.618936	0.085279
	H95	H	0.906434	0.383539	0.903245
	H96	H	0.405695	0.118580	0.587086
	H97	H	0.583847	0.886561	0.589233
	H98	H	0.603102	0.124831	0.399287
	H99	H	0.401095	0.880941	0.399446
	H100	H	0.591926	0.401902	0.116336
	H101	H	0.584722	0.592852	0.883280
	H102	H	0.407342	0.603445	0.115910
	H103	H	0.409996	0.401400	0.879981
	H104	H	0.113257	0.585245	0.403411
	H105	H	0.879751	0.589689	0.594392
	H106	H	0.117026	0.417995	0.602557
	H107	H	0.876666	0.407215	0.397294
	H108	H	0.904502	0.620964	0.094311
	H109	H	0.092628	0.383163	0.091290
	H110	H	0.097566	0.623069	0.896661
	H111	H	0.904165	0.382436	0.905247
	H112	H	0.081604	0.903389	0.613580
	H113	H	0.093546	0.089073	0.381002
	H114	H	0.903825	0.096874	0.615211
	H115	H	0.899569	0.904025	0.378107
	H116	H	0.614158	0.090383	0.904040
	H117	H	0.382165	0.093534	0.079619
	H118	H	0.617388	0.904432	0.091985
	H119	H	0.376407	0.900996	0.903245
	C120	C	0.375117	0.010928	0.619462
	C121	C	0.617762	0.993106	0.618607
	C122	C	0.618631	0.010486	0.374894
	C123	C	0.375873	0.993221	0.375542
	C124	C	0.620284	0.379593	0.006071
	C125	C	0.620368	0.623450	0.988703
	C126	C	0.375995	0.623360	0.005907
	C127	C	0.376080	0.379280	0.988663
	C128	C	0.006811	0.622950	0.375341
	C129	C	0.989217	0.622066	0.618810
	C130	C	0.007720	0.380044	0.619201
	C131	C	0.988588	0.380341	0.375852
	C132	C	0.877240	0.510237	0.118580
	C133	C	0.119340	0.492812	0.118685
	C134	C	0.119103	0.510368	0.875224
	C135	C	0.876767	0.492000	0.874949
	C136	C	0.119427	0.878979	0.506428
	C137	C	0.118686	0.122918	0.489373
	C138	C	0.874940	0.124094	0.506362
	C139	C	0.875020	0.879115	0.489070
	C140	C	0.506411	0.123127	0.875396
	C141	C	0.488127	0.123144	0.118523
	C142	C	0.506242	0.880518	0.118805
	C143	C	0.488317	0.880086	0.875546
	C144	C	0.377122	0.886548	0.674301
	C145	C	0.615812	0.116883	0.673607
	C146	C	0.617359	0.886864	0.319556
	C147	C	0.377507	0.117363	0.320615
	C148	C	0.674151	0.382868	0.882376
	C149	C	0.676227	0.620883	0.111966
	C150	C	0.321250	0.620925	0.882099
	C151	C	0.320669	0.381766	0.111671
	C152	C	0.882493	0.677821	0.377846
	C153	C	0.113257	0.677126	0.615756
	C154	C	0.882850	0.325996	0.616260
	C155	C	0.112979	0.325022	0.378947
	C156	C	0.883684	0.381368	0.674514
	C157	C	0.113107	0.620991	0.673577
	C158	C	0.882864	0.621692	0.319746
	C159	C	0.112740	0.381661	0.320891
	C160	C	0.378646	0.678637	0.882493
	C161	C	0.617878	0.678318	0.112318
	C162	C	0.616812	0.325404	0.882699
	C163	C	0.379043	0.324744	0.112290
	C164	C	0.673895	0.886354	0.378043
	C165	C	0.671952	0.117473	0.615586
	C166	C	0.321325	0.885991	0.615986
	C167	C	0.321164	0.117572	0.379069
	C168	C	0.878439	0.386778	0.174547
	C169	C	0.117996	0.616747	0.173777
	C170	C	0.117802	0.385909	0.821173
	C171	C	0.879199	0.616126	0.820148
	C172	C	0.173781	0.882412	0.382728
	C173	C	0.174013	0.120048	0.612420
	C174	C	0.820450	0.121579	0.382872
	C175	C	0.820437	0.882410	0.612703
	C176	C	0.382023	0.177962	0.879134
	C177	C	0.613001	0.176600	0.115548
	C178	C	0.382278	0.825323	0.116505
	C179	C	0.612650	0.825235	0.878020
	C180	C	0.382501	0.881485	0.174499
	C181	C	0.612157	0.121464	0.173905
	C182	C	0.382137	0.121613	0.820728
	C183	C	0.611863	0.881449	0.819934
	C184	C	0.877898	0.179256	0.382961
	C185	C	0.116037	0.177308	0.612778
	C186	C	0.115666	0.825464	0.382610
	C187	C	0.877603	0.823836	0.612379
	C188	C	0.174101	0.386038	0.878741
	C189	C	0.174044	0.617120	0.115563
	C190	C	0.822806	0.385833	0.115903
	C191	C	0.822287	0.616628	0.877940
	C192	C	0.397418	0.097515	0.597567
	C193	C	0.595689	0.906669	0.596527
	C194	C	0.595477	0.097028	0.397285
	C195	C	0.398743	0.906756	0.397859
	C196	C	0.598815	0.401249	0.092548
	C197	C	0.597943	0.601622	0.903010
	C198	C	0.398278	0.600947	0.091652
	C199	C	0.398769	0.401643	0.902674
	C200	C	0.093263	0.600695	0.397536
	C201	C	0.902578	0.599144	0.596989
	C202	C	0.094455	0.401646	0.597496
	C203	C	0.901930	0.403001	0.397506
	C204	C	0.899646	0.596841	0.096092
	C205	C	0.096795	0.406147	0.096831
	C206	C	0.097054	0.597091	0.896215
	C207	C	0.898478	0.405314	0.896987
	C208	C	0.097790	0.900367	0.592858
	C209	C	0.096706	0.101260	0.403029
	C210	C	0.896427	0.101947	0.592595
	C211	C	0.897741	0.901483	0.403388
	C212	C	0.593120	0.101083	0.896756
	C213	C	0.401410	0.101153	0.097068
	C214	C	0.592806	0.902925	0.096656
	C215	C	0.401632	0.902545	0.897983
	Zn216	Zn	0.496535	0.001501	0.747366
	Zn217	Zn	0.496539	0.002225	0.246376
	Zn218	Zn	0.748936	0.500734	-0.002656
	Zn219	Zn	0.247046	0.501504	-0.003283
	Zn220	Zn	-0.002447	0.750165	0.497563
	Zn221	Zn	-0.002371	0.252447	0.498359
	Zn222	Zn	-0.001285	0.500468	0.746898
	Zn223	Zn	-0.001800	0.501694	0.247169
	Zn224	Zn	0.497624	0.752478	-0.002483
	Zn225	Zn	0.498199	0.251008	-0.002265
	Zn226	Zn	0.746415	0.001865	0.497709
	Zn227	Zn	0.247634	0.001053	0.497831
	N228	N	0.410006	0.965034	0.676437
	N229	N	0.582786	0.038600	0.675722
	N230	N	0.583612	0.965199	0.317533
	N231	N	0.410866	0.039021	0.318419
	N232	N	0.676330	0.415860	0.960153
	N233	N	0.678072	0.587600	0.034206
	N234	N	0.319588	0.587081	0.959685
	N235	N	0.318965	0.415164	0.033771
	N236	N	0.960433	0.678597	0.411740
	N237	N	0.034983	0.678126	0.582529
	N238	N	0.960970	0.325005	0.582541
	N239	N	0.034868	0.324032	0.412362
	N240	N	0.962152	0.414038	0.676584
	N241	N	0.034990	0.587246	0.675553
	N242	N	0.961148	0.588163	0.318018
	N243	N	0.034395	0.415316	0.318915
	N244	N	0.412102	0.680200	0.960270
	N245	N	0.584021	0.680247	0.034842
	N246	N	0.584215	0.323000	0.960794
	N247	N	0.412724	0.323131	0.034735
	N248	N	0.674634	0.964355	0.411728
	N249	N	0.673203	0.039568	0.581759
	N250	N	0.319942	0.964164	0.582550
	N251	N	0.320061	0.039310	0.412500
	N252	N	0.911853	0.464894	0.175896
	N253	N	0.084661	0.538450	0.175838
	N254	N	0.084326	0.464240	0.818796
	N255	N	0.912251	0.537524	0.818344
	N256	N	0.176449	0.914718	0.460831
	N257	N	0.175662	0.086814	0.534598
	N258	N	0.818404	0.087962	0.460563
	N259	N	0.818671	0.916007	0.535021
	N260	N	0.460345	0.179184	0.912383
	N261	N	0.535214	0.177620	0.081754
	N262	N	0.460271	0.824725	0.082591
	N263	N	0.534669	0.824372	0.912002
	N264	N	0.460720	0.915088	0.176162
	N265	N	0.533407	0.088881	0.176014
	N266	N	0.460360	0.088280	0.818311
	N267	N	0.533581	0.914933	0.818441
	N268	N	0.911112	0.181012	0.460748
	N269	N	0.082419	0.179119	0.535260
	N270	N	0.082885	0.823056	0.460634
	N271	N	0.910805	0.821594	0.534512
	N272	N	0.175205	0.464333	0.911546
	N273	N	0.174956	0.539020	0.081788
	N274	N	0.821808	0.463901	0.081823
	N275	N	0.820423	0.538419	0.911189
	O276	O	0.531405	0.529613	0.432084
	H277	H	0.532163	0.532859	0.426109
	H278	H	0.526870	0.531185	0.424749
	O279	O	0.428010	0.563727	0.497808
	H280	H	0.422399	0.558917	0.495947
	H281	H	0.429297	0.551234	0.488707
	O282	O	0.580756	0.480729	0.475820
	H283	H	0.581474	0.482605	0.473330
	H284	H	0.580712	0.474625	0.474887
	O285	O	0.026747	0.992228	1.004140
	H286	H	0.035274	0.987994	1.013103
	H287	H	0.021881	0.986219	1.001037
	O288	O	0.464198	0.553229	0.421701
	H289	H	0.452220	0.553837	0.422797
	H290	H	0.466139	0.559529	0.433246
	O291	O	-0.033455	-0.053667	1.022778
	H292	H	-0.036350	-0.052727	1.019436
	H293	H	-0.031143	-0.046242	1.016799
	O294	O	0.544790	0.479245	0.516969
	H295	H	0.536908	0.479524	0.520150
	H296	H	0.546606	0.472199	0.521360
	O297	O	0.521934	0.488866	0.451875
	H298	H	0.526034	0.484849	0.451392
	H299	H	0.524694	0.495136	0.439497
	O300	O	0.462532	0.530358	0.578707
	H301	H	0.458289	0.529310	0.579434
	H302	H	0.472349	0.534740	0.585430
	O303	O	0.518173	0.504083	0.435759
	H304	H	0.525796	0.505678	0.434391
	H305	H	0.517728	0.498114	0.436486
	O306	O	1.026926	0.001702	1.046738
	H307	H	1.019664	0.008339	1.049806
	H308	H	1.018392	-0.005021	1.042174
	O309	O	0.551504	0.593296	0.517044
	H310	H	0.567185	0.598152	0.520758
	H311	H	0.539085	0.591017	0.506729
	O312	O	0.466483	0.527885	0.587242
	H313	H	0.479314	0.527367	0.590987
	H314	H	0.480700	0.530831	0.582941
	O315	O	0.957352	-0.032291	1.045121
	H316	H	0.963014	-0.028232	1.040792
	H317	H	0.954681	-0.025779	1.044830
	O318	O	-0.076214	-0.015659	0.002719
	H319	H	-0.070007	-0.020236	-0.000052
	H320	H	-0.070669	-0.020220	0.008640
	O321	O	0.475292	0.495127	0.572548
	H322	H	0.476038	0.497580	0.577615
	H323	H	0.473986	0.503053	0.573377
	O324	O	1.012874	-0.001125	0.087565
	H325	H	1.007334	-0.003885	0.089026
	H326	H	1.002535	0.000419	0.102053
	O327	O	0.972005	0.950344	-0.004384
	H328	H	0.979079	0.952604	-0.008230
	H329	H	0.972159	0.942730	-0.000303
	O330	O	0.490253	0.541694	0.493376
	H331	H	0.477864	0.546774	0.493414
	H332	H	0.488411	0.545913	0.510414
	O333	O	0.501765	0.517924	0.475427
	H334	H	0.509847	0.514483	0.478510
	H335	H	0.496226	0.514337	0.481902
