data_Molecule from HDF5

_cell_length_a		16.232479
_cell_length_b		16.257575
_cell_length_c		16.250897
_cell_angle_alpha	89.977208
_cell_angle_beta	90.041367
_cell_angle_gamma	90.004089
_symmetry_space_group_name_H-M	'P 1'
_symmetry_Int_Tables_number		1

loop_
	_symmetry_equiv_pos_as_xyz
	x,y,z

loop_
	_atom_site_label
	_atom_site_type_symbol
	_atom_site_fract_x
	_atom_site_fract_y
	_atom_site_fract_z
	H0	H	0.402511	0.836382	0.713379
	H1	H	0.598933	0.163879	0.714492
	H2	H	0.598183	0.835902	0.284998
	H3	H	0.401863	0.163621	0.284853
	H4	H	0.713844	0.401800	0.835959
	H5	H	0.714100	0.598520	0.164989
	H6	H	0.285690	0.597978	0.835915
	H7	H	0.286938	0.402337	0.164495
	H8	H	0.835063	0.713055	0.402831
	H9	H	0.164443	0.714484	0.598873
	H10	H	0.835550	0.286143	0.597930
	H11	H	0.164688	0.286427	0.402081
	H12	H	0.835689	0.401882	0.713859
	H13	H	0.164105	0.597936	0.714240
	H14	H	0.835885	0.598517	0.285778
	H15	H	0.164333	0.403525	0.286880
	H16	H	0.402231	0.713234	0.835984
	H17	H	0.597948	0.714355	0.164050
	H18	H	0.598385	0.285698	0.836123
	H19	H	0.400773	0.284052	0.163228
	H20	H	0.713070	0.835817	0.401665
	H21	H	0.713494	0.164250	0.597384
	H22	H	0.287048	0.835943	0.597188
	H23	H	0.287176	0.164715	0.401851
	H24	H	0.900823	0.336326	0.214985
	H25	H	0.098373	0.664420	0.213014
	H26	H	0.098500	0.336117	0.785509
	H27	H	0.902276	0.664549	0.786379
	H28	H	0.212979	0.903154	0.335357
	H29	H	0.215046	0.098840	0.663674
	H30	H	0.787600	0.097255	0.335278
	H31	H	0.785772	0.902345	0.663885
	H32	H	0.335569	0.213734	0.901421
	H33	H	0.664355	0.213544	0.097519
	H34	H	0.335670	0.786603	0.097068
	H35	H	0.664338	0.785314	0.902312
	H36	H	0.335690	0.901913	0.213110
	H37	H	0.664460	0.097817	0.213488
	H38	H	0.336181	0.098784	0.785327
	H39	H	0.664574	0.902080	0.787565
	H40	H	0.902367	0.213832	0.336072
	H41	H	0.097754	0.213287	0.664798
	H42	H	0.098102	0.785741	0.336070
	H43	H	0.901372	0.785462	0.663850
	H44	H	0.214056	0.335651	0.901879
	H45	H	0.214923	0.663763	0.098347
	H46	H	0.785969	0.336040	0.097897
	H47	H	0.786320	0.664527	0.902276
	H48	H	0.414916	0.117643	0.603224
	H49	H	0.593691	0.882088	0.594535
	H50	H	0.592829	0.112696	0.418863
	H51	H	0.405410	0.882486	0.405194
	H52	H	0.583233	0.404961	0.114250
	H53	H	0.586001	0.596920	0.884232
	H54	H	0.413766	0.598034	0.116629
	H55	H	0.414679	0.393742	0.881544
	H56	H	0.115064	0.591022	0.409916
	H57	H	0.884920	0.599434	0.580072
	H58	H	0.113673	0.406547	0.581256
	H59	H	0.882714	0.407871	0.406368
	H60	H	0.115728	0.417921	0.599259
	H61	H	0.886622	0.578541	0.594928
	H62	H	0.118331	0.592016	0.401507
	H63	H	0.882548	0.405808	0.407100
	H64	H	0.399690	0.596997	0.120175
	H65	H	0.599610	0.596926	0.880842
	H66	H	0.598488	0.399387	0.121392
	H67	H	0.392340	0.407503	0.879064
	H68	H	0.604923	0.121986	0.401535
	H69	H	0.594371	0.882497	0.594524
	H70	H	0.412594	0.111657	0.581489
	H71	H	0.406556	0.882524	0.405977
	H72	H	0.903293	0.617430	0.091961
	H73	H	0.084187	0.383581	0.099180
	H74	H	0.091076	0.619344	0.897302
	H75	H	0.899332	0.383528	0.915590
	H76	H	0.095159	0.909207	0.616624
	H77	H	0.083633	0.108086	0.381694
	H78	H	0.907120	0.100456	0.619441
	H79	H	0.910509	0.917026	0.387600
	H80	H	0.616188	0.090765	0.906201
	H81	H	0.381047	0.091474	0.100474
	H82	H	0.619120	0.902186	0.093265
	H83	H	0.384249	0.911780	0.906409
	H84	H	0.615925	0.908875	0.089490
	H85	H	0.381815	0.100621	0.089405
	H86	H	0.617737	0.094876	0.905639
	H87	H	0.380654	0.904523	0.900825
	H88	H	0.899306	0.089683	0.618642
	H89	H	0.109306	0.094410	0.378420
	H90	H	0.090659	0.907856	0.616381
	H91	H	0.913152	0.895684	0.381830
	H92	H	0.086237	0.612558	0.912867
	H93	H	0.093803	0.385502	0.083570
	H94	H	0.907081	0.618247	0.097251
	H95	H	0.904074	0.379452	0.896128
	H96	H	0.395544	0.120580	0.592378
	H97	H	0.593722	0.882831	0.594705
	H98	H	0.582633	0.116392	0.398606
	H99	H	0.405762	0.882884	0.406684
	H100	H	0.596844	0.415666	0.115181
	H101	H	0.593929	0.585590	0.885530
	H102	H	0.407194	0.585555	0.115148
	H103	H	0.414190	0.418554	0.887890
	H104	H	0.118634	0.599261	0.407914
	H105	H	0.877385	0.600791	0.604558
	H106	H	0.121599	0.397085	0.598984
	H107	H	0.883805	0.406738	0.408359
	H108	H	0.909502	0.615404	0.091669
	H109	H	0.101774	0.378756	0.099230
	H110	H	0.102331	0.617642	0.910466
	H111	H	0.917679	0.387213	0.908812
	H112	H	0.093641	0.905132	0.617409
	H113	H	0.086114	0.079969	0.389428
	H114	H	0.911871	0.088771	0.613848
	H115	H	0.893830	0.904873	0.379272
	H116	H	0.616959	0.093783	0.908767
	H117	H	0.386111	0.087039	0.087850
	H118	H	0.617768	0.909090	0.097555
	H119	H	0.382953	0.902925	0.910395
	C120	C	0.378688	0.008409	0.621191
	C121	C	0.621994	0.991401	0.622146
	C122	C	0.621284	0.008422	0.378135
	C123	C	0.378056	0.991353	0.377789
	C124	C	0.621670	0.378373	0.008636
	C125	C	0.621731	0.621524	0.992044
	C126	C	0.378403	0.621341	0.008588
	C127	C	0.378722	0.378165	0.991462
	C128	C	0.008595	0.621860	0.378321
	C129	C	0.991600	0.621453	0.621508
	C130	C	0.008703	0.378329	0.621756
	C131	C	0.991610	0.378694	0.378794
	C132	C	0.878131	0.508560	0.122100
	C133	C	0.121795	0.491575	0.121840
	C134	C	0.121446	0.508176	0.878568
	C135	C	0.878117	0.491821	0.878396
	C136	C	0.121267	0.878877	0.508192
	C137	C	0.121610	0.122056	0.491789
	C138	C	0.878222	0.121555	0.508636
	C139	C	0.878002	0.878119	0.491381
	C140	C	0.508530	0.121638	0.878223
	C141	C	0.491424	0.121501	0.121272
	C142	C	0.508475	0.878587	0.121039
	C143	C	0.491428	0.878216	0.878172
	C144	C	0.381783	0.885202	0.675884
	C145	C	0.619279	0.114986	0.676586
	C146	C	0.618344	0.884740	0.323345
	C147	C	0.381517	0.114944	0.323115
	C148	C	0.676668	0.380738	0.885251
	C149	C	0.676196	0.618757	0.115828
	C150	C	0.323804	0.618331	0.884838
	C151	C	0.323960	0.381017	0.115147
	C152	C	0.884405	0.675906	0.381669
	C153	C	0.115247	0.676590	0.619053
	C154	C	0.884650	0.323754	0.618838
	C155	C	0.115503	0.324104	0.381510
	C156	C	0.884630	0.381543	0.676097
	C157	C	0.115529	0.618623	0.676153
	C158	C	0.884640	0.618837	0.323738
	C159	C	0.115527	0.382113	0.324201
	C160	C	0.381424	0.675652	0.884868
	C161	C	0.618839	0.676509	0.115410
	C162	C	0.619258	0.323094	0.885255
	C163	C	0.380764	0.322751	0.114683
	C164	C	0.675496	0.884663	0.381153
	C165	C	0.676400	0.115097	0.618615
	C166	C	0.323991	0.885106	0.618519
	C167	C	0.324487	0.115423	0.381166
	C168	C	0.880571	0.385231	0.177131
	C169	C	0.119103	0.615221	0.176122
	C170	C	0.119080	0.384919	0.823543
	C171	C	0.881256	0.615404	0.823793
	C172	C	0.175508	0.882296	0.384493
	C173	C	0.176903	0.119330	0.615024
	C174	C	0.824304	0.118405	0.384719
	C175	C	0.823979	0.881846	0.615188
	C176	C	0.384750	0.175886	0.881145
	C177	C	0.615305	0.176000	0.118248
	C178	C	0.384569	0.824073	0.117659
	C179	C	0.615200	0.823346	0.881541
	C180	C	0.384560	0.881585	0.175187
	C181	C	0.615318	0.118702	0.175894
	C182	C	0.384863	0.118881	0.823459
	C183	C	0.615548	0.881287	0.824551
	C184	C	0.881289	0.176419	0.385268
	C185	C	0.119078	0.176568	0.615323
	C186	C	0.118394	0.824048	0.384798
	C187	C	0.881162	0.823671	0.615143
	C188	C	0.176190	0.384673	0.881460
	C189	C	0.176609	0.614983	0.118813
	C190	C	0.823496	0.385179	0.118884
	C191	C	0.823634	0.615359	0.881615
	C192	C	0.401077	0.094493	0.598866
	C193	C	0.600318	0.904988	0.600954
	C194	C	0.599686	0.094750	0.399781
	C195	C	0.399566	0.904964	0.399384
	C196	C	0.599536	0.400256	0.094789
	C197	C	0.599706	0.599656	0.905937
	C198	C	0.400425	0.599795	0.094777
	C199	C	0.400632	0.400023	0.905262
	C200	C	0.095097	0.600269	0.399891
	C201	C	0.905233	0.599336	0.599682
	C202	C	0.094781	0.400468	0.599620
	C203	C	0.905396	0.400442	0.400723
	C204	C	0.900259	0.594859	0.100249
	C205	C	0.099759	0.405007	0.100383
	C206	C	0.099629	0.594422	0.900308
	C207	C	0.900392	0.405496	0.900410
	C208	C	0.099566	0.900849	0.594451
	C209	C	0.099629	0.100407	0.405372
	C210	C	0.899761	0.099544	0.594983
	C211	C	0.899384	0.899678	0.405124
	C212	C	0.594684	0.099765	0.900421
	C213	C	0.405162	0.099410	0.099189
	C214	C	0.595158	0.900197	0.099689
	C215	C	0.404963	0.899861	0.899494
	Zn216	Zn	0.500549	0.000209	0.749900
	Zn217	Zn	0.500021	-0.000430	0.249603
	Zn218	Zn	0.749735	0.500294	0.000054
	Zn219	Zn	0.249933	0.499796	0.000257
	Zn220	Zn	0.000095	0.749806	0.500296
	Zn221	Zn	-0.000126	0.250114	0.500321
	Zn222	Zn	0.000021	0.499892	0.750006
	Zn223	Zn	0.000043	0.500124	0.250282
	Zn224	Zn	0.499937	0.750057	-0.000180
	Zn225	Zn	0.499828	0.249691	0.000029
	Zn226	Zn	0.749701	-0.000179	0.499750
	Zn227	Zn	0.249805	0.000188	0.499791
	N228	N	0.414973	0.963069	0.677717
	N229	N	0.586222	0.037161	0.678782
	N230	N	0.585603	0.962745	0.321356
	N231	N	0.414285	0.036963	0.321164
	N232	N	0.678180	0.414417	0.962893
	N233	N	0.678133	0.585415	0.038024
	N234	N	0.321634	0.585335	0.962828
	N235	N	0.322508	0.414956	0.037405
	N236	N	0.962476	0.677945	0.414742
	N237	N	0.037246	0.678334	0.585771
	N238	N	0.962542	0.321807	0.585633
	N239	N	0.037562	0.321802	0.414734
	N240	N	0.962720	0.414638	0.677995
	N241	N	0.037709	0.584943	0.677712
	N242	N	0.962760	0.585968	0.321600
	N243	N	0.037663	0.415276	0.322414
	N244	N	0.414685	0.677608	0.962747
	N245	N	0.585752	0.678458	0.037478
	N246	N	0.585404	0.321534	0.962925
	N247	N	0.414025	0.321121	0.036965
	N248	N	0.677468	0.962329	0.414716
	N249	N	0.677909	0.037344	0.585216
	N250	N	0.322094	0.962793	0.585053
	N251	N	0.322012	0.037587	0.414446
	N252	N	0.913734	0.463002	0.179312
	N253	N	0.085423	0.537408	0.177985
	N254	N	0.085829	0.462690	0.821525
	N255	N	0.914608	0.537513	0.821766
	N256	N	0.177384	0.915568	0.462291
	N257	N	0.178464	0.086151	0.537090
	N258	N	0.822155	0.084992	0.462540
	N259	N	0.821813	0.914961	0.537270
	N260	N	0.462555	0.177588	0.914571
	N261	N	0.537275	0.177892	0.085091
	N262	N	0.462630	0.822343	0.084634
	N263	N	0.537310	0.821729	0.914531
	N264	N	0.462464	0.914772	0.177288
	N265	N	0.537419	0.085202	0.177770
	N266	N	0.462858	0.085835	0.821352
	N267	N	0.537591	0.914829	0.822382
	N268	N	0.914207	0.178454	0.463231
	N269	N	0.084988	0.178130	0.537799
	N270	N	0.085417	0.821770	0.462722
	N271	N	0.914225	0.821390	0.537387
	N272	N	0.177703	0.462282	0.915161
	N273	N	0.178598	0.537119	0.086104
	N274	N	0.822048	0.462919	0.085310
	N275	N	0.821584	0.537413	0.914581
