data_Molecule from HDF5

_cell_length_a		16.239535
_cell_length_b		16.106498
_cell_length_c		16.220234
_cell_angle_alpha	90.368175
_cell_angle_beta	90.700014
_cell_angle_gamma	89.734097
_symmetry_space_group_name_H-M	'P 1'
_symmetry_Int_Tables_number		1

loop_
	_symmetry_equiv_pos_as_xyz
	x,y,z

loop_
	_atom_site_label
	_atom_site_type_symbol
	_atom_site_fract_x
	_atom_site_fract_y
	_atom_site_fract_z
	H0	H	0.400614	0.835529	0.709058
	H1	H	0.597109	0.165223	0.715595
	H2	H	0.595243	0.836066	0.283431
	H3	H	0.393499	0.166070	0.282021
	H4	H	0.708837	0.399351	0.832680
	H5	H	0.716100	0.601982	0.159839
	H6	H	0.277413	0.600109	0.833190
	H7	H	0.284107	0.401233	0.160843
	H8	H	0.833190	0.716810	0.397315
	H9	H	0.161221	0.715524	0.599622
	H10	H	0.832320	0.290419	0.590433
	H11	H	0.161186	0.284035	0.399058
	H12	H	0.832115	0.404108	0.706980
	H13	H	0.159992	0.602080	0.715984
	H14	H	0.834189	0.602707	0.278946
	H15	H	0.161586	0.398719	0.282973
	H16	H	0.395468	0.712820	0.831930
	H17	H	0.596931	0.714916	0.161479
	H18	H	0.591946	0.285379	0.833550
	H19	H	0.402476	0.290904	0.162580
	H20	H	0.711443	0.836582	0.398489
	H21	H	0.711324	0.166278	0.600704
	H22	H	0.285662	0.836219	0.594889
	H23	H	0.280256	0.165304	0.397348
	H24	H	0.900876	0.336184	0.207704
	H25	H	0.099911	0.664442	0.214717
	H26	H	0.094437	0.335870	0.782161
	H27	H	0.895625	0.666933	0.783581
	H28	H	0.211896	0.899814	0.333525
	H29	H	0.215200	0.104276	0.660938
	H30	H	0.777599	0.101858	0.334395
	H31	H	0.785949	0.903801	0.662344
	H32	H	0.332465	0.214184	0.899583
	H33	H	0.660480	0.214765	0.100772
	H34	H	0.331955	0.788053	0.091947
	H35	H	0.660767	0.783923	0.900769
	H36	H	0.331611	0.902227	0.208384
	H37	H	0.658910	0.101214	0.216168
	H38	H	0.333867	0.101822	0.780480
	H39	H	0.661413	0.898835	0.785204
	H40	H	0.896900	0.212377	0.331896
	H41	H	0.096379	0.216583	0.661824
	H42	H	0.095718	0.784903	0.333944
	H43	H	0.902824	0.790229	0.662599
	H44	H	0.208642	0.334656	0.898394
	H45	H	0.211815	0.665348	0.098147
	H46	H	0.788292	0.335221	0.091439
	H47	H	0.778264	0.664918	0.895741
	H48	H	0.402197	0.120856	0.591220
	H49	H	0.603288	0.876362	0.600413
	H50	H	0.579637	0.118912	0.401280
	H51	H	0.400864	0.882081	0.402442
	H52	H	0.598117	0.402893	0.117525
	H53	H	0.593533	0.589460	0.878251
	H54	H	0.396424	0.589388	0.115780
	H55	H	0.399881	0.410298	0.879342
	H56	H	0.113415	0.587742	0.404328
	H57	H	0.880958	0.594082	0.585961
	H58	H	0.116921	0.402570	0.596035
	H59	H	0.879348	0.405459	0.400819
	H60	H	0.112258	0.408453	0.583409
	H61	H	0.879251	0.595030	0.594139
	H62	H	0.115727	0.596855	0.403775
	H63	H	0.881189	0.410773	0.402690
	H64	H	0.410962	0.589499	0.109880
	H65	H	0.583653	0.585892	0.882728
	H66	H	0.598250	0.412597	0.115920
	H67	H	0.406056	0.407469	0.880418
	H68	H	0.585805	0.115972	0.416355
	H69	H	0.578554	0.884710	0.596149
	H70	H	0.407975	0.119878	0.593016
	H71	H	0.408659	0.882995	0.401567
	H72	H	0.910565	0.616760	0.082267
	H73	H	0.091177	0.385767	0.076646
	H74	H	0.092594	0.619149	0.912020
	H75	H	0.900586	0.383976	0.908768
	H76	H	0.091553	0.907380	0.615239
	H77	H	0.091942	0.104372	0.375443
	H78	H	0.900240	0.097855	0.616927
	H79	H	0.903499	0.903108	0.379017
	H80	H	0.615441	0.095757	0.908178
	H81	H	0.378330	0.093243	0.092169
	H82	H	0.611781	0.918443	0.098436
	H83	H	0.380007	0.909056	0.902000
	H84	H	0.618341	0.897772	0.098428
	H85	H	0.376984	0.098695	0.091718
	H86	H	0.612743	0.090148	0.909207
	H87	H	0.378636	0.908180	0.900110
	H88	H	0.905805	0.092566	0.613523
	H89	H	0.097667	0.082409	0.380782
	H90	H	0.096165	0.910653	0.615234
	H91	H	0.897347	0.913505	0.380235
	H92	H	0.088871	0.620669	0.900198
	H93	H	0.102924	0.376912	0.094838
	H94	H	0.899120	0.620175	0.085797
	H95	H	0.897089	0.378750	0.894436
	H96	H	0.406748	0.118567	0.588062
	H97	H	0.596436	0.885343	0.577088
	H98	H	0.595094	0.122308	0.405452
	H99	H	0.405829	0.884172	0.408133
	H100	H	0.589996	0.408195	0.114019
	H101	H	0.583967	0.596089	0.878724
	H102	H	0.405171	0.602912	0.115474
	H103	H	0.400192	0.404337	0.877914
	H104	H	0.112993	0.593281	0.412086
	H105	H	0.877867	0.601926	0.589255
	H106	H	0.113424	0.416414	0.595296
	H107	H	0.880231	0.409781	0.396981
	H108	H	0.909271	0.620672	0.094741
	H109	H	0.080223	0.383179	0.096637
	H110	H	0.080136	0.616086	0.908051
	H111	H	0.911251	0.383507	0.897266
	H112	H	0.091414	0.912546	0.613658
	H113	H	0.076586	0.090065	0.384204
	H114	H	0.907235	0.101140	0.616013
	H115	H	0.908298	0.913644	0.383129
	H116	H	0.614816	0.091411	0.903751
	H117	H	0.379077	0.095378	0.086789
	H118	H	0.609815	0.908008	0.079571
	H119	H	0.379879	0.906495	0.901716
	C120	C	0.377360	0.010113	0.618355
	C121	C	0.620428	0.991786	0.620981
	C122	C	0.616850	0.010129	0.377242
	C123	C	0.374762	0.992261	0.375032
	C124	C	0.620324	0.378346	0.006557
	C125	C	0.618112	0.621052	0.988305
	C126	C	0.374044	0.622217	0.005245
	C127	C	0.375215	0.379396	0.988291
	C128	C	0.006129	0.622673	0.376235
	C129	C	0.987939	0.624796	0.620138
	C130	C	0.005516	0.381035	0.617585
	C131	C	0.988595	0.378542	0.373252
	C132	C	0.878056	0.509930	0.115683
	C133	C	0.120215	0.491292	0.119391
	C134	C	0.116402	0.509422	0.876976
	C135	C	0.873585	0.491646	0.872722
	C136	C	0.120310	0.880288	0.506191
	C137	C	0.118768	0.122808	0.488764
	C138	C	0.874231	0.124369	0.506292
	C139	C	0.876335	0.881554	0.489655
	C140	C	0.506203	0.121961	0.876934
	C141	C	0.486998	0.123825	0.120503
	C142	C	0.504763	0.879480	0.118868
	C143	C	0.487975	0.878089	0.874510
	C144	C	0.380020	0.885263	0.672207
	C145	C	0.617520	0.115983	0.677408
	C146	C	0.615632	0.885912	0.321284
	C147	C	0.374679	0.116408	0.319775
	C148	C	0.672393	0.379244	0.882165
	C149	C	0.676668	0.621147	0.111149
	C150	C	0.316186	0.620403	0.882086
	C151	C	0.321554	0.382009	0.111953
	C152	C	0.882428	0.679049	0.376859
	C153	C	0.111814	0.678759	0.619426
	C154	C	0.881384	0.327402	0.612057
	C155	C	0.112148	0.322193	0.377890
	C156	C	0.881260	0.383654	0.670088
	C157	C	0.111124	0.622196	0.677447
	C158	C	0.882909	0.622251	0.318197
	C159	C	0.112331	0.379337	0.320098
	C160	C	0.375180	0.676279	0.881291
	C161	C	0.617147	0.677075	0.112055
	C162	C	0.614296	0.322676	0.882661
	C163	C	0.380406	0.326745	0.112810
	C164	C	0.673211	0.885943	0.378644
	C165	C	0.674065	0.116592	0.620167
	C166	C	0.322978	0.885615	0.615260
	C167	C	0.318127	0.116355	0.376915
	C168	C	0.880677	0.385485	0.170121
	C169	C	0.118945	0.615432	0.175869
	C170	C	0.114232	0.384974	0.820576
	C171	C	0.875687	0.617154	0.820269
	C172	C	0.174453	0.880274	0.382796
	C173	C	0.176156	0.123158	0.612066
	C174	C	0.816593	0.121550	0.383210
	C175	C	0.823071	0.883418	0.613206
	C176	C	0.382015	0.177006	0.878741
	C177	C	0.610989	0.177666	0.119881
	C178	C	0.380945	0.825086	0.113651
	C179	C	0.611656	0.821788	0.879141
	C180	C	0.380934	0.881777	0.171689
	C181	C	0.610294	0.121021	0.177434
	C182	C	0.382677	0.121106	0.819704
	C183	C	0.612014	0.878915	0.821712
	C184	C	0.876218	0.176645	0.381921
	C185	C	0.116777	0.178977	0.612484
	C186	C	0.116696	0.823239	0.382841
	C187	C	0.881400	0.827239	0.613284
	C188	C	0.171575	0.384567	0.877993
	C189	C	0.174749	0.615725	0.117968
	C190	C	0.824479	0.384974	0.112342
	C191	C	0.817121	0.615936	0.875686
	C192	C	0.399267	0.097223	0.597095
	C193	C	0.599126	0.904803	0.598092
	C194	C	0.593723	0.096595	0.400765
	C195	C	0.398042	0.905610	0.397470
	C196	C	0.601130	0.401137	0.093311
	C197	C	0.594241	0.597295	0.902131
	C198	C	0.397353	0.600351	0.091471
	C199	C	0.395901	0.400937	0.901795
	C200	C	0.091692	0.599326	0.399747
	C201	C	0.901592	0.603280	0.596726
	C202	C	0.091723	0.402849	0.597570
	C203	C	0.902584	0.401880	0.393945
	C204	C	0.899868	0.596673	0.093894
	C205	C	0.097943	0.404402	0.096243
	C206	C	0.093752	0.596293	0.899905
	C207	C	0.896213	0.404668	0.893829
	C208	C	0.099506	0.903448	0.592292
	C209	C	0.095729	0.099106	0.402416
	C210	C	0.897744	0.103342	0.593061
	C211	C	0.896979	0.903640	0.403222
	C212	C	0.592077	0.099076	0.900221
	C213	C	0.400715	0.102384	0.096999
	C214	C	0.591074	0.901428	0.098160
	C215	C	0.401863	0.901119	0.895006
	Zn216	Zn	0.497926	0.000437	0.747024
	Zn217	Zn	0.495396	0.001221	0.247926
	Zn218	Zn	0.748186	0.500127	-0.003783
	Zn219	Zn	0.246215	0.499987	-0.002939
	Zn220	Zn	-0.002451	0.752239	0.497662
	Zn221	Zn	-0.002967	0.251487	0.496753
	Zn222	Zn	-0.004419	0.501734	0.746940
	Zn223	Zn	-0.001939	0.501070	0.245754
	Zn224	Zn	0.496515	0.750314	-0.003125
	Zn225	Zn	0.497252	0.251008	-0.001463
	Zn226	Zn	0.746401	0.001839	0.498694
	Zn227	Zn	0.248800	0.001693	0.497774
	N228	N	0.413094	0.963719	0.674144
	N229	N	0.584741	0.037345	0.678049
	N230	N	0.581246	0.964106	0.320510
	N231	N	0.409017	0.038083	0.318370
	N232	N	0.676431	0.413054	0.960199
	N233	N	0.677118	0.586868	0.033253
	N234	N	0.315564	0.587305	0.960059
	N235	N	0.318306	0.414193	0.033517
	N236	N	0.959873	0.679458	0.412210
	N237	N	0.034207	0.680439	0.584423
	N238	N	0.959640	0.325505	0.580099
	N239	N	0.034212	0.321298	0.410079
	N240	N	0.959365	0.416319	0.673739
	N241	N	0.032989	0.589495	0.678169
	N242	N	0.960879	0.588077	0.317301
	N243	N	0.034553	0.413795	0.317136
	N244	N	0.410370	0.677825	0.958936
	N245	N	0.581480	0.677030	0.034605
	N246	N	0.582732	0.321817	0.960957
	N247	N	0.413178	0.324906	0.035021
	N248	N	0.674282	0.964415	0.412784
	N249	N	0.676041	0.038376	0.585672
	N250	N	0.321086	0.964376	0.582506
	N251	N	0.318062	0.038175	0.410619
	N252	N	0.913391	0.464133	0.172337
	N253	N	0.085877	0.537061	0.177030
	N254	N	0.080858	0.463710	0.819557
	N255	N	0.910049	0.538817	0.818117
	N256	N	0.176775	0.915005	0.460590
	N257	N	0.177283	0.088930	0.534214
	N258	N	0.815366	0.089672	0.461787
	N259	N	0.819889	0.916585	0.535245
	N260	N	0.459637	0.177748	0.913717
	N261	N	0.533262	0.179610	0.085189
	N262	N	0.459072	0.823498	0.081612
	N263	N	0.533623	0.821020	0.911189
	N264	N	0.458838	0.914991	0.174940
	N265	N	0.532185	0.088348	0.178030
	N266	N	0.460688	0.087506	0.818311
	N267	N	0.534263	0.913357	0.818687
	N268	N	0.911329	0.178538	0.459518
	N269	N	0.081836	0.178839	0.534738
	N270	N	0.083766	0.822932	0.460560
	N271	N	0.913787	0.825906	0.535275
	N272	N	0.172812	0.462957	0.912439
	N273	N	0.175639	0.537431	0.083621
	N274	N	0.822618	0.463382	0.079027
	N275	N	0.815620	0.537016	0.907622
	O276	O	-0.024936	0.076303	-0.007371
	H277	H	-0.019079	0.066037	-0.014773
	H278	H	-0.019744	0.080651	-0.000950
	O279	O	0.432935	0.509461	0.488220
	H280	H	0.428896	0.525979	0.485491
	H281	H	0.437020	0.491329	0.484134
	O282	O	0.515097	0.449554	0.502748
	H283	H	0.507507	0.441630	0.502175
	H284	H	0.519594	0.435561	0.496436
	O285	O	-0.066753	0.975940	0.967478
	H286	H	-0.060684	0.967448	0.963275
	H287	H	-0.061383	0.976670	0.963033
	O288	O	0.543072	0.486158	0.478150
	H289	H	0.542622	0.501549	0.480901
	H290	H	0.549180	0.477009	0.473199
	O291	O	1.025809	0.922655	0.973548
	H292	H	1.026097	0.922185	0.978055
	H293	H	1.019774	0.920885	0.975199
	O294	O	1.009957	1.050853	1.118038
	H295	H	1.006905	1.050483	1.124269
	H296	H	1.001735	1.055696	1.124594
	O297	O	1.069473	0.009876	1.028258
	H298	H	1.062343	0.012365	1.028171
	H299	H	1.079711	0.011333	1.027231
	O300	O	0.362990	0.551228	0.481779
	H301	H	0.376888	0.555855	0.472151
	H302	H	0.351803	0.557813	0.474956
	O303	O	0.913798	-0.065900	-0.049558
	H304	H	0.901735	-0.058146	-0.049423
	H305	H	0.905830	-0.068800	-0.053903
	O306	O	-0.063744	0.995932	1.082021
	H307	H	-0.059880	0.990356	1.086437
	H308	H	-0.069606	1.000723	1.084406
	O309	O	0.555144	0.381283	0.550204
	H310	H	0.554498	0.389119	0.558815
	H311	H	0.559837	0.379551	0.548549
	O312	O	1.041839	0.020078	0.962557
	H313	H	1.042876	0.023309	0.956967
	H314	H	1.052729	0.022781	0.959357
	O315	O	0.381742	0.547714	0.348164
	H316	H	0.376396	0.551338	0.353371
	H317	H	0.371378	0.554224	0.338555
	O318	O	0.548057	0.414704	0.475057
	H319	H	0.556340	0.417534	0.475364
	H320	H	0.550516	0.410957	0.479682
	O321	O	1.034782	0.971876	0.952040
	H322	H	1.040558	0.962999	0.952551
	H323	H	1.036527	0.975238	0.953184
	O324	O	0.531789	0.552737	0.498110
	H325	H	0.531601	0.538960	0.504166
	H326	H	0.535547	0.562364	0.502489
	O327	O	0.544113	0.524076	0.608207
	H328	H	0.537785	0.536866	0.610843
	H329	H	0.537743	0.529301	0.606773
	O330	O	0.911279	0.087702	0.935763
	H331	H	0.912408	0.080752	0.934503
	H332	H	0.904965	0.091828	0.931953
	O333	O	0.981529	0.980041	-0.023964
	H334	H	0.986894	0.972388	-0.034941
	H335	H	0.979290	0.981680	-0.018188
	O336	O	0.560417	0.533706	0.457446
	H337	H	0.561260	0.532964	0.448706
	H338	H	0.553843	0.530988	0.466517
	O339	O	0.380368	0.611230	0.381216
	H340	H	0.378143	0.606423	0.388861
	H341	H	0.380917	0.614842	0.376989
	O342	O	0.051697	1.042745	0.043195
	H343	H	0.057001	1.051700	0.046571
	H344	H	0.050233	1.045949	0.049573
	O345	O	-0.031923	-0.079836	0.095788
	H346	H	-0.032713	-0.083184	0.102901
	H347	H	-0.033018	-0.074626	0.091738
	O348	O	0.423796	0.533891	0.433453
	H349	H	0.421275	0.529790	0.421277
	H350	H	0.421067	0.535499	0.424711
	O351	O	0.479938	0.420611	0.568075
	H352	H	0.484601	0.415500	0.565150
	H353	H	0.484084	0.427662	0.561892
	O354	O	0.602339	0.535550	0.523349
	H355	H	0.603255	0.523168	0.523568
	H356	H	0.600179	0.540115	0.525306
	O357	O	0.589503	0.600303	0.590435
	H358	H	0.584311	0.601629	0.588936
	H359	H	0.585614	0.607260	0.591883
	O360	O	0.032701	0.004046	0.003818
	H361	H	0.026641	0.009097	-0.009290
	H362	H	0.036826	0.007641	0.003441
	O363	O	0.615749	0.504948	0.397942
	H364	H	0.623585	0.494233	0.398800
	H365	H	0.615918	0.499316	0.394018
	O366	O	0.068406	-0.014966	0.958556
	H367	H	0.070033	-0.011884	0.952314
	H368	H	0.072129	-0.017622	0.955762
	O369	O	0.403435	0.530883	0.472159
	H370	H	0.392885	0.529350	0.474270
	H371	H	0.418792	0.538694	0.474058
