data_Molecule from HDF5

_cell_length_a		16.337018
_cell_length_b		16.018453
_cell_length_c		16.302142
_cell_angle_alpha	90.105731
_cell_angle_beta	90.134524
_cell_angle_gamma	91.006953
_symmetry_space_group_name_H-M	'P 1'
_symmetry_Int_Tables_number		1

loop_
	_symmetry_equiv_pos_as_xyz
	x,y,z

loop_
	_atom_site_label
	_atom_site_type_symbol
	_atom_site_fract_x
	_atom_site_fract_y
	_atom_site_fract_z
	H0	H	0.407531	0.825043	0.699064
	H1	H	0.611175	0.157418	0.700269
	H2	H	0.606171	0.827029	0.267837
	H3	H	0.410472	0.156599	0.272051
	H4	H	0.720054	0.394427	0.821428
	H5	H	0.728032	0.598618	0.146380
	H6	H	0.291122	0.594355	0.821541
	H7	H	0.286511	0.387597	0.145857
	H8	H	0.842608	0.698738	0.385398
	H9	H	0.170021	0.707719	0.580895
	H10	H	0.844284	0.272337	0.579858
	H11	H	0.171477	0.281687	0.387535
	H12	H	0.844510	0.383912	0.700640
	H13	H	0.168359	0.595749	0.701104
	H14	H	0.845342	0.587970	0.266136
	H15	H	0.167561	0.387969	0.264256
	H16	H	0.414215	0.702969	0.819426
	H17	H	0.608574	0.709337	0.147886
	H18	H	0.602125	0.279548	0.821105
	H19	H	0.406938	0.277207	0.148654
	H20	H	0.716444	0.824188	0.386868
	H21	H	0.727147	0.155716	0.586223
	H22	H	0.288378	0.826424	0.587632
	H23	H	0.296595	0.156886	0.385805
	H24	H	0.905007	0.324363	0.195298
	H25	H	0.110407	0.655970	0.200295
	H26	H	0.102743	0.325085	0.770415
	H27	H	0.909789	0.656356	0.768078
	H28	H	0.224331	0.888842	0.322269
	H29	H	0.226743	0.094697	0.646964
	H30	H	0.791362	0.089836	0.323044
	H31	H	0.788990	0.886539	0.647535
	H32	H	0.342239	0.200365	0.888952
	H33	H	0.669859	0.210057	0.084054
	H34	H	0.345115	0.773984	0.081642
	H35	H	0.671572	0.783049	0.887166
	H36	H	0.345275	0.886534	0.201972
	H37	H	0.669214	0.098533	0.203986
	H38	H	0.346328	0.091641	0.766901
	H39	H	0.670030	0.893546	0.769673
	H40	H	0.913644	0.199469	0.319003
	H41	H	0.108383	0.208241	0.647057
	H42	H	0.100357	0.779969	0.318925
	H43	H	0.908321	0.773842	0.648397
	H44	H	0.219909	0.326128	0.883259
	H45	H	0.225599	0.656334	0.085366
	H46	H	0.787045	0.327496	0.083745
	H47	H	0.797701	0.659113	0.885125
	H48	H	0.417322	0.109381	0.578400
	H49	H	0.603588	0.871489	0.575639
	H50	H	0.595315	0.106052	0.397288
	H51	H	0.414370	0.872584	0.391905
	H52	H	0.593141	0.396980	0.100673
	H53	H	0.603929	0.589736	0.866516
	H54	H	0.406316	0.583774	0.103750
	H55	H	0.413462	0.404922	0.870324
	H56	H	0.124763	0.583649	0.387214
	H57	H	0.889092	0.582941	0.578609
	H58	H	0.125277	0.400557	0.583708
	H59	H	0.889534	0.394574	0.388153
	H60	H	0.122795	0.397246	0.573645
	H61	H	0.891575	0.579298	0.573086
	H62	H	0.123662	0.588091	0.391984
	H63	H	0.889913	0.394113	0.388302
	H64	H	0.418107	0.573200	0.096338
	H65	H	0.606744	0.586143	0.867771
	H66	H	0.608255	0.402695	0.104026
	H67	H	0.416236	0.394102	0.868090
	H68	H	0.607994	0.109411	0.400352
	H69	H	0.596353	0.871107	0.585706
	H70	H	0.419540	0.109924	0.577499
	H71	H	0.416377	0.873686	0.394877
	H72	H	0.915876	0.611791	0.081260
	H73	H	0.093001	0.375769	0.067930
	H74	H	0.095482	0.607054	0.894363
	H75	H	0.910734	0.374372	0.896818
	H76	H	0.100947	0.899728	0.600881
	H77	H	0.095324	0.087666	0.369834
	H78	H	0.921971	0.081267	0.599549
	H79	H	0.926726	0.893078	0.371817
	H80	H	0.624697	0.088325	0.889795
	H81	H	0.387225	0.082142	0.092986
	H82	H	0.626652	0.899075	0.081879
	H83	H	0.391450	0.900529	0.888130
	H84	H	0.620578	0.903631	0.070928
	H85	H	0.388555	0.093407	0.074132
	H86	H	0.623474	0.088585	0.895002
	H87	H	0.390412	0.894372	0.890384
	H88	H	0.914555	0.085357	0.603271
	H89	H	0.110643	0.089016	0.363078
	H90	H	0.098747	0.903318	0.598535
	H91	H	0.900189	0.882679	0.360783
	H92	H	0.105360	0.609914	0.897082
	H93	H	0.103777	0.370939	0.074179
	H94	H	0.925853	0.607710	0.076156
	H95	H	0.907608	0.372230	0.890044
	H96	H	0.418294	0.108594	0.576345
	H97	H	0.591981	0.875914	0.574596
	H98	H	0.603035	0.112540	0.388272
	H99	H	0.412713	0.872387	0.395351
	H100	H	0.595943	0.413230	0.097768
	H101	H	0.601729	0.585785	0.867840
	H102	H	0.422756	0.590359	0.100296
	H103	H	0.406297	0.396464	0.866335
	H104	H	0.121552	0.582436	0.391956
	H105	H	0.891170	0.575270	0.579800
	H106	H	0.121585	0.407068	0.577278
	H107	H	0.890681	0.394549	0.389030
	H108	H	0.916489	0.608488	0.069949
	H109	H	0.092456	0.372634	0.080403
	H110	H	0.101355	0.611637	0.887551
	H111	H	0.914174	0.373385	0.890984
	H112	H	0.096249	0.898959	0.599671
	H113	H	0.105520	0.074680	0.370277
	H114	H	0.913493	0.075887	0.600060
	H115	H	0.903043	0.911748	0.370981
	H116	H	0.623617	0.085121	0.892228
	H117	H	0.395871	0.071941	0.075022
	H118	H	0.622499	0.911602	0.081963
	H119	H	0.392567	0.898870	0.894965
	C120	C	0.387013	-0.000041	0.606872
	C121	C	0.629072	0.982221	0.607738
	C122	C	0.628720	-0.000107	0.365112
	C123	C	0.387009	0.982276	0.365254
	C124	C	0.627062	0.373795	-0.006848
	C125	C	0.632720	0.617396	0.975332
	C126	C	0.387635	0.612127	-0.007557
	C127	C	0.383030	0.368765	0.975964
	C128	C	0.015590	0.611807	0.361152
	C129	C	0.998109	0.611775	0.605903
	C130	C	0.015769	0.368773	0.606465
	C131	C	0.998105	0.367466	0.360731
	C132	C	0.886877	0.500033	0.104440
	C133	C	0.128242	0.482051	0.104790
	C134	C	0.128072	0.500057	0.863234
	C135	C	0.884881	0.483109	0.863322
	C136	C	0.127572	0.870450	0.492388
	C137	C	0.132614	0.114213	0.475357
	C138	C	0.887856	0.109549	0.492882
	C139	C	0.882055	0.865932	0.476003
	C140	C	0.515964	0.114267	0.863388
	C141	C	0.498391	0.114440	0.109090
	C142	C	0.516242	0.871471	0.107014
	C143	C	0.499161	0.870696	0.862964
	C144	C	0.387206	0.875092	0.662480
	C145	C	0.630169	0.107259	0.662920
	C146	C	0.625669	0.875931	0.307284
	C147	C	0.390004	0.107034	0.309528
	C148	C	0.682160	0.374730	0.870282
	C149	C	0.689256	0.617554	0.097848
	C150	C	0.330581	0.612124	0.869958
	C151	C	0.325829	0.368816	0.097725
	C152	C	0.892143	0.663241	0.364472
	C153	C	0.120668	0.669956	0.602657
	C154	C	0.893053	0.310578	0.602089
	C155	C	0.121742	0.316160	0.365289
	C156	C	0.893362	0.366323	0.661951
	C157	C	0.120074	0.614099	0.662200
	C158	C	0.893511	0.608119	0.305016
	C159	C	0.120027	0.369617	0.304530
	C160	C	0.391976	0.666258	0.868663
	C161	C	0.630031	0.672936	0.098442
	C162	C	0.623321	0.317641	0.870141
	C163	C	0.385812	0.314015	0.099188
	C164	C	0.680452	0.874448	0.366720
	C165	C	0.687923	0.106505	0.606291
	C166	C	0.327843	0.875778	0.606892
	C167	C	0.333503	0.107172	0.366596
	C168	C	0.885695	0.374689	0.158560
	C169	C	0.129298	0.606222	0.161985
	C170	C	0.124218	0.375036	0.807623
	C171	C	0.889504	0.607355	0.806900
	C172	C	0.184613	0.870659	0.370246
	C173	C	0.188551	0.114233	0.598004
	C174	C	0.830838	0.108685	0.370885
	C175	C	0.826882	0.866781	0.598826
	C176	C	0.392218	0.165520	0.867207
	C177	C	0.620840	0.172422	0.105976
	C178	C	0.393832	0.812472	0.103549
	C179	C	0.622576	0.818990	0.866695
	C180	C	0.393860	0.868955	0.162753
	C181	C	0.620604	0.116219	0.165072
	C182	C	0.394179	0.111518	0.806370
	C183	C	0.621653	0.873938	0.808083
	C184	C	0.891719	0.163235	0.368757
	C185	C	0.129693	0.170682	0.598013
	C186	C	0.122824	0.816539	0.368367
	C187	C	0.886177	0.810543	0.599074
	C188	C	0.182273	0.375451	0.863956
	C189	C	0.186677	0.606720	0.104623
	C190	C	0.826834	0.376186	0.103063
	C191	C	0.833400	0.608763	0.864826
	C192	C	0.411231	0.086867	0.584088
	C193	C	0.604428	0.895256	0.585328
	C194	C	0.608149	0.086887	0.388291
	C195	C	0.408182	0.895438	0.387498
	C196	C	0.605561	0.397453	0.078607
	C197	C	0.610742	0.594183	0.889734
	C198	C	0.409400	0.589319	0.078014
	C199	C	0.405472	0.391798	0.890545
	C200	C	0.101252	0.590864	0.383705
	C201	C	0.912744	0.586552	0.583585
	C202	C	0.101122	0.394066	0.584752
	C203	C	0.912353	0.388083	0.382212
	C204	C	0.912070	0.586822	0.082232
	C205	C	0.103719	0.395497	0.081185
	C206	C	0.106886	0.587057	0.886219
	C207	C	0.904899	0.395935	0.886002
	C208	C	0.105340	0.893859	0.577720
	C209	C	0.110375	0.090687	0.389886
	C210	C	0.910081	0.087307	0.578715
	C211	C	0.903629	0.888941	0.390094
	C212	C	0.601670	0.093441	0.885686
	C213	C	0.412826	0.089664	0.087176
	C214	C	0.601292	0.897160	0.084831
	C215	C	0.413527	0.891697	0.884698
	Zn216	Zn	0.508090	-0.008532	0.734973
	Zn217	Zn	0.507594	-0.008078	0.237650
	Zn218	Zn	0.758691	0.494064	-0.015272
	Zn219	Zn	0.256694	0.491794	-0.016526
	Zn220	Zn	0.006066	0.739959	0.483134
	Zn221	Zn	0.008235	0.239686	0.483268
	Zn222	Zn	0.006638	0.490830	0.735981
	Zn223	Zn	0.006998	0.489471	0.233013
	Zn224	Zn	0.508820	0.742686	-0.016164
	Zn225	Zn	0.506003	0.242279	-0.014422
	Zn226	Zn	0.755709	-0.010030	0.485614
	Zn227	Zn	0.259386	-0.008745	0.484915
	N228	N	0.423199	0.953433	0.662680
	N229	N	0.594418	0.028936	0.663870
	N230	N	0.594193	0.954926	0.306357
	N231	N	0.422630	0.028355	0.308326
	N232	N	0.684701	0.409117	0.947806
	N233	N	0.691272	0.583908	0.020160
	N234	N	0.328015	0.579187	0.947857
	N235	N	0.324107	0.402341	0.020193
	N236	N	0.969141	0.665554	0.398858
	N237	N	0.043655	0.668528	0.568183
	N238	N	0.970251	0.311699	0.568352
	N239	N	0.044925	0.314583	0.399747
	N240	N	0.970664	0.401726	0.664843
	N241	N	0.042842	0.578641	0.664258
	N242	N	0.971323	0.576810	0.302826
	N243	N	0.042172	0.400595	0.301363
	N244	N	0.426723	0.666610	0.945705
	N245	N	0.595642	0.673049	0.021312
	N246	N	0.589747	0.317032	0.947369
	N247	N	0.420756	0.313778	0.022457
	N248	N	0.682605	0.952636	0.401795
	N249	N	0.687479	0.027616	0.572625
	N250	N	0.327472	0.954502	0.573334
	N251	N	0.331597	0.028671	0.400557
	N252	N	0.922447	0.452574	0.159335
	N253	N	0.093772	0.527612	0.162286
	N254	N	0.091489	0.453558	0.806920
	N255	N	0.920662	0.528154	0.805780
	N256	N	0.187498	0.903586	0.448276
	N257	N	0.190531	0.080058	0.520711
	N258	N	0.828599	0.076053	0.448960
	N259	N	0.824027	0.900326	0.521064
	N260	N	0.469235	0.167676	0.901755
	N261	N	0.543794	0.171452	0.071943
	N262	N	0.470995	0.813815	0.069666
	N263	N	0.545431	0.816666	0.900322
	N264	N	0.470922	0.904793	0.165106
	N265	N	0.543251	0.081190	0.167444
	N266	N	0.472103	0.080496	0.803612
	N267	N	0.543868	0.905233	0.805612
	N268	N	0.926473	0.163866	0.445700
	N269	N	0.095591	0.170884	0.520805
	N270	N	0.088144	0.816130	0.445236
	N271	N	0.919400	0.809759	0.521667
	N272	N	0.185005	0.454254	0.897704
	N273	N	0.186288	0.528481	0.069899
	N274	N	0.827459	0.455405	0.070307
	N275	N	0.830383	0.530507	0.899280
	O276	O	1.045294	-0.083046	0.930191
	H277	H	1.043857	-0.089651	0.936319
	H278	H	1.040016	-0.098345	0.928937
	O279	O	0.568320	0.407219	0.353363
	H280	H	0.574184	0.390739	0.352795
	H281	H	0.575315	0.402383	0.373756
	O282	O	0.409109	0.631718	0.410730
	H283	H	0.405104	0.623289	0.408439
	H284	H	0.413494	0.644778	0.393692
	O285	O	0.363244	0.345407	0.614281
	H286	H	0.347696	0.341962	0.612928
	H287	H	0.346782	0.339298	0.611501
	O288	O	0.462870	0.476032	0.586151
	H289	H	0.464703	0.482694	0.590566
	H290	H	0.460328	0.467835	0.575979
	O291	O	-0.017156	-0.066091	1.023288
	H292	H	-0.003272	-0.059912	1.024938
	H293	H	-0.017714	-0.085211	1.017378
	O294	O	0.948846	1.064848	-0.085774
	H295	H	0.965359	1.063848	-0.089067
	H296	H	0.943279	1.051020	-0.092900
	O297	O	1.108256	0.963515	0.048376
	H298	H	1.123781	0.965929	0.042962
	H299	H	1.097735	0.964204	0.048162
	O300	O	0.519010	0.582525	0.313044
	H301	H	0.520813	0.571294	0.299709
	H302	H	0.515935	0.571589	0.310747
	O303	O	0.058764	0.977302	0.827649
	H304	H	0.059743	0.975107	0.814820
	H305	H	0.049221	0.983602	0.827413
	O306	O	0.522567	0.468346	0.564562
	H307	H	0.524168	0.457181	0.566129
	H308	H	0.522719	0.467188	0.570905
	O309	O	0.510346	0.389054	0.579992
	H310	H	0.498849	0.391613	0.587207
	H311	H	0.507238	0.382686	0.588022
	O312	O	1.451537	1.414334	1.397888
	H313	H	1.445401	1.403083	1.393076
	H314	H	1.463337	1.412823	1.399582
	O315	O	1.540090	1.610408	-0.557920
	H316	H	1.536170	1.604894	-0.558521
	H317	H	1.535296	1.609128	-0.579741
	O318	O	-0.066108	1.047477	0.897700
	H319	H	-0.056893	1.046454	0.909965
	H320	H	-0.055749	1.032465	0.897880
	O321	O	0.387563	0.515108	0.561783
	H322	H	0.385446	0.521549	0.570483
	H323	H	0.404980	0.520689	0.559302
	O324	O	0.119274	1.077864	0.934781
	H325	H	0.125557	1.088282	0.929322
	H326	H	0.124094	1.083861	0.947159
	O327	O	0.106309	1.005779	0.979484
	H328	H	0.119322	1.007216	0.974137
	H329	H	0.095445	1.000894	0.987368
	O330	O	-0.378914	0.536475	0.481348
	H331	H	-0.378825	0.545596	0.473412
	H332	H	-0.370774	0.538029	0.481454
	O333	O	-0.005579	0.910559	0.997538
	H334	H	-0.004018	0.918789	0.983506
	H335	H	0.003807	0.915168	1.006833
	O336	O	-1.049500	-1.130821	1.054998
	H337	H	-1.040659	-1.132830	1.052427
	H338	H	-1.056814	-1.124337	1.058279
	O339	O	-0.071610	-0.073176	-0.052295
	H340	H	-0.068721	-0.075405	-0.053579
	H341	H	-0.075256	-0.070385	-0.045742
	O342	O	0.538025	0.492671	0.556930
	H343	H	0.525390	0.499614	0.554742
	H344	H	0.528034	0.497920	0.544368
	O345	O	0.608132	0.650972	1.596601
	H346	H	0.604492	0.638268	1.604543
	H347	H	0.629054	0.670366	1.598523
	O348	O	0.403731	0.438391	0.612161
	H349	H	0.395077	0.445657	0.618554
	H350	H	0.400928	0.439895	0.609181
	O351	O	0.505380	0.479180	-0.635404
	H352	H	0.505337	0.468252	-0.633779
	H353	H	0.507262	0.477821	-0.638365
	O354	O	0.090888	1.120746	-0.042853
	H355	H	0.092376	1.137723	-0.037266
	H356	H	0.094139	1.112750	-0.022589
	O357	O	0.531467	0.470838	0.453008
	H358	H	0.536571	0.463383	0.468669
	H359	H	0.543814	0.484187	0.440007
	O360	O	1.036028	0.053071	1.111928
	H361	H	1.051355	0.071307	1.114439
	H362	H	1.031429	0.043188	1.100908
	O363	O	0.661201	0.485867	0.605737
	H364	H	0.662357	0.495742	0.614607
	H365	H	0.645129	0.491540	0.618733
	O366	O	0.455305	0.497095	0.474092
	H367	H	0.442034	0.495306	0.462407
	H368	H	0.466240	0.485079	0.480723
	O369	O	0.950898	0.062504	-0.060176
	H370	H	0.949967	0.059998	-0.080129
	H371	H	0.948314	0.048544	-0.072364
	O372	O	0.431296	0.521799	0.372334
	H373	H	0.444263	0.516114	0.373244
	H374	H	0.425922	0.526277	0.372138
	O375	O	0.857593	-0.127173	1.030056
	H376	H	0.861277	-0.112711	1.042069
	H377	H	0.847617	-0.133938	1.039091
	O378	O	0.441481	0.443379	0.372151
	H379	H	0.443733	0.454506	0.390606
	H380	H	0.455402	0.448209	0.375979
	O381	O	0.060134	1.100450	1.050262
	H382	H	0.068133	1.091238	1.042190
	H383	H	0.047408	1.105026	1.052818
	O384	O	0.950727	0.935525	-0.026650
	H385	H	0.944769	0.930968	-0.019223
	H386	H	0.942534	0.941341	-0.026741
	O387	O	0.984216	-0.094095	1.029368
	H388	H	0.980448	-0.096108	1.024816
	H389	H	0.980189	-0.090402	1.024310
	O390	O	0.966259	1.064817	0.034419
	H391	H	0.956699	1.075903	0.031257
	H392	H	0.955671	1.055639	0.035361
	O393	O	0.032867	1.042479	-0.017756
	H394	H	0.037757	1.042129	-0.026469
	H395	H	0.028295	1.049273	-0.004084
