data_Molecule from HDF5

_cell_length_a		16.511301
_cell_length_b		16.626823
_cell_length_c		16.556362
_cell_angle_alpha	89.894539
_cell_angle_beta	90.115789
_cell_angle_gamma	89.964036
_symmetry_space_group_name_H-M	'P 1'
_symmetry_Int_Tables_number		1

loop_
	_symmetry_equiv_pos_as_xyz
	x,y,z

loop_
	_atom_site_label
	_atom_site_type_symbol
	_atom_site_fract_x
	_atom_site_fract_y
	_atom_site_fract_z
	H0	H	0.408245	0.836531	0.736370
	H1	H	0.617171	0.148568	0.732346
	H2	H	0.617080	0.834630	0.293352
	H3	H	0.410973	0.147258	0.294151
	H4	H	0.735771	0.386153	0.856648
	H5	H	0.732671	0.593583	0.171349
	H6	H	0.291520	0.596483	0.857382
	H7	H	0.296115	0.387719	0.170771
	H8	H	0.855786	0.708671	0.410212
	H9	H	0.168480	0.713672	0.621236
	H10	H	0.858128	0.268680	0.619335
	H11	H	0.171598	0.270283	0.411146
	H12	H	0.856604	0.385781	0.733807
	H13	H	0.169262	0.596217	0.736437
	H14	H	0.856527	0.593027	0.293865
	H15	H	0.172218	0.387712	0.295378
	H16	H	0.407379	0.713284	0.857804
	H17	H	0.618821	0.711958	0.169899
	H18	H	0.622053	0.267295	0.858129
	H19	H	0.409527	0.269027	0.169028
	H20	H	0.734305	0.834753	0.409413
	H21	H	0.732551	0.148935	0.614460
	H22	H	0.291604	0.835615	0.619480
	H23	H	0.292932	0.146558	0.410249
	H24	H	0.914156	0.332631	0.230711
	H25	H	0.120558	0.645593	0.235422
	H26	H	0.119712	0.334916	0.792493
	H27	H	0.908994	0.646027	0.791656
	H28	H	0.233655	0.885333	0.356765
	H29	H	0.234311	0.092640	0.671246
	H30	H	0.797278	0.092192	0.354874
	H31	H	0.790840	0.885239	0.669634
	H32	H	0.357656	0.214383	0.903927
	H33	H	0.671107	0.209344	0.115359
	H34	H	0.357473	0.771023	0.116878
	H35	H	0.669877	0.769125	0.907128
	H36	H	0.356232	0.888504	0.230472
	H37	H	0.670070	0.094885	0.233033
	H38	H	0.356717	0.096198	0.790812
	H39	H	0.671298	0.887705	0.792615
	H40	H	0.911228	0.210835	0.357184
	H41	H	0.121911	0.212184	0.669829
	H42	H	0.117357	0.768764	0.357492
	H43	H	0.905114	0.766908	0.669173
	H44	H	0.236391	0.334500	0.908441
	H45	H	0.237872	0.645060	0.119678
	H46	H	0.797244	0.332982	0.113689
	H47	H	0.792937	0.646395	0.909129
	H48	H	0.427151	0.101204	0.598423
	H49	H	0.606892	0.879639	0.598333
	H50	H	0.603143	0.101983	0.424140
	H51	H	0.422110	0.878673	0.423896
	H52	H	0.602331	0.398465	0.125359
	H53	H	0.601961	0.585494	0.900305
	H54	H	0.421649	0.582111	0.126742
	H55	H	0.425012	0.400190	0.898994
	H56	H	0.127112	0.583885	0.427525
	H57	H	0.897836	0.579498	0.610516
	H58	H	0.122883	0.401831	0.594937
	H59	H	0.900000	0.395209	0.425466
	H60	H	0.125367	0.408539	0.608195
	H61	H	0.901010	0.584942	0.595068
	H62	H	0.124721	0.576624	0.426806
	H63	H	0.903432	0.403140	0.425397
	H64	H	0.426211	0.575976	0.123684
	H65	H	0.606454	0.579237	0.899974
	H66	H	0.605813	0.400052	0.126529
	H67	H	0.424681	0.405780	0.901008
	H68	H	0.608164	0.104107	0.422455
	H69	H	0.603758	0.877887	0.608310
	H70	H	0.422381	0.102985	0.599867
	H71	H	0.422264	0.876439	0.420598
	H72	H	0.920745	0.603615	0.101171
	H73	H	0.101126	0.377851	0.108874
	H74	H	0.102184	0.603211	0.920619
	H75	H	0.929550	0.378660	0.920471
	H76	H	0.101069	0.899045	0.626527
	H77	H	0.103456	0.079926	0.401452
	H78	H	0.925159	0.082326	0.627392
	H79	H	0.921944	0.896362	0.398867
	H80	H	0.625086	0.082622	0.927356
	H81	H	0.400796	0.077900	0.101520
	H82	H	0.627063	0.906144	0.106194
	H83	H	0.400823	0.901996	0.922745
	H84	H	0.629231	0.896999	0.105092
	H85	H	0.398612	0.082528	0.106138
	H86	H	0.624021	0.076097	0.924470
	H87	H	0.402490	0.902188	0.927198
	H88	H	0.921513	0.079309	0.627340
	H89	H	0.101573	0.079663	0.401783
	H90	H	0.104309	0.900936	0.625810
	H91	H	0.921342	0.904355	0.402470
	H92	H	0.097362	0.598742	0.928301
	H93	H	0.102043	0.380419	0.099841
	H94	H	0.922817	0.604427	0.108421
	H95	H	0.924153	0.380176	0.929738
	H96	H	0.426085	0.102429	0.603449
	H97	H	0.597221	0.882343	0.600898
	H98	H	0.603669	0.104905	0.418875
	H99	H	0.425704	0.878488	0.421621
	H100	H	0.603562	0.402551	0.124831
	H101	H	0.599734	0.578590	0.903190
	H102	H	0.429393	0.583278	0.125276
	H103	H	0.429084	0.402012	0.902161
	H104	H	0.128586	0.579793	0.420512
	H105	H	0.905207	0.569491	0.599629
	H106	H	0.130181	0.394607	0.606033
	H107	H	0.898895	0.399979	0.418153
	H108	H	0.928235	0.602163	0.103534
	H109	H	0.108906	0.376517	0.104183
	H110	H	0.107227	0.601701	0.928886
	H111	H	0.919460	0.375472	0.921419
	H112	H	0.101108	0.902431	0.624572
	H113	H	0.102106	0.081536	0.401198
	H114	H	0.925283	0.078510	0.625911
	H115	H	0.928671	0.899832	0.403258
	H116	H	0.627500	0.080662	0.920372
	H117	H	0.400001	0.083983	0.099453
	H118	H	0.625663	0.902157	0.097902
	H119	H	0.402997	0.905379	0.924370
	C120	C	0.392816	-0.000727	0.633630
	C121	C	0.634862	0.983304	0.633928
	C122	C	0.635623	-0.000045	0.390822
	C123	C	0.391755	0.981615	0.391277
	C124	C	0.635599	0.369013	0.021806
	C125	C	0.634697	0.612305	1.004943
	C126	C	0.392628	0.612745	0.022197
	C127	C	0.394082	0.370039	1.004340
	C128	C	0.022511	0.611077	0.393011
	C129	C	1.004709	0.611002	0.634704
	C130	C	0.022675	0.369329	0.635358
	C131	C	1.005459	0.368229	0.392629
	C132	C	0.893581	0.499247	0.134696
	C133	C	0.136566	0.481510	0.136219
	C134	C	0.135170	0.498662	0.893278
	C135	C	0.892179	0.481384	0.891723
	C136	C	0.133793	0.868916	0.522049
	C137	C	0.135058	0.111707	0.505401
	C138	C	0.893301	0.111610	0.522697
	C139	C	0.891030	0.868435	0.504818
	C140	C	0.522359	0.112883	0.890952
	C141	C	0.504256	0.112410	0.133527
	C142	C	0.523012	0.870349	0.134225
	C143	C	0.505516	0.870809	0.892050
	C144	C	0.390073	0.882631	0.695376
	C145	C	0.636130	0.101508	0.692683
	C146	C	0.636288	0.881861	0.332628
	C147	C	0.391030	0.100105	0.333221
	C148	C	0.695564	0.367529	0.903846
	C149	C	0.693608	0.612815	0.123595
	C150	C	0.331886	0.614783	0.904320
	C151	C	0.335438	0.368735	0.123133
	C152	C	0.903273	0.669296	0.391380
	C153	C	0.121819	0.672549	0.638591
	C154	C	0.904717	0.309382	0.637114
	C155	C	0.124445	0.309931	0.392195
	C156	C	0.904146	0.367366	0.694179
	C157	C	0.122277	0.614367	0.696053
	C158	C	0.903730	0.611962	0.333568
	C159	C	0.124888	0.368429	0.334991
	C160	C	0.389499	0.672734	0.904420
	C161	C	0.636848	0.671652	0.123097
	C162	C	0.639253	0.308208	0.904450
	C163	C	0.391996	0.309740	0.122335
	C164	C	0.694473	0.881864	0.390354
	C165	C	0.693517	0.101685	0.634294
	C166	C	0.332372	0.882209	0.637139
	C167	C	0.332780	0.099740	0.390943
	C168	C	0.894145	0.380163	0.191958
	C169	C	0.139310	0.598714	0.196012
	C170	C	0.137948	0.381535	0.832658
	C171	C	0.890315	0.599232	0.831727
	C172	C	0.193697	0.866677	0.404075
	C173	C	0.194990	0.112128	0.623643
	C174	C	0.835761	0.111987	0.402961
	C175	C	0.830797	0.866627	0.622540
	C176	C	0.404624	0.173685	0.886962
	C177	C	0.623444	0.170551	0.134660
	C178	C	0.404594	0.811026	0.135410
	C179	C	0.623463	0.810129	0.889249
	C180	C	0.403869	0.869399	0.191951
	C181	C	0.622969	0.113756	0.193152
	C182	C	0.404195	0.115217	0.830331
	C183	C	0.624030	0.868892	0.832404
	C184	C	0.892576	0.170660	0.403963
	C185	C	0.138799	0.171463	0.623251
	C186	C	0.135955	0.808783	0.404280
	C187	C	0.887933	0.807983	0.622472
	C188	C	0.195977	0.381449	0.890370
	C189	C	0.197295	0.598448	0.138238
	C190	C	0.836263	0.380301	0.133681
	C191	C	0.832591	0.599451	0.889908
	C192	C	0.418049	0.080969	0.607845
	C193	C	0.609760	0.901247	0.609670
	C194	C	0.611701	0.082367	0.414855
	C195	C	0.416209	0.899347	0.415151
	C196	C	0.610834	0.393430	0.104220
	C197	C	0.609815	0.588132	0.922608
	C198	C	0.418518	0.587718	0.103883
	C199	C	0.419021	0.395533	0.922154
	C200	C	0.105209	0.587064	0.417811
	C201	C	0.922647	0.585417	0.609109
	C202	C	0.104753	0.394464	0.610237
	C203	C	0.922371	0.392447	0.416321
	C204	C	0.917169	0.581993	0.111307
	C205	C	0.111286	0.399704	0.111361
	C206	C	0.109564	0.580016	0.918719
	C207	C	0.917297	0.399451	0.916695
	C208	C	0.109216	0.893575	0.604188
	C209	C	0.109581	0.087417	0.422956
	C210	C	0.917186	0.087113	0.605361
	C211	C	0.916691	0.893247	0.422900
	C212	C	0.604265	0.087233	0.916793
	C213	C	0.421454	0.088416	0.109107
	C214	C	0.605883	0.894735	0.110059
	C215	C	0.423345	0.896042	0.917473
	Zn216	Zn	0.514111	-0.008448	0.763143
	Zn217	Zn	0.513432	-0.008605	0.262144
	Zn218	Zn	0.763836	0.490875	0.013570
	Zn219	Zn	0.264693	0.490559	0.013547
	Zn220	Zn	0.012669	0.740194	0.513685
	Zn221	Zn	0.014437	0.240304	0.515024
	Zn222	Zn	0.013714	0.489714	0.763901
	Zn223	Zn	0.014608	0.490618	0.265044
	Zn224	Zn	0.513929	0.741774	0.012938
	Zn225	Zn	0.513817	0.240523	0.012000
	Zn226	Zn	0.763865	-0.008387	0.513248
	Zn227	Zn	0.262728	-0.010123	0.513105
	N228	N	0.427144	0.956435	0.693236
	N229	N	0.600563	0.026836	0.692876
	N230	N	0.600681	0.956480	0.332576
	N231	N	0.426908	0.025641	0.333068
	N232	N	0.693558	0.404554	0.977825
	N233	N	0.692531	0.576517	0.049112
	N234	N	0.333596	0.578064	0.978556
	N235	N	0.336490	0.405500	0.048711
	N236	N	0.978187	0.669200	0.427520
	N237	N	0.047591	0.670543	0.601325
	N238	N	0.979586	0.310278	0.601238
	N239	N	0.049119	0.309642	0.427125
	N240	N	0.978577	0.403918	0.693333
	N241	N	0.048312	0.576741	0.693851
	N242	N	0.978889	0.576508	0.334432
	N243	N	0.049601	0.403650	0.334734
	N244	N	0.426406	0.671808	0.978668
	N245	N	0.600984	0.671647	0.048128
	N246	N	0.602554	0.308990	0.978914
	N247	N	0.427515	0.310293	0.047332
	N248	N	0.694443	0.956514	0.425635
	N249	N	0.693099	0.026986	0.598873
	N250	N	0.334166	0.955769	0.599465
	N251	N	0.333028	0.025102	0.426165
	N252	N	0.928747	0.455257	0.193120
	N253	N	0.102275	0.524863	0.194871
	N254	N	0.100843	0.455545	0.834079
	N255	N	0.926312	0.524779	0.832664
	N256	N	0.192627	0.903385	0.478276
	N257	N	0.192900	0.075871	0.549204
	N258	N	0.836114	0.075952	0.477692
	N259	N	0.832388	0.903298	0.548299
	N260	N	0.479080	0.172472	0.923723
	N261	N	0.548643	0.169917	0.098493
	N262	N	0.479878	0.811315	0.100248
	N263	N	0.548648	0.810976	0.925564
	N264	N	0.478644	0.905439	0.191592
	N265	N	0.547762	0.078516	0.192981
	N266	N	0.478425	0.077884	0.832654
	N267	N	0.549741	0.905798	0.834110
	N268	N	0.927372	0.170997	0.479444
	N269	N	0.102607	0.171563	0.548376
	N270	N	0.099617	0.809844	0.478836
	N271	N	0.924636	0.808807	0.548165
	N272	N	0.194656	0.455300	0.926984
	N273	N	0.195988	0.524366	0.102024
	N274	N	0.835584	0.455371	0.099203
	N275	N	0.833635	0.525146	0.926466
	O276	O	0.073789	0.763022	0.076610
	H277	H	0.072639	0.769290	0.053826
	H278	H	0.081958	0.761589	0.066197
	O279	O	0.327415	0.305354	0.327361
	H280	H	0.350869	0.311453	0.353027
	H281	H	0.343441	0.336042	0.334919
	O282	O	1.101489	-0.020380	1.046701
	H283	H	1.089668	-0.023496	1.050194
	H284	H	1.102186	-0.023750	1.052869
	O285	O	0.563481	0.454290	0.713717
	H286	H	0.557848	0.463965	0.714806
	H287	H	0.555673	0.450830	0.708098
	O288	O	0.701534	0.316351	0.689635
	H289	H	0.689651	0.341578	0.681596
	H290	H	0.687995	0.336094	0.668599
	O291	O	0.661267	0.413558	0.521009
	H292	H	0.671980	0.404665	0.513026
	H293	H	0.652410	0.428967	0.516356
	O294	O	0.796531	-0.044665	1.229425
	H295	H	0.771854	-0.059236	1.255931
	H296	H	0.803986	-0.077770	1.226726
	O297	O	0.087998	1.120883	0.875115
	H298	H	0.091860	1.121912	0.884201
	H299	H	0.084076	1.121571	0.878424
	O300	O	0.081885	0.145111	1.230086
	H301	H	0.081940	0.151294	1.251980
	H302	H	0.066983	0.143710	1.228526
	O303	O	0.502759	0.446349	0.443725
	H304	H	0.499220	0.455083	0.435134
	H305	H	0.488906	0.445235	0.457510
	O306	O	0.675702	0.541620	0.494926
	H307	H	0.665808	0.532840	0.482463
	H308	H	0.690243	0.544661	0.486827
	O309	O	0.592462	0.549641	0.310936
	H310	H	0.587163	0.540963	0.313284
	H311	H	0.612173	0.532267	0.317081
	O312	O	0.661203	0.710322	0.501898
	H313	H	0.667071	0.715713	0.517256
	H314	H	0.646724	0.721348	0.507030
	O315	O	1.181525	1.016295	1.196030
	H316	H	1.191330	1.035745	1.207918
	H317	H	1.194284	1.038656	1.202940
	O318	O	0.726414	0.526736	0.730570
	H319	H	0.723077	0.513248	0.748535
	H320	H	0.742444	0.535183	0.738128
	O321	O	0.296046	0.704498	0.491477
	H322	H	0.280141	0.715944	0.474294
	H323	H	0.300781	0.708471	0.479058
	O324	O	1.156850	0.955831	0.137715
	H325	H	1.171179	0.974146	0.140227
	H326	H	1.151130	0.958666	0.128710
	O327	O	0.187885	-0.221373	0.805103
	H328	H	0.185693	-0.192117	0.800759
	H329	H	0.215532	-0.251434	0.769785
	O330	O	0.698090	0.624888	0.519810
	H331	H	0.707364	0.639963	0.532958
	H332	H	0.701083	0.635977	0.524082
	O333	O	0.500325	0.275217	0.701364
	H334	H	0.501818	0.256710	0.724438
	H335	H	0.477467	0.281913	0.701025
	O336	O	0.725163	0.284766	0.301068
	H337	H	0.693704	0.269321	0.292705
	H338	H	0.747671	0.254945	0.289952
	O339	O	0.938962	-0.079649	0.875487
	H340	H	0.953530	-0.096550	0.874835
	H341	H	0.916778	-0.070042	0.872531
	O342	O	0.202875	-0.200106	0.203516
	H343	H	0.180131	-0.194915	0.177664
	H344	H	0.188200	-0.169735	0.190794
	O345	O	-0.175937	1.177253	1.201264
	H346	H	-0.159692	1.155719	1.185060
	H347	H	-0.161911	1.159618	1.176873
	O348	O	0.222787	-0.226371	-0.048583
	H349	H	0.247430	-0.237026	-0.062289
	H350	H	0.230353	-0.217676	-0.080029
	O351	O	0.289628	0.429867	0.462435
	H352	H	0.283501	0.444022	0.432699
	H353	H	0.299186	0.423914	0.477330
	O354	O	0.228185	0.202808	1.221690
	H355	H	0.181954	0.207856	1.220116
	H356	H	0.256342	0.236864	1.255980
	O357	O	-0.178978	0.006422	-0.009252
	H358	H	-0.183528	-0.008195	-0.022948
	H359	H	-0.176389	0.002893	-0.010930
	O360	O	0.285897	0.545013	0.584745
	H361	H	0.283515	0.557739	0.573222
	H362	H	0.282984	0.531194	0.586228
	O363	O	-0.041318	-0.187151	-0.037544
	H364	H	-0.034198	-0.173105	-0.043684
	H365	H	-0.051700	-0.192226	-0.036790
	O366	O	0.327307	0.681825	0.701140
	H367	H	0.350563	0.670276	0.682192
	H368	H	0.339079	0.661029	0.679173
	O369	O	0.951718	-0.068420	0.177358
	H370	H	0.958297	-0.079343	0.156289
	H371	H	0.952229	-0.084760	0.186626
	O372	O	1.020858	1.071445	-0.054424
	H373	H	1.016850	1.075109	-0.066303
	H374	H	1.027075	1.075032	-0.056670
	O375	O	1.177499	0.128902	-0.160718
	H376	H	1.146843	0.132205	-0.156777
	H377	H	1.179734	0.121033	-0.143643
	O378	O	0.296715	0.275295	0.579687
	H379	H	0.283156	0.257910	0.572476
	H380	H	0.290867	0.273282	0.582119
	O381	O	0.212567	0.949152	0.806851
	H382	H	0.220907	0.958451	0.812433
	H383	H	0.212958	0.961920	0.796791
	O384	O	0.492915	0.275688	0.555667
	H385	H	0.500022	0.270854	0.572423
	H386	H	0.511611	0.287998	0.552501
	O387	O	0.711119	0.693216	-0.286868
	H388	H	0.709345	0.698989	-0.279368
	H389	H	0.728791	0.683220	-0.270695
	O390	O	0.553711	0.277083	0.299742
	H391	H	0.552255	0.275742	0.288706
	H392	H	0.537012	0.281477	0.291181
	O393	O	0.449191	0.548736	0.738817
	H394	H	0.449940	0.559610	0.741929
	H395	H	0.445774	0.541154	0.726015
	O396	O	0.020618	0.893276	0.866771
	H397	H	0.035181	0.887613	0.850295
	H398	H	0.041462	0.888940	0.867463
	O399	O	-0.202962	0.021451	0.794110
	H400	H	-0.211742	0.043845	0.780049
	H401	H	-0.205072	0.037527	0.785309
	O402	O	0.699962	0.678454	0.327294
	H403	H	0.683541	0.663750	0.346881
	H404	H	0.678274	0.658159	0.343575
	O405	O	0.977369	0.214182	1.035177
	H406	H	0.978351	0.219154	1.043486
	H407	H	0.989905	0.210113	1.026658
	O408	O	0.114562	0.100473	-0.102520
	H409	H	0.111508	0.092977	-0.083025
	H410	H	0.107075	0.093728	-0.098036
	O411	O	0.562557	0.496828	0.557218
	H412	H	0.561608	0.495943	0.559887
	H413	H	0.576229	0.502839	0.548524
	O414	O	0.727288	0.276169	0.476978
	H415	H	0.738431	0.268663	0.465189
	H416	H	0.739553	0.276987	0.467680
	O417	O	0.524148	0.634402	0.476898
	H418	H	0.521390	0.639099	0.476743
	H419	H	0.522176	0.637141	0.473665
	O420	O	0.492321	0.451615	0.517544
	H421	H	0.485050	0.446954	0.520218
	H422	H	0.496509	0.439668	0.521202
	O423	O	0.361212	0.298649	0.707437
	H424	H	0.357098	0.286186	0.687366
	H425	H	0.348950	0.312569	0.718574
	O426	O	0.428845	0.499716	0.347094
	H427	H	0.410052	0.509383	0.350056
	H428	H	0.449622	0.506608	0.351895
	O429	O	1.299213	1.447744	0.728676
	H430	H	1.273241	1.437313	0.756449
	H431	H	1.303335	1.447652	0.718254
	O432	O	-0.188427	0.885408	0.907066
	H433	H	-0.179126	0.894033	0.902111
	H434	H	-0.172809	0.884546	0.916246
	O435	O	0.042828	0.923402	0.050080
	H436	H	0.052494	0.914672	0.030776
	H437	H	0.037023	0.928023	0.049931
	O438	O	-0.201071	-0.225404	0.044688
	H439	H	-0.215175	-0.231773	0.054609
	H440	H	-0.205881	-0.227220	0.060605
	O441	O	-0.190684	0.196412	-0.022640
	H442	H	-0.215234	0.212092	-0.025469
	H443	H	-0.185775	0.177292	-0.009362
	O444	O	0.233771	0.210908	0.049481
	H445	H	0.231566	0.203978	0.084182
	H446	H	0.261540	0.237137	0.052776
	O447	O	-0.169070	0.948334	0.977979
	H448	H	-0.156536	0.948151	0.991980
	H449	H	-0.167238	0.933407	0.976066
	O450	O	-0.193511	1.193569	0.804828
	H451	H	-0.178036	1.193121	0.820348
	H452	H	-0.219313	1.223722	0.790054
	O453	O	0.311922	0.508292	0.298899
	H454	H	0.307454	0.527746	0.293711
	H455	H	0.299987	0.537556	0.291826
	O456	O	-0.007130	-0.191946	1.230820
	H457	H	-0.005900	-0.190126	1.230031
	H458	H	0.003949	-0.204886	1.234060
	O459	O	0.803154	0.779618	0.222067
	H460	H	0.839713	0.775471	0.214006
	H461	H	0.773990	0.746459	0.255022
	O462	O	0.739294	0.455340	0.287215
	H463	H	0.755143	0.431462	0.272172
	H464	H	0.750966	0.425922	0.276729
	O465	O	1.181692	0.006866	-0.017029
	H466	H	1.184155	0.012798	-0.012060
	H467	H	1.179853	0.007081	-0.002860
	O468	O	-0.005946	1.173474	-0.168990
	H469	H	-0.008849	1.189907	-0.181533
	H470	H	-0.017413	1.171353	-0.159288
	O471	O	0.454945	0.722329	0.565818
	H472	H	0.464010	0.719955	0.587900
	H473	H	0.441484	0.722428	0.548983
	O474	O	-0.456223	1.705865	-0.273085
	H475	H	-0.440512	1.714614	-0.266693
	H476	H	-0.445441	1.710810	-0.272517
	O477	O	0.306646	0.698585	1.306385
	H478	H	0.339691	0.704037	1.316509
	H479	H	0.274627	0.731892	1.274275
	O480	O	0.478463	0.705105	0.295541
	H481	H	0.484899	0.718520	0.270867
	H482	H	0.476829	0.690926	0.298046
	O483	O	0.475369	0.269963	0.449232
	H484	H	0.493352	0.262808	0.471740
	H485	H	0.481344	0.263384	0.446315
	O486	O	1.014439	0.119010	1.229109
	H487	H	1.000827	0.115259	1.234474
	H488	H	1.021001	0.105283	1.221825
	O489	O	1.051129	0.888983	-0.089796
	H490	H	1.045438	0.876765	-0.093909
	H491	H	1.051788	0.893700	-0.086935
