data_Molecule from HDF5

_cell_length_a		16.165569
_cell_length_b		16.253112
_cell_length_c		16.233626
_cell_angle_alpha	89.828581
_cell_angle_beta	90.424889
_cell_angle_gamma	90.301188
_symmetry_space_group_name_H-M	'P 1'
_symmetry_Int_Tables_number		1

loop_
	_symmetry_equiv_pos_as_xyz
	x,y,z

loop_
	_atom_site_label
	_atom_site_type_symbol
	_atom_site_fract_x
	_atom_site_fract_y
	_atom_site_fract_z
	H0	H	0.407377	0.826063	0.706359
	H1	H	0.610396	0.152480	0.705351
	H2	H	0.607686	0.824343	0.277760
	H3	H	0.409256	0.152119	0.272670
	H4	H	0.722406	0.387526	0.829160
	H5	H	0.726656	0.588970	0.154054
	H6	H	0.292492	0.586561	0.829496
	H7	H	0.296846	0.387951	0.156790
	H8	H	0.844268	0.703779	0.390345
	H9	H	0.173465	0.705721	0.592283
	H10	H	0.845513	0.272213	0.591335
	H11	H	0.174158	0.274927	0.393979
	H12	H	0.845028	0.387503	0.706375
	H13	H	0.174028	0.590666	0.709137
	H14	H	0.845622	0.587750	0.275339
	H15	H	0.174970	0.392172	0.279802
	H16	H	0.404668	0.703687	0.829256
	H17	H	0.611652	0.704329	0.154323
	H18	H	0.609396	0.274168	0.829375
	H19	H	0.407249	0.268968	0.153456
	H20	H	0.722032	0.825103	0.394741
	H21	H	0.724729	0.151674	0.591661
	H22	H	0.294632	0.825499	0.587474
	H23	H	0.293617	0.152593	0.388346
	H24	H	0.906844	0.326211	0.209451
	H25	H	0.110737	0.652590	0.206154
	H26	H	0.110943	0.325351	0.777109
	H27	H	0.911656	0.651459	0.775779
	H28	H	0.220689	0.890250	0.327614
	H29	H	0.227784	0.089779	0.652799
	H30	H	0.792294	0.087734	0.329150
	H31	H	0.794848	0.887556	0.656346
	H32	H	0.344780	0.204017	0.890212
	H33	H	0.673256	0.206503	0.093797
	H34	H	0.344721	0.773077	0.090032
	H35	H	0.672205	0.773215	0.891330
	H36	H	0.344183	0.889058	0.204029
	H37	H	0.673561	0.090220	0.208425
	H38	H	0.344384	0.087788	0.775287
	H39	H	0.673897	0.891416	0.778369
	H40	H	0.906297	0.205037	0.329664
	H41	H	0.112720	0.202851	0.655231
	H42	H	0.107666	0.774374	0.328663
	H43	H	0.907773	0.771099	0.655024
	H44	H	0.221362	0.323636	0.896465
	H45	H	0.226850	0.650572	0.094079
	H46	H	0.793308	0.324878	0.091360
	H47	H	0.793085	0.651106	0.889545
	H48	H	0.419373	0.104733	0.581144
	H49	H	0.604051	0.869839	0.586441
	H50	H	0.598416	0.101671	0.407384
	H51	H	0.407506	0.868874	0.394855
	H52	H	0.591977	0.393193	0.108312
	H53	H	0.597877	0.580173	0.875583
	H54	H	0.419261	0.591399	0.112660
	H55	H	0.418946	0.395461	0.875697
	H56	H	0.125455	0.573991	0.394173
	H57	H	0.894315	0.574567	0.584558
	H58	H	0.126576	0.400261	0.587906
	H59	H	0.891215	0.387459	0.403493
	H60	H	0.128929	0.392666	0.587157
	H61	H	0.891464	0.582339	0.585466
	H62	H	0.130201	0.592371	0.396440
	H63	H	0.896670	0.404033	0.405310
	H64	H	0.409503	0.577170	0.111093
	H65	H	0.599752	0.584278	0.872818
	H66	H	0.607865	0.392144	0.112359
	H67	H	0.411294	0.392448	0.873697
	H68	H	0.605921	0.107029	0.397794
	H69	H	0.600065	0.870842	0.589429
	H70	H	0.416863	0.106925	0.582153
	H71	H	0.421139	0.873084	0.393184
	H72	H	0.917539	0.604619	0.083817
	H73	H	0.101710	0.370657	0.088424
	H74	H	0.101514	0.601220	0.911192
	H75	H	0.916502	0.371687	0.901588
	H76	H	0.096669	0.903265	0.605531
	H77	H	0.099038	0.078857	0.375983
	H78	H	0.909182	0.081554	0.612051
	H79	H	0.911992	0.898314	0.375616
	H80	H	0.626517	0.084523	0.899742
	H81	H	0.391144	0.084085	0.082655
	H82	H	0.626053	0.899538	0.085080
	H83	H	0.390928	0.896763	0.894348
	H84	H	0.627053	0.895152	0.086084
	H85	H	0.394594	0.078764	0.074910
	H86	H	0.626535	0.082075	0.899939
	H87	H	0.390864	0.892563	0.899380
	H88	H	0.920499	0.073217	0.606518
	H89	H	0.095892	0.085228	0.374587
	H90	H	0.098158	0.888698	0.609881
	H91	H	0.917498	0.897668	0.376466
	H92	H	0.110451	0.609006	0.896652
	H93	H	0.102705	0.371075	0.086810
	H94	H	0.920759	0.604697	0.083290
	H95	H	0.914742	0.370658	0.899262
	H96	H	0.418566	0.106641	0.584583
	H97	H	0.599352	0.872221	0.583941
	H98	H	0.593664	0.104607	0.395661
	H99	H	0.414790	0.875020	0.405066
	H100	H	0.601628	0.407338	0.106508
	H101	H	0.602490	0.580597	0.873752
	H102	H	0.425727	0.576641	0.106233
	H103	H	0.412141	0.401170	0.875340
	H104	H	0.123182	0.581888	0.411550
	H105	H	0.893708	0.579468	0.578451
	H106	H	0.125911	0.395989	0.581188
	H107	H	0.890359	0.398466	0.389998
	H108	H	0.918757	0.604042	0.080556
	H109	H	0.103176	0.370257	0.088131
	H110	H	0.093152	0.603907	0.894173
	H111	H	0.916792	0.371775	0.898729
	H112	H	0.110627	0.898462	0.610365
	H113	H	0.102285	0.084608	0.371791
	H114	H	0.923424	0.087593	0.610372
	H115	H	0.914074	0.893460	0.374550
	H116	H	0.626658	0.082921	0.897335
	H117	H	0.393943	0.074492	0.084106
	H118	H	0.626670	0.896282	0.082090
	H119	H	0.392827	0.898491	0.900032
	C120	C	0.387965	-0.002042	0.611641
	C121	C	0.630929	0.979496	0.614617
	C122	C	0.628949	-0.003159	0.371496
	C123	C	0.385711	0.980200	0.367503
	C124	C	0.629593	0.367964	0.000894
	C125	C	0.630917	0.610859	0.982165
	C126	C	0.387348	0.609811	0.001826
	C127	C	0.386325	0.366499	0.983121
	C128	C	0.018102	0.611820	0.369989
	C129	C	1.001388	0.609612	0.613037
	C130	C	0.018472	0.366687	0.614293
	C131	C	1.001304	0.367920	0.370961
	C132	C	0.888030	0.497113	0.112598
	C133	C	0.132069	0.479249	0.115695
	C134	C	0.130968	0.496459	0.872353
	C135	C	0.886975	0.479134	0.869776
	C136	C	0.129587	0.868149	0.500473
	C137	C	0.130545	0.111439	0.482044
	C138	C	0.887079	0.110129	0.501571
	C139	C	0.886228	0.866358	0.483443
	C140	C	0.517768	0.111622	0.869358
	C141	C	0.501190	0.110473	0.112195
	C142	C	0.517724	0.867167	0.112813
	C143	C	0.499922	0.867263	0.869469
	C144	C	0.388272	0.874914	0.667789
	C145	C	0.630181	0.103048	0.668794
	C146	C	0.627531	0.873517	0.315637
	C147	C	0.388475	0.103307	0.310896
	C148	C	0.685010	0.368577	0.878178
	C149	C	0.688444	0.609238	0.105038
	C150	C	0.330535	0.607171	0.878423
	C151	C	0.333113	0.367639	0.107076
	C152	C	0.893769	0.666129	0.370876
	C153	C	0.124579	0.667005	0.612019
	C154	C	0.894788	0.310362	0.611986
	C155	C	0.124969	0.312461	0.373432
	C156	C	0.894637	0.367726	0.669248
	C157	C	0.124955	0.609381	0.669948
	C158	C	0.894702	0.608924	0.313131
	C159	C	0.125464	0.371012	0.316862
	C160	C	0.386950	0.665111	0.878089
	C161	C	0.631046	0.666357	0.105209
	C162	C	0.628705	0.312012	0.878168
	C163	C	0.388049	0.308513	0.105472
	C164	C	0.684113	0.873625	0.374137
	C165	C	0.687292	0.102630	0.612278
	C166	C	0.332314	0.874612	0.608416
	C167	C	0.330953	0.103601	0.368315
	C168	C	0.887758	0.374770	0.170317
	C169	C	0.130748	0.602800	0.169700
	C170	C	0.130295	0.373799	0.815672
	C171	C	0.889751	0.602387	0.813138
	C172	C	0.183449	0.870389	0.376594
	C173	C	0.188816	0.109520	0.604417
	C174	C	0.830587	0.108010	0.378253
	C175	C	0.831655	0.867366	0.606841
	C176	C	0.394097	0.166488	0.870349
	C177	C	0.624036	0.167987	0.112850
	C178	C	0.393974	0.811004	0.109892
	C179	C	0.623312	0.811454	0.871386
	C180	C	0.393657	0.868383	0.167102
	C181	C	0.624143	0.110203	0.170285
	C182	C	0.393697	0.108410	0.813376
	C183	C	0.624022	0.870351	0.815230
	C184	C	0.887024	0.166748	0.378549
	C185	C	0.131222	0.165731	0.605552
	C186	C	0.127355	0.812357	0.377380
	C187	C	0.887873	0.809349	0.606303
	C188	C	0.185036	0.372972	0.875353
	C189	C	0.188610	0.602000	0.113954
	C190	C	0.831201	0.374070	0.111582
	C191	C	0.831108	0.602116	0.870081
	C192	C	0.411463	0.083796	0.589211
	C193	C	0.607996	0.893407	0.593030
	C194	C	0.606114	0.082150	0.393787
	C195	C	0.407870	0.894514	0.390674
	C196	C	0.607014	0.390945	0.086762
	C197	C	0.606981	0.588346	0.896215
	C198	C	0.411099	0.588007	0.087626
	C199	C	0.407760	0.389601	0.897239
	C200	C	0.104053	0.589440	0.393747
	C201	C	0.915308	0.585612	0.589675
	C202	C	0.104674	0.389676	0.591929
	C203	C	0.915017	0.390178	0.393027
	C204	C	0.911843	0.582403	0.089281
	C205	C	0.109209	0.392900	0.094137
	C206	C	0.108486	0.582301	0.894336
	C207	C	0.909555	0.393588	0.893053
	C208	C	0.108297	0.890455	0.586300
	C209	C	0.106095	0.089401	0.396125
	C210	C	0.910702	0.087427	0.587350
	C211	C	0.908082	0.889576	0.397651
	C212	C	0.604235	0.089580	0.892229
	C213	C	0.415415	0.086175	0.087694
	C214	C	0.604132	0.890280	0.090965
	C215	C	0.413834	0.889479	0.891400
	Zn216	Zn	0.509315	-0.010480	0.741563
	Zn217	Zn	0.509007	-0.011443	0.240871
	Zn218	Zn	0.757949	0.487969	-0.008534
	Zn219	Zn	0.258901	0.487794	-0.006124
	Zn220	Zn	0.008450	0.739528	0.491932
	Zn221	Zn	0.009628	0.238878	0.492198
	Zn222	Zn	0.010428	0.488041	0.742511
	Zn223	Zn	0.009816	0.489143	0.242017
	Zn224	Zn	0.508778	0.738775	-0.008691
	Zn225	Zn	0.509597	0.240160	-0.009031
	Zn226	Zn	0.758468	-0.011777	0.493061
	Zn227	Zn	0.257955	-0.010366	0.489846
	N228	N	0.422137	0.952683	0.670020
	N229	N	0.595779	0.025471	0.670490
	N230	N	0.593885	0.951091	0.313829
	N231	N	0.421559	0.025608	0.310161
	N232	N	0.685770	0.402686	0.955679
	N233	N	0.688741	0.575511	0.027371
	N234	N	0.330380	0.573463	0.956183
	N235	N	0.332002	0.403097	0.030045
	N236	N	0.971775	0.668321	0.405352
	N237	N	0.046660	0.667215	0.577315
	N238	N	0.972833	0.309510	0.578512
	N239	N	0.046757	0.310679	0.406669
	N240	N	0.972721	0.401882	0.671019
	N241	N	0.047267	0.574329	0.670645
	N242	N	0.972731	0.575689	0.312631
	N243	N	0.047635	0.404710	0.315241
	N244	N	0.421622	0.666923	0.955729
	N245	N	0.596148	0.667650	0.027744
	N246	N	0.594850	0.311605	0.955525
	N247	N	0.420333	0.307433	0.027427
	N248	N	0.685402	0.951137	0.408027
	N249	N	0.688227	0.024596	0.579710
	N250	N	0.331888	0.952247	0.574297
	N251	N	0.329020	0.026118	0.402765
	N252	N	0.922675	0.452123	0.170922
	N253	N	0.096419	0.525325	0.170998
	N254	N	0.097230	0.451486	0.813702
	N255	N	0.923804	0.525014	0.812774
	N256	N	0.185154	0.904420	0.454096
	N257	N	0.188517	0.076488	0.526632
	N258	N	0.830530	0.073766	0.455848
	N259	N	0.830273	0.902079	0.529547
	N260	N	0.472207	0.168406	0.904680
	N261	N	0.546425	0.168165	0.077347
	N262	N	0.472438	0.809909	0.077153
	N263	N	0.545203	0.809421	0.904454
	N264	N	0.471515	0.902777	0.169042
	N265	N	0.546640	0.074968	0.169972
	N266	N	0.471828	0.075242	0.812399
	N267	N	0.546311	0.904316	0.813814
	N268	N	0.921588	0.168240	0.456176
	N269	N	0.095645	0.167132	0.528217
	N270	N	0.094530	0.810902	0.455220
	N271	N	0.921065	0.808663	0.528650
	N272	N	0.185831	0.450314	0.909810
	N273	N	0.189636	0.524092	0.080991
	N274	N	0.831458	0.451077	0.076285
	N275	N	0.829039	0.524520	0.904242
	O276	O	0.978365	-0.155909	1.149997
	H277	H	0.965164	-0.166239	1.172008
	H278	H	0.964340	-0.153189	1.142477
	O279	O	0.429001	0.366008	0.612068
	H280	H	0.437646	0.376734	0.622811
	H281	H	0.425632	0.366253	0.613546
	O282	O	0.493762	0.538116	0.567271
	H283	H	0.509491	0.530595	0.559196
	H284	H	0.493773	0.543026	0.571806
	O285	O	0.424011	0.534057	0.462800
	H286	H	0.441684	0.542786	0.461123
	H287	H	0.416570	0.518461	0.463924
	O288	O	0.487376	0.503000	0.472186
	H289	H	0.486041	0.499415	0.466469
	H290	H	0.479062	0.499734	0.477371
	O291	O	-0.149439	-0.019832	0.887460
	H292	H	-0.155037	-0.011433	0.885254
	H293	H	-0.139883	-0.010422	0.895021
	O294	O	1.020059	1.112067	-0.067709
	H295	H	1.016957	1.106798	-0.069895
	H296	H	1.029215	1.115163	-0.061132
	O297	O	0.940955	0.839001	-0.086942
	H298	H	0.948651	0.836220	-0.093113
	H299	H	0.942771	0.842385	-0.100569
	O300	O	0.642759	0.586030	0.579517
	H301	H	0.651044	0.589596	0.584182
	H302	H	0.641132	0.595112	0.568395
	O303	O	-0.008573	0.983645	1.022972
	H304	H	-0.003435	0.980634	1.007459
	H305	H	-0.012265	0.986600	1.017388
	O306	O	0.518590	0.457249	0.554987
	H307	H	0.517107	0.448335	0.563625
	H308	H	0.502153	0.456723	0.565484
	O309	O	0.628900	0.557060	0.661309
	H310	H	0.634620	0.565971	0.670744
	H311	H	0.636362	0.565950	0.659793
	O312	O	1.418177	1.400124	1.507664
	H313	H	1.416733	1.401958	1.524471
	H314	H	1.423926	1.413061	1.505357
	O315	O	1.517194	1.400697	-0.503866
	H316	H	1.519950	1.395144	-0.493165
	H317	H	1.498318	1.396578	-0.497681
	O318	O	-0.058945	0.862964	1.017488
	H319	H	-0.075122	0.849826	1.014990
	H320	H	-0.057555	0.861370	1.033840
	O321	O	0.515967	0.564618	0.586745
	H322	H	0.501237	0.557550	0.578959
	H323	H	0.515863	0.576484	0.589388
	O324	O	0.027033	1.072848	1.034848
	H325	H	0.023288	1.064527	1.030953
	H326	H	0.042784	1.080300	1.032945
	O327	O	-0.025704	1.036356	0.939791
	H328	H	-0.017016	1.042059	0.939127
	H329	H	-0.028095	1.040800	0.943760
	O330	O	-0.634053	0.522584	0.325798
	H331	H	-0.635361	0.531425	0.322887
	H332	H	-0.643004	0.533043	0.311071
	O333	O	0.509011	0.435182	0.423802
	H334	H	0.502595	0.436624	0.405622
	H335	H	0.516688	0.441774	0.424717
	O336	O	-0.938793	-1.118368	0.985208
	H337	H	-0.934538	-1.097363	0.995912
	H338	H	-0.933857	-1.123099	0.990678
	O339	O	0.104516	0.061613	0.088903
	H340	H	0.112308	0.059389	0.091060
	H341	H	0.112361	0.074632	0.096773
	O342	O	0.594453	0.517737	0.412935
	H343	H	0.605404	0.502916	0.403247
	H344	H	0.591652	0.518508	0.420118
	O345	O	-0.058886	0.969058	1.135886
	H346	H	-0.057112	0.976595	1.134453
	H347	H	-0.060455	0.975405	1.140420
	O348	O	0.522188	0.464214	0.393093
	H349	H	0.521385	0.456159	0.406878
	H350	H	0.507503	0.453503	0.389229
	O351	O	0.487127	0.559198	-0.557938
	H352	H	0.477258	0.573762	-0.549563
	H353	H	0.499148	0.556763	-0.550760
	O354	O	-0.022797	0.983704	-0.138428
	H355	H	-0.022376	0.985037	-0.125984
	H356	H	-0.021894	0.975695	-0.134779
	O357	O	0.443235	0.509603	0.473786
	H358	H	0.457908	0.511291	0.477989
	H359	H	0.443142	0.502129	0.468314
	O360	O	0.909836	0.089777	1.002436
	H361	H	0.909027	0.094653	0.993467
	H362	H	0.907638	0.084024	1.012055
	O363	O	0.504445	0.471530	0.488228
	H364	H	0.494278	0.463356	0.496774
	H365	H	0.508800	0.474154	0.498747
	O366	O	0.609027	0.523059	0.515674
	H367	H	0.616910	0.513997	0.503460
	H368	H	0.620248	0.525146	0.510572
	O369	O	1.117239	-0.031346	-0.071605
	H370	H	1.113306	-0.038984	-0.060936
	H371	H	1.117609	-0.030450	-0.075815
	O372	O	0.571095	0.416566	0.415011
	H373	H	0.560800	0.418083	0.395458
	H374	H	0.575978	0.394924	0.416600
	O375	O	1.050059	-0.080129	0.880730
	H376	H	1.064700	-0.082978	0.880093
	H377	H	1.044909	-0.093797	0.869238
	O378	O	0.068080	1.045025	0.060005
	H379	H	0.064454	1.042655	0.060515
	H380	H	0.078108	1.034692	0.047429
	O381	O	0.031687	1.083066	1.055393
	H382	H	0.030632	1.078731	1.057864
	H383	H	0.038109	1.077961	1.046299
	O384	O	1.084215	1.062701	0.010816
	H385	H	1.077517	1.073002	0.010302
	H386	H	1.088394	1.061239	0.009253
	O387	O	1.076460	-0.033999	0.990271
	H388	H	1.069656	-0.038285	0.983331
	H389	H	1.069199	-0.042367	1.001381
	O390	O	1.019396	1.095781	-0.136985
	H391	H	1.020863	1.110149	-0.151244
	H392	H	1.011908	1.084541	-0.128409
	O393	O	-0.050602	0.915273	0.136179
	H394	H	-0.052180	0.926263	0.127282
	H395	H	-0.052895	0.916448	0.151289
