data_Molecule from HDF5

_cell_length_a		16.539108
_cell_length_b		16.410082
_cell_length_c		16.215167
_cell_angle_alpha	90.165714
_cell_angle_beta	89.859117
_cell_angle_gamma	90.010401
_symmetry_space_group_name_H-M	'P 1'
_symmetry_Int_Tables_number		1

loop_
	_symmetry_equiv_pos_as_xyz
	x,y,z

loop_
	_atom_site_label
	_atom_site_type_symbol
	_atom_site_fract_x
	_atom_site_fract_y
	_atom_site_fract_z
	H0	H	0.391044	0.840784	0.711094
	H1	H	0.597542	0.160521	0.715759
	H2	H	0.596276	0.841768	0.272705
	H3	H	0.387661	0.160556	0.271395
	H4	H	0.717286	0.392074	0.834902
	H5	H	0.713185	0.606645	0.152708
	H6	H	0.271408	0.607326	0.834201
	H7	H	0.271267	0.394011	0.152697
	H8	H	0.835631	0.723480	0.388911
	H9	H	0.150387	0.723356	0.600212
	H10	H	0.837418	0.274472	0.603975
	H11	H	0.149785	0.275133	0.381964
	H12	H	0.835828	0.393682	0.718339
	H13	H	0.151332	0.604286	0.713842
	H14	H	0.833252	0.602761	0.277133
	H15	H	0.151150	0.396178	0.270428
	H16	H	0.389132	0.719766	0.832572
	H17	H	0.598348	0.721450	0.152983
	H18	H	0.599969	0.278900	0.833422
	H19	H	0.388788	0.282353	0.154784
	H20	H	0.716912	0.843837	0.384401
	H21	H	0.717159	0.158687	0.602448
	H22	H	0.269920	0.844215	0.601217
	H23	H	0.267711	0.158134	0.383119
	H24	H	0.891994	0.341345	0.211841
	H25	H	0.092982	0.662079	0.210466
	H26	H	0.095070	0.340369	0.772746
	H27	H	0.893291	0.662246	0.777960
	H28	H	0.214065	0.896910	0.333537
	H29	H	0.212612	0.108519	0.654139
	H30	H	0.773481	0.105064	0.334220
	H31	H	0.769893	0.893640	0.653128
	H32	H	0.335176	0.223608	0.887863
	H33	H	0.650600	0.222872	0.098939
	H34	H	0.335321	0.779005	0.098953
	H35	H	0.650560	0.776958	0.885125
	H36	H	0.333875	0.900618	0.212168
	H37	H	0.651922	0.103466	0.211871
	H38	H	0.332726	0.101376	0.776354
	H39	H	0.652178	0.897680	0.773339
	H40	H	0.890366	0.219130	0.333216
	H41	H	0.097904	0.222414	0.653814
	H42	H	0.094104	0.786012	0.331410
	H43	H	0.890883	0.784868	0.656201
	H44	H	0.216829	0.342583	0.882902
	H45	H	0.213940	0.659555	0.097513
	H46	H	0.771025	0.343251	0.100092
	H47	H	0.770411	0.659169	0.887488
	H48	H	0.407801	0.112146	0.581362
	H49	H	0.587858	0.886946	0.580644
	H50	H	0.586573	0.115855	0.402757
	H51	H	0.393905	0.886870	0.408975
	H52	H	0.577671	0.413135	0.106761
	H53	H	0.585673	0.583505	0.877974
	H54	H	0.404171	0.589810	0.108537
	H55	H	0.403700	0.420578	0.880622
	H56	H	0.105502	0.593328	0.404262
	H57	H	0.877796	0.595437	0.589896
	H58	H	0.101872	0.417263	0.579234
	H59	H	0.879471	0.406125	0.403306
	H60	H	0.105310	0.411562	0.585256
	H61	H	0.879759	0.597614	0.578911
	H62	H	0.106991	0.592035	0.401723
	H63	H	0.883192	0.410163	0.409549
	H64	H	0.400956	0.589628	0.108349
	H65	H	0.576624	0.587169	0.880138
	H66	H	0.583800	0.408729	0.110353
	H67	H	0.412535	0.410616	0.880500
	H68	H	0.579983	0.113625	0.404905
	H69	H	0.580322	0.887046	0.585233
	H70	H	0.397911	0.115614	0.578372
	H71	H	0.404921	0.886122	0.395513
	H72	H	0.902472	0.614330	0.080331
	H73	H	0.087029	0.386984	0.078693
	H74	H	0.076735	0.609494	0.910916
	H75	H	0.900166	0.387425	0.906690
	H76	H	0.082189	0.911260	0.609970
	H77	H	0.084965	0.093663	0.376232
	H78	H	0.903698	0.080724	0.606386
	H79	H	0.899600	0.912070	0.377407
	H80	H	0.604164	0.088697	0.906819
	H81	H	0.383906	0.088234	0.074908
	H82	H	0.602981	0.916558	0.078935
	H83	H	0.379071	0.909983	0.900327
	H84	H	0.608424	0.909205	0.088563
	H85	H	0.378996	0.086081	0.089471
	H86	H	0.605571	0.090343	0.902788
	H87	H	0.379884	0.904911	0.904981
	H88	H	0.912612	0.088634	0.606056
	H89	H	0.086954	0.081362	0.379819
	H90	H	0.086193	0.910884	0.610284
	H91	H	0.905122	0.915016	0.380260
	H92	H	0.092554	0.614358	0.909671
	H93	H	0.082319	0.385141	0.086058
	H94	H	0.897896	0.616923	0.083298
	H95	H	0.905385	0.386992	0.903643
	H96	H	0.401790	0.117179	0.588652
	H97	H	0.580668	0.890144	0.577115
	H98	H	0.585690	0.113608	0.409315
	H99	H	0.409689	0.893340	0.410974
	H100	H	0.585405	0.416857	0.107529
	H101	H	0.583406	0.592292	0.876160
	H102	H	0.403282	0.587459	0.107519
	H103	H	0.400167	0.408183	0.875928
	H104	H	0.107634	0.595200	0.402373
	H105	H	0.881672	0.587449	0.583377
	H106	H	0.103789	0.409135	0.576457
	H107	H	0.881787	0.413838	0.402435
	H108	H	0.902993	0.615984	0.086011
	H109	H	0.079064	0.389759	0.079505
	H110	H	0.082142	0.616407	0.896674
	H111	H	0.905023	0.389638	0.909455
	H112	H	0.084258	0.914946	0.609100
	H113	H	0.075369	0.086583	0.381228
	H114	H	0.902219	0.091376	0.610524
	H115	H	0.905369	0.908893	0.378633
	H116	H	0.605888	0.093114	0.906713
	H117	H	0.377305	0.099831	0.082611
	H118	H	0.606269	0.903499	0.076863
	H119	H	0.381991	0.910986	0.906622
	C120	C	0.371327	0.010135	0.615080
	C121	C	0.615001	0.992928	0.614895
	C122	C	0.615398	0.009528	0.372544
	C123	C	0.371024	0.993377	0.372192
	C124	C	0.614609	0.379756	0.002385
	C125	C	0.613455	0.620356	0.984362
	C126	C	0.371268	0.621425	0.002277
	C127	C	0.372723	0.380384	0.984677
	C128	C	0.001724	0.623906	0.372364
	C129	C	0.984333	0.624267	0.616006
	C130	C	0.000516	0.379299	0.614438
	C131	C	0.985252	0.377852	0.371019
	C132	C	0.870405	0.510174	0.115250
	C133	C	0.113720	0.492748	0.113766
	C134	C	0.115422	0.508515	0.871729
	C135	C	0.871690	0.492755	0.873606
	C136	C	0.114873	0.880906	0.502835
	C137	C	0.114511	0.121680	0.484830
	C138	C	0.873574	0.119971	0.502243
	C139	C	0.871783	0.880212	0.485154
	C140	C	0.500701	0.122451	0.872903
	C141	C	0.484328	0.123137	0.114728
	C142	C	0.501421	0.879194	0.114017
	C143	C	0.484898	0.877226	0.870953
	C144	C	0.371196	0.889475	0.673077
	C145	C	0.616548	0.112507	0.675818
	C146	C	0.615944	0.889888	0.312037
	C147	C	0.369294	0.112561	0.311309
	C148	C	0.676222	0.375314	0.882277
	C149	C	0.673100	0.623995	0.104919
	C150	C	0.311668	0.624561	0.881889
	C151	C	0.311788	0.376953	0.105058
	C152	C	0.882564	0.682846	0.371036
	C153	C	0.103057	0.683404	0.618465
	C154	C	0.883850	0.316222	0.620120
	C155	C	0.102639	0.316457	0.365573
	C156	C	0.883008	0.375623	0.677225
	C157	C	0.103517	0.623947	0.675034
	C158	C	0.881548	0.623035	0.314971
	C159	C	0.103546	0.376843	0.309725
	C160	C	0.370515	0.680507	0.881174
	C161	C	0.615869	0.681002	0.104979
	C162	C	0.617864	0.318968	0.881781
	C163	C	0.370358	0.321190	0.105789
	C164	C	0.675961	0.890935	0.367858
	C165	C	0.676097	0.111662	0.619307
	C166	C	0.310965	0.891002	0.618128
	C167	C	0.309660	0.111645	0.367295
	C168	C	0.871384	0.389589	0.173500
	C169	C	0.113270	0.613678	0.172125
	C170	C	0.115382	0.388534	0.811455
	C171	C	0.872247	0.613507	0.815428
	C172	C	0.173753	0.879224	0.381615
	C173	C	0.173700	0.126257	0.605605
	C174	C	0.813770	0.122813	0.381817
	C175	C	0.811236	0.877035	0.605728
	C176	C	0.382022	0.182379	0.870454
	C177	C	0.603419	0.182607	0.116700
	C178	C	0.382499	0.819594	0.116710
	C179	C	0.603431	0.817681	0.867963
	C180	C	0.381610	0.880046	0.173015
	C181	C	0.604098	0.123469	0.173106
	C182	C	0.380808	0.121963	0.814567
	C183	C	0.604310	0.877755	0.811968
	C184	C	0.871770	0.179470	0.381408
	C185	C	0.116386	0.182732	0.605414
	C186	C	0.114618	0.823503	0.380579
	C187	C	0.871388	0.822814	0.607155
	C188	C	0.175954	0.389641	0.866296
	C189	C	0.173164	0.612451	0.115763
	C190	C	0.811566	0.390499	0.117615
	C191	C	0.811306	0.611913	0.870136
	C192	C	0.395538	0.093312	0.590013
	C193	C	0.589933	0.909717	0.588655
	C194	C	0.590999	0.092791	0.398440
	C195	C	0.395761	0.910497	0.398041
	C196	C	0.589347	0.405566	0.086320
	C197	C	0.588798	0.595043	0.900109
	C198	C	0.395846	0.596323	0.086303
	C199	C	0.398066	0.405948	0.900951
	C200	C	0.084946	0.600313	0.396084
	C201	C	0.901406	0.600339	0.591208
	C202	C	0.082404	0.405403	0.587837
	C203	C	0.902914	0.402959	0.397504
	C204	C	0.894195	0.593947	0.090307
	C205	C	0.089744	0.409076	0.088754
	C206	C	0.090927	0.591743	0.898047
	C207	C	0.896268	0.409708	0.899140
	C208	C	0.091071	0.905227	0.587761
	C209	C	0.089644	0.094998	0.400868
	C210	C	0.898800	0.094228	0.585893
	C211	C	0.896342	0.904882	0.400684
	C212	C	0.583497	0.097886	0.897971
	C213	C	0.401666	0.098568	0.089830
	C214	C	0.584204	0.903044	0.088957
	C215	C	0.401868	0.901531	0.896586
	Zn216	Zn	0.492894	0.000974	0.743351
	Zn217	Zn	0.493552	0.001928	0.243947
	Zn218	Zn	0.741764	0.500826	-0.006349
	Zn219	Zn	0.243569	0.499375	-0.007095
	Zn220	Zn	-0.006963	0.753122	0.493940
	Zn221	Zn	-0.006290	0.248566	0.493173
	Zn222	Zn	-0.006988	0.500932	0.744266
	Zn223	Zn	-0.007471	0.501712	0.243500
	Zn224	Zn	0.493368	0.748173	-0.007196
	Zn225	Zn	0.492991	0.252367	-0.006264
	Zn226	Zn	0.744572	0.001073	0.494043
	Zn227	Zn	0.242342	0.002216	0.494443
	N228	N	0.408162	0.964357	0.671179
	N229	N	0.579340	0.037630	0.673081
	N230	N	0.578741	0.964602	0.314928
	N231	N	0.406834	0.037962	0.314186
	N232	N	0.674348	0.412467	0.958216
	N233	N	0.671718	0.587127	0.028801
	N234	N	0.312082	0.588293	0.958181
	N235	N	0.313073	0.413083	0.028789
	N236	N	0.958410	0.683959	0.405523
	N237	N	0.027975	0.683802	0.582654
	N238	N	0.957956	0.318555	0.581476
	N239	N	0.028141	0.317057	0.403202
	N240	N	0.956310	0.414328	0.673594
	N241	N	0.028590	0.587611	0.673608
	N242	N	0.956530	0.586914	0.315806
	N243	N	0.029419	0.414569	0.313209
	N244	N	0.406860	0.678702	0.957080
	N245	N	0.579552	0.678831	0.028906
	N246	N	0.580138	0.321620	0.957363
	N247	N	0.407744	0.323369	0.030099
	N248	N	0.675416	0.966343	0.405046
	N249	N	0.675341	0.036144	0.582477
	N250	N	0.310888	0.967080	0.582702
	N251	N	0.310548	0.036608	0.404693
	N252	N	0.907246	0.465054	0.172139
	N253	N	0.077282	0.538250	0.171073
	N254	N	0.078637	0.463575	0.814483
	N255	N	0.909054	0.538415	0.817255
	N256	N	0.174107	0.914172	0.458804
	N257	N	0.172772	0.089218	0.529456
	N258	N	0.814827	0.086629	0.458100
	N259	N	0.811373	0.911974	0.528922
	N260	N	0.457599	0.182935	0.905489
	N261	N	0.527884	0.182685	0.081327
	N262	N	0.458009	0.818529	0.081192
	N263	N	0.527905	0.817045	0.903544
	N264	N	0.456386	0.916422	0.171392
	N265	N	0.529178	0.087303	0.172178
	N266	N	0.455760	0.085618	0.815810
	N267	N	0.529328	0.913835	0.813472
	N268	N	0.908350	0.177790	0.457298
	N269	N	0.080605	0.180209	0.528997
	N270	N	0.078753	0.824337	0.456928
	N271	N	0.908261	0.824613	0.531087
	N272	N	0.176056	0.465376	0.902901
	N273	N	0.173697	0.536104	0.080404
	N274	N	0.810665	0.466625	0.082393
	N275	N	0.810658	0.535693	0.905156
	O276	O	0.333775	0.317485	0.679739
	H277	H	0.328886	0.344819	0.689708
	H278	H	0.331671	0.323472	0.649631
	O279	O	0.481910	0.285524	0.685452
	H280	H	0.448049	0.300491	0.674222
	H281	H	0.478486	0.261052	0.715306
	O282	O	0.532043	0.362864	0.450259
	H283	H	0.543253	0.356759	0.434347
	H284	H	0.558523	0.358053	0.473868
	O285	O	0.894772	1.053519	0.097336
	H286	H	0.896936	1.060216	0.092893
	H287	H	0.889747	1.049942	0.095663
	O288	O	0.634837	0.501538	0.325965
	H289	H	0.638337	0.512471	0.348997
	H290	H	0.630977	0.504875	0.314139
	O291	O	0.516982	0.449235	0.682748
	H292	H	0.524280	0.460514	0.682167
	H293	H	0.503397	0.434815	0.690740
	O294	O	1.043398	0.948624	0.896436
	H295	H	1.054201	0.950136	0.891615
	H296	H	1.047886	0.953103	0.888821
	O297	O	0.282880	0.397697	0.450824
	H298	H	0.276919	0.392329	0.443709
	H299	H	0.294114	0.377165	0.464985
	O300	O	0.306804	0.514884	0.656120
	H301	H	0.299450	0.523266	0.631579
	H302	H	0.296013	0.516423	0.667737
	O303	O	0.630169	0.429244	0.405539
	H304	H	0.621771	0.442070	0.411926
	H305	H	0.631633	0.437529	0.421748
	O306	O	0.060649	0.122459	1.028652
	H307	H	0.056709	0.120245	1.032381
	H308	H	0.063593	0.107803	1.037682
	O309	O	1.092805	-0.096858	0.034020
	H310	H	1.105442	-0.107633	0.024880
	H311	H	1.089650	-0.090040	0.028790
	O312	O	0.453734	0.552674	0.289921
	H313	H	0.462756	0.533136	0.299645
	H314	H	0.449535	0.529765	0.288608
	O315	O	0.509922	0.293833	0.291134
	H316	H	0.514653	0.282594	0.283528
	H317	H	0.537781	0.286538	0.287853
	O318	O	0.154904	0.206316	0.071367
	H319	H	0.168793	0.211321	0.093115
	H320	H	0.172927	0.201235	0.072061
	O321	O	0.693121	0.688283	0.505061
	H322	H	0.680608	0.701612	0.497408
	H323	H	0.690321	0.683851	0.490242
	O324	O	0.796720	0.132498	0.977143
	H325	H	0.793488	0.128152	0.986094
	H326	H	0.791735	0.135686	0.997356
	O327	O	0.463099	0.611793	0.286141
	H328	H	0.470828	0.622368	0.272279
	H329	H	0.478271	0.575881	0.277776
	O330	O	-0.196090	0.933135	1.109017
	H331	H	-0.216240	0.931746	1.112967
	H332	H	-0.192210	0.921162	1.115112
	O333	O	0.029228	1.037553	-0.159859
	H334	H	0.015261	1.039691	-0.173856
	H335	H	0.027451	1.060404	-0.152578
	O336	O	1.068541	0.802672	-0.116306
	H337	H	1.063382	0.807300	-0.126613
	H338	H	1.056476	0.798521	-0.124524
	O339	O	0.056970	0.945158	1.051676
	H340	H	0.058691	0.935109	1.038555
	H341	H	0.045808	0.946415	1.051425
	O342	O	0.611139	0.676470	0.373310
	H343	H	0.591442	0.678007	0.359651
	H344	H	0.600105	0.640624	0.379391
	O345	O	-0.595676	-0.406375	1.699258
	H346	H	-0.597009	-0.414566	1.690637
	H347	H	-0.594237	-0.409068	1.702980
	O348	O	0.478660	0.702291	0.695158
	H349	H	0.466005	0.680196	0.693128
	H350	H	0.481631	0.718356	0.710366
	O351	O	0.928280	1.055304	-0.186627
	H352	H	0.918112	1.059393	-0.173136
	H353	H	0.943905	1.070270	-0.183402
	O354	O	1.117033	0.822418	0.937059
	H355	H	1.100961	0.822819	0.927574
	H356	H	1.101259	0.834306	0.919909
	O357	O	-0.189322	-0.121266	-0.035672
	H358	H	-0.197057	-0.108838	-0.047394
	H359	H	-0.198848	-0.122770	-0.030939
	O360	O	0.572212	0.527363	0.534846
	H361	H	0.556874	0.530074	0.533903
	H362	H	0.584766	0.523647	0.559932
	O363	O	1.573401	-0.677961	0.502014
	H364	H	1.588360	-0.688938	0.503282
	H365	H	1.571369	-0.675193	0.523941
	O366	O	0.284802	0.319447	1.554581
	H367	H	0.307012	0.327264	1.546654
	H368	H	0.270197	0.288416	1.551219
	O369	O	0.952873	0.012537	0.890815
	H370	H	0.930344	0.005928	0.881629
	H371	H	0.969992	0.024270	0.895933
	O372	O	0.712093	0.539680	0.710166
	H373	H	0.734959	0.553126	0.739768
	H374	H	0.706710	0.576164	0.701822
	O375	O	0.071731	-0.128585	0.894294
	H376	H	0.063635	-0.120446	0.894453
	H377	H	0.075526	-0.134737	0.884950
	O378	O	0.361474	0.698724	0.299180
	H379	H	0.366063	0.716904	0.310331
	H380	H	0.366017	0.695487	0.299849
	O381	O	-0.194256	0.829305	0.184072
	H382	H	-0.201809	0.818420	0.162948
	H383	H	-0.182605	0.834601	0.192301
	O384	O	0.673329	0.646210	0.673170
	H385	H	0.643443	0.664655	0.674762
	H386	H	0.672868	0.658973	0.639114
	O387	O	0.277557	0.587407	0.278805
	H388	H	0.244011	0.597233	0.244380
	H389	H	0.281501	0.592682	0.288879
	O390	O	1.124325	1.100246	0.176564
	H391	H	1.125770	1.081997	0.160820
	H392	H	1.115999	1.077729	0.189236
	O393	O	0.935531	0.170907	0.846162
	H394	H	0.951237	0.163805	0.850048
	H395	H	0.931249	0.185123	0.870173
	O396	O	0.769815	0.169186	0.085534
	H397	H	0.775509	0.177837	0.094781
	H398	H	0.767247	0.166987	0.117941
	O399	O	0.442494	0.443268	0.397596
	H400	H	0.447690	0.423442	0.396240
	H401	H	0.430066	0.455352	0.410884
	O402	O	0.998793	1.188676	0.150917
	H403	H	1.003636	1.183192	0.159499
	H404	H	0.998176	1.203016	0.147128
	O405	O	0.277027	0.714639	0.466997
	H406	H	0.265242	0.744340	0.474701
	H407	H	0.283930	0.708926	0.448240
	O408	O	0.673661	0.369542	0.506491
	H409	H	0.677159	0.371710	0.526680
	H410	H	0.673911	0.370498	0.514867
	O411	O	0.979737	0.842096	1.083745
	H412	H	0.974061	0.844416	1.097920
	H413	H	0.981923	0.838389	1.092945
	O414	O	0.456669	0.611562	0.511927
	H415	H	0.456588	0.607405	0.492215
	H416	H	0.457741	0.606886	0.510558
	O417	O	0.030360	0.947878	1.060215
	H418	H	0.047289	0.958700	1.052523
	H419	H	0.029181	0.957198	1.065428
	O420	O	0.108324	1.025271	0.855140
	H421	H	0.122878	1.025334	0.849339
	H422	H	0.096022	1.014086	0.852219
	O423	O	0.008756	0.994210	-0.061475
	H424	H	0.012870	0.992229	-0.067977
	H425	H	0.009305	1.015345	-0.074788
	O426	O	0.619035	0.426678	0.537852
	H427	H	0.624479	0.445964	0.556911
	H428	H	0.607047	0.425703	0.538265
	O429	O	0.507679	0.703886	0.541196
	H430	H	0.521844	0.701032	0.532473
	H431	H	0.510019	0.701504	0.549342
	O432	O	0.686581	0.356503	0.323047
	H433	H	0.687033	0.373531	0.344284
	H434	H	0.682364	0.365920	0.339984
	O435	O	-0.039913	0.032861	-0.009615
	H436	H	-0.029562	0.033842	-0.010184
	H437	H	-0.040822	0.026458	-0.005961
	O438	O	0.097033	0.908012	1.153966
	H439	H	0.100159	0.892732	1.132701
	H440	H	0.090321	0.911443	1.161145
	O441	O	0.274924	0.544203	0.532048
	H442	H	0.270825	0.563598	0.509185
	H443	H	0.269616	0.529018	0.506838
