data_Molecule from HDF5

_cell_length_a		16.247076
_cell_length_b		16.241873
_cell_length_c		16.127502
_cell_angle_alpha	89.947135
_cell_angle_beta	89.991405
_cell_angle_gamma	89.750572
_symmetry_space_group_name_H-M	'P 1'
_symmetry_Int_Tables_number		1

loop_
	_symmetry_equiv_pos_as_xyz
	x,y,z

loop_
	_atom_site_label
	_atom_site_type_symbol
	_atom_site_fract_x
	_atom_site_fract_y
	_atom_site_fract_z
	H0	H	0.406555	0.830543	0.713843
	H1	H	0.598750	0.159837	0.712987
	H2	H	0.601274	0.830909	0.287002
	H3	H	0.402551	0.158439	0.284283
	H4	H	0.719257	0.395273	0.834689
	H5	H	0.716923	0.591167	0.164571
	H6	H	0.290557	0.593100	0.834362
	H7	H	0.291369	0.395886	0.164185
	H8	H	0.840720	0.711848	0.398892
	H9	H	0.167428	0.710383	0.598879
	H10	H	0.839254	0.281512	0.599827
	H11	H	0.165978	0.278489	0.399970
	H12	H	0.839194	0.399582	0.712846
	H13	H	0.168374	0.592794	0.712481
	H14	H	0.839575	0.593640	0.286093
	H15	H	0.168054	0.396568	0.287362
	H16	H	0.406050	0.707861	0.834189
	H17	H	0.602925	0.707408	0.164342
	H18	H	0.604268	0.278933	0.834465
	H19	H	0.406247	0.281199	0.164139
	H20	H	0.718738	0.831748	0.401002
	H21	H	0.716937	0.159243	0.599881
	H22	H	0.287561	0.831573	0.600192
	H23	H	0.286846	0.158867	0.399308
	H24	H	0.906899	0.331122	0.213361
	H25	H	0.101624	0.659918	0.213086
	H26	H	0.102147	0.331064	0.785331
	H27	H	0.907371	0.660167	0.788140
	H28	H	0.219681	0.894621	0.335420
	H29	H	0.216410	0.093278	0.664318
	H30	H	0.789393	0.093604	0.335141
	H31	H	0.790029	0.897278	0.664546
	H32	H	0.341300	0.211183	0.898695
	H33	H	0.667515	0.208288	0.099701
	H34	H	0.339848	0.779123	0.099482
	H35	H	0.667379	0.778500	0.900047
	H36	H	0.339044	0.896914	0.213641
	H37	H	0.667672	0.090758	0.212958
	H38	H	0.339450	0.091810	0.788074
	H39	H	0.668430	0.896535	0.786252
	H40	H	0.903551	0.208885	0.335133
	H41	H	0.101281	0.208125	0.664900
	H42	H	0.102544	0.781581	0.334511
	H43	H	0.904631	0.781368	0.664490
	H44	H	0.220049	0.330375	0.898800
	H45	H	0.219435	0.659136	0.098173
	H46	H	0.791664	0.330537	0.097961
	H47	H	0.786299	0.657725	0.897680
	H48	H	0.416906	0.112179	0.600098
	H49	H	0.596469	0.876162	0.599623
	H50	H	0.600271	0.111897	0.412641
	H51	H	0.411624	0.877434	0.405861
	H52	H	0.590604	0.396265	0.116991
	H53	H	0.604363	0.580677	0.879899
	H54	H	0.419122	0.585930	0.115011
	H55	H	0.415543	0.408224	0.883808
	H56	H	0.123269	0.595792	0.407289
	H57	H	0.886348	0.589901	0.594081
	H58	H	0.120679	0.409013	0.599534
	H59	H	0.886927	0.403294	0.408395
	H60	H	0.124929	0.391448	0.595731
	H61	H	0.886647	0.591536	0.592565
	H62	H	0.118023	0.586120	0.412709
	H63	H	0.886160	0.403534	0.405368
	H64	H	0.409510	0.595218	0.121068
	H65	H	0.587156	0.583081	0.884894
	H66	H	0.604644	0.397331	0.120708
	H67	H	0.416280	0.394957	0.880467
	H68	H	0.598908	0.115454	0.400435
	H69	H	0.591701	0.879640	0.589317
	H70	H	0.410303	0.108726	0.583168
	H71	H	0.412786	0.879094	0.410222
	H72	H	0.905330	0.613724	0.089758
	H73	H	0.098446	0.377791	0.094647
	H74	H	0.098816	0.609145	0.916961
	H75	H	0.905641	0.376701	0.909932
	H76	H	0.092573	0.904995	0.616013
	H77	H	0.094105	0.088396	0.381300
	H78	H	0.914082	0.081425	0.615200
	H79	H	0.908990	0.898988	0.379784
	H80	H	0.621891	0.090062	0.906572
	H81	H	0.387740	0.085728	0.089427
	H82	H	0.621036	0.902592	0.096869
	H83	H	0.385049	0.906910	0.894398
	H84	H	0.622161	0.895763	0.093160
	H85	H	0.385569	0.088827	0.094528
	H86	H	0.621379	0.086729	0.909560
	H87	H	0.382674	0.886954	0.907264
	H88	H	0.913141	0.097248	0.620018
	H89	H	0.095401	0.086576	0.382178
	H90	H	0.094230	0.897945	0.618033
	H91	H	0.907341	0.907553	0.381628
	H92	H	0.106856	0.616529	0.902244
	H93	H	0.097034	0.379505	0.091672
	H94	H	0.910006	0.614086	0.097364
	H95	H	0.912911	0.376863	0.900854
	H96	H	0.398981	0.116393	0.596348
	H97	H	0.603552	0.877618	0.589674
	H98	H	0.588811	0.110726	0.406687
	H99	H	0.407833	0.878295	0.408976
	H100	H	0.597417	0.408802	0.114669
	H101	H	0.596690	0.597365	0.878670
	H102	H	0.405773	0.581351	0.117119
	H103	H	0.404544	0.402142	0.878490
	H104	H	0.121632	0.585392	0.400098
	H105	H	0.887361	0.588568	0.591755
	H106	H	0.116721	0.402006	0.582128
	H107	H	0.885222	0.400999	0.407137
	H108	H	0.913444	0.610886	0.089960
	H109	H	0.100643	0.378060	0.091611
	H110	H	0.089091	0.611325	0.901305
	H111	H	0.916419	0.379919	0.910904
	H112	H	0.100009	0.903757	0.618572
	H113	H	0.093414	0.086096	0.381772
	H114	H	0.899948	0.087850	0.621343
	H115	H	0.914858	0.904474	0.383381
	H116	H	0.621837	0.085580	0.904698
	H117	H	0.386616	0.091517	0.089875
	H118	H	0.618751	0.902117	0.089009
	H119	H	0.391340	0.906969	0.918227
	C120	C	0.380859	0.003770	0.621928
	C121	C	0.624929	0.986510	0.621878
	C122	C	0.624758	0.003995	0.378187
	C123	C	0.381152	0.986485	0.378491
	C124	C	0.626152	0.372305	0.008043
	C125	C	0.625245	0.615504	0.990496
	C126	C	0.382937	0.615865	0.008343
	C127	C	0.383838	0.373937	0.990404
	C128	C	0.012726	0.617912	0.377391
	C129	C	0.995183	0.618268	0.621612
	C130	C	0.011967	0.373457	0.621316
	C131	C	0.994590	0.373735	0.378239
	C132	C	0.882107	0.504048	0.120944
	C133	C	0.126573	0.486893	0.121545
	C134	C	0.126652	0.503576	0.877852
	C135	C	0.882559	0.486229	0.878143
	C136	C	0.124877	0.873668	0.508395
	C137	C	0.123120	0.115824	0.490950
	C138	C	0.880701	0.117417	0.509279
	C139	C	0.882162	0.874360	0.490593
	C140	C	0.513174	0.116373	0.878194
	C141	C	0.494814	0.116247	0.120685
	C142	C	0.512168	0.872035	0.121669
	C143	C	0.495112	0.872088	0.877771
	C144	C	0.384996	0.879813	0.676480
	C145	C	0.620495	0.110570	0.675971
	C146	C	0.622051	0.880079	0.324162
	C147	C	0.382598	0.109806	0.322441
	C148	C	0.681056	0.374865	0.883753
	C149	C	0.680045	0.612543	0.115092
	C150	C	0.328172	0.613621	0.883611
	C151	C	0.328906	0.375886	0.114912
	C152	C	0.889396	0.673328	0.379222
	C153	C	0.118582	0.672737	0.619235
	C154	C	0.888498	0.319086	0.619755
	C155	C	0.117766	0.317575	0.380361
	C156	C	0.888314	0.377858	0.675946
	C157	C	0.118904	0.614532	0.676011
	C158	C	0.888862	0.614828	0.323068
	C159	C	0.118555	0.376179	0.324091
	C160	C	0.385658	0.670473	0.883482
	C161	C	0.623191	0.670078	0.114929
	C162	C	0.624088	0.317106	0.883796
	C163	C	0.385805	0.318733	0.114774
	C164	C	0.680271	0.880502	0.380779
	C165	C	0.679004	0.110204	0.619650
	C166	C	0.326087	0.880285	0.620028
	C167	C	0.324756	0.109775	0.379459
	C168	C	0.885868	0.380449	0.176118
	C169	C	0.122674	0.610701	0.175598
	C170	C	0.123551	0.380105	0.822706
	C171	C	0.885373	0.610445	0.824052
	C172	C	0.180925	0.875178	0.384446
	C173	C	0.178221	0.113420	0.615056
	C174	C	0.826378	0.114636	0.384587
	C175	C	0.827098	0.876209	0.615027
	C176	C	0.389922	0.172466	0.879583
	C177	C	0.618608	0.170292	0.119237
	C178	C	0.388809	0.817020	0.119569
	C179	C	0.618590	0.816810	0.879797
	C180	C	0.388356	0.875380	0.176470
	C181	C	0.618587	0.112026	0.175677
	C182	C	0.388789	0.113157	0.824607
	C183	C	0.618930	0.875126	0.823273
	C184	C	0.883359	0.171700	0.384690
	C185	C	0.121255	0.170669	0.615357
	C186	C	0.122902	0.818999	0.383921
	C187	C	0.884105	0.818923	0.614948
	C188	C	0.182128	0.379843	0.879290
	C189	C	0.181585	0.610231	0.119041
	C190	C	0.828433	0.379961	0.118842
	C191	C	0.825979	0.609369	0.879345
	C192	C	0.402357	0.090003	0.599747
	C193	C	0.603639	0.900189	0.599584
	C194	C	0.602462	0.090412	0.400196
	C195	C	0.404088	0.900451	0.401472
	C196	C	0.604068	0.394335	0.095039
	C197	C	0.603006	0.593548	0.903585
	C198	C	0.404961	0.593957	0.095244
	C199	C	0.405553	0.395557	0.903431
	C200	C	0.098719	0.595917	0.399947
	C201	C	0.909000	0.596536	0.599401
	C202	C	0.098463	0.394446	0.599085
	C203	C	0.908405	0.395954	0.400335
	C204	C	0.903051	0.590393	0.098711
	C205	C	0.105105	0.400596	0.099215
	C206	C	0.104654	0.589932	0.900235
	C207	C	0.904872	0.400165	0.900624
	C208	C	0.102094	0.895702	0.595162
	C209	C	0.100730	0.093788	0.404237
	C210	C	0.902595	0.095470	0.596235
	C211	C	0.904090	0.896868	0.403989
	C212	C	0.599507	0.094032	0.900299
	C213	C	0.408918	0.094925	0.098056
	C214	C	0.598324	0.893750	0.099513
	C215	C	0.408773	0.893862	0.900000
	Zn216	Zn	0.503777	-0.004975	0.750228
	Zn217	Zn	0.502948	-0.005026	0.250049
	Zn218	Zn	0.753546	0.494526	-0.000828
	Zn219	Zn	0.255328	0.494614	-0.000798
	Zn220	Zn	0.003497	0.746380	0.499458
	Zn221	Zn	0.002627	0.244949	0.499882
	Zn222	Zn	0.003694	0.495664	0.749654
	Zn223	Zn	0.003741	0.495852	0.249801
	Zn224	Zn	0.503885	0.743588	-0.000607
	Zn225	Zn	0.504332	0.244968	-0.000742
	Zn226	Zn	0.753559	-0.004411	0.499797
	Zn227	Zn	0.252578	-0.004934	0.499611
	N228	N	0.418022	0.957741	0.678204
	N229	N	0.587500	0.032683	0.677364
	N230	N	0.588257	0.957961	0.322470
	N231	N	0.416764	0.032095	0.321545
	N232	N	0.682443	0.408379	0.962018
	N233	N	0.681448	0.579132	0.036613
	N234	N	0.326241	0.580484	0.962131
	N235	N	0.327413	0.409404	0.036682
	N236	N	0.967318	0.675381	0.412465
	N237	N	0.040594	0.675337	0.586332
	N238	N	0.966474	0.316430	0.586619
	N239	N	0.039763	0.315875	0.413206
	N240	N	0.966194	0.411009	0.677218
	N241	N	0.041146	0.581391	0.677532
	N242	N	0.966617	0.581198	0.321758
	N243	N	0.040967	0.410572	0.322803
	N244	N	0.418877	0.671919	0.961963
	N245	N	0.589851	0.671999	0.036523
	N246	N	0.590680	0.315530	0.962323
	N247	N	0.419233	0.317369	0.036360
	N248	N	0.682060	0.958690	0.413653
	N249	N	0.681973	0.032019	0.586702
	N250	N	0.323628	0.958273	0.586736
	N251	N	0.323793	0.032012	0.413478
	N252	N	0.918395	0.458499	0.177679
	N253	N	0.089227	0.533081	0.177154
	N254	N	0.089541	0.457918	0.821744
	N255	N	0.920104	0.533126	0.823398
	N256	N	0.182304	0.908420	0.462885
	N257	N	0.179652	0.080012	0.536665
	N258	N	0.824688	0.081351	0.462957
	N259	N	0.825739	0.910182	0.536802
	N260	N	0.468241	0.174678	0.911976
	N261	N	0.540704	0.173173	0.085796
	N262	N	0.466884	0.814637	0.086488
	N263	N	0.540426	0.814732	0.912853
	N264	N	0.465885	0.909074	0.177924
	N265	N	0.540737	0.079128	0.176764
	N266	N	0.466439	0.078972	0.823638
	N267	N	0.541125	0.908874	0.821871
	N268	N	0.916387	0.173564	0.463389
	N269	N	0.087510	0.172289	0.537199
	N270	N	0.088603	0.818049	0.462033
	N271	N	0.917714	0.817732	0.536733
	N272	N	0.184094	0.457770	0.912843
	N273	N	0.184094	0.532175	0.086037
	N274	N	0.825763	0.457748	0.085121
	N275	N	0.824013	0.531141	0.912275
	O276	O	0.942629	0.954711	-0.014838
	H277	H	0.942439	0.953488	-0.013108
	H278	H	0.938079	0.955236	-0.012995
	O279	O	0.041936	-0.014373	0.969182
	H280	H	0.041261	-0.016525	0.965910
	H281	H	0.039331	-0.025641	0.971718
	O282	O	0.038533	0.018007	0.018844
	H283	H	0.036613	0.019764	0.024442
	H284	H	0.041438	0.020143	0.005172
	O285	O	0.503369	0.510267	0.467440
	H286	H	0.513072	0.511036	0.460100
	H287	H	0.514104	0.509850	0.469140
	O288	O	-0.001773	0.021877	0.003567
	H289	H	0.006149	0.017114	-0.000291
	H290	H	-0.002580	0.028491	0.000545
	O291	O	0.020511	0.974671	0.062129
	H292	H	0.032201	0.976213	0.069467
	H293	H	0.026869	0.980435	0.055695
	O294	O	-0.017839	1.012516	0.006737
	H295	H	-0.022142	1.006408	0.015876
	H296	H	-0.020473	1.003285	0.008544
	O297	O	0.446374	0.520135	0.436548
	H298	H	0.447810	0.514516	0.427936
	H299	H	0.437053	0.511136	0.435990
	O300	O	0.552121	0.481563	0.495251
	H301	H	0.544409	0.485789	0.490649
	H302	H	0.556523	0.485065	0.492642
	O303	O	0.718891	0.326976	1.334565
	H304	H	0.725167	0.332625	1.343413
	H305	H	0.714625	0.330418	1.330347
	O306	O	1.032989	2.038741	1.005540
	H307	H	1.020054	2.039858	1.001271
	H308	H	1.025070	2.042853	1.003953
	O309	O	0.063869	0.982591	0.940292
	H310	H	0.063354	0.980730	0.946275
	H311	H	0.072440	0.979453	0.936561
	O312	O	-0.060429	0.058166	0.979813
	H313	H	-0.062414	0.052881	0.973042
	H314	H	-0.058332	0.052214	0.974766
	O315	O	0.501335	0.529591	0.475836
	H316	H	0.512058	0.532024	0.483359
	H317	H	0.496771	0.539264	0.476640
	O318	O	0.500534	-0.491453	0.485243
	H319	H	0.508535	-0.480833	0.481845
	H320	H	0.504062	-0.496494	0.480302
	O321	O	0.491622	0.446718	0.537794
	H322	H	0.490606	0.454051	0.543598
	H323	H	0.494245	0.440776	0.544491
	O324	O	1.035725	-0.032296	1.017332
	H325	H	1.041954	-0.030809	1.017838
	H326	H	1.036614	-0.032956	1.024418
	O327	O	1.071543	1.042088	0.999264
	H328	H	1.076964	1.032143	1.004369
	H329	H	1.066231	1.042776	1.006683
	O330	O	0.531961	0.531479	0.521472
	H331	H	0.520747	0.530851	0.516472
	H332	H	0.531639	0.530926	0.525667
	O333	O	0.499259	0.508540	0.477214
	H334	H	0.491862	0.506874	0.473636
	H335	H	0.491957	0.508489	0.476344
	O336	O	0.480838	0.450910	0.459110
	H337	H	0.474024	0.445561	0.461134
	H338	H	0.486215	0.443149	0.460645
	O339	O	-0.961979	-0.003445	0.014021
	H340	H	-0.957238	0.009402	0.014593
	H341	H	-0.960860	0.000134	0.001609
	O342	O	0.557595	0.499351	0.470581
	H343	H	0.551530	0.501864	0.468602
	H344	H	0.559879	0.495328	0.478619
	O345	O	0.481865	0.554424	0.484657
	H346	H	0.480516	0.556238	0.477678
	H347	H	0.476984	0.559971	0.481088
