data_Molecule from HDF5

_cell_length_a		16.253196
_cell_length_b		16.188543
_cell_length_c		16.298949
_cell_angle_alpha	90.035573
_cell_angle_beta	89.935476
_cell_angle_gamma	90.008829
_symmetry_space_group_name_H-M	'P 1'
_symmetry_Int_Tables_number		1

loop_
	_symmetry_equiv_pos_as_xyz
	x,y,z

loop_
	_atom_site_label
	_atom_site_type_symbol
	_atom_site_fract_x
	_atom_site_fract_y
	_atom_site_fract_z
	H0	H	0.402379	0.835271	0.713292
	H1	H	0.597296	0.164419	0.713134
	H2	H	0.598585	0.835285	0.285657
	H3	H	0.402445	0.164585	0.286342
	H4	H	0.713526	0.402444	0.836443
	H5	H	0.713149	0.598309	0.164097
	H6	H	0.286361	0.598278	0.836475
	H7	H	0.286285	0.402271	0.164430
	H8	H	0.835709	0.712943	0.403519
	H9	H	0.164858	0.712476	0.596359
	H10	H	0.835419	0.287473	0.595809
	H11	H	0.164480	0.287298	0.402621
	H12	H	0.835430	0.401445	0.714081
	H13	H	0.163294	0.598749	0.714343
	H14	H	0.835877	0.597614	0.287096
	H15	H	0.164096	0.401612	0.285083
	H16	H	0.404306	0.712310	0.835872
	H17	H	0.596160	0.713801	0.164168
	H18	H	0.596984	0.287087	0.836266
	H19	H	0.403242	0.286519	0.163903
	H20	H	0.714330	0.835341	0.400851
	H21	H	0.712333	0.165397	0.596665
	H22	H	0.286888	0.834958	0.597421
	H23	H	0.286704	0.165103	0.402820
	H24	H	0.901974	0.335153	0.213564
	H25	H	0.097650	0.665249	0.212492
	H26	H	0.097683	0.335321	0.785796
	H27	H	0.902045	0.664442	0.787086
	H28	H	0.214338	0.901563	0.337019
	H29	H	0.212702	0.097458	0.664351
	H30	H	0.785274	0.099151	0.336248
	H31	H	0.786060	0.902988	0.664159
	H32	H	0.336226	0.212480	0.904028
	H33	H	0.664646	0.212673	0.097206
	H34	H	0.335537	0.787252	0.096604
	H35	H	0.664788	0.787885	0.903534
	H36	H	0.336725	0.900175	0.215351
	H37	H	0.663881	0.099036	0.214819
	H38	H	0.336442	0.097766	0.786414
	H39	H	0.663553	0.900349	0.784494
	H40	H	0.904009	0.213315	0.335407
	H41	H	0.097837	0.213669	0.664173
	H42	H	0.097077	0.787528	0.335611
	H43	H	0.903523	0.788178	0.664294
	H44	H	0.213447	0.334493	0.902170
	H45	H	0.213174	0.664752	0.096965
	H46	H	0.786511	0.335167	0.097407
	H47	H	0.787228	0.665108	0.903311
	H48	H	0.399814	0.120704	0.596942
	H49	H	0.591982	0.883740	0.590855
	H50	H	0.587575	0.117203	0.400510
	H51	H	0.396071	0.877919	0.401320
	H52	H	0.580496	0.410863	0.111960
	H53	H	0.596903	0.587531	0.884514
	H54	H	0.408902	0.596441	0.116841
	H55	H	0.399216	0.411127	0.882342
	H56	H	0.117474	0.590982	0.401895
	H57	H	0.878478	0.601908	0.599573
	H58	H	0.118755	0.401259	0.592365
	H59	H	0.882113	0.398047	0.412085
	H60	H	0.114874	0.411416	0.589864
	H61	H	0.884761	0.595185	0.584870
	H62	H	0.118633	0.597887	0.404825
	H63	H	0.886630	0.415605	0.409433
	H64	H	0.402924	0.593868	0.117384
	H65	H	0.588713	0.594928	0.884426
	H66	H	0.596271	0.391717	0.121863
	H67	H	0.411729	0.409158	0.885669
	H68	H	0.590775	0.114504	0.414054
	H69	H	0.595885	0.881762	0.592673
	H70	H	0.410853	0.117676	0.598757
	H71	H	0.418386	0.883898	0.400738
	H72	H	0.906319	0.616601	0.089124
	H73	H	0.093391	0.381295	0.096875
	H74	H	0.091799	0.618772	0.900464
	H75	H	0.900552	0.379137	0.903681
	H76	H	0.094091	0.906100	0.617021
	H77	H	0.088864	0.092022	0.384875
	H78	H	0.907344	0.087494	0.614862
	H79	H	0.899831	0.903237	0.380824
	H80	H	0.616994	0.105269	0.920029
	H81	H	0.380577	0.094345	0.103125
	H82	H	0.612303	0.913911	0.082307
	H83	H	0.382905	0.908065	0.904167
	H84	H	0.618262	0.913804	0.105596
	H85	H	0.382619	0.099504	0.088176
	H86	H	0.612085	0.074887	0.907450
	H87	H	0.382387	0.904076	0.905026
	H88	H	0.910131	0.099491	0.616651
	H89	H	0.095114	0.098646	0.381356
	H90	H	0.093122	0.906704	0.617035
	H91	H	0.905818	0.914505	0.384891
	H92	H	0.089505	0.614293	0.911277
	H93	H	0.090010	0.383230	0.092313
	H94	H	0.902450	0.619834	0.096581
	H95	H	0.911825	0.382850	0.902001
	H96	H	0.406590	0.116115	0.588406
	H97	H	0.592217	0.882007	0.595327
	H98	H	0.601130	0.119874	0.405255
	H99	H	0.406522	0.886593	0.419246
	H100	H	0.606474	0.416525	0.118274
	H101	H	0.598573	0.598681	0.880655
	H102	H	0.407315	0.590445	0.115591
	H103	H	0.404959	0.398921	0.881134
	H104	H	0.115845	0.592184	0.409306
	H105	H	0.883841	0.585448	0.599158
	H106	H	0.117455	0.409426	0.600349
	H107	H	0.879726	0.405859	0.395756
	H108	H	0.911193	0.616794	0.096952
	H109	H	0.095791	0.382188	0.091762
	H110	H	0.099634	0.618629	0.907947
	H111	H	0.907205	0.384840	0.912468
	H112	H	0.093409	0.905857	0.617980
	H113	H	0.098697	0.089947	0.383271
	H114	H	0.898512	0.095558	0.618659
	H115	H	0.912500	0.902199	0.384207
	H116	H	0.624552	0.099203	0.888009
	H117	H	0.386489	0.084290	0.092019
	H118	H	0.621528	0.894004	0.092656
	H119	H	0.383081	0.906679	0.908194
	C120	C	0.378102	0.008767	0.621778
	C121	C	0.620925	0.991469	0.620904
	C122	C	0.621754	0.008516	0.378255
	C123	C	0.378781	0.991808	0.378799
	C124	C	0.622032	0.378189	0.008921
	C125	C	0.622403	0.622078	0.991609
	C126	C	0.378466	0.621688	0.008516
	C127	C	0.378137	0.378407	0.991891
	C128	C	0.008724	0.621580	0.378414
	C129	C	0.991258	0.621863	0.621536
	C130	C	0.008184	0.379004	0.621282
	C131	C	0.991663	0.378525	0.377979
	C132	C	0.878741	0.508611	0.121808
	C133	C	0.121225	0.491464	0.121504
	C134	C	0.121590	0.508145	0.878341
	C135	C	0.878291	0.491279	0.878432
	C136	C	0.121753	0.878032	0.508776
	C137	C	0.121845	0.121773	0.491880
	C138	C	0.877950	0.122034	0.508112
	C139	C	0.877962	0.878570	0.491747
	C140	C	0.509119	0.121399	0.878134
	C141	C	0.491930	0.121095	0.121951
	C142	C	0.508590	0.878506	0.121444
	C143	C	0.491394	0.878261	0.877887
	C144	C	0.381408	0.884458	0.675761
	C145	C	0.617943	0.115487	0.675538
	C146	C	0.619276	0.884360	0.323454
	C147	C	0.381595	0.115557	0.324078
	C148	C	0.676129	0.381043	0.885387
	C149	C	0.676205	0.619208	0.115188
	C150	C	0.324032	0.618763	0.885270
	C151	C	0.323936	0.381445	0.115451
	C152	C	0.884732	0.675806	0.382269
	C153	C	0.115391	0.675578	0.617656
	C154	C	0.884282	0.324932	0.617237
	C155	C	0.115575	0.324557	0.381608
	C156	C	0.884579	0.381150	0.676260
	C157	C	0.114833	0.618836	0.676033
	C158	C	0.884802	0.618527	0.324649
	C159	C	0.115225	0.381285	0.323223
	C160	C	0.382594	0.675576	0.884893
	C161	C	0.617830	0.676277	0.115222
	C162	C	0.617931	0.324170	0.885283
	C163	C	0.381767	0.323920	0.115273
	C164	C	0.676402	0.884375	0.380968
	C165	C	0.675116	0.115883	0.617898
	C166	C	0.324431	0.884191	0.617982
	C167	C	0.324118	0.115782	0.381823
	C168	C	0.881686	0.384173	0.175809
	C169	C	0.118285	0.615728	0.175520
	C170	C	0.118297	0.384057	0.823854
	C171	C	0.881340	0.615542	0.824474
	C172	C	0.176111	0.881384	0.385438
	C173	C	0.175332	0.118456	0.615452
	C174	C	0.823479	0.119317	0.384976
	C175	C	0.823721	0.882146	0.615082
	C176	C	0.385229	0.175279	0.882619
	C177	C	0.615697	0.174983	0.117911
	C178	C	0.384772	0.824455	0.117805
	C179	C	0.615475	0.824362	0.881485
	C180	C	0.385239	0.880329	0.176960
	C181	C	0.615340	0.118410	0.176257
	C182	C	0.385333	0.118466	0.824061
	C183	C	0.614894	0.880484	0.822547
	C184	C	0.882464	0.175901	0.384482
	C185	C	0.118262	0.176223	0.615198
	C186	C	0.118257	0.824182	0.385180
	C187	C	0.881626	0.824797	0.615196
	C188	C	0.175825	0.383849	0.881586
	C189	C	0.175538	0.615533	0.117983
	C190	C	0.824220	0.384291	0.118364
	C191	C	0.824382	0.615640	0.882297
	C192	C	0.399275	0.095672	0.600889
	C193	C	0.599537	0.904781	0.599287
	C194	C	0.599665	0.094837	0.400173
	C195	C	0.400593	0.905347	0.400550
	C196	C	0.600773	0.399969	0.095102
	C197	C	0.601167	0.600232	0.905428
	C198	C	0.399991	0.599892	0.094653
	C199	C	0.399134	0.399894	0.905599
	C200	C	0.094965	0.600067	0.399243
	C201	C	0.904798	0.600551	0.600676
	C202	C	0.094643	0.400916	0.600329
	C203	C	0.905163	0.400050	0.399447
	C204	C	0.900357	0.595351	0.100500
	C205	C	0.099380	0.404637	0.100093
	C206	C	0.100083	0.594986	0.900143
	C207	C	0.900003	0.404571	0.899832
	C208	C	0.099996	0.899702	0.595070
	C209	C	0.100646	0.099945	0.405563
	C210	C	0.899092	0.100662	0.594348
	C211	C	0.899624	0.900124	0.405282
	C212	C	0.595651	0.099477	0.898906
	C213	C	0.405344	0.099083	0.100734
	C214	C	0.595086	0.900540	0.099846
	C215	C	0.404968	0.899829	0.899469
	Zn216	Zn	0.499927	-0.000417	0.749669
	Zn217	Zn	0.500021	-0.000701	0.250008
	Zn218	Zn	0.750532	0.500272	-0.000028
	Zn219	Zn	0.249417	0.499893	0.000315
	Zn220	Zn	-0.000281	0.750029	0.499844
	Zn221	Zn	0.000478	0.250227	0.499962
	Zn222	Zn	-0.000337	0.500466	0.750157
	Zn223	Zn	0.000158	0.500044	0.249895
	Zn224	Zn	0.500072	0.750208	-0.000291
	Zn225	Zn	0.500368	0.249717	0.000286
	Zn226	Zn	0.749080	-0.000014	0.499643
	Zn227	Zn	0.250031	0.000090	0.500362
	N228	N	0.414038	0.962768	0.678237
	N229	N	0.584958	0.037109	0.677596
	N230	N	0.585930	0.962396	0.321656
	N231	N	0.414878	0.037514	0.322070
	N232	N	0.678916	0.413882	0.963146
	N233	N	0.678744	0.586001	0.037414
	N234	N	0.321542	0.585905	0.962933
	N235	N	0.321588	0.414646	0.037794
	N236	N	0.962525	0.677657	0.415180
	N237	N	0.037693	0.677390	0.584452
	N238	N	0.962089	0.323382	0.584134
	N239	N	0.037761	0.322740	0.415011
	N240	N	0.962639	0.414036	0.678963
	N241	N	0.036702	0.586202	0.678724
	N242	N	0.962663	0.585251	0.322271
	N243	N	0.037265	0.414092	0.320985
	N244	N	0.415795	0.677379	0.962571
	N245	N	0.585184	0.678207	0.037512
	N246	N	0.585056	0.322292	0.963137
	N247	N	0.414891	0.322045	0.037617
	N248	N	0.678166	0.962517	0.414220
	N249	N	0.677029	0.037936	0.584728
	N250	N	0.322339	0.962425	0.584978
	N251	N	0.322425	0.037922	0.415296
	N252	N	0.914818	0.462316	0.178073
	N253	N	0.085043	0.537524	0.177704
	N254	N	0.085350	0.462359	0.821719
	N255	N	0.914388	0.537309	0.822165
	N256	N	0.178487	0.914071	0.463383
	N257	N	0.177713	0.085358	0.537695
	N258	N	0.820410	0.086644	0.462768
	N259	N	0.821293	0.914713	0.537126
	N260	N	0.462979	0.177130	0.915309
	N261	N	0.538005	0.176454	0.084668
	N262	N	0.462407	0.823223	0.084041
	N263	N	0.537850	0.823001	0.915214
	N264	N	0.463215	0.913219	0.179189
	N265	N	0.537255	0.085666	0.178933
	N266	N	0.463422	0.085415	0.821445
	N267	N	0.536865	0.913171	0.820221
	N268	N	0.915677	0.177625	0.462112
	N269	N	0.085356	0.178116	0.537526
	N270	N	0.084863	0.822382	0.462772
	N271	N	0.914710	0.822641	0.537536
	N272	N	0.177732	0.461940	0.914997
	N273	N	0.177469	0.537312	0.085113
	N274	N	0.822281	0.462514	0.085352
	N275	N	0.822477	0.537355	0.914897
