data_Molecule from HDF5

_cell_length_a		16.333683
_cell_length_b		16.286504
_cell_length_c		16.616027
_cell_angle_alpha	90.174524
_cell_angle_beta	89.999110
_cell_angle_gamma	89.863126
_symmetry_space_group_name_H-M	'P 1'
_symmetry_Int_Tables_number		1

loop_
	_symmetry_equiv_pos_as_xyz
	x,y,z

loop_
	_atom_site_label
	_atom_site_type_symbol
	_atom_site_fract_x
	_atom_site_fract_y
	_atom_site_fract_z
	H0	H	0.394610	0.846233	0.726097
	H1	H	0.617305	0.158974	0.731667
	H2	H	0.615301	0.847762	0.276145
	H3	H	0.391941	0.161556	0.278275
	H4	H	0.728077	0.393595	0.847482
	H5	H	0.731232	0.615542	0.157498
	H6	H	0.279516	0.609318	0.847270
	H7	H	0.273420	0.391871	0.157359
	H8	H	0.844190	0.727991	0.395689
	H9	H	0.160377	0.723770	0.607734
	H10	H	0.842509	0.283199	0.607185
	H11	H	0.160742	0.280694	0.396973
	H12	H	0.846409	0.390841	0.729809
	H13	H	0.157458	0.612733	0.727787
	H14	H	0.847288	0.618031	0.274858
	H15	H	0.158864	0.389717	0.276400
	H16	H	0.397121	0.725787	0.847236
	H17	H	0.612889	0.730817	0.158673
	H18	H	0.610114	0.278375	0.847795
	H19	H	0.394297	0.278777	0.159577
	H20	H	0.725065	0.845503	0.396936
	H21	H	0.724513	0.163678	0.609592
	H22	H	0.281043	0.845905	0.608001
	H23	H	0.281110	0.164297	0.398598
	H24	H	0.892423	0.346641	0.228154
	H25	H	0.111795	0.660813	0.229458
	H26	H	0.113725	0.347468	0.777349
	H27	H	0.890308	0.659873	0.778354
	H28	H	0.227352	0.893078	0.346369
	H29	H	0.225346	0.110889	0.658396
	H30	H	0.775391	0.113123	0.347563
	H31	H	0.777618	0.896367	0.658536
	H32	H	0.343606	0.222220	0.901879
	H33	H	0.663831	0.223583	0.108209
	H34	H	0.342549	0.785423	0.105021
	H35	H	0.661598	0.779498	0.896185
	H36	H	0.345013	0.894846	0.226701
	H37	H	0.660025	0.114701	0.229767
	H38	H	0.346523	0.112282	0.779706
	H39	H	0.659166	0.889705	0.775746
	H40	H	0.893296	0.228270	0.345903
	H41	H	0.107165	0.226542	0.658140
	H42	H	0.107288	0.779802	0.345373
	H43	H	0.895205	0.781396	0.659409
	H44	H	0.221733	0.343555	0.899764
	H45	H	0.224524	0.662742	0.110745
	H46	H	0.781655	0.344056	0.109450
	H47	H	0.779331	0.661635	0.897134
	H48	H	0.419032	0.115430	0.587089
	H49	H	0.584340	0.892964	0.589711
	H50	H	0.592192	0.118452	0.416708
	H51	H	0.422081	0.891061	0.411430
	H52	H	0.596003	0.419156	0.115140
	H53	H	0.595738	0.589534	0.892144
	H54	H	0.412554	0.593239	0.115875
	H55	H	0.405096	0.418796	0.891074
	H56	H	0.114953	0.593041	0.418278
	H57	H	0.885992	0.596877	0.590753
	H58	H	0.114993	0.413846	0.588437
	H59	H	0.890161	0.420333	0.414293
	H60	H	0.113165	0.420689	0.590484
	H61	H	0.889536	0.587286	0.587461
	H62	H	0.111447	0.584513	0.418200
	H63	H	0.889115	0.418123	0.413437
	H64	H	0.412932	0.591000	0.114864
	H65	H	0.588099	0.586439	0.895362
	H66	H	0.587001	0.419667	0.111906
	H67	H	0.420695	0.417749	0.895739
	H68	H	0.585374	0.118297	0.411095
	H69	H	0.591818	0.891523	0.585123
	H70	H	0.411496	0.119791	0.591429
	H71	H	0.416044	0.892396	0.418688
	H72	H	0.929317	0.611980	0.090851
	H73	H	0.084880	0.390803	0.094105
	H74	H	0.089346	0.620252	0.907718
	H75	H	0.914054	0.388671	0.916363
	H76	H	0.088546	0.913383	0.613466
	H77	H	0.089868	0.090923	0.390916
	H78	H	0.915838	0.090495	0.612072
	H79	H	0.916986	0.913667	0.391293
	H80	H	0.616294	0.086518	0.916034
	H81	H	0.388570	0.090938	0.095599
	H82	H	0.616990	0.921104	0.096296
	H83	H	0.387675	0.914441	0.909014
	H84	H	0.617055	0.912540	0.089752
	H85	H	0.390589	0.093410	0.088940
	H86	H	0.618436	0.089130	0.913335
	H87	H	0.390227	0.913880	0.916903
	H88	H	0.916438	0.095268	0.613851
	H89	H	0.090565	0.092106	0.390644
	H90	H	0.095610	0.912424	0.615090
	H91	H	0.911214	0.916139	0.390468
	H92	H	0.083732	0.615216	0.916433
	H93	H	0.086001	0.393375	0.086650
	H94	H	0.911658	0.614703	0.079815
	H95	H	0.917812	0.388920	0.910832
	H96	H	0.419568	0.118117	0.596218
	H97	H	0.591147	0.889453	0.593672
	H98	H	0.584056	0.115263	0.419019
	H99	H	0.412620	0.888119	0.410912
	H100	H	0.590413	0.411197	0.115624
	H101	H	0.588177	0.594659	0.892137
	H102	H	0.414817	0.592943	0.114910
	H103	H	0.413103	0.404704	0.889532
	H104	H	0.116008	0.587373	0.410967
	H105	H	0.886666	0.588645	0.597468
	H106	H	0.117070	0.416337	0.594750
	H107	H	0.889617	0.418478	0.416255
	H108	H	0.912722	0.621216	0.099063
	H109	H	0.091451	0.389096	0.090270
	H110	H	0.094201	0.618771	0.917625
	H111	H	0.919847	0.391149	0.917386
	H112	H	0.092663	0.918992	0.612750
	H113	H	0.091908	0.090664	0.390344
	H114	H	0.911455	0.092723	0.613304
	H115	H	0.915623	0.919380	0.393556
	H116	H	0.616881	0.090645	0.917113
	H117	H	0.393336	0.085945	0.091170
	H118	H	0.612766	0.922164	0.086728
	H119	H	0.390963	0.921118	0.912852
	C120	C	0.382564	0.013158	0.624074
	C121	C	0.623994	0.995359	0.624272
	C122	C	0.622609	0.012987	0.381730
	C123	C	0.382103	0.995386	0.381319
	C124	C	0.625007	0.381708	0.011705
	C125	C	0.625431	0.625631	0.995500
	C126	C	0.380931	0.625055	0.012097
	C127	C	0.379579	0.380524	0.994962
	C128	C	0.010794	0.624065	0.381640
	C129	C	0.992172	0.624594	0.624605
	C130	C	0.011117	0.382611	0.624590
	C131	C	0.993819	0.383474	0.381051
	C132	C	0.882277	0.512319	0.124520
	C133	C	0.122856	0.495300	0.124762
	C134	C	0.122548	0.512807	0.881635
	C135	C	0.882170	0.494126	0.882067
	C136	C	0.125514	0.880703	0.510432
	C137	C	0.123869	0.125294	0.493593
	C138	C	0.880346	0.126351	0.510621
	C139	C	0.880644	0.882418	0.494498
	C140	C	0.512426	0.123168	0.882740
	C141	C	0.494824	0.125015	0.125768
	C142	C	0.511055	0.884421	0.123327
	C143	C	0.494383	0.881744	0.880242
	C144	C	0.377636	0.893966	0.685317
	C145	C	0.631782	0.112574	0.689122
	C146	C	0.630151	0.894568	0.318511
	C147	C	0.375976	0.114443	0.319645
	C148	C	0.687165	0.376938	0.894331
	C149	C	0.689406	0.632062	0.111315
	C150	C	0.320066	0.627574	0.893976
	C151	C	0.316380	0.375949	0.111508
	C152	C	0.892018	0.687337	0.377726
	C153	C	0.111864	0.685001	0.626774
	C154	C	0.891197	0.321980	0.626584
	C155	C	0.112804	0.320424	0.378146
	C156	C	0.893125	0.375784	0.687810
	C157	C	0.110685	0.629305	0.686165
	C158	C	0.893566	0.632310	0.317579
	C159	C	0.111841	0.375465	0.318273
	C160	C	0.378458	0.685397	0.894091
	C161	C	0.630235	0.689531	0.111802
	C162	C	0.628532	0.319273	0.894532
	C163	C	0.376327	0.318975	0.112393
	C164	C	0.685150	0.893480	0.378498
	C165	C	0.685506	0.114766	0.628172
	C166	C	0.321012	0.893669	0.626642
	C167	C	0.320526	0.115632	0.379433
	C168	C	0.875886	0.393819	0.187091
	C169	C	0.128757	0.613681	0.187879
	C170	C	0.128749	0.394220	0.819553
	C171	C	0.875003	0.612745	0.819630
	C172	C	0.186776	0.876175	0.393429
	C173	C	0.184815	0.128658	0.611216
	C174	C	0.817188	0.130155	0.393822
	C175	C	0.818425	0.878781	0.611750
	C176	C	0.392070	0.183470	0.881916
	C177	C	0.614811	0.185496	0.127796
	C178	C	0.390934	0.823975	0.124736
	C179	C	0.613421	0.819430	0.877710
	C180	C	0.392141	0.878906	0.185034
	C181	C	0.613073	0.130792	0.188188
	C182	C	0.393555	0.128655	0.821210
	C183	C	0.612461	0.874753	0.817698
	C184	C	0.875792	0.187722	0.392897
	C185	C	0.126210	0.186517	0.611249
	C186	C	0.126962	0.819400	0.392935
	C187	C	0.877226	0.821428	0.612284
	C188	C	0.182972	0.392432	0.880265
	C189	C	0.184867	0.614521	0.128767
	C190	C	0.820541	0.392713	0.127959
	C191	C	0.819529	0.613530	0.878942
	C192	C	0.409060	0.095953	0.598932
	C193	C	0.596673	0.912764	0.597261
	C194	C	0.595062	0.095713	0.408082
	C195	C	0.409078	0.912293	0.406518
	C196	C	0.598458	0.408853	0.093039
	C197	C	0.598450	0.597994	0.914504
	C198	C	0.406070	0.599718	0.093690
	C199	C	0.405465	0.406139	0.913468
	C200	C	0.092821	0.596036	0.408362
	C201	C	0.909013	0.598448	0.599207
	C202	C	0.093641	0.409361	0.598697
	C203	C	0.911314	0.411227	0.407067
	C204	C	0.910028	0.594541	0.097674
	C205	C	0.095349	0.412619	0.098164
	C206	C	0.096341	0.596363	0.906787
	C207	C	0.909420	0.411366	0.907630
	C208	C	0.099626	0.907212	0.592633
	C209	C	0.098205	0.098765	0.411847
	C210	C	0.907052	0.100512	0.591825
	C211	C	0.907084	0.908908	0.413171
	C212	C	0.595405	0.096463	0.908023
	C213	C	0.412140	0.097744	0.099553
	C214	C	0.593815	0.910977	0.098092
	C215	C	0.411295	0.908675	0.905613
	Zn216	Zn	0.503727	0.003568	0.752511
	Zn217	Zn	0.502763	0.003795	0.253221
	Zn218	Zn	0.754774	0.502762	0.003375
	Zn219	Zn	0.250619	0.503849	0.003177
	Zn220	Zn	0.001774	0.752191	0.502781
	Zn221	Zn	0.001467	0.255423	0.501762
	Zn222	Zn	0.001700	0.503333	0.752945
	Zn223	Zn	0.002390	0.503335	0.252734
	Zn224	Zn	0.502951	0.754732	0.003194
	Zn225	Zn	0.503796	0.252233	0.004073
	Zn226	Zn	0.751261	0.004338	0.502647
	Zn227	Zn	0.254192	0.004081	0.502133
	N228	N	0.415267	0.969275	0.683864
	N229	N	0.594272	0.037196	0.686778
	N230	N	0.592090	0.969898	0.320444
	N231	N	0.413430	0.038862	0.320781
	N232	N	0.685314	0.414872	0.968354
	N233	N	0.686651	0.593129	0.037944
	N234	N	0.321335	0.590588	0.968334
	N235	N	0.318256	0.413528	0.037677
	N236	N	0.965875	0.682089	0.417144
	N237	N	0.037034	0.682162	0.589142
	N238	N	0.965528	0.325909	0.587679
	N239	N	0.038335	0.325165	0.416564
	N240	N	0.968753	0.412476	0.686769
	N241	N	0.035145	0.592734	0.685019
	N242	N	0.968217	0.593343	0.320138
	N243	N	0.036800	0.413783	0.319920
	N244	N	0.415486	0.684021	0.968081
	N245	N	0.591114	0.685587	0.038612
	N246	N	0.590906	0.322063	0.968400
	N247	N	0.415163	0.321761	0.039056
	N248	N	0.680705	0.968085	0.417236
	N249	N	0.680882	0.040798	0.588622
	N250	N	0.323664	0.968752	0.589440
	N251	N	0.324169	0.040499	0.416995
	N252	N	0.913194	0.469336	0.185361
	N253	N	0.091120	0.538436	0.185361
	N254	N	0.092119	0.470178	0.820174
	N255	N	0.913088	0.537343	0.821340
	N256	N	0.186169	0.913303	0.467842
	N257	N	0.183217	0.091189	0.537147
	N258	N	0.819900	0.092889	0.467768
	N259	N	0.820289	0.916005	0.537639
	N260	N	0.467206	0.180609	0.919017
	N261	N	0.540083	0.182089	0.089830
	N262	N	0.465870	0.827065	0.087259
	N263	N	0.538843	0.823708	0.915922
	N264	N	0.467876	0.915474	0.184459
	N265	N	0.537281	0.094287	0.187083
	N266	N	0.469540	0.092203	0.821431
	N267	N	0.537325	0.912779	0.819202
	N268	N	0.914489	0.185371	0.466371
	N269	N	0.089048	0.184706	0.537020
	N270	N	0.089773	0.821960	0.467068
	N271	N	0.914935	0.823372	0.538490
	N272	N	0.179321	0.467446	0.918212
	N273	N	0.181536	0.539657	0.090483
	N274	N	0.824343	0.467481	0.089825
	N275	N	0.823925	0.538959	0.917104
	O276	O	0.712312	0.465670	0.552970
	H277	H	0.709604	0.465291	0.549421
	H278	H	0.702981	0.443638	0.551212
	O279	O	1.077648	0.169384	0.980375
	H280	H	1.066867	0.172633	0.998497
	H281	H	1.087124	0.160588	0.994955
	O282	O	0.714964	0.293499	0.485033
	H283	H	0.728093	0.273201	0.467925
	H284	H	0.709387	0.294374	0.487506
	O285	O	0.539308	0.317616	0.548725
	H286	H	0.551248	0.317997	0.560281
	H287	H	0.538100	0.313848	0.565773
	O288	O	0.795564	0.800298	0.023499
	H289	H	0.818916	0.779691	0.008244
	H290	H	0.792569	0.769915	0.022579
	O291	O	0.515536	0.714366	0.714478
	H292	H	0.534108	0.719718	0.731663
	H293	H	0.539228	0.713735	0.722794
	O294	O	0.158030	0.131251	1.189560
	H295	H	0.130399	0.128751	1.188404
	H296	H	0.146886	0.140494	1.165113
	O297	O	0.294799	0.296167	0.536007
	H298	H	0.283359	0.311965	0.515414
	H299	H	0.287151	0.286693	0.516003
	O300	O	0.469476	0.648289	0.532079
	H301	H	0.473643	0.647902	0.522140
	H302	H	0.481282	0.643587	0.559037
	O303	O	0.538225	0.463738	0.724768
	H304	H	0.517095	0.463379	0.724091
	H305	H	0.538043	0.445753	0.729373
	O306	O	0.481978	0.530381	0.639714
	H307	H	0.456564	0.537714	0.636445
	H308	H	0.484166	0.535629	0.640066
	O309	O	0.480394	0.510056	0.305777
	H310	H	0.506765	0.512252	0.306134
	H311	H	0.482521	0.521649	0.320112
	O312	O	0.128964	0.970493	1.112272
	H313	H	0.135186	0.987290	1.110476
	H314	H	0.130438	0.958972	1.106819
	O315	O	-0.056932	1.167669	0.971305
	H316	H	-0.071505	1.177842	0.977179
	H317	H	-0.053590	1.169786	0.977339
	O318	O	0.945043	-0.195324	0.203094
	H319	H	0.961439	-0.216361	0.205118
	H320	H	0.955789	-0.174548	0.208855
	O321	O	0.357689	-0.297639	-0.353937
	H322	H	0.379651	-0.316697	-0.361996
	H323	H	0.375320	-0.310054	-0.355242
	O324	O	0.713245	0.519807	0.714247
	H325	H	0.743086	0.515821	0.737238
	H326	H	0.694238	0.492985	0.706979
	O327	O	0.317681	0.314904	0.700215
	H328	H	0.295803	0.334447	0.715756
	H329	H	0.307374	0.307203	0.646489
	O330	O	-0.064012	1.153781	-0.200644
	H331	H	-0.076823	1.165428	-0.217762
	H332	H	-0.042929	1.147496	-0.167036
	O333	O	0.321576	0.689400	0.318323
	H334	H	0.320329	0.688455	0.348887
	H335	H	0.309805	0.646649	0.317573
	O336	O	-0.088563	0.083003	0.214092
	H337	H	-0.116038	0.076835	0.202146
	H338	H	-0.090366	0.074897	0.213214
	O339	O	0.191141	1.019009	1.104390
	H340	H	0.210761	1.016943	1.132709
	H341	H	0.193148	1.043438	1.101616
	O342	O	0.194091	0.810036	0.814466
	H343	H	0.195964	0.790602	0.789420
	H344	H	0.204182	0.861118	0.809374
	O345	O	0.800769	0.903508	0.167249
	H346	H	0.822185	0.890499	0.155220
	H347	H	0.799312	0.892719	0.146802
	O348	O	0.282749	0.525472	0.284725
	H349	H	0.320673	0.499383	0.279449
	H350	H	0.249791	0.525938	0.244668
	O351	O	0.209950	0.984237	0.835985
	H352	H	0.233092	0.996152	0.814159
	H353	H	0.182798	1.002239	0.842979
	O354	O	-0.202493	1.216433	-0.017174
	H355	H	-0.223404	1.232187	-0.034238
	H356	H	-0.202198	1.219130	-0.055929
	O357	O	0.034042	-0.073976	0.939486
	H358	H	0.040420	-0.092246	0.932111
	H359	H	0.042624	-0.087574	0.940447
	O360	O	0.482024	0.281256	0.726313
	H361	H	0.477130	0.241020	0.763305
	H362	H	0.429254	0.295762	0.715057
	O363	O	0.071857	-0.103062	1.161218
	H364	H	0.112094	-0.093981	1.160334
	H365	H	0.067081	-0.085785	1.155229
	O366	O	0.554818	0.710623	0.436195
	H367	H	0.530128	0.701042	0.440962
	H368	H	0.563523	0.714966	0.421486
	O369	O	0.484682	0.719395	0.281937
	H370	H	0.473681	0.737667	0.281645
	H371	H	0.455517	0.729258	0.272833
	O372	O	1.210781	-0.180084	0.962748
	H373	H	1.206044	-0.170912	0.930291
	H374	H	1.220565	-0.195530	0.958580
	O375	O	0.453780	0.469205	0.275844
	H376	H	0.473922	0.477394	0.272367
	H377	H	0.466368	0.443240	0.279099
	O378	O	0.289976	0.714090	0.481288
	H379	H	0.312891	0.718093	0.498166
	H380	H	0.273876	0.745614	0.478258
	O381	O	0.523484	0.286055	0.282718
	H382	H	0.543581	0.263886	0.271792
	H383	H	0.528686	0.269720	0.290251
	O384	O	0.537701	0.460623	0.524964
	H385	H	0.547431	0.466478	0.515130
	H386	H	0.543378	0.438600	0.537277
	O387	O	-0.199219	-0.050575	0.915883
	H388	H	-0.187439	-0.068098	0.935824
	H389	H	-0.198194	-0.057744	0.942450
	O390	O	0.199967	0.206700	0.055634
	H391	H	0.208721	0.212283	0.061859
	H392	H	0.192095	0.200189	0.043491
	O393	O	0.910178	1.071478	1.043836
	H394	H	0.909493	1.067338	1.060088
	H395	H	0.908392	1.085320	1.041585
	O396	O	0.900743	0.004819	0.108069
	H397	H	0.888383	-0.005124	0.107685
	H398	H	0.888857	-0.020755	0.100779
	O399	O	1.130555	0.124152	0.791607
	H400	H	1.116608	0.138445	0.799900
	H401	H	1.108040	0.102241	0.805422
	O402	O	1.059610	0.984307	1.014108
	H403	H	1.058344	0.982063	1.014933
	H404	H	1.077601	0.983736	1.011106
	O405	O	0.984560	0.879357	-0.027976
	H406	H	1.013526	0.874982	-0.027035
	H407	H	0.994806	0.880161	-0.031247
	O408	O	1.025051	-0.208158	-0.207923
	H409	H	1.017217	-0.202919	-0.229576
	H410	H	1.056486	-0.215381	-0.222319
	O411	O	1.088775	0.804527	0.087254
	H412	H	1.093818	0.805911	0.104844
	H413	H	1.114665	0.806558	0.082178
	O414	O	0.293474	0.450381	0.469410
	H415	H	0.292580	0.472506	0.436835
	H416	H	0.319219	0.451036	0.479836
	O417	O	0.674382	0.682189	0.683022
	H418	H	0.688041	0.637450	0.689531
	H419	H	0.676044	0.685349	0.650363
	O420	O	-0.182838	0.052765	-0.126785
	H421	H	-0.196356	0.032710	-0.099118
	H422	H	-0.216201	0.049787	-0.143781
	O423	O	0.721596	0.489054	0.283278
	H424	H	0.729802	0.505216	0.288926
	H425	H	0.733483	0.493934	0.261662
	O426	O	0.680079	0.330842	0.326658
	H427	H	0.663191	0.322491	0.345207
	H428	H	0.691885	0.382435	0.314218
	O429	O	0.296599	0.487501	0.712848
	H430	H	0.275400	0.478128	0.716517
	H431	H	0.295273	0.496021	0.700478
	O432	O	0.715432	0.578338	0.423808
	H433	H	0.718355	0.554001	0.429495
	H434	H	0.690373	0.597211	0.429888
	O435	O	0.713738	0.712268	0.523598
	H436	H	0.713064	0.725378	0.511064
	H437	H	0.729622	0.710946	0.520649
	O438	O	-0.031889	-0.037077	-0.215156
	H439	H	-0.060502	-0.038074	-0.223008
	H440	H	-0.038267	-0.041442	-0.199286
	O441	O	1.053606	0.175733	0.190677
	H442	H	1.032423	0.167528	0.210477
	H443	H	1.041236	0.172060	0.205925
	O444	O	-0.177675	1.184550	0.824523
	H445	H	-0.129902	1.186613	0.813342
	H446	H	-0.186525	1.140100	0.807839
	O447	O	0.325496	0.555389	0.540666
	H448	H	0.329822	0.546565	0.521864
	H449	H	0.325740	0.585154	0.525119
	O450	O	0.536011	0.468837	0.486685
	H451	H	0.524758	0.462648	0.496439
	H452	H	0.521778	0.467511	0.490198
	O453	O	0.436887	0.300802	0.424084
	H454	H	0.440863	0.302183	0.434021
	H455	H	0.457528	0.307278	0.429497
