data_Molecule from HDF5

_cell_length_a		16.569383
_cell_length_b		16.399510
_cell_length_c		16.292742
_cell_angle_alpha	89.981160
_cell_angle_beta	90.077927
_cell_angle_gamma	89.903023
_symmetry_space_group_name_H-M	'P 1'
_symmetry_Int_Tables_number		1

loop_
	_symmetry_equiv_pos_as_xyz
	x,y,z

loop_
	_atom_site_label
	_atom_site_type_symbol
	_atom_site_fract_x
	_atom_site_fract_y
	_atom_site_fract_z
	H0	H	0.401167	0.844795	0.716981
	H1	H	0.603777	0.165813	0.715645
	H2	H	0.603258	0.843437	0.283259
	H3	H	0.400410	0.164039	0.279540
	H4	H	0.723360	0.395102	0.837175
	H5	H	0.724995	0.610217	0.154232
	H6	H	0.281200	0.609554	0.837265
	H7	H	0.281711	0.398512	0.157064
	H8	H	0.845728	0.724906	0.392709
	H9	H	0.161482	0.723496	0.599775
	H10	H	0.844683	0.283196	0.599736
	H11	H	0.160722	0.281165	0.390548
	H12	H	0.845479	0.398801	0.717727
	H13	H	0.161438	0.606759	0.716697
	H14	H	0.845044	0.606151	0.277123
	H15	H	0.161730	0.400285	0.276997
	H16	H	0.398365	0.724121	0.836714
	H17	H	0.605054	0.721870	0.156892
	H18	H	0.603766	0.283184	0.836895
	H19	H	0.398432	0.284991	0.158662
	H20	H	0.724425	0.846523	0.395044
	H21	H	0.723861	0.164638	0.604175
	H22	H	0.280476	0.846557	0.605052
	H23	H	0.278737	0.161567	0.389063
	H24	H	0.898881	0.344856	0.215953
	H25	H	0.104026	0.664140	0.214294
	H26	H	0.103425	0.342861	0.780459
	H27	H	0.899331	0.663524	0.776801
	H28	H	0.226597	0.895196	0.339952
	H29	H	0.224872	0.110933	0.655601
	H30	H	0.780396	0.110909	0.339542
	H31	H	0.783251	0.897573	0.657864
	H32	H	0.343962	0.222617	0.895206
	H33	H	0.660306	0.225532	0.102553
	H34	H	0.345407	0.781450	0.103674
	H35	H	0.659654	0.780044	0.891215
	H36	H	0.345171	0.900044	0.219317
	H37	H	0.662282	0.106435	0.217348
	H38	H	0.346206	0.110149	0.774726
	H39	H	0.660008	0.896662	0.774618
	H40	H	0.899104	0.221187	0.336512
	H41	H	0.107230	0.225098	0.655848
	H42	H	0.107144	0.783343	0.337530
	H43	H	0.900174	0.783330	0.657635
	H44	H	0.222375	0.344337	0.893825
	H45	H	0.225173	0.661357	0.104872
	H46	H	0.779362	0.346452	0.103317
	H47	H	0.777828	0.660418	0.886263
	H48	H	0.417361	0.114583	0.579574
	H49	H	0.592779	0.892505	0.584365
	H50	H	0.590082	0.117385	0.409733
	H51	H	0.412638	0.890956	0.411137
	H52	H	0.590172	0.412308	0.111245
	H53	H	0.594585	0.587765	0.881913
	H54	H	0.411368	0.592059	0.110994
	H55	H	0.413785	0.405850	0.880598
	H56	H	0.113144	0.589501	0.410520
	H57	H	0.893923	0.589261	0.578135
	H58	H	0.111044	0.418106	0.579786
	H59	H	0.890454	0.406029	0.411482
	H60	H	0.116614	0.417324	0.593979
	H61	H	0.889723	0.588779	0.594264
	H62	H	0.117555	0.592869	0.400844
	H63	H	0.892603	0.420058	0.407735
	H64	H	0.413697	0.590404	0.110419
	H65	H	0.585924	0.590119	0.884376
	H66	H	0.595190	0.417166	0.111037
	H67	H	0.404226	0.416903	0.881608
	H68	H	0.596028	0.118272	0.412630
	H69	H	0.598382	0.891280	0.585078
	H70	H	0.408804	0.118423	0.583130
	H71	H	0.412888	0.890221	0.410730
	H72	H	0.916074	0.616919	0.086308
	H73	H	0.096559	0.389370	0.086404
	H74	H	0.095421	0.617931	0.909354
	H75	H	0.912239	0.389815	0.908282
	H76	H	0.094407	0.919034	0.611422
	H77	H	0.094940	0.090522	0.382184
	H78	H	0.917887	0.091861	0.610918
	H79	H	0.913155	0.919555	0.386095
	H80	H	0.614105	0.092851	0.910376
	H81	H	0.388657	0.094502	0.092787
	H82	H	0.613883	0.911115	0.082247
	H83	H	0.391346	0.912786	0.907245
	H84	H	0.614188	0.917937	0.091217
	H85	H	0.390164	0.097696	0.086223
	H86	H	0.614307	0.092451	0.908226
	H87	H	0.391846	0.916125	0.911232
	H88	H	0.914381	0.097842	0.614255
	H89	H	0.089040	0.085673	0.386178
	H90	H	0.088531	0.914672	0.610485
	H91	H	0.916142	0.913931	0.384120
	H92	H	0.092602	0.618363	0.905619
	H93	H	0.091802	0.389617	0.087327
	H94	H	0.912635	0.615210	0.079346
	H95	H	0.914281	0.391619	0.908034
	H96	H	0.416661	0.117953	0.589363
	H97	H	0.594769	0.891066	0.589159
	H98	H	0.595169	0.120511	0.406307
	H99	H	0.413254	0.891607	0.410739
	H100	H	0.589055	0.418762	0.109104
	H101	H	0.591029	0.596388	0.880351
	H102	H	0.414216	0.593293	0.111079
	H103	H	0.417528	0.419419	0.886405
	H104	H	0.117461	0.599569	0.409408
	H105	H	0.888274	0.603352	0.584705
	H106	H	0.117051	0.405212	0.584854
	H107	H	0.887646	0.411048	0.397863
	H108	H	0.908376	0.619313	0.084977
	H109	H	0.093387	0.390491	0.083233
	H110	H	0.091210	0.616318	0.908865
	H111	H	0.912906	0.390949	0.909984
	H112	H	0.094541	0.912273	0.613289
	H113	H	0.087189	0.094060	0.383009
	H114	H	0.910654	0.091025	0.612830
	H115	H	0.909848	0.915294	0.382138
	H116	H	0.615185	0.094279	0.909143
	H117	H	0.391639	0.090650	0.087557
	H118	H	0.618351	0.907171	0.092347
	H119	H	0.391104	0.917998	0.906996
	C120	C	0.382413	0.012329	0.617393
	C121	C	0.625850	0.996773	0.619470
	C122	C	0.624541	0.013068	0.378284
	C123	C	0.380770	0.995391	0.377193
	C124	C	0.622827	0.382788	0.005037
	C125	C	0.623143	0.624102	0.987485
	C126	C	0.380851	0.624496	0.005363
	C127	C	0.381187	0.382819	0.989217
	C128	C	0.011698	0.625804	0.375183
	C129	C	0.994805	0.625352	0.617946
	C130	C	0.011210	0.381742	0.618007
	C131	C	0.994585	0.380785	0.373668
	C132	C	0.880834	0.512371	0.116582
	C133	C	0.124749	0.495013	0.117861
	C134	C	0.123980	0.512069	0.876170
	C135	C	0.880617	0.495099	0.874693
	C136	C	0.124417	0.882899	0.506363
	C137	C	0.123099	0.123902	0.488429
	C138	C	0.882254	0.124995	0.506450
	C139	C	0.882128	0.883668	0.489735
	C140	C	0.510769	0.125444	0.876584
	C141	C	0.494594	0.126000	0.120652
	C142	C	0.511192	0.881161	0.120564
	C143	C	0.494831	0.882229	0.875384
	C144	C	0.381631	0.892706	0.677677
	C145	C	0.624493	0.117359	0.677608
	C146	C	0.623803	0.891764	0.321174
	C147	C	0.380253	0.115513	0.317685
	C148	C	0.682891	0.378518	0.885142
	C149	C	0.684082	0.627401	0.107040
	C150	C	0.321190	0.627548	0.884958
	C151	C	0.321850	0.380782	0.109518
	C152	C	0.893039	0.685185	0.373786
	C153	C	0.114158	0.683874	0.619060
	C154	C	0.892249	0.322587	0.618858
	C155	C	0.113323	0.321492	0.372413
	C156	C	0.892313	0.380605	0.677179
	C157	C	0.113907	0.625819	0.677120
	C158	C	0.892350	0.625940	0.316621
	C159	C	0.114118	0.380871	0.315559
	C160	C	0.379431	0.684593	0.884877
	C161	C	0.624616	0.683188	0.108242
	C162	C	0.623352	0.322853	0.884891
	C163	C	0.379873	0.324032	0.110029
	C164	C	0.683892	0.893454	0.376613
	C165	C	0.684297	0.116834	0.622125
	C166	C	0.321708	0.893535	0.621770
	C167	C	0.319607	0.114197	0.372237
	C168	C	0.879926	0.392784	0.176715
	C169	C	0.124287	0.615594	0.176066
	C170	C	0.123216	0.391208	0.818817
	C171	C	0.879465	0.614832	0.814876
	C172	C	0.185576	0.878612	0.387123
	C173	C	0.184296	0.128642	0.608028
	C174	C	0.821304	0.127819	0.386828
	C175	C	0.823033	0.880292	0.609709
	C176	C	0.391699	0.183771	0.875560
	C177	C	0.613300	0.185370	0.121579
	C178	C	0.392733	0.821652	0.122406
	C179	C	0.612480	0.820762	0.872801
	C180	C	0.392521	0.880754	0.179922
	C181	C	0.614213	0.126149	0.178773
	C182	C	0.392675	0.127626	0.815788
	C183	C	0.612750	0.878914	0.814584
	C184	C	0.880274	0.182935	0.385273
	C185	C	0.125686	0.185101	0.608188
	C186	C	0.126207	0.822926	0.385890
	C187	C	0.881400	0.823354	0.609710
	C188	C	0.182297	0.391929	0.875247
	C189	C	0.184452	0.614356	0.121348
	C190	C	0.820273	0.393643	0.120730
	C191	C	0.819264	0.613567	0.870068
	C192	C	0.407259	0.095305	0.591443
	C193	C	0.602186	0.913386	0.593880
	C194	C	0.600642	0.096916	0.402362
	C195	C	0.405801	0.912438	0.403339
	C196	C	0.598433	0.408683	0.088623
	C197	C	0.597960	0.598658	0.903870
	C198	C	0.405703	0.598931	0.089014
	C199	C	0.404979	0.406962	0.904783
	C200	C	0.094548	0.601159	0.399827
	C201	C	0.912195	0.601099	0.592728
	C202	C	0.093450	0.406413	0.593426
	C203	C	0.911800	0.405142	0.398566
	C204	C	0.905413	0.595528	0.090740
	C205	C	0.100975	0.411599	0.092733
	C206	C	0.099884	0.595861	0.900793
	C207	C	0.905899	0.412377	0.901068
	C208	C	0.099574	0.908110	0.589934
	C209	C	0.097760	0.097504	0.405442
	C210	C	0.907227	0.100582	0.590734
	C211	C	0.906062	0.908841	0.405912
	C212	C	0.593178	0.100345	0.902067
	C213	C	0.411834	0.101540	0.096016
	C214	C	0.594027	0.905224	0.095713
	C215	C	0.412792	0.908204	0.901081
	Zn216	Zn	0.503663	0.004718	0.746934
	Zn217	Zn	0.503330	0.003955	0.249691
	Zn218	Zn	0.751750	0.503378	-0.004474
	Zn219	Zn	0.253263	0.503658	-0.002807
	Zn220	Zn	0.003190	0.755036	0.497260
	Zn221	Zn	0.002458	0.252157	0.496147
	Zn222	Zn	0.003044	0.503506	0.747073
	Zn223	Zn	0.002877	0.503764	0.245581
	Zn224	Zn	0.502086	0.752537	-0.002925
	Zn225	Zn	0.501548	0.254573	-0.001923
	Zn226	Zn	0.754309	0.005611	0.498662
	Zn227	Zn	0.252171	0.004062	0.497651
	N228	N	0.418749	0.967562	0.675094
	N229	N	0.589276	0.041562	0.676318
	N230	N	0.587775	0.967158	0.322015
	N231	N	0.417282	0.040491	0.320215
	N232	N	0.682871	0.415125	0.961086
	N233	N	0.683293	0.591615	0.030853
	N234	N	0.321908	0.591238	0.960855
	N235	N	0.322591	0.416788	0.033402
	N236	N	0.968261	0.685231	0.409165
	N237	N	0.039105	0.683732	0.582998
	N238	N	0.967049	0.323130	0.582736
	N239	N	0.037975	0.321271	0.407602
	N240	N	0.967155	0.416666	0.676732
	N241	N	0.038738	0.590465	0.676689
	N242	N	0.967272	0.590054	0.317052
	N243	N	0.039077	0.416853	0.315943
	N244	N	0.415664	0.683150	0.960783
	N245	N	0.587399	0.681195	0.032882
	N246	N	0.586763	0.325392	0.960469
	N247	N	0.416186	0.325259	0.034303
	N248	N	0.684896	0.970052	0.410873
	N249	N	0.685436	0.040686	0.586952
	N250	N	0.322013	0.969047	0.585311
	N251	N	0.319792	0.038423	0.408411
	N252	N	0.916901	0.467756	0.174213
	N253	N	0.087725	0.540552	0.174024
	N254	N	0.087568	0.466881	0.819479
	N255	N	0.917024	0.540147	0.817908
	N256	N	0.184333	0.915372	0.462902
	N257	N	0.182870	0.091418	0.532569
	N258	N	0.822402	0.092556	0.463385
	N259	N	0.823263	0.917226	0.534186
	N260	N	0.466075	0.182302	0.912844
	N261	N	0.537731	0.185600	0.086578
	N262	N	0.467583	0.821723	0.086084
	N263	N	0.538114	0.822629	0.909845
	N264	N	0.467363	0.916650	0.179025
	N265	N	0.539441	0.090144	0.178463
	N266	N	0.467740	0.091856	0.816321
	N267	N	0.538634	0.916530	0.816220
	N268	N	0.917446	0.181197	0.460752
	N269	N	0.088428	0.182488	0.532746
	N270	N	0.088731	0.825360	0.460969
	N271	N	0.917521	0.825380	0.533952
	N272	N	0.183344	0.468423	0.909808
	N273	N	0.184882	0.538337	0.085891
	N274	N	0.820606	0.468988	0.084073
	N275	N	0.819665	0.537957	0.906480
	O276	O	0.686423	0.381194	0.607968
	H277	H	0.689892	0.383701	0.598875
	H278	H	0.688970	0.390599	0.593416
	O279	O	1.189705	0.157233	0.964899
	H280	H	1.194799	0.147625	0.941021
	H281	H	1.172276	0.154115	0.967671
	O282	O	0.313435	0.696706	0.477176
	H283	H	0.312492	0.690284	0.475547
	H284	H	0.321910	0.703998	0.487171
	O285	O	0.610052	0.573205	0.481729
	H286	H	0.621109	0.559338	0.475416
	H287	H	0.613008	0.575156	0.469763
	O288	O	0.792886	1.169581	0.006350
	H289	H	0.789826	1.179048	-0.001931
	H290	H	0.797767	1.183937	0.005770
	O291	O	0.691407	0.664888	0.627135
	H292	H	0.693385	0.642270	0.613339
	H293	H	0.685968	0.670288	0.630186
	O294	O	-0.012276	-0.024013	0.942562
	H295	H	-0.022040	-0.019717	0.945543
	H296	H	-0.022336	-0.025680	0.955105
	O297	O	0.361908	0.335043	0.669789
	H298	H	0.373277	0.328501	0.671312
	H299	H	0.372748	0.347037	0.662740
	O300	O	0.417991	0.420067	0.590059
	H301	H	0.413684	0.424737	0.597151
	H302	H	0.411203	0.425730	0.590774
	O303	O	0.355293	0.307935	0.488071
	H304	H	0.364796	0.310011	0.487627
	H305	H	0.341571	0.307683	0.495819
	O306	O	0.403715	0.423776	0.436555
	H307	H	0.403298	0.422563	0.438234
	H308	H	0.380033	0.415465	0.442030
	O309	O	0.444667	0.436228	0.632040
	H310	H	0.448520	0.436819	0.621637
	H311	H	0.454803	0.438333	0.634198
	O312	O	-0.184985	0.961726	1.006903
	H313	H	-0.188725	0.985910	1.031905
	H314	H	-0.185937	0.975156	0.977554
	O315	O	0.110067	0.939438	1.074100
	H316	H	0.112480	0.936030	1.075525
	H317	H	0.107582	0.925093	1.064704
	O318	O	1.086687	0.177121	0.201502
	H319	H	1.124904	0.159853	0.187840
	H320	H	1.096362	0.201212	0.234083
	O321	O	0.632459	-0.352887	-0.619786
	H322	H	0.623303	-0.360962	-0.599747
	H323	H	0.624367	-0.370697	-0.614357
	O324	O	0.487100	0.584323	0.537909
	H325	H	0.495987	0.590979	0.545621
	H326	H	0.498822	0.586994	0.523564
	O327	O	-0.055588	0.098495	0.901459
	H328	H	-0.062055	0.103963	0.903302
	H329	H	-0.049518	0.087062	0.912410
	O330	O	-0.016330	1.204100	-0.203969
	H331	H	-0.032770	1.201381	-0.206393
	H332	H	-0.027211	1.210790	-0.209944
	O333	O	0.391096	0.439528	0.686262
	H334	H	0.390446	0.441432	0.679710
	H335	H	0.378289	0.456147	0.693717
	O336	O	-0.335752	-0.451223	-0.303964
	H337	H	-0.326447	-0.447146	-0.296211
	H338	H	-0.348022	-0.448944	-0.299199
	O339	O	-0.033809	0.804605	0.931199
	H340	H	-0.032968	0.818100	0.938065
	H341	H	-0.024345	0.803601	0.953726
	O342	O	0.081210	0.800281	0.795845
	H343	H	0.058197	0.791995	0.785288
	H344	H	0.064407	0.807649	0.815295
	O345	O	1.210612	0.946237	-0.167525
	H346	H	1.220996	0.944996	-0.193093
	H347	H	1.206831	0.959530	-0.167149
	O348	O	0.697817	0.311956	0.307134
	H349	H	0.709807	0.294902	0.304380
	H350	H	0.702466	0.351538	0.311747
	O351	O	0.156888	1.003689	1.186161
	H352	H	0.164779	1.009441	1.206475
	H353	H	0.150781	0.986904	1.173112
	O354	O	0.109056	0.913236	0.015291
	H355	H	0.090434	0.904867	0.020622
	H356	H	0.114851	0.905082	0.005429
	O357	O	-0.029292	0.193188	1.047906
	H358	H	-0.008372	0.188776	1.037520
	H359	H	-0.009411	0.197482	1.072475
	O360	O	0.537097	0.286031	0.282395
	H361	H	0.539027	0.259993	0.259593
	H362	H	0.564760	0.284088	0.282999
	O363	O	0.060830	-0.174358	1.055428
	H364	H	0.069664	-0.175894	1.055561
	H365	H	0.036660	-0.162218	1.053889
	O366	O	0.480846	0.712093	0.312041
	H367	H	0.472105	0.734191	0.292753
	H368	H	0.451691	0.702412	0.319441
	O369	O	0.457116	0.673814	0.699226
	H370	H	0.446870	0.699956	0.724835
	H371	H	0.466529	0.668412	0.680442
	O372	O	0.797117	0.017934	1.021828
	H373	H	0.801874	0.015317	1.043084
	H374	H	0.789782	0.032409	1.041732
	O375	O	0.525643	0.488924	0.616899
	H376	H	0.532759	0.503906	0.637955
	H377	H	0.527107	0.484610	0.602492
	O378	O	-0.190802	0.993685	0.209732
	H379	H	-0.207741	0.995845	0.238053
	H380	H	-0.160354	0.985974	0.204316
	O381	O	0.554551	0.571561	0.554985
	H382	H	0.547647	0.556355	0.557109
	H383	H	0.562870	0.555129	0.554633
	O384	O	0.519144	0.530943	0.295457
	H385	H	0.505161	0.536887	0.289749
	H386	H	0.515098	0.523864	0.302261
	O387	O	0.038713	-0.043297	1.209878
	H388	H	0.028842	-0.040062	1.200815
	H389	H	0.037303	-0.043342	1.215658
	O390	O	-0.130284	0.144735	0.174756
	H391	H	-0.120083	0.138428	0.166556
	H392	H	-0.108615	0.145368	0.171046
	O393	O	1.183704	1.192450	1.150492
	H394	H	1.198047	1.183800	1.122939
	H395	H	1.193790	1.164979	1.150204
	O396	O	0.703983	-0.518247	0.291462
	H397	H	0.679479	-0.505325	0.286873
	H398	H	0.719326	-0.511823	0.281616
	O399	O	1.194731	0.080195	0.875268
	H400	H	1.191706	0.078380	0.865254
	H401	H	1.201516	0.088595	0.878466
	O402	O	0.953209	0.975056	0.836599
	H403	H	0.958829	0.976287	0.854255
	H404	H	0.938995	0.981130	0.821602
	O405	O	1.072838	1.018634	-0.108361
	H406	H	1.060234	1.016525	-0.118817
	H407	H	1.062506	1.027463	-0.098897
	O408	O	0.781359	0.032376	-0.218813
	H409	H	0.746425	0.036074	-0.256753
	H410	H	0.793773	0.041812	-0.203473
	O411	O	1.424083	1.345506	0.489568
	H412	H	1.420136	1.346473	0.484311
	H413	H	1.435302	1.353836	0.480512
	O414	O	0.293964	0.540919	0.596707
	H415	H	0.296722	0.538216	0.577452
	H416	H	0.286890	0.551253	0.603725
	O417	O	0.791351	0.788660	1.021205
	H418	H	0.777390	0.783811	1.040200
	H419	H	0.778209	0.788749	1.011814
	O420	O	-0.012990	-0.190530	0.207508
	H421	H	-0.006890	-0.194003	0.222159
	H422	H	-0.043515	-0.190077	0.217289
	O423	O	0.311724	0.509262	0.296769
	H424	H	0.297199	0.507702	0.277767
	H425	H	0.324877	0.523196	0.291316
	O426	O	0.316428	0.691780	0.305497
	H427	H	0.305941	0.682576	0.294860
	H428	H	0.310414	0.703226	0.336151
	O429	O	0.507665	0.629531	0.414810
	H430	H	0.520310	0.629020	0.412800
	H431	H	0.497953	0.634753	0.403690
	O432	O	0.809468	0.203640	0.805161
	H433	H	0.805444	0.214484	0.828549
	H434	H	0.806020	0.189872	0.791731
	O435	O	0.803062	0.809514	0.191228
	H436	H	0.796913	0.790983	0.205707
	H437	H	0.802655	0.834182	0.178794
	O438	O	0.180195	-0.115232	-0.020872
	H439	H	0.195452	-0.137773	-0.036920
	H440	H	0.169219	-0.099568	-0.052096
	O441	O	1.186063	-0.162908	-0.125326
	H442	H	1.195283	-0.146928	-0.140197
	H443	H	1.147018	-0.170848	-0.133149
	O444	O	0.044092	1.129064	1.008928
	H445	H	0.054815	1.119886	1.004905
	H446	H	0.050227	1.134848	0.996597
	O447	O	0.539261	0.504485	0.557863
	H448	H	0.523545	0.508247	0.559645
	H449	H	0.532501	0.505858	0.549278
	O450	O	0.706797	0.504012	0.487830
	H451	H	0.723062	0.518936	0.489782
	H452	H	0.685525	0.503343	0.486581
	O453	O	0.611678	0.406288	0.545288
	H454	H	0.607584	0.409268	0.552923
	H455	H	0.606753	0.421894	0.546132
