data_Molecule from HDF5

_cell_length_a		16.334787
_cell_length_b		16.543781
_cell_length_c		16.543800
_cell_angle_alpha	90.102611
_cell_angle_beta	90.126046
_cell_angle_gamma	90.051829
_symmetry_space_group_name_H-M	'P 1'
_symmetry_Int_Tables_number		1

loop_
	_symmetry_equiv_pos_as_xyz
	x,y,z

loop_
	_atom_site_label
	_atom_site_type_symbol
	_atom_site_fract_x
	_atom_site_fract_y
	_atom_site_fract_z
	H0	H	0.389980	0.844540	0.713036
	H1	H	0.602809	0.158100	0.712760
	H2	H	0.603314	0.842937	0.267487
	H3	H	0.391633	0.156848	0.268602
	H4	H	0.714052	0.400211	0.831351
	H5	H	0.715096	0.601920	0.150103
	H6	H	0.275386	0.602968	0.833353
	H7	H	0.278619	0.397546	0.149998
	H8	H	0.835979	0.718917	0.388759
	H9	H	0.156600	0.719665	0.596269
	H10	H	0.837521	0.278722	0.597143
	H11	H	0.155610	0.280320	0.387463
	H12	H	0.836963	0.396094	0.711310
	H13	H	0.155726	0.604540	0.713125
	H14	H	0.836094	0.603270	0.271574
	H15	H	0.155623	0.395728	0.271260
	H16	H	0.389570	0.721685	0.833514
	H17	H	0.604029	0.724091	0.147469
	H18	H	0.601795	0.279482	0.833085
	H19	H	0.392822	0.278453	0.147967
	H20	H	0.715283	0.840452	0.388565
	H21	H	0.719101	0.157654	0.595651
	H22	H	0.279666	0.841329	0.590620
	H23	H	0.276726	0.158339	0.386658
	H24	H	0.888442	0.342950	0.212872
	H25	H	0.100360	0.657594	0.213200
	H26	H	0.103816	0.344588	0.767743
	H27	H	0.888369	0.656423	0.768316
	H28	H	0.214867	0.897561	0.331676
	H29	H	0.216435	0.102830	0.648990
	H30	H	0.772674	0.106031	0.333838
	H31	H	0.779025	0.898987	0.649802
	H32	H	0.339207	0.225157	0.881928
	H33	H	0.656424	0.221047	0.095427
	H34	H	0.338484	0.777817	0.096960
	H35	H	0.655435	0.781222	0.886233
	H36	H	0.339776	0.892244	0.214494
	H37	H	0.655739	0.106639	0.213008
	H38	H	0.338453	0.108986	0.766712
	H39	H	0.655311	0.897226	0.770357
	H40	H	0.887144	0.224997	0.335679
	H41	H	0.103600	0.222669	0.647410
	H42	H	0.102659	0.776955	0.334515
	H43	H	0.892707	0.780326	0.648991
	H44	H	0.217140	0.342520	0.887680
	H45	H	0.216861	0.658323	0.096367
	H46	H	0.776835	0.341804	0.092416
	H47	H	0.776461	0.658683	0.889206
	H48	H	0.407066	0.112420	0.578045
	H49	H	0.582939	0.887154	0.586224
	H50	H	0.584196	0.112230	0.399507
	H51	H	0.413196	0.889453	0.402017
	H52	H	0.586518	0.407959	0.104129
	H53	H	0.581192	0.596288	0.878498
	H54	H	0.405946	0.595841	0.105373
	H55	H	0.409841	0.417703	0.881785
	H56	H	0.107907	0.582710	0.402410
	H57	H	0.881063	0.589990	0.583133
	H58	H	0.107346	0.415322	0.575772
	H59	H	0.884433	0.414836	0.404728
	H60	H	0.110922	0.413674	0.585586
	H61	H	0.883215	0.591312	0.579320
	H62	H	0.111683	0.591215	0.398481
	H63	H	0.882370	0.413063	0.398764
	H64	H	0.406444	0.584319	0.102044
	H65	H	0.592103	0.593009	0.875485
	H66	H	0.587503	0.410301	0.103769
	H67	H	0.412974	0.405854	0.878809
	H68	H	0.583407	0.109941	0.402301
	H69	H	0.582892	0.890155	0.578027
	H70	H	0.405483	0.114966	0.581703
	H71	H	0.403943	0.888069	0.404729
	H72	H	0.896975	0.615991	0.081562
	H73	H	0.090398	0.387230	0.078766
	H74	H	0.081989	0.612139	0.899251
	H75	H	0.903527	0.387427	0.901666
	H76	H	0.083520	0.905165	0.604344
	H77	H	0.085650	0.088397	0.378492
	H78	H	0.911651	0.091065	0.601902
	H79	H	0.902504	0.907889	0.376060
	H80	H	0.610228	0.090710	0.901200
	H81	H	0.383580	0.091498	0.076822
	H82	H	0.608947	0.915520	0.079297
	H83	H	0.381531	0.906511	0.905275
	H84	H	0.610956	0.910662	0.080880
	H85	H	0.386057	0.085246	0.076018
	H86	H	0.608729	0.089615	0.904602
	H87	H	0.385204	0.917013	0.904709
	H88	H	0.906134	0.089014	0.602699
	H89	H	0.082678	0.091140	0.378841
	H90	H	0.092079	0.908142	0.605491
	H91	H	0.908737	0.911469	0.379665
	H92	H	0.080255	0.609372	0.908148
	H93	H	0.087071	0.385344	0.086917
	H94	H	0.912835	0.613532	0.091705
	H95	H	0.907563	0.387178	0.897569
	H96	H	0.410635	0.113316	0.581398
	H97	H	0.590326	0.886875	0.580734
	H98	H	0.586954	0.112408	0.402512
	H99	H	0.406692	0.885474	0.395575
	H100	H	0.585094	0.409949	0.102974
	H101	H	0.584217	0.584663	0.880583
	H102	H	0.416464	0.590981	0.101446
	H103	H	0.401178	0.410396	0.876412
	H104	H	0.108508	0.591586	0.407877
	H105	H	0.883863	0.587315	0.580512
	H106	H	0.111069	0.405859	0.579064
	H107	H	0.881923	0.408522	0.403653
	H108	H	0.912333	0.608320	0.073594
	H109	H	0.081775	0.389386	0.080671
	H110	H	0.088872	0.612967	0.905444
	H111	H	0.909111	0.389010	0.903279
	H112	H	0.086469	0.913308	0.601603
	H113	H	0.085514	0.092219	0.376612
	H114	H	0.910647	0.085568	0.600878
	H115	H	0.909787	0.904149	0.377006
	H116	H	0.609528	0.087609	0.901243
	H117	H	0.383074	0.087385	0.081632
	H118	H	0.609271	0.911311	0.075396
	H119	H	0.380649	0.911868	0.895547
	C120	C	0.375265	0.009517	0.612035
	C121	C	0.618085	0.992344	0.612975
	C122	C	0.617909	0.007736	0.369407
	C123	C	0.375386	0.991328	0.368342
	C124	C	0.617844	0.378817	-0.000898
	C125	C	0.618227	0.622718	0.982652
	C126	C	0.375723	0.622145	-0.000732
	C127	C	0.376066	0.378820	0.982863
	C128	C	0.004442	0.620432	0.370885
	C129	C	0.987910	0.621437	0.613208
	C130	C	0.004770	0.379304	0.612260
	C131	C	0.987888	0.379466	0.370236
	C132	C	0.874862	0.508453	0.113029
	C133	C	0.118111	0.491740	0.113779
	C134	C	0.116711	0.507951	0.871623
	C135	C	0.874376	0.491697	0.869409
	C136	C	0.118544	0.877722	0.499271
	C137	C	0.117667	0.121890	0.482285
	C138	C	0.874884	0.121834	0.499017
	C139	C	0.875653	0.878066	0.482474
	C140	C	0.504997	0.122373	0.869125
	C141	C	0.489032	0.120922	0.110871
	C142	C	0.505222	0.879534	0.111493
	C143	C	0.487586	0.880192	0.869651
	C144	C	0.372394	0.891352	0.672386
	C145	C	0.621019	0.110949	0.672568
	C146	C	0.620803	0.889532	0.308667
	C147	C	0.373047	0.109968	0.308693
	C148	C	0.675627	0.379552	0.879325
	C149	C	0.676894	0.622440	0.102143
	C150	C	0.315062	0.622702	0.880654
	C151	C	0.317644	0.378082	0.102229
	C152	C	0.883936	0.679243	0.369925
	C153	C	0.108365	0.680163	0.614718
	C154	C	0.885323	0.318770	0.615097
	C155	C	0.107849	0.320220	0.368852
	C156	C	0.884954	0.377499	0.671785
	C157	C	0.108119	0.623045	0.672930
	C158	C	0.883941	0.621991	0.311577
	C159	C	0.107767	0.377510	0.310883
	C160	C	0.371909	0.681648	0.880844
	C161	C	0.621439	0.682954	0.100671
	C162	C	0.619446	0.319945	0.879990
	C163	C	0.374238	0.318787	0.101117
	C164	C	0.676548	0.888449	0.368801
	C165	C	0.678674	0.110461	0.614221
	C166	C	0.317551	0.889693	0.611301
	C167	C	0.315948	0.110490	0.367466
	C168	C	0.871336	0.390023	0.172172
	C169	C	0.119580	0.610178	0.173614
	C170	C	0.120708	0.390897	0.809539
	C171	C	0.871537	0.609954	0.809443
	C172	C	0.176264	0.877736	0.379843
	C173	C	0.177527	0.122449	0.601131
	C174	C	0.813361	0.124374	0.381066
	C175	C	0.817778	0.879233	0.601935
	C176	C	0.386488	0.184197	0.864834
	C177	C	0.608619	0.181233	0.113488
	C178	C	0.385989	0.818123	0.114872
	C179	C	0.607582	0.820875	0.867757
	C180	C	0.386460	0.875427	0.172939
	C181	C	0.608229	0.124286	0.172053
	C182	C	0.385975	0.126375	0.807414
	C183	C	0.607540	0.878907	0.810411
	C184	C	0.870142	0.183706	0.381865
	C185	C	0.121343	0.182131	0.600462
	C186	C	0.120547	0.817589	0.381196
	C187	C	0.874394	0.820137	0.601722
	C188	C	0.177271	0.389924	0.868955
	C189	C	0.177444	0.610596	0.115344
	C190	C	0.815665	0.389372	0.112327
	C191	C	0.815210	0.610868	0.869029
	C192	C	0.400480	0.092097	0.587476
	C193	C	0.592649	0.909490	0.588768
	C194	C	0.592244	0.090003	0.394322
	C195	C	0.400828	0.909191	0.393306
	C196	C	0.593563	0.402576	0.082011
	C197	C	0.592975	0.598379	0.899814
	C198	C	0.402155	0.597526	0.081386
	C199	C	0.400843	0.403998	0.900393
	C200	C	0.087667	0.595547	0.395719
	C201	C	0.904441	0.596555	0.588129
	C202	C	0.088222	0.404438	0.587194
	C203	C	0.904738	0.404672	0.395296
	C204	C	0.900247	0.591163	0.089345
	C205	C	0.093533	0.408728	0.089182
	C206	C	0.091069	0.590225	0.897042
	C207	C	0.899593	0.409254	0.893725
	C208	C	0.094147	0.901795	0.582255
	C209	C	0.092144	0.097662	0.399633
	C210	C	0.901853	0.096014	0.580516
	C211	C	0.899948	0.901166	0.399288
	C212	C	0.587933	0.096487	0.894854
	C213	C	0.405816	0.095196	0.085303
	C214	C	0.588174	0.905184	0.085744
	C215	C	0.404318	0.904795	0.894539
	Zn216	Zn	0.496449	0.001329	0.741350
	Zn217	Zn	0.496984	-0.000018	0.239721
	Zn218	Zn	0.746302	0.500293	-0.008838
	Zn219	Zn	0.246909	0.500171	-0.008131
	Zn220	Zn	-0.003090	0.749165	0.491470
	Zn221	Zn	-0.003754	0.250973	0.491381
	Zn222	Zn	-0.003583	0.500303	0.740778
	Zn223	Zn	-0.004507	0.499743	0.241730
	Zn224	Zn	0.496785	0.751389	-0.009240
	Zn225	Zn	0.497179	0.249858	-0.009272
	Zn226	Zn	0.746694	-0.000585	0.490593
	Zn227	Zn	0.246549	0.000107	0.490063
	N228	N	0.407272	0.967053	0.673168
	N229	N	0.583889	0.036409	0.671819
	N230	N	0.585191	0.964878	0.308640
	N231	N	0.408985	0.034907	0.308919
	N232	N	0.674653	0.415487	0.954266
	N233	N	0.675121	0.585758	0.027523
	N234	N	0.317038	0.586721	0.955421
	N235	N	0.318530	0.414532	0.027636
	N236	N	0.959714	0.678461	0.406077
	N237	N	0.032602	0.679432	0.578446
	N238	N	0.960850	0.319893	0.578708
	N239	N	0.032186	0.321093	0.404807
	N240	N	0.960263	0.414493	0.670141
	N241	N	0.032122	0.587433	0.672240
	N242	N	0.959607	0.585772	0.312275
	N243	N	0.032035	0.413552	0.311553
	N244	N	0.408556	0.681800	0.955674
	N245	N	0.586100	0.683365	0.025244
	N246	N	0.584272	0.319332	0.955391
	N247	N	0.409411	0.318940	0.025794
	N248	N	0.675014	0.962915	0.405590
	N249	N	0.676960	0.035744	0.577925
	N250	N	0.318854	0.964315	0.574902
	N251	N	0.316869	0.035733	0.403646
	N252	N	0.907433	0.464927	0.172675
	N253	N	0.083523	0.535092	0.172726
	N254	N	0.083576	0.465261	0.811199
	N255	N	0.907438	0.534863	0.809339
	N256	N	0.175213	0.914243	0.454274
	N257	N	0.175455	0.085819	0.526514
	N258	N	0.816238	0.086583	0.454940
	N259	N	0.818395	0.914404	0.526765
	N260	N	0.461449	0.181826	0.902573
	N261	N	0.533467	0.179172	0.076321
	N262	N	0.460947	0.820608	0.077118
	N263	N	0.531926	0.821402	0.903931
	N264	N	0.461283	0.912985	0.170632
	N265	N	0.532602	0.087399	0.170722
	N266	N	0.460660	0.088407	0.810177
	N267	N	0.531926	0.914905	0.811389
	N268	N	0.907702	0.182136	0.456172
	N269	N	0.084999	0.182117	0.525467
	N270	N	0.085513	0.817359	0.456690
	N271	N	0.909438	0.819037	0.526323
	N272	N	0.174724	0.463718	0.907056
	N273	N	0.176850	0.535812	0.079052
	N274	N	0.817534	0.464143	0.076237
	N275	N	0.817044	0.536491	0.905676
	O276	O	0.864248	0.800545	-0.142854
	H277	H	0.876926	0.810283	-0.137498
	H278	H	0.866100	0.816772	-0.137086
	O279	O	0.132177	0.159278	-0.102044
	H280	H	0.126959	0.159689	-0.092087
	H281	H	0.128461	0.153815	-0.091393
	O282	O	0.943637	1.007179	-0.029053
	H283	H	0.944075	1.011105	-0.017022
	H284	H	0.935466	1.014755	-0.020502
	O285	O	0.672486	0.711858	0.700716
	H286	H	0.685404	0.664682	0.703931
	H287	H	0.702719	0.740228	0.735820
	O288	O	-0.306774	0.564027	-0.305399
	H289	H	-0.292708	0.547114	-0.307562
	H290	H	-0.315197	0.536693	-0.314373
	O291	O	1.647542	0.361752	0.321691
	H292	H	1.655361	0.372535	0.315704
	H293	H	1.637825	0.360583	0.324749
	O294	O	-0.198057	1.064699	-0.082937
	H295	H	-0.199570	1.074883	-0.078410
	H296	H	-0.198830	1.086866	-0.088691
	O297	O	0.073912	0.092750	0.041883
	H298	H	0.068751	0.093119	0.034691
	H299	H	0.087511	0.084341	0.035543
	O300	O	0.664041	0.375603	0.389745
	H301	H	0.665750	0.364165	0.377775
	H302	H	0.662689	0.388600	0.374321
	O303	O	0.302907	0.698372	0.292013
	H304	H	0.289989	0.718884	0.303349
	H305	H	0.326057	0.706330	0.315401
	O306	O	0.587699	0.666755	0.447658
	H307	H	0.611450	0.673562	0.455024
	H308	H	0.580937	0.658271	0.460359
	O309	O	0.510959	0.540758	0.386677
	H310	H	0.501659	0.553224	0.382423
	H311	H	0.502660	0.548427	0.382020
	O312	O	0.527654	0.690859	0.350036
	H313	H	0.527738	0.700429	0.337916
	H314	H	0.527652	0.688451	0.358730
	O315	O	0.304622	-0.507045	1.288083
	H316	H	0.296963	-0.475126	1.281685
	H317	H	0.298347	-0.489709	1.281260
	O318	O	0.026004	0.944180	-0.041083
	H319	H	0.043901	0.927741	-0.055822
	H320	H	0.003247	0.940348	-0.050743
	O321	O	0.683804	0.594295	-0.660123
	H322	H	0.683566	0.611069	-0.652909
	H323	H	0.696636	0.600156	-0.663298
	O324	O	0.847423	0.129569	1.001271
	H325	H	0.839971	0.118958	0.998921
	H326	H	0.852585	0.143778	1.011709
	O327	O	0.665668	0.406904	1.515654
	H328	H	0.646954	0.410402	1.513276
	H329	H	0.669714	0.408423	1.510857
	O330	O	0.922053	0.846410	0.029615
	H331	H	0.933062	0.851957	0.030452
	H332	H	0.927614	0.851144	0.030752
	O333	O	1.376071	0.465617	1.353792
	H334	H	1.381531	0.475553	1.333204
	H335	H	1.355226	0.475134	1.360119
	O336	O	0.299100	0.700273	0.567165
	H337	H	0.301128	0.672636	0.571573
	H338	H	0.299658	0.705418	0.568953
	O339	O	0.183455	-0.012938	0.995460
	H340	H	0.180335	-0.021608	0.992953
	H341	H	0.179277	-0.023538	1.005414
	O342	O	-0.096828	1.156561	0.775576
	H343	H	-0.101812	1.165269	0.759293
	H344	H	-0.105613	1.149997	0.766988
	O345	O	-0.194139	-0.201449	0.020125
	H346	H	-0.193416	-0.196794	0.003494
	H347	H	-0.209000	-0.196649	0.022051
	O348	O	1.028873	0.218082	1.209914
	H349	H	1.021650	0.232856	1.218517
	H350	H	1.043859	0.227398	1.212769
	O351	O	0.760318	0.755608	0.226570
	H352	H	0.753096	0.754156	0.197913
	H353	H	0.783363	0.765939	0.233431
	O354	O	0.498285	0.509925	0.701344
	H355	H	0.504166	0.517885	0.694795
	H356	H	0.502275	0.523650	0.696980
	O357	O	1.303272	1.310578	0.686355
	H358	H	1.298442	1.317300	0.686249
	H359	H	1.316245	1.297857	0.687313
	O360	O	0.293677	0.291459	0.521027
	H361	H	0.290685	0.294039	0.521834
	H362	H	0.280612	0.284236	0.531731
	O363	O	0.687559	0.335107	0.601503
	H364	H	0.681090	0.337773	0.586584
	H365	H	0.692139	0.331628	0.579792
	O366	O	0.979151	-0.203290	1.191138
	H367	H	0.988807	-0.213286	1.198877
	H368	H	0.987840	-0.191541	1.176049
	O369	O	0.936376	0.976976	1.210703
	H370	H	0.959480	0.986482	1.219769
	H371	H	0.921625	0.986350	1.222996
	O372	O	0.206979	0.207959	1.081726
	H373	H	0.225504	0.209981	1.087326
	H374	H	0.211601	0.210703	1.092344
	O375	O	-0.136306	1.087384	1.177709
	H376	H	-0.117536	1.071826	1.182353
	H377	H	-0.145233	1.092355	1.176230
	O378	O	0.566323	0.299456	0.556122
	H379	H	0.556473	0.307027	0.546708
	H380	H	0.559629	0.302970	0.562111
	O381	O	1.645404	-0.535000	0.516041
	H382	H	1.639537	-0.538032	0.502393
	H383	H	1.656500	-0.557215	0.503517
	O384	O	0.419820	-0.697131	1.372100
	H385	H	0.437814	-0.683043	1.367275
	H386	H	0.437648	-0.691674	1.388327
	O387	O	-0.202262	0.987298	0.847331
	H388	H	-0.198546	1.002613	0.862149
	H389	H	-0.206505	1.005150	0.832991
	O390	O	0.212055	-0.214683	0.964193
	H391	H	0.242202	-0.239635	0.964387
	H392	H	0.202848	-0.212189	0.942091
	O393	O	0.792810	1.005914	0.088610
	H394	H	0.793339	0.974500	0.096797
	H395	H	0.774080	1.011757	0.096862
	O396	O	0.306812	0.478033	0.687937
	H397	H	0.306255	0.478763	0.689821
	H398	H	0.319756	0.464054	0.699382
	O399	O	1.130073	0.853713	0.110907
	H400	H	1.127513	0.869130	0.097268
	H401	H	1.115378	0.857456	0.114412
	O402	O	-0.040458	-0.057491	0.782667
	H403	H	-0.025533	-0.051846	0.785669
	H404	H	-0.031720	-0.062591	0.786675
	O405	O	0.189442	-0.191760	-0.200173
	H406	H	0.182087	-0.169114	-0.193222
	H407	H	0.202601	-0.193165	-0.214498
	O408	O	0.474154	0.582218	0.337876
	H409	H	0.490774	0.590653	0.349046
	H410	H	0.451471	0.587415	0.330215
	O411	O	0.021012	0.962701	0.826589
	H412	H	0.028811	0.959866	0.814466
	H413	H	0.019793	0.973848	0.841709
	O414	O	0.611037	0.611605	0.581853
	H415	H	0.623675	0.636283	0.573840
	H416	H	0.612949	0.618881	0.594984
	O417	O	0.478758	0.301346	0.695477
	H418	H	0.473810	0.306237	0.704153
	H419	H	0.483148	0.293807	0.697127
	O420	O	0.382790	0.691689	0.506529
	H421	H	0.389157	0.698868	0.519342
	H422	H	0.388680	0.690163	0.522560
	O423	O	-0.173238	1.203872	-0.174957
	H424	H	-0.177077	1.204572	-0.176242
	H425	H	-0.177837	1.202579	-0.163603
	O426	O	1.071766	0.919632	1.140932
	H427	H	1.057812	0.920155	1.137541
	H428	H	1.107211	0.926820	1.145058
	O429	O	0.501617	0.357991	0.410158
	H430	H	0.494289	0.370179	0.406903
	H431	H	0.490205	0.346743	0.408702
	O432	O	0.509287	0.714084	0.685635
	H433	H	0.542319	0.716854	0.692347
	H434	H	0.526792	0.724680	0.700206
	O435	O	0.208711	0.205669	0.130638
	H436	H	0.216081	0.225118	0.143788
	H437	H	0.200817	0.216018	0.133334
	O438	O	0.969737	0.048431	0.076148
	H439	H	0.969389	0.038310	0.084664
	H440	H	0.980324	0.068714	0.082038
	O441	O	0.549117	0.363762	0.318500
	H442	H	0.551504	0.364826	0.315237
	H443	H	0.546260	0.375122	0.322493
	O444	O	-0.128095	1.213390	1.100164
	H445	H	-0.112430	1.203647	1.091882
	H446	H	-0.129757	1.222045	1.096701
	O447	O	0.496855	0.646045	0.491045
	H448	H	0.498443	0.645152	0.493249
	H449	H	0.506874	0.647711	0.488737
	O450	O	0.211169	0.970395	0.775807
	H451	H	0.233299	0.966455	0.755818
	H452	H	0.223065	0.990688	0.798998
	O453	O	0.287988	0.566093	0.534603
	H454	H	0.292531	0.553198	0.546051
	H455	H	0.287700	0.552314	0.540401
	O456	O	1.214423	0.026482	0.201847
	H457	H	1.215711	0.040791	0.180596
	H458	H	1.242474	0.036181	0.226908
	O459	O	1.007704	-0.183096	0.774811
	H460	H	1.012371	-0.204064	0.752304
	H461	H	1.029399	-0.180575	0.789548
	O462	O	0.350239	0.386788	0.442869
	H463	H	0.350404	0.381039	0.440780
	H464	H	0.361887	0.399425	0.440502
	O465	O	1.155624	0.147550	-0.121711
	H466	H	1.153445	0.135005	-0.111271
	H467	H	1.150374	0.156836	-0.119017
