data_Molecule from HDF5

_cell_length_a		16.157935
_cell_length_b		16.157656
_cell_length_c		16.319954
_cell_angle_alpha	90.092833
_cell_angle_beta	90.364479
_cell_angle_gamma	90.489448
_symmetry_space_group_name_H-M	'P 1'
_symmetry_Int_Tables_number		1

loop_
	_symmetry_equiv_pos_as_xyz
	x,y,z

loop_
	_atom_site_label
	_atom_site_type_symbol
	_atom_site_fract_x
	_atom_site_fract_y
	_atom_site_fract_z
	H0	H	0.389555	0.834543	0.713979
	H1	H	0.595176	0.161509	0.714188
	H2	H	0.591669	0.833993	0.283012
	H3	H	0.393136	0.162590	0.283371
	H4	H	0.704145	0.401075	0.835280
	H5	H	0.709758	0.598598	0.162343
	H6	H	0.277410	0.595439	0.835689
	H7	H	0.279137	0.399651	0.162840
	H8	H	0.826561	0.706570	0.400786
	H9	H	0.156395	0.712725	0.598207
	H10	H	0.827539	0.283691	0.594887
	H11	H	0.157504	0.285122	0.402271
	H12	H	0.828785	0.394966	0.713362
	H13	H	0.157124	0.597864	0.713967
	H14	H	0.828892	0.596004	0.282386
	H15	H	0.157366	0.399361	0.286138
	H16	H	0.393336	0.710633	0.834803
	H17	H	0.593040	0.714121	0.162233
	H18	H	0.588554	0.285201	0.835453
	H19	H	0.394232	0.282976	0.163295
	H20	H	0.703358	0.832293	0.401279
	H21	H	0.708169	0.161683	0.598268
	H22	H	0.279444	0.832461	0.594834
	H23	H	0.278737	0.163051	0.400827
	H24	H	0.892223	0.333773	0.211697
	H25	H	0.095800	0.662137	0.215046
	H26	H	0.090225	0.332020	0.785940
	H27	H	0.894330	0.661947	0.783393
	H28	H	0.204374	0.898803	0.335837
	H29	H	0.209205	0.098095	0.662802
	H30	H	0.777717	0.093452	0.336368
	H31	H	0.778258	0.898130	0.663617
	H32	H	0.326727	0.207946	0.902340
	H33	H	0.658417	0.211548	0.096405
	H34	H	0.327384	0.784337	0.093582
	H35	H	0.657625	0.786609	0.901800
	H36	H	0.327896	0.896965	0.211792
	H37	H	0.656835	0.100921	0.215972
	H38	H	0.328002	0.096731	0.782673
	H39	H	0.656947	0.900647	0.785446
	H40	H	0.892358	0.210752	0.336320
	H41	H	0.092384	0.214039	0.662399
	H42	H	0.086729	0.784087	0.335283
	H43	H	0.891691	0.779715	0.661781
	H44	H	0.203576	0.332426	0.902577
	H45	H	0.207130	0.663522	0.096586
	H46	H	0.778457	0.333292	0.094643
	H47	H	0.781499	0.663624	0.900681
	H48	H	0.407124	0.114217	0.591974
	H49	H	0.592413	0.875814	0.594669
	H50	H	0.583903	0.113361	0.411189
	H51	H	0.402571	0.880470	0.400199
	H52	H	0.589249	0.414452	0.113976
	H53	H	0.586063	0.592463	0.881949
	H54	H	0.400909	0.594694	0.115834
	H55	H	0.399981	0.398215	0.882300
	H56	H	0.113519	0.590057	0.396271
	H57	H	0.876626	0.580477	0.590980
	H58	H	0.110738	0.404947	0.592608
	H59	H	0.876315	0.406302	0.406424
	H60	H	0.110903	0.407122	0.592646
	H61	H	0.872971	0.588820	0.598401
	H62	H	0.111550	0.601155	0.412510
	H63	H	0.873629	0.405983	0.399628
	H64	H	0.399080	0.589526	0.115579
	H65	H	0.586463	0.593489	0.881686
	H66	H	0.577442	0.403629	0.115066
	H67	H	0.392855	0.404488	0.881378
	H68	H	0.590383	0.116926	0.406049
	H69	H	0.575810	0.879856	0.600010
	H70	H	0.399151	0.115706	0.586212
	H71	H	0.399203	0.882490	0.409607
	H72	H	0.910238	0.612656	0.086817
	H73	H	0.078855	0.381835	0.092776
	H74	H	0.084466	0.614661	0.905737
	H75	H	0.886843	0.377478	0.907566
	H76	H	0.087500	0.899129	0.617718
	H77	H	0.089235	0.094411	0.380671
	H78	H	0.899936	0.102033	0.619241
	H79	H	0.907216	0.897615	0.384823
	H80	H	0.607714	0.090057	0.912688
	H81	H	0.371808	0.094833	0.096423
	H82	H	0.610504	0.902820	0.090297
	H83	H	0.373997	0.899241	0.906848
	H84	H	0.609227	0.911722	0.091067
	H85	H	0.376444	0.091722	0.084469
	H86	H	0.611034	0.087161	0.899051
	H87	H	0.376590	0.909133	0.907612
	H88	H	0.890762	0.084139	0.617522
	H89	H	0.086442	0.085456	0.384893
	H90	H	0.089464	0.910494	0.615627
	H91	H	0.887083	0.893583	0.377525
	H92	H	0.085711	0.614734	0.906145
	H93	H	0.088258	0.380760	0.087195
	H94	H	0.893759	0.617767	0.088454
	H95	H	0.902237	0.377368	0.894046
	H96	H	0.398870	0.117831	0.595147
	H97	H	0.581088	0.882733	0.583126
	H98	H	0.581926	0.115586	0.402430
	H99	H	0.392887	0.878337	0.402825
	H100	H	0.591930	0.399244	0.118844
	H101	H	0.587360	0.592611	0.882203
	H102	H	0.403422	0.591010	0.115046
	H103	H	0.401270	0.407489	0.884776
	H104	H	0.106442	0.581919	0.412273
	H105	H	0.874289	0.591726	0.586382
	H106	H	0.111524	0.406174	0.594297
	H107	H	0.872838	0.398403	0.404375
	H108	H	0.904325	0.618694	0.101253
	H109	H	0.088158	0.377599	0.098005
	H110	H	0.085404	0.615694	0.904485
	H111	H	0.905268	0.384385	0.912685
	H112	H	0.078877	0.905944	0.613637
	H113	H	0.079860	0.092237	0.384252
	H114	H	0.910257	0.085917	0.612333
	H115	H	0.892893	0.913243	0.384999
	H116	H	0.613876	0.100046	0.904254
	H117	H	0.377027	0.082479	0.093755
	H118	H	0.612948	0.907322	0.097585
	H119	H	0.373362	0.905622	0.898572
	C120	C	0.372012	0.006826	0.619472
	C121	C	0.613632	0.988426	0.620879
	C122	C	0.613157	0.006261	0.378141
	C123	C	0.369994	0.989315	0.376150
	C124	C	0.613778	0.377183	0.007659
	C125	C	0.615658	0.621660	0.990284
	C126	C	0.371780	0.619401	0.007263
	C127	C	0.369806	0.375024	0.990707
	C128	C	0.001254	0.618459	0.377847
	C129	C	0.983508	0.617831	0.620993
	C130	C	0.001463	0.376412	0.620318
	C131	C	0.983339	0.375719	0.376214
	C132	C	0.872426	0.507284	0.120038
	C133	C	0.114776	0.489248	0.121230
	C134	C	0.113617	0.505833	0.877588
	C135	C	0.870911	0.489107	0.876490
	C136	C	0.112736	0.876019	0.507607
	C137	C	0.114615	0.120099	0.490962
	C138	C	0.871633	0.118090	0.508221
	C139	C	0.867924	0.873548	0.490863
	C140	C	0.501467	0.119916	0.876675
	C141	C	0.484046	0.119558	0.120628
	C142	C	0.501566	0.877256	0.120012
	C143	C	0.484009	0.877210	0.876903
	C144	C	0.371514	0.883250	0.675218
	C145	C	0.614132	0.112288	0.676215
	C146	C	0.610725	0.882577	0.322101
	C147	C	0.372772	0.113454	0.321434
	C148	C	0.667249	0.380345	0.884350
	C149	C	0.671795	0.619344	0.113382
	C150	C	0.315506	0.616175	0.884394
	C151	C	0.316133	0.378376	0.113992
	C152	C	0.876425	0.670516	0.380287
	C153	C	0.107355	0.674604	0.618768
	C154	C	0.877123	0.321039	0.616358
	C155	C	0.108165	0.322292	0.380879
	C156	C	0.877700	0.376015	0.675458
	C157	C	0.107743	0.617460	0.676259
	C158	C	0.877668	0.615605	0.321202
	C159	C	0.108127	0.378852	0.323070
	C160	C	0.373379	0.673463	0.883822
	C161	C	0.613997	0.676990	0.113142
	C162	C	0.609545	0.322812	0.884351
	C163	C	0.373297	0.320384	0.114142
	C164	C	0.666213	0.881722	0.381039
	C165	C	0.670282	0.112459	0.618558
	C166	C	0.316484	0.882318	0.616264
	C167	C	0.315906	0.113642	0.379796
	C168	C	0.872984	0.382865	0.174160
	C169	C	0.114548	0.613261	0.176330
	C170	C	0.110540	0.381677	0.823231
	C171	C	0.874108	0.612983	0.821380
	C172	C	0.166578	0.878646	0.384639
	C173	C	0.171002	0.118557	0.614042
	C174	C	0.815910	0.114592	0.384891
	C175	C	0.814939	0.877063	0.614260
	C176	C	0.376745	0.172517	0.880327
	C177	C	0.608587	0.174950	0.117996
	C178	C	0.376884	0.821727	0.115520
	C179	C	0.608298	0.823517	0.880460
	C180	C	0.377257	0.877654	0.174313
	C181	C	0.607889	0.119509	0.176934
	C182	C	0.377480	0.117411	0.820619
	C183	C	0.608148	0.880501	0.823060
	C184	C	0.872950	0.172733	0.384850
	C185	C	0.113027	0.176037	0.613918
	C186	C	0.108356	0.821233	0.384374
	C187	C	0.871237	0.818098	0.613312
	C188	C	0.166953	0.381726	0.881508
	C189	C	0.170285	0.613729	0.117870
	C190	C	0.816071	0.382896	0.116144
	C191	C	0.818269	0.613837	0.880010
	C192	C	0.395173	0.093549	0.597434
	C193	C	0.590077	0.901822	0.598969
	C194	C	0.591742	0.092853	0.400093
	C195	C	0.391729	0.902742	0.397812
	C196	C	0.592472	0.399154	0.093723
	C197	C	0.593290	0.599534	0.904299
	C198	C	0.394572	0.598198	0.093239
	C199	C	0.391459	0.396958	0.905056
	C200	C	0.088083	0.597437	0.400440
	C201	C	0.896950	0.594111	0.598700
	C202	C	0.088408	0.399269	0.599391
	C203	C	0.896869	0.397233	0.397198
	C204	C	0.895813	0.593880	0.098600
	C205	C	0.091755	0.402546	0.099273
	C206	C	0.091742	0.592745	0.899048
	C207	C	0.891887	0.402287	0.898242
	C208	C	0.091406	0.898399	0.593538
	C209	C	0.091842	0.097246	0.405510
	C210	C	0.893747	0.096914	0.594006
	C211	C	0.889143	0.895128	0.404694
	C212	C	0.588471	0.098654	0.898724
	C213	C	0.397425	0.096486	0.098167
	C214	C	0.588225	0.900452	0.099141
	C215	C	0.397296	0.898477	0.898079
	Zn216	Zn	0.492470	-0.002030	0.748607
	Zn217	Zn	0.492721	-0.001573	0.248788
	Zn218	Zn	0.743522	0.498903	-0.001156
	Zn219	Zn	0.242132	0.497864	-0.000816
	Zn220	Zn	-0.008620	0.745847	0.499311
	Zn221	Zn	-0.007475	0.248361	0.498982
	Zn222	Zn	-0.007437	0.496610	0.748654
	Zn223	Zn	-0.006512	0.498352	0.248969
	Zn224	Zn	0.492635	0.749280	-0.001960
	Zn225	Zn	0.492682	0.247593	-0.000659
	Zn226	Zn	0.741168	-0.002998	0.500100
	Zn227	Zn	0.243292	-0.002376	0.499431
	N228	N	0.405316	0.961779	0.677406
	N229	N	0.579368	0.034318	0.677784
	N230	N	0.578495	0.961121	0.320146
	N231	N	0.405647	0.035135	0.319071
	N232	N	0.669772	0.413707	0.962070
	N233	N	0.673137	0.585686	0.035828
	N234	N	0.314444	0.583276	0.962082
	N235	N	0.313643	0.411436	0.036425
	N236	N	0.954195	0.672214	0.415041
	N237	N	0.028941	0.675120	0.585249
	N238	N	0.955075	0.321095	0.582864
	N239	N	0.029784	0.320046	0.413244
	N240	N	0.956122	0.409926	0.677834
	N241	N	0.029733	0.582765	0.677613
	N242	N	0.956444	0.583968	0.319634
	N243	N	0.029590	0.411151	0.319730
	N244	N	0.407741	0.675516	0.961245
	N245	N	0.579580	0.678316	0.035674
	N246	N	0.577030	0.320870	0.962091
	N247	N	0.405846	0.317892	0.036460
	N248	N	0.667866	0.959549	0.415338
	N249	N	0.669937	0.034438	0.584621
	N250	N	0.316652	0.960128	0.582356
	N251	N	0.313919	0.035434	0.412945
	N252	N	0.907368	0.461131	0.176672
	N253	N	0.081008	0.534797	0.178797
	N254	N	0.078092	0.460081	0.820753
	N255	N	0.906152	0.534470	0.819061
	N256	N	0.169520	0.911816	0.462281
	N257	N	0.172383	0.084553	0.536647
	N258	N	0.814679	0.081399	0.462383
	N259	N	0.812765	0.910751	0.536967
	N260	N	0.454921	0.174367	0.914366
	N261	N	0.530683	0.174902	0.083440
	N262	N	0.454952	0.821387	0.082526
	N263	N	0.530117	0.821516	0.913303
	N264	N	0.455882	0.911512	0.177348
	N265	N	0.529376	0.085826	0.178731
	N266	N	0.456181	0.085434	0.818307
	N267	N	0.529815	0.912952	0.820585
	N268	N	0.906798	0.175053	0.462270
	N269	N	0.078771	0.177056	0.536465
	N270	N	0.075442	0.819713	0.461937
	N271	N	0.903317	0.815765	0.535492
	N272	N	0.168805	0.460122	0.914449
	N273	N	0.170352	0.535640	0.083974
	N274	N	0.815698	0.461211	0.083212
	N275	N	0.816082	0.535756	0.913658
	O276	O	0.498535	0.507889	0.497147
	H277	H	0.495243	0.503594	0.506084
	H278	H	0.497568	0.509699	0.499084
	O279	O	0.498769	0.518449	0.431373
	H280	H	0.499441	0.502884	0.427988
	H281	H	0.494274	0.513975	0.441902
	O282	O	0.484963	0.406152	0.567608
	H283	H	0.491299	0.404154	0.574362
	H284	H	0.487435	0.413139	0.569208
	O285	O	0.079856	1.046155	1.080614
	H286	H	0.087167	1.054575	1.077768
	H287	H	0.073162	1.051702	1.076581
	O288	O	0.531992	0.534245	0.466090
	H289	H	0.530246	0.542265	0.472046
	H290	H	0.539828	0.539303	0.468612
	O291	O	0.018716	0.066206	1.014338
	H292	H	0.008531	0.068172	1.010866
	H293	H	0.024837	0.058025	1.012526
	O294	O	0.604421	0.502227	0.427551
	H295	H	0.602048	0.507341	0.424469
	H296	H	0.609159	0.504213	0.417092
	O297	O	0.387003	0.480792	0.538904
	H298	H	0.387458	0.469494	0.550584
	H299	H	0.385248	0.478322	0.540031
	O300	O	0.493265	0.523350	0.561494
	H301	H	0.503326	0.532419	0.561419
	H302	H	0.492896	0.522540	0.560205
	O303	O	0.423297	0.494822	0.530186
	H304	H	0.417318	0.488006	0.534584
	H305	H	0.432114	0.483928	0.531519
	O306	O	1.007070	0.009876	1.066464
	H307	H	1.008064	0.005407	1.070176
	H308	H	1.010454	0.019990	1.067038
	O309	O	0.481176	0.575956	0.510020
	H310	H	0.480116	0.583047	0.509417
	H311	H	0.475483	0.574338	0.506794
	O312	O	0.469525	0.433297	0.445297
	H313	H	0.466160	0.427550	0.440572
	H314	H	0.467951	0.435133	0.449923
	O315	O	1.072833	0.029552	1.039051
	H316	H	1.065600	0.030079	1.042625
	H317	H	1.072685	0.044851	1.043002
	O318	O	0.026808	-0.005083	0.029589
	H319	H	0.038527	-0.011393	0.037309
	H320	H	0.027436	-0.014731	0.024935
	O321	O	0.523460	0.571299	0.540221
	H322	H	0.528592	0.582127	0.543212
	H323	H	0.519680	0.584504	0.528584
	O324	O	1.063307	0.031330	0.061089
	H325	H	1.070765	0.030848	0.064433
	H326	H	1.061174	0.035315	0.069390
	O327	O	1.487397	1.537644	-0.415985
	H328	H	1.491904	1.545835	-0.416465
	H329	H	1.475284	1.535305	-0.422298
	O330	O	0.579558	0.506692	0.568735
	H331	H	0.587846	0.508066	0.563608
	H332	H	0.585097	0.513508	0.567159
	O333	O	0.466662	0.437796	0.454197
	H334	H	0.467715	0.439815	0.451874
	H335	H	0.467790	0.433669	0.452650
