data_Molecule from HDF5

_cell_length_a		16.453229
_cell_length_b		16.485491
_cell_length_c		16.476272
_cell_angle_alpha	90.013513
_cell_angle_beta	89.916420
_cell_angle_gamma	90.015208
_symmetry_space_group_name_H-M	'P 1'
_symmetry_Int_Tables_number		1

loop_
	_symmetry_equiv_pos_as_xyz
	x,y,z

loop_
	_atom_site_label
	_atom_site_type_symbol
	_atom_site_fract_x
	_atom_site_fract_y
	_atom_site_fract_z
	H0	H	0.383907	0.848148	0.728105
	H1	H	0.599836	0.161955	0.731250
	H2	H	0.593187	0.848417	0.285449
	H3	H	0.384763	0.162691	0.284439
	H4	H	0.714571	0.397964	0.847924
	H5	H	0.711184	0.609649	0.161705
	H6	H	0.270314	0.611270	0.845378
	H7	H	0.268779	0.401079	0.161593
	H8	H	0.833819	0.726855	0.400609
	H9	H	0.148987	0.727915	0.610843
	H10	H	0.832979	0.283974	0.612047
	H11	H	0.147910	0.283760	0.400630
	H12	H	0.834742	0.398204	0.730259
	H13	H	0.149413	0.612560	0.726746
	H14	H	0.833677	0.608398	0.285273
	H15	H	0.149310	0.400575	0.284177
	H16	H	0.383723	0.730281	0.846895
	H17	H	0.595672	0.727217	0.161113
	H18	H	0.598396	0.281896	0.848196
	H19	H	0.384337	0.284976	0.161873
	H20	H	0.710198	0.848029	0.402035
	H21	H	0.717256	0.161059	0.616754
	H22	H	0.268275	0.847867	0.611113
	H23	H	0.269669	0.163325	0.402114
	H24	H	0.888055	0.348513	0.225246
	H25	H	0.096484	0.664404	0.225057
	H26	H	0.098245	0.348421	0.782469
	H27	H	0.885678	0.662458	0.782149
	H28	H	0.210487	0.901950	0.347586
	H29	H	0.210253	0.109810	0.663904
	H30	H	0.769135	0.110082	0.348825
	H31	H	0.764882	0.897244	0.662834
	H32	H	0.331758	0.228315	0.900294
	H33	H	0.648172	0.224852	0.108660
	H34	H	0.332421	0.784788	0.110324
	H35	H	0.648809	0.785017	0.899001
	H36	H	0.332025	0.901469	0.226167
	H37	H	0.647561	0.108787	0.225007
	H38	H	0.331988	0.113377	0.782466
	H39	H	0.647640	0.900210	0.781485
	H40	H	0.884601	0.227757	0.349624
	H41	H	0.096566	0.228614	0.663145
	H42	H	0.094575	0.786554	0.347817
	H43	H	0.882024	0.780986	0.662554
	H44	H	0.214387	0.347903	0.898476
	H45	H	0.210781	0.665695	0.107298
	H46	H	0.770092	0.348358	0.109394
	H47	H	0.768215	0.662418	0.896807
	H48	H	0.402940	0.114294	0.587070
	H49	H	0.571115	0.897288	0.592398
	H50	H	0.578632	0.120253	0.410597
	H51	H	0.397968	0.891022	0.415612
	H52	H	0.583103	0.418714	0.118427
	H53	H	0.575512	0.596445	0.891304
	H54	H	0.398327	0.598126	0.117789
	H55	H	0.405886	0.417254	0.892714
	H56	H	0.105004	0.596184	0.414948
	H57	H	0.878692	0.592259	0.596373
	H58	H	0.100833	0.422700	0.593359
	H59	H	0.878966	0.415998	0.419758
	H60	H	0.105632	0.415030	0.596864
	H61	H	0.878792	0.595875	0.592577
	H62	H	0.106109	0.597453	0.414267
	H63	H	0.879172	0.421206	0.414323
	H64	H	0.401882	0.591444	0.114366
	H65	H	0.582846	0.596197	0.889730
	H66	H	0.576794	0.417373	0.115522
	H67	H	0.403000	0.416265	0.891691
	H68	H	0.575007	0.117326	0.418570
	H69	H	0.577251	0.896406	0.587733
	H70	H	0.392157	0.120902	0.594933
	H71	H	0.399048	0.891442	0.413827
	H72	H	0.902397	0.616847	0.089265
	H73	H	0.075013	0.396645	0.092155
	H74	H	0.086914	0.622676	0.909232
	H75	H	0.900592	0.391078	0.912218
	H76	H	0.076556	0.918502	0.617920
	H77	H	0.085909	0.100415	0.389311
	H78	H	0.902200	0.097141	0.620510
	H79	H	0.905187	0.910942	0.393601
	H80	H	0.600229	0.089034	0.915223
	H81	H	0.376474	0.096715	0.092367
	H82	H	0.604770	0.911047	0.094630
	H83	H	0.379292	0.923513	0.914185
	H84	H	0.601835	0.918650	0.092946
	H85	H	0.376761	0.093084	0.095686
	H86	H	0.603452	0.097583	0.916217
	H87	H	0.376885	0.913501	0.916515
	H88	H	0.900980	0.088944	0.618440
	H89	H	0.080976	0.087305	0.394896
	H90	H	0.078316	0.915110	0.619284
	H91	H	0.893153	0.915945	0.391439
	H92	H	0.071720	0.615382	0.913096
	H93	H	0.086442	0.392476	0.089730
	H94	H	0.896010	0.621464	0.095580
	H95	H	0.910509	0.396260	0.917222
	H96	H	0.406026	0.118887	0.601134
	H97	H	0.577452	0.894040	0.595636
	H98	H	0.583879	0.120162	0.418682
	H99	H	0.400261	0.891511	0.415948
	H100	H	0.580314	0.412628	0.118807
	H101	H	0.579328	0.590205	0.892792
	H102	H	0.405721	0.598374	0.115780
	H103	H	0.402985	0.419426	0.892462
	H104	H	0.105177	0.597349	0.415895
	H105	H	0.880992	0.591643	0.591352
	H106	H	0.102625	0.414899	0.587972
	H107	H	0.876010	0.414302	0.413212
	H108	H	0.905636	0.618991	0.098553
	H109	H	0.081760	0.390776	0.100139
	H110	H	0.084222	0.616064	0.924983
	H111	H	0.900091	0.394978	0.924037
	H112	H	0.080901	0.918897	0.619081
	H113	H	0.072269	0.099354	0.394485
	H114	H	0.907866	0.092983	0.615728
	H115	H	0.903369	0.924099	0.397160
	H116	H	0.598856	0.093556	0.923188
	H117	H	0.374534	0.097366	0.096998
	H118	H	0.604923	0.916687	0.100338
	H119	H	0.381292	0.920112	0.923466
	C120	C	0.367826	0.014180	0.627629
	C121	C	0.610346	0.998483	0.626522
	C122	C	0.611093	0.014709	0.384421
	C123	C	0.368056	0.996365	0.383933
	C124	C	0.613151	0.383325	0.013912
	C125	C	0.611503	0.626613	0.995318
	C126	C	0.369641	0.628170	0.011979
	C127	C	0.370587	0.385439	0.996300
	C128	C	0.000546	0.628283	0.383611
	C129	C	0.983355	0.626678	0.626295
	C130	C	-0.000769	0.384473	0.626438
	C131	C	0.982304	0.384712	0.383962
	C132	C	0.869931	0.514642	0.126283
	C133	C	0.112975	0.497964	0.125498
	C134	C	0.113645	0.514174	0.883033
	C135	C	0.870118	0.497256	0.883476
	C136	C	0.110926	0.885391	0.514190
	C137	C	0.111712	0.127531	0.497309
	C138	C	0.869797	0.126254	0.514564
	C139	C	0.867543	0.883551	0.497617
	C140	C	0.497735	0.127523	0.883995
	C141	C	0.480954	0.126788	0.126222
	C142	C	0.499247	0.883656	0.127370
	C143	C	0.482777	0.886231	0.884543
	C144	C	0.365361	0.895723	0.688324
	C145	C	0.616025	0.115563	0.689567
	C146	C	0.612308	0.895593	0.325263
	C147	C	0.366254	0.115524	0.324616
	C148	C	0.674407	0.379715	0.895452
	C149	C	0.671630	0.628944	0.114117
	C150	C	0.309807	0.629961	0.893105
	C151	C	0.309391	0.382951	0.114370
	C152	C	0.881329	0.686910	0.382081
	C153	C	0.101780	0.687619	0.628779
	C154	C	0.880601	0.323917	0.630216
	C155	C	0.100913	0.323855	0.381889
	C156	C	0.881518	0.380737	0.689068
	C157	C	0.101879	0.630052	0.686607
	C158	C	0.881118	0.628279	0.324681
	C159	C	0.101684	0.382195	0.324230
	C160	C	0.366403	0.689035	0.893612
	C161	C	0.614093	0.687144	0.113867
	C162	C	0.616481	0.321882	0.895733
	C163	C	0.366907	0.325014	0.114756
	C164	C	0.670517	0.895686	0.383021
	C165	C	0.674849	0.114910	0.632830
	C166	C	0.307587	0.895516	0.630216
	C167	C	0.309446	0.115871	0.383305
	C168	C	0.868800	0.395827	0.185631
	C169	C	0.114622	0.617131	0.184991
	C170	C	0.115918	0.395504	0.822839
	C171	C	0.867016	0.614994	0.822185
	C172	C	0.170408	0.883555	0.395068
	C173	C	0.170792	0.128863	0.616394
	C174	C	0.809224	0.128615	0.396217
	C175	C	0.805895	0.879622	0.615886
	C176	C	0.379127	0.188175	0.881592
	C177	C	0.600544	0.185427	0.127357
	C178	C	0.380017	0.824197	0.128861
	C179	C	0.601581	0.825715	0.881242
	C180	C	0.379625	0.882328	0.186515
	C181	C	0.600172	0.127832	0.185327
	C182	C	0.379264	0.130870	0.822942
	C183	C	0.601037	0.882914	0.822888
	C184	C	0.866323	0.187289	0.396621
	C185	C	0.114115	0.187940	0.616031
	C186	C	0.112832	0.825999	0.395085
	C187	C	0.863917	0.821546	0.615478
	C188	C	0.173952	0.395286	0.880442
	C189	C	0.171644	0.617515	0.126214
	C190	C	0.809856	0.395959	0.128488
	C191	C	0.808405	0.615072	0.879333
	C192	C	0.393103	0.096604	0.601750
	C193	C	0.583020	0.917241	0.599411
	C194	C	0.586434	0.097524	0.408977
	C195	C	0.392187	0.913048	0.408094
	C196	C	0.587589	0.408945	0.096146
	C197	C	0.586391	0.601450	0.912842
	C198	C	0.394816	0.603054	0.094217
	C199	C	0.396726	0.410418	0.913673
	C200	C	0.083865	0.603890	0.408077
	C201	C	0.900914	0.600716	0.600719
	C202	C	0.081482	0.410246	0.600246
	C203	C	0.899525	0.409889	0.408835
	C204	C	0.894327	0.597551	0.101477
	C205	C	0.088258	0.415077	0.101160
	C206	C	0.088284	0.596445	0.908461
	C207	C	0.896356	0.415306	0.910259
	C208	C	0.085715	0.910336	0.597059
	C209	C	0.086950	0.102843	0.414435
	C210	C	0.896086	0.100278	0.596944
	C211	C	0.893158	0.909542	0.415525
	C212	C	0.579557	0.101073	0.910469
	C213	C	0.397584	0.102617	0.101788
	C214	C	0.582410	0.908341	0.102777
	C215	C	0.400523	0.911853	0.910569
	Zn216	Zn	0.489707	0.006317	0.755280
	Zn217	Zn	0.489108	0.006027	0.255392
	Zn218	Zn	0.740825	0.506018	0.003991
	Zn219	Zn	0.241588	0.506029	0.003975
	Zn220	Zn	-0.008633	0.756133	0.506192
	Zn221	Zn	-0.009401	0.255847	0.505750
	Zn222	Zn	-0.008100	0.505548	0.754960
	Zn223	Zn	-0.007740	0.506154	0.255025
	Zn224	Zn	0.491028	0.756670	0.004340
	Zn225	Zn	0.490113	0.256044	0.005953
	Zn226	Zn	0.739846	0.005899	0.506714
	Zn227	Zn	0.240217	0.005371	0.505739
	N228	N	0.402107	0.970609	0.686933
	N229	N	0.576721	0.042160	0.685879
	N230	N	0.576046	0.970612	0.325832
	N231	N	0.401854	0.040175	0.324836
	N232	N	0.672666	0.417141	0.969859
	N233	N	0.670105	0.592021	0.039420
	N234	N	0.311544	0.592878	0.967739
	N235	N	0.311705	0.419667	0.039689
	N236	N	0.956589	0.686828	0.417953
	N237	N	0.026948	0.685651	0.592105
	N238	N	0.954847	0.326010	0.592204
	N239	N	0.025747	0.325285	0.418240
	N240	N	0.956342	0.417661	0.686846
	N241	N	0.027132	0.592826	0.685348
	N242	N	0.956559	0.592782	0.325345
	N243	N	0.026860	0.419219	0.325278
	N244	N	0.402732	0.688331	0.968589
	N245	N	0.577610	0.685994	0.038904
	N246	N	0.579251	0.323718	0.970489
	N247	N	0.404400	0.326618	0.040133
	N248	N	0.669944	0.970725	0.419047
	N249	N	0.671197	0.041139	0.594165
	N250	N	0.309057	0.970214	0.593401
	N251	N	0.310428	0.040793	0.419394
	N252	N	0.905192	0.470794	0.184657
	N253	N	0.079007	0.541613	0.185063
	N254	N	0.079319	0.470443	0.824215
	N255	N	0.904418	0.540669	0.824579
	N256	N	0.169429	0.919614	0.470232
	N257	N	0.169473	0.092015	0.541597
	N258	N	0.811078	0.091682	0.470947
	N259	N	0.807879	0.917210	0.541560
	N260	N	0.453886	0.186602	0.918594
	N261	N	0.525424	0.184758	0.091308
	N262	N	0.455586	0.824734	0.093193
	N263	N	0.527204	0.827736	0.918872
	N264	N	0.454917	0.918440	0.185917
	N265	N	0.524796	0.092193	0.184789
	N266	N	0.454185	0.094021	0.824387
	N267	N	0.526138	0.919801	0.824885
	N268	N	0.903024	0.185970	0.471423
	N269	N	0.077874	0.187053	0.541008
	N270	N	0.076558	0.827071	0.470187
	N271	N	0.901549	0.823653	0.540955
	N272	N	0.172761	0.470156	0.916904
	N273	N	0.170953	0.542255	0.090422
	N274	N	0.810429	0.470901	0.092135
	N275	N	0.810389	0.540668	0.916933
	O276	O	0.894207	1.003661	0.032276
	H277	H	0.890384	0.998842	0.026661
	H278	H	0.887648	1.003112	0.037822
	O279	O	0.502451	0.434557	0.377946
	H280	H	0.497281	0.416060	0.382738
	H281	H	0.499017	0.428493	0.387606
	O282	O	1.138144	0.865561	0.093797
	H283	H	1.137417	0.880701	0.095487
	H284	H	1.132015	0.854269	0.072522
	O285	O	0.556513	0.364252	0.614369
	H286	H	0.537807	0.354591	0.610264
	H287	H	0.544610	0.359845	0.617634
	O288	O	-0.078318	0.187164	0.065036
	H289	H	-0.055223	0.175588	0.070109
	H290	H	-0.071825	0.181694	0.054215
	O291	O	1.668637	0.533376	0.480988
	H292	H	1.651962	0.513938	0.489780
	H293	H	1.666994	0.520971	0.460741
	O294	O	0.004521	0.947503	0.168772
	H295	H	-0.007254	0.946027	0.180935
	H296	H	-0.001535	0.949625	0.161499
	O297	O	-0.048426	-0.208321	0.221414
	H298	H	-0.046994	-0.227732	0.240011
	H299	H	-0.057834	-0.211623	0.218737
	O300	O	0.569898	0.375337	0.547798
	H301	H	0.558947	0.365101	0.548953
	H302	H	0.568094	0.387779	0.559191
	O303	O	0.680117	0.692586	0.317483
	H304	H	0.675491	0.676394	0.342461
	H305	H	0.650887	0.675462	0.321894
	O306	O	0.694376	0.714991	0.527081
	H307	H	0.692520	0.694591	0.514849
	H308	H	0.709345	0.733527	0.523768
	O309	O	0.508442	0.496883	0.593407
	H310	H	0.500285	0.514327	0.599283
	H311	H	0.522085	0.499084	0.586469
	O312	O	0.524733	0.636125	0.513418
	H313	H	0.515619	0.634217	0.515143
	H314	H	0.535349	0.628243	0.524740
	O315	O	0.322493	-0.293713	1.513627
	H316	H	0.339648	-0.281697	1.526734
	H317	H	0.328304	-0.305300	1.530882
	O318	O	0.046755	1.129559	-0.091266
	H319	H	0.049995	1.132462	-0.105992
	H320	H	0.057394	1.131770	-0.085803
	O321	O	0.428591	0.568953	-0.427042
	H322	H	0.420649	0.553786	-0.421475
	H323	H	0.432601	0.569362	-0.412882
	O324	O	0.835807	-0.119001	0.950366
	H325	H	0.848154	-0.128662	0.956780
	H326	H	0.838295	-0.120113	0.944573
	O327	O	0.896908	0.194633	0.809290
	H328	H	0.908440	0.178632	0.811579
	H329	H	0.922153	0.202359	0.801109
	O330	O	1.120735	0.010375	-0.189164
	H331	H	1.125050	0.007715	-0.171066
	H332	H	1.127258	0.012441	-0.198703
	O333	O	1.188372	0.939433	1.128473
	H334	H	1.183696	0.955970	1.118926
	H335	H	1.187054	0.944343	1.129882
	O336	O	0.782413	0.212475	0.957722
	H337	H	0.777735	0.221368	0.962489
	H338	H	0.775329	0.218993	0.945329
	O339	O	0.275948	0.391569	0.476448
	H340	H	0.279957	0.404351	0.465608
	H341	H	0.263379	0.406485	0.464713
	O342	O	-0.198343	1.135422	1.090215
	H343	H	-0.216340	1.142540	1.099090
	H344	H	-0.205910	1.122542	1.083116
	O345	O	0.080197	-0.191821	-0.198365
	H346	H	0.068399	-0.191898	-0.201589
	H347	H	0.089763	-0.181717	-0.214985
	O348	O	1.023134	0.093393	1.089800
	H349	H	1.034457	0.089042	1.094136
	H350	H	1.023194	0.089076	1.095795
	O351	O	0.795780	0.809539	-0.016943
	H352	H	0.778587	0.803715	-0.019208
	H353	H	0.800388	0.812934	-0.002937
	O354	O	0.272447	0.589480	0.335692
	H355	H	0.256559	0.595965	0.324334
	H356	H	0.266493	0.625483	0.343116
	O357	O	1.356249	1.395363	0.697804
	H358	H	1.346092	1.396053	0.681251
	H359	H	1.361491	1.383489	0.688308
	O360	O	0.443057	0.657540	0.597871
	H361	H	0.464897	0.667388	0.608024
	H362	H	0.456173	0.646799	0.600734
	O363	O	0.466700	0.289860	0.721768
	H364	H	0.474163	0.301705	0.714228
	H365	H	0.455156	0.264378	0.752046
	O366	O	0.972118	0.009199	1.220846
	H367	H	0.938953	-0.005313	1.223975
	H368	H	0.970998	0.005531	1.222450
	O369	O	0.699197	0.531034	0.717290
	H370	H	0.682949	0.508188	0.704696
	H371	H	0.726547	0.526411	0.741054
	O372	O	0.510789	0.306200	0.305876
	H373	H	0.512921	0.281581	0.291007
	H374	H	0.535832	0.321774	0.305803
	O375	O	0.046227	1.131634	1.134964
	H376	H	0.044597	1.123263	1.132875
	H377	H	0.029276	1.119988	1.144705
	O378	O	0.298219	0.379772	0.310590
	H379	H	0.290989	0.375801	0.320065
	H380	H	0.302938	0.398987	0.320085
	O381	O	0.841089	-0.037020	-0.200819
	H382	H	0.856411	-0.034596	-0.211988
	H383	H	0.829761	-0.032489	-0.199944
	O384	O	0.185568	-0.114097	0.810694
	H385	H	0.170753	-0.085922	0.799575
	H386	H	0.202451	-0.121989	0.820328
	O387	O	-0.192615	1.003776	0.898609
	H388	H	-0.187941	1.006687	0.906057
	H389	H	-0.205212	1.014176	0.878982
	O390	O	-0.010399	-0.200715	0.999919
	H391	H	-0.007135	-0.207253	0.995440
	H392	H	-0.017644	-0.195581	1.014151
	O393	O	1.008276	1.218917	-0.014284
	H394	H	0.983623	1.218238	-0.006760
	H395	H	1.014511	1.209336	-0.005659
	O396	O	0.297559	0.692942	0.316042
	H397	H	0.318340	0.714838	0.299261
	H398	H	0.288654	0.701441	0.367929
	O399	O	0.277519	0.485573	0.714692
	H400	H	0.285117	0.451404	0.709873
	H401	H	0.252817	0.479834	0.743596
	O402	O	0.140359	0.102656	0.871274
	H403	H	0.145191	0.105029	0.892838
	H404	H	0.152057	0.086636	0.877289
	O405	O	-0.014351	-0.091909	-0.193776
	H406	H	-0.008535	-0.071564	-0.200937
	H407	H	-0.009397	-0.115315	-0.189641
	O408	O	0.509832	0.725371	0.719910
	H409	H	0.521808	0.739010	0.737304
	H410	H	0.549673	0.725672	0.725680
	O411	O	0.284890	0.516051	0.523426
	H412	H	0.285854	0.530096	0.518859
	H413	H	0.291543	0.508263	0.542076
	O414	O	0.678068	0.696112	0.696851
	H415	H	0.687024	0.679110	0.682243
	H416	H	0.690569	0.680320	0.678962
	O417	O	0.464770	0.721467	0.291006
	H418	H	0.458469	0.704943	0.302962
	H419	H	0.464861	0.746018	0.261555
	O420	O	0.522879	0.643608	0.383086
	H421	H	0.516220	0.638414	0.389229
	H422	H	0.513668	0.646637	0.368087
	O423	O	0.138455	1.209483	0.205152
	H424	H	0.140490	1.225793	0.210976
	H425	H	0.121436	1.194235	0.199663
	O426	O	1.193632	1.208860	1.033320
	H427	H	1.183450	1.213442	1.044708
	H428	H	1.205034	1.223172	1.038062
	O429	O	0.294661	0.310738	0.592588
	H430	H	0.308066	0.316704	0.581029
	H431	H	0.289233	0.301563	0.562888
	O432	O	0.433678	0.465105	0.286689
	H433	H	0.423425	0.454516	0.276548
	H434	H	0.400328	0.466638	0.286540
	O435	O	0.201177	-0.195690	-0.016398
	H436	H	0.204415	-0.193558	-0.031790
	H437	H	0.218211	-0.206258	-0.024308
	O438	O	1.160434	0.076620	0.155520
	H439	H	1.150543	0.080368	0.161898
	H440	H	1.155934	0.065790	0.172300
	O441	O	0.490551	0.292824	0.493669
	H442	H	0.507569	0.284575	0.480433
	H443	H	0.506387	0.301948	0.492599
	O444	O	-0.102285	0.995298	1.022016
	H445	H	-0.098800	0.982363	1.025238
	H446	H	-0.100941	0.984109	1.022182
	O447	O	0.703884	0.291532	0.480309
	H448	H	0.706978	0.284879	0.468042
	H449	H	0.704361	0.274269	0.475022
	O450	O	0.700526	0.474131	0.297765
	H451	H	0.705748	0.487153	0.291329
	H452	H	0.700527	0.466862	0.285870
	O453	O	0.689003	0.301697	0.303713
	H454	H	0.698599	0.328994	0.319856
	H455	H	0.683337	0.289404	0.295735
	O456	O	0.830044	-0.036914	0.192571
	H457	H	0.818767	-0.056339	0.198687
	H458	H	0.815417	-0.033724	0.189180
	O459	O	0.754140	0.341204	0.660920
	H460	H	0.778372	0.326526	0.654715
	H461	H	0.748153	0.347997	0.671891
	O462	O	0.591473	0.486877	0.602761
	H463	H	0.589236	0.481494	0.612094
	H464	H	0.583810	0.492669	0.614214
	O465	O	0.785650	-0.199325	0.208333
	H466	H	0.763498	-0.221789	0.206929
	H467	H	0.797633	-0.199237	0.217726
