data_Molecule from HDF5

_cell_length_a		16.583405
_cell_length_b		16.554882
_cell_length_c		16.439915
_cell_angle_alpha	89.917107
_cell_angle_beta	90.022911
_cell_angle_gamma	89.914890
_symmetry_space_group_name_H-M	'P 1'
_symmetry_Int_Tables_number		1

loop_
	_symmetry_equiv_pos_as_xyz
	x,y,z

loop_
	_atom_site_label
	_atom_site_type_symbol
	_atom_site_fract_x
	_atom_site_fract_y
	_atom_site_fract_z
	H0	H	0.404565	0.861271	0.718184
	H1	H	0.609356	0.176798	0.721133
	H2	H	0.611150	0.862813	0.278682
	H3	H	0.401051	0.177344	0.278994
	H4	H	0.729282	0.413733	0.843604
	H5	H	0.728810	0.627503	0.157914
	H6	H	0.284360	0.624863	0.843688
	H7	H	0.284330	0.411921	0.158060
	H8	H	0.850321	0.746829	0.388406
	H9	H	0.160162	0.741175	0.606055
	H10	H	0.848387	0.296500	0.607275
	H11	H	0.160716	0.297354	0.394033
	H12	H	0.847313	0.414540	0.721796
	H13	H	0.161343	0.623744	0.720165
	H14	H	0.849647	0.629650	0.274290
	H15	H	0.161288	0.414596	0.278518
	H16	H	0.401238	0.739593	0.842645
	H17	H	0.610427	0.740615	0.159278
	H18	H	0.613923	0.297674	0.843273
	H19	H	0.400690	0.296728	0.157618
	H20	H	0.731364	0.865117	0.390775
	H21	H	0.725197	0.177498	0.604770
	H22	H	0.286207	0.862760	0.603306
	H23	H	0.282971	0.176824	0.393291
	H24	H	0.897330	0.363930	0.224709
	H25	H	0.111290	0.675552	0.223516
	H26	H	0.109028	0.363108	0.780845
	H27	H	0.897732	0.675781	0.776353
	H28	H	0.228290	0.913243	0.344061
	H29	H	0.225189	0.124432	0.657577
	H30	H	0.779383	0.131454	0.344534
	H31	H	0.782939	0.914145	0.657055
	H32	H	0.351831	0.243356	0.893087
	H33	H	0.662246	0.243660	0.108063
	H34	H	0.350426	0.799555	0.105638
	H35	H	0.661884	0.794531	0.891996
	H36	H	0.350517	0.917340	0.220923
	H37	H	0.661619	0.129550	0.226017
	H38	H	0.349021	0.122257	0.781498
	H39	H	0.662086	0.911290	0.775719
	H40	H	0.895893	0.246107	0.344634
	H41	H	0.109027	0.240427	0.657096
	H42	H	0.111780	0.797095	0.343960
	H43	H	0.897926	0.796529	0.655912
	H44	H	0.227938	0.364459	0.894472
	H45	H	0.229029	0.674561	0.108584
	H46	H	0.779279	0.365956	0.110709
	H47	H	0.779616	0.675757	0.890351
	H48	H	0.415179	0.132356	0.590625
	H49	H	0.595313	0.906427	0.591541
	H50	H	0.592704	0.130868	0.413055
	H51	H	0.411959	0.908146	0.413494
	H52	H	0.593941	0.438441	0.110053
	H53	H	0.594254	0.602525	0.890902
	H54	H	0.416505	0.605908	0.113629
	H55	H	0.420745	0.432908	0.889269
	H56	H	0.116306	0.611518	0.410943
	H57	H	0.890491	0.615726	0.586550
	H58	H	0.118396	0.427466	0.592448
	H59	H	0.896457	0.441259	0.414687
	H60	H	0.116075	0.427656	0.588305
	H61	H	0.896016	0.603978	0.581773
	H62	H	0.113633	0.608412	0.417061
	H63	H	0.890203	0.430476	0.406976
	H64	H	0.419351	0.610867	0.114643
	H65	H	0.588849	0.609781	0.889725
	H66	H	0.587957	0.430917	0.110832
	H67	H	0.415915	0.429569	0.887175
	H68	H	0.592701	0.130649	0.414091
	H69	H	0.590351	0.910649	0.586031
	H70	H	0.414174	0.133285	0.589058
	H71	H	0.418772	0.907550	0.408070
	H72	H	0.919957	0.630063	0.087310
	H73	H	0.093825	0.406134	0.092060
	H74	H	0.097207	0.634751	0.906755
	H75	H	0.913935	0.408402	0.914012
	H76	H	0.097123	0.932226	0.613477
	H77	H	0.096221	0.110211	0.384930
	H78	H	0.910464	0.107796	0.614748
	H79	H	0.914324	0.933272	0.386727
	H80	H	0.618117	0.106870	0.911674
	H81	H	0.398065	0.105917	0.083720
	H82	H	0.619650	0.924622	0.085635
	H83	H	0.394136	0.925180	0.912571
	H84	H	0.615706	0.936069	0.082907
	H85	H	0.394665	0.105766	0.092746
	H86	H	0.619935	0.108791	0.909897
	H87	H	0.395699	0.932612	0.911492
	H88	H	0.918844	0.101458	0.608749
	H89	H	0.094503	0.105426	0.387647
	H90	H	0.092642	0.931660	0.612377
	H91	H	0.920095	0.939052	0.390692
	H92	H	0.089713	0.630380	0.910993
	H93	H	0.092401	0.408722	0.087659
	H94	H	0.917082	0.630238	0.084042
	H95	H	0.919786	0.409252	0.910984
	H96	H	0.413803	0.134183	0.590083
	H97	H	0.598210	0.908430	0.583461
	H98	H	0.593529	0.130734	0.413497
	H99	H	0.419513	0.911211	0.415612
	H100	H	0.596510	0.430546	0.114395
	H101	H	0.596731	0.610258	0.886516
	H102	H	0.413312	0.610986	0.115820
	H103	H	0.415415	0.435700	0.888809
	H104	H	0.115282	0.604264	0.411100
	H105	H	0.891592	0.604875	0.594765
	H106	H	0.115923	0.431153	0.591327
	H107	H	0.894103	0.427844	0.421057
	H108	H	0.916639	0.632212	0.088503
	H109	H	0.097018	0.406834	0.088092
	H110	H	0.097700	0.632538	0.915869
	H111	H	0.918496	0.411482	0.917435
	H112	H	0.094738	0.927904	0.614165
	H113	H	0.090990	0.109829	0.386777
	H114	H	0.921581	0.112855	0.613224
	H115	H	0.922725	0.930666	0.388162
	H116	H	0.618804	0.109733	0.912398
	H117	H	0.394452	0.113954	0.087358
	H118	H	0.620600	0.933334	0.094793
	H119	H	0.392664	0.928080	0.905786
	C120	C	0.383728	0.028842	0.621702
	C121	C	0.626550	1.011742	0.620655
	C122	C	0.627238	0.028219	0.379107
	C123	C	0.384101	1.012243	0.378956
	C124	C	0.626887	0.399796	0.008463
	C125	C	0.626344	0.640746	0.992753
	C126	C	0.384409	0.641041	0.009892
	C127	C	0.385031	0.398874	0.992250
	C128	C	0.012778	0.642349	0.377985
	C129	C	0.995894	0.640703	0.620603
	C130	C	0.013295	0.397020	0.622955
	C131	C	0.996790	0.399886	0.380408
	C132	C	0.883886	0.528515	0.121651
	C133	C	0.126733	0.510762	0.122118
	C134	C	0.127045	0.528867	0.879369
	C135	C	0.883529	0.512296	0.879394
	C136	C	0.127061	0.898174	0.509383
	C137	C	0.125911	0.140807	0.490865
	C138	C	0.883341	0.141843	0.508758
	C139	C	0.884750	0.900038	0.491657
	C140	C	0.515505	0.140955	0.879017
	C141	C	0.498538	0.141697	0.121607
	C142	C	0.515554	0.899294	0.120951
	C143	C	0.497719	0.896228	0.877419
	C144	C	0.384336	0.909350	0.679379
	C145	C	0.628218	0.129702	0.681296
	C146	C	0.629965	0.910283	0.318319
	C147	C	0.382411	0.130177	0.318912
	C148	C	0.688881	0.396087	0.890762
	C149	C	0.688042	0.644658	0.110876
	C150	C	0.324698	0.642976	0.890936
	C151	C	0.324474	0.394602	0.110651
	C152	C	0.896714	0.705322	0.372160
	C153	C	0.113309	0.700802	0.623438
	C154	C	0.895167	0.337333	0.625229
	C155	C	0.114114	0.338388	0.376692
	C156	C	0.894917	0.395834	0.682561
	C157	C	0.113938	0.642077	0.680220
	C158	C	0.896419	0.646759	0.315211
	C159	C	0.114373	0.396732	0.319180
	C160	C	0.382801	0.700345	0.890716
	C161	C	0.629212	0.701166	0.111546
	C162	C	0.631685	0.337998	0.890758
	C163	C	0.382441	0.337154	0.110321
	C164	C	0.689760	0.911450	0.374026
	C165	C	0.685779	0.130118	0.623224
	C166	C	0.325552	0.909900	0.622399
	C167	C	0.323464	0.129836	0.375769
	C168	C	0.879214	0.411588	0.184519
	C169	C	0.129308	0.628597	0.182978
	C170	C	0.128363	0.410585	0.820083
	C171	C	0.879585	0.629007	0.816723
	C172	C	0.187363	0.895483	0.390862
	C173	C	0.185347	0.142910	0.609986
	C174	C	0.820834	0.147521	0.391339
	C175	C	0.823223	0.896022	0.609680
	C176	C	0.398144	0.202069	0.875783
	C177	C	0.615335	0.203395	0.125866
	C178	C	0.397557	0.839298	0.124173
	C179	C	0.615113	0.835157	0.873782
	C180	C	0.397599	0.897954	0.181226
	C181	C	0.615074	0.146167	0.184417
	C182	C	0.396748	0.141961	0.820234
	C183	C	0.615117	0.893497	0.816201
	C184	C	0.878824	0.204689	0.391292
	C185	C	0.127730	0.200695	0.609715
	C186	C	0.129588	0.837769	0.390830
	C187	C	0.880288	0.837557	0.609254
	C188	C	0.187405	0.411210	0.876657
	C189	C	0.188073	0.628062	0.126140
	C190	C	0.820759	0.412035	0.127430
	C191	C	0.821123	0.629001	0.873926
	C192	C	0.407606	0.111687	0.597184
	C193	C	0.601747	0.929983	0.594684
	C194	C	0.600775	0.109326	0.405828
	C195	C	0.409595	0.930217	0.404909
	C196	C	0.600331	0.425833	0.090455
	C197	C	0.600524	0.614937	0.910540
	C198	C	0.409051	0.616324	0.093073
	C199	C	0.410186	0.425065	0.909935
	C200	C	0.094056	0.615801	0.405197
	C201	C	0.914002	0.615476	0.594866
	C202	C	0.095305	0.421360	0.597882
	C203	C	0.915112	0.425682	0.406714
	C204	C	0.910254	0.609600	0.094430
	C205	C	0.101487	0.428754	0.096560
	C206	C	0.102131	0.611069	0.904194
	C207	C	0.909914	0.430861	0.906580
	C208	C	0.102064	0.923385	0.591730
	C209	C	0.100959	0.115790	0.408106
	C210	C	0.909583	0.115045	0.590696
	C211	C	0.911503	0.926693	0.409830
	C212	C	0.597340	0.115689	0.903984
	C213	C	0.416872	0.115671	0.095337
	C214	C	0.597276	0.924242	0.095203
	C215	C	0.415648	0.921298	0.902919
	Zn216	Zn	0.505841	0.019398	0.750183
	Zn217	Zn	0.506755	0.020565	0.250246
	Zn218	Zn	0.754974	0.520693	0.000501
	Zn219	Zn	0.256046	0.519594	0.001488
	Zn220	Zn	0.004593	0.770353	0.499691
	Zn221	Zn	0.004377	0.268965	0.500229
	Zn222	Zn	0.004769	0.519924	0.750606
	Zn223	Zn	0.004658	0.519820	0.250790
	Zn224	Zn	0.506327	0.769732	0.000866
	Zn225	Zn	0.507052	0.270584	0.000324
	Zn226	Zn	0.755970	0.020440	0.499888
	Zn227	Zn	0.255000	0.020391	0.500197
	N228	N	0.419792	0.984224	0.679035
	N229	N	0.592351	0.054997	0.680186
	N230	N	0.591952	0.983974	0.321165
	N231	N	0.419404	0.055918	0.320835
	N232	N	0.686114	0.433552	0.965021
	N233	N	0.686711	0.608209	0.035858
	N234	N	0.325395	0.606899	0.966234
	N235	N	0.325755	0.432324	0.036200
	N236	N	0.970296	0.702747	0.410458
	N237	N	0.038768	0.700161	0.587156
	N238	N	0.969781	0.337463	0.589228
	N239	N	0.039836	0.340047	0.413902
	N240	N	0.969464	0.432073	0.681504
	N241	N	0.039938	0.605042	0.678506
	N242	N	0.969781	0.608273	0.318760
	N243	N	0.040439	0.434016	0.321374
	N244	N	0.419193	0.699456	0.965766
	N245	N	0.591675	0.698943	0.037046
	N246	N	0.593665	0.340281	0.964995
	N247	N	0.419432	0.339635	0.035626
	N248	N	0.688596	0.985864	0.410692
	N249	N	0.684993	0.055747	0.586314
	N250	N	0.324593	0.985558	0.587780
	N251	N	0.324234	0.055235	0.412257
	N252	N	0.917517	0.484962	0.181210
	N253	N	0.091746	0.554750	0.180595
	N254	N	0.091447	0.484795	0.821442
	N255	N	0.917722	0.555327	0.820070
	N256	N	0.185848	0.932688	0.465466
	N257	N	0.184481	0.106490	0.535052
	N258	N	0.823592	0.109039	0.465483
	N259	N	0.826072	0.934213	0.535545
	N260	N	0.472964	0.201848	0.911335
	N261	N	0.541938	0.200480	0.087303
	N262	N	0.471992	0.839840	0.087439
	N263	N	0.541024	0.836591	0.911136
	N264	N	0.471762	0.934571	0.179357
	N265	N	0.541227	0.108805	0.182088
	N266	N	0.470689	0.104608	0.821966
	N267	N	0.541006	0.930604	0.818221
	N268	N	0.917054	0.201171	0.465211
	N269	N	0.091417	0.199454	0.534510
	N270	N	0.092625	0.839437	0.465401
	N271	N	0.917781	0.839983	0.534815
	N272	N	0.186757	0.485778	0.912827
	N273	N	0.186485	0.553964	0.088958
	N274	N	0.823230	0.485813	0.089046
	N275	N	0.823459	0.555184	0.912090
	O276	O	0.816128	0.832808	0.185670
	H277	H	0.807454	0.883606	0.194343
	H278	H	0.850665	0.828799	0.175266
	O279	O	-0.017751	-0.191666	1.211875
	H280	H	-0.019340	-0.190910	1.199705
	H281	H	-0.016999	-0.220685	1.225049
	O282	O	0.419886	0.525787	0.427650
	H283	H	0.424988	0.535977	0.434189
	H284	H	0.421695	0.533233	0.430226
	O285	O	0.463845	0.339343	0.474002
	H286	H	0.493151	0.349350	0.471941
	H287	H	0.458249	0.338600	0.506791
	O288	O	0.783476	-0.199338	1.026093
	H289	H	0.752779	-0.229793	1.030213
	H290	H	0.802888	-0.193282	1.051847
	O291	O	0.423321	0.588887	0.692542
	H292	H	0.430631	0.573966	0.690973
	H293	H	0.418224	0.595017	0.684644
	O294	O	0.198231	0.207778	-0.169508
	H295	H	0.211270	0.222682	-0.181035
	H296	H	0.192228	0.220713	-0.174564
	O297	O	0.825086	-0.115350	0.877332
	H298	H	0.836481	-0.128704	0.884486
	H299	H	0.832332	-0.101850	0.898442
	O300	O	-0.015260	-0.010352	-0.060418
	H301	H	0.003130	-0.005071	-0.062014
	H302	H	-0.013203	-0.018060	-0.071312
	O303	O	0.224319	-0.015834	-0.215422
	H304	H	0.231105	-0.014929	-0.235077
	H305	H	0.227686	-0.030650	-0.229072
	O306	O	1.072001	-0.037452	0.217824
	H307	H	1.051293	-0.045335	0.217506
	H308	H	1.054477	-0.035087	0.208792
	O309	O	0.289005	0.305434	0.526355
	H310	H	0.289852	0.304873	0.515998
	H311	H	0.267721	0.306919	0.520817
	O312	O	0.537210	0.400173	0.496507
	H313	H	0.526699	0.403016	0.503758
	H314	H	0.526890	0.408026	0.506597
	O315	O	0.291746	0.489730	0.704485
	H316	H	0.293396	0.488841	0.702707
	H317	H	0.273714	0.503196	0.709545
	O318	O	0.722449	0.724145	-0.503212
	H319	H	0.745953	0.738841	-0.512252
	H320	H	0.717163	0.710625	-0.478443
	O321	O	0.716535	0.318153	0.478031
	H322	H	0.697857	0.311097	0.492533
	H323	H	0.735221	0.303658	0.466412
	O324	O	1.262481	-0.213492	0.738608
	H325	H	1.249195	-0.208299	0.758404
	H326	H	1.282414	-0.227254	0.715908
	O327	O	0.332006	0.692768	0.513896
	H328	H	0.325336	0.701151	0.495354
	H329	H	0.336333	0.696753	0.480400
	O330	O	0.065722	1.121849	0.034406
	H331	H	0.079616	1.120649	0.021866
	H332	H	0.080218	1.129245	0.037121
	O333	O	0.393627	0.470737	0.548086
	H334	H	0.393710	0.476415	0.544204
	H335	H	0.406805	0.483561	0.546684
	O336	O	0.526427	0.621781	0.442284
	H337	H	0.540514	0.618786	0.458084
	H338	H	0.524901	0.605628	0.444879
	O339	O	0.539600	0.355616	0.437333
	H340	H	0.518178	0.374367	0.444663
	H341	H	0.546827	0.346418	0.433126
	O342	O	0.220446	0.799745	-0.028502
	H343	H	0.237231	0.793399	-0.033318
	H344	H	0.224494	0.806486	-0.029969
	O345	O	1.024105	0.813619	-0.207550
	H346	H	1.018276	0.822146	-0.228700
	H347	H	1.038265	0.812915	-0.205367
	O348	O	0.519736	0.725254	0.345868
	H349	H	0.527083	0.721106	0.346603
	H350	H	0.544037	0.727953	0.350965
	O351	O	0.098369	0.068557	0.813117
	H352	H	0.086098	0.079843	0.806781
	H353	H	0.094532	0.068614	0.805049
	O354	O	1.063871	-0.210198	1.060829
	H355	H	1.063386	-0.217673	1.040864
	H356	H	1.066551	-0.203646	1.059823
	O357	O	0.371410	0.715664	0.412404
	H358	H	0.376139	0.725354	0.398488
	H359	H	0.373683	0.707927	0.396380
	O360	O	0.203411	-0.171185	1.192504
	H361	H	0.183301	-0.156856	1.170861
	H362	H	0.190354	-0.149188	1.174132
	O363	O	0.536098	0.543470	0.292623
	H364	H	0.518556	0.549837	0.295857
	H365	H	0.544598	0.523380	0.297508
	O366	O	1.457100	0.314334	0.493791
	H367	H	1.444639	0.318677	0.504859
	H368	H	1.465420	0.319045	0.513314
	O369	O	-0.208903	0.050910	0.783357
	H370	H	-0.223651	0.035862	0.802457
	H371	H	-0.234218	0.034460	0.783209
	O372	O	0.007508	1.002829	1.083173
	H373	H	0.016575	1.005167	1.064339
	H374	H	0.007166	1.001883	1.083521
	O375	O	1.208654	0.195965	-0.003009
	H376	H	1.220944	0.199446	-0.011706
	H377	H	1.201171	0.211555	-0.003735
	O378	O	0.302241	0.324253	0.703279
	H379	H	0.317781	0.320900	0.672190
	H380	H	0.299846	0.356926	0.693224
	O381	O	-0.064516	0.966315	-0.212866
	H382	H	-0.090587	0.975491	-0.213462
	H383	H	-0.060297	0.978441	-0.210083
	O384	O	0.394685	0.529548	0.490418
	H385	H	0.388935	0.522720	0.472728
	H386	H	0.395702	0.548798	0.477697
	O387	O	0.290874	0.546977	0.292121
	H388	H	0.277728	0.556161	0.270632
	H389	H	0.289612	0.582260	0.288958
	O390	O	-0.074464	0.808004	0.943888
	H391	H	-0.067154	0.814842	0.926257
	H392	H	-0.094930	0.804537	0.958523
	O393	O	0.866596	0.196345	0.105431
	H394	H	0.878048	0.202947	0.129775
	H395	H	0.892539	0.201137	0.096529
	O396	O	0.146816	0.148274	0.137087
	H397	H	0.159760	0.158430	0.108046
	H398	H	0.151752	0.108909	0.141477
	O399	O	0.187548	0.962832	0.899713
	H400	H	0.181765	0.973152	0.902040
	H401	H	0.188831	0.979083	0.877227
	O402	O	0.982449	0.240554	0.783182
	H403	H	0.972602	0.258780	0.756516
	H404	H	0.938481	0.237165	0.788125
	O405	O	0.711099	0.540488	0.702278
	H406	H	0.720556	0.550475	0.705024
	H407	H	0.720377	0.525498	0.698136
	O408	O	1.032671	1.240651	1.220938
	H409	H	1.053021	1.262867	1.242711
	H410	H	1.066961	1.241802	1.223998
	O411	O	0.870002	0.029397	0.055669
	H412	H	0.868705	0.035844	0.048740
	H413	H	0.876400	0.031772	0.050843
	O414	O	-0.207000	0.231710	-0.030334
	H415	H	-0.188149	0.234288	-0.007876
	H416	H	-0.215284	0.253262	-0.021702
	O417	O	0.723799	0.501627	0.291819
	H418	H	0.740197	0.511563	0.279469
	H419	H	0.726772	0.474224	0.288517
	O420	O	1.229425	-0.015367	1.093520
	H421	H	1.235312	-0.001736	1.080871
	H422	H	1.223757	-0.014797	1.090812
	O423	O	1.218868	1.091177	0.211709
	H424	H	1.235111	1.089484	0.236115
	H425	H	1.208469	1.063416	0.216750
	O426	O	0.607853	0.733961	0.446052
	H427	H	0.627638	0.736367	0.445816
	H428	H	0.618327	0.728836	0.458911
	O429	O	0.316154	0.723644	0.300046
	H430	H	0.292322	0.756401	0.268662
	H431	H	0.365964	0.731404	0.299288
	O432	O	1.034198	0.239551	0.959290
	H433	H	1.038573	0.239967	0.959574
	H434	H	1.023153	0.227370	0.934486
	O435	O	0.536345	0.734240	0.714442
	H436	H	0.537694	0.734605	0.731933
	H437	H	0.541180	0.751878	0.721183
	O438	O	0.696937	0.335815	0.309769
	H439	H	0.692934	0.347538	0.326596
	H440	H	0.661090	0.328226	0.316742
	O441	O	0.667750	0.478003	0.533095
	H442	H	0.662623	0.477078	0.519181
	H443	H	0.671600	0.476609	0.522016
	O444	O	0.944588	0.099617	0.209536
	H445	H	0.958799	0.111290	0.207808
	H446	H	0.950599	0.109781	0.206497
	O447	O	0.810027	0.215059	0.801515
	H448	H	0.802425	0.195184	0.824095
	H449	H	0.803973	0.189323	0.819855
	O450	O	0.720516	0.565023	0.448344
	H451	H	0.708637	0.563516	0.451203
	H452	H	0.724932	0.574443	0.443443
	O453	O	0.698071	0.710753	0.684103
	H454	H	0.673900	0.708832	0.681431
	H455	H	0.714070	0.693447	0.689068
	O456	O	-0.211675	0.994736	1.214725
	H457	H	-0.205998	1.009576	1.220165
	H458	H	-0.222541	1.010954	1.234538
	O459	O	0.361093	0.670375	0.700216
	H460	H	0.365171	0.669804	0.689660
	H461	H	0.361406	0.663618	0.683148
	O462	O	0.452061	0.397665	0.331886
	H463	H	0.447455	0.405578	0.330868
	H464	H	0.445486	0.400183	0.342349
	O465	O	0.631701	0.404373	0.682992
	H466	H	0.637650	0.398644	0.688186
	H467	H	0.645933	0.411111	0.691975
	O468	O	-0.687851	0.368468	0.338946
	H469	H	-0.678423	0.364592	0.352825
	H470	H	-0.696612	0.367055	0.332000
	O471	O	0.009879	0.074575	0.903831
	H472	H	0.005344	0.094524	0.897687
	H473	H	0.017930	0.078942	0.901633
	O474	O	0.777533	1.008808	-0.017376
	H475	H	0.783861	0.995054	0.002651
	H476	H	0.777405	1.024158	0.003840
	O477	O	0.477207	0.301231	0.719413
	H478	H	0.484856	0.304542	0.736842
	H479	H	0.462375	0.294538	0.735154
