data_Molecule from HDF5

_cell_length_a		16.391023
_cell_length_b		16.558331
_cell_length_c		16.480538
_cell_angle_alpha	90.062237
_cell_angle_beta	89.903199
_cell_angle_gamma	90.053750
_symmetry_space_group_name_H-M	'P 1'
_symmetry_Int_Tables_number		1

loop_
	_symmetry_equiv_pos_as_xyz
	x,y,z

loop_
	_atom_site_label
	_atom_site_type_symbol
	_atom_site_fract_x
	_atom_site_fract_y
	_atom_site_fract_z
	H0	H	0.383990	0.847784	0.729304
	H1	H	0.595763	0.162049	0.727960
	H2	H	0.596807	0.849330	0.282882
	H3	H	0.383865	0.161208	0.283338
	H4	H	0.710198	0.402201	0.848162
	H5	H	0.715027	0.611887	0.163291
	H6	H	0.270707	0.608840	0.849005
	H7	H	0.269501	0.399465	0.165119
	H8	H	0.833828	0.725893	0.401402
	H9	H	0.148856	0.727366	0.612981
	H10	H	0.834148	0.281161	0.614398
	H11	H	0.148720	0.280616	0.397075
	H12	H	0.834571	0.398015	0.730207
	H13	H	0.151898	0.606713	0.724046
	H14	H	0.835302	0.611142	0.283131
	H15	H	0.149243	0.396147	0.281622
	H16	H	0.381358	0.730636	0.852216
	H17	H	0.599325	0.729111	0.163218
	H18	H	0.596211	0.284162	0.849608
	H19	H	0.383351	0.281432	0.164111
	H20	H	0.713964	0.848913	0.399844
	H21	H	0.712385	0.162786	0.611186
	H22	H	0.269779	0.846974	0.609391
	H23	H	0.269031	0.162251	0.400495
	H24	H	0.886795	0.348091	0.228597
	H25	H	0.099329	0.660820	0.229324
	H26	H	0.093913	0.346346	0.788542
	H27	H	0.888469	0.662321	0.786543
	H28	H	0.212065	0.899160	0.348129
	H29	H	0.209449	0.107060	0.664276
	H30	H	0.771014	0.108470	0.347130
	H31	H	0.769182	0.900275	0.664010
	H32	H	0.332930	0.223501	0.905522
	H33	H	0.651672	0.224556	0.110391
	H34	H	0.333087	0.782323	0.112569
	H35	H	0.649053	0.782027	0.899002
	H36	H	0.331443	0.901274	0.226579
	H37	H	0.651969	0.107611	0.225459
	H38	H	0.332368	0.106378	0.789692
	H39	H	0.650057	0.899957	0.785417
	H40	H	0.883759	0.228507	0.348838
	H41	H	0.093617	0.224707	0.663366
	H42	H	0.097996	0.780853	0.349914
	H43	H	0.883259	0.782504	0.663814
	H44	H	0.210088	0.346615	0.905792
	H45	H	0.212826	0.662546	0.110267
	H46	H	0.770537	0.347835	0.111476
	H47	H	0.770613	0.661878	0.901508
	H48	H	0.396103	0.120466	0.604018
	H49	H	0.579773	0.894324	0.590562
	H50	H	0.578541	0.118515	0.412688
	H51	H	0.405015	0.893783	0.415290
	H52	H	0.585777	0.412488	0.123544
	H53	H	0.583104	0.593023	0.894606
	H54	H	0.404043	0.587219	0.116707
	H55	H	0.399926	0.414275	0.893602
	H56	H	0.102080	0.584585	0.418486
	H57	H	0.877543	0.591991	0.597678
	H58	H	0.108090	0.413189	0.601388
	H59	H	0.881846	0.416742	0.426303
	H60	H	0.104638	0.409557	0.591132
	H61	H	0.876243	0.596146	0.598666
	H62	H	0.108375	0.597244	0.414412
	H63	H	0.881656	0.424441	0.416668
	H64	H	0.409331	0.596937	0.117729
	H65	H	0.578358	0.593767	0.895721
	H66	H	0.581213	0.421578	0.118855
	H67	H	0.404394	0.416789	0.896544
	H68	H	0.578051	0.115207	0.420843
	H69	H	0.585291	0.890690	0.597477
	H70	H	0.410329	0.114218	0.598214
	H71	H	0.402166	0.893310	0.419757
	H72	H	0.907045	0.614979	0.091796
	H73	H	0.081553	0.390761	0.098717
	H74	H	0.083811	0.620151	0.910556
	H75	H	0.897620	0.392763	0.922848
	H76	H	0.075019	0.915758	0.616381
	H77	H	0.074990	0.088623	0.395653
	H78	H	0.905856	0.090246	0.616045
	H79	H	0.902861	0.916187	0.394540
	H80	H	0.605674	0.092311	0.917419
	H81	H	0.377473	0.094288	0.100690
	H82	H	0.602559	0.915402	0.089131
	H83	H	0.378237	0.912920	0.922721
	H84	H	0.602161	0.922007	0.095383
	H85	H	0.377629	0.098659	0.093651
	H86	H	0.607517	0.096391	0.914300
	H87	H	0.380740	0.920869	0.920459
	H88	H	0.905633	0.098630	0.618570
	H89	H	0.077190	0.100286	0.390596
	H90	H	0.080706	0.912140	0.620858
	H91	H	0.904961	0.914687	0.394291
	H92	H	0.078066	0.617073	0.916409
	H93	H	0.074901	0.394847	0.094339
	H94	H	0.900386	0.617242	0.094363
	H95	H	0.900562	0.389308	0.911028
	H96	H	0.397104	0.115148	0.588672
	H97	H	0.576101	0.893400	0.599000
	H98	H	0.585449	0.118304	0.418164
	H99	H	0.400062	0.891597	0.415270
	H100	H	0.575437	0.412043	0.118982
	H101	H	0.580662	0.597106	0.892619
	H102	H	0.399199	0.595548	0.122263
	H103	H	0.404541	0.411142	0.894594
	H104	H	0.102839	0.595357	0.427919
	H105	H	0.877930	0.594908	0.594771
	H106	H	0.102906	0.420110	0.594045
	H107	H	0.877949	0.412624	0.415329
	H108	H	0.906064	0.616551	0.098597
	H109	H	0.082956	0.393412	0.090185
	H110	H	0.085888	0.618740	0.918187
	H111	H	0.909552	0.395096	0.918365
	H112	H	0.081432	0.919730	0.618719
	H113	H	0.086600	0.091860	0.390614
	H114	H	0.898322	0.093521	0.619271
	H115	H	0.902705	0.914143	0.393593
	H116	H	0.607129	0.097214	0.919018
	H117	H	0.380631	0.090908	0.093766
	H118	H	0.606229	0.913785	0.097058
	H119	H	0.376752	0.916118	0.914530
	C120	C	0.369355	0.012728	0.628273
	C121	C	0.612892	0.996608	0.627941
	C122	C	0.613331	0.013808	0.384526
	C123	C	0.369945	0.997028	0.384931
	C124	C	0.612379	0.384141	0.015631
	C125	C	0.613549	0.627201	0.998001
	C126	C	0.370933	0.625638	0.015140
	C127	C	0.370121	0.382562	0.999096
	C128	C	0.000167	0.625499	0.386492
	C129	C	0.982720	0.625992	0.628148
	C130	C	0.000456	0.382473	0.628018
	C131	C	0.983969	0.384083	0.385270
	C132	C	0.871025	0.512998	0.127719
	C133	C	0.113339	0.496439	0.127472
	C134	C	0.113812	0.513776	0.884674
	C135	C	0.870755	0.496467	0.885389
	C136	C	0.112263	0.882986	0.514908
	C137	C	0.111929	0.125936	0.496773
	C138	C	0.870102	0.126625	0.514144
	C139	C	0.869974	0.882766	0.498088
	C140	C	0.501040	0.126097	0.886169
	C141	C	0.483724	0.126552	0.128337
	C142	C	0.499027	0.884333	0.127040
	C143	C	0.482926	0.883774	0.886028
	C144	C	0.366762	0.894692	0.688413
	C145	C	0.614387	0.115060	0.687669
	C146	C	0.615360	0.895933	0.323641
	C147	C	0.366593	0.114697	0.324277
	C148	C	0.671235	0.383454	0.896080
	C149	C	0.674405	0.630006	0.116297
	C150	C	0.310348	0.627689	0.896728
	C151	C	0.309238	0.380736	0.117383
	C152	C	0.881269	0.685712	0.383253
	C153	C	0.101971	0.686387	0.630316
	C154	C	0.881389	0.321933	0.631406
	C155	C	0.101877	0.321860	0.380191
	C156	C	0.881683	0.380012	0.689150
	C157	C	0.103231	0.626843	0.686037
	C158	C	0.882046	0.628751	0.324414
	C159	C	0.102032	0.379481	0.322713
	C160	C	0.365370	0.688244	0.898158
	C161	C	0.616829	0.688291	0.116232
	C162	C	0.614364	0.324610	0.896653
	C163	C	0.366266	0.322191	0.117200
	C164	C	0.673181	0.895691	0.382091
	C165	C	0.672369	0.115242	0.629509
	C166	C	0.309695	0.894249	0.629020
	C167	C	0.309040	0.114884	0.382512
	C168	C	0.868288	0.395177	0.188299
	C169	C	0.117072	0.614127	0.188696
	C170	C	0.113441	0.393992	0.827604
	C171	C	0.869302	0.614996	0.825928
	C172	C	0.172258	0.880806	0.395700
	C173	C	0.170284	0.126535	0.616446
	C174	C	0.810413	0.127801	0.394773
	C175	C	0.809153	0.881248	0.616728
	C176	C	0.380747	0.184176	0.885930
	C177	C	0.603745	0.185285	0.129378
	C178	C	0.380270	0.822996	0.130559
	C179	C	0.601857	0.822848	0.881989
	C180	C	0.379559	0.882079	0.187276
	C181	C	0.603806	0.127208	0.186853
	C182	C	0.380471	0.125988	0.828535
	C183	C	0.602220	0.881275	0.825120
	C184	C	0.866155	0.187751	0.395748
	C185	C	0.112958	0.184989	0.616185
	C186	C	0.115638	0.821671	0.396813
	C187	C	0.865924	0.822579	0.616444
	C188	C	0.171178	0.394114	0.885783
	C189	C	0.173673	0.615009	0.129477
	C190	C	0.810475	0.395013	0.130083
	C191	C	0.810974	0.614968	0.883488
	C192	C	0.394078	0.095081	0.603969
	C193	C	0.587643	0.914385	0.603009
	C194	C	0.588012	0.095905	0.409986
	C195	C	0.395268	0.914290	0.409645
	C196	C	0.587767	0.408465	0.098870
	C197	C	0.587924	0.601839	0.915783
	C198	C	0.396870	0.600369	0.097467
	C199	C	0.395696	0.407223	0.916350
	C200	C	0.082964	0.599806	0.412781
	C201	C	0.899257	0.601360	0.604059
	C202	C	0.083594	0.407086	0.602689
	C203	C	0.902033	0.410364	0.411983
	C204	C	0.897094	0.595001	0.102190
	C205	C	0.087448	0.414456	0.101755
	C206	C	0.089647	0.597039	0.908133
	C207	C	0.895393	0.413938	0.910234
	C208	C	0.086493	0.908529	0.597227
	C209	C	0.086866	0.100985	0.414076
	C210	C	0.895769	0.101446	0.596374
	C211	C	0.895954	0.907689	0.415620
	C212	C	0.584835	0.102198	0.910067
	C213	C	0.400352	0.101723	0.103307
	C214	C	0.581828	0.909785	0.101133
	C215	C	0.400286	0.909134	0.911866
	Zn216	Zn	0.491271	0.004759	0.757971
	Zn217	Zn	0.490940	0.005387	0.256034
	Zn218	Zn	0.741732	0.504965	0.006628
	Zn219	Zn	0.242000	0.504557	0.007118
	Zn220	Zn	-0.008911	0.754365	0.507115
	Zn221	Zn	-0.008735	0.255093	0.505243
	Zn222	Zn	-0.007747	0.504979	0.756157
	Zn223	Zn	-0.007288	0.504929	0.257147
	Zn224	Zn	0.491515	0.755232	0.006623
	Zn225	Zn	0.492190	0.254549	0.007763
	Zn226	Zn	0.742433	0.005233	0.506252
	Zn227	Zn	0.240664	0.004437	0.505411
	N228	N	0.403039	0.969511	0.688090
	N229	N	0.578167	0.040315	0.686881
	N230	N	0.578783	0.970555	0.325058
	N231	N	0.403649	0.040346	0.325777
	N232	N	0.669989	0.419949	0.971040
	N233	N	0.672415	0.592625	0.041959
	N234	N	0.314105	0.589063	0.970366
	N235	N	0.311712	0.417818	0.043027
	N236	N	0.955677	0.683476	0.421184
	N237	N	0.025836	0.686286	0.595372
	N238	N	0.956414	0.323485	0.593965
	N239	N	0.027400	0.324471	0.418637
	N240	N	0.956568	0.417109	0.687085
	N241	N	0.028091	0.590078	0.684872
	N242	N	0.957204	0.591961	0.326401
	N243	N	0.027907	0.417592	0.325935
	N244	N	0.402600	0.686679	0.972649
	N245	N	0.579887	0.686839	0.041745
	N246	N	0.578799	0.324844	0.972052
	N247	N	0.403525	0.323183	0.042579
	N248	N	0.671914	0.969865	0.419091
	N249	N	0.671706	0.040552	0.593066
	N250	N	0.311212	0.968441	0.592286
	N251	N	0.311335	0.040659	0.419654
	N252	N	0.905177	0.469619	0.186985
	N253	N	0.080580	0.539560	0.187694
	N254	N	0.078893	0.469613	0.826607
	N255	N	0.905828	0.540365	0.826920
	N256	N	0.170178	0.918353	0.470021
	N257	N	0.169915	0.090950	0.541101
	N258	N	0.812540	0.090756	0.469279
	N259	N	0.811237	0.917996	0.542048
	N260	N	0.456846	0.184591	0.920786
	N261	N	0.527759	0.185329	0.094154
	N262	N	0.455679	0.824177	0.094182
	N263	N	0.526629	0.824156	0.918953
	N264	N	0.454542	0.919322	0.185478
	N265	N	0.527949	0.091821	0.186449
	N266	N	0.456259	0.090703	0.828604
	N267	N	0.527228	0.918212	0.827129
	N268	N	0.902264	0.187380	0.470986
	N269	N	0.077888	0.185139	0.540512
	N270	N	0.079036	0.822914	0.471911
	N271	N	0.902660	0.823354	0.541526
	N272	N	0.171754	0.469704	0.920107
	N273	N	0.171656	0.540539	0.092494
	N274	N	0.811612	0.469571	0.093634
	N275	N	0.811698	0.540186	0.919609
	O276	O	0.984800	0.836714	0.130843
	H277	H	0.992437	0.838213	0.113099
	H278	H	0.986880	0.828655	0.135363
	O279	O	0.514829	0.362594	0.456150
	H280	H	0.507165	0.354537	0.447616
	H281	H	0.520840	0.356734	0.456699
	O282	O	0.836339	0.793414	0.025688
	H283	H	0.818960	0.779794	0.038045
	H284	H	0.842741	0.798437	0.052038
	O285	O	0.461592	0.349901	0.356266
	H286	H	0.479769	0.347420	0.353868
	H287	H	0.457147	0.360148	0.355344
	O288	O	-0.094785	0.110687	0.197842
	H289	H	-0.090584	0.096911	0.178419
	H290	H	-0.100486	0.132128	0.203109
	O291	O	1.515077	0.624709	0.400063
	H292	H	1.512567	0.616207	0.384622
	H293	H	1.490860	0.636694	0.397566
	O294	O	0.057906	0.837939	0.051618
	H295	H	0.038498	0.844151	0.041276
	H296	H	0.059717	0.848026	0.028883
	O297	O	0.039910	-0.206394	0.155163
	H298	H	0.030008	-0.211611	0.129597
	H299	H	0.064219	-0.213140	0.156996
	O300	O	0.670731	0.472429	0.489058
	H301	H	0.665023	0.472357	0.470985
	H302	H	0.674403	0.491428	0.481437
	O303	O	0.662386	0.447549	0.533940
	H304	H	0.639987	0.453580	0.536967
	H305	H	0.656988	0.454937	0.519322
	O306	O	0.706153	0.704999	0.533122
	H307	H	0.690607	0.719029	0.516393
	H308	H	0.718423	0.725059	0.521757
	O309	O	0.446111	0.562170	0.712196
	H310	H	0.442696	0.573462	0.719999
	H311	H	0.438456	0.579544	0.699823
	O312	O	0.484087	0.400158	0.541656
	H313	H	0.485360	0.398955	0.542492
	H314	H	0.484115	0.397847	0.552657
	O315	O	0.434548	-0.280679	1.629486
	H316	H	0.434377	-0.288112	1.632174
	H317	H	0.436131	-0.270645	1.653333
	O318	O	0.095977	1.206003	-0.036616
	H319	H	0.098611	1.204459	-0.011714
	H320	H	0.080490	1.207163	-0.028898
	O321	O	0.633382	0.711012	-0.610218
	H322	H	0.605402	0.709783	-0.624640
	H323	H	0.631517	0.710709	-0.610271
	O324	O	0.940457	-0.042113	0.802711
	H325	H	0.919362	-0.038489	0.817261
	H326	H	0.943183	-0.013064	0.800405
	O327	O	0.799034	0.200957	0.819942
	H328	H	0.786879	0.208831	0.797742
	H329	H	0.842698	0.199412	0.810587
	O330	O	1.117985	0.031527	-0.200041
	H331	H	1.138749	-0.005474	-0.200849
	H332	H	1.110945	0.021934	-0.191681
	O333	O	1.200294	1.031214	1.212820
	H334	H	1.200766	1.038431	1.224183
	H335	H	1.197467	1.024508	1.229581
	O336	O	0.793760	0.220247	0.986857
	H337	H	0.795521	0.202087	0.950132
	H338	H	0.761474	0.238144	0.975530
	O339	O	0.268975	0.289390	0.537010
	H340	H	0.244079	0.264332	0.545138
	H341	H	0.265351	0.297904	0.543887
	O342	O	0.017998	0.890240	0.976498
	H343	H	0.021284	0.886678	0.977105
	H344	H	0.017694	0.890656	0.983878
	O345	O	0.023516	-0.203404	-0.200872
	H346	H	-0.001233	-0.193673	-0.192561
	H347	H	0.006966	-0.209109	-0.222933
	O348	O	1.007972	0.205613	1.206540
	H349	H	1.006294	0.229621	1.219140
	H350	H	0.984857	0.202320	1.189519
	O351	O	0.967496	1.192224	-0.198024
	H352	H	0.982405	1.199756	-0.195988
	H353	H	0.992319	1.190589	-0.199029
	O354	O	0.315305	0.493354	0.354905
	H355	H	0.289106	0.489068	0.331073
	H356	H	0.325917	0.509190	0.377359
	O357	O	1.287176	1.297209	0.708343
	H358	H	1.293781	1.313235	0.690602
	H359	H	1.288771	1.276826	0.732590
	O360	O	0.346807	0.633848	0.682266
	H361	H	0.355441	0.623782	0.664874
	H362	H	0.351042	0.632722	0.674894
	O363	O	0.461574	0.301849	0.721620
	H364	H	0.480012	0.305174	0.726043
	H365	H	0.453884	0.293887	0.728598
	O366	O	0.995433	-0.055439	1.088169
	H367	H	0.992612	-0.045942	1.084947
	H368	H	1.011999	-0.050044	1.077486
	O369	O	0.690891	0.487079	0.609566
	H370	H	0.691361	0.492303	0.615812
	H371	H	0.703334	0.502022	0.600672
	O372	O	0.465566	0.320078	0.331238
	H373	H	0.449560	0.309139	0.336506
	H374	H	0.465535	0.307255	0.316002
	O375	O	-0.051616	0.953375	0.915219
	H376	H	-0.051388	0.951811	0.904105
	H377	H	-0.056686	0.953114	0.912651
	O378	O	0.425745	0.449764	0.319530
	H379	H	0.425465	0.451426	0.319591
	H380	H	0.412644	0.465212	0.303472
	O381	O	0.777887	0.036383	-0.211300
	H382	H	0.780289	0.045391	-0.210129
	H383	H	0.755288	0.049157	-0.232234
	O384	O	0.188717	-0.189784	0.811568
	H385	H	0.163919	-0.198536	0.833474
	H386	H	0.176897	-0.210730	0.790506
	O387	O	-0.019655	0.990220	1.192756
	H388	H	-0.027996	0.956288	1.199186
	H389	H	-0.019158	0.987950	1.177609
	O390	O	-0.157752	-0.062415	0.939432
	H391	H	-0.170221	-0.088779	0.933788
	H392	H	-0.153180	-0.058284	0.959961
	O393	O	0.970355	1.138531	0.001755
	H394	H	0.971916	1.134707	0.014173
	H395	H	0.946219	1.127921	0.002417
	O396	O	0.292954	0.703282	0.362042
	H397	H	0.299247	0.698393	0.356370
	H398	H	0.292781	0.710314	0.395728
	O399	O	0.274564	0.463422	0.726089
	H400	H	0.274516	0.438398	0.726841
	H401	H	0.256776	0.470981	0.745132
	O402	O	-0.146907	0.004267	1.166496
	H403	H	-0.154525	0.021167	1.178577
	H404	H	-0.134021	0.015670	1.170194
	O405	O	0.175828	0.171045	-0.165603
	H406	H	0.163030	0.158938	-0.172327
	H407	H	0.175869	0.151413	-0.144583
	O408	O	0.615309	0.602351	0.710420
	H409	H	0.616033	0.592866	0.724299
	H410	H	0.619912	0.601729	0.719371
	O411	O	0.344664	0.621921	0.530989
	H412	H	0.337454	0.605922	0.534564
	H413	H	0.345740	0.609006	0.543109
	O414	O	0.684556	0.693497	0.701541
	H415	H	0.691131	0.676725	0.676259
	H416	H	0.672630	0.684097	0.687203
	O417	O	0.496133	0.721206	0.384008
	H418	H	0.492781	0.713258	0.375665
	H419	H	0.486016	0.720185	0.369695
	O420	O	0.471657	0.643438	0.566868
	H421	H	0.476147	0.653313	0.586583
	H422	H	0.461731	0.633877	0.571958
	O423	O	0.180356	1.196024	0.188310
	H424	H	0.169070	1.187339	0.190025
	H425	H	0.164046	1.187058	0.175792
	O426	O	1.196601	1.138273	0.999161
	H427	H	1.186998	1.135512	0.973937
	H428	H	1.206926	1.160522	0.997348
	O429	O	0.279555	0.462336	0.409729
	H430	H	0.280860	0.455406	0.385706
	H431	H	0.283469	0.449815	0.406439
	O432	O	0.493945	0.584705	0.290784
	H433	H	0.496249	0.577969	0.303985
	H434	H	0.483186	0.598457	0.281872
	O435	O	0.199929	-0.089600	-0.131531
	H436	H	0.210994	-0.088849	-0.151973
	H437	H	0.215761	-0.121528	-0.143216
	O438	O	1.208274	-0.018922	0.041117
	H439	H	1.205253	-0.014736	0.049714
	H440	H	1.209056	0.004653	0.035368
	O441	O	0.563067	0.362356	0.638759
	H442	H	0.551605	0.368609	0.629294
	H443	H	0.547749	0.373342	0.635002
	O444	O	-0.133108	0.999716	1.008551
	H445	H	-0.148465	1.003731	1.020600
	H446	H	-0.143942	0.985501	1.019813
	O447	O	0.669437	0.293316	0.495615
	H448	H	0.658153	0.296861	0.510291
	H449	H	0.696140	0.284294	0.500938
	O450	O	0.706542	0.486959	0.287970
	H451	H	0.721351	0.471701	0.278726
	H452	H	0.706393	0.467044	0.282649
	O453	O	0.683040	0.319709	0.315940
	H454	H	0.684590	0.318583	0.349088
	H455	H	0.653433	0.311470	0.325397
	O456	O	0.790856	-0.021435	0.060744
	H457	H	0.783718	-0.034509	0.043291
	H458	H	0.777467	-0.044259	0.075480
	O459	O	0.552013	0.525738	0.451625
	H460	H	0.550856	0.534162	0.445661
	H461	H	0.565382	0.532941	0.442921
	O462	O	0.336703	0.532156	0.615155
	H463	H	0.332753	0.509590	0.602533
	H464	H	0.329656	0.512001	0.626602
	O465	O	0.796542	-0.179029	0.206432
	H466	H	0.807274	-0.186869	0.223215
	H467	H	0.812144	-0.149359	0.208957
