data_Molecule from HDF5

_cell_length_a		16.343006
_cell_length_b		16.405782
_cell_length_c		16.126353
_cell_angle_alpha	89.983501
_cell_angle_beta	89.918815
_cell_angle_gamma	89.803155
_symmetry_space_group_name_H-M	'P 1'
_symmetry_Int_Tables_number		1

loop_
	_symmetry_equiv_pos_as_xyz
	x,y,z

loop_
	_atom_site_label
	_atom_site_type_symbol
	_atom_site_fract_x
	_atom_site_fract_y
	_atom_site_fract_z
	H0	H	0.400661	0.824306	0.702062
	H1	H	0.597118	0.148098	0.699172
	H2	H	0.600664	0.825072	0.266912
	H3	H	0.398660	0.147816	0.268136
	H4	H	0.714004	0.383803	0.817825
	H5	H	0.717695	0.588918	0.143000
	H6	H	0.283643	0.587436	0.818032
	H7	H	0.279997	0.382759	0.144465
	H8	H	0.839607	0.706751	0.376985
	H9	H	0.159096	0.705855	0.586627
	H10	H	0.838965	0.265711	0.588540
	H11	H	0.157860	0.263683	0.373884
	H12	H	0.835832	0.386930	0.697067
	H13	H	0.159785	0.587515	0.698968
	H14	H	0.836675	0.585883	0.268057
	H15	H	0.160187	0.383662	0.263095
	H16	H	0.395406	0.705920	0.819808
	H17	H	0.603573	0.704797	0.144132
	H18	H	0.602059	0.267262	0.820411
	H19	H	0.395206	0.269496	0.146020
	H20	H	0.717720	0.825490	0.382409
	H21	H	0.718381	0.145686	0.589535
	H22	H	0.277678	0.826589	0.592348
	H23	H	0.278644	0.146161	0.379966
	H24	H	0.897789	0.324417	0.199435
	H25	H	0.098919	0.647562	0.199080
	H26	H	0.099369	0.324017	0.763892
	H27	H	0.898367	0.647760	0.764955
	H28	H	0.217756	0.883474	0.322325
	H29	H	0.214815	0.088016	0.647323
	H30	H	0.780854	0.088514	0.320979
	H31	H	0.786554	0.885615	0.647524
	H32	H	0.336992	0.203861	0.882033
	H33	H	0.659667	0.206202	0.087895
	H34	H	0.338666	0.765856	0.090018
	H35	H	0.658538	0.766807	0.878914
	H36	H	0.336530	0.887722	0.200373
	H37	H	0.661974	0.086439	0.200133
	H38	H	0.337455	0.087017	0.767026
	H39	H	0.661872	0.888567	0.771533
	H40	H	0.895316	0.204206	0.320078
	H41	H	0.102371	0.205814	0.644723
	H42	H	0.102694	0.771014	0.320060
	H43	H	0.897670	0.767850	0.644516
	H44	H	0.217625	0.325021	0.878708
	H45	H	0.218901	0.645614	0.086847
	H46	H	0.780638	0.324613	0.083135
	H47	H	0.776822	0.645507	0.874766
	H48	H	0.409063	0.101853	0.582643
	H49	H	0.585471	0.872251	0.578662
	H50	H	0.594923	0.101871	0.393247
	H51	H	0.409529	0.872801	0.397129
	H52	H	0.589869	0.393724	0.099935
	H53	H	0.585662	0.575362	0.866451
	H54	H	0.408603	0.571497	0.096491
	H55	H	0.413276	0.404144	0.870567
	H56	H	0.114599	0.578496	0.392264
	H57	H	0.882488	0.584943	0.569079
	H58	H	0.111850	0.404018	0.573445
	H59	H	0.884732	0.398376	0.390491
	H60	H	0.116739	0.389970	0.576732
	H61	H	0.885984	0.575025	0.566684
	H62	H	0.114797	0.577680	0.390519
	H63	H	0.881719	0.392344	0.390214
	H64	H	0.411932	0.579239	0.098103
	H65	H	0.585640	0.579982	0.865297
	H66	H	0.590981	0.399497	0.098745
	H67	H	0.415877	0.386225	0.865522
	H68	H	0.587938	0.101642	0.391277
	H69	H	0.596036	0.871982	0.568999
	H70	H	0.412430	0.096394	0.568929
	H71	H	0.404753	0.870137	0.394444
	H72	H	0.904109	0.602072	0.073735
	H73	H	0.087780	0.372715	0.070872
	H74	H	0.088827	0.602084	0.883944
	H75	H	0.899451	0.369635	0.889951
	H76	H	0.084762	0.894015	0.599292
	H77	H	0.096998	0.082131	0.362405
	H78	H	0.918190	0.078549	0.597097
	H79	H	0.912670	0.898384	0.367571
	H80	H	0.610624	0.075941	0.898826
	H81	H	0.381365	0.084528	0.077865
	H82	H	0.614263	0.900707	0.081514
	H83	H	0.378875	0.892444	0.884923
	H84	H	0.616889	0.885357	0.074631
	H85	H	0.386435	0.079752	0.068239
	H86	H	0.616130	0.075969	0.886987
	H87	H	0.383708	0.889293	0.903281
	H88	H	0.905826	0.084557	0.603302
	H89	H	0.091140	0.062203	0.371501
	H90	H	0.089943	0.892197	0.601851
	H91	H	0.908153	0.891270	0.363784
	H92	H	0.085885	0.597417	0.895412
	H93	H	0.089903	0.372496	0.069127
	H94	H	0.909190	0.599500	0.072696
	H95	H	0.909569	0.369643	0.884660
	H96	H	0.398931	0.101043	0.572061
	H97	H	0.598592	0.866931	0.582365
	H98	H	0.589885	0.099249	0.398369
	H99	H	0.409574	0.871272	0.391111
	H100	H	0.585354	0.397303	0.096957
	H101	H	0.589315	0.576632	0.863874
	H102	H	0.403844	0.577297	0.099594
	H103	H	0.399511	0.393950	0.862744
	H104	H	0.115839	0.579687	0.390835
	H105	H	0.882361	0.577044	0.576619
	H106	H	0.110655	0.393097	0.562547
	H107	H	0.884908	0.393914	0.396134
	H108	H	0.905216	0.599294	0.068583
	H109	H	0.090460	0.371949	0.071818
	H110	H	0.097109	0.602118	0.892476
	H111	H	0.908017	0.373875	0.894925
	H112	H	0.089878	0.897634	0.601021
	H113	H	0.075911	0.079003	0.369383
	H114	H	0.905579	0.070420	0.599218
	H115	H	0.903412	0.899334	0.364839
	H116	H	0.616093	0.086484	0.894006
	H117	H	0.385251	0.073768	0.078429
	H118	H	0.609808	0.897295	0.064584
	H119	H	0.387093	0.906061	0.895382
	C120	C	0.376945	-0.005942	0.606505
	C121	C	0.622454	0.976885	0.606977
	C122	C	0.621471	-0.005082	0.363049
	C123	C	0.376939	0.977496	0.362679
	C124	C	0.619508	0.365330	-0.009224
	C125	C	0.618938	0.607545	0.972759
	C126	C	0.377205	0.607562	-0.009225
	C127	C	0.378469	0.365162	0.974116
	C128	C	0.008250	0.608642	0.360487
	C129	C	0.990109	0.608859	0.602630
	C130	C	0.006761	0.365259	0.602468
	C131	C	0.990121	0.364106	0.360276
	C132	C	0.875787	0.494146	0.103015
	C133	C	0.120126	0.477919	0.102757
	C134	C	0.120912	0.494303	0.859173
	C135	C	0.875988	0.477421	0.859009
	C136	C	0.119837	0.864862	0.492965
	C137	C	0.119267	0.106476	0.474778
	C138	C	0.878028	0.108188	0.492228
	C139	C	0.878501	0.865622	0.473537
	C140	C	0.507570	0.109123	0.862329
	C141	C	0.491013	0.109260	0.105931
	C142	C	0.507369	0.864251	0.105216
	C143	C	0.489737	0.865501	0.863591
	C144	C	0.379284	0.872870	0.663950
	C145	C	0.618622	0.099039	0.662384
	C146	C	0.620620	0.873573	0.305518
	C147	C	0.378435	0.099198	0.306036
	C148	C	0.676091	0.364872	0.867420
	C149	C	0.678274	0.607922	0.094684
	C150	C	0.320797	0.607413	0.867562
	C151	C	0.319701	0.364670	0.096220
	C152	C	0.887411	0.666865	0.359200
	C153	C	0.110868	0.666528	0.604471
	C154	C	0.886492	0.306199	0.605243
	C155	C	0.110307	0.304228	0.356777
	C156	C	0.884963	0.366123	0.659790
	C157	C	0.111227	0.607379	0.660426
	C158	C	0.885793	0.606356	0.305106
	C159	C	0.111312	0.363798	0.301208
	C160	C	0.376799	0.666168	0.868332
	C161	C	0.621542	0.665628	0.095184
	C162	C	0.620429	0.306765	0.868823
	C163	C	0.376742	0.308033	0.096945
	C164	C	0.679051	0.873890	0.362936
	C165	C	0.679140	0.098118	0.607658
	C166	C	0.318290	0.873953	0.609110
	C167	C	0.318595	0.098257	0.361938
	C168	C	0.877560	0.372932	0.160628
	C169	C	0.119605	0.598998	0.161060
	C170	C	0.119393	0.372798	0.802236
	C171	C	0.877442	0.599054	0.802387
	C172	C	0.178494	0.864743	0.370536
	C173	C	0.176404	0.107122	0.597934
	C174	C	0.819643	0.107999	0.369792
	C175	C	0.823610	0.866100	0.597759
	C176	C	0.385688	0.165736	0.862454
	C177	C	0.611937	0.166888	0.106641
	C178	C	0.386520	0.806022	0.107492
	C179	C	0.611072	0.807422	0.861915
	C180	C	0.385668	0.866067	0.163084
	C181	C	0.613134	0.106897	0.162133
	C182	C	0.385788	0.107525	0.805338
	C183	C	0.612791	0.867750	0.808273
	C184	C	0.876842	0.165455	0.369152
	C185	C	0.120559	0.165956	0.596718
	C186	C	0.121299	0.808514	0.369605
	C187	C	0.878585	0.807139	0.596024
	C188	C	0.178488	0.373234	0.859176
	C189	C	0.178970	0.597962	0.104676
	C190	C	0.818837	0.373158	0.103016
	C191	C	0.817333	0.598050	0.857522
	C192	C	0.399940	0.077932	0.581798
	C193	C	0.600290	0.892292	0.583441
	C194	C	0.597766	0.078968	0.387177
	C195	C	0.400838	0.893364	0.387106
	C196	C	0.595628	0.389819	0.076479
	C197	C	0.594100	0.584289	0.887442
	C198	C	0.401307	0.583125	0.075897
	C199	C	0.402575	0.388216	0.888376
	C200	C	0.093069	0.585516	0.384206
	C201	C	0.905443	0.585612	0.578086
	C202	C	0.091192	0.388794	0.578008
	C203	C	0.905766	0.387970	0.385065
	C204	C	0.899243	0.578143	0.078742
	C205	C	0.096264	0.394366	0.078012
	C206	C	0.097374	0.578540	0.883440
	C207	C	0.899084	0.393062	0.882754
	C208	C	0.095343	0.888043	0.578413
	C209	C	0.095076	0.081804	0.389839
	C210	C	0.902681	0.084775	0.577698
	C211	C	0.901294	0.889417	0.387652
	C212	C	0.592295	0.086308	0.886320
	C213	C	0.406322	0.086165	0.081967
	C214	C	0.591788	0.887600	0.080710
	C215	C	0.405322	0.889047	0.887525
	Zn216	Zn	0.499576	-0.013979	0.735133
	Zn217	Zn	0.499378	-0.013544	0.233766
	Zn218	Zn	0.746746	0.485948	-0.019798
	Zn219	Zn	0.250367	0.485404	-0.018393
	Zn220	Zn	-0.000544	0.738072	0.481430
	Zn221	Zn	-0.000736	0.236079	0.482457
	Zn222	Zn	-0.002202	0.486264	0.730852
	Zn223	Zn	-0.001411	0.486468	0.232509
	Zn224	Zn	0.498316	0.735797	-0.017226
	Zn225	Zn	0.498851	0.237692	-0.016251
	Zn226	Zn	0.750729	-0.013683	0.485153
	Zn227	Zn	0.247201	-0.014610	0.484757
	N228	N	0.415034	0.948568	0.662491
	N229	N	0.584231	0.022813	0.662241
	N230	N	0.585634	0.949887	0.305194
	N231	N	0.414173	0.023158	0.306357
	N232	N	0.675796	0.400424	0.944537
	N233	N	0.677011	0.572627	0.017459
	N234	N	0.321037	0.571464	0.944607
	N235	N	0.320662	0.399506	0.018759
	N236	N	0.964667	0.668588	0.392541
	N237	N	0.034424	0.667349	0.569117
	N238	N	0.963192	0.305624	0.570265
	N239	N	0.033895	0.304147	0.392644
	N240	N	0.960822	0.402304	0.658193
	N241	N	0.034977	0.572109	0.659485
	N242	N	0.962167	0.570946	0.305453
	N243	N	0.035590	0.400286	0.303156
	N244	N	0.410869	0.666675	0.946148
	N245	N	0.585335	0.665445	0.018256
	N246	N	0.585818	0.306997	0.946691
	N247	N	0.412776	0.308122	0.019867
	N248	N	0.679917	0.950378	0.397893
	N249	N	0.681606	0.021129	0.573950
	N250	N	0.316408	0.950370	0.574259
	N251	N	0.317562	0.021617	0.396528
	N252	N	0.911962	0.449349	0.161118
	N253	N	0.083718	0.523399	0.160106
	N254	N	0.084535	0.449234	0.801845
	N255	N	0.913046	0.523054	0.803171
	N256	N	0.177887	0.898921	0.448114
	N257	N	0.175794	0.070885	0.521158
	N258	N	0.820226	0.073144	0.447292
	N259	N	0.823349	0.901882	0.520593
	N260	N	0.462477	0.166803	0.897125
	N261	N	0.534776	0.168633	0.072692
	N262	N	0.463258	0.804625	0.072358
	N263	N	0.533732	0.805628	0.895499
	N264	N	0.461751	0.901596	0.161727
	N265	N	0.536906	0.071837	0.161810
	N266	N	0.462542	0.073171	0.804986
	N267	N	0.536444	0.903195	0.809055
	N268	N	0.912386	0.165764	0.446462
	N269	N	0.085928	0.165794	0.519034
	N270	N	0.085378	0.808385	0.446772
	N271	N	0.912063	0.806809	0.517734
	N272	N	0.179852	0.449856	0.893516
	N273	N	0.179792	0.521761	0.069348
	N274	N	0.817491	0.449571	0.068023
	N275	N	0.816288	0.521449	0.892082
	O276	O	0.417227	0.405966	0.624359
	H277	H	0.434598	0.409101	0.612412
	H278	H	0.425764	0.396399	0.629516
	O279	O	0.622770	0.331379	0.437182
	H280	H	0.635539	0.327073	0.415499
	H281	H	0.625607	0.322346	0.427165
	O282	O	0.901365	-0.173974	0.990609
	H283	H	0.897817	-0.199173	1.010701
	H284	H	0.891809	-0.172396	0.983322
	O285	O	0.431364	0.672421	0.392382
	H286	H	0.415149	0.661725	0.398216
	H287	H	0.416314	0.681302	0.394102
	O288	O	0.948796	0.934907	0.893906
	H289	H	0.953892	0.942482	0.882695
	H290	H	0.960012	0.935585	0.895732
	O291	O	-0.189785	0.991448	0.139314
	H292	H	-0.186835	0.996584	0.125586
	H293	H	-0.200650	0.988064	0.147617
	O294	O	0.531720	0.391007	0.299617
	H295	H	0.536940	0.409424	0.290239
	H296	H	0.525635	0.394372	0.294688
	O297	O	0.389968	0.338048	0.538464
	H298	H	0.401994	0.345372	0.542491
	H299	H	0.376754	0.319996	0.539898
	O300	O	0.587398	0.477553	0.474053
	H301	H	0.587481	0.475370	0.470678
	H302	H	0.589016	0.469555	0.462146
	O303	O	0.421404	0.294294	0.597066
	H304	H	0.454960	0.296670	0.583478
	H305	H	0.428660	0.272685	0.594317
	O306	O	0.439130	0.391203	0.452300
	H307	H	0.442317	0.385088	0.463183
	H308	H	0.442853	0.385134	0.479189
	O309	O	0.565287	0.652201	0.580574
	H310	H	0.563757	0.653988	0.583409
	H311	H	0.569835	0.657078	0.564317
	O312	O	0.005449	-0.065172	-0.053325
	H313	H	0.003109	-0.068082	-0.059046
	H314	H	-0.003893	-0.074815	-0.052594
	O315	O	0.495294	0.666732	0.376953
	H316	H	0.489225	0.665905	0.368865
	H317	H	0.475631	0.668660	0.377964
	O318	O	0.162835	0.883149	1.050458
	H319	H	0.154776	0.889774	1.046396
	H320	H	0.156506	0.874463	1.049850
	O321	O	0.654454	0.461564	0.354909
	H322	H	0.628463	0.476928	0.356823
	H323	H	0.658974	0.470648	0.376981
	O324	O	-0.110747	0.895990	-0.024117
	H325	H	-0.094244	0.887765	-0.027652
	H326	H	-0.116491	0.913641	-0.043867
	O327	O	0.382005	0.483747	0.558819
	H328	H	0.381432	0.464479	0.548854
	H329	H	0.367311	0.471586	0.581032
	O330	O	-0.130917	-0.178415	1.136345
	H331	H	-0.142829	-0.172201	1.122896
	H332	H	-0.139157	-0.169221	1.134605
	O333	O	0.048167	-0.019204	0.999433
	H334	H	0.051355	-0.020281	1.018957
	H335	H	0.056315	-0.039193	0.998775
	O336	O	0.479513	0.443734	0.513452
	H337	H	0.471271	0.447367	0.526856
	H338	H	0.476476	0.441985	0.506308
	O339	O	0.574581	0.494608	0.671453
	H340	H	0.582547	0.496300	0.666453
	H341	H	0.572406	0.492608	0.677546
	O342	O	0.362032	-0.500049	0.465957
	H343	H	0.353535	-0.507006	0.481095
	H344	H	0.359761	-0.494082	0.467930
	O345	O	1.458159	0.510408	1.290994
	H346	H	1.444352	0.499639	1.286268
	H347	H	1.460944	0.516896	1.281768
	O348	O	1.127443	0.982865	0.033174
	H349	H	1.138867	0.988120	0.052558
	H350	H	1.128738	0.997866	0.031631
	O351	O	0.650966	0.592840	0.591577
	H352	H	0.645542	0.589283	0.599617
	H353	H	0.654779	0.609675	0.574427
	O354	O	1.061085	0.025347	0.916178
	H355	H	1.053687	0.017706	0.914963
	H356	H	1.060773	0.022497	0.930119
	O357	O	0.505895	0.424407	0.527514
	H358	H	0.501060	0.417980	0.522498
	H359	H	0.512426	0.433319	0.521255
	O360	O	1.119993	0.820646	0.823758
	H361	H	1.114285	0.816185	0.826483
	H362	H	1.123419	0.816180	0.838064
	O363	O	-0.053012	1.059842	0.935742
	H364	H	-0.055480	1.043398	0.935842
	H365	H	-0.060181	1.074839	0.920630
	O366	O	0.396101	0.475276	0.489382
	H367	H	0.390548	0.457456	0.483181
	H368	H	0.389037	0.473455	0.491462
	O369	O	0.099595	1.013745	0.136329
	H370	H	0.096633	1.011684	0.126699
	H371	H	0.106571	1.025757	0.142849
	O372	O	0.556247	0.389781	0.351300
	H373	H	0.547008	0.399320	0.350176
	H374	H	0.573696	0.390195	0.339846
	O375	O	0.368636	0.624977	0.541269
	H376	H	0.393339	0.623856	0.552709
	H377	H	0.366222	0.616807	0.554511
	O378	O	0.999813	1.101195	-0.035153
	H379	H	1.002652	1.082754	-0.039562
	H380	H	0.996681	1.115541	-0.019286
	O381	O	1.163904	-0.017153	-0.054813
	H382	H	1.156773	-0.027594	-0.048011
	H383	H	1.179123	-0.029268	-0.053900
	O384	O	1.066405	0.941095	-0.103464
	H385	H	1.055680	0.939952	-0.106343
	H386	H	1.077470	0.935149	-0.116866
	O387	O	-0.667755	0.520424	0.424183
	H388	H	-0.681957	0.498936	0.413762
	H389	H	-0.674076	0.503848	0.449098
	O390	O	-0.122713	1.116726	-0.085723
	H391	H	-0.129086	1.131966	-0.087353
	H392	H	-0.114167	1.113275	-0.090390
	O393	O	1.009914	1.024635	1.119125
	H394	H	1.009436	1.023540	1.115572
	H395	H	1.013535	1.029036	1.110113
	O396	O	0.615187	0.426756	0.295032
	H397	H	0.607289	0.427219	0.285608
	H398	H	0.611397	0.438886	0.286740
	O399	O	-0.010282	1.106828	0.972994
	H400	H	-0.023346	1.111909	0.970246
	H401	H	-0.013973	1.093852	0.975654
	O402	O	0.566617	0.635002	0.564335
	H403	H	0.571662	0.628561	0.560769
	H404	H	0.563478	0.633652	0.572521
	O405	O	1.015838	1.076269	0.066755
	H406	H	1.005208	1.082235	0.066899
	H407	H	1.012856	1.080745	0.067400
	O408	O	0.876051	1.119760	-0.032029
	H409	H	0.891224	1.123797	-0.032708
	H410	H	0.875309	1.112226	-0.037775
	O411	O	0.876491	0.062747	1.927257
	H412	H	0.879340	0.055969	1.940498
	H413	H	0.886502	0.053371	1.921518
	O414	O	0.618091	0.511481	0.560171
	H415	H	0.621773	0.518664	0.544727
	H416	H	0.622452	0.518253	0.561140
	O417	O	0.053576	-0.190801	1.001233
	H418	H	0.059727	-0.210016	1.024614
	H419	H	0.039589	-0.181679	1.007180
