data_Molecule from HDF5

_cell_length_a		16.184675
_cell_length_b		16.365322
_cell_length_c		16.025400
_cell_angle_alpha	89.685262
_cell_angle_beta	89.778997
_cell_angle_gamma	89.990541
_symmetry_space_group_name_H-M	'P 1'
_symmetry_Int_Tables_number		1

loop_
	_symmetry_equiv_pos_as_xyz
	x,y,z

loop_
	_atom_site_label
	_atom_site_type_symbol
	_atom_site_fract_x
	_atom_site_fract_y
	_atom_site_fract_z
	H0	H	0.400817	0.835185	0.708006
	H1	H	0.593641	0.162531	0.703060
	H2	H	0.594137	0.834849	0.280723
	H3	H	0.401767	0.163192	0.279252
	H4	H	0.711045	0.403879	0.825859
	H5	H	0.710276	0.595248	0.159428
	H6	H	0.288549	0.598429	0.826625
	H7	H	0.285130	0.399470	0.158188
	H8	H	0.834896	0.715050	0.389259
	H9	H	0.161903	0.713934	0.591852
	H10	H	0.834614	0.281220	0.595614
	H11	H	0.161681	0.281943	0.390361
	H12	H	0.833655	0.400603	0.706428
	H13	H	0.164395	0.594435	0.701483
	H14	H	0.832736	0.594006	0.280642
	H15	H	0.164524	0.403909	0.280913
	H16	H	0.398084	0.716195	0.828424
	H17	H	0.598291	0.712350	0.158847
	H18	H	0.601676	0.284705	0.827715
	H19	H	0.397694	0.282750	0.158069
	H20	H	0.713563	0.836541	0.393240
	H21	H	0.713443	0.161302	0.591603
	H22	H	0.281646	0.835680	0.595602
	H23	H	0.282032	0.161471	0.392761
	H24	H	0.903144	0.334681	0.204463
	H25	H	0.095795	0.662027	0.203854
	H26	H	0.096408	0.334634	0.779252
	H27	H	0.901999	0.662547	0.776241
	H28	H	0.211104	0.902364	0.326149
	H29	H	0.208314	0.094286	0.659499
	H30	H	0.787948	0.095904	0.325936
	H31	H	0.784554	0.899703	0.658222
	H32	H	0.335516	0.217551	0.890440
	H33	H	0.662237	0.213898	0.094422
	H34	H	0.334823	0.781358	0.097921
	H35	H	0.662227	0.783606	0.891819
	H36	H	0.332853	0.902444	0.206934
	H37	H	0.663740	0.093753	0.203190
	H38	H	0.332961	0.096985	0.780104
	H39	H	0.664590	0.905081	0.781995
	H40	H	0.897984	0.213239	0.327349
	H41	H	0.097901	0.212129	0.657663
	H42	H	0.097262	0.787101	0.325959
	H43	H	0.897106	0.781852	0.656873
	H44	H	0.217958	0.336962	0.889853
	H45	H	0.213698	0.661925	0.089359
	H46	H	0.783079	0.336123	0.092824
	H47	H	0.782392	0.661741	0.890202
	H48	H	0.401728	0.115128	0.584846
	H49	H	0.582671	0.884662	0.585888
	H50	H	0.593468	0.117332	0.393068
	H51	H	0.401340	0.882633	0.405335
	H52	H	0.605305	0.395802	0.117952
	H53	H	0.592866	0.594382	0.872991
	H54	H	0.404567	0.594963	0.114077
	H55	H	0.411480	0.408183	0.874787
	H56	H	0.115162	0.585249	0.396426
	H57	H	0.881714	0.586547	0.583953
	H58	H	0.116680	0.402867	0.585614
	H59	H	0.876927	0.391868	0.400108
	H60	H	0.115877	0.400596	0.581146
	H61	H	0.878677	0.593720	0.587138
	H62	H	0.120725	0.599490	0.391066
	H63	H	0.884214	0.408532	0.410127
	H64	H	0.403615	0.586987	0.111961
	H65	H	0.590588	0.589863	0.875211
	H66	H	0.592217	0.421811	0.108303
	H67	H	0.409532	0.404058	0.873301
	H68	H	0.590897	0.114837	0.399075
	H69	H	0.597709	0.883091	0.578534
	H70	H	0.402243	0.115042	0.585366
	H71	H	0.400958	0.880737	0.397330
	H72	H	0.909168	0.612347	0.078954
	H73	H	0.087489	0.385153	0.081544
	H74	H	0.086691	0.615067	0.892249
	H75	H	0.903563	0.381450	0.898641
	H76	H	0.077166	0.903909	0.607521
	H77	H	0.095611	0.095167	0.370058
	H78	H	0.898872	0.086791	0.612601
	H79	H	0.900482	0.901486	0.369068
	H80	H	0.614534	0.093998	0.904713
	H81	H	0.378581	0.099779	0.083768
	H82	H	0.618208	0.894000	0.081708
	H83	H	0.379383	0.902145	0.905829
	H84	H	0.611791	0.911093	0.077971
	H85	H	0.383927	0.089397	0.078549
	H86	H	0.616136	0.089510	0.895283
	H87	H	0.382447	0.909778	0.902487
	H88	H	0.911607	0.087587	0.609737
	H89	H	0.090513	0.085768	0.375294
	H90	H	0.093075	0.893631	0.615562
	H91	H	0.904723	0.912843	0.374424
	H92	H	0.095951	0.613071	0.905668
	H93	H	0.098115	0.381535	0.081998
	H94	H	0.895582	0.617450	0.082821
	H95	H	0.905419	0.383254	0.900662
	H96	H	0.402761	0.115174	0.585141
	H97	H	0.596401	0.878351	0.595305
	H98	H	0.597665	0.116071	0.399244
	H99	H	0.408505	0.884040	0.399955
	H100	H	0.575385	0.395328	0.110157
	H101	H	0.587429	0.594387	0.875217
	H102	H	0.411395	0.590785	0.110224
	H103	H	0.407352	0.408571	0.873656
	H104	H	0.114836	0.597966	0.406891
	H105	H	0.881206	0.593322	0.578374
	H106	H	0.115224	0.405761	0.581643
	H107	H	0.878305	0.409817	0.389330
	H108	H	0.905747	0.617185	0.092924
	H109	H	0.091767	0.380341	0.091319
	H110	H	0.101723	0.618743	0.892186
	H111	H	0.902883	0.382438	0.900916
	H112	H	0.095764	0.913406	0.610851
	H113	H	0.084300	0.095437	0.374309
	H114	H	0.904861	0.097826	0.614931
	H115	H	0.912712	0.902680	0.374462
	H116	H	0.619099	0.099924	0.896511
	H117	H	0.379542	0.088492	0.090709
	H118	H	0.618558	0.907143	0.095905
	H119	H	0.379214	0.904009	0.898230
	C120	C	0.374791	0.007228	0.615099
	C121	C	0.620183	0.990157	0.614283
	C122	C	0.621212	0.007796	0.369704
	C123	C	0.375786	0.990356	0.371437
	C124	C	0.620351	0.376899	0.002105
	C125	C	0.618935	0.620163	0.984504
	C126	C	0.378337	0.620454	0.002383
	C127	C	0.379013	0.377677	0.983405
	C128	C	0.007631	0.621110	0.369757
	C129	C	0.989752	0.619208	0.611680
	C130	C	0.007214	0.375600	0.613378
	C131	C	0.989115	0.375742	0.370675
	C132	C	0.875975	0.507587	0.114070
	C133	C	0.120855	0.490200	0.112880
	C134	C	0.122634	0.507513	0.868478
	C135	C	0.876337	0.490444	0.870211
	C136	C	0.118641	0.876458	0.501627
	C137	C	0.118429	0.119584	0.483535
	C138	C	0.877317	0.119437	0.501937
	C139	C	0.876489	0.876561	0.482484
	C140	C	0.507373	0.122125	0.870628
	C141	C	0.489699	0.120141	0.113331
	C142	C	0.507079	0.876365	0.115148
	C143	C	0.489633	0.878077	0.872897
	C144	C	0.379075	0.884191	0.670984
	C145	C	0.615613	0.113498	0.666903
	C146	C	0.616308	0.884156	0.316992
	C147	C	0.380243	0.114052	0.316679
	C148	C	0.674701	0.381974	0.876090
	C149	C	0.673541	0.616498	0.109561
	C150	C	0.324535	0.618785	0.876908
	C151	C	0.322778	0.379493	0.108591
	C152	C	0.883665	0.676390	0.370482
	C153	C	0.113182	0.675322	0.610807
	C154	C	0.883413	0.319984	0.613873
	C155	C	0.112803	0.320713	0.371483
	C156	C	0.883071	0.379066	0.669334
	C157	C	0.114578	0.615311	0.665238
	C158	C	0.882526	0.616115	0.316698
	C159	C	0.114203	0.381156	0.316884
	C160	C	0.379226	0.677364	0.877655
	C161	C	0.617965	0.674707	0.109261
	C162	C	0.620176	0.322692	0.877101
	C163	C	0.379084	0.321766	0.108628
	C164	C	0.675827	0.885123	0.372619
	C165	C	0.675039	0.112938	0.611245
	C166	C	0.320076	0.884216	0.614600
	C167	C	0.320648	0.113099	0.373104
	C168	C	0.881115	0.383907	0.167871
	C169	C	0.117114	0.613206	0.166828
	C170	C	0.118437	0.383933	0.815389
	C171	C	0.880850	0.613809	0.814643
	C172	C	0.173689	0.881068	0.376004
	C173	C	0.171643	0.115110	0.609297
	C174	C	0.823823	0.117051	0.376289
	C175	C	0.821651	0.879085	0.608356
	C176	C	0.383992	0.178379	0.871791
	C177	C	0.613283	0.175304	0.112912
	C178	C	0.383554	0.820363	0.115921
	C179	C	0.613607	0.822619	0.873223
	C180	C	0.382610	0.880575	0.170266
	C181	C	0.614123	0.115777	0.167320
	C182	C	0.382611	0.118528	0.816814
	C183	C	0.614658	0.882934	0.818656
	C184	C	0.879300	0.174778	0.376744
	C185	C	0.117023	0.174109	0.608357
	C186	C	0.117366	0.823578	0.375695
	C187	C	0.877220	0.820118	0.607466
	C188	C	0.178836	0.385278	0.870343
	C189	C	0.175713	0.613092	0.109817
	C190	C	0.821390	0.384689	0.112407
	C191	C	0.821131	0.613319	0.870981
	C192	C	0.396002	0.092993	0.592093
	C193	C	0.598684	0.904213	0.592969
	C194	C	0.600309	0.093796	0.390771
	C195	C	0.397188	0.904536	0.394050
	C196	C	0.597604	0.398050	0.089555
	C197	C	0.596704	0.599101	0.896901
	C198	C	0.399988	0.597702	0.089550
	C199	C	0.402399	0.400333	0.896497
	C200	C	0.094481	0.600428	0.391681
	C201	C	0.903005	0.597453	0.589709
	C202	C	0.093600	0.396876	0.589865
	C203	C	0.902223	0.397110	0.392954
	C204	C	0.897235	0.593641	0.091547
	C205	C	0.098967	0.404468	0.091275
	C206	C	0.101070	0.593437	0.890015
	C207	C	0.897691	0.404611	0.893182
	C208	C	0.095418	0.897429	0.588897
	C209	C	0.096533	0.098287	0.395878
	C210	C	0.898811	0.097122	0.589810
	C211	C	0.899357	0.899019	0.395230
	C212	C	0.594156	0.100749	0.892354
	C213	C	0.402884	0.098726	0.091123
	C214	C	0.593963	0.897756	0.092020
	C215	C	0.402865	0.899094	0.895554
	Zn216	Zn	0.497915	-0.000682	0.743322
	Zn217	Zn	0.498279	-0.000957	0.241915
	Zn218	Zn	0.746626	0.499350	-0.007273
	Zn219	Zn	0.251321	0.498847	-0.008291
	Zn220	Zn	-0.001932	0.748720	0.491115
	Zn221	Zn	-0.002433	0.247125	0.492575
	Zn222	Zn	-0.000905	0.497966	0.740784
	Zn223	Zn	-0.001517	0.498707	0.242445
	Zn224	Zn	0.498374	0.748539	-0.006077
	Zn225	Zn	0.499336	0.249543	-0.006986
	Zn226	Zn	0.749880	-0.000654	0.492387
	Zn227	Zn	0.245520	-0.002153	0.493091
	N228	N	0.412352	0.961672	0.671462
	N229	N	0.582129	0.036246	0.668779
	N230	N	0.582904	0.961460	0.315099
	N231	N	0.413969	0.036700	0.315523
	N232	N	0.674951	0.415091	0.954878
	N233	N	0.674139	0.583264	0.030869
	N234	N	0.323961	0.583902	0.955210
	N235	N	0.322480	0.413488	0.029684
	N236	N	0.962338	0.679476	0.402793
	N237	N	0.034543	0.677916	0.578336
	N238	N	0.961596	0.317698	0.579664
	N239	N	0.034036	0.317186	0.404151
	N240	N	0.960776	0.413041	0.668958
	N241	N	0.036861	0.581100	0.665991
	N242	N	0.960590	0.582429	0.315788
	N243	N	0.036282	0.414966	0.316364
	N244	N	0.412196	0.678525	0.956655
	N245	N	0.584852	0.677231	0.030294
	N246	N	0.587184	0.319341	0.956395
	N247	N	0.413107	0.320411	0.029767
	N248	N	0.678900	0.962881	0.404737
	N249	N	0.677953	0.035120	0.579179
	N250	N	0.317260	0.961680	0.580569
	N251	N	0.317827	0.035376	0.406257
	N252	N	0.914524	0.461264	0.168836
	N253	N	0.083608	0.535859	0.168766
	N254	N	0.084335	0.460941	0.813900
	N255	N	0.914281	0.536325	0.813902
	N256	N	0.174590	0.913205	0.455166
	N257	N	0.172581	0.081844	0.530557
	N258	N	0.822538	0.083187	0.455184
	N259	N	0.820828	0.913356	0.529639
	N260	N	0.462634	0.180844	0.904198
	N261	N	0.534883	0.177972	0.079950
	N262	N	0.462095	0.817684	0.082386
	N263	N	0.534910	0.819525	0.906258
	N264	N	0.460504	0.914642	0.169873
	N265	N	0.536288	0.082015	0.167748
	N266	N	0.460308	0.084147	0.815876
	N267	N	0.536631	0.916631	0.818195
	N268	N	0.911639	0.176406	0.456116
	N269	N	0.084521	0.176866	0.529075
	N270	N	0.083713	0.820715	0.454779
	N271	N	0.910555	0.818503	0.528396
	N272	N	0.181532	0.463003	0.902681
	N273	N	0.178136	0.535569	0.077137
	N274	N	0.818098	0.462646	0.079736
	N275	N	0.818182	0.535662	0.904690
	O276	O	1.015165	1.033079	0.000799
	H277	H	1.009069	1.043179	0.004154
	H278	H	1.020975	1.031933	-0.001971
	O279	O	0.012874	-0.021609	1.003945
	H280	H	0.020052	-0.026302	1.005827
	H281	H	0.015864	-0.025088	1.004244
	O282	O	-0.060136	-0.047734	0.041002
	H283	H	-0.058522	-0.040525	0.039491
	H284	H	-0.060367	-0.045733	0.040720
	O285	O	0.516490	0.493476	0.479651
	H286	H	0.522042	0.503365	0.484953
	H287	H	0.525129	0.490431	0.479668
	O288	O	0.059274	-0.041040	0.002429
	H289	H	0.061676	-0.038551	0.010288
	H290	H	0.058469	-0.034010	0.005921
	O291	O	-0.003704	1.014572	-0.019383
	H292	H	-0.012431	1.013024	-0.019235
	H293	H	-0.000530	1.021426	-0.016510
	O294	O	-0.021501	1.001322	0.030558
	H295	H	-0.022695	0.996514	0.028159
	H296	H	-0.026256	0.997179	0.028124
	O297	O	0.549002	0.536765	0.498646
	H298	H	0.551292	0.535093	0.505176
	H299	H	0.536696	0.538982	0.500968
	O300	O	0.456183	0.462723	0.503849
	H301	H	0.468647	0.451432	0.499822
	H302	H	0.451225	0.466931	0.490069
	O303	O	0.943490	-0.001276	1.002574
	H304	H	0.936295	-0.002168	1.001931
	H305	H	0.938426	0.001304	1.005738
	O306	O	0.430052	1.469559	1.515727
	H307	H	0.434892	1.468378	1.513787
	H308	H	0.425998	1.474855	1.518179
	O309	O	0.005279	1.071208	0.958820
	H310	H	0.016381	1.074464	0.960527
	H311	H	-0.000370	1.072146	0.947877
	O312	O	-0.046911	-0.057869	0.986427
	H313	H	-0.052479	-0.064713	0.992550
	H314	H	-0.039926	-0.057339	0.985591
	O315	O	0.480025	0.571844	0.625742
	H316	H	0.490243	0.568565	0.625528
	H317	H	0.466873	0.568030	0.633451
	O318	O	0.472101	-0.465614	0.532238
	H319	H	0.469279	-0.467711	0.533475
	H320	H	0.462390	-0.463266	0.542128
	O321	O	0.587105	0.421567	0.485636
	H322	H	0.593262	0.422927	0.482256
	H323	H	0.591171	0.421324	0.490138
	O324	O	1.011098	-0.035203	1.047210
	H325	H	1.012906	-0.033992	1.054169
	H326	H	1.010788	-0.028963	1.050443
	O327	O	0.992191	0.996425	0.916474
	H328	H	1.003419	0.982062	0.914874
	H329	H	0.982974	1.000712	0.914209
	O330	O	0.461269	0.589806	0.530478
	H331	H	0.461474	0.587652	0.537688
	H332	H	0.461630	0.596240	0.523828
	O333	O	0.504330	0.597003	0.539711
	H334	H	0.501789	0.599476	0.539569
	H335	H	0.494940	0.587266	0.544231
	O336	O	0.493834	0.451136	0.491901
	H337	H	0.498498	0.460387	0.498445
	H338	H	0.488323	0.449378	0.501337
	O339	O	0.495071	0.425934	0.515511
	H340	H	0.501221	0.427103	0.505277
	H341	H	0.499857	0.437000	0.510700
	O342	O	0.473817	0.471443	0.534360
	H343	H	0.461459	0.459024	0.532493
	H344	H	0.469782	0.475227	0.536000
	O345	O	0.438639	0.425495	0.528461
	H346	H	0.450083	0.424992	0.528438
	H347	H	0.437587	0.421954	0.531352
