data_Molecule from HDF5

_cell_length_a		16.177927
_cell_length_b		16.505020
_cell_length_c		16.367538
_cell_angle_alpha	90.083972
_cell_angle_beta	90.330064
_cell_angle_gamma	89.914662
_symmetry_space_group_name_H-M	'P 1'
_symmetry_Int_Tables_number		1

loop_
	_symmetry_equiv_pos_as_xyz
	x,y,z

loop_
	_atom_site_label
	_atom_site_type_symbol
	_atom_site_fract_x
	_atom_site_fract_y
	_atom_site_fract_z
	H0	H	0.398591	0.833102	0.722331
	H1	H	0.610808	0.148403	0.723446
	H2	H	0.607754	0.831719	0.280986
	H3	H	0.399570	0.150031	0.281692
	H4	H	0.722563	0.388716	0.839379
	H5	H	0.723150	0.589633	0.162490
	H6	H	0.287455	0.589486	0.840137
	H7	H	0.293141	0.390348	0.164120
	H8	H	0.843806	0.706615	0.398229
	H9	H	0.168390	0.707200	0.605992
	H10	H	0.844462	0.269815	0.605389
	H11	H	0.166669	0.268924	0.398938
	H12	H	0.842307	0.388453	0.717340
	H13	H	0.168666	0.591721	0.721468
	H14	H	0.842875	0.589053	0.284107
	H15	H	0.169622	0.387372	0.287758
	H16	H	0.396636	0.711782	0.841815
	H17	H	0.612301	0.711615	0.160546
	H18	H	0.612840	0.267498	0.842239
	H19	H	0.402356	0.270002	0.160502
	H20	H	0.721036	0.829208	0.400690
	H21	H	0.727417	0.148191	0.607989
	H22	H	0.290666	0.829155	0.600176
	H23	H	0.283960	0.149341	0.399156
	H24	H	0.901087	0.330208	0.221078
	H25	H	0.111046	0.646714	0.223544
	H26	H	0.114447	0.331508	0.778773
	H27	H	0.898474	0.645944	0.778545
	H28	H	0.221213	0.888709	0.341115
	H29	H	0.224984	0.091172	0.662894
	H30	H	0.785705	0.090005	0.342300
	H31	H	0.785880	0.884275	0.662295
	H32	H	0.345030	0.211240	0.895653
	H33	H	0.666294	0.211047	0.108449
	H34	H	0.344298	0.771463	0.103880
	H35	H	0.663485	0.767930	0.892917
	H36	H	0.341441	0.892419	0.214574
	H37	H	0.666090	0.095369	0.224076
	H38	H	0.344153	0.096910	0.780366
	H39	H	0.663574	0.885087	0.780881
	H40	H	0.895675	0.211446	0.344719
	H41	H	0.116449	0.213732	0.659852
	H42	H	0.112163	0.766130	0.344010
	H43	H	0.897964	0.764575	0.660309
	H44	H	0.225879	0.329481	0.898913
	H45	H	0.223842	0.648300	0.103871
	H46	H	0.785044	0.330477	0.104015
	H47	H	0.784459	0.647514	0.896645
	H48	H	0.413901	0.104823	0.591622
	H49	H	0.592579	0.877188	0.592435
	H50	H	0.597964	0.104886	0.409132
	H51	H	0.415008	0.877107	0.409289
	H52	H	0.598575	0.400153	0.116290
	H53	H	0.588072	0.579826	0.889039
	H54	H	0.419166	0.584767	0.115121
	H55	H	0.418150	0.397797	0.886697
	H56	H	0.124728	0.581009	0.406089
	H57	H	0.891765	0.568571	0.598011
	H58	H	0.121098	0.394851	0.585127
	H59	H	0.887669	0.390376	0.412493
	H60	H	0.117751	0.406655	0.588568
	H61	H	0.887150	0.588618	0.593049
	H62	H	0.121847	0.584215	0.418770
	H63	H	0.892819	0.403704	0.416097
	H64	H	0.415423	0.581503	0.116055
	H65	H	0.593857	0.585579	0.885065
	H66	H	0.592870	0.403340	0.113383
	H67	H	0.414761	0.399304	0.886064
	H68	H	0.588545	0.102399	0.410559
	H69	H	0.593114	0.878263	0.591528
	H70	H	0.415469	0.104144	0.593011
	H71	H	0.410541	0.875457	0.408193
	H72	H	0.920583	0.601448	0.093479
	H73	H	0.100318	0.372385	0.096993
	H74	H	0.098410	0.601722	0.915406
	H75	H	0.918917	0.377698	0.914335
	H76	H	0.097463	0.891264	0.620053
	H77	H	0.094176	0.071444	0.391483
	H78	H	0.917416	0.081585	0.617673
	H79	H	0.919362	0.893877	0.388171
	H80	H	0.620387	0.078744	0.913566
	H81	H	0.393077	0.078744	0.084669
	H82	H	0.618842	0.903634	0.085631
	H83	H	0.390751	0.901348	0.919718
	H84	H	0.621241	0.904860	0.095068
	H85	H	0.388915	0.078629	0.094334
	H86	H	0.620447	0.078654	0.914411
	H87	H	0.389148	0.907004	0.907788
	H88	H	0.917262	0.076301	0.616144
	H89	H	0.083877	0.082077	0.390364
	H90	H	0.099676	0.902985	0.616667
	H91	H	0.911572	0.895196	0.386837
	H92	H	0.095264	0.602399	0.907693
	H93	H	0.096066	0.374552	0.096218
	H94	H	0.915251	0.601760	0.089233
	H95	H	0.911766	0.374993	0.912476
	H96	H	0.415474	0.103336	0.590771
	H97	H	0.594539	0.877377	0.591632
	H98	H	0.595260	0.101678	0.417661
	H99	H	0.413834	0.876178	0.404482
	H100	H	0.593411	0.396607	0.114649
	H101	H	0.596471	0.577360	0.886429
	H102	H	0.419683	0.580535	0.114694
	H103	H	0.417564	0.401128	0.887375
	H104	H	0.118618	0.571836	0.414235
	H105	H	0.895629	0.575916	0.578923
	H106	H	0.123347	0.398786	0.596914
	H107	H	0.887825	0.401176	0.402372
	H108	H	0.915353	0.603241	0.095966
	H109	H	0.099070	0.374682	0.092206
	H110	H	0.090330	0.599257	0.914122
	H111	H	0.917475	0.375195	0.906371
	H112	H	0.087871	0.897950	0.614275
	H113	H	0.098033	0.083929	0.384951
	H114	H	0.921437	0.079278	0.615172
	H115	H	0.915382	0.900958	0.389763
	H116	H	0.619616	0.078331	0.913601
	H117	H	0.388585	0.087609	0.089043
	H118	H	0.622981	0.896173	0.090702
	H119	H	0.385150	0.894741	0.910267
	C120	C	0.383736	-0.000897	0.622408
	C121	C	0.626739	0.981781	0.624639
	C122	C	0.625478	-0.001820	0.380531
	C123	C	0.381350	0.981647	0.377663
	C124	C	0.627240	0.368146	0.009439
	C125	C	0.626044	0.611827	0.992721
	C126	C	0.384590	0.612263	0.009394
	C127	C	0.385788	0.368857	0.993033
	C128	C	0.014403	0.609592	0.381113
	C129	C	0.997985	0.609640	0.622930
	C130	C	0.014132	0.368681	0.622158
	C131	C	0.996844	0.367159	0.380324
	C132	C	0.884850	0.497371	0.123142
	C133	C	0.128845	0.479513	0.124975
	C134	C	0.127607	0.496874	0.880441
	C135	C	0.883870	0.480516	0.879501
	C136	C	0.126260	0.867104	0.510943
	C137	C	0.126335	0.111243	0.493693
	C138	C	0.884661	0.110194	0.510987
	C139	C	0.883629	0.865782	0.493689
	C140	C	0.513980	0.111406	0.880936
	C141	C	0.496597	0.112852	0.122625
	C142	C	0.513946	0.870840	0.121302
	C143	C	0.494685	0.869231	0.880109
	C144	C	0.381881	0.879708	0.681394
	C145	C	0.629076	0.100876	0.683695
	C146	C	0.626392	0.878997	0.320933
	C147	C	0.380592	0.102081	0.320935
	C148	C	0.684649	0.368523	0.888014
	C149	C	0.685220	0.610923	0.113644
	C150	C	0.325772	0.610278	0.888773
	C151	C	0.329557	0.369679	0.114722
	C152	C	0.892420	0.667517	0.379207
	C153	C	0.119633	0.668356	0.625069
	C154	C	0.892493	0.309911	0.623376
	C155	C	0.118826	0.308820	0.380402
	C156	C	0.891803	0.368355	0.679810
	C157	C	0.119760	0.610822	0.682439
	C158	C	0.892080	0.609079	0.322434
	C159	C	0.120010	0.367674	0.324890
	C160	C	0.380679	0.671019	0.889454
	C161	C	0.629557	0.671110	0.112845
	C162	C	0.629951	0.308066	0.889670
	C163	C	0.384421	0.309993	0.113182
	C164	C	0.682924	0.877711	0.380432
	C165	C	0.687546	0.100661	0.626262
	C166	C	0.327656	0.877842	0.621070
	C167	C	0.322614	0.101524	0.378906
	C168	C	0.882543	0.377605	0.181567
	C169	C	0.129628	0.599379	0.183441
	C170	C	0.131172	0.378285	0.819947
	C171	C	0.880810	0.598987	0.818739
	C172	C	0.183481	0.868055	0.389812
	C173	C	0.186354	0.111265	0.614244
	C174	C	0.824509	0.110067	0.390713
	C175	C	0.824407	0.864900	0.613849
	C176	C	0.393067	0.171634	0.877661
	C177	C	0.617981	0.171878	0.126563
	C178	C	0.392256	0.811894	0.122341
	C179	C	0.615392	0.808630	0.876276
	C180	C	0.390863	0.871799	0.177416
	C181	C	0.617756	0.114323	0.183932
	C182	C	0.392409	0.114212	0.820669
	C183	C	0.615546	0.867054	0.820370
	C184	C	0.879560	0.170428	0.391830
	C185	C	0.131786	0.172169	0.612970
	C186	C	0.128744	0.807410	0.391009
	C187	C	0.880455	0.805283	0.612932
	C188	C	0.186916	0.377465	0.879531
	C189	C	0.185981	0.600097	0.124307
	C190	C	0.824659	0.378013	0.123357
	C191	C	0.824118	0.599845	0.877639
	C192	C	0.407932	0.082465	0.598587
	C193	C	0.600837	0.899203	0.599265
	C194	C	0.601124	0.081355	0.405366
	C195	C	0.406165	0.897977	0.400532
	C196	C	0.602328	0.392927	0.093046
	C197	C	0.600404	0.587778	0.908678
	C198	C	0.410540	0.589024	0.093531
	C199	C	0.409831	0.392578	0.908637
	C200	C	0.099608	0.585826	0.405823
	C201	C	0.913480	0.584983	0.597299
	C202	C	0.098759	0.393018	0.597534
	C203	C	0.911587	0.391342	0.403638
	C204	C	0.909754	0.580394	0.099714
	C205	C	0.105305	0.395777	0.101860
	C206	C	0.102159	0.579647	0.905305
	C207	C	0.908905	0.397571	0.904075
	C208	C	0.101962	0.890751	0.595119
	C209	C	0.099719	0.086390	0.410556
	C210	C	0.911201	0.086072	0.594472
	C211	C	0.908456	0.889883	0.409939
	C212	C	0.598278	0.085927	0.906451
	C213	C	0.412221	0.088687	0.096794
	C214	C	0.598959	0.894581	0.097515
	C215	C	0.410299	0.894084	0.905263
	Zn216	Zn	0.503698	-0.009258	0.752728
	Zn217	Zn	0.504367	-0.008797	0.249895
	Zn218	Zn	0.755061	0.489674	0.000666
	Zn219	Zn	0.256712	0.488819	0.002237
	Zn220	Zn	0.006009	0.737647	0.502156
	Zn221	Zn	0.005377	0.240059	0.502063
	Zn222	Zn	0.006270	0.488406	0.751081
	Zn223	Zn	0.006326	0.488172	0.253091
	Zn224	Zn	0.505256	0.741918	0.001037
	Zn225	Zn	0.506071	0.239962	0.000787
	Zn226	Zn	0.755512	-0.011131	0.502858
	Zn227	Zn	0.254386	-0.010726	0.502084
	N228	N	0.415700	0.956081	0.682649
	N229	N	0.592342	0.025902	0.683005
	N230	N	0.591751	0.955102	0.320681
	N231	N	0.416326	0.026537	0.319976
	N232	N	0.683188	0.405161	0.963547
	N233	N	0.683275	0.574984	0.037801
	N234	N	0.328018	0.574476	0.964501
	N235	N	0.330172	0.405485	0.038906
	N236	N	0.969500	0.667997	0.414726
	N237	N	0.042854	0.667604	0.588758
	N238	N	0.969614	0.309811	0.588669
	N239	N	0.041095	0.308167	0.413995
	N240	N	0.968604	0.404101	0.679123
	N241	N	0.042942	0.575195	0.681365
	N242	N	0.969107	0.573695	0.323760
	N243	N	0.043094	0.403117	0.324600
	N244	N	0.416498	0.672392	0.965799
	N245	N	0.593970	0.672132	0.036336
	N246	N	0.595403	0.307556	0.966291
	N247	N	0.418362	0.309036	0.036341
	N248	N	0.682617	0.952935	0.416727
	N249	N	0.686330	0.025381	0.590412
	N250	N	0.328741	0.952942	0.584946
	N251	N	0.322919	0.025595	0.413432
	N252	N	0.919080	0.452686	0.181728
	N253	N	0.095014	0.523389	0.184274
	N254	N	0.094909	0.453500	0.820384
	N255	N	0.917268	0.523763	0.819864
	N256	N	0.181916	0.904474	0.465228
	N257	N	0.182854	0.073822	0.539274
	N258	N	0.827635	0.073127	0.465786
	N259	N	0.826390	0.902120	0.538796
	N260	N	0.469588	0.169833	0.914418
	N261	N	0.541835	0.170971	0.089113
	N262	N	0.469840	0.811034	0.088574
	N263	N	0.539149	0.809804	0.912627
	N264	N	0.467671	0.907718	0.176967
	N265	N	0.541262	0.078471	0.181767
	N266	N	0.468740	0.077342	0.822531
	N267	N	0.539513	0.904140	0.822661
	N268	N	0.916197	0.170463	0.467749
	N269	N	0.095070	0.172168	0.536959
	N270	N	0.093997	0.806717	0.467440
	N271	N	0.916547	0.805651	0.537189
	N272	N	0.184816	0.452216	0.916628
	N273	N	0.185840	0.524540	0.088980
	N274	N	0.825836	0.453447	0.087572
	N275	N	0.825783	0.525294	0.914665
	O276	O	0.492070	0.513979	0.433856
	H277	H	0.477167	0.527857	0.421504
	H278	H	0.498110	0.487088	0.437811
	O279	O	0.418096	0.633690	0.506126
	H280	H	0.415389	0.634433	0.492990
	H281	H	0.412241	0.636078	0.501170
	O282	O	0.473067	0.431697	0.319499
	H283	H	0.470725	0.451607	0.320005
	H284	H	0.476400	0.444286	0.324714
	O285	O	0.805752	-0.126613	0.203370
	H286	H	0.789819	-0.101665	0.213890
	H287	H	0.819581	-0.116745	0.194702
	O288	O	-0.089538	-0.170246	0.971895
	H289	H	-0.099251	-0.180389	0.976351
	H290	H	-0.099876	-0.164901	0.972316
	O291	O	0.451038	0.356435	0.539779
	H292	H	0.455173	0.348821	0.525715
	H293	H	0.454297	0.346844	0.551962
	O294	O	0.490647	0.394859	0.511105
	H295	H	0.488328	0.387360	0.505555
	H296	H	0.496351	0.392468	0.500320
	O297	O	1.036148	0.786595	0.800683
	H298	H	1.031443	0.768690	0.777143
	H299	H	1.037445	0.786694	0.830124
	O300	O	0.176158	0.056565	0.177824
	H301	H	0.171200	0.044630	0.187039
	H302	H	0.179164	0.038003	0.169860
	O303	O	0.543122	0.638865	0.651541
	H304	H	0.528808	0.640706	0.651459
	H305	H	0.556708	0.653198	0.652381
	O306	O	1.016976	0.196527	0.206376
	H307	H	1.026993	0.209801	0.215236
	H308	H	1.019783	0.199520	0.199940
	O309	O	0.085122	-0.003000	1.190201
	H310	H	0.065086	-0.003485	1.193820
	H311	H	0.082984	-0.011238	1.182336
	O312	O	1.019495	0.864039	0.159679
	H313	H	1.005889	0.874171	0.145773
	H314	H	1.000128	0.852689	0.166202
	O315	O	-0.020827	0.108311	-0.064399
	H316	H	-0.005686	0.113832	-0.065171
	H317	H	-0.026218	0.121128	-0.066934
	O318	O	0.492231	0.391481	0.461273
	H319	H	0.486659	0.389463	0.457037
	H320	H	0.492140	0.378888	0.452716
	O321	O	1.194637	-0.009470	0.880872
	H322	H	1.176590	0.003704	0.878300
	H323	H	1.208075	0.007739	0.893230
	O324	O	-0.070666	0.010881	0.835164
	H325	H	-0.067171	0.003036	0.823176
	H326	H	-0.062297	0.006311	0.830286
	O327	O	0.153746	0.077784	-0.132930
	H328	H	0.147306	0.088769	-0.137116
	H329	H	0.156752	0.082359	-0.116146
	O330	O	0.007510	0.115489	0.102809
	H331	H	0.012137	0.118704	0.118732
	H332	H	0.019867	0.109765	0.100355
	O333	O	0.681652	1.491127	0.586343
	H334	H	0.691071	1.488680	0.596163
	H335	H	0.670545	1.475189	0.584927
	O336	O	0.480554	0.440521	0.577968
	H337	H	0.474736	0.457161	0.569788
	H338	H	0.467546	0.450194	0.569030
	O339	O	0.795773	0.120133	1.015881
	H340	H	0.782639	0.138284	1.011825
	H341	H	0.794039	0.106151	1.013138
	O342	O	0.499645	1.503523	0.599088
	H343	H	0.500891	1.494769	0.601572
	H344	H	0.483798	1.506554	0.594485
	O345	O	-0.081070	0.795248	1.193014
	H346	H	-0.067024	0.808161	1.186633
	H347	H	-0.079655	0.795266	1.210897
	O348	O	0.566797	0.501830	0.634689
	H349	H	0.556090	0.485636	0.661414
	H350	H	0.552226	0.514132	0.638495
	O351	O	0.196679	0.091397	0.092673
	H352	H	0.196462	0.067178	0.092487
	H353	H	0.187005	0.093022	0.110748
	O354	O	0.938192	1.189065	-0.182134
	H355	H	0.907043	1.169094	-0.169761
	H356	H	0.941995	1.214737	-0.207535
	O357	O	0.649025	1.400147	0.403310
	H358	H	0.652186	1.408506	0.406516
	H359	H	0.647519	1.409618	0.421188
	O360	O	0.525738	0.598150	0.430370
	H361	H	0.526816	0.593421	0.424030
	H362	H	0.526564	0.594667	0.438188
	O363	O	-0.053213	0.925403	0.972681
	H364	H	-0.049030	0.912298	0.985733
	H365	H	-0.057567	0.917899	0.958389
	O366	O	1.576331	1.356446	0.324606
	H367	H	1.585867	1.354309	0.330482
	H368	H	1.583324	1.352398	0.315257
	O369	O	0.375297	0.617117	0.410326
	H370	H	0.362035	0.632822	0.396820
	H371	H	0.400080	0.620918	0.406475
	O372	O	0.481624	0.573059	0.452767
	H373	H	0.486179	0.576494	0.471790
	H374	H	0.475166	0.558059	0.462416
	O375	O	0.429178	0.430873	0.654190
	H376	H	0.421044	0.443952	0.653556
	H377	H	0.422903	0.435501	0.655461
	O378	O	0.821784	0.176807	-0.123501
	H379	H	0.821897	0.176202	-0.104198
	H380	H	0.810038	0.164299	-0.123996
	O381	O	0.643677	0.536192	0.636781
	H382	H	0.639206	0.531111	0.642038
	H383	H	0.619168	0.536481	0.639600
	O384	O	0.195108	0.819392	0.950952
	H385	H	0.185561	0.838741	0.933009
	H386	H	0.217047	0.812740	0.930913
	O387	O	0.839928	1.035487	0.192810
	H388	H	0.864930	1.033460	0.178697
	H389	H	0.813166	1.037834	0.193036
	O390	O	0.340043	0.370770	0.510621
	H391	H	0.340035	0.351493	0.502734
	H392	H	0.352042	0.376954	0.487835
	O393	O	1.450890	0.484577	1.382200
	H394	H	1.450202	0.488175	1.366615
	H395	H	1.467415	0.473369	1.377452
	O396	O	0.028842	1.000428	0.939097
	H397	H	0.023078	0.996943	0.936804
	H398	H	0.015408	1.005614	0.931231
	O399	O	0.465109	0.585800	0.423530
	H400	H	0.453131	0.580978	0.416518
	H401	H	0.465831	0.580430	0.423216
	O402	O	0.824948	-0.019713	0.972228
	H403	H	0.828678	-0.033385	0.969737
	H404	H	0.827952	-0.025933	0.954820
	O405	O	0.186434	-0.157825	-0.131074
	H406	H	0.153580	-0.160426	-0.142500
	H407	H	0.191245	-0.127715	-0.136664
	O408	O	0.557637	1.618122	1.506565
	H409	H	0.573254	1.623281	1.508550
	H410	H	0.546142	1.623720	1.494661
	O411	O	1.100373	1.179035	0.059696
	H412	H	1.113181	1.193527	0.063417
	H413	H	1.082875	1.172334	0.077223
	O414	O	0.091521	-0.015162	1.006316
	H415	H	0.085465	-0.014987	1.008455
	H416	H	0.094979	-0.024892	0.993773
	O417	O	0.495960	0.481600	0.479439
	H418	H	0.495536	0.488042	0.462878
	H419	H	0.486319	0.483893	0.477497
	O420	O	-0.202858	1.009214	-0.206207
	H421	H	-0.177577	1.002070	-0.206525
	H422	H	-0.226288	1.003637	-0.235333
	O423	O	1.020514	-0.005958	-0.175860
	H424	H	1.040263	0.004818	-0.174971
	H425	H	1.027211	-0.011779	-0.175279
	O426	O	0.169196	-0.192061	1.141584
	H427	H	0.163658	-0.181042	1.125345
	H428	H	0.155288	-0.196329	1.123938
	O429	O	-0.211068	0.770401	0.025731
	H430	H	-0.224419	0.763403	0.049487
	H431	H	-0.224683	0.759729	0.049241
