data_Molecule from HDF5

_cell_length_a		16.082544
_cell_length_b		16.353766
_cell_length_c		16.186046
_cell_angle_alpha	90.144894
_cell_angle_beta	89.778375
_cell_angle_gamma	89.778059
_symmetry_space_group_name_H-M	'P 1'
_symmetry_Int_Tables_number		1

loop_
	_symmetry_equiv_pos_as_xyz
	x,y,z

loop_
	_atom_site_label
	_atom_site_type_symbol
	_atom_site_fract_x
	_atom_site_fract_y
	_atom_site_fract_z
	H0	H	0.401900	0.834359	0.717314
	H1	H	0.599116	0.161178	0.717352
	H2	H	0.603644	0.835146	0.285209
	H3	H	0.403279	0.161161	0.288681
	H4	H	0.715944	0.398915	0.835818
	H5	H	0.710638	0.592623	0.166753
	H6	H	0.289977	0.593472	0.835599
	H7	H	0.289057	0.402098	0.166163
	H8	H	0.836958	0.712922	0.401463
	H9	H	0.166163	0.712535	0.602661
	H10	H	0.836397	0.284375	0.601002
	H11	H	0.166696	0.282152	0.400304
	H12	H	0.835506	0.401674	0.713566
	H13	H	0.167444	0.593916	0.713173
	H14	H	0.835314	0.594499	0.291134
	H15	H	0.167304	0.399147	0.287542
	H16	H	0.398777	0.715054	0.837937
	H17	H	0.602380	0.712959	0.164663
	H18	H	0.603898	0.279398	0.837234
	H19	H	0.401453	0.283941	0.165567
	H20	H	0.716769	0.834662	0.404307
	H21	H	0.714217	0.162194	0.599129
	H22	H	0.286448	0.834838	0.600402
	H23	H	0.288255	0.161399	0.405566
	H24	H	0.901019	0.334756	0.217232
	H25	H	0.099669	0.660679	0.216911
	H26	H	0.101718	0.334231	0.784879
	H27	H	0.901470	0.661279	0.786601
	H28	H	0.215394	0.900176	0.336340
	H29	H	0.211234	0.093009	0.667469
	H30	H	0.791078	0.092825	0.335341
	H31	H	0.788222	0.901800	0.666348
	H32	H	0.336876	0.212971	0.900962
	H33	H	0.666567	0.210348	0.100094
	H34	H	0.336553	0.784462	0.102468
	H35	H	0.665872	0.781995	0.899376
	H36	H	0.336662	0.902019	0.215313
	H37	H	0.667960	0.094400	0.212271
	H38	H	0.335452	0.095122	0.790714
	H39	H	0.666635	0.897880	0.787774
	H40	H	0.901083	0.212522	0.337252
	H41	H	0.101967	0.213739	0.665001
	H42	H	0.103738	0.781054	0.337957
	H43	H	0.900237	0.782811	0.665171
	H44	H	0.218794	0.334456	0.900771
	H45	H	0.214561	0.661468	0.098795
	H46	H	0.787584	0.333659	0.097883
	H47	H	0.785741	0.661232	0.902899
	H48	H	0.415650	0.112149	0.596701
	H49	H	0.592843	0.883180	0.590908
	H50	H	0.605919	0.115079	0.418762
	H51	H	0.423963	0.887112	0.415191
	H52	H	0.589864	0.394813	0.119774
	H53	H	0.593528	0.584308	0.884915
	H54	H	0.416033	0.591712	0.116939
	H55	H	0.406760	0.410736	0.883892
	H56	H	0.117184	0.584760	0.415086
	H57	H	0.882021	0.596836	0.591099
	H58	H	0.121380	0.402078	0.595191
	H59	H	0.884949	0.405459	0.414469
	H60	H	0.120022	0.402187	0.590608
	H61	H	0.884761	0.587333	0.590723
	H62	H	0.121502	0.586307	0.401174
	H63	H	0.882409	0.407489	0.405703
	H64	H	0.406155	0.599230	0.121721
	H65	H	0.586952	0.595190	0.883519
	H66	H	0.602137	0.403392	0.121301
	H67	H	0.420149	0.402856	0.885835
	H68	H	0.600078	0.120287	0.393424
	H69	H	0.599621	0.880858	0.595016
	H70	H	0.402167	0.113246	0.590109
	H71	H	0.395197	0.879874	0.417209
	H72	H	0.905116	0.613179	0.093303
	H73	H	0.094174	0.381046	0.095132
	H74	H	0.100643	0.615575	0.905919
	H75	H	0.903957	0.382097	0.911955
	H76	H	0.089621	0.902223	0.618760
	H77	H	0.096608	0.093534	0.382524
	H78	H	0.905896	0.103028	0.623373
	H79	H	0.916326	0.909136	0.387101
	H80	H	0.619780	0.086415	0.909010
	H81	H	0.385466	0.087459	0.088441
	H82	H	0.622427	0.907415	0.103839
	H83	H	0.376959	0.898153	0.899189
	H84	H	0.623093	0.891535	0.090202
	H85	H	0.381199	0.087316	0.104319
	H86	H	0.621087	0.091039	0.908054
	H87	H	0.384579	0.898780	0.923645
	H88	H	0.901763	0.083545	0.618556
	H89	H	0.096594	0.087901	0.383514
	H90	H	0.095379	0.902769	0.620960
	H91	H	0.913030	0.894245	0.381836
	H92	H	0.089890	0.613757	0.903441
	H93	H	0.094189	0.381971	0.093409
	H94	H	0.903950	0.615806	0.098526
	H95	H	0.908476	0.379242	0.900590
	H96	H	0.403992	0.116781	0.605124
	H97	H	0.592714	0.881500	0.598855
	H98	H	0.581358	0.109729	0.409197
	H99	H	0.409271	0.876530	0.391916
	H100	H	0.589472	0.409190	0.115685
	H101	H	0.600184	0.594214	0.880339
	H102	H	0.403673	0.586808	0.117558
	H103	H	0.407270	0.395886	0.880533
	H104	H	0.121391	0.597277	0.411281
	H105	H	0.881726	0.591146	0.598988
	H106	H	0.119494	0.405776	0.592565
	H107	H	0.880725	0.399365	0.408198
	H108	H	0.909416	0.613295	0.097133
	H109	H	0.095255	0.381798	0.093964
	H110	H	0.093690	0.611161	0.914087
	H111	H	0.915818	0.384672	0.909213
	H112	H	0.093431	0.906958	0.617094
	H113	H	0.090969	0.091102	0.384447
	H114	H	0.919988	0.090412	0.615626
	H115	H	0.901927	0.905427	0.381410
	H116	H	0.618235	0.089931	0.913042
	H117	H	0.379731	0.101719	0.094876
	H118	H	0.616192	0.910521	0.083849
	H119	H	0.387310	0.918031	0.909565
	C120	C	0.379049	0.006061	0.625179
	C121	C	0.623394	0.989584	0.623923
	C122	C	0.624575	0.007175	0.378955
	C123	C	0.380783	0.989148	0.380501
	C124	C	0.623365	0.373898	0.009720
	C125	C	0.622043	0.618855	0.992037
	C126	C	0.379894	0.620328	0.009864
	C127	C	0.381645	0.376018	0.992418
	C128	C	0.010484	0.618272	0.380665
	C129	C	0.992636	0.619204	0.622257
	C130	C	0.010561	0.376013	0.621992
	C131	C	0.992413	0.375778	0.379882
	C132	C	0.878281	0.505957	0.124128
	C133	C	0.123289	0.489553	0.123147
	C134	C	0.124453	0.505849	0.878588
	C135	C	0.879937	0.489837	0.879036
	C136	C	0.123247	0.875350	0.510523
	C137	C	0.122611	0.119280	0.492642
	C138	C	0.880640	0.119648	0.509868
	C139	C	0.880738	0.875780	0.492410
	C140	C	0.510383	0.118083	0.881309
	C141	C	0.492566	0.118923	0.123016
	C142	C	0.510906	0.876322	0.122359
	C143	C	0.492247	0.875973	0.880635
	C144	C	0.381624	0.883306	0.679504
	C145	C	0.620327	0.112409	0.679411
	C146	C	0.622968	0.883795	0.323823
	C147	C	0.383374	0.112379	0.326506
	C148	C	0.678535	0.377688	0.885454
	C149	C	0.674891	0.614294	0.116942
	C150	C	0.325968	0.615753	0.885250
	C151	C	0.326665	0.380668	0.117030
	C152	C	0.886149	0.674526	0.381846
	C153	C	0.117147	0.674156	0.621378
	C154	C	0.885769	0.322200	0.620601
	C155	C	0.117246	0.320417	0.380810
	C156	C	0.885335	0.380455	0.676496
	C157	C	0.117652	0.615569	0.676640
	C158	C	0.885249	0.615813	0.326951
	C159	C	0.117638	0.378522	0.324785
	C160	C	0.380203	0.676058	0.886480
	C161	C	0.620844	0.674192	0.115828
	C162	C	0.623052	0.318113	0.886242
	C163	C	0.381895	0.321605	0.116349
	C164	C	0.679189	0.883410	0.382946
	C165	C	0.677510	0.112944	0.620613
	C166	C	0.324274	0.883474	0.621423
	C167	C	0.326155	0.112638	0.384697
	C168	C	0.881274	0.383163	0.178628
	C169	C	0.120309	0.612086	0.178714
	C170	C	0.122113	0.383017	0.822970
	C171	C	0.881396	0.612493	0.824110
	C172	C	0.178401	0.878537	0.385958
	C173	C	0.175460	0.115037	0.617614
	C174	C	0.826999	0.114845	0.385272
	C175	C	0.825752	0.880542	0.616971
	C176	C	0.385901	0.173971	0.882424
	C177	C	0.617237	0.172910	0.119871
	C178	C	0.386111	0.822425	0.121337
	C179	C	0.616543	0.820191	0.880592
	C180	C	0.386140	0.880548	0.177588
	C181	C	0.617901	0.115365	0.176124
	C182	C	0.385203	0.115742	0.827255
	C183	C	0.616920	0.877873	0.824969
	C184	C	0.881830	0.174344	0.386151
	C185	C	0.120820	0.174760	0.616323
	C186	C	0.123062	0.819472	0.386784
	C187	C	0.881230	0.821121	0.616250
	C188	C	0.180260	0.383021	0.880540
	C189	C	0.177083	0.612545	0.119615
	C190	C	0.824863	0.382660	0.119363
	C191	C	0.824035	0.612567	0.882045
	C192	C	0.400960	0.091977	0.603789
	C193	C	0.601662	0.903955	0.601460
	C194	C	0.602332	0.092739	0.400702
	C195	C	0.402930	0.903352	0.401782
	C196	C	0.600498	0.395768	0.096609
	C197	C	0.600105	0.597419	0.905213
	C198	C	0.402075	0.598972	0.096328
	C199	C	0.404635	0.396888	0.905883
	C200	C	0.097464	0.595953	0.402670
	C201	C	0.905430	0.598120	0.600102
	C202	C	0.097911	0.397105	0.599527
	C203	C	0.905212	0.397664	0.402761
	C204	C	0.900013	0.591857	0.102708
	C205	C	0.101288	0.403602	0.100691
	C206	C	0.101489	0.591339	0.901213
	C207	C	0.902676	0.404248	0.900662
	C208	C	0.099850	0.897465	0.596615
	C209	C	0.101012	0.097460	0.405990
	C210	C	0.902746	0.098732	0.596760
	C211	C	0.903638	0.896808	0.405795
	C212	C	0.597173	0.095639	0.903401
	C213	C	0.404830	0.098331	0.102080
	C214	C	0.598182	0.897107	0.099499
	C215	C	0.405450	0.898475	0.903888
	Zn216	Zn	0.501281	-0.002728	0.753902
	Zn217	Zn	0.502483	-0.001969	0.250422
	Zn218	Zn	0.750025	0.497734	0.000717
	Zn219	Zn	0.253274	0.497166	0.000964
	Zn220	Zn	0.001911	0.746277	0.501319
	Zn221	Zn	0.001565	0.247940	0.501264
	Zn222	Zn	0.001499	0.497928	0.749591
	Zn223	Zn	0.001047	0.497558	0.252673
	Zn224	Zn	0.501481	0.748111	0.000865
	Zn225	Zn	0.500948	0.246207	0.001544
	Zn226	Zn	0.753070	-0.001395	0.501641
	Zn227	Zn	0.250862	-0.002246	0.501958
	N228	N	0.415031	0.960602	0.681774
	N229	N	0.587455	0.034737	0.681524
	N230	N	0.589721	0.961473	0.321153
	N231	N	0.416458	0.034675	0.323621
	N232	N	0.678969	0.411673	0.963365
	N233	N	0.675654	0.580565	0.038971
	N234	N	0.325614	0.581714	0.962898
	N235	N	0.326165	0.413696	0.038953
	N236	N	0.965039	0.676165	0.414635
	N237	N	0.038266	0.676552	0.588388
	N238	N	0.964695	0.319466	0.587239
	N239	N	0.038473	0.318340	0.414068
	N240	N	0.964031	0.413089	0.677504
	N241	N	0.039377	0.581970	0.677084
	N242	N	0.963587	0.581617	0.325985
	N243	N	0.039056	0.412384	0.324166
	N244	N	0.412954	0.679049	0.964883
	N245	N	0.588518	0.677206	0.037190
	N246	N	0.589456	0.315851	0.964552
	N247	N	0.415488	0.318883	0.038084
	N248	N	0.680641	0.960731	0.416431
	N249	N	0.679636	0.035575	0.586925
	N250	N	0.322599	0.960790	0.588310
	N251	N	0.324311	0.035079	0.417649
	N252	N	0.913910	0.460902	0.181587
	N253	N	0.087457	0.534524	0.180765
	N254	N	0.088273	0.460402	0.821413
	N255	N	0.915304	0.535096	0.822117
	N256	N	0.178730	0.912835	0.463805
	N257	N	0.176772	0.081164	0.539674
	N258	N	0.826291	0.081677	0.463271
	N259	N	0.825496	0.913929	0.539014
	N260	N	0.464626	0.175443	0.915536
	N261	N	0.538210	0.175293	0.087634
	N262	N	0.464907	0.819670	0.087664
	N263	N	0.538064	0.818914	0.914576
	N264	N	0.464761	0.913346	0.178262
	N265	N	0.539255	0.082363	0.177987
	N266	N	0.463454	0.081529	0.826436
	N267	N	0.538642	0.912144	0.825104
	N268	N	0.914461	0.177408	0.464714
	N269	N	0.088905	0.177656	0.537529
	N270	N	0.089556	0.817250	0.465023
	N271	N	0.914810	0.818183	0.537998
	N272	N	0.181780	0.460293	0.914498
	N273	N	0.178827	0.535336	0.085633
	N274	N	0.822818	0.460132	0.086318
	N275	N	0.822961	0.535308	0.915615
	O276	O	1.038011	0.968173	0.011569
	H277	H	1.028298	0.979041	0.009275
	H278	H	1.042597	0.960580	0.010013
	O279	O	-0.013310	-0.024271	-0.031640
	H280	H	-0.018471	-0.034929	-0.033984
	H281	H	-0.014072	-0.026744	-0.029070
	O282	O	-0.065278	0.057270	0.956566
	H283	H	-0.059518	0.057520	0.958275
	H284	H	-0.068281	0.060227	0.945328
	O285	O	0.585097	0.521001	0.496076
	H286	H	0.585857	0.520128	0.490358
	H287	H	0.574704	0.521653	0.493892
	O288	O	0.483476	0.495840	0.489488
	H289	H	0.488356	0.491050	0.485143
	H290	H	0.488520	0.502671	0.499068
	O291	O	0.474990	0.555692	0.469076
	H292	H	0.473482	0.561227	0.460373
	H293	H	0.456789	0.559915	0.473771
	O294	O	-0.113520	0.015670	-0.019027
	H295	H	-0.105966	0.021601	-0.029586
	H296	H	-0.116063	0.022194	-0.021936
	O297	O	0.437470	0.513772	0.447447
	H298	H	0.431907	0.507588	0.450175
	H299	H	0.439108	0.516123	0.443889
	O300	O	0.002947	1.009727	0.962824
	H301	H	-0.004417	1.009144	0.963718
	H302	H	0.002729	1.002175	0.961777
	O303	O	0.518309	0.532350	0.499054
	H304	H	0.522354	0.530921	0.499110
	H305	H	0.514578	0.529240	0.495755
	O306	O	0.001276	-0.068317	0.967906
	H307	H	0.013787	-0.068131	0.977952
	H308	H	-0.007032	-0.060347	0.974596
	O309	O	1.038128	0.997911	1.017393
	H310	H	1.031802	0.999780	1.034697
	H311	H	1.042171	0.992541	1.016845
	O312	O	0.528578	0.523365	0.519714
	H313	H	0.529678	0.520236	0.516995
	H314	H	0.537159	0.526302	0.516676
	O315	O	0.498507	0.499986	0.527989
	H316	H	0.503211	0.501991	0.529736
	H317	H	0.500939	0.508976	0.529005
	O318	O	-0.013257	0.983390	0.007742
	H319	H	-0.009610	0.985699	-0.002250
	H320	H	-0.014974	0.981638	0.002081
	O321	O	1.013607	0.933773	-0.084888
	H322	H	1.019454	0.924621	-0.082049
	H323	H	1.014760	0.926078	-0.089367
