data_Molecule from HDF5

_cell_length_a		16.548503
_cell_length_b		16.648309
_cell_length_c		16.694778
_cell_angle_alpha	89.919829
_cell_angle_beta	89.895377
_cell_angle_gamma	90.038471
_symmetry_space_group_name_H-M	'P 1'
_symmetry_Int_Tables_number		1

loop_
	_symmetry_equiv_pos_as_xyz
	x,y,z

loop_
	_atom_site_label
	_atom_site_type_symbol
	_atom_site_fract_x
	_atom_site_fract_y
	_atom_site_fract_z
	H0	H	0.386325	0.837256	0.725487
	H1	H	0.603500	0.143897	0.727148
	H2	H	0.604328	0.839671	0.276408
	H3	H	0.386068	0.145343	0.277827
	H4	H	0.714281	0.389539	0.846472
	H5	H	0.714041	0.595677	0.157030
	H6	H	0.272966	0.597597	0.847239
	H7	H	0.274928	0.389453	0.158651
	H8	H	0.838602	0.714191	0.397720
	H9	H	0.150004	0.714556	0.608532
	H10	H	0.841038	0.267822	0.612298
	H11	H	0.148718	0.271373	0.397485
	H12	H	0.839632	0.386414	0.725351
	H13	H	0.149519	0.600367	0.725235
	H14	H	0.838513	0.598860	0.280790
	H15	H	0.149274	0.387810	0.281842
	H16	H	0.387848	0.714706	0.847738
	H17	H	0.599607	0.714813	0.156065
	H18	H	0.598855	0.272155	0.847056
	H19	H	0.389801	0.270873	0.156786
	H20	H	0.718980	0.838835	0.393920
	H21	H	0.718055	0.145070	0.609748
	H22	H	0.273322	0.835859	0.606930
	H23	H	0.273514	0.147555	0.397993
	H24	H	0.886685	0.338208	0.225172
	H25	H	0.100944	0.646206	0.225928
	H26	H	0.101119	0.338648	0.780221
	H27	H	0.887460	0.646919	0.778705
	H28	H	0.215371	0.887618	0.347519
	H29	H	0.216220	0.096819	0.656523
	H30	H	0.770505	0.099970	0.349657
	H31	H	0.770189	0.885362	0.655987
	H32	H	0.338714	0.215057	0.896322
	H33	H	0.650497	0.213064	0.106632
	H34	H	0.338361	0.770843	0.108178
	H35	H	0.649677	0.771275	0.896906
	H36	H	0.339240	0.886419	0.224259
	H37	H	0.647686	0.101137	0.226055
	H38	H	0.339811	0.101240	0.778398
	H39	H	0.648987	0.887320	0.780603
	H40	H	0.886337	0.216236	0.350420
	H41	H	0.102204	0.215750	0.655537
	H42	H	0.099254	0.770621	0.348167
	H43	H	0.886591	0.768465	0.656467
	H44	H	0.214612	0.336788	0.898509
	H45	H	0.215619	0.647440	0.108198
	H46	H	0.773540	0.336399	0.106305
	H47	H	0.772321	0.647418	0.896718
	H48	H	0.407273	0.102405	0.592338
	H49	H	0.581909	0.879542	0.593463
	H50	H	0.583289	0.101740	0.418670
	H51	H	0.403525	0.878901	0.409433
	H52	H	0.592542	0.402892	0.116573
	H53	H	0.585123	0.579368	0.889768
	H54	H	0.407406	0.586283	0.114166
	H55	H	0.404200	0.395231	0.887945
	H56	H	0.106141	0.581430	0.412848
	H57	H	0.881847	0.586257	0.587172
	H58	H	0.108125	0.405328	0.595591
	H59	H	0.883302	0.407195	0.417475
	H60	H	0.107345	0.399107	0.587630
	H61	H	0.886322	0.574082	0.586730
	H62	H	0.105876	0.581688	0.414877
	H63	H	0.879383	0.404575	0.409547
	H64	H	0.400246	0.580153	0.114487
	H65	H	0.579038	0.579103	0.892707
	H66	H	0.579194	0.408205	0.111052
	H67	H	0.397455	0.407141	0.889919
	H68	H	0.582262	0.103437	0.411095
	H69	H	0.577344	0.882094	0.590205
	H70	H	0.405692	0.102188	0.589083
	H71	H	0.410584	0.881472	0.411800
	H72	H	0.905059	0.603696	0.092719
	H73	H	0.080874	0.382455	0.090144
	H74	H	0.082618	0.603809	0.916405
	H75	H	0.903806	0.378846	0.907948
	H76	H	0.080857	0.903560	0.612925
	H77	H	0.074574	0.078736	0.394966
	H78	H	0.911226	0.081896	0.612125
	H79	H	0.902804	0.900944	0.389984
	H80	H	0.605810	0.080797	0.915890
	H81	H	0.382325	0.078163	0.092055
	H82	H	0.607196	0.902718	0.091824
	H83	H	0.379758	0.901084	0.910870
	H84	H	0.605878	0.902802	0.087514
	H85	H	0.381654	0.081821	0.089833
	H86	H	0.604590	0.078038	0.913264
	H87	H	0.382631	0.901517	0.918122
	H88	H	0.902193	0.080430	0.615253
	H89	H	0.083298	0.091670	0.387497
	H90	H	0.083358	0.900551	0.614677
	H91	H	0.907237	0.909420	0.393668
	H92	H	0.083628	0.605012	0.911640
	H93	H	0.087635	0.378963	0.092371
	H94	H	0.906055	0.604204	0.091597
	H95	H	0.911776	0.383545	0.913535
	H96	H	0.404386	0.104197	0.591797
	H97	H	0.582665	0.881158	0.587899
	H98	H	0.576440	0.099961	0.414557
	H99	H	0.404161	0.881241	0.417013
	H100	H	0.580126	0.393222	0.114972
	H101	H	0.581188	0.585338	0.890812
	H102	H	0.408875	0.577696	0.110640
	H103	H	0.410583	0.405831	0.893575
	H104	H	0.105132	0.579611	0.413909
	H105	H	0.880891	0.578781	0.597543
	H106	H	0.103516	0.409002	0.587511
	H107	H	0.880758	0.398675	0.416185
	H108	H	0.904458	0.603706	0.091323
	H109	H	0.081343	0.379273	0.097134
	H110	H	0.079441	0.602617	0.912935
	H111	H	0.901863	0.381843	0.917793
	H112	H	0.084719	0.904392	0.614266
	H113	H	0.091105	0.076423	0.390100
	H114	H	0.907385	0.073144	0.610677
	H115	H	0.912341	0.900946	0.392901
	H116	H	0.606727	0.081312	0.911809
	H117	H	0.384174	0.078846	0.088206
	H118	H	0.605539	0.906917	0.089848
	H119	H	0.382284	0.907807	0.913613
	C120	C	0.372628	0.000551	0.623940
	C121	C	0.614189	0.982974	0.623215
	C122	C	0.615200	0.000491	0.380742
	C123	C	0.373117	0.983097	0.380561
	C124	C	0.615579	0.370604	0.011133
	C125	C	0.614522	0.613345	0.993474
	C126	C	0.372484	0.613844	0.010855
	C127	C	0.372741	0.371124	0.993437
	C128	C	0.002468	0.613405	0.381621
	C129	C	0.985821	0.613302	0.623327
	C130	C	0.003230	0.371588	0.623545
	C131	C	0.984576	0.371946	0.382330
	C132	C	0.872473	0.501203	0.123818
	C133	C	0.115401	0.483386	0.124787
	C134	C	0.114902	0.501248	0.881759
	C135	C	0.872955	0.484074	0.880502
	C136	C	0.115240	0.871019	0.511199
	C137	C	0.115994	0.114117	0.493264
	C138	C	0.872980	0.112802	0.511623
	C139	C	0.872965	0.870331	0.493692
	C140	C	0.502833	0.113682	0.880674
	C141	C	0.485500	0.112846	0.122686
	C142	C	0.503154	0.871394	0.122611
	C143	C	0.485043	0.871400	0.881557
	C144	C	0.369025	0.883841	0.684818
	C145	C	0.619769	0.098210	0.685538
	C146	C	0.620928	0.885513	0.318000
	C147	C	0.369032	0.099453	0.319284
	C148	C	0.674679	0.370186	0.893510
	C149	C	0.674324	0.614921	0.110458
	C150	C	0.312767	0.616010	0.893969
	C151	C	0.314397	0.370367	0.111331
	C152	C	0.885197	0.673853	0.379293
	C153	C	0.103118	0.674440	0.626591
	C154	C	0.887078	0.309333	0.628862
	C155	C	0.102129	0.311865	0.379691
	C156	C	0.886576	0.367742	0.685539
	C157	C	0.102785	0.617646	0.684664
	C158	C	0.885232	0.616617	0.321343
	C159	C	0.102351	0.369531	0.322151
	C160	C	0.369974	0.674164	0.894227
	C161	C	0.617452	0.673927	0.109899
	C162	C	0.616932	0.312196	0.893473
	C163	C	0.371363	0.311589	0.110663
	C164	C	0.677793	0.884936	0.376534
	C165	C	0.676673	0.098654	0.627023
	C166	C	0.312881	0.882975	0.625734
	C167	C	0.313069	0.100317	0.378878
	C168	C	0.868944	0.384487	0.184668
	C169	C	0.118596	0.599898	0.185283
	C170	C	0.118498	0.384781	0.821103
	C171	C	0.869534	0.600515	0.819548
	C172	C	0.175379	0.868826	0.394255
	C173	C	0.176312	0.115774	0.609896
	C174	C	0.811532	0.117113	0.395740
	C175	C	0.811093	0.867139	0.609865
	C176	C	0.385558	0.174685	0.878084
	C177	C	0.603027	0.173454	0.125214
	C178	C	0.385394	0.811077	0.126134
	C179	C	0.602631	0.811252	0.878566
	C180	C	0.385856	0.868541	0.183716
	C181	C	0.602017	0.117666	0.184479
	C182	C	0.385903	0.118118	0.819636
	C183	C	0.602313	0.868828	0.820857
	C184	C	0.869097	0.174901	0.396232
	C185	C	0.119604	0.174597	0.609396
	C186	C	0.117563	0.810988	0.394436
	C187	C	0.868841	0.809255	0.610050
	C188	C	0.174827	0.383908	0.879973
	C189	C	0.175694	0.600443	0.126848
	C190	C	0.812752	0.383641	0.125557
	C191	C	0.812381	0.600871	0.878201
	C192	C	0.398499	0.081833	0.598458
	C193	C	0.587874	0.901863	0.597631
	C194	C	0.588166	0.080786	0.407279
	C195	C	0.398865	0.901684	0.405609
	C196	C	0.590993	0.394525	0.093029
	C197	C	0.589162	0.588259	0.912361
	C198	C	0.398192	0.588577	0.092139
	C199	C	0.397120	0.395613	0.911719
	C200	C	0.084455	0.588051	0.406669
	C201	C	0.904404	0.587105	0.597716
	C202	C	0.084896	0.397387	0.597600
	C203	C	0.902598	0.396738	0.407373
	C204	C	0.897861	0.582802	0.098942
	C205	C	0.090407	0.401636	0.100194
	C206	C	0.089203	0.582668	0.906478
	C207	C	0.898478	0.402574	0.905871
	C208	C	0.090210	0.895707	0.592721
	C209	C	0.090292	0.089309	0.411998
	C210	C	0.899364	0.086105	0.591767
	C211	C	0.899781	0.896464	0.413247
	C212	C	0.584272	0.087597	0.906285
	C213	C	0.403887	0.086862	0.097216
	C214	C	0.584856	0.896780	0.096988
	C215	C	0.402958	0.896531	0.906844
	Zn216	Zn	0.493335	-0.007659	0.752887
	Zn217	Zn	0.494680	-0.007634	0.251621
	Zn218	Zn	0.744103	0.492375	0.002298
	Zn219	Zn	0.243632	0.492576	0.002385
	Zn220	Zn	-0.005398	0.741621	0.502794
	Zn221	Zn	-0.006193	0.242496	0.503225
	Zn222	Zn	-0.004917	0.492717	0.751664
	Zn223	Zn	-0.006654	0.492068	0.252872
	Zn224	Zn	0.493850	0.742817	0.002109
	Zn225	Zn	0.494164	0.241630	0.002132
	Zn226	Zn	0.743947	-0.008286	0.502266
	Zn227	Zn	0.244538	-0.008310	0.502002
	N228	N	0.405342	0.958037	0.684015
	N229	N	0.581555	0.025242	0.683302
	N230	N	0.582893	0.958493	0.320380
	N231	N	0.405433	0.025546	0.320065
	N232	N	0.674213	0.405559	0.967754
	N233	N	0.672637	0.577993	0.037135
	N234	N	0.314001	0.579199	0.967637
	N235	N	0.314773	0.406445	0.037373
	N236	N	0.959243	0.672058	0.416093
	N237	N	0.029190	0.672266	0.589413
	N238	N	0.960782	0.311281	0.591346
	N239	N	0.027716	0.312746	0.416173
	N240	N	0.960154	0.405678	0.682594
	N241	N	0.028755	0.580430	0.682992
	N242	N	0.959336	0.579826	0.322511
	N243	N	0.028142	0.406025	0.323427
	N244	N	0.406252	0.673079	0.968116
	N245	N	0.581001	0.673202	0.036170
	N246	N	0.581243	0.311986	0.967738
	N247	N	0.406687	0.311612	0.036257
	N248	N	0.674653	0.957631	0.414822
	N249	N	0.673322	0.025836	0.588741
	N250	N	0.314590	0.956613	0.588616
	N251	N	0.315334	0.026819	0.416234
	N252	N	0.905182	0.458714	0.184039
	N253	N	0.082080	0.525937	0.184225
	N254	N	0.082025	0.458649	0.821984
	N255	N	0.906457	0.526741	0.820714
	N256	N	0.174225	0.905280	0.467848
	N257	N	0.174390	0.078655	0.536484
	N258	N	0.813807	0.079132	0.468533
	N259	N	0.813354	0.904250	0.536447
	N260	N	0.459236	0.172168	0.915441
	N261	N	0.529549	0.170684	0.087513
	N262	N	0.459382	0.812482	0.088946
	N263	N	0.528476	0.812576	0.915519
	N264	N	0.460192	0.905290	0.181905
	N265	N	0.527938	0.080683	0.183153
	N266	N	0.459836	0.080871	0.821083
	N267	N	0.528129	0.905410	0.822592
	N268	N	0.906429	0.172859	0.469338
	N269	N	0.083084	0.173839	0.535752
	N270	N	0.081115	0.812009	0.468332
	N271	N	0.906424	0.810781	0.536768
	N272	N	0.173007	0.457545	0.916998
	N273	N	0.174016	0.526833	0.089860
	N274	N	0.814613	0.457268	0.088481
	N275	N	0.814390	0.527327	0.915320
	O276	O	-0.062041	0.934347	-0.233836
	H277	H	-0.064015	0.940258	-0.235544
	H278	H	-0.075589	0.946163	-0.232140
	O279	O	0.714502	0.715881	0.530775
	H280	H	0.714454	0.709269	0.553687
	H281	H	0.738646	0.735427	0.534417
	O282	O	0.815783	0.170979	1.169363
	H283	H	0.829970	0.151037	1.158029
	H284	H	0.835754	0.153525	1.157297
	O285	O	0.653473	0.537801	0.463728
	H286	H	0.642663	0.543206	0.483897
	H287	H	0.636059	0.536918	0.466985
	O288	O	0.699424	0.701802	0.712193
	H289	H	0.706185	0.668918	0.699376
	H290	H	0.734074	0.732345	0.743273
	O291	O	0.344572	0.608419	0.708780
	H292	H	0.354991	0.600414	0.703916
	H293	H	0.332337	0.614245	0.720643
	O294	O	0.964098	-0.001727	1.074931
	H295	H	0.956753	-0.020813	1.073723
	H296	H	0.963624	0.009337	1.077358
	O297	O	0.514547	0.606903	0.394384
	H298	H	0.512978	0.603545	0.385720
	H299	H	0.516221	0.610253	0.402775
	O300	O	-0.033711	0.204957	0.783297
	H301	H	-0.048308	0.210100	0.789081
	H302	H	-0.047563	0.221686	0.776019
	O303	O	0.395229	0.437823	0.306201
	H304	H	0.409677	0.436776	0.306528
	H305	H	0.390728	0.442025	0.312753
	O306	O	0.518611	0.508852	0.445780
	H307	H	0.505459	0.514034	0.449977
	H308	H	0.512700	0.509702	0.439790
	O309	O	0.522408	0.713811	0.727021
	H310	H	0.556938	0.721647	0.732313
	H311	H	0.535343	0.725459	0.747757
	O312	O	0.619230	0.578822	0.564977
	H313	H	0.608514	0.570708	0.571442
	H314	H	0.603888	0.575632	0.564425
	O315	O	1.206773	1.069761	0.951596
	H316	H	1.213688	1.079112	0.956528
	H317	H	1.209314	1.047167	0.962386
	O318	O	0.465891	0.717029	0.280849
	H319	H	0.466994	0.734541	0.271245
	H320	H	0.461823	0.720656	0.282473
	O321	O	0.217347	0.964145	0.785975
	H322	H	0.234635	0.966154	0.761665
	H323	H	0.206140	0.964718	0.790182
	O324	O	0.969892	0.771993	0.219801
	H325	H	0.970453	0.754327	0.224023
	H326	H	0.974955	0.770974	0.219099
	O327	O	0.048907	-0.070628	1.021642
	H328	H	0.039837	-0.071515	1.010671
	H329	H	0.064014	-0.070018	1.030582
	O330	O	0.536525	0.491324	0.521642
	H331	H	0.536734	0.492829	0.517003
	H332	H	0.534575	0.503131	0.526600
	O333	O	0.477230	0.272930	0.716405
	H334	H	0.472110	0.258407	0.713839
	H335	H	0.467323	0.268210	0.721857
	O336	O	0.694366	0.283346	0.296381
	H337	H	0.702718	0.320053	0.302540
	H338	H	0.725331	0.267318	0.268461
	O339	O	1.058292	0.175977	0.974426
	H340	H	1.065513	0.181013	0.975400
	H341	H	1.058272	0.173195	0.991281
	O342	O	-0.067619	-0.236028	-0.061690
	H343	H	-0.061905	-0.229305	-0.046564
	H344	H	-0.072139	-0.219303	-0.057834
	O345	O	0.087351	0.992441	1.145236
	H346	H	0.086725	0.978685	1.128364
	H347	H	0.085674	0.983776	1.152159
	O348	O	0.201154	0.204816	0.209685
	H349	H	0.206248	0.180494	0.192779
	H350	H	0.235434	0.235888	0.242089
	O351	O	0.978489	0.962386	0.239660
	H352	H	0.978575	0.970056	0.240719
	H353	H	1.000027	0.960754	0.234238
	O354	O	0.058141	0.048519	0.774200
	H355	H	0.044190	0.060028	0.773514
	H356	H	0.051072	0.048205	0.780519
	O357	O	0.598883	0.492486	0.413552
	H358	H	0.581725	0.494763	0.429609
	H359	H	0.596115	0.481561	0.408187
	O360	O	0.385612	0.414113	0.713864
	H361	H	0.361168	0.408854	0.732472
	H362	H	0.402890	0.400820	0.711926
	O363	O	-0.232411	-0.067912	-0.059291
	H364	H	-0.235112	-0.076834	-0.049209
	H365	H	-0.232055	-0.061203	-0.047587
	O366	O	0.345084	0.675789	0.322023
	H367	H	0.362243	0.663055	0.313273
	H368	H	0.338531	0.658678	0.344620
	O369	O	0.806535	-0.015502	0.068639
	H370	H	0.815318	-0.024720	0.091501
	H371	H	0.802229	-0.016507	0.074304
	O372	O	0.815102	0.812804	0.182417
	H373	H	0.836288	0.811009	0.173702
	H374	H	0.795027	0.790198	0.203076
	O375	O	0.853306	0.051533	0.002766
	H376	H	0.842839	0.077930	-0.015835
	H377	H	0.845362	0.043913	0.018394
	O378	O	0.528835	0.659958	0.542101
	H379	H	0.537543	0.671570	0.562299
	H380	H	0.517934	0.656318	0.553071
	O381	O	0.020886	0.779591	0.786340
	H382	H	0.011655	0.785223	0.800851
	H383	H	0.016254	0.764669	0.768814
	O384	O	0.779598	-0.223741	1.025538
	H385	H	0.772536	-0.239429	1.026154
	H386	H	0.779658	-0.220482	1.048095
	O387	O	1.196891	0.788519	-0.204206
	H388	H	1.170819	0.790174	-0.207639
	H389	H	1.190731	0.809990	-0.192661
	O390	O	0.504483	0.306255	0.505204
	H391	H	0.498300	0.305318	0.508116
	H392	H	0.513627	0.301194	0.500827
	O393	O	0.712257	0.524762	0.721102
	H394	H	0.732759	0.519558	0.737721
	H395	H	0.707230	0.529916	0.715301
	O396	O	0.545556	0.452357	0.672609
	H397	H	0.544390	0.451529	0.668916
	H398	H	0.532365	0.455179	0.674111
	O399	O	0.151102	0.186165	0.832384
	H400	H	0.131860	0.170323	0.829669
	H401	H	0.144188	0.173835	0.854442
	O402	O	0.303474	0.300093	0.309764
	H403	H	0.328624	0.313652	0.324848
	H404	H	0.315962	0.317962	0.335771
	O405	O	0.784872	0.013701	0.781973
	H406	H	0.770944	0.016446	0.787999
	H407	H	0.771846	0.043882	0.780302
	O408	O	0.212733	0.025450	0.223704
	H409	H	0.228867	0.027635	0.237903
	H410	H	0.215357	0.025035	0.216559
	O411	O	0.804372	0.800411	0.809342
	H412	H	0.823877	0.819611	0.825535
	H413	H	0.820497	0.818075	0.830590
	O414	O	0.684044	0.300739	0.693582
	H415	H	0.680058	0.313107	0.666274
	H416	H	0.655566	0.317578	0.689192
	O417	O	0.487872	0.266727	0.327531
	H418	H	0.495155	0.266754	0.309733
	H419	H	0.521637	0.268540	0.323841
	O420	O	0.281203	0.432156	0.533155
	H421	H	0.277316	0.431881	0.553115
	H422	H	0.279988	0.430596	0.547253
	O423	O	0.216022	-0.199960	0.991697
	H424	H	0.232481	-0.201162	0.990744
	H425	H	0.218950	-0.205397	0.984929
	O426	O	0.616663	0.277444	0.448941
	H427	H	0.611930	0.295505	0.450040
	H428	H	0.641337	0.262502	0.425710
	O429	O	1.059978	0.916175	0.924551
	H430	H	1.057723	0.915636	0.933254
	H431	H	1.054530	0.919851	0.924474
	O432	O	0.529287	0.444386	0.506768
	H433	H	0.526225	0.422746	0.502466
	H434	H	0.521564	0.464279	0.499166
	O435	O	0.175369	0.939167	0.134599
	H436	H	0.157404	0.946214	0.142464
	H437	H	0.174727	0.938396	0.130606
	O438	O	0.262941	0.265499	-0.268660
	H439	H	0.276188	0.265059	-0.279151
	H440	H	0.231563	0.235973	-0.242012
	O441	O	0.051846	0.025934	0.071391
	H442	H	0.057165	0.032083	0.066348
	H443	H	0.048345	0.007743	0.070793
	O444	O	0.278709	0.531278	0.288225
	H445	H	0.263262	0.527082	0.281330
	H446	H	0.272940	0.519652	0.296109
	O447	O	-0.055822	1.194726	1.101204
	H448	H	-0.052435	1.201539	1.126027
	H449	H	-0.052590	1.180490	1.101264
	O450	O	-0.025786	1.071205	0.936356
	H451	H	-0.023667	1.083822	0.933586
	H452	H	-0.016941	1.064200	0.951865
	O453	O	0.295973	0.498000	0.541241
	H454	H	0.297733	0.492618	0.561145
	H455	H	0.293211	0.518550	0.556983
	O456	O	0.271338	0.273615	0.529697
	H457	H	0.274553	0.267149	0.544587
	H458	H	0.258420	0.247703	0.536903
	O459	O	0.780536	0.991768	0.211962
	H460	H	0.804996	0.979889	0.220650
	H461	H	0.758180	0.964391	0.235978
	O462	O	0.682398	0.474635	0.277415
	H463	H	0.691510	0.482474	0.283275
	H464	H	0.689793	0.489808	0.274528
	O465	O	0.717112	-0.286066	0.279423
	H466	H	0.713232	-0.303351	0.295850
	H467	H	0.698941	-0.301205	0.295280
	O468	O	0.364256	0.664203	0.548499
	H469	H	0.357350	0.659559	0.564078
	H470	H	0.378097	0.664298	0.556591
	O471	O	0.438181	0.431495	0.523050
	H472	H	0.434114	0.432719	0.517928
	H473	H	0.437244	0.430574	0.531350
	O474	O	0.212092	0.769529	0.222593
	H475	H	0.224176	0.758371	0.227065
	H476	H	0.214886	0.771464	0.237123
	O477	O	0.352992	0.586574	1.708719
	H478	H	0.363969	0.561414	1.705480
	H479	H	0.343509	0.603322	1.732755
	O480	O	0.719418	0.346135	0.519718
	H481	H	0.723695	0.346241	0.510115
	H482	H	0.710073	0.338871	0.503152
	O483	O	0.572660	0.460489	0.301897
	H484	H	0.580998	0.469196	0.299103
	H485	H	0.577720	0.450424	0.306709
	O486	O	0.784830	0.196618	0.792472
	H487	H	0.757122	0.229029	0.768269
	H488	H	0.793166	0.193969	0.820879
	O489	O	1.045445	0.756615	0.063073
	H490	H	1.053644	0.759990	0.056340
	H491	H	1.050865	0.751972	0.054050
	O492	O	0.216937	0.215272	0.041208
	H493	H	0.219275	0.218598	0.054622
	H494	H	0.239116	0.229588	0.042720
	O495	O	0.012199	1.214231	1.214908
	H496	H	0.034110	1.216157	1.218886
	H497	H	0.032427	1.226748	1.232638
	O498	O	0.770239	1.215413	0.962095
	H499	H	0.781307	1.226590	0.961809
	H500	H	0.747945	1.230318	0.965763
	O501	O	0.274518	0.711013	0.468575
	H502	H	0.272420	0.717855	0.460213
	H503	H	0.268356	0.728091	0.472800
