data_Molecule from HDF5

_cell_length_a		16.411811
_cell_length_b		15.848936
_cell_length_c		16.333193
_cell_angle_alpha	90.238222
_cell_angle_beta	89.573468
_cell_angle_gamma	88.838853
_symmetry_space_group_name_H-M	'P 1'
_symmetry_Int_Tables_number		1

loop_
	_symmetry_equiv_pos_as_xyz
	x,y,z

loop_
	_atom_site_label
	_atom_site_type_symbol
	_atom_site_fract_x
	_atom_site_fract_y
	_atom_site_fract_z
	H0	H	0.391940	0.829939	0.705183
	H1	H	0.587324	0.162501	0.708542
	H2	H	0.595083	0.831394	0.277311
	H3	H	0.388446	0.165250	0.282038
	H4	H	0.715106	0.387409	0.830178
	H5	H	0.707682	0.597948	0.154141
	H6	H	0.270697	0.605520	0.832434
	H7	H	0.272407	0.393034	0.152655
	H8	H	0.827829	0.714621	0.396612
	H9	H	0.154947	0.705119	0.584283
	H10	H	0.825400	0.291729	0.587998
	H11	H	0.152548	0.276764	0.391798
	H12	H	0.831313	0.397632	0.713581
	H13	H	0.150418	0.602587	0.710858
	H14	H	0.831088	0.604631	0.273668
	H15	H	0.152382	0.389040	0.271805
	H16	H	0.393903	0.710968	0.828300
	H17	H	0.582269	0.706342	0.157302
	H18	H	0.593288	0.279031	0.828833
	H19	H	0.402149	0.292023	0.158581
	H20	H	0.708850	0.831876	0.389183
	H21	H	0.699572	0.164546	0.593029
	H22	H	0.279936	0.830605	0.591938
	H23	H	0.270360	0.161656	0.389691
	H24	H	0.895067	0.330070	0.205959
	H25	H	0.087756	0.662702	0.205257
	H26	H	0.097938	0.331826	0.773546
	H27	H	0.890506	0.665144	0.782809
	H28	H	0.214431	0.889718	0.331361
	H29	H	0.205874	0.100971	0.653666
	H30	H	0.769494	0.104379	0.330330
	H31	H	0.771898	0.894784	0.651826
	H32	H	0.327260	0.213643	0.900387
	H33	H	0.656003	0.203227	0.086998
	H34	H	0.325632	0.789502	0.087618
	H35	H	0.653027	0.780387	0.896050
	H36	H	0.329379	0.898757	0.212342
	H37	H	0.651536	0.097633	0.210592
	H38	H	0.328595	0.103724	0.775959
	H39	H	0.650141	0.887311	0.770858
	H40	H	0.893177	0.211943	0.327882
	H41	H	0.081434	0.208459	0.656388
	H42	H	0.091358	0.781077	0.328463
	H43	H	0.898559	0.790191	0.656647
	H44	H	0.211854	0.331697	0.888723
	H45	H	0.199945	0.664425	0.089727
	H46	H	0.782274	0.328872	0.092963
	H47	H	0.772841	0.661039	0.891626
	H48	H	0.383664	0.122056	0.586988
	H49	H	0.589595	0.876903	0.576654
	H50	H	0.581780	0.118330	0.401626
	H51	H	0.404053	0.877611	0.399582
	H52	H	0.590300	0.403843	0.108328
	H53	H	0.591882	0.586260	0.874373
	H54	H	0.393781	0.587097	0.107948
	H55	H	0.395564	0.398810	0.871533
	H56	H	0.107010	0.584610	0.394346
	H57	H	0.875297	0.592880	0.584994
	H58	H	0.108242	0.400212	0.585408
	H59	H	0.869041	0.404642	0.383303
	H60	H	0.104761	0.403718	0.577717
	H61	H	0.874962	0.589123	0.590171
	H62	H	0.108193	0.586499	0.395612
	H63	H	0.876488	0.399709	0.408174
	H64	H	0.397046	0.590496	0.109040
	H65	H	0.585389	0.577867	0.878337
	H66	H	0.589715	0.402154	0.108721
	H67	H	0.396057	0.416504	0.877060
	H68	H	0.579721	0.118902	0.398373
	H69	H	0.582139	0.875669	0.586651
	H70	H	0.405274	0.116389	0.592930
	H71	H	0.404792	0.878359	0.402658
	H72	H	0.891777	0.617263	0.081096
	H73	H	0.086369	0.377379	0.077926
	H74	H	0.078229	0.615408	0.902815
	H75	H	0.910473	0.379270	0.902119
	H76	H	0.081390	0.912710	0.603656
	H77	H	0.078809	0.075735	0.380901
	H78	H	0.894653	0.090982	0.607463
	H79	H	0.907870	0.911898	0.378863
	H80	H	0.606605	0.092239	0.902485
	H81	H	0.377254	0.087513	0.086091
	H82	H	0.607095	0.899335	0.085355
	H83	H	0.369441	0.899050	0.894181
	H84	H	0.605082	0.904578	0.084412
	H85	H	0.372114	0.093261	0.097332
	H86	H	0.601347	0.074245	0.902291
	H87	H	0.375676	0.907775	0.904850
	H88	H	0.891274	0.094849	0.609486
	H89	H	0.078525	0.092829	0.375105
	H90	H	0.082803	0.893582	0.610660
	H91	H	0.898429	0.897263	0.372203
	H92	H	0.084510	0.618125	0.902042
	H93	H	0.087602	0.375669	0.082718
	H94	H	0.898895	0.617215	0.088463
	H95	H	0.901510	0.376378	0.903741
	H96	H	0.399178	0.112759	0.571547
	H97	H	0.577856	0.880958	0.576448
	H98	H	0.578743	0.117223	0.401127
	H99	H	0.401734	0.877122	0.401934
	H100	H	0.591677	0.402401	0.109695
	H101	H	0.580778	0.588417	0.876722
	H102	H	0.391826	0.591260	0.109501
	H103	H	0.410689	0.405806	0.878148
	H104	H	0.106524	0.584951	0.396497
	H105	H	0.872512	0.596040	0.590968
	H106	H	0.105558	0.409034	0.584986
	H107	H	0.880081	0.423809	0.397821
	H108	H	0.900950	0.613900	0.079327
	H109	H	0.083083	0.376848	0.081585
	H110	H	0.080820	0.618386	0.895993
	H111	H	0.906329	0.374332	0.895188
	H112	H	0.097978	0.905995	0.612084
	H113	H	0.092513	0.082928	0.373695
	H114	H	0.888644	0.090103	0.607954
	H115	H	0.889939	0.913983	0.373372
	H116	H	0.608178	0.082915	0.886676
	H117	H	0.373717	0.100971	0.086429
	H118	H	0.606635	0.903444	0.089469
	H119	H	0.373769	0.913467	0.891775
	C120	C	0.369040	0.006515	0.612560
	C121	C	0.609979	0.988074	0.610880
	C122	C	0.611952	0.007786	0.370521
	C123	C	0.371122	0.988117	0.372394
	C124	C	0.618967	0.371384	0.001006
	C125	C	0.612859	0.615524	0.983994
	C126	C	0.366501	0.620061	0.001384
	C127	C	0.372449	0.377943	0.983535
	C128	C	0.000226	0.619038	0.368182
	C129	C	0.981924	0.620221	0.615032
	C130	C	-0.000991	0.376538	0.613215
	C131	C	0.982249	0.375546	0.367911
	C132	C	0.870888	0.505387	0.112307
	C133	C	0.112033	0.487436	0.110578
	C134	C	0.113740	0.507204	0.869191
	C135	C	0.873522	0.487088	0.872032
	C136	C	0.116535	0.873267	0.501110
	C137	C	0.110488	0.115948	0.483913
	C138	C	0.864115	0.121590	0.500756
	C139	C	0.870527	0.878291	0.482632
	C140	C	0.498549	0.117270	0.870250
	C141	C	0.482348	0.119927	0.116351
	C142	C	0.498636	0.875745	0.114940
	C143	C	0.480680	0.874041	0.868427
	C144	C	0.371919	0.880401	0.667915
	C145	C	0.607059	0.113114	0.669430
	C146	C	0.613609	0.881529	0.314647
	C147	C	0.369607	0.114501	0.318274
	C148	C	0.675990	0.369677	0.878861
	C149	C	0.668163	0.616148	0.106041
	C150	C	0.310305	0.622246	0.879936
	C151	C	0.313747	0.376608	0.104977
	C152	C	0.877392	0.676822	0.374040
	C153	C	0.105317	0.671140	0.607988
	C154	C	0.875587	0.325551	0.610398
	C155	C	0.103794	0.315438	0.370746
	C156	C	0.878546	0.378416	0.672866
	C157	C	0.103004	0.619648	0.670581
	C158	C	0.878862	0.622173	0.312628
	C159	C	0.103927	0.371574	0.310992
	C160	C	0.371623	0.674848	0.877955
	C161	C	0.605937	0.670565	0.107513
	C162	C	0.615081	0.315696	0.878003
	C163	C	0.377965	0.325742	0.107940
	C164	C	0.670449	0.881983	0.370232
	C165	C	0.663077	0.113951	0.611830
	C166	C	0.316152	0.880468	0.611394
	C167	C	0.310647	0.112670	0.371787
	C168	C	0.874869	0.379777	0.168196
	C169	C	0.107973	0.613292	0.166675
	C170	C	0.116137	0.381738	0.812052
	C171	C	0.871555	0.614122	0.818845
	C172	C	0.174584	0.871903	0.379460
	C173	C	0.166254	0.118057	0.605685
	C174	C	0.808367	0.122504	0.378656
	C175	C	0.812630	0.877345	0.604203
	C176	C	0.376255	0.176143	0.876582
	C177	C	0.606215	0.169362	0.109572
	C178	C	0.375053	0.824530	0.110340
	C179	C	0.603623	0.817075	0.873038
	C180	C	0.377210	0.878562	0.172649
	C181	C	0.603900	0.116824	0.171352
	C182	C	0.376629	0.120793	0.815310
	C183	C	0.602050	0.870560	0.811037
	C184	C	0.869908	0.176197	0.377311
	C185	C	0.104479	0.171639	0.607164
	C186	C	0.113481	0.817687	0.377984
	C187	C	0.875563	0.825058	0.606725
	C188	C	0.172975	0.381832	0.869213
	C189	C	0.164192	0.613705	0.109935
	C190	C	0.818701	0.379198	0.111925
	C191	C	0.813262	0.612195	0.873151
	C192	C	0.389908	0.094272	0.590393
	C193	C	0.589239	0.900544	0.586933
	C194	C	0.587293	0.095573	0.393606
	C195	C	0.396184	0.900255	0.394799
	C196	C	0.597160	0.395687	0.086597
	C197	C	0.592154	0.591305	0.898649
	C198	C	0.387842	0.596517	0.086671
	C199	C	0.394494	0.400484	0.897722
	C200	C	0.085108	0.593066	0.389259
	C201	C	0.896417	0.599021	0.594567
	C202	C	0.084045	0.397978	0.589560
	C203	C	0.897282	0.401790	0.389926
	C204	C	0.891115	0.593371	0.089715
	C205	C	0.091668	0.399285	0.087538
	C206	C	0.088471	0.594650	0.893225
	C207	C	0.898741	0.399441	0.894026
	C208	C	0.094112	0.897093	0.586662
	C209	C	0.089608	0.091083	0.398938
	C210	C	0.885197	0.098517	0.586104
	C211	C	0.892334	0.901096	0.397073
	C212	C	0.583357	0.090891	0.891061
	C213	C	0.396696	0.099944	0.096064
	C214	C	0.584134	0.896345	0.092899
	C215	C	0.395166	0.899181	0.890386
	Zn216	Zn	0.489175	-0.003999	0.738814
	Zn217	Zn	0.490747	-0.001603	0.245543
	Zn218	Zn	0.745740	0.494415	-0.008400
	Zn219	Zn	0.240080	0.497736	-0.008399
	Zn220	Zn	-0.008756	0.747670	0.492257
	Zn221	Zn	-0.011073	0.247015	0.491959
	Zn222	Zn	-0.008441	0.498324	0.743426
	Zn223	Zn	-0.008384	0.496786	0.238002
	Zn224	Zn	0.489501	0.745988	-0.007549
	Zn225	Zn	0.492780	0.247159	-0.006727
	Zn226	Zn	0.738145	-0.001903	0.490869
	Zn227	Zn	0.243697	-0.003256	0.491978
	N228	N	0.404302	0.959847	0.668881
	N229	N	0.574729	0.033741	0.669110
	N230	N	0.577924	0.960704	0.314599
	N231	N	0.406874	0.035923	0.318720
	N232	N	0.678757	0.403316	0.956670
	N233	N	0.672635	0.582771	0.028165
	N234	N	0.306996	0.588771	0.957557
	N235	N	0.309963	0.408213	0.026519
	N236	N	0.953876	0.675241	0.407712
	N237	N	0.029004	0.671750	0.573928
	N238	N	0.951584	0.324061	0.574041
	N239	N	0.027187	0.317757	0.405301
	N240	N	0.956379	0.409144	0.674713
	N241	N	0.025250	0.588660	0.675013
	N242	N	0.956122	0.586758	0.308917
	N243	N	0.027175	0.408288	0.309020
	N244	N	0.406113	0.673710	0.954366
	N245	N	0.572462	0.670529	0.030531
	N246	N	0.580416	0.316299	0.954880
	N247	N	0.414129	0.326761	0.031595
	N248	N	0.669598	0.961663	0.404140
	N249	N	0.664816	0.035201	0.576066
	N250	N	0.314354	0.959683	0.577479
	N251	N	0.311464	0.033063	0.404804
	N252	N	0.906536	0.459404	0.168555
	N253	N	0.076388	0.533651	0.167251
	N254	N	0.080210	0.460856	0.811943
	N255	N	0.908579	0.535414	0.818280
	N256	N	0.176722	0.905633	0.457173
	N257	N	0.170221	0.084057	0.527967
	N258	N	0.804587	0.089600	0.456402
	N259	N	0.809332	0.909639	0.526165
	N260	N	0.453017	0.174002	0.910003
	N261	N	0.529608	0.171477	0.075915
	N262	N	0.451611	0.822394	0.075261
	N263	N	0.527139	0.819111	0.908032
	N264	N	0.454958	0.909525	0.175417
	N265	N	0.525989	0.086915	0.175777
	N266	N	0.453768	0.085215	0.811098
	N267	N	0.524323	0.904855	0.807706
	N268	N	0.903970	0.175802	0.454043
	N269	N	0.070576	0.170662	0.530486
	N270	N	0.077963	0.818463	0.454472
	N271	N	0.910984	0.825582	0.530110
	N272	N	0.171736	0.460981	0.903882
	N273	N	0.166553	0.534399	0.075621
	N274	N	0.816207	0.458265	0.077597
	N275	N	0.814376	0.532204	0.905763
	O276	O	0.369276	0.514622	0.361475
	H277	H	0.366996	0.525254	0.360050
	H278	H	0.378613	0.515727	0.360092
	O279	O	0.571062	0.507317	0.596510
	H280	H	0.566600	0.505629	0.593845
	H281	H	0.573979	0.509287	0.596007
	O282	O	1.087565	0.973113	-0.005059
	H283	H	1.082321	0.983424	-0.004734
	H284	H	1.088934	0.969136	-0.008395
	O285	O	0.907982	0.100042	0.910450
	H286	H	0.914020	0.107826	0.911801
	H287	H	0.898172	0.108654	0.895942
	O288	O	0.572120	0.635516	0.584806
	H289	H	0.571545	0.626785	0.592135
	H290	H	0.578101	0.626929	0.582656
	O291	O	0.585682	0.418300	0.472579
	H292	H	0.579791	0.418871	0.468720
	H293	H	0.584951	0.415862	0.467735
	O294	O	0.367518	0.510053	0.628773
	H295	H	0.356832	0.491315	0.632693
	H296	H	0.364805	0.493057	0.635419
	O297	O	0.028416	-0.017571	0.899610
	H298	H	0.035545	-0.009786	0.910155
	H299	H	0.024591	-0.017056	0.894760
	O300	O	0.601196	0.561518	0.524073
	H301	H	0.614761	0.566836	0.523493
	H302	H	0.591102	0.562875	0.538826
	O303	O	0.993927	0.979260	0.053725
	H304	H	0.984282	0.981964	0.068055
	H305	H	0.978185	0.978056	0.042700
	O306	O	-0.058478	0.908261	1.046554
	H307	H	-0.060062	0.902322	1.046468
	H308	H	-0.060763	0.910009	1.032576
	O309	O	0.481477	0.545177	0.390810
	H310	H	0.454416	0.556231	0.397285
	H311	H	0.479944	0.555943	0.385774
	O312	O	-0.042869	0.068669	0.030498
	H313	H	-0.046157	0.068115	0.032342
	H314	H	-0.053450	0.066527	0.032619
	O315	O	0.976699	-0.007486	-0.027696
	H316	H	0.975201	0.006034	-0.035779
	H317	H	0.968901	-0.019327	-0.023565
	O318	O	1.071092	0.971487	1.024416
	H319	H	1.068913	0.971046	1.016027
	H320	H	1.065089	0.967149	1.033347
	O321	O	-0.031115	-0.052931	1.099743
	H322	H	-0.033161	-0.041406	1.105632
	H323	H	-0.033946	-0.055347	1.093172
	O324	O	0.434845	0.359005	0.479492
	H325	H	0.444486	0.365396	0.472354
	H326	H	0.446608	0.345107	0.481375
	O327	O	0.034076	-0.003997	-0.025748
	H328	H	0.029509	-0.017723	-0.026392
	H329	H	0.040019	0.000009	-0.025737
	O330	O	0.464288	0.655862	0.471467
	H331	H	0.459556	0.664932	0.477005
	H332	H	0.474988	0.659464	0.471648
	O333	O	0.491066	0.441978	1.470662
	H334	H	0.507215	0.428725	1.462570
	H335	H	0.480377	0.441335	1.465459
	O336	O	0.281932	-0.292344	0.388642
	H337	H	0.269812	-0.293080	0.383876
	H338	H	0.273785	-0.303361	0.392467
	O339	O	0.360714	0.574991	0.420749
	H340	H	0.354113	0.588745	0.429979
	H341	H	0.362495	0.592586	0.417003
	O342	O	0.877299	0.988930	0.983408
	H343	H	0.881894	0.984473	0.981999
	H344	H	0.879457	1.000906	0.985852
	O345	O	1.510545	1.503309	-0.494076
	H346	H	1.490505	1.505872	-0.489882
	H347	H	1.518368	1.506391	-0.484480
	O348	O	0.368610	0.507555	0.441688
	H349	H	0.356204	0.507682	0.438467
	H350	H	0.372540	0.507139	0.435985
	O351	O	0.866160	0.994898	1.137728
	H352	H	0.862086	0.994561	1.144227
	H353	H	0.869191	0.990359	1.126419
	O354	O	0.411933	0.350535	0.665936
	H355	H	0.413592	0.341241	0.671152
	H356	H	0.420994	0.342626	0.647894
	O357	O	0.856188	0.033088	0.934371
	H358	H	0.854125	0.024051	0.940850
	H359	H	0.857400	0.028777	0.926582
	O360	O	0.958665	0.070878	-0.051454
	H361	H	0.961384	0.072878	-0.037853
	H362	H	0.968246	0.077478	-0.056322
	O363	O	0.451633	0.474609	0.555142
	H364	H	0.447636	0.466694	0.541727
	H365	H	0.460295	0.481835	0.554330
	O366	O	0.917032	0.960205	0.927499
	H367	H	0.914757	0.964600	0.921006
	H368	H	0.934978	0.957362	0.934593
	O369	O	0.552503	0.430539	1.442952
	H370	H	0.562918	0.417617	1.445273
	H371	H	0.556505	0.428846	1.435098
	O372	O	-0.045679	0.054942	-0.059771
	H373	H	-0.039889	0.053588	-0.065909
	H374	H	-0.042901	0.054680	-0.058119
	O375	O	1.568527	0.532915	0.461140
	H376	H	1.564090	0.533044	0.458934
	H377	H	1.575687	0.536488	0.461190
	O378	O	0.537153	0.437745	0.524375
	H379	H	0.534989	0.436951	0.520460
	H380	H	0.525604	0.443482	0.524894
	O381	O	0.570410	0.378194	0.390525
	H382	H	0.571020	0.390922	0.386523
	H383	H	0.563268	0.380360	0.392598
