data_Molecule from HDF5

_cell_length_a		16.448739
_cell_length_b		16.332427
_cell_length_c		16.482217
_cell_angle_alpha	90.031084
_cell_angle_beta	90.031560
_cell_angle_gamma	89.974710
_symmetry_space_group_name_H-M	'P 1'
_symmetry_Int_Tables_number		1

loop_
	_symmetry_equiv_pos_as_xyz
	x,y,z

loop_
	_atom_site_label
	_atom_site_type_symbol
	_atom_site_fract_x
	_atom_site_fract_y
	_atom_site_fract_z
	H0	H	0.396074	0.844457	0.723701
	H1	H	0.613966	0.158725	0.724349
	H2	H	0.612488	0.842271	0.278296
	H3	H	0.402454	0.159940	0.280500
	H4	H	0.731057	0.391470	0.843122
	H5	H	0.727831	0.607516	0.157721
	H6	H	0.282190	0.609785	0.842663
	H7	H	0.287260	0.398712	0.157612
	H8	H	0.847227	0.726153	0.392567
	H9	H	0.163476	0.721821	0.602283
	H10	H	0.846719	0.279173	0.606898
	H11	H	0.163847	0.284918	0.398976
	H12	H	0.848172	0.393206	0.725610
	H13	H	0.161966	0.609424	0.722253
	H14	H	0.847006	0.611668	0.274948
	H15	H	0.161685	0.398903	0.279569
	H16	H	0.400557	0.723804	0.841846
	H17	H	0.610264	0.722029	0.158441
	H18	H	0.613152	0.278166	0.840984
	H19	H	0.406248	0.283528	0.157586
	H20	H	0.731060	0.844729	0.389885
	H21	H	0.729979	0.159140	0.609463
	H22	H	0.283459	0.843048	0.605850
	H23	H	0.286327	0.160560	0.396840
	H24	H	0.899511	0.342919	0.221111
	H25	H	0.109718	0.660712	0.220444
	H26	H	0.113820	0.344188	0.775388
	H27	H	0.895603	0.660097	0.776542
	H28	H	0.226221	0.896320	0.343029
	H29	H	0.228399	0.109641	0.658269
	H30	H	0.781355	0.111157	0.344077
	H31	H	0.779001	0.892203	0.654990
	H32	H	0.347096	0.222326	0.893646
	H33	H	0.664514	0.221731	0.103047
	H34	H	0.348040	0.781940	0.102697
	H35	H	0.663524	0.778679	0.892349
	H36	H	0.348953	0.895754	0.221148
	H37	H	0.662587	0.109976	0.223337
	H38	H	0.349114	0.111201	0.774803
	H39	H	0.662120	0.892483	0.773465
	H40	H	0.899842	0.224409	0.342380
	H41	H	0.111900	0.225656	0.658362
	H42	H	0.109372	0.781645	0.342608
	H43	H	0.896864	0.778271	0.656196
	H44	H	0.227049	0.342955	0.892468
	H45	H	0.226157	0.660716	0.103676
	H46	H	0.784142	0.342482	0.106364
	H47	H	0.779890	0.658919	0.891203
	H48	H	0.415169	0.116374	0.589395
	H49	H	0.588532	0.891466	0.582120
	H50	H	0.591456	0.116550	0.405728
	H51	H	0.412516	0.884670	0.408952
	H52	H	0.596812	0.418167	0.110104
	H53	H	0.595251	0.592471	0.886161
	H54	H	0.417775	0.592903	0.113150
	H55	H	0.413265	0.410992	0.883746
	H56	H	0.117359	0.592039	0.408093
	H57	H	0.889433	0.594758	0.588662
	H58	H	0.117549	0.410724	0.588659
	H59	H	0.890986	0.414994	0.412187
	H60	H	0.115266	0.416653	0.585275
	H61	H	0.894252	0.587433	0.581802
	H62	H	0.117137	0.591326	0.409870
	H63	H	0.890609	0.415349	0.408799
	H64	H	0.412516	0.590987	0.113415
	H65	H	0.596301	0.584453	0.888004
	H66	H	0.588774	0.410499	0.110017
	H67	H	0.415556	0.415284	0.885556
	H68	H	0.588705	0.112003	0.415682
	H69	H	0.592265	0.889690	0.583785
	H70	H	0.420065	0.114558	0.588920
	H71	H	0.415488	0.884995	0.407634
	H72	H	0.920518	0.613159	0.085195
	H73	H	0.095033	0.386675	0.092524
	H74	H	0.093457	0.613914	0.913094
	H75	H	0.914638	0.387504	0.912116
	H76	H	0.101839	0.915478	0.614930
	H77	H	0.096116	0.092190	0.387362
	H78	H	0.917256	0.088022	0.612121
	H79	H	0.920785	0.916467	0.388794
	H80	H	0.617275	0.091772	0.915477
	H81	H	0.390232	0.094011	0.093472
	H82	H	0.621422	0.905176	0.086119
	H83	H	0.391271	0.906565	0.912956
	H84	H	0.616619	0.919216	0.085316
	H85	H	0.392755	0.092396	0.084847
	H86	H	0.616367	0.082747	0.911027
	H87	H	0.398320	0.919054	0.918874
	H88	H	0.918779	0.088897	0.611610
	H89	H	0.096203	0.091834	0.388698
	H90	H	0.089708	0.917851	0.611006
	H91	H	0.917118	0.912713	0.386973
	H92	H	0.095731	0.616398	0.910908
	H93	H	0.094545	0.387669	0.088375
	H94	H	0.913301	0.615411	0.085378
	H95	H	0.924308	0.390387	0.909562
	H96	H	0.417310	0.114327	0.584973
	H97	H	0.589051	0.890398	0.586162
	H98	H	0.598936	0.115654	0.414196
	H99	H	0.415328	0.885647	0.410645
	H100	H	0.599010	0.407400	0.113956
	H101	H	0.589174	0.588582	0.889774
	H102	H	0.416852	0.588465	0.110461
	H103	H	0.418253	0.410707	0.885499
	H104	H	0.117190	0.590319	0.408911
	H105	H	0.892463	0.584343	0.591875
	H106	H	0.117871	0.417137	0.592108
	H107	H	0.890223	0.412257	0.409972
	H108	H	0.917269	0.616706	0.091311
	H109	H	0.098603	0.386330	0.089826
	H110	H	0.091902	0.615408	0.909703
	H111	H	0.920805	0.392562	0.919548
	H112	H	0.092156	0.906236	0.615645
	H113	H	0.095334	0.092031	0.387963
	H114	H	0.917747	0.090173	0.613150
	H115	H	0.915789	0.917592	0.387788
	H116	H	0.620387	0.090292	0.906210
	H117	H	0.393756	0.085803	0.091295
	H118	H	0.622941	0.914083	0.097542
	H119	H	0.392890	0.919152	0.904213
	C120	C	0.383925	0.010726	0.621096
	C121	C	0.625244	0.993861	0.619505
	C122	C	0.627140	0.010036	0.378557
	C123	C	0.383499	0.991335	0.378107
	C124	C	0.627749	0.379163	0.007394
	C125	C	0.626851	0.621670	0.991797
	C126	C	0.383623	0.623537	0.008119
	C127	C	0.384940	0.380636	0.989944
	C128	C	0.013160	0.624675	0.376564
	C129	C	0.996316	0.622900	0.620343
	C130	C	0.013062	0.380883	0.622056
	C131	C	0.995097	0.381580	0.378623
	C132	C	0.884300	0.510322	0.120445
	C133	C	0.126938	0.492853	0.121025
	C134	C	0.126872	0.510709	0.877819
	C135	C	0.884553	0.493862	0.879120
	C136	C	0.126524	0.881010	0.509315
	C137	C	0.128145	0.124644	0.492164
	C138	C	0.884465	0.123229	0.508635
	C139	C	0.883340	0.880721	0.490801
	C140	C	0.514127	0.122633	0.877596
	C141	C	0.497327	0.122909	0.121216
	C142	C	0.515904	0.880261	0.121299
	C143	C	0.497626	0.880575	0.877788
	C144	C	0.379303	0.891889	0.683059
	C145	C	0.630671	0.111764	0.682745
	C146	C	0.630672	0.890707	0.317533
	C147	C	0.383397	0.112106	0.319870
	C148	C	0.689864	0.374810	0.889802
	C149	C	0.687589	0.625149	0.110377
	C150	C	0.322849	0.627075	0.889856
	C151	C	0.326823	0.379619	0.109905
	C152	C	0.894539	0.685807	0.374216
	C153	C	0.115857	0.682429	0.621517
	C154	C	0.894299	0.319490	0.625336
	C155	C	0.115568	0.323520	0.378751
	C156	C	0.895044	0.376232	0.684444
	C157	C	0.115048	0.626646	0.681261
	C158	C	0.894567	0.628781	0.315582
	C159	C	0.114698	0.379991	0.319472
	C160	C	0.381688	0.684206	0.889449
	C161	C	0.629060	0.682223	0.110749
	C162	C	0.631074	0.318003	0.888820
	C163	C	0.385771	0.322654	0.110202
	C164	C	0.689620	0.891777	0.373707
	C165	C	0.688834	0.111773	0.625518
	C166	C	0.323230	0.891013	0.624244
	C167	C	0.325382	0.112203	0.377479
	C168	C	0.881231	0.390852	0.181676
	C169	C	0.128454	0.613110	0.180153
	C170	C	0.130588	0.391862	0.816000
	C171	C	0.878957	0.612214	0.817089
	C172	C	0.186385	0.878229	0.390469
	C173	C	0.188323	0.127641	0.610828
	C174	C	0.822432	0.128264	0.390926
	C175	C	0.820414	0.875251	0.608170
	C176	C	0.395042	0.183328	0.874773
	C177	C	0.616572	0.182595	0.122320
	C178	C	0.395767	0.821190	0.121732
	C179	C	0.616073	0.818796	0.874157
	C180	C	0.396162	0.877926	0.180614
	C181	C	0.615661	0.126673	0.182087
	C182	C	0.396128	0.127637	0.815700
	C183	C	0.615425	0.875685	0.815088
	C184	C	0.881823	0.184252	0.390023
	C185	C	0.130076	0.185426	0.610905
	C186	C	0.127869	0.821388	0.390078
	C187	C	0.879163	0.818575	0.609020
	C188	C	0.187343	0.391115	0.874357
	C189	C	0.186375	0.612932	0.122329
	C190	C	0.823895	0.390736	0.124134
	C191	C	0.820850	0.611495	0.874171
	C192	C	0.409967	0.093392	0.595051
	C193	C	0.597840	0.911804	0.591828
	C194	C	0.600438	0.093031	0.404482
	C195	C	0.407496	0.907115	0.402100
	C196	C	0.602103	0.404858	0.089921
	C197	C	0.601151	0.595907	0.909332
	C198	C	0.408763	0.598100	0.090928
	C199	C	0.408822	0.405099	0.906628
	C200	C	0.095813	0.598627	0.401780
	C201	C	0.913727	0.596525	0.594836
	C202	C	0.095248	0.407134	0.596151
	C203	C	0.912085	0.406841	0.403235
	C204	C	0.909851	0.593475	0.094652
	C205	C	0.102824	0.409074	0.097164
	C206	C	0.101110	0.593732	0.903950
	C207	C	0.912174	0.411370	0.905986
	C208	C	0.101779	0.905964	0.592127
	C209	C	0.103093	0.099244	0.409531
	C210	C	0.910483	0.096705	0.590691
	C211	C	0.909994	0.907821	0.409208
	C212	C	0.596588	0.095998	0.903543
	C213	C	0.413954	0.097888	0.096807
	C214	C	0.598705	0.905545	0.096822
	C215	C	0.415543	0.907368	0.904300
	Zn216	Zn	0.505302	0.001484	0.748987
	Zn217	Zn	0.506156	0.001057	0.250376
	Zn218	Zn	0.755947	0.500665	-0.000177
	Zn219	Zn	0.255186	0.501188	-0.000991
	Zn220	Zn	0.004533	0.752284	0.500106
	Zn221	Zn	0.004838	0.252758	0.500604
	Zn222	Zn	0.005006	0.502919	0.750208
	Zn223	Zn	0.004444	0.502343	0.248933
	Zn224	Zn	0.506602	0.751855	-0.000244
	Zn225	Zn	0.505670	0.250744	-0.001849
	Zn226	Zn	0.755182	0.002265	0.499984
	Zn227	Zn	0.255731	0.001790	0.500845
	N228	N	0.416436	0.967217	0.681301
	N229	N	0.591846	0.037507	0.679105
	N230	N	0.592578	0.965626	0.320413
	N231	N	0.418486	0.035751	0.319760
	N232	N	0.688182	0.411799	0.964616
	N233	N	0.686440	0.588518	0.035265
	N234	N	0.323886	0.590282	0.964680
	N235	N	0.326019	0.414664	0.034123
	N236	N	0.969274	0.683438	0.411289
	N237	N	0.040946	0.680306	0.584569
	N238	N	0.968494	0.322414	0.587358
	N239	N	0.040297	0.324189	0.414598
	N240	N	0.970087	0.413540	0.682754
	N241	N	0.039694	0.590326	0.680463
	N242	N	0.969513	0.591584	0.316712
	N243	N	0.038740	0.415113	0.319198
	N244	N	0.419036	0.682019	0.964018
	N245	N	0.592133	0.680378	0.035990
	N246	N	0.593203	0.320480	0.963108
	N247	N	0.420732	0.322935	0.034577
	N248	N	0.687673	0.967052	0.410770
	N249	N	0.685450	0.037228	0.586739
	N250	N	0.325618	0.966085	0.586829
	N251	N	0.324990	0.035899	0.412555
	N252	N	0.917866	0.466521	0.179773
	N253	N	0.092336	0.537443	0.179722
	N254	N	0.093516	0.467340	0.818079
	N255	N	0.918100	0.537976	0.820428
	N256	N	0.185699	0.914693	0.465648
	N257	N	0.187065	0.090429	0.535968
	N258	N	0.823929	0.091136	0.465759
	N259	N	0.822702	0.912889	0.533663
	N260	N	0.469525	0.180398	0.912361
	N261	N	0.541858	0.180420	0.085194
	N262	N	0.471030	0.822620	0.085683
	N263	N	0.541859	0.821714	0.912301
	N264	N	0.471757	0.913757	0.180703
	N265	N	0.540333	0.090227	0.181712
	N266	N	0.471245	0.090567	0.817424
	N267	N	0.540485	0.912940	0.816964
	N268	N	0.919591	0.181394	0.464312
	N269	N	0.093465	0.183990	0.536098
	N270	N	0.091232	0.823003	0.464904
	N271	N	0.917464	0.821707	0.535021
	N272	N	0.185286	0.466152	0.911954
	N273	N	0.185535	0.537237	0.086306
	N274	N	0.825553	0.465923	0.087004
	N275	N	0.824194	0.536577	0.911922
	O276	O	0.715517	0.575472	0.429375
	H277	H	0.708514	0.579764	0.445403
	H278	H	0.718232	0.554182	0.438384
	O279	O	1.293145	0.291936	1.281019
	H280	H	1.305435	0.295239	1.268438
	H281	H	1.307399	0.315031	1.292984
	O282	O	0.712480	0.465638	0.533039
	H283	H	0.712689	0.424244	0.526272
	H284	H	0.719017	0.464983	0.573517
	O285	O	0.428616	0.608175	0.542897
	H286	H	0.439085	0.597568	0.560956
	H287	H	0.428165	0.613831	0.559087
	O288	O	0.945501	1.087823	-0.047310
	H289	H	0.943235	1.087630	-0.035773
	H290	H	0.947844	1.074009	-0.054273
	O291	O	0.568092	0.494351	0.655121
	H292	H	0.539389	0.521259	0.654474
	H293	H	0.555241	0.477429	0.642715
	O294	O	-0.137573	0.093582	1.091035
	H295	H	-0.133337	0.096487	1.089626
	H296	H	-0.134358	0.095918	1.080633
	O297	O	0.322452	0.333056	0.678526
	H298	H	0.319925	0.337179	0.647411
	H299	H	0.359033	0.328695	0.687409
	O300	O	0.581863	0.712138	0.470099
	H301	H	0.589017	0.709494	0.458966
	H302	H	0.568251	0.700994	0.484136
	O303	O	0.302151	0.373874	0.548252
	H304	H	0.296085	0.406763	0.535355
	H305	H	0.284438	0.368295	0.536893
	O306	O	0.495008	0.304259	0.507563
	H307	H	0.487136	0.307152	0.500337
	H308	H	0.495672	0.299035	0.515173
	O309	O	0.523592	0.406825	0.489450
	H310	H	0.538410	0.411150	0.488340
	H311	H	0.520760	0.419877	0.479517
	O312	O	-0.197866	1.206069	0.981655
	H313	H	-0.191895	1.207606	1.001539
	H314	H	-0.217382	1.213647	0.976648
	O315	O	-0.027502	0.811695	0.880155
	H316	H	-0.022403	0.800554	0.883073
	H317	H	-0.003071	0.803548	0.878719
	O318	O	1.004900	-0.059071	0.066649
	H319	H	0.989747	-0.065971	0.061958
	H320	H	0.990846	-0.053137	0.056927
	O321	O	0.338608	-0.497156	-0.568411
	H322	H	0.333268	-0.490889	-0.578565
	H323	H	0.341479	-0.471892	-0.553460
	O324	O	0.685061	0.652130	0.684746
	H325	H	0.699794	0.656078	0.641617
	H326	H	0.695202	0.610390	0.694642
	O327	O	-0.017427	0.216767	0.783593
	H328	H	-0.028087	0.229643	0.779081
	H329	H	-0.043329	0.229167	0.773611
	O330	O	0.013932	1.213683	0.160135
	H331	H	0.029685	1.218767	0.162401
	H332	H	0.000727	1.227144	0.160010
	O333	O	0.340381	0.645857	0.548618
	H334	H	0.337196	0.643332	0.557895
	H335	H	0.333799	0.656908	0.546553
	O336	O	-0.498737	-0.493423	-0.681048
	H337	H	-0.507909	-0.480533	-0.683982
	H338	H	-0.514475	-0.486219	-0.670201
	O339	O	0.087218	1.077496	0.867931
	H340	H	0.079877	1.085559	0.862251
	H341	H	0.075114	1.089067	0.870651
	O342	O	0.146365	0.807709	0.891744
	H343	H	0.148599	0.810680	0.914058
	H344	H	0.153687	0.831897	0.900965
	O345	O	0.818468	0.994976	-0.118387
	H346	H	0.830979	0.993492	-0.127423
	H347	H	0.801280	0.966628	-0.119273
	O348	O	0.528028	0.489993	0.341963
	H349	H	0.514390	0.495526	0.344432
	H350	H	0.545656	0.489908	0.334638
	O351	O	0.186483	1.045082	0.978835
	H352	H	0.179195	1.048421	0.973506
	H353	H	0.181193	1.061119	0.993083
	O354	O	-0.191257	0.812119	0.114306
	H355	H	-0.156973	0.802791	0.111455
	H356	H	-0.200441	0.824074	0.112103
	O357	O	-0.021540	-0.201710	1.210052
	H358	H	-0.040034	-0.195188	1.211465
	H359	H	-0.015038	-0.218900	1.219260
	O360	O	0.461215	0.313050	0.308607
	H361	H	0.461037	0.309792	0.333141
	H362	H	0.454765	0.331047	0.307008
	O363	O	-0.064732	0.008079	1.114999
	H364	H	-0.075218	0.001012	1.106220
	H365	H	-0.050795	0.023938	1.099981
	O366	O	0.487735	0.710331	0.296019
	H367	H	0.480661	0.724886	0.289137
	H368	H	0.482438	0.712210	0.295936
	O369	O	0.825068	0.184482	0.820025
	H370	H	0.822258	0.172737	0.848695
	H371	H	0.823451	0.151587	0.819381
	O372	O	0.881969	-0.066094	1.193070
	H373	H	0.879234	-0.044834	1.190868
	H374	H	0.879383	-0.065269	1.176006
	O375	O	0.683792	0.658583	0.491775
	H376	H	0.673196	0.667188	0.477119
	H377	H	0.700026	0.674042	0.487063
	O378	O	-0.211275	0.869987	0.009437
	H379	H	-0.219195	0.847609	0.015440
	H380	H	-0.210633	0.876653	0.033714
	O381	O	0.331648	0.663671	0.549920
	H382	H	0.339879	0.676982	0.567139
	H383	H	0.343989	0.653621	0.561528
	O384	O	0.323664	0.507290	0.382748
	H385	H	0.317644	0.517628	0.374585
	H386	H	0.329986	0.519673	0.381440
	O387	O	0.224209	0.220877	1.032923
	H388	H	0.232098	0.226201	1.053806
	H389	H	0.234488	0.240268	1.033605
	O390	O	0.206138	-0.181781	-0.007260
	H391	H	0.211935	-0.192623	0.000546
	H392	H	0.212630	-0.160225	0.001911
	O393	O	1.218662	1.033384	1.207790
	H394	H	1.227239	1.024105	1.217072
	H395	H	1.212855	1.032658	1.217121
	O396	O	0.207651	-0.111746	0.074632
	H397	H	0.197205	-0.100690	0.065845
	H398	H	0.202305	-0.087374	0.070533
	O399	O	1.009244	-0.150452	0.941618
	H400	H	1.014478	-0.152780	0.932449
	H401	H	1.013069	-0.149423	0.941198
	O402	O	0.847186	0.935206	0.935665
	H403	H	0.854122	0.915392	0.933741
	H404	H	0.865308	0.950881	0.949198
	O405	O	0.866018	0.965671	-0.053600
	H406	H	0.866812	0.949029	-0.039007
	H407	H	0.874914	0.963738	-0.072622
	O408	O	1.011938	0.129404	-0.052289
	H409	H	1.022194	0.131794	-0.035417
	H410	H	1.008606	0.131693	-0.070220
	O411	O	1.316148	1.683771	0.311630
	H412	H	1.301149	1.700024	0.343190
	H413	H	1.329473	1.682433	0.299901
	O414	O	0.720337	0.285934	0.478088
	H415	H	0.713496	0.290981	0.435169
	H416	H	0.748617	0.255415	0.463916
	O417	O	1.154545	1.206761	1.205934
	H418	H	1.175672	1.164576	1.206873
	H419	H	1.152120	1.228852	1.229108
	O420	O	-0.506913	-0.456796	-0.351964
	H421	H	-0.510122	-0.444445	-0.351912
	H422	H	-0.511021	-0.449462	-0.348616
	O423	O	0.481353	0.296430	0.709018
	H424	H	0.487357	0.280880	0.721556
	H425	H	0.498633	0.289561	0.697724
	O426	O	0.652700	0.549316	0.691291
	H427	H	0.626165	0.533261	0.698879
	H428	H	0.665654	0.556536	0.730415
	O429	O	0.642992	0.312186	0.390349
	H430	H	0.651935	0.346595	0.380919
	H431	H	0.605852	0.306707	0.380236
	O432	O	0.701805	0.426509	0.295620
	H433	H	0.699829	0.431322	0.289144
	H434	H	0.711089	0.451790	0.295091
	O435	O	1.208023	0.948639	-0.177771
	H436	H	1.226077	0.954230	-0.172348
	H437	H	1.200766	0.967863	-0.181110
	O438	O	0.073831	-0.139201	-0.215524
	H439	H	0.088477	-0.110162	-0.215877
	H440	H	0.082024	-0.152978	-0.208216
	O441	O	1.061264	-0.071071	0.162349
	H442	H	1.052289	-0.069569	0.167757
	H443	H	1.049405	-0.065076	0.154858
	O444	O	0.063728	1.123406	1.020714
	H445	H	0.066567	1.142429	1.022441
	H446	H	0.053074	1.118949	1.002888
	O447	O	0.334698	0.503977	0.707691
	H448	H	0.327021	0.501479	0.722522
	H449	H	0.321821	0.487963	0.706894
	O450	O	0.509013	0.716066	0.680922
	H451	H	0.529299	0.741661	0.703138
	H452	H	0.540496	0.707320	0.674144
	O453	O	0.526791	0.428482	0.510921
	H454	H	0.545253	0.421220	0.513613
	H455	H	0.507936	0.422727	0.524807
