data_Molecule from HDF5

_cell_length_a		16.162558
_cell_length_b		16.351773
_cell_length_c		16.026551
_cell_angle_alpha	88.567739
_cell_angle_beta	88.879118
_cell_angle_gamma	91.070369
_symmetry_space_group_name_H-M	'P 1'
_symmetry_Int_Tables_number		1

loop_
	_symmetry_equiv_pos_as_xyz
	x,y,z

loop_
	_atom_site_label
	_atom_site_type_symbol
	_atom_site_fract_x
	_atom_site_fract_y
	_atom_site_fract_z
	H0	H	0.400819	0.842494	0.718175
	H1	H	0.604574	0.170092	0.698903
	H2	H	0.603341	0.839781	0.283859
	H3	H	0.416266	0.167890	0.277426
	H4	H	0.722636	0.414101	0.829165
	H5	H	0.719323	0.600453	0.161922
	H6	H	0.306165	0.603528	0.827211
	H7	H	0.287260	0.398910	0.158832
	H8	H	0.842193	0.720080	0.393763
	H9	H	0.169926	0.722880	0.590057
	H10	H	0.844394	0.282165	0.603797
	H11	H	0.172268	0.296123	0.392166
	H12	H	0.843500	0.400605	0.715143
	H13	H	0.175779	0.600284	0.694811
	H14	H	0.841031	0.601332	0.282777
	H15	H	0.173603	0.417520	0.281600
	H16	H	0.410885	0.724219	0.832311
	H17	H	0.607286	0.716325	0.162023
	H18	H	0.610415	0.298829	0.828848
	H19	H	0.400367	0.283535	0.159482
	H20	H	0.721736	0.841351	0.397482
	H21	H	0.724422	0.167017	0.587351
	H22	H	0.283718	0.843833	0.603901
	H23	H	0.298886	0.169120	0.392968
	H24	H	0.904120	0.343558	0.215826
	H25	H	0.106333	0.670502	0.198031
	H26	H	0.104848	0.340873	0.781972
	H27	H	0.918571	0.669099	0.777715
	H28	H	0.221291	0.915726	0.329090
	H29	H	0.217352	0.101179	0.661529
	H30	H	0.803197	0.102920	0.327117
	H31	H	0.788699	0.899682	0.660702
	H32	H	0.343049	0.220832	0.895235
	H33	H	0.670579	0.222740	0.091482
	H34	H	0.344433	0.781318	0.105741
	H35	H	0.671377	0.795551	0.893281
	H36	H	0.342937	0.900371	0.215019
	H37	H	0.674872	0.098826	0.196319
	H38	H	0.340747	0.101703	0.784934
	H39	H	0.672325	0.916117	0.781348
	H40	H	0.911230	0.223084	0.330564
	H41	H	0.107129	0.218376	0.660562
	H42	H	0.107905	0.800187	0.327984
	H43	H	0.901181	0.783648	0.659467
	H44	H	0.223781	0.342213	0.894672
	H45	H	0.224748	0.667551	0.084719
	H46	H	0.786459	0.343112	0.102047
	H47	H	0.799682	0.669598	0.892814
	H48	H	0.412064	0.123121	0.587093
	H49	H	0.606159	0.883131	0.596877
	H50	H	0.602801	0.119356	0.398311
	H51	H	0.406835	0.890152	0.418847
	H52	H	0.591267	0.409430	0.113126
	H53	H	0.606781	0.596454	0.877337
	H54	H	0.411110	0.595373	0.116894
	H55	H	0.433233	0.412832	0.879655
	H56	H	0.127898	0.614575	0.395227
	H57	H	0.889123	0.589586	0.590758
	H58	H	0.128609	0.404598	0.585481
	H59	H	0.891260	0.407849	0.415635
	H60	H	0.123922	0.412457	0.579144
	H61	H	0.887482	0.597068	0.589719
	H62	H	0.122386	0.602202	0.403373
	H63	H	0.891580	0.418596	0.406993
	H64	H	0.411528	0.586569	0.114041
	H65	H	0.597194	0.605343	0.878134
	H66	H	0.597182	0.406593	0.116101
	H67	H	0.410933	0.400223	0.868713
	H68	H	0.612026	0.122117	0.396379
	H69	H	0.584441	0.888865	0.597879
	H70	H	0.415135	0.122506	0.588708
	H71	H	0.404216	0.883675	0.399269
	H72	H	0.914718	0.623859	0.090745
	H73	H	0.090474	0.389145	0.095028
	H74	H	0.106967	0.621275	0.891557
	H75	H	0.914031	0.387089	0.902499
	H76	H	0.093563	0.907147	0.614962
	H77	H	0.105201	0.111410	0.373842
	H78	H	0.914782	0.096577	0.615205
	H79	H	0.921568	0.922076	0.379810
	H80	H	0.623827	0.101409	0.899278
	H81	H	0.392192	0.090786	0.080474
	H82	H	0.625610	0.905563	0.079850
	H83	H	0.387449	0.908953	0.908619
	H84	H	0.623911	0.917362	0.087363
	H85	H	0.387664	0.089403	0.094876
	H86	H	0.626541	0.103701	0.893763
	H87	H	0.390300	0.909872	0.913220
	H88	H	0.909955	0.091324	0.615403
	H89	H	0.109335	0.098633	0.375455
	H90	H	0.094724	0.911754	0.614815
	H91	H	0.920968	0.902076	0.373623
	H92	H	0.108957	0.621705	0.895441
	H93	H	0.096390	0.390747	0.080820
	H94	H	0.918666	0.620618	0.081488
	H95	H	0.915563	0.391658	0.909239
	H96	H	0.413621	0.120698	0.584733
	H97	H	0.596470	0.891332	0.577497
	H98	H	0.605136	0.122739	0.388927
	H99	H	0.422111	0.890764	0.405280
	H100	H	0.596338	0.413881	0.114213
	H101	H	0.609052	0.609888	0.873707
	H102	H	0.419130	0.591825	0.113929
	H103	H	0.410016	0.426321	0.876528
	H104	H	0.125842	0.600797	0.387658
	H105	H	0.889714	0.592930	0.583218
	H106	H	0.126019	0.414142	0.590594
	H107	H	0.885852	0.406544	0.402575
	H108	H	0.908312	0.623603	0.083026
	H109	H	0.104429	0.384890	0.092189
	H110	H	0.110611	0.623529	0.892405
	H111	H	0.908999	0.387355	0.908942
	H112	H	0.090593	0.910047	0.612970
	H113	H	0.096200	0.101001	0.378880
	H114	H	0.916482	0.090230	0.612878
	H115	H	0.903375	0.913453	0.371318
	H116	H	0.625574	0.107960	0.897720
	H117	H	0.386401	0.102993	0.088029
	H118	H	0.629347	0.905810	0.094333
	H119	H	0.389332	0.914184	0.908967
	C120	C	0.382194	0.014388	0.619547
	C121	C	0.626895	0.995999	0.615407
	C122	C	0.632185	0.012767	0.369787
	C123	C	0.386498	0.996332	0.375567
	C124	C	0.626655	0.385522	0.004300
	C125	C	0.630815	0.629049	0.986601
	C126	C	0.388708	0.623026	0.004763
	C127	C	0.385437	0.381627	0.984770
	C128	C	0.015534	0.631012	0.369461
	C129	C	0.998392	0.623588	0.612946
	C130	C	0.017322	0.379635	0.617912
	C131	C	0.998724	0.385622	0.375876
	C132	C	0.883329	0.514827	0.117737
	C133	C	0.127605	0.496538	0.113691
	C134	C	0.133801	0.513789	0.868304
	C135	C	0.887516	0.496827	0.874575
	C136	C	0.125339	0.885481	0.504197
	C137	C	0.130049	0.128915	0.486326
	C138	C	0.887888	0.123858	0.504368
	C139	C	0.884100	0.881106	0.485125
	C140	C	0.516025	0.130116	0.870845
	C141	C	0.498584	0.123528	0.113237
	C142	C	0.517027	0.879410	0.119417
	C143	C	0.498103	0.885807	0.877946
	C144	C	0.381473	0.891597	0.679081
	C145	C	0.625205	0.120403	0.664362
	C146	C	0.625808	0.889082	0.319252
	C147	C	0.393377	0.119212	0.316375
	C148	C	0.684521	0.392336	0.879091
	C149	C	0.683289	0.622555	0.112038
	C150	C	0.339758	0.623306	0.878028
	C151	C	0.326133	0.380173	0.109283
	C152	C	0.891479	0.683117	0.373729
	C153	C	0.121805	0.682326	0.609177
	C154	C	0.893468	0.321660	0.621202
	C155	C	0.123137	0.333854	0.374487
	C156	C	0.893193	0.380631	0.676767
	C157	C	0.124771	0.621266	0.661500
	C158	C	0.890769	0.624243	0.318247
	C159	C	0.123673	0.394016	0.319180
	C160	C	0.392046	0.683353	0.880670
	C161	C	0.627297	0.679910	0.112162
	C162	C	0.628749	0.334658	0.878786
	C163	C	0.382423	0.322753	0.109672
	C164	C	0.684879	0.889870	0.375666
	C165	C	0.685003	0.118710	0.608800
	C166	C	0.323293	0.892086	0.622031
	C167	C	0.335359	0.119816	0.374423
	C168	C	0.883998	0.391934	0.176634
	C169	C	0.126631	0.620856	0.162960
	C170	C	0.127150	0.390039	0.817701
	C171	C	0.895396	0.620150	0.816352
	C172	C	0.183058	0.893528	0.378767
	C173	C	0.181597	0.123239	0.611776
	C174	C	0.837702	0.123331	0.377961
	C175	C	0.826711	0.880357	0.610596
	C176	C	0.392213	0.183568	0.874931
	C177	C	0.622453	0.181814	0.110466
	C178	C	0.393352	0.820942	0.123023
	C179	C	0.622396	0.833557	0.875812
	C180	C	0.392479	0.880245	0.177034
	C181	C	0.624365	0.120596	0.162855
	C182	C	0.390933	0.124408	0.819818
	C183	C	0.622753	0.893219	0.819755
	C184	C	0.891333	0.183175	0.379700
	C185	C	0.126718	0.181205	0.611189
	C186	C	0.126761	0.835783	0.378140
	C187	C	0.882505	0.822643	0.610136
	C188	C	0.186408	0.390758	0.873533
	C189	C	0.185881	0.619133	0.106777
	C190	C	0.825341	0.391917	0.120365
	C191	C	0.836589	0.620427	0.873951
	C192	C	0.406502	0.100012	0.594138
	C193	C	0.602600	0.909947	0.596430
	C194	C	0.612584	0.099039	0.388939
	C195	C	0.405443	0.910472	0.400500
	C196	C	0.602089	0.404228	0.091927
	C197	C	0.610353	0.609898	0.899049
	C198	C	0.408207	0.598473	0.092193
	C199	C	0.410601	0.406013	0.897527
	C200	C	0.102767	0.611684	0.389473
	C201	C	0.911322	0.600037	0.593594
	C202	C	0.103814	0.403173	0.592399
	C203	C	0.911996	0.405177	0.400878
	C204	C	0.907026	0.600522	0.092296
	C205	C	0.104057	0.410526	0.095098
	C206	C	0.114828	0.599706	0.887434
	C207	C	0.906879	0.411017	0.899605
	C208	C	0.100368	0.903972	0.591588
	C209	C	0.109675	0.109372	0.398693
	C210	C	0.907775	0.099670	0.591926
	C211	C	0.908207	0.905369	0.397705
	C212	C	0.602926	0.110383	0.890766
	C213	C	0.411468	0.101052	0.093714
	C214	C	0.603723	0.902612	0.094448
	C215	C	0.411408	0.905186	0.902915
	Zn216	Zn	0.505697	0.006160	0.746007
	Zn217	Zn	0.508139	0.003239	0.243173
	Zn218	Zn	0.755329	0.505938	-0.004227
	Zn219	Zn	0.260387	0.504157	-0.007564
	Zn220	Zn	0.006009	0.755729	0.493758
	Zn221	Zn	0.008208	0.253794	0.496009
	Zn222	Zn	0.009767	0.503929	0.742476
	Zn223	Zn	0.006438	0.507101	0.244585
	Zn224	Zn	0.507326	0.753178	-0.001876
	Zn225	Zn	0.507600	0.255747	-0.005569
	Zn226	Zn	0.758989	0.003708	0.494337
	Zn227	Zn	0.254769	0.006136	0.496735
	N228	N	0.417448	0.968692	0.677543
	N229	N	0.589709	0.043092	0.668630
	N230	N	0.593837	0.966577	0.315382
	N231	N	0.424571	0.041549	0.316963
	N232	N	0.683318	0.423161	0.958173
	N233	N	0.685655	0.591696	0.032909
	N234	N	0.337537	0.586196	0.956175
	N235	N	0.327721	0.416029	0.030453
	N236	N	0.970361	0.687719	0.404593
	N237	N	0.042333	0.683977	0.579739
	N238	N	0.971679	0.320877	0.585552
	N239	N	0.044360	0.328569	0.409095
	N240	N	0.971319	0.415884	0.675024
	N241	N	0.047028	0.585130	0.664013
	N242	N	0.968997	0.592686	0.315194
	N243	N	0.045229	0.425728	0.320162
	N244	N	0.421684	0.683279	0.960552
	N245	N	0.595451	0.684316	0.033167
	N246	N	0.593060	0.330519	0.957573
	N247	N	0.418852	0.323724	0.031253
	N248	N	0.689063	0.967759	0.406070
	N249	N	0.686240	0.040416	0.579110
	N250	N	0.323662	0.969352	0.585576
	N251	N	0.330728	0.042320	0.410457
	N252	N	0.919365	0.469405	0.175293
	N253	N	0.091079	0.543631	0.167479
	N254	N	0.095517	0.467422	0.814123
	N255	N	0.926379	0.542234	0.816528
	N256	N	0.182296	0.923725	0.458180
	N257	N	0.183956	0.091294	0.533284
	N258	N	0.835348	0.087114	0.456444
	N259	N	0.827446	0.915961	0.531929
	N260	N	0.470910	0.187194	0.906092
	N261	N	0.543306	0.183774	0.080549
	N262	N	0.471849	0.820367	0.087700
	N263	N	0.544064	0.828739	0.911388
	N264	N	0.470373	0.915756	0.175151
	N265	N	0.546439	0.084773	0.164827
	N266	N	0.468841	0.091857	0.817021
	N267	N	0.544445	0.924891	0.821024
	N268	N	0.921972	0.183611	0.459257
	N269	N	0.095472	0.184970	0.531938
	N270	N	0.091471	0.830850	0.456949
	N271	N	0.917684	0.823109	0.531072
	N272	N	0.190611	0.468463	0.904439
	N273	N	0.186948	0.540945	0.076840
	N274	N	0.825048	0.469151	0.084211
	N275	N	0.831325	0.542765	0.909192
	O276	O	-0.061735	-0.057643	0.040751
	H277	H	-0.070396	-0.056809	0.035678
	H278	H	-0.057837	-0.065263	0.047620
	O279	O	0.588520	0.532471	0.534499
	H280	H	0.596848	0.537488	0.549538
	H281	H	0.594184	0.529143	0.539472
	O282	O	0.495121	0.581793	0.543551
	H283	H	0.486181	0.585793	0.552745
	H284	H	0.479839	0.583129	0.556472
	O285	O	1.025554	0.082005	1.005648
	H286	H	1.027532	0.089414	1.008958
	H287	H	1.030477	0.082314	1.014299
	O288	O	0.966931	-0.047023	0.046900
	H289	H	0.957743	-0.051640	0.051599
	H290	H	0.965904	-0.054722	0.044279
	O291	O	0.486125	0.450994	0.434457
	H292	H	0.477757	0.435797	0.443974
	H293	H	0.483780	0.463220	0.434798
	O294	O	0.983357	-0.003788	1.045855
	H295	H	0.983066	-0.001681	1.040692
	H296	H	0.990815	-0.008396	1.052119
	O297	O	-0.017844	0.097712	-0.058143
	H298	H	-0.026238	0.103267	-0.056887
	H299	H	-0.021222	0.090396	-0.060987
	O300	O	0.515887	0.575919	0.424419
	H301	H	0.512644	0.581943	0.436468
	H302	H	0.522469	0.579034	0.429526
	O303	O	0.499502	0.557509	0.529412
	H304	H	0.501078	0.556292	0.528122
	H305	H	0.507468	0.541049	0.529887
	O306	O	1.096469	-0.036502	-0.028730
	H307	H	1.097801	-0.034147	-0.031527
	H308	H	1.095509	-0.030447	-0.034192
	O309	O	-0.076055	-0.063952	1.006336
	H310	H	-0.069379	-0.062087	1.008529
	H311	H	-0.090194	-0.074845	1.012170
	O312	O	0.877049	0.954587	1.052043
	H313	H	0.874779	0.962563	1.044929
	H314	H	0.861598	0.945976	1.055826
	O315	O	0.418615	0.449154	0.581252
	H316	H	0.428103	0.464393	0.577382
	H317	H	0.405916	0.445093	0.581362
	O318	O	0.549081	0.472802	0.498457
	H319	H	0.542052	0.457722	0.495368
	H320	H	0.545523	0.468514	0.498995
	O321	O	-0.006028	1.083548	0.987491
	H322	H	-0.018146	1.077544	0.995386
	H323	H	-0.004729	1.085215	0.985386
	O324	O	0.488169	0.549137	0.507903
	H325	H	0.485106	0.539575	0.503054
	H326	H	0.487098	0.551196	0.497914
	O327	O	0.430300	0.430172	0.485364
	H328	H	0.434267	0.421998	0.484717
	H329	H	0.431012	0.439765	0.482617
	O330	O	0.399106	0.503395	0.606868
	H331	H	0.397184	0.495055	0.601514
	H332	H	0.377682	0.490093	0.609502
	O333	O	0.547590	0.468946	0.515592
	H334	H	0.552742	0.465064	0.518736
	H335	H	0.544538	0.478631	0.520674
	O336	O	0.480213	0.497135	0.431524
	H337	H	0.484218	0.504345	0.439453
	H338	H	0.486371	0.498637	0.415820
	O339	O	0.933014	1.003517	-0.067971
	H340	H	0.926146	1.007992	-0.073847
	H341	H	0.931677	1.012495	-0.064821
	O342	O	0.433861	0.470403	0.545338
	H343	H	0.435071	0.480032	0.551079
	H344	H	0.432666	0.462753	0.546873
	O345	O	0.564984	0.549802	0.561685
	H346	H	0.566059	0.550138	0.572104
	H347	H	0.557308	0.546290	0.558863
	O348	O	-0.030716	0.052214	-0.005551
	H349	H	-0.022319	0.059989	0.007637
	H350	H	-0.027658	0.040925	0.001892
	O351	O	0.027270	0.950414	0.977156
	H352	H	0.035233	0.957019	0.975847
	H353	H	0.023899	0.943009	0.974262
	O354	O	0.543301	0.490219	0.506399
	H355	H	0.541410	0.497888	0.504158
	H356	H	0.538299	0.488006	0.509669
	O357	O	0.069710	0.970264	1.040133
	H358	H	0.075065	0.968633	1.038550
	H359	H	0.061767	0.961818	1.045140
