data_Molecule from HDF5

_cell_length_a		16.182681
_cell_length_b		16.469142
_cell_length_c		16.362954
_cell_angle_alpha	89.740136
_cell_angle_beta	89.903590
_cell_angle_gamma	90.575988
_symmetry_space_group_name_H-M	'P 1'
_symmetry_Int_Tables_number		1

loop_
	_symmetry_equiv_pos_as_xyz
	x,y,z

loop_
	_atom_site_label
	_atom_site_type_symbol
	_atom_site_fract_x
	_atom_site_fract_y
	_atom_site_fract_z
	H0	H	0.393837	0.842089	0.718521
	H1	H	0.609181	0.160602	0.713410
	H2	H	0.602733	0.841832	0.274438
	H3	H	0.397566	0.160097	0.274070
	H4	H	0.714740	0.403409	0.832433
	H5	H	0.718265	0.602206	0.154342
	H6	H	0.283736	0.601846	0.832992
	H7	H	0.282187	0.398557	0.157396
	H8	H	0.838656	0.716618	0.391171
	H9	H	0.159163	0.721627	0.602468
	H10	H	0.837067	0.277747	0.599675
	H11	H	0.160833	0.281919	0.391495
	H12	H	0.835888	0.395099	0.713206
	H13	H	0.161376	0.600130	0.711256
	H14	H	0.838253	0.599958	0.276954
	H15	H	0.160037	0.394777	0.274218
	H16	H	0.393636	0.724178	0.836105
	H17	H	0.604889	0.720648	0.154168
	H18	H	0.605609	0.282574	0.834729
	H19	H	0.393438	0.277818	0.154288
	H20	H	0.715684	0.839408	0.393911
	H21	H	0.719549	0.160977	0.591863
	H22	H	0.280225	0.839958	0.599205
	H23	H	0.282116	0.159839	0.391918
	H24	H	0.890928	0.340727	0.216240
	H25	H	0.108711	0.656270	0.219041
	H26	H	0.099430	0.339035	0.778244
	H27	H	0.894914	0.657501	0.771106
	H28	H	0.217067	0.897978	0.334279
	H29	H	0.217306	0.099851	0.655905
	H30	H	0.786029	0.097788	0.333058
	H31	H	0.779113	0.894849	0.656097
	H32	H	0.338479	0.216746	0.893193
	H33	H	0.662394	0.221308	0.097511
	H34	H	0.339467	0.778338	0.102011
	H35	H	0.661732	0.781705	0.888977
	H36	H	0.338318	0.895516	0.215324
	H37	H	0.664417	0.102446	0.209483
	H38	H	0.339474	0.101075	0.776802
	H39	H	0.662785	0.898767	0.775570
	H40	H	0.891267	0.222512	0.337494
	H41	H	0.102931	0.218140	0.654529
	H42	H	0.106726	0.777230	0.337477
	H43	H	0.890106	0.774269	0.654665
	H44	H	0.216106	0.339621	0.896161
	H45	H	0.220494	0.659296	0.099007
	H46	H	0.776845	0.340788	0.097357
	H47	H	0.784176	0.660926	0.890856
	H48	H	0.408495	0.114642	0.585955
	H49	H	0.591267	0.887288	0.583457
	H50	H	0.594375	0.116607	0.397482
	H51	H	0.406222	0.884939	0.402319
	H52	H	0.591362	0.410941	0.109505
	H53	H	0.589003	0.591573	0.880068
	H54	H	0.408418	0.596680	0.111486
	H55	H	0.405691	0.412421	0.880869
	H56	H	0.114792	0.586460	0.405767
	H57	H	0.879499	0.589829	0.591023
	H58	H	0.115369	0.413577	0.593790
	H59	H	0.884296	0.404555	0.413723
	H60	H	0.118143	0.399337	0.586959
	H61	H	0.884421	0.591866	0.576257
	H62	H	0.115000	0.590715	0.407743
	H63	H	0.886263	0.416058	0.406130
	H64	H	0.407904	0.585088	0.108633
	H65	H	0.587290	0.596596	0.879320
	H66	H	0.584802	0.414310	0.107031
	H67	H	0.414199	0.411287	0.883195
	H68	H	0.589514	0.113458	0.403418
	H69	H	0.588065	0.885816	0.590558
	H70	H	0.413833	0.113822	0.587675
	H71	H	0.414916	0.887193	0.401835
	H72	H	0.910669	0.612418	0.084196
	H73	H	0.092511	0.381978	0.094432
	H74	H	0.090155	0.613011	0.905466
	H75	H	0.908148	0.386761	0.905034
	H76	H	0.086513	0.902709	0.610759
	H77	H	0.087707	0.095519	0.379100
	H78	H	0.909440	0.082719	0.608584
	H79	H	0.913370	0.906449	0.382793
	H80	H	0.615196	0.091352	0.909911
	H81	H	0.384546	0.086014	0.092105
	H82	H	0.616021	0.912919	0.087281
	H83	H	0.386087	0.910775	0.908227
	H84	H	0.615569	0.908805	0.082985
	H85	H	0.382011	0.098440	0.084287
	H86	H	0.618065	0.090963	0.898575
	H87	H	0.387939	0.914344	0.909355
	H88	H	0.916392	0.090594	0.608420
	H89	H	0.094923	0.092512	0.378802
	H90	H	0.094396	0.911232	0.610215
	H91	H	0.910045	0.906102	0.380806
	H92	H	0.094279	0.615076	0.901619
	H93	H	0.078312	0.390080	0.085362
	H94	H	0.911809	0.613841	0.086562
	H95	H	0.905155	0.385921	0.904967
	H96	H	0.411931	0.112502	0.582130
	H97	H	0.583711	0.889271	0.585186
	H98	H	0.597432	0.114427	0.404991
	H99	H	0.410509	0.889001	0.409213
	H100	H	0.584761	0.407488	0.109096
	H101	H	0.592133	0.595776	0.877626
	H102	H	0.418554	0.590798	0.106665
	H103	H	0.409557	0.405036	0.879151
	H104	H	0.114179	0.586521	0.409781
	H105	H	0.886138	0.578072	0.583392
	H106	H	0.110542	0.411392	0.577960
	H107	H	0.880625	0.405072	0.400512
	H108	H	0.913322	0.611828	0.084807
	H109	H	0.095025	0.387555	0.076887
	H110	H	0.088655	0.614074	0.899531
	H111	H	0.907228	0.384634	0.902619
	H112	H	0.083761	0.912927	0.606853
	H113	H	0.088137	0.088434	0.380982
	H114	H	0.906521	0.091595	0.611969
	H115	H	0.910431	0.909330	0.382786
	H116	H	0.619957	0.101199	0.905369
	H117	H	0.388492	0.085985	0.077721
	H118	H	0.613444	0.914320	0.082428
	H119	H	0.386534	0.913575	0.904851
	C120	C	0.378866	0.008439	0.617241
	C121	C	0.622158	0.992482	0.616383
	C122	C	0.622874	0.009040	0.371803
	C123	C	0.379111	0.992180	0.372918
	C124	C	0.619379	0.380748	0.002658
	C125	C	0.621652	0.624416	0.985085
	C126	C	0.379447	0.622397	0.002773
	C127	C	0.378395	0.378758	0.987208
	C128	C	0.008575	0.619273	0.375084
	C129	C	0.990012	0.618903	0.615451
	C130	C	0.007422	0.376755	0.617082
	C131	C	0.990348	0.377492	0.374784
	C132	C	0.877824	0.507927	0.116291
	C133	C	0.121602	0.491223	0.117551
	C134	C	0.121426	0.508329	0.872603
	C135	C	0.876949	0.491362	0.872558
	C136	C	0.120470	0.877683	0.503991
	C137	C	0.121572	0.121716	0.485896
	C138	C	0.879725	0.119480	0.503756
	C139	C	0.877881	0.876046	0.487667
	C140	C	0.510238	0.123458	0.873621
	C141	C	0.492112	0.121820	0.115335
	C142	C	0.508556	0.879743	0.116186
	C143	C	0.492702	0.881111	0.874922
	C144	C	0.376338	0.889370	0.677754
	C145	C	0.625990	0.112579	0.674003
	C146	C	0.621775	0.889060	0.314253
	C147	C	0.378468	0.112164	0.313779
	C148	C	0.677172	0.382580	0.881115
	C149	C	0.679889	0.622723	0.106169
	C150	C	0.321443	0.622149	0.881986
	C151	C	0.320713	0.378926	0.108576
	C152	C	0.887310	0.677606	0.372787
	C153	C	0.111492	0.680328	0.619190
	C154	C	0.885471	0.317510	0.618136
	C155	C	0.112224	0.320159	0.373025
	C156	C	0.884896	0.375819	0.674761
	C157	C	0.112479	0.620141	0.673491
	C158	C	0.886837	0.619394	0.316010
	C159	C	0.111801	0.376656	0.314727
	C160	C	0.376544	0.683067	0.883332
	C161	C	0.623464	0.681513	0.106102
	C162	C	0.622647	0.322411	0.882400
	C163	C	0.375956	0.318591	0.107018
	C164	C	0.678134	0.887878	0.373517
	C165	C	0.681226	0.113008	0.613641
	C166	C	0.319432	0.888340	0.618446
	C167	C	0.321042	0.112030	0.372366
	C168	C	0.873947	0.388408	0.175772
	C169	C	0.125372	0.609653	0.177884
	C170	C	0.119744	0.387266	0.816738
	C171	C	0.876974	0.610569	0.812156
	C172	C	0.179263	0.877755	0.383082
	C173	C	0.178851	0.120238	0.607408
	C174	C	0.823172	0.118586	0.381990
	C175	C	0.817850	0.875166	0.607767
	C176	C	0.387464	0.178889	0.873411
	C177	C	0.613976	0.181398	0.116086
	C178	C	0.387439	0.818698	0.119559
	C179	C	0.613646	0.821899	0.871945
	C180	C	0.387018	0.877282	0.175846
	C181	C	0.615091	0.122170	0.171830
	C182	C	0.387951	0.121503	0.815701
	C183	C	0.614236	0.880101	0.815167
	C184	C	0.875867	0.180447	0.384233
	C185	C	0.122211	0.179054	0.606757
	C186	C	0.123815	0.817992	0.384533
	C187	C	0.873313	0.815175	0.607015
	C188	C	0.177745	0.387685	0.875257
	C189	C	0.181312	0.611255	0.118113
	C190	C	0.816715	0.388599	0.116780
	C191	C	0.821454	0.612175	0.871801
	C192	C	0.404226	0.091849	0.592368
	C193	C	0.595660	0.909204	0.592968
	C194	C	0.600329	0.093003	0.395051
	C195	C	0.403553	0.908796	0.397399
	C196	C	0.594440	0.404060	0.086653
	C197	C	0.596657	0.601376	0.900876
	C198	C	0.404317	0.597872	0.087108
	C199	C	0.402914	0.402656	0.902974
	C200	C	0.092879	0.595089	0.400371
	C201	C	0.905696	0.593939	0.590695
	C202	C	0.092515	0.401180	0.593002
	C203	C	0.905644	0.401503	0.399550
	C204	C	0.904371	0.591141	0.092194
	C205	C	0.095920	0.408041	0.092821
	C206	C	0.097834	0.592151	0.895262
	C207	C	0.900174	0.407554	0.897060
	C208	C	0.095362	0.901878	0.587536
	C209	C	0.097343	0.098713	0.401639
	C210	C	0.904014	0.095268	0.587845
	C211	C	0.903706	0.900389	0.404118
	C212	C	0.595495	0.101090	0.897421
	C213	C	0.407046	0.097287	0.091611
	C214	C	0.593024	0.904736	0.091264
	C215	C	0.408703	0.905679	0.900322
	Zn216	Zn	0.501640	0.001681	0.745904
	Zn217	Zn	0.500748	0.001086	0.243526
	Zn218	Zn	0.748403	0.501215	-0.006275
	Zn219	Zn	0.250267	0.500750	-0.004254
	Zn220	Zn	-0.000219	0.747409	0.496368
	Zn221	Zn	-0.001017	0.249358	0.495446
	Zn222	Zn	-0.001579	0.498592	0.743823
	Zn223	Zn	-0.000462	0.498495	0.246529
	Zn224	Zn	0.500442	0.752289	-0.004767
	Zn225	Zn	0.500665	0.250640	-0.005209
	Zn226	Zn	0.750723	-0.000876	0.494293
	Zn227	Zn	0.249378	-0.000594	0.494768
	N228	N	0.412627	0.965218	0.677003
	N229	N	0.590215	0.036570	0.676069
	N230	N	0.588552	0.965355	0.313025
	N231	N	0.413421	0.036403	0.313676
	N232	N	0.675178	0.418500	0.956723
	N233	N	0.679181	0.588333	0.029817
	N234	N	0.323184	0.585417	0.957621
	N235	N	0.322099	0.415782	0.033011
	N236	N	0.964009	0.677713	0.408735
	N237	N	0.034388	0.679741	0.584001
	N238	N	0.962703	0.318034	0.582950
	N239	N	0.035687	0.320488	0.409606
	N240	N	0.961629	0.412140	0.673960
	N241	N	0.036304	0.582740	0.671439
	N242	N	0.963394	0.584032	0.317025
	N243	N	0.034993	0.411440	0.315668
	N244	N	0.411599	0.683396	0.959775
	N245	N	0.588461	0.683053	0.029679
	N246	N	0.587657	0.321212	0.958948
	N247	N	0.410947	0.318233	0.030475
	N248	N	0.679125	0.963616	0.408589
	N249	N	0.678975	0.037279	0.578621
	N250	N	0.320830	0.963383	0.581372
	N251	N	0.321158	0.036407	0.408373
	N252	N	0.911445	0.463599	0.175559
	N253	N	0.089008	0.533953	0.177773
	N254	N	0.085873	0.463470	0.814676
	N255	N	0.910695	0.534331	0.812429
	N256	N	0.177316	0.914183	0.458438
	N257	N	0.178807	0.085633	0.531141
	N258	N	0.825507	0.081161	0.457120
	N259	N	0.820193	0.912219	0.532369
	N260	N	0.464618	0.180323	0.908376
	N261	N	0.536608	0.181129	0.081694
	N262	N	0.463889	0.820171	0.082949
	N263	N	0.536979	0.822373	0.908551
	N264	N	0.463175	0.914496	0.173912
	N265	N	0.538224	0.085742	0.171561
	N266	N	0.465443	0.088147	0.815380
	N267	N	0.538208	0.916239	0.816939
	N268	N	0.910719	0.180710	0.460826
	N269	N	0.087699	0.180467	0.529991
	N270	N	0.087879	0.817761	0.460683
	N271	N	0.909563	0.815187	0.531194
	N272	N	0.178943	0.463926	0.909250
	N273	N	0.178802	0.536746	0.080994
	N274	N	0.819134	0.463989	0.080328
	N275	N	0.821487	0.537035	0.908666
	O276	O	0.421818	0.635261	0.527352
	H277	H	0.423838	0.640786	0.518899
	H278	H	0.417685	0.627235	0.528120
	O279	O	0.454781	0.640820	0.561309
	H280	H	0.447758	0.651826	0.548016
	H281	H	0.459403	0.640011	0.566911
	O282	O	0.669076	0.453446	0.485548
	H283	H	0.681401	0.446919	0.477459
	H284	H	0.645105	0.441532	0.477325
	O285	O	1.036238	0.166488	-0.030549
	H286	H	1.022464	0.166665	-0.023224
	H287	H	1.033517	0.154113	-0.017957
	O288	O	0.145871	-0.170385	0.980996
	H289	H	0.135871	-0.151725	0.951695
	H290	H	0.172124	-0.199361	0.976196
	O291	O	0.453476	0.423887	0.487347
	H292	H	0.444530	0.407334	0.486394
	H293	H	0.444231	0.417934	0.485340
	O294	O	0.362703	0.572691	0.395693
	H295	H	0.349939	0.575348	0.397967
	H296	H	0.367685	0.565695	0.392184
	O297	O	0.801574	0.954054	1.195051
	H298	H	0.784527	0.949349	1.219108
	H299	H	0.814804	0.944769	1.199916
	O300	O	-0.171755	0.055292	0.015239
	H301	H	-0.183544	0.043467	0.031116
	H302	H	-0.160587	0.066942	0.016205
	O303	O	0.633139	0.605069	0.353681
	H304	H	0.622643	0.588985	0.356253
	H305	H	0.620626	0.596044	0.362365
	O306	O	1.026849	-0.044167	0.170487
	H307	H	1.028533	-0.067198	0.161248
	H308	H	1.009730	-0.048283	0.177542
	O309	O	0.361708	0.568444	0.358986
	H310	H	0.358185	0.582657	0.366591
	H311	H	0.354013	0.553451	0.364871
	O312	O	1.121725	0.976600	-0.145251
	H313	H	1.133021	0.976356	-0.131154
	H314	H	1.105043	0.976331	-0.153970
	O315	O	0.337503	0.524585	0.678583
	H316	H	0.328563	0.522007	0.690919
	H317	H	0.348327	0.544126	0.654644
	O318	O	0.686930	0.631225	0.596892
	H319	H	0.698609	0.630110	0.609336
	H320	H	0.683380	0.620295	0.606103
	O321	O	1.024200	-0.119091	1.161070
	H322	H	1.000757	-0.136030	1.162092
	H323	H	1.009747	-0.122446	1.165959
	O324	O	-0.161986	-0.194110	1.192169
	H325	H	-0.173967	-0.196409	1.208174
	H326	H	-0.171579	-0.199891	1.159067
	O327	O	0.528538	0.635481	0.471174
	H328	H	0.538593	0.643064	0.477203
	H329	H	0.524840	0.643917	0.478496
	O330	O	0.459828	0.562381	0.322650
	H331	H	0.432525	0.563099	0.325493
	H332	H	0.447415	0.549285	0.328832
	O333	O	0.984076	1.026592	1.113617
	H334	H	0.989664	1.020571	1.120583
	H335	H	0.986503	1.036721	1.127804
	O336	O	0.598872	0.562572	0.476695
	H337	H	0.603550	0.552313	0.484966
	H338	H	0.616462	0.570939	0.462289
	O339	O	0.883997	0.151696	0.936488
	H340	H	0.902292	0.152637	0.946654
	H341	H	0.890523	0.155128	0.935953
	O342	O	-0.029650	1.173639	0.828709
	H343	H	-0.036080	1.165531	0.830851
	H344	H	-0.039262	1.158782	0.830934
	O345	O	0.210863	0.993610	1.115217
	H346	H	0.218538	0.994823	1.136495
	H347	H	0.211345	0.981724	1.102257
	O348	O	0.456960	0.507406	0.479205
	H349	H	0.476750	0.507457	0.495253
	H350	H	0.452518	0.503458	0.493489
	O351	O	-0.040726	0.188156	0.171568
	H352	H	-0.036004	0.196197	0.190428
	H353	H	-0.013228	0.183975	0.172198
	O354	O	1.105192	1.169241	0.154831
	H355	H	1.122597	1.167388	0.122848
	H356	H	1.117924	1.152472	0.165268
	O357	O	0.176591	1.132363	0.032289
	H358	H	0.150658	1.126174	0.037120
	H359	H	0.190887	1.126772	0.027544
	O360	O	0.386525	0.556532	0.587087
	H361	H	0.389919	0.557222	0.592313
	H362	H	0.405991	0.549988	0.583056
	O363	O	0.620179	0.440589	0.407563
	H364	H	0.617030	0.432972	0.402223
	H365	H	0.618598	0.431021	0.402117
	O366	O	0.606811	0.402558	0.502638
	H367	H	0.596120	0.387711	0.512895
	H368	H	0.607865	0.398335	0.489804
	O369	O	0.339022	0.351928	0.520303
	H370	H	0.324083	0.348462	0.534063
	H371	H	0.323294	0.356899	0.537782
	O372	O	0.468896	0.342470	0.506320
	H373	H	0.466808	0.350309	0.503430
	H374	H	0.463071	0.331930	0.499881
	O375	O	0.447166	0.287989	0.699600
	H376	H	0.412885	0.282591	0.705299
	H377	H	0.439854	0.268353	0.717902
	O378	O	0.600993	0.461798	0.518226
	H379	H	0.607007	0.471779	0.528492
	H380	H	0.596249	0.463733	0.512118
	O381	O	0.460617	0.346785	0.392014
	H382	H	0.450288	0.350665	0.389198
	H383	H	0.456737	0.341741	0.398881
	O384	O	0.040625	0.815885	1.027303
	H385	H	0.053121	0.809227	1.021846
	H386	H	0.039139	0.806507	1.050002
	O387	O	0.907285	0.962552	-0.060366
	H388	H	0.894428	0.961350	-0.057130
	H389	H	0.912223	0.965531	-0.044187
	O390	O	0.489643	0.357346	0.384507
	H391	H	0.483988	0.361884	0.375622
	H392	H	0.480015	0.357555	0.397652
	O393	O	1.171264	0.043037	1.185305
	H394	H	1.174385	0.015118	1.185399
	H395	H	1.187205	0.046786	1.190627
	O396	O	-0.006264	0.813177	0.910463
	H397	H	0.002845	0.817154	0.921389
	H398	H	0.004296	0.810262	0.911765
	O399	O	0.430706	0.652373	0.444290
	H400	H	0.437357	0.638648	0.437315
	H401	H	0.436775	0.652923	0.463292
	O402	O	1.060697	-0.022526	0.804680
	H403	H	1.052949	-0.027239	0.805049
	H404	H	1.056418	-0.024562	0.803726
	O405	O	-0.178697	0.021992	-0.142823
	H406	H	-0.190374	0.022433	-0.153824
	H407	H	-0.194423	0.026042	-0.121682
	O408	O	0.895742	0.979091	0.848708
	H409	H	0.898533	0.990351	0.865715
	H410	H	0.869425	0.980877	0.850415
	O411	O	1.168396	0.824078	-0.144966
	H412	H	1.129605	0.821258	-0.158299
	H413	H	1.173093	0.849532	-0.156438
	O414	O	-0.011688	0.179916	0.938450
	H415	H	-0.022984	0.179602	0.929973
	H416	H	-0.017766	0.177366	0.954230
	O417	O	0.638373	0.668635	0.666608
	H418	H	0.632427	0.644389	0.676552
	H419	H	0.630152	0.658437	0.666132
	O420	O	0.039143	0.863672	-0.187040
	H421	H	0.038022	0.851877	-0.195398
	H422	H	0.019923	0.872817	-0.186378
	O423	O	0.785188	-0.213315	0.030542
	H424	H	0.763352	-0.234944	0.023465
	H425	H	0.800534	-0.220060	0.028261
	O426	O	0.179422	0.122089	0.878116
	H427	H	0.149335	0.121423	0.888073
	H428	H	0.175360	0.102514	0.884611
	O429	O	0.314901	0.382228	0.690373
	H430	H	0.305208	0.382068	0.705796
	H431	H	0.305292	0.395046	0.692593
