data_Molecule from HDF5

_cell_length_a		16.287882
_cell_length_b		16.142200
_cell_length_c		16.134018
_cell_angle_alpha	88.342812
_cell_angle_beta	89.789716
_cell_angle_gamma	90.466111
_symmetry_space_group_name_H-M	'P 1'
_symmetry_Int_Tables_number		1

loop_
	_symmetry_equiv_pos_as_xyz
	x,y,z

loop_
	_atom_site_label
	_atom_site_type_symbol
	_atom_site_fract_x
	_atom_site_fract_y
	_atom_site_fract_z
	H0	H	0.397905	0.829401	0.718455
	H1	H	0.596257	0.160903	0.702618
	H2	H	0.593614	0.826688	0.289772
	H3	H	0.400955	0.157625	0.278442
	H4	H	0.714346	0.401193	0.834129
	H5	H	0.712977	0.590162	0.163696
	H6	H	0.284437	0.599620	0.833909
	H7	H	0.283155	0.388003	0.162656
	H8	H	0.833644	0.709911	0.396305
	H9	H	0.161878	0.704525	0.591196
	H10	H	0.835444	0.271534	0.601990
	H11	H	0.163961	0.286567	0.405827
	H12	H	0.834619	0.388051	0.717528
	H13	H	0.163089	0.586230	0.705730
	H14	H	0.833498	0.594154	0.281618
	H15	H	0.162038	0.399756	0.287575
	H16	H	0.401959	0.712720	0.834389
	H17	H	0.594678	0.700070	0.165565
	H18	H	0.593074	0.292397	0.830065
	H19	H	0.397559	0.273593	0.161204
	H20	H	0.712084	0.828105	0.402127
	H21	H	0.714833	0.157633	0.591712
	H22	H	0.280768	0.828973	0.604774
	H23	H	0.286876	0.157911	0.393039
	H24	H	0.898092	0.329557	0.218381
	H25	H	0.096026	0.660540	0.204802
	H26	H	0.094658	0.326269	0.793920
	H27	H	0.901645	0.657139	0.778513
	H28	H	0.212697	0.900025	0.332431
	H29	H	0.213560	0.087758	0.661943
	H30	H	0.786255	0.097486	0.332375
	H31	H	0.780599	0.885063	0.661959
	H32	H	0.333065	0.211139	0.893681
	H33	H	0.660630	0.206400	0.090401
	H34	H	0.334962	0.773317	0.101949
	H35	H	0.663570	0.785832	0.903774
	H36	H	0.333836	0.888794	0.216005
	H37	H	0.661350	0.089491	0.206886
	H38	H	0.334185	0.095539	0.778785
	H39	H	0.662119	0.900158	0.785927
	H40	H	0.901882	0.212176	0.333818
	H41	H	0.094926	0.198322	0.664914
	H42	H	0.094117	0.788811	0.330582
	H43	H	0.897963	0.773786	0.662283
	H44	H	0.211023	0.328802	0.904852
	H45	H	0.214303	0.657915	0.092887
	H46	H	0.778771	0.330464	0.107374
	H47	H	0.788066	0.659586	0.895980
	H48	H	0.402318	0.113174	0.586702
	H49	H	0.592674	0.875033	0.590681
	H50	H	0.600305	0.112037	0.404923
	H51	H	0.406383	0.875816	0.412044
	H52	H	0.587061	0.393398	0.117271
	H53	H	0.582386	0.584546	0.884896
	H54	H	0.396674	0.588023	0.121331
	H55	H	0.391562	0.412949	0.877420
	H56	H	0.113212	0.598196	0.411785
	H57	H	0.880871	0.587537	0.585320
	H58	H	0.113259	0.398348	0.588725
	H59	H	0.881033	0.407644	0.401039
	H60	H	0.116792	0.401967	0.604985
	H61	H	0.882952	0.575248	0.588915
	H62	H	0.110772	0.579914	0.401989
	H63	H	0.877487	0.390947	0.409254
	H64	H	0.400746	0.570058	0.115422
	H65	H	0.592173	0.606621	0.876704
	H66	H	0.591808	0.397736	0.117315
	H67	H	0.413731	0.411992	0.883518
	H68	H	0.593519	0.113691	0.391673
	H69	H	0.589874	0.873969	0.600128
	H70	H	0.407134	0.111315	0.587035
	H71	H	0.398925	0.873509	0.411397
	H72	H	0.903941	0.615421	0.095598
	H73	H	0.099818	0.373364	0.090545
	H74	H	0.083875	0.611347	0.894237
	H75	H	0.902623	0.376794	0.916802
	H76	H	0.079951	0.896726	0.613230
	H77	H	0.095672	0.092417	0.378250
	H78	H	0.900307	0.074055	0.615842
	H79	H	0.905389	0.899483	0.379279
	H80	H	0.607853	0.075343	0.908243
	H81	H	0.375069	0.092800	0.094660
	H82	H	0.617170	0.896856	0.098495
	H83	H	0.380024	0.900982	0.905760
	H84	H	0.616021	0.895046	0.091200
	H85	H	0.382948	0.085271	0.076810
	H86	H	0.620219	0.094822	0.880788
	H87	H	0.381859	0.900031	0.911354
	H88	H	0.910264	0.077363	0.614235
	H89	H	0.092794	0.090204	0.379367
	H90	H	0.094597	0.886979	0.619336
	H91	H	0.899952	0.904499	0.377957
	H92	H	0.092168	0.609514	0.910727
	H93	H	0.087977	0.373249	0.105960
	H94	H	0.912209	0.609827	0.085470
	H95	H	0.898160	0.373163	0.909787
	H96	H	0.405016	0.111917	0.583393
	H97	H	0.584231	0.877633	0.593071
	H98	H	0.584843	0.107944	0.403728
	H99	H	0.403090	0.873201	0.404486
	H100	H	0.586969	0.400445	0.114511
	H101	H	0.606743	0.586836	0.878516
	H102	H	0.414784	0.584640	0.114515
	H103	H	0.403110	0.392766	0.874122
	H104	H	0.119487	0.596432	0.391392
	H105	H	0.877402	0.583447	0.597520
	H106	H	0.119522	0.385928	0.598356
	H107	H	0.884335	0.404007	0.418557
	H108	H	0.898129	0.612591	0.082336
	H109	H	0.081324	0.380314	0.090074
	H110	H	0.102384	0.615922	0.895835
	H111	H	0.906576	0.374541	0.908772
	H112	H	0.095778	0.906004	0.614924
	H113	H	0.092702	0.094263	0.378855
	H114	H	0.902958	0.084681	0.618794
	H115	H	0.906424	0.907670	0.380076
	H116	H	0.615513	0.109631	0.911743
	H117	H	0.380676	0.072374	0.094170
	H118	H	0.613503	0.901502	0.093312
	H119	H	0.382054	0.905575	0.908738
	C120	C	0.375871	0.002560	0.618995
	C121	C	0.619170	0.984864	0.619293
	C122	C	0.619921	0.001655	0.374786
	C123	C	0.376141	0.983834	0.376925
	C124	C	0.617706	0.373585	0.006488
	C125	C	0.620745	0.617064	0.989963
	C126	C	0.376539	0.613982	0.007811
	C127	C	0.374548	0.372710	0.987809
	C128	C	0.005970	0.618809	0.373438
	C129	C	0.989120	0.611057	0.617473
	C130	C	0.007880	0.365766	0.625398
	C131	C	0.989560	0.374200	0.380649
	C132	C	0.875369	0.503428	0.120527
	C133	C	0.119195	0.485207	0.120486
	C134	C	0.119948	0.502395	0.876463
	C135	C	0.876090	0.484118	0.878535
	C136	C	0.118839	0.872018	0.506013
	C137	C	0.121023	0.115971	0.488977
	C138	C	0.877247	0.112495	0.507049
	C139	C	0.875347	0.870997	0.488305
	C140	C	0.506103	0.120471	0.871505
	C141	C	0.487928	0.112666	0.116248
	C142	C	0.506830	0.868167	0.123335
	C143	C	0.489928	0.875235	0.879667
	C144	C	0.377356	0.878627	0.679202
	C145	C	0.616922	0.110523	0.668107
	C146	C	0.615196	0.876484	0.325020
	C147	C	0.380268	0.108279	0.317661
	C148	C	0.674586	0.380369	0.882703
	C149	C	0.674967	0.611212	0.114499
	C150	C	0.322136	0.617385	0.883504
	C151	C	0.320113	0.369663	0.112497
	C152	C	0.882657	0.672477	0.376149
	C153	C	0.112943	0.666446	0.612461
	C154	C	0.884266	0.309741	0.622701
	C155	C	0.114097	0.322308	0.384273
	C156	C	0.883909	0.367467	0.680286
	C157	C	0.113654	0.607553	0.669566
	C158	C	0.882541	0.614878	0.318893
	C159	C	0.113321	0.378948	0.325678
	C160	C	0.380542	0.673853	0.883782
	C161	C	0.616353	0.666131	0.115425
	C162	C	0.614764	0.325679	0.880546
	C163	C	0.377119	0.312649	0.111875
	C164	C	0.674141	0.877459	0.380432
	C165	C	0.676355	0.108676	0.613239
	C166	C	0.319410	0.878471	0.622173
	C167	C	0.323522	0.108482	0.374852
	C168	C	0.877311	0.378908	0.179528
	C169	C	0.116629	0.610541	0.169652
	C170	C	0.115357	0.376570	0.828257
	C171	C	0.880794	0.608421	0.818519
	C172	C	0.174367	0.878497	0.381494
	C173	C	0.175634	0.109325	0.613090
	C174	C	0.823433	0.115707	0.382330
	C175	C	0.818848	0.867384	0.612510
	C176	C	0.382328	0.174054	0.873609
	C177	C	0.611807	0.168270	0.111796
	C178	C	0.383659	0.811363	0.121893
	C179	C	0.614032	0.822429	0.882795
	C180	C	0.383023	0.869194	0.178449
	C181	C	0.612217	0.110118	0.169523
	C182	C	0.382724	0.116427	0.816582
	C183	C	0.613471	0.879593	0.824272
	C184	C	0.880996	0.172873	0.383051
	C185	C	0.116816	0.164441	0.614534
	C186	C	0.115628	0.822734	0.380731
	C187	C	0.877519	0.812028	0.612815
	C188	C	0.173866	0.377993	0.883044
	C189	C	0.175819	0.609110	0.114457
	C190	C	0.818326	0.379410	0.124127
	C191	C	0.824117	0.609448	0.876813
	C192	C	0.398388	0.089705	0.593223
	C193	C	0.595730	0.897949	0.600370
	C194	C	0.599132	0.088550	0.394318
	C195	C	0.396833	0.896743	0.402040
	C196	C	0.595414	0.391689	0.093780
	C197	C	0.600076	0.598304	0.902677
	C198	C	0.397893	0.588343	0.094761
	C199	C	0.396396	0.398486	0.900637
	C200	C	0.092221	0.597777	0.395371
	C201	C	0.902661	0.588564	0.596765
	C202	C	0.094213	0.388559	0.603830
	C203	C	0.903371	0.394807	0.402980
	C204	C	0.898148	0.590311	0.095226
	C205	C	0.096419	0.398126	0.101313
	C206	C	0.099162	0.589651	0.894625
	C207	C	0.896385	0.397192	0.904040
	C208	C	0.096764	0.890927	0.593396
	C209	C	0.100026	0.097783	0.401528
	C210	C	0.898395	0.086363	0.593784
	C211	C	0.897436	0.896478	0.401482
	C212	C	0.592321	0.099444	0.893684
	C213	C	0.401885	0.090110	0.094995
	C214	C	0.593169	0.890967	0.100917
	C215	C	0.403657	0.896136	0.901944
	Zn216	Zn	0.497473	-0.004373	0.747272
	Zn217	Zn	0.496970	-0.008289	0.247794
	Zn218	Zn	0.747509	0.494737	-0.000225
	Zn219	Zn	0.247250	0.493637	-0.002045
	Zn220	Zn	-0.002838	0.744043	0.496891
	Zn221	Zn	-0.001317	0.241482	0.499587
	Zn222	Zn	-0.001803	0.490793	0.749931
	Zn223	Zn	-0.003196	0.494788	0.248208
	Zn224	Zn	0.498804	0.743118	-0.000063
	Zn225	Zn	0.496333	0.245447	-0.004638
	Zn226	Zn	0.747802	-0.007544	0.497383
	Zn227	Zn	0.248232	-0.006467	0.497258
	N228	N	0.411552	0.956898	0.677321
	N229	N	0.582046	0.032388	0.672244
	N230	N	0.582113	0.954716	0.321263
	N231	N	0.412317	0.029570	0.318954
	N232	N	0.676476	0.409375	0.962053
	N233	N	0.678067	0.581547	0.035403
	N234	N	0.319590	0.580949	0.961662
	N235	N	0.318359	0.406269	0.034248
	N236	N	0.960372	0.675167	0.409072
	N237	N	0.034424	0.668790	0.580867
	N238	N	0.962075	0.308628	0.589484
	N239	N	0.036257	0.319155	0.417975
	N240	N	0.961715	0.401527	0.682286
	N241	N	0.035739	0.573862	0.672708
	N242	N	0.960250	0.581914	0.317318
	N243	N	0.035046	0.410599	0.323262
	N244	N	0.413810	0.671789	0.962153
	N245	N	0.583295	0.669920	0.036976
	N246	N	0.580099	0.321325	0.958565
	N247	N	0.410493	0.314664	0.033323
	N248	N	0.677272	0.956301	0.410645
	N249	N	0.677915	0.029548	0.583742
	N250	N	0.318501	0.956697	0.585284
	N251	N	0.320949	0.030107	0.410974
	N252	N	0.912071	0.456982	0.177289
	N253	N	0.081903	0.532436	0.173583
	N254	N	0.082441	0.454805	0.823781
	N255	N	0.912232	0.529436	0.819338
	N256	N	0.176528	0.908439	0.460516
	N257	N	0.178354	0.079854	0.533952
	N258	N	0.821060	0.078790	0.460471
	N259	N	0.817512	0.903530	0.534110
	N260	N	0.460107	0.176670	0.906969
	N261	N	0.533725	0.169963	0.079024
	N262	N	0.461670	0.810627	0.088477
	N263	N	0.536257	0.819626	0.916589
	N264	N	0.460676	0.903791	0.179437
	N265	N	0.534451	0.076189	0.172311
	N266	N	0.460687	0.083826	0.815206
	N267	N	0.535366	0.911680	0.822214
	N268	N	0.913921	0.170756	0.461603
	N269	N	0.083569	0.168611	0.536292
	N270	N	0.081993	0.818578	0.459243
	N271	N	0.911851	0.813960	0.534597
	N272	N	0.176590	0.457098	0.912529
	N273	N	0.177453	0.530107	0.084613
	N274	N	0.817041	0.457870	0.088011
	N275	N	0.821057	0.531343	0.913375
	O276	O	0.967075	0.948582	0.020913
	H277	H	0.966784	0.946476	0.013311
	H278	H	0.959800	0.950429	0.030232
	O279	O	-0.056208	0.099845	0.879004
	H280	H	-0.072291	0.100471	0.876099
	H281	H	-0.064069	0.104167	0.876953
	O282	O	-0.075808	0.068450	-0.043771
	H283	H	-0.084096	0.058318	-0.030673
	H284	H	-0.080006	0.077953	-0.047917
	O285	O	0.498258	0.515080	0.528913
	H286	H	0.487440	0.519193	0.525871
	H287	H	0.487465	0.515010	0.526387
	O288	O	-0.036857	-0.068099	-0.027851
	H289	H	-0.033780	-0.064353	-0.032641
	H290	H	-0.034238	-0.059461	-0.035588
	O291	O	-0.062169	0.934266	0.046773
	H292	H	-0.078968	0.932156	0.045253
	H293	H	-0.066819	0.940916	0.039595
	O294	O	-0.045687	1.052617	-0.065429
	H295	H	-0.042555	1.059389	-0.066709
	H296	H	-0.048545	1.047199	-0.065688
	O297	O	0.426086	0.492021	0.443475
	H298	H	0.417642	0.490322	0.451579
	H299	H	0.421839	0.484189	0.446631
	O300	O	0.423779	0.494669	0.434506
	H301	H	0.426121	0.490716	0.435756
	H302	H	0.419696	0.477786	0.431372
	O303	O	0.993201	-0.030465	1.013215
	H304	H	1.001237	-0.027794	1.011212
	H305	H	0.999501	-0.024897	1.004916
	O306	O	0.981289	2.026605	0.998877
	H307	H	0.981461	2.018798	1.006581
	H308	H	0.985452	2.021336	1.002425
	O309	O	-0.001424	0.960624	0.951341
	H310	H	0.000354	0.963495	0.948421
	H311	H	0.002716	0.964259	0.951953
	O312	O	-0.042236	0.014254	1.027237
	H313	H	-0.039091	0.010494	1.027716
	H314	H	-0.045082	0.013920	1.029686
	O315	O	0.507701	0.552168	0.526299
	H316	H	0.521528	0.552115	0.531778
	H317	H	0.503425	0.555861	0.535164
	O318	O	0.413923	-0.505211	0.527590
	H319	H	0.412518	-0.502440	0.534189
	H320	H	0.418089	-0.513598	0.526569
	O321	O	0.504242	0.517747	0.504367
	H322	H	0.502391	0.528709	0.502300
	H323	H	0.496814	0.511390	0.513371
	O324	O	1.013382	0.015548	1.001760
	H325	H	1.006688	0.018734	1.002193
	H326	H	0.996943	0.015665	1.005612
	O327	O	0.928626	1.026122	1.008972
	H328	H	0.929141	1.021978	1.004989
	H329	H	0.915339	1.019835	1.009229
	O330	O	0.434519	0.584217	0.433650
	H331	H	0.430516	0.586171	0.425001
	H332	H	0.437415	0.599875	0.420241
	O333	O	0.527481	0.448627	0.567242
	H334	H	0.519931	0.448154	0.568584
	H335	H	0.526344	0.451843	0.574501
	O336	O	0.522406	0.506751	0.546890
	H337	H	0.512252	0.499280	0.551709
	H338	H	0.511602	0.506162	0.548020
	O339	O	0.500991	0.529529	0.516623
	H340	H	0.506684	0.535778	0.518743
	H341	H	0.493740	0.536687	0.506791
	O342	O	0.566923	0.516485	0.496918
	H343	H	0.566860	0.520132	0.500795
	H344	H	0.569020	0.521736	0.494830
	O345	O	0.480984	0.451185	0.538408
	H346	H	0.484197	0.447878	0.533071
	H347	H	0.478609	0.449080	0.545576
