data_Molecule from HDF5

_cell_length_a		15.967923
_cell_length_b		16.092558
_cell_length_c		16.462854
_cell_angle_alpha	90.626264
_cell_angle_beta	90.937938
_cell_angle_gamma	90.017030
_symmetry_space_group_name_H-M	'P 1'
_symmetry_Int_Tables_number		1

loop_
	_symmetry_equiv_pos_as_xyz
	x,y,z

loop_
	_atom_site_label
	_atom_site_type_symbol
	_atom_site_fract_x
	_atom_site_fract_y
	_atom_site_fract_z
	H0	H	0.403184	0.838528	0.706883
	H1	H	0.610725	0.165941	0.718834
	H2	H	0.603685	0.839979	0.279500
	H3	H	0.396158	0.167766	0.278536
	H4	H	0.714404	0.403066	0.831967
	H5	H	0.722360	0.602170	0.158301
	H6	H	0.286371	0.598205	0.833426
	H7	H	0.294536	0.410080	0.159654
	H8	H	0.836965	0.714337	0.397396
	H9	H	0.172593	0.716277	0.595849
	H10	H	0.836551	0.296282	0.585608
	H11	H	0.172508	0.291035	0.401989
	H12	H	0.838810	0.401646	0.707236
	H13	H	0.169321	0.607451	0.717293
	H14	H	0.840381	0.604777	0.275605
	H15	H	0.171862	0.400861	0.282859
	H16	H	0.402208	0.714793	0.832583
	H17	H	0.607918	0.722309	0.157669
	H18	H	0.601455	0.283292	0.834787
	H19	H	0.409136	0.290434	0.159501
	H20	H	0.711972	0.837823	0.401433
	H21	H	0.713656	0.171492	0.594510
	H22	H	0.294737	0.837034	0.585367
	H23	H	0.292312	0.170780	0.401218
	H24	H	0.904936	0.338426	0.207293
	H25	H	0.113019	0.665607	0.218326
	H26	H	0.106541	0.339761	0.779161
	H27	H	0.898236	0.666980	0.778706
	H28	H	0.213704	0.906438	0.331473
	H29	H	0.222769	0.105177	0.657483
	H30	H	0.783869	0.101291	0.334031
	H31	H	0.793419	0.909935	0.660188
	H32	H	0.336461	0.212008	0.899352
	H33	H	0.671846	0.214844	0.096814
	H34	H	0.335379	0.794115	0.085235
	H35	H	0.672081	0.791608	0.902839
	H36	H	0.336522	0.902567	0.206547
	H37	H	0.667582	0.107763	0.218368
	H38	H	0.339146	0.103230	0.777782
	H39	H	0.670037	0.898886	0.781188
	H40	H	0.901840	0.217540	0.333317
	H41	H	0.106630	0.221800	0.658471
	H42	H	0.103673	0.783763	0.334684
	H43	H	0.907848	0.790492	0.659262
	H44	H	0.211555	0.336739	0.902692
	H45	H	0.216308	0.670594	0.094019
	H46	H	0.797356	0.335348	0.085546
	H47	H	0.792265	0.669576	0.900774
	H48	H	0.414245	0.123442	0.591664
	H49	H	0.588158	0.887091	0.591659
	H50	H	0.585996	0.124590	0.392083
	H51	H	0.418975	0.889306	0.401077
	H52	H	0.597635	0.410455	0.110389
	H53	H	0.596339	0.599183	0.879507
	H54	H	0.405988	0.588379	0.111256
	H55	H	0.407489	0.409572	0.880752
	H56	H	0.123631	0.587315	0.402279
	H57	H	0.885965	0.594953	0.587542
	H58	H	0.127116	0.413729	0.600722
	H59	H	0.885277	0.410741	0.396493
	H60	H	0.125896	0.406402	0.586549
	H61	H	0.884635	0.596457	0.589433
	H62	H	0.126757	0.599084	0.402625
	H63	H	0.886377	0.412026	0.398968
	H64	H	0.427244	0.599536	0.108496
	H65	H	0.599328	0.594348	0.878980
	H66	H	0.603552	0.405750	0.114398
	H67	H	0.410418	0.403657	0.880859
	H68	H	0.584792	0.117921	0.415658
	H69	H	0.599331	0.886546	0.581692
	H70	H	0.417443	0.122038	0.590753
	H71	H	0.402577	0.883879	0.403812
	H72	H	0.917214	0.619627	0.085978
	H73	H	0.097238	0.383651	0.093589
	H74	H	0.089641	0.624512	0.894095
	H75	H	0.905302	0.381449	0.895649
	H76	H	0.092833	0.908022	0.609911
	H77	H	0.107259	0.102170	0.374541
	H78	H	0.905288	0.101953	0.613544
	H79	H	0.910411	0.908001	0.381034
	H80	H	0.622288	0.087339	0.906411
	H81	H	0.385129	0.091082	0.089446
	H82	H	0.621957	0.910278	0.085332
	H83	H	0.388033	0.912522	0.905550
	H84	H	0.620371	0.921649	0.090276
	H85	H	0.381763	0.099590	0.091642
	H86	H	0.625545	0.094002	0.900453
	H87	H	0.384907	0.916938	0.889945
	H88	H	0.913805	0.097083	0.610895
	H89	H	0.093347	0.085620	0.383768
	H90	H	0.107563	0.906855	0.614714
	H91	H	0.906258	0.904918	0.379414
	H92	H	0.087532	0.619094	0.911682
	H93	H	0.096039	0.384714	0.088096
	H94	H	0.912342	0.623160	0.090639
	H95	H	0.915218	0.383638	0.892112
	H96	H	0.414659	0.122599	0.589171
	H97	H	0.602736	0.881076	0.595651
	H98	H	0.606288	0.127231	0.406337
	H99	H	0.410158	0.881827	0.387597
	H100	H	0.605026	0.414284	0.111594
	H101	H	0.593573	0.594944	0.881266
	H102	H	0.408019	0.613030	0.116638
	H103	H	0.404573	0.403951	0.878132
	H104	H	0.121507	0.594505	0.412110
	H105	H	0.885179	0.597359	0.586971
	H106	H	0.121418	0.421884	0.587303
	H107	H	0.886007	0.414088	0.397699
	H108	H	0.919210	0.620958	0.091505
	H109	H	0.101474	0.382875	0.090307
	H110	H	0.104912	0.625638	0.905574
	H111	H	0.912110	0.385520	0.902258
	H112	H	0.101797	0.919012	0.609693
	H113	H	0.085031	0.106019	0.380131
	H114	H	0.914996	0.106294	0.612383
	H115	H	0.905572	0.910020	0.381377
	H116	H	0.623919	0.095922	0.910193
	H117	H	0.384663	0.097276	0.082874
	H118	H	0.624697	0.912110	0.097212
	H119	H	0.380620	0.901052	0.893991
	C120	C	0.385629	0.012687	0.615751
	C121	C	0.626264	0.994294	0.619187
	C122	C	0.621946	0.013458	0.375804
	C123	C	0.380955	0.994840	0.371252
	C124	C	0.627999	0.380212	0.004490
	C125	C	0.627612	0.626381	0.986989
	C126	C	0.382372	0.626383	0.004435
	C127	C	0.381719	0.380195	0.987761
	C128	C	0.014118	0.623358	0.375009
	C129	C	0.995573	0.625482	0.618076
	C130	C	0.013984	0.384772	0.616497
	C131	C	0.996207	0.382436	0.372388
	C132	C	0.886595	0.511687	0.115524
	C133	C	0.128178	0.493581	0.119567
	C134	C	0.123331	0.513058	0.875747
	C135	C	0.881418	0.493574	0.870777
	C136	C	0.127597	0.882004	0.504068
	C137	C	0.126306	0.127167	0.487065
	C138	C	0.880901	0.128189	0.504429
	C139	C	0.881053	0.881460	0.488471
	C140	C	0.513579	0.121736	0.875890
	C141	C	0.494203	0.125298	0.118643
	C142	C	0.511762	0.884342	0.116517
	C143	C	0.495334	0.881075	0.871796
	C144	C	0.385288	0.887860	0.668858
	C145	C	0.627596	0.117821	0.677928
	C146	C	0.622034	0.889128	0.318719
	C147	C	0.379389	0.118991	0.317232
	C148	C	0.678961	0.382144	0.881195
	C149	C	0.684723	0.623995	0.109472
	C150	C	0.324845	0.620382	0.882079
	C151	C	0.330209	0.386920	0.110835
	C152	C	0.887588	0.677572	0.376626
	C153	C	0.122052	0.679768	0.616532
	C154	C	0.887306	0.331197	0.609012
	C155	C	0.122413	0.327542	0.379247
	C156	C	0.888379	0.384065	0.669180
	C157	C	0.120291	0.625899	0.677047
	C158	C	0.889310	0.623434	0.315793
	C159	C	0.121880	0.382092	0.319947
	C160	C	0.382575	0.678254	0.881450
	C161	C	0.627681	0.683599	0.109097
	C162	C	0.622911	0.322455	0.882681
	C163	C	0.387269	0.327692	0.110692
	C164	C	0.676157	0.887961	0.379189
	C165	C	0.679030	0.120605	0.616415
	C166	C	0.331767	0.886787	0.608105
	C167	C	0.327481	0.120463	0.378059
	C168	C	0.886590	0.387245	0.169085
	C169	C	0.130047	0.617188	0.177915
	C170	C	0.123936	0.388642	0.818699
	C171	C	0.880511	0.617689	0.816912
	C172	C	0.178420	0.884872	0.380757
	C173	C	0.184150	0.125441	0.609246
	C174	C	0.822936	0.122866	0.382481
	C175	C	0.829001	0.887095	0.610917
	C176	C	0.387184	0.175864	0.878153
	C177	C	0.621066	0.178945	0.117449
	C178	C	0.385861	0.829877	0.108735
	C179	C	0.621439	0.827023	0.879097
	C180	C	0.386383	0.884149	0.168790
	C181	C	0.618758	0.125935	0.178014
	C182	C	0.388486	0.122001	0.817615
	C183	C	0.620613	0.880754	0.819016
	C184	C	0.881581	0.180737	0.381973
	C185	C	0.126289	0.183301	0.609539
	C186	C	0.123762	0.823871	0.382532
	C187	C	0.886505	0.827889	0.610711
	C188	C	0.176402	0.387076	0.880189
	C189	C	0.181497	0.619687	0.116198
	C190	C	0.832934	0.385725	0.108598
	C191	C	0.827712	0.619072	0.877713
	C192	C	0.408557	0.100022	0.596318
	C193	C	0.603612	0.907454	0.596325
	C194	C	0.599149	0.100553	0.398076
	C195	C	0.403808	0.907622	0.391504
	C196	C	0.608169	0.403381	0.090029
	C197	C	0.603647	0.602988	0.901918
	C198	C	0.406602	0.606276	0.089846
	C199	C	0.401543	0.399696	0.902161
	C200	C	0.101503	0.600478	0.398803
	C201	C	0.907850	0.602761	0.594981
	C202	C	0.101922	0.407326	0.597344
	C203	C	0.908462	0.405558	0.391984
	C204	C	0.909454	0.598853	0.095332
	C205	C	0.104994	0.406393	0.097362
	C206	C	0.100697	0.600553	0.897462
	C207	C	0.904167	0.406002	0.890651
	C208	C	0.106888	0.904785	0.589395
	C209	C	0.102469	0.104512	0.401702
	C210	C	0.904426	0.107807	0.589998
	C211	C	0.901326	0.901632	0.402841
	C212	C	0.601213	0.099081	0.898856
	C213	C	0.406612	0.102720	0.094830
	C214	C	0.599607	0.907777	0.096905
	C215	C	0.407239	0.903571	0.890871
	Zn216	Zn	0.505261	0.002368	0.745347
	Zn217	Zn	0.501654	0.004877	0.245577
	Zn218	Zn	0.757082	0.502430	-0.005279
	Zn219	Zn	0.252257	0.503656	-0.003354
	Zn220	Zn	0.005059	0.752032	0.496442
	Zn221	Zn	0.004712	0.257369	0.495496
	Zn222	Zn	0.003929	0.503462	0.744911
	Zn223	Zn	0.006199	0.502641	0.245456
	Zn224	Zn	0.504040	0.755891	-0.005038
	Zn225	Zn	0.504758	0.250698	-0.003190
	Zn226	Zn	0.750928	0.004931	0.497285
	Zn227	Zn	0.256559	0.004576	0.494580
	N228	N	0.418128	0.967014	0.673539
	N229	N	0.595546	0.038299	0.679837
	N230	N	0.589374	0.968260	0.316374
	N231	N	0.411846	0.039893	0.312880
	N232	N	0.682223	0.417536	0.957861
	N233	N	0.684979	0.589256	0.032546
	N234	N	0.324599	0.588825	0.959490
	N235	N	0.326577	0.418828	0.033563
	N236	N	0.966252	0.677617	0.412742
	N237	N	0.043616	0.679537	0.580485
	N238	N	0.966367	0.331542	0.576744
	N239	N	0.043294	0.327493	0.411199
	N240	N	0.968140	0.416631	0.673899
	N241	N	0.040635	0.592994	0.678212
	N242	N	0.969034	0.590889	0.314546
	N243	N	0.042446	0.415386	0.315702
	N244	N	0.417810	0.682036	0.958445
	N245	N	0.592898	0.685187	0.031980
	N246	N	0.592029	0.321130	0.960363
	N247	N	0.418468	0.323296	0.033287
	N248	N	0.676419	0.966291	0.413867
	N249	N	0.678511	0.042893	0.580528
	N250	N	0.331794	0.965380	0.575690
	N251	N	0.328204	0.042236	0.411115
	N252	N	0.919136	0.466562	0.173552
	N253	N	0.097417	0.537908	0.179986
	N254	N	0.091626	0.468094	0.815892
	N255	N	0.913385	0.538655	0.812656
	N256	N	0.181098	0.920282	0.457384
	N257	N	0.184343	0.091081	0.532125
	N258	N	0.822473	0.090997	0.459774
	N259	N	0.825582	0.919737	0.533971
	N260	N	0.465903	0.175861	0.913912
	N261	N	0.542585	0.178765	0.081318
	N262	N	0.465063	0.829916	0.076912
	N263	N	0.542583	0.827140	0.911195
	N264	N	0.465830	0.917112	0.173796
	N265	N	0.539034	0.093119	0.178674
	N266	N	0.467983	0.088881	0.816175
	N267	N	0.541058	0.913699	0.814459
	N268	N	0.916863	0.184195	0.458801
	N269	N	0.090909	0.184540	0.532712
	N270	N	0.092746	0.821961	0.460026
	N271	N	0.918164	0.824192	0.533399
	N272	N	0.176009	0.465364	0.915022
	N273	N	0.180518	0.541891	0.080538
	N274	N	0.832731	0.464075	0.075898
	N275	N	0.827981	0.540782	0.910403
	O276	O	0.061551	-0.020749	-0.028790
	H277	H	0.068331	-0.021136	-0.029124
	H278	H	0.056361	-0.027992	-0.035454
	O279	O	0.597759	0.515893	0.587644
	H280	H	0.609068	0.525916	0.593273
	H281	H	0.600165	0.500867	0.592290
	O282	O	0.423020	0.542790	0.506524
	H283	H	0.427783	0.547043	0.505560
	H284	H	0.417751	0.547458	0.502268
	O285	O	0.983885	-0.015834	0.957829
	H286	H	0.985286	-0.018094	0.946837
	H287	H	0.979555	-0.015642	0.953586
	O288	O	0.978865	-0.106307	-0.008896
	H289	H	0.980312	-0.118352	-0.007482
	H290	H	0.988455	-0.108105	-0.005050
	O291	O	0.469192	0.396622	0.596074
	H292	H	0.471398	0.385035	0.601478
	H293	H	0.461401	0.400853	0.592228
	O294	O	0.901360	0.022713	0.973540
	H295	H	0.911118	0.007280	0.971196
	H296	H	0.892681	0.009313	0.976010
	O297	O	0.022117	-0.021222	-0.023491
	H298	H	0.006699	-0.019060	-0.012943
	H299	H	0.022790	-0.014058	-0.011622
	O300	O	0.539283	0.508013	0.437816
	H301	H	0.537050	0.504802	0.434752
	H302	H	0.542596	0.517091	0.447873
	O303	O	0.518435	0.595333	0.577907
	H304	H	0.526107	0.602602	0.579734
	H305	H	0.511756	0.590640	0.576934
	O306	O	0.980469	-0.028351	0.079252
	H307	H	0.977244	-0.023978	0.082964
	H308	H	0.985917	-0.021143	0.083316
	O309	O	-0.026261	-0.023700	1.032945
	H310	H	-0.035686	-0.021840	1.028740
	H311	H	-0.023849	-0.012253	1.019557
	O312	O	1.003357	0.998739	1.023468
	H313	H	1.006318	1.004510	1.020233
	H314	H	1.001749	1.000598	1.024273
	O315	O	0.493670	0.495156	0.481143
	H316	H	0.494811	0.494402	0.477014
	H317	H	0.497711	0.505297	0.477812
	O318	O	0.526294	0.457667	0.594015
	H319	H	0.520707	0.461042	0.592740
	H320	H	0.538888	0.470849	0.592481
	O321	O	0.082822	1.010685	1.099150
	H322	H	0.074214	1.014295	1.097177
	H323	H	0.078156	1.017214	1.093810
	O324	O	0.581372	0.483630	0.497410
	H325	H	0.572583	0.466877	0.485776
	H326	H	0.581638	0.485213	0.486223
	O327	O	0.461468	0.457281	0.489983
	H328	H	0.459169	0.470179	0.498311
	H329	H	0.464887	0.466702	0.484981
	O330	O	0.581325	0.532915	0.334340
	H331	H	0.585783	0.531687	0.325923
	H332	H	0.570815	0.533274	0.332837
	O333	O	0.534295	0.578949	0.485531
	H334	H	0.541117	0.590282	0.494987
	H335	H	0.544855	0.564245	0.483291
	O336	O	0.510882	0.565642	0.516770
	H337	H	0.514848	0.576302	0.524793
	H338	H	0.509820	0.566106	0.522719
	O339	O	1.020877	1.031851	-0.029969
	H340	H	1.025434	1.033999	-0.022679
	H341	H	1.028037	1.024361	-0.025584
	O342	O	0.599495	0.579837	0.452540
	H343	H	0.609786	0.576507	0.464797
	H344	H	0.599328	0.580080	0.443845
	O345	O	0.477453	0.576702	0.439159
	H346	H	0.476409	0.577113	0.427946
	H347	H	0.480638	0.575746	0.444469
	O348	O	-0.028094	0.040942	0.056063
	H349	H	-0.018656	0.046800	0.064461
	H350	H	-0.027801	0.045056	0.064917
	O351	O	0.053791	1.045860	1.028028
	H352	H	0.056513	1.036024	1.030046
	H353	H	0.060962	1.040339	1.015977
	O354	O	0.417670	0.531676	0.478191
	H355	H	0.419219	0.526257	0.483708
	H356	H	0.409452	0.533280	0.482670
	O357	O	-0.073398	1.013671	0.971756
	H358	H	-0.072749	1.024162	0.970025
	H359	H	-0.079255	1.009672	0.969629
