data_Molecule from HDF5

_cell_length_a		16.405798
_cell_length_b		16.174396
_cell_length_c		15.991863
_cell_angle_alpha	90.953465
_cell_angle_beta	89.859962
_cell_angle_gamma	89.698062
_symmetry_space_group_name_H-M	'P 1'
_symmetry_Int_Tables_number		1

loop_
	_symmetry_equiv_pos_as_xyz
	x,y,z

loop_
	_atom_site_label
	_atom_site_type_symbol
	_atom_site_fract_x
	_atom_site_fract_y
	_atom_site_fract_z
	H0	H	0.398716	0.832003	0.706957
	H1	H	0.589005	0.162864	0.713187
	H2	H	0.589142	0.832648	0.281791
	H3	H	0.396050	0.164292	0.292288
	H4	H	0.707122	0.395155	0.829773
	H5	H	0.709632	0.603005	0.160953
	H6	H	0.279179	0.598003	0.830574
	H7	H	0.274529	0.396335	0.159345
	H8	H	0.831185	0.713052	0.398640
	H9	H	0.154876	0.714770	0.600808
	H10	H	0.830546	0.284670	0.595297
	H11	H	0.153314	0.275185	0.390056
	H12	H	0.829862	0.403527	0.708294
	H13	H	0.156383	0.595095	0.711125
	H14	H	0.829211	0.593667	0.284710
	H15	H	0.154909	0.394836	0.277866
	H16	H	0.395504	0.710455	0.830495
	H17	H	0.590136	0.713400	0.163731
	H18	H	0.593674	0.280237	0.832306
	H19	H	0.396972	0.294072	0.164989
	H20	H	0.711633	0.834319	0.390899
	H21	H	0.710933	0.160900	0.604225
	H22	H	0.274179	0.835413	0.602875
	H23	H	0.272373	0.158585	0.396620
	H24	H	0.897193	0.331104	0.203528
	H25	H	0.090074	0.661604	0.213673
	H26	H	0.088755	0.331828	0.780826
	H27	H	0.900048	0.664991	0.789954
	H28	H	0.210210	0.890204	0.333696
	H29	H	0.207369	0.101968	0.661954
	H30	H	0.777258	0.096368	0.333510
	H31	H	0.777511	0.898093	0.661867
	H32	H	0.330649	0.214937	0.902288
	H33	H	0.654864	0.216169	0.102166
	H34	H	0.331625	0.783657	0.099020
	H35	H	0.654498	0.779035	0.894271
	H36	H	0.329562	0.904356	0.209184
	H37	H	0.656166	0.096949	0.213841
	H38	H	0.329338	0.097567	0.784880
	H39	H	0.656120	0.897791	0.782122
	H40	H	0.894174	0.204707	0.330731
	H41	H	0.089720	0.213484	0.662305
	H42	H	0.094364	0.778803	0.333220
	H43	H	0.897408	0.791989	0.664915
	H44	H	0.213848	0.334398	0.887667
	H45	H	0.210163	0.660108	0.101938
	H46	H	0.776059	0.334750	0.094209
	H47	H	0.774554	0.661165	0.893278
	H48	H	0.397248	0.114541	0.589011
	H49	H	0.581342	0.883742	0.581637
	H50	H	0.581769	0.113654	0.407765
	H51	H	0.406549	0.879115	0.399429
	H52	H	0.593110	0.404892	0.119163
	H53	H	0.591273	0.594370	0.874476
	H54	H	0.399226	0.592518	0.115523
	H55	H	0.401978	0.407084	0.878135
	H56	H	0.107502	0.591455	0.413673
	H57	H	0.875824	0.591755	0.599453
	H58	H	0.109248	0.403698	0.586304
	H59	H	0.873916	0.392199	0.401170
	H60	H	0.108882	0.404759	0.585455
	H61	H	0.874144	0.603641	0.593510
	H62	H	0.106683	0.579971	0.405321
	H63	H	0.880395	0.405633	0.409808
	H64	H	0.400165	0.588945	0.114711
	H65	H	0.588609	0.578946	0.879969
	H66	H	0.590200	0.418335	0.114833
	H67	H	0.405561	0.406375	0.877978
	H68	H	0.588172	0.114770	0.415184
	H69	H	0.596952	0.879615	0.581700
	H70	H	0.398648	0.116136	0.593067
	H71	H	0.401285	0.881395	0.410219
	H72	H	0.901346	0.615842	0.092612
	H73	H	0.094677	0.380748	0.073066
	H74	H	0.087396	0.610528	0.917750
	H75	H	0.898863	0.378132	0.896475
	H76	H	0.068433	0.906291	0.611672
	H77	H	0.095051	0.088775	0.373716
	H78	H	0.906623	0.092370	0.615776
	H79	H	0.900647	0.903078	0.378142
	H80	H	0.606738	0.086794	0.910196
	H81	H	0.380080	0.094806	0.084856
	H82	H	0.608290	0.903397	0.085074
	H83	H	0.380654	0.908002	0.914628
	H84	H	0.608119	0.910116	0.089015
	H85	H	0.375685	0.092891	0.104097
	H86	H	0.609462	0.089230	0.902603
	H87	H	0.375881	0.911790	0.894103
	H88	H	0.897231	0.096757	0.619460
	H89	H	0.085141	0.072546	0.381682
	H90	H	0.095254	0.894042	0.625041
	H91	H	0.900971	0.905173	0.378055
	H92	H	0.099485	0.620466	0.902624
	H93	H	0.091079	0.375607	0.094023
	H94	H	0.899590	0.614232	0.086364
	H95	H	0.903397	0.381503	0.903603
	H96	H	0.400754	0.114733	0.589858
	H97	H	0.588030	0.877352	0.595346
	H98	H	0.590931	0.117309	0.405383
	H99	H	0.394341	0.877241	0.400624
	H100	H	0.580700	0.408661	0.114833
	H101	H	0.576677	0.589273	0.880185
	H102	H	0.403002	0.591938	0.114731
	H103	H	0.403790	0.403906	0.876844
	H104	H	0.110181	0.592298	0.399953
	H105	H	0.879657	0.594064	0.586589
	H106	H	0.109120	0.403961	0.586698
	H107	H	0.875640	0.407538	0.393536
	H108	H	0.895496	0.616148	0.090169
	H109	H	0.074801	0.384330	0.081085
	H110	H	0.079548	0.615085	0.897846
	H111	H	0.894279	0.380299	0.904209
	H112	H	0.093980	0.924389	0.615163
	H113	H	0.076321	0.090059	0.378515
	H114	H	0.897779	0.086368	0.616057
	H115	H	0.902565	0.903551	0.377733
	H116	H	0.609147	0.094639	0.908976
	H117	H	0.373536	0.108460	0.094951
	H118	H	0.611267	0.904022	0.092565
	H119	H	0.373657	0.891835	0.902062
	C120	C	0.371186	0.006167	0.619145
	C121	C	0.616492	0.988820	0.618668
	C122	C	0.615699	0.006706	0.376578
	C123	C	0.371587	0.988243	0.376740
	C124	C	0.615787	0.378509	0.006129
	C125	C	0.614572	0.619445	0.987611
	C126	C	0.371977	0.619466	0.005428
	C127	C	0.374124	0.378672	0.987565
	C128	C	0.001062	0.617861	0.376654
	C129	C	0.984281	0.622911	0.621731
	C130	C	0.001611	0.376746	0.615982
	C131	C	0.983524	0.371894	0.371284
	C132	C	0.871073	0.506355	0.116754
	C133	C	0.115274	0.488337	0.116146
	C134	C	0.116802	0.506277	0.874309
	C135	C	0.871469	0.489454	0.874675
	C136	C	0.115200	0.875766	0.507764
	C137	C	0.113966	0.116826	0.487514
	C138	C	0.871509	0.118551	0.507118
	C139	C	0.872760	0.877209	0.488078
	C140	C	0.501178	0.120186	0.878193
	C141	C	0.484218	0.124889	0.123417
	C142	C	0.501761	0.878389	0.117950
	C143	C	0.484268	0.874690	0.874256
	C144	C	0.376036	0.881857	0.671934
	C145	C	0.611530	0.113002	0.676060
	C146	C	0.611858	0.882609	0.318832
	C147	C	0.374684	0.113533	0.326440
	C148	C	0.669831	0.376823	0.880023
	C149	C	0.671050	0.621384	0.111781
	C150	C	0.316783	0.617531	0.880428
	C151	C	0.315450	0.379156	0.111347
	C152	C	0.879375	0.674562	0.378413
	C153	C	0.106357	0.676849	0.619977
	C154	C	0.879024	0.322620	0.614898
	C155	C	0.105138	0.314204	0.371371
	C156	C	0.878899	0.381728	0.671139
	C157	C	0.107230	0.617387	0.675387
	C158	C	0.878584	0.615325	0.321463
	C159	C	0.106036	0.373775	0.315375
	C160	C	0.374794	0.673358	0.880141
	C161	C	0.611623	0.676401	0.113172
	C162	C	0.613510	0.319365	0.881461
	C163	C	0.376119	0.328029	0.114059
	C164	C	0.672600	0.883416	0.373523
	C165	C	0.672090	0.112016	0.621545
	C166	C	0.314504	0.883593	0.619590
	C167	C	0.313052	0.110701	0.378672
	C168	C	0.875254	0.381410	0.168619
	C169	C	0.111551	0.612180	0.175074
	C170	C	0.112000	0.381753	0.817496
	C171	C	0.876857	0.614819	0.824142
	C172	C	0.171765	0.872927	0.383090
	C173	C	0.169124	0.119733	0.612399
	C174	C	0.815628	0.115882	0.382620
	C175	C	0.816422	0.879438	0.612921
	C176	C	0.378926	0.176421	0.881524
	C177	C	0.606599	0.178531	0.121865
	C178	C	0.379638	0.822753	0.117466
	C179	C	0.606111	0.817728	0.874994
	C180	C	0.378511	0.882605	0.172412
	C181	C	0.607094	0.119386	0.177730
	C182	C	0.378367	0.117660	0.823282
	C183	C	0.606902	0.876961	0.819182
	C184	C	0.874065	0.169497	0.380993
	C185	C	0.110692	0.175299	0.612418
	C186	C	0.114274	0.817021	0.383176
	C187	C	0.876021	0.826292	0.614195
	C188	C	0.173692	0.382844	0.871309
	C189	C	0.171357	0.611437	0.119563
	C190	C	0.815217	0.383164	0.113779
	C191	C	0.814551	0.612874	0.875612
	C192	C	0.392549	0.092724	0.597161
	C193	C	0.595044	0.902458	0.593578
	C194	C	0.593471	0.093057	0.402015
	C195	C	0.394248	0.901650	0.397408
	C196	C	0.594395	0.403395	0.093668
	C197	C	0.592055	0.594731	0.900739
	C198	C	0.394113	0.597623	0.092407
	C199	C	0.397131	0.399607	0.900305
	C200	C	0.086062	0.594671	0.399439
	C201	C	0.898605	0.602370	0.599783
	C202	C	0.086936	0.398005	0.592991
	C203	C	0.898663	0.394978	0.394744
	C204	C	0.892529	0.593016	0.095890
	C205	C	0.093187	0.402364	0.090142
	C206	C	0.095190	0.592743	0.898896
	C207	C	0.892683	0.402582	0.895235
	C208	C	0.092609	0.900914	0.594851
	C209	C	0.092053	0.091294	0.400486
	C210	C	0.893973	0.098135	0.594406
	C211	C	0.894930	0.897881	0.400624
	C212	C	0.586313	0.097018	0.900707
	C213	C	0.398535	0.104745	0.101307
	C214	C	0.587191	0.899575	0.095498
	C215	C	0.398794	0.897413	0.896805
	Zn216	Zn	0.492783	-0.002967	0.746250
	Zn217	Zn	0.492827	-0.000648	0.248389
	Zn218	Zn	0.743002	0.498904	-0.005479
	Zn219	Zn	0.245597	0.496983	-0.004259
	Zn220	Zn	-0.006875	0.749962	0.498328
	Zn221	Zn	-0.007823	0.244745	0.495478
	Zn222	Zn	-0.007070	0.498311	0.747217
	Zn223	Zn	-0.007026	0.496372	0.244885
	Zn224	Zn	0.492779	0.747524	-0.002731
	Zn225	Zn	0.493841	0.252442	0.000147
	Zn226	Zn	0.745729	-0.002355	0.497744
	Zn227	Zn	0.242737	-0.003684	0.497958
	N228	N	0.410545	0.959157	0.671715
	N229	N	0.577302	0.035408	0.674302
	N230	N	0.577046	0.960156	0.320632
	N231	N	0.410700	0.036351	0.325037
	N232	N	0.671470	0.412772	0.958518
	N233	N	0.673075	0.586763	0.032657
	N234	N	0.314902	0.584695	0.959330
	N235	N	0.314214	0.409863	0.031687
	N236	N	0.956575	0.676400	0.411964
	N237	N	0.028960	0.680402	0.587315
	N238	N	0.956326	0.319131	0.581272
	N239	N	0.027791	0.312507	0.405193
	N240	N	0.956024	0.414703	0.671972
	N241	N	0.030223	0.584505	0.676661
	N242	N	0.955253	0.580711	0.320233
	N243	N	0.029545	0.408826	0.315152
	N244	N	0.408414	0.674858	0.958777
	N245	N	0.577179	0.675252	0.034856
	N246	N	0.580571	0.320295	0.960786
	N247	N	0.412087	0.327510	0.036127
	N248	N	0.674917	0.961691	0.408995
	N249	N	0.675144	0.033733	0.586479
	N250	N	0.311330	0.961985	0.587347
	N251	N	0.310839	0.031594	0.409115
	N252	N	0.909204	0.459138	0.170636
	N253	N	0.077300	0.534585	0.173072
	N254	N	0.077250	0.459367	0.819394
	N255	N	0.911488	0.537114	0.823146
	N256	N	0.172807	0.908486	0.461847
	N257	N	0.171035	0.083782	0.533770
	N258	N	0.813679	0.085036	0.462139
	N259	N	0.814267	0.910221	0.533392
	N260	N	0.456265	0.178059	0.914986
	N261	N	0.529189	0.182533	0.089284
	N262	N	0.457064	0.819893	0.084290
	N263	N	0.528615	0.815748	0.908303
	N264	N	0.455230	0.916753	0.172825
	N265	N	0.529776	0.086703	0.178968
	N266	N	0.455437	0.083588	0.820802
	N267	N	0.530126	0.911537	0.818415
	N268	N	0.908202	0.171508	0.459452
	N269	N	0.077229	0.173843	0.533663
	N270	N	0.079812	0.818656	0.461644
	N271	N	0.910147	0.824500	0.535498
	N272	N	0.176953	0.461546	0.905304
	N273	N	0.173817	0.533359	0.083740
	N274	N	0.812369	0.461887	0.082569
	N275	N	0.811216	0.533739	0.906002
	O276	O	0.537649	0.367459	0.603123
	H277	H	0.534157	0.361563	0.594787
	H278	H	0.550604	0.370110	0.602009
	O279	O	0.319947	0.542436	0.480990
	H280	H	0.330741	0.550294	0.478014
	H281	H	0.309224	0.536620	0.487700
	O282	O	0.984872	1.030408	0.041251
	H283	H	0.967998	1.023598	0.050124
	H284	H	0.986093	1.034378	0.035480
	O285	O	1.034577	-0.001466	0.955404
	H286	H	1.040598	-0.007497	0.954277
	H287	H	1.040259	-0.002745	0.949441
	O288	O	0.396306	0.608547	0.440748
	H289	H	0.399938	0.601669	0.441906
	H290	H	0.373033	0.613795	0.446567
	O291	O	0.523222	0.467798	0.488957
	H292	H	0.524597	0.457017	0.497402
	H293	H	0.525274	0.464401	0.498937
	O294	O	0.531026	0.556154	0.587739
	H295	H	0.540979	0.567025	0.601056
	H296	H	0.526621	0.559102	0.584009
	O297	O	-0.058863	-0.049173	1.031480
	H298	H	-0.065674	-0.055515	1.038716
	H299	H	-0.072897	-0.053522	1.025207
	O300	O	0.349510	0.567358	0.394315
	H301	H	0.350151	0.553426	0.406873
	H302	H	0.353797	0.569867	0.391134
	O303	O	1.034951	0.976221	-0.015255
	H304	H	1.041542	0.976004	-0.000309
	H305	H	1.039202	0.975730	-0.011107
	O306	O	0.025495	1.029576	1.113812
	H307	H	0.037384	1.040238	1.123339
	H308	H	0.016548	1.038911	1.107127
	O309	O	0.488721	0.412339	0.531682
	H310	H	0.497081	0.412517	0.514752
	H311	H	0.497273	0.407283	0.534868
	O312	O	0.011816	0.101628	0.067078
	H313	H	0.017136	0.105075	0.066330
	H314	H	0.005455	0.110300	0.059197
	O315	O	0.992212	0.021167	-0.033408
	H316	H	0.996710	0.014894	-0.035813
	H317	H	0.994075	0.011141	-0.035602
	O318	O	0.988646	0.969991	1.001807
	H319	H	0.991185	0.966533	1.008506
	H320	H	0.982141	0.971792	0.999371
	O321	O	-0.063775	0.052055	0.864289
	H322	H	-0.059173	0.053898	0.861780
	H323	H	-0.069413	0.055089	0.853919
	O324	O	0.415952	0.412621	0.474099
	H325	H	0.411714	0.415940	0.484013
	H326	H	0.414103	0.400233	0.489952
	O327	O	0.079946	-0.044539	-0.034247
	H328	H	0.083813	-0.039133	-0.026559
	H329	H	0.088595	-0.052813	-0.053521
	O330	O	0.523168	0.423106	0.367824
	H331	H	0.520694	0.428084	0.366558
	H332	H	0.524714	0.407330	0.361625
	O333	O	0.403282	0.618069	1.408140
	H334	H	0.418894	0.607025	1.401300
	H335	H	0.403673	0.622844	1.423657
	O336	O	-0.047966	-0.020628	0.058022
	H337	H	-0.053132	-0.016061	0.060378
	H338	H	-0.049744	-0.017775	0.064262
	O339	O	0.481493	0.575152	0.551784
	H340	H	0.473500	0.584669	0.540965
	H341	H	0.485771	0.574328	0.534518
	O342	O	1.000371	0.960153	0.937358
	H343	H	1.001097	0.951308	0.939480
	H344	H	1.002282	0.954755	0.923251
	O345	O	1.564381	1.505110	-0.545244
	H346	H	1.563678	1.513395	-0.537168
	H347	H	1.572774	1.517052	-0.543948
	O348	O	0.503749	0.569226	0.622578
	H349	H	0.504008	0.576499	0.624464
	H350	H	0.506940	0.570605	0.611513
	O351	O	0.564132	0.564040	0.479966
	H352	H	0.562582	0.558014	0.486982
	H353	H	0.557848	0.551376	0.471804
	O354	O	0.436849	0.480476	0.515185
	H355	H	0.420748	0.476346	0.521155
	H356	H	0.445685	0.483249	0.523151
	O357	O	0.951530	-0.028344	0.969948
	H358	H	0.963022	-0.028282	0.963645
	H359	H	0.947664	-0.021563	0.963661
	O360	O	0.902665	0.070695	0.078086
	H361	H	0.908854	0.061878	0.067166
	H362	H	0.913458	0.065559	0.092241
	O363	O	0.662536	0.385415	0.442740
	H364	H	0.666190	0.383748	0.438241
	H365	H	0.661140	0.366668	0.437431
	O366	O	1.109194	0.939584	0.998470
	H367	H	1.110010	0.934860	1.003502
	H368	H	1.118506	0.935979	1.003882
	O369	O	0.443316	0.442514	1.393728
	H370	H	0.433992	0.459027	1.401873
	H371	H	0.432368	0.441925	1.406655
	O372	O	-0.039345	-0.051548	0.008644
	H373	H	-0.047871	-0.051875	0.012558
	H374	H	-0.039538	-0.066360	0.004371
	O375	O	1.431551	0.340425	0.561366
	H376	H	1.442724	0.334436	0.548056
	H377	H	1.426952	0.347000	0.562342
	O378	O	0.513654	0.597179	0.487942
	H379	H	0.509410	0.590131	0.479767
	H380	H	0.512225	0.607309	0.478211
	O381	O	0.614558	0.546833	0.531923
	H382	H	0.625110	0.553998	0.530449
	H383	H	0.615908	0.551753	0.530420
