data_Molecule from HDF5

_cell_length_a		16.600971
_cell_length_b		16.741177
_cell_length_c		16.558409
_cell_angle_alpha	89.795144
_cell_angle_beta	90.072835
_cell_angle_gamma	90.074479
_symmetry_space_group_name_H-M	'P 1'
_symmetry_Int_Tables_number		1

loop_
	_symmetry_equiv_pos_as_xyz
	x,y,z

loop_
	_atom_site_label
	_atom_site_type_symbol
	_atom_site_fract_x
	_atom_site_fract_y
	_atom_site_fract_z
	H0	H	0.398209	0.835385	0.713858
	H1	H	0.605394	0.146105	0.716014
	H2	H	0.614035	0.842533	0.266369
	H3	H	0.396850	0.146963	0.273990
	H4	H	0.716139	0.393270	0.836520
	H5	H	0.718443	0.592940	0.152779
	H6	H	0.278575	0.598924	0.839372
	H7	H	0.275411	0.382635	0.146724
	H8	H	0.848964	0.719515	0.381142
	H9	H	0.152745	0.718583	0.604030
	H10	H	0.843484	0.273769	0.597609
	H11	H	0.155283	0.269788	0.387653
	H12	H	0.841506	0.393455	0.709487
	H13	H	0.153424	0.600494	0.718112
	H14	H	0.846727	0.599419	0.270352
	H15	H	0.153496	0.382473	0.268827
	H16	H	0.391318	0.718084	0.841721
	H17	H	0.602362	0.708601	0.152977
	H18	H	0.603613	0.274812	0.837037
	H19	H	0.390542	0.266574	0.147130
	H20	H	0.729835	0.841811	0.382717
	H21	H	0.723857	0.145042	0.601504
	H22	H	0.279738	0.836959	0.598449
	H23	H	0.280965	0.147089	0.391352
	H24	H	0.899533	0.336457	0.212624
	H25	H	0.114327	0.642005	0.222243
	H26	H	0.106568	0.338749	0.770966
	H27	H	0.897161	0.648382	0.774826
	H28	H	0.220922	0.888478	0.338909
	H29	H	0.217684	0.093139	0.653081
	H30	H	0.776900	0.099952	0.341867
	H31	H	0.780402	0.887530	0.650947
	H32	H	0.345817	0.212345	0.888321
	H33	H	0.656272	0.212846	0.099367
	H34	H	0.348818	0.764677	0.108052
	H35	H	0.654875	0.769954	0.890478
	H36	H	0.347368	0.883838	0.219848
	H37	H	0.655320	0.097980	0.217318
	H38	H	0.343419	0.092778	0.776624
	H39	H	0.656495	0.888643	0.776754
	H40	H	0.893552	0.215878	0.341139
	H41	H	0.103460	0.210609	0.652517
	H42	H	0.108834	0.769825	0.340142
	H43	H	0.890397	0.766352	0.647633
	H44	H	0.227746	0.342190	0.880662
	H45	H	0.228748	0.642625	0.104879
	H46	H	0.783241	0.336021	0.095130
	H47	H	0.780364	0.648069	0.891567
	H48	H	0.405110	0.104741	0.585539
	H49	H	0.589002	0.883529	0.577314
	H50	H	0.581484	0.101842	0.401687
	H51	H	0.407057	0.879732	0.405744
	H52	H	0.590385	0.400064	0.107782
	H53	H	0.588768	0.585547	0.882014
	H54	H	0.410882	0.578285	0.106080
	H55	H	0.411786	0.404206	0.881706
	H56	H	0.110735	0.576475	0.406678
	H57	H	0.891309	0.576023	0.578163
	H58	H	0.113276	0.400600	0.585081
	H59	H	0.887992	0.401230	0.404455
	H60	H	0.112492	0.401642	0.584005
	H61	H	0.886676	0.580717	0.586833
	H62	H	0.111538	0.583506	0.410140
	H63	H	0.890220	0.402582	0.409020
	H64	H	0.415241	0.571762	0.103098
	H65	H	0.591879	0.583201	0.881809
	H66	H	0.591375	0.398019	0.108451
	H67	H	0.415526	0.405850	0.883925
	H68	H	0.580425	0.094558	0.417791
	H69	H	0.596555	0.877690	0.586582
	H70	H	0.410895	0.104367	0.589866
	H71	H	0.413999	0.880256	0.403281
	H72	H	0.907013	0.604964	0.084199
	H73	H	0.087275	0.384669	0.075389
	H74	H	0.086181	0.598298	0.914342
	H75	H	0.907763	0.379312	0.898185
	H76	H	0.086812	0.904743	0.605888
	H77	H	0.092655	0.087820	0.380496
	H78	H	0.911722	0.085417	0.609362
	H79	H	0.912504	0.907605	0.383760
	H80	H	0.613137	0.082922	0.904650
	H81	H	0.386356	0.082051	0.087421
	H82	H	0.611626	0.903034	0.080836
	H83	H	0.387217	0.902132	0.904030
	H84	H	0.610374	0.905050	0.079401
	H85	H	0.389846	0.084361	0.077443
	H86	H	0.613721	0.082842	0.903439
	H87	H	0.388004	0.900242	0.909307
	H88	H	0.911722	0.079382	0.607749
	H89	H	0.092928	0.081478	0.382269
	H90	H	0.086594	0.903545	0.606800
	H91	H	0.917333	0.910044	0.386769
	H92	H	0.093537	0.604952	0.904323
	H93	H	0.087101	0.382083	0.082189
	H94	H	0.912091	0.604934	0.086345
	H95	H	0.908585	0.380891	0.903376
	H96	H	0.411186	0.101561	0.582942
	H97	H	0.584332	0.881383	0.590029
	H98	H	0.595102	0.102085	0.412618
	H99	H	0.411827	0.883031	0.410309
	H100	H	0.592584	0.399990	0.108945
	H101	H	0.588635	0.582159	0.882481
	H102	H	0.419007	0.579286	0.104619
	H103	H	0.415671	0.401801	0.882693
	H104	H	0.108045	0.577430	0.414655
	H105	H	0.888632	0.586099	0.577411
	H106	H	0.113571	0.402178	0.585822
	H107	H	0.889895	0.406370	0.405635
	H108	H	0.911005	0.603275	0.081488
	H109	H	0.081401	0.385364	0.079442
	H110	H	0.079939	0.600936	0.902548
	H111	H	0.903206	0.379265	0.901681
	H112	H	0.088094	0.903752	0.606543
	H113	H	0.087239	0.084599	0.383270
	H114	H	0.916591	0.083014	0.606256
	H115	H	0.918020	0.904635	0.384032
	H116	H	0.614217	0.084153	0.904196
	H117	H	0.391323	0.074479	0.081564
	H118	H	0.610495	0.905091	0.082319
	H119	H	0.389390	0.905627	0.907546
	C120	C	0.378631	-0.000002	0.616885
	C121	C	0.622217	0.982849	0.617023
	C122	C	0.621713	-0.000011	0.374587
	C123	C	0.379116	0.983296	0.373921
	C124	C	0.621451	0.370683	0.003661
	C125	C	0.621217	0.613290	0.986432
	C126	C	0.380187	0.611979	0.003147
	C127	C	0.379226	0.369892	0.984562
	C128	C	0.009151	0.613161	0.374446
	C129	C	0.990895	0.614804	0.615199
	C130	C	0.008736	0.371600	0.615689
	C131	C	0.991940	0.370695	0.373445
	C132	C	0.879397	0.501188	0.115219
	C133	C	0.122294	0.483399	0.115160
	C134	C	0.120839	0.500886	0.872171
	C135	C	0.876718	0.483648	0.871387
	C136	C	0.120704	0.871433	0.503650
	C137	C	0.122159	0.114990	0.486311
	C138	C	0.879602	0.114724	0.504943
	C139	C	0.880747	0.872611	0.486418
	C140	C	0.510008	0.113484	0.872600
	C141	C	0.492082	0.113054	0.114847
	C142	C	0.509367	0.870670	0.116459
	C143	C	0.491349	0.870707	0.875155
	C144	C	0.378527	0.882504	0.674793
	C145	C	0.624161	0.099404	0.676676
	C146	C	0.629751	0.887488	0.308880
	C147	C	0.378068	0.100182	0.314039
	C148	C	0.678125	0.372867	0.884230
	C149	C	0.679114	0.612156	0.105248
	C150	C	0.318804	0.616663	0.886158
	C151	C	0.316331	0.365308	0.100220
	C152	C	0.894327	0.676851	0.366326
	C153	C	0.106529	0.677150	0.620666
	C154	C	0.890305	0.313718	0.616241
	C155	C	0.108245	0.309767	0.369766
	C156	C	0.889394	0.372845	0.671953
	C157	C	0.107000	0.618333	0.677283
	C158	C	0.893461	0.617302	0.310943
	C159	C	0.107619	0.366374	0.310998
	C160	C	0.374758	0.675814	0.887561
	C161	C	0.621562	0.669690	0.105625
	C162	C	0.622011	0.314015	0.884464
	C163	C	0.373687	0.307585	0.100409
	C164	C	0.687313	0.887142	0.366962
	C165	C	0.682952	0.099055	0.619592
	C166	C	0.319834	0.883092	0.617392
	C167	C	0.320256	0.100372	0.372036
	C168	C	0.879880	0.383333	0.173270
	C169	C	0.130141	0.596560	0.180092
	C170	C	0.124825	0.385688	0.810135
	C171	C	0.877486	0.601500	0.814061
	C172	C	0.181198	0.869915	0.386104
	C173	C	0.179290	0.113386	0.605292
	C174	C	0.818128	0.117694	0.388007
	C175	C	0.819847	0.868918	0.603667
	C176	C	0.392275	0.172123	0.870451
	C177	C	0.609037	0.173408	0.118024
	C178	C	0.394440	0.807077	0.123692
	C179	C	0.608426	0.810667	0.872631
	C180	C	0.393725	0.866117	0.179419
	C181	C	0.608947	0.116080	0.176263
	C182	C	0.391103	0.113100	0.814611
	C183	C	0.609197	0.869505	0.815994
	C184	C	0.875771	0.175310	0.387619
	C185	C	0.122532	0.171744	0.605040
	C186	C	0.125309	0.810907	0.386662
	C187	C	0.874508	0.808739	0.601910
	C188	C	0.184707	0.387027	0.865564
	C189	C	0.187176	0.596882	0.121551
	C190	C	0.822014	0.383071	0.115118
	C191	C	0.819632	0.601390	0.871992
	C192	C	0.402296	0.082293	0.592794
	C193	C	0.597081	0.901920	0.591919
	C194	C	0.593429	0.079025	0.402765
	C195	C	0.403751	0.902230	0.399251
	C196	C	0.598071	0.392907	0.086684
	C197	C	0.596694	0.590305	0.903627
	C198	C	0.407294	0.584356	0.083682
	C199	C	0.406560	0.396470	0.903689
	C200	C	0.089092	0.586757	0.402631
	C201	C	0.909808	0.588470	0.588330
	C202	C	0.091540	0.394913	0.591790
	C203	C	0.910438	0.396311	0.399188
	C204	C	0.903302	0.582815	0.091014
	C205	C	0.093450	0.404561	0.086751
	C206	C	0.094073	0.580595	0.899311
	C207	C	0.899691	0.401333	0.894445
	C208	C	0.094661	0.896748	0.585145
	C209	C	0.097946	0.091400	0.403545
	C210	C	0.905791	0.089655	0.586371
	C211	C	0.908138	0.899755	0.405848
	C212	C	0.592367	0.089949	0.896945
	C213	C	0.410414	0.087584	0.089607
	C214	C	0.589922	0.897050	0.088726
	C215	C	0.409597	0.895576	0.899946
	Zn216	Zn	0.500087	-0.009017	0.746171
	Zn217	Zn	0.501130	-0.008314	0.244568
	Zn218	Zn	0.749199	0.492153	-0.005397
	Zn219	Zn	0.250866	0.491699	-0.006952
	Zn220	Zn	0.000319	0.743319	0.493665
	Zn221	Zn	0.000424	0.243023	0.495400
	Zn222	Zn	-0.000680	0.493306	0.743500
	Zn223	Zn	0.001116	0.492589	0.245114
	Zn224	Zn	0.499877	0.741798	-0.003507
	Zn225	Zn	0.500505	0.241880	-0.006557
	Zn226	Zn	0.751852	-0.007592	0.495269
	Zn227	Zn	0.249357	-0.007668	0.495428
	N228	N	0.414333	0.956353	0.674550
	N229	N	0.587088	0.026103	0.675386
	N230	N	0.589062	0.958527	0.313958
	N231	N	0.413691	0.026211	0.314569
	N232	N	0.678114	0.407209	0.959306
	N233	N	0.679269	0.578208	0.029972
	N234	N	0.322018	0.577566	0.959108
	N235	N	0.319709	0.403552	0.026886
	N236	N	0.967162	0.674480	0.405329
	N237	N	0.033066	0.674911	0.582702
	N238	N	0.965611	0.312708	0.582072
	N239	N	0.034933	0.312341	0.408080
	N240	N	0.964227	0.408034	0.672048
	N241	N	0.033958	0.580054	0.673905
	N242	N	0.965904	0.578296	0.315648
	N243	N	0.034375	0.403841	0.313486
	N244	N	0.412131	0.673178	0.961466
	N245	N	0.586315	0.670812	0.030528
	N246	N	0.587626	0.312040	0.959802
	N247	N	0.412065	0.310255	0.027258
	N248	N	0.682347	0.958254	0.407574
	N249	N	0.682337	0.025376	0.583597
	N250	N	0.319683	0.957493	0.582398
	N251	N	0.320298	0.026611	0.408277
	N252	N	0.914399	0.457938	0.173949
	N253	N	0.090519	0.524754	0.176399
	N254	N	0.085664	0.457652	0.814005
	N255	N	0.912067	0.527219	0.813304
	N256	N	0.178757	0.906888	0.459982
	N257	N	0.179407	0.078914	0.530219
	N258	N	0.820266	0.080964	0.461904
	N259	N	0.823530	0.907870	0.530640
	N260	N	0.467138	0.172482	0.905702
	N261	N	0.535107	0.171963	0.080800
	N262	N	0.467466	0.809728	0.085295
	N263	N	0.534015	0.810926	0.908494
	N264	N	0.466424	0.905047	0.175228
	N265	N	0.535026	0.079289	0.174553
	N266	N	0.465599	0.077746	0.815209
	N267	N	0.535222	0.905934	0.817268
	N268	N	0.913423	0.173689	0.461309
	N269	N	0.087900	0.173198	0.529727
	N270	N	0.088540	0.811593	0.460836
	N271	N	0.911276	0.810481	0.527665
	N272	N	0.182527	0.459618	0.903583
	N273	N	0.182642	0.525170	0.081973
	N274	N	0.821037	0.457541	0.080162
	N275	N	0.819025	0.527042	0.906979
	O276	O	-0.039801	0.870685	-0.140192
	H277	H	-0.049348	0.867269	-0.147564
	H278	H	-0.043925	0.869685	-0.134989
	O279	O	0.707424	0.550165	0.702233
	H280	H	0.701727	0.575247	0.685691
	H281	H	0.735631	0.556577	0.729515
	O282	O	1.060283	-0.223572	1.073460
	H283	H	1.074169	-0.225050	1.075126
	H284	H	1.053428	-0.221590	1.091093
	O285	O	0.283422	0.700896	0.466254
	H286	H	0.268025	0.698889	0.480168
	H287	H	0.284612	0.693001	0.475201
	O288	O	0.711098	0.708841	0.701920
	H289	H	0.672699	0.697495	0.706002
	H290	H	0.703926	0.710831	0.656913
	O291	O	0.522899	0.419302	0.595651
	H292	H	0.515677	0.425029	0.594810
	H293	H	0.529524	0.422340	0.601314
	O294	O	0.882235	-0.156479	0.967221
	H295	H	0.894866	-0.158752	0.967358
	H296	H	0.895174	-0.166503	0.956215
	O297	O	0.489257	0.503276	0.440538
	H298	H	0.490713	0.521152	0.451656
	H299	H	0.496805	0.503087	0.433588
	O300	O	-0.037559	0.216606	0.775284
	H301	H	-0.039073	0.225730	0.776266
	H302	H	-0.029632	0.235580	0.769776
	O303	O	0.274175	0.296574	0.510783
	H304	H	0.261067	0.289211	0.509534
	H305	H	0.270964	0.289502	0.501183
	O306	O	0.727804	0.455471	0.270857
	H307	H	0.740862	0.428745	0.258857
	H308	H	0.742298	0.430696	0.257495
	O309	O	0.536561	0.709892	0.712238
	H310	H	0.521604	0.701101	0.721034
	H311	H	0.522076	0.706745	0.736614
	O312	O	0.445416	0.267248	0.436127
	H313	H	0.433652	0.278154	0.423147
	H314	H	0.436811	0.274298	0.433939
	O315	O	1.099347	1.030720	1.053988
	H316	H	1.108175	1.023536	1.076193
	H317	H	1.081314	1.023294	1.054335
	O318	O	0.479297	0.712543	0.284219
	H319	H	0.490209	0.719101	0.302607
	H320	H	0.469906	0.729538	0.258374
	O321	O	0.048850	1.230168	0.927837
	H322	H	0.060705	1.226434	0.941527
	H323	H	0.060807	1.232597	0.933516
	O324	O	0.994071	0.768974	0.203790
	H325	H	0.983604	0.740826	0.225633
	H326	H	0.952234	0.785200	0.197961
	O327	O	0.225821	0.027247	1.215499
	H328	H	0.239447	0.014079	1.223096
	H329	H	0.222957	0.015559	1.230781
	O330	O	0.552296	0.635679	0.493847
	H331	H	0.545250	0.639736	0.502244
	H332	H	0.549227	0.637271	0.510093
	O333	O	0.465039	0.265780	0.715855
	H334	H	0.468624	0.247785	0.707050
	H335	H	0.478590	0.238142	0.719291
	O336	O	0.455300	0.559241	0.699355
	H337	H	0.455534	0.534879	0.706642
	H338	H	0.424584	0.555643	0.695034
	O339	O	0.959385	-0.001752	0.996082
	H340	H	0.957141	-0.003961	0.981909
	H341	H	0.970905	-0.004685	0.991671
	O342	O	-0.066881	-0.168764	-0.217029
	H343	H	-0.078765	-0.177280	-0.224946
	H344	H	-0.055015	-0.167331	-0.218055
	O345	O	-0.126292	0.899061	1.178998
	H346	H	-0.142611	0.887591	1.176446
	H347	H	-0.122398	0.920177	1.153456
	O348	O	0.268057	0.256626	0.260351
	H349	H	0.266446	0.232935	0.266748
	H350	H	0.230650	0.255518	0.248203
	O351	O	1.078393	1.036843	-0.088560
	H352	H	1.060429	1.045427	-0.098788
	H353	H	1.088038	1.040328	-0.093803
	O354	O	0.039654	-0.029500	1.153802
	H355	H	0.034467	-0.053306	1.142402
	H356	H	0.042112	-0.030980	1.162829
	O357	O	0.689671	0.579300	0.485510
	H358	H	0.685654	0.563653	0.477288
	H359	H	0.681588	0.577964	0.471357
	O360	O	0.543196	0.262289	0.566784
	H361	H	0.540285	0.266800	0.541774
	H362	H	0.557338	0.260472	0.544857
	O363	O	-0.124340	0.011355	0.035088
	H364	H	-0.114374	-0.001466	0.029196
	H365	H	-0.130011	-0.005241	0.019652
	O366	O	0.290310	0.703085	0.292294
	H367	H	0.318949	0.691230	0.305429
	H368	H	0.290107	0.689712	0.323751
	O369	O	0.780499	0.208305	-0.038842
	H370	H	0.766216	0.223116	-0.053589
	H371	H	0.772954	0.213540	-0.071905
	O372	O	0.780561	1.211997	0.210830
	H373	H	0.802327	1.181376	0.199855
	H374	H	0.776337	1.198685	0.186141
	O375	O	0.784231	-0.228129	0.204856
	H376	H	0.781751	-0.207676	0.179222
	H377	H	0.750160	-0.256201	0.238048
	O378	O	0.513431	0.676004	0.406543
	H379	H	0.503793	0.681060	0.415009
	H380	H	0.524605	0.675372	0.428540
	O381	O	0.124578	0.882964	0.799094
	H382	H	0.139406	0.892751	0.801599
	H383	H	0.132666	0.871877	0.787339
	O384	O	0.986050	0.052665	0.915178
	H385	H	0.972526	0.060906	0.920178
	H386	H	0.974126	0.061133	0.908926
	O387	O	1.211600	0.777156	-0.216815
	H388	H	1.185634	0.797696	-0.210888
	H389	H	1.208609	0.787479	-0.181787
	O390	O	0.503255	0.540255	0.471646
	H391	H	0.500580	0.551735	0.479657
	H392	H	0.502965	0.537624	0.478943
	O393	O	0.470967	0.420977	0.645389
	H394	H	0.472375	0.391723	0.655369
	H395	H	0.481138	0.415745	0.634995
	O396	O	0.210407	0.204906	0.787401
	H397	H	0.196069	0.205484	0.822182
	H398	H	0.218554	0.220935	0.772109
	O399	O	0.186731	0.165588	1.122894
	H400	H	0.150938	0.158366	1.127779
	H401	H	0.190615	0.150788	1.126070
	O402	O	0.415679	0.387492	0.290632
	H403	H	0.392659	0.366899	0.280644
	H404	H	0.425139	0.397928	0.285358
	O405	O	0.782141	0.031630	0.776011
	H406	H	0.783601	0.037713	0.767271
	H407	H	0.769437	0.038598	0.760805
	O408	O	-0.046608	0.021148	0.225101
	H409	H	-0.047041	0.007686	0.221863
	H410	H	-0.066103	0.010772	0.224491
	O411	O	0.856155	0.961025	1.000876
	H412	H	0.851068	0.961147	0.975269
	H413	H	0.852855	0.949046	0.984869
	O414	O	0.691790	0.293563	0.685379
	H415	H	0.672046	0.311253	0.661503
	H416	H	0.674758	0.311257	0.666525
	O417	O	0.453210	0.469160	0.347971
	H418	H	0.470904	0.473136	0.364406
	H419	H	0.458179	0.479486	0.345140
	O420	O	0.266375	0.442255	0.491282
	H421	H	0.263298	0.428767	0.482989
	H422	H	0.267622	0.446853	0.465464
	O423	O	0.152142	-0.100613	0.798452
	H424	H	0.142854	-0.081438	0.794056
	H425	H	0.150012	-0.089869	0.799557
	O426	O	0.713752	0.267307	0.469038
	H427	H	0.711462	0.281300	0.436149
	H428	H	0.741722	0.243034	0.452736
	O429	O	1.222212	0.768983	0.966608
	H430	H	1.240934	0.752618	0.970240
	H431	H	1.221503	0.771408	0.982788
	O432	O	0.722937	0.715522	0.517359
	H433	H	0.730768	0.711590	0.512735
	H434	H	0.744243	0.713955	0.511172
	O435	O	0.047458	1.186106	0.179353
	H436	H	0.031550	1.174839	0.183002
	H437	H	0.033232	1.178355	0.182144
	O438	O	0.198945	0.065043	-0.078036
	H439	H	0.182278	0.064944	-0.081198
	H440	H	0.201948	0.060320	-0.075443
	O441	O	-0.223969	-0.233122	0.026822
	H442	H	-0.222959	-0.248078	0.037164
	H443	H	-0.228091	-0.246045	0.022704
	O444	O	0.279841	0.506812	0.280236
	H445	H	0.276824	0.523195	0.268832
	H446	H	0.278645	0.514256	0.269123
	O447	O	-0.331146	1.283211	1.287663
	H448	H	-0.375308	1.284578	1.284150
	H449	H	-0.315413	1.253445	1.254081
	O450	O	-0.133145	0.844522	0.864823
	H451	H	-0.126249	0.836562	0.859919
	H452	H	-0.146759	0.848593	0.846656
	O453	O	0.311130	0.483630	0.711049
	H454	H	0.301470	0.465252	0.721511
	H455	H	0.300839	0.457752	0.720116
	O456	O	0.292230	0.283947	0.668766
	H457	H	0.334954	0.280566	0.678668
	H458	H	0.276587	0.271716	0.645590
	O459	O	0.784012	1.028095	0.133319
	H460	H	0.778455	1.015118	0.099388
	H461	H	0.771604	1.021206	0.128215
	O462	O	0.612310	0.534546	0.311023
	H463	H	0.638427	0.514110	0.299916
	H464	H	0.606599	0.542863	0.314235
	O465	O	0.681645	-0.319536	0.310684
	H466	H	0.669521	-0.342309	0.329895
	H467	H	0.653213	-0.320155	0.332782
	O468	O	0.267357	0.546444	0.560961
	H469	H	0.262161	0.527242	0.560304
	H470	H	0.267592	0.533792	0.564843
	O471	O	0.519785	0.304073	0.280019
	H472	H	0.504273	0.296804	0.268364
	H473	H	0.499127	0.311066	0.288713
	O474	O	0.231572	0.923216	0.054053
	H475	H	0.234101	0.902949	0.066530
	H476	H	0.220957	0.938399	0.053740
	O477	O	0.436413	0.673665	1.529575
	H478	H	0.428944	0.673745	1.542777
	H479	H	0.420370	0.674767	1.546824
	O480	O	0.619517	0.449073	0.636358
	H481	H	0.629989	0.452657	0.636475
	H482	H	0.621147	0.458255	0.639368
	O483	O	0.693036	0.440469	0.492247
	H484	H	0.689478	0.444752	0.469367
	H485	H	0.678575	0.441068	0.500661
	O486	O	0.793049	0.201371	0.788500
	H487	H	0.761512	0.232702	0.754133
	H488	H	0.822638	0.186063	0.781724
	O489	O	1.189032	0.804586	0.178376
	H490	H	1.175786	0.797578	0.186823
	H491	H	1.199088	0.790835	0.195465
	O492	O	0.216808	0.221213	0.005162
	H493	H	0.238304	0.234337	0.027355
	H494	H	0.221085	0.210911	0.026089
	O495	O	-0.065619	1.211104	1.045390
	H496	H	-0.072109	1.195818	1.033515
	H497	H	-0.073740	1.215589	1.026170
	O498	O	0.905578	0.974044	0.895205
	H499	H	0.919064	0.960942	0.886558
	H500	H	0.900776	0.970593	0.897825
	O501	O	0.314391	0.681299	0.679840
	H502	H	0.289481	0.686800	0.698446
	H503	H	0.299976	0.675491	0.677589
