data_Molecule from HDF5

_cell_length_a		16.553386
_cell_length_b		16.507406
_cell_length_c		16.657667
_cell_angle_alpha	90.038879
_cell_angle_beta	89.995922
_cell_angle_gamma	89.919636
_symmetry_space_group_name_H-M	'P 1'
_symmetry_Int_Tables_number		1

loop_
	_symmetry_equiv_pos_as_xyz
	x,y,z

loop_
	_atom_site_label
	_atom_site_type_symbol
	_atom_site_fract_x
	_atom_site_fract_y
	_atom_site_fract_z
	H0	H	0.411241	0.836076	0.733281
	H1	H	0.625994	0.146089	0.734643
	H2	H	0.619741	0.832560	0.292009
	H3	H	0.411458	0.147923	0.289866
	H4	H	0.734531	0.389742	0.852544
	H5	H	0.737272	0.595900	0.165430
	H6	H	0.293703	0.597762	0.855264
	H7	H	0.295086	0.386773	0.166348
	H8	H	0.859346	0.709324	0.411633
	H9	H	0.176274	0.710239	0.613864
	H10	H	0.860921	0.270910	0.615010
	H11	H	0.172048	0.268250	0.403099
	H12	H	0.862018	0.385424	0.732473
	H13	H	0.174436	0.597331	0.732950
	H14	H	0.860872	0.597816	0.290409
	H15	H	0.171505	0.383545	0.286301
	H16	H	0.411183	0.713065	0.853761
	H17	H	0.618997	0.711340	0.166872
	H18	H	0.621446	0.269880	0.855011
	H19	H	0.413149	0.270865	0.166402
	H20	H	0.734830	0.832098	0.409592
	H21	H	0.739191	0.147946	0.616051
	H22	H	0.296969	0.834825	0.615843
	H23	H	0.295125	0.147095	0.405140
	H24	H	0.909028	0.337156	0.234112
	H25	H	0.118356	0.649917	0.228562
	H26	H	0.122664	0.334930	0.789948
	H27	H	0.916074	0.649666	0.792425
	H28	H	0.238488	0.887160	0.354175
	H29	H	0.239823	0.098099	0.665297
	H30	H	0.798125	0.094695	0.353481
	H31	H	0.797611	0.888582	0.666237
	H32	H	0.363014	0.217397	0.901521
	H33	H	0.674991	0.209701	0.112256
	H34	H	0.358324	0.774191	0.112125
	H35	H	0.674285	0.773279	0.908479
	H36	H	0.359743	0.887779	0.231157
	H37	H	0.674414	0.093425	0.229099
	H38	H	0.364329	0.102582	0.784126
	H39	H	0.673572	0.887943	0.790232
	H40	H	0.913345	0.213039	0.354842
	H41	H	0.125010	0.215535	0.664066
	H42	H	0.122178	0.769835	0.354822
	H43	H	0.916501	0.774137	0.668016
	H44	H	0.238750	0.335429	0.905834
	H45	H	0.233885	0.650297	0.112204
	H46	H	0.798448	0.333890	0.112878
	H47	H	0.802111	0.651719	0.910826
	H48	H	0.431798	0.101606	0.596194
	H49	H	0.610333	0.878059	0.597481
	H50	H	0.612283	0.106984	0.415621
	H51	H	0.428521	0.878427	0.420321
	H52	H	0.611259	0.403272	0.122884
	H53	H	0.611017	0.583004	0.897144
	H54	H	0.424500	0.582666	0.122613
	H55	H	0.429082	0.402918	0.900036
	H56	H	0.133522	0.583143	0.410909
	H57	H	0.906002	0.579146	0.603956
	H58	H	0.127732	0.404674	0.594775
	H59	H	0.906338	0.403456	0.423126
	H60	H	0.128455	0.407562	0.601581
	H61	H	0.903870	0.584260	0.603521
	H62	H	0.129972	0.586430	0.426824
	H63	H	0.906805	0.406158	0.423670
	H64	H	0.427527	0.581108	0.121221
	H65	H	0.607213	0.580760	0.898343
	H66	H	0.605627	0.403815	0.121147
	H67	H	0.427130	0.406568	0.899841
	H68	H	0.604273	0.103579	0.416202
	H69	H	0.606898	0.877399	0.603884
	H70	H	0.430351	0.103423	0.596593
	H71	H	0.431129	0.879616	0.420850
	H72	H	0.923485	0.605306	0.098791
	H73	H	0.099941	0.380574	0.098510
	H74	H	0.106631	0.604323	0.921651
	H75	H	0.928541	0.378112	0.919835
	H76	H	0.109360	0.902355	0.623077
	H77	H	0.102460	0.077450	0.401761
	H78	H	0.920297	0.080385	0.624685
	H79	H	0.931389	0.901930	0.399973
	H80	H	0.628107	0.080976	0.924804
	H81	H	0.406658	0.075083	0.101479
	H82	H	0.629607	0.902703	0.103037
	H83	H	0.403153	0.901850	0.918543
	H84	H	0.631268	0.899407	0.104970
	H85	H	0.401719	0.083847	0.105465
	H86	H	0.626402	0.075977	0.925710
	H87	H	0.404326	0.903022	0.923017
	H88	H	0.931860	0.074775	0.618908
	H89	H	0.105707	0.083609	0.397049
	H90	H	0.107110	0.901850	0.621742
	H91	H	0.927203	0.894994	0.396721
	H92	H	0.103651	0.604496	0.919951
	H93	H	0.108974	0.378454	0.095802
	H94	H	0.926916	0.605711	0.104839
	H95	H	0.925271	0.378183	0.921320
	H96	H	0.431627	0.102983	0.597909
	H97	H	0.603756	0.881181	0.598361
	H98	H	0.609217	0.103371	0.423392
	H99	H	0.428794	0.879786	0.423103
	H100	H	0.607949	0.397900	0.123562
	H101	H	0.606786	0.585445	0.897313
	H102	H	0.427106	0.584616	0.121778
	H103	H	0.431142	0.405924	0.901803
	H104	H	0.127406	0.570994	0.420645
	H105	H	0.906386	0.582426	0.599006
	H106	H	0.130808	0.400629	0.600003
	H107	H	0.905264	0.405849	0.421457
	H108	H	0.930478	0.604106	0.098801
	H109	H	0.106438	0.377607	0.104881
	H110	H	0.103773	0.602901	0.923329
	H111	H	0.925600	0.377575	0.918078
	H112	H	0.108474	0.900204	0.622662
	H113	H	0.110082	0.076283	0.398488
	H114	H	0.932189	0.088360	0.622960
	H115	H	0.922959	0.902319	0.397699
	H116	H	0.628182	0.077007	0.921041
	H117	H	0.404785	0.084248	0.095443
	H118	H	0.630036	0.899089	0.100856
	H119	H	0.405018	0.906173	0.919327
	C120	C	0.397549	-0.000179	0.630736
	C121	C	0.639742	0.982291	0.632255
	C122	C	0.638916	-0.000434	0.388731
	C123	C	0.396773	0.982915	0.389562
	C124	C	0.639311	0.370189	0.019146
	C125	C	0.638465	0.613758	1.001279
	C126	C	0.394573	0.614272	0.018686
	C127	C	0.396394	0.371845	1.002927
	C128	C	0.026047	0.612579	0.389606
	C129	C	1.009628	0.613250	0.632954
	C130	C	0.026006	0.371171	0.631149
	C131	C	1.008679	0.371122	0.389147
	C132	C	0.895395	0.501018	0.131799
	C133	C	0.136748	0.483310	0.131079
	C134	C	0.138142	0.500582	0.889393
	C135	C	0.896168	0.483054	0.889365
	C136	C	0.139650	0.869681	0.519148
	C137	C	0.138862	0.112448	0.501428
	C138	C	0.896098	0.112914	0.518868
	C139	C	0.896616	0.869716	0.501889
	C140	C	0.525936	0.112850	0.889387
	C141	C	0.508376	0.112595	0.132062
	C142	C	0.525313	0.870101	0.132779
	C143	C	0.508005	0.871467	0.889197
	C144	C	0.393622	0.882748	0.692401
	C145	C	0.643468	0.099717	0.693512
	C146	C	0.638817	0.880147	0.331387
	C147	C	0.393640	0.100920	0.329848
	C148	C	0.696648	0.369802	0.900435
	C149	C	0.697506	0.614955	0.118872
	C150	C	0.333930	0.616294	0.901760
	C151	C	0.335646	0.368705	0.119733
	C152	C	0.907024	0.670882	0.390892
	C153	C	0.128481	0.671461	0.633440
	C154	C	0.908210	0.310866	0.633353
	C155	C	0.125416	0.308906	0.385122
	C156	C	0.908759	0.367811	0.691905
	C157	C	0.127634	0.615141	0.692495
	C158	C	0.907610	0.615132	0.331110
	C159	C	0.125060	0.366341	0.327082
	C160	C	0.392798	0.673216	0.900961
	C161	C	0.638643	0.672148	0.119370
	C162	C	0.640376	0.310274	0.901531
	C163	C	0.394236	0.311098	0.119778
	C164	C	0.696121	0.879746	0.389697
	C165	C	0.699828	0.100410	0.634529
	C166	C	0.336930	0.882045	0.633959
	C167	C	0.335680	0.100310	0.387056
	C168	C	0.892081	0.383369	0.192559
	C169	C	0.137428	0.602408	0.189411
	C170	C	0.140962	0.382272	0.829727
	C171	C	0.896543	0.602373	0.831746
	C172	C	0.198910	0.868042	0.401426
	C173	C	0.199828	0.116129	0.618261
	C174	C	0.837164	0.114262	0.400918
	C175	C	0.838052	0.869958	0.619877
	C176	C	0.409637	0.176052	0.884658
	C177	C	0.627477	0.170620	0.132036
	C178	C	0.406005	0.812890	0.132134
	C179	C	0.626907	0.812540	0.888974
	C180	C	0.406758	0.868995	0.191547
	C181	C	0.627020	0.112907	0.190097
	C182	C	0.410268	0.119073	0.826045
	C183	C	0.626697	0.869531	0.830459
	C184	C	0.894554	0.172772	0.401236
	C185	C	0.142369	0.174430	0.617613
	C186	C	0.141231	0.809739	0.401779
	C187	C	0.896732	0.812768	0.620649
	C188	C	0.198538	0.382383	0.887366
	C189	C	0.194649	0.602612	0.131308
	C190	C	0.836948	0.381885	0.132636
	C191	C	0.839572	0.603246	0.890221
	C192	C	0.423814	0.081543	0.604401
	C193	C	0.614118	0.900426	0.607109
	C194	C	0.615351	0.083002	0.411846
	C195	C	0.422389	0.900656	0.414323
	C196	C	0.615045	0.394823	0.101259
	C197	C	0.615047	0.589808	0.918976
	C198	C	0.419169	0.589686	0.100614
	C199	C	0.421954	0.397573	0.921643
	C200	C	0.108673	0.587479	0.412897
	C201	C	0.926840	0.588963	0.609017
	C202	C	0.107786	0.396863	0.605839
	C203	C	0.927164	0.397600	0.415393
	C204	C	0.919827	0.583476	0.107526
	C205	C	0.112390	0.400431	0.106714
	C206	C	0.112263	0.582536	0.914540
	C207	C	0.919711	0.399698	0.912868
	C208	C	0.115220	0.894471	0.601158
	C209	C	0.113321	0.086377	0.420278
	C210	C	0.920992	0.088293	0.600976
	C211	C	0.920423	0.893130	0.419598
	C212	C	0.606752	0.085470	0.916000
	C213	C	0.425697	0.088217	0.107620
	C214	C	0.608529	0.893566	0.109519
	C215	C	0.425886	0.896520	0.913247
	Zn216	Zn	0.517548	-0.007991	0.759808
	Zn217	Zn	0.516974	-0.008423	0.260703
	Zn218	Zn	0.767678	0.491621	0.009857
	Zn219	Zn	0.265955	0.492116	0.010661
	Zn220	Zn	0.018121	0.741093	0.511289
	Zn221	Zn	0.017186	0.241908	0.509972
	Zn222	Zn	0.017828	0.491461	0.760678
	Zn223	Zn	0.016473	0.491563	0.260292
	Zn224	Zn	0.515658	0.742618	0.009962
	Zn225	Zn	0.517113	0.241429	0.010644
	Zn226	Zn	0.767670	-0.008985	0.509836
	Zn227	Zn	0.268483	-0.009163	0.510603
	N228	N	0.430650	0.957127	0.690466
	N229	N	0.606755	0.025286	0.692277
	N230	N	0.604075	0.955734	0.330533
	N231	N	0.431071	0.026795	0.331414
	N232	N	0.696255	0.406134	0.974570
	N233	N	0.697676	0.579375	0.044342
	N234	N	0.335009	0.580135	0.975903
	N235	N	0.336835	0.405730	0.045923
	N236	N	0.981890	0.669523	0.426489
	N237	N	0.054055	0.670465	0.597023
	N238	N	0.982299	0.312477	0.596386
	N239	N	0.052023	0.311966	0.423338
	N240	N	0.983068	0.404709	0.690490
	N241	N	0.052491	0.579895	0.692522
	N242	N	0.982682	0.579683	0.330076
	N243	N	0.051240	0.404272	0.329543
	N244	N	0.429709	0.672073	0.974759
	N245	N	0.602867	0.671849	0.045123
	N246	N	0.605798	0.309947	0.976550
	N247	N	0.431203	0.312722	0.046101
	N248	N	0.696618	0.955325	0.424405
	N249	N	0.697759	0.026331	0.596953
	N250	N	0.339182	0.956092	0.596366
	N251	N	0.337647	0.026012	0.423673
	N252	N	0.927430	0.458523	0.192421
	N253	N	0.102546	0.526944	0.189784
	N254	N	0.104144	0.456858	0.830858
	N255	N	0.930590	0.526393	0.830606
	N256	N	0.198377	0.904205	0.475622
	N257	N	0.197967	0.078079	0.544964
	N258	N	0.837761	0.078079	0.475188
	N259	N	0.837689	0.904255	0.544961
	N260	N	0.482497	0.172224	0.923431
	N261	N	0.552588	0.170546	0.096528
	N262	N	0.480964	0.813005	0.096558
	N263	N	0.552132	0.813402	0.924578
	N264	N	0.482194	0.903447	0.192234
	N265	N	0.551807	0.077968	0.190442
	N266	N	0.483459	0.080167	0.829027
	N267	N	0.551797	0.905239	0.830150
	N268	N	0.930146	0.172243	0.475688
	N269	N	0.105249	0.172530	0.544011
	N270	N	0.105305	0.810526	0.476001
	N271	N	0.932454	0.812229	0.546280
	N272	N	0.196981	0.456839	0.923738
	N273	N	0.194701	0.527383	0.095947
	N274	N	0.838465	0.456121	0.095622
	N275	N	0.839049	0.527901	0.925032
	O276	O	-0.022193	0.774183	0.213733
	H277	H	-0.034053	0.763289	0.228720
	H278	H	-0.035838	0.763791	0.212854
	O279	O	0.704726	0.303408	0.693120
	H280	H	0.678035	0.305823	0.681150
	H281	H	0.705777	0.322846	0.673018
	O282	O	1.077518	0.125191	1.066516
	H283	H	1.089388	0.118737	1.056878
	H284	H	1.062072	0.112638	1.057215
	O285	O	0.464504	0.619743	0.571338
	H286	H	0.464525	0.622984	0.577484
	H287	H	0.462018	0.627475	0.574222
	O288	O	0.814827	0.198156	0.803798
	H289	H	0.814192	0.186095	0.830820
	H290	H	0.787164	0.219233	0.789440
	O291	O	0.351338	0.615451	0.595376
	H292	H	0.348494	0.600471	0.581492
	H293	H	0.348648	0.616933	0.594480
	O294	O	0.860347	-0.035913	0.993517
	H295	H	0.859373	-0.031303	1.005020
	H296	H	0.866439	-0.046749	0.998439
	O297	O	0.178339	1.198322	1.039715
	H298	H	0.168637	1.193112	1.038336
	H299	H	0.184606	1.216575	1.031369
	O300	O	-0.134676	-0.067280	0.958636
	H301	H	-0.121450	-0.056452	0.970852
	H302	H	-0.147930	-0.080791	0.975054
	O303	O	0.706271	0.676664	0.317690
	H304	H	0.688774	0.652785	0.325272
	H305	H	0.687901	0.663488	0.343175
	O306	O	0.509119	0.363773	0.418301
	H307	H	0.495996	0.358968	0.418975
	H308	H	0.501348	0.363598	0.417256
	O309	O	0.587150	0.547934	0.618367
	H310	H	0.603140	0.563751	0.628112
	H311	H	0.575114	0.548957	0.624360
	O312	O	0.550073	0.524467	0.331846
	H313	H	0.533883	0.538973	0.331154
	H314	H	0.557425	0.511758	0.330819
	O315	O	1.233442	1.204389	1.221886
	H316	H	1.229305	1.177219	1.206593
	H317	H	1.222550	1.188270	1.206778
	O318	O	0.739440	0.532687	0.732841
	H319	H	0.760743	0.524051	0.748560
	H320	H	0.740731	0.526504	0.721990
	O321	O	0.490678	0.697124	0.290395
	H322	H	0.493077	0.716880	0.287893
	H323	H	0.486681	0.713269	0.301184
	O324	O	1.221492	0.784924	-0.018788
	H325	H	1.222602	0.763231	-0.017023
	H326	H	1.217783	0.788777	-0.034484
	O327	O	0.123239	-0.213595	0.799257
	H328	H	0.160751	-0.223737	0.789584
	H329	H	0.132035	-0.210192	0.785089
	O330	O	0.710941	0.703128	0.541313
	H331	H	0.732064	0.712595	0.536202
	H332	H	0.711430	0.705020	0.585593
	O333	O	0.496110	0.283451	0.720419
	H334	H	0.481800	0.263129	0.738149
	H335	H	0.485450	0.297248	0.711695
	O336	O	0.295396	0.710896	0.479763
	H337	H	0.280111	0.726554	0.461336
	H338	H	0.286975	0.713575	0.455500
	O339	O	1.073283	0.066282	0.931038
	H340	H	1.063689	0.056205	0.926288
	H341	H	1.059349	0.068233	0.926577
	O342	O	0.192660	-0.118584	0.212658
	H343	H	0.180129	-0.104529	0.212209
	H344	H	0.186732	-0.113089	0.199703
	O345	O	-0.541946	1.562171	1.581075
	H346	H	-0.537922	1.564898	1.586102
	H347	H	-0.556862	1.566928	1.581447
	O348	O	0.021954	-0.151318	-0.022668
	H349	H	0.032258	-0.160332	-0.028598
	H350	H	0.023540	-0.148372	-0.023050
	O351	O	0.295485	0.525539	0.287624
	H352	H	0.299264	0.536970	0.312901
	H353	H	0.259695	0.529692	0.255678
	O354	O	0.333987	0.305534	1.331179
	H355	H	0.337595	0.318534	1.317953
	H356	H	0.316135	0.294256	1.318546
	O357	O	0.220540	0.129122	-0.129093
	H358	H	0.200594	0.129040	-0.138482
	H359	H	0.227837	0.132798	-0.130120
	O360	O	0.099218	0.089306	0.803251
	H361	H	0.078701	0.080356	0.810678
	H362	H	0.075535	0.094135	0.805432
	O363	O	0.016615	0.186625	0.221425
	H364	H	0.033684	0.197403	0.228376
	H365	H	0.025821	0.185897	0.202752
	O366	O	0.583666	0.436366	0.492737
	H367	H	0.599986	0.447052	0.477217
	H368	H	0.571019	0.439541	0.500740
	O369	O	0.795562	-0.226762	0.048999
	H370	H	0.782389	-0.241777	0.049392
	H371	H	0.788687	-0.234846	0.073015
	O372	O	1.032386	0.986565	0.141728
	H373	H	1.026425	0.995409	0.149801
	H374	H	1.024245	0.983851	0.146838
	O375	O	0.993887	0.203284	-0.207859
	H376	H	0.964033	0.207081	-0.201476
	H377	H	0.980717	0.214203	-0.228685
	O378	O	0.216602	0.908417	0.091131
	H379	H	0.203608	0.910444	0.082890
	H380	H	0.219575	0.913280	0.061917
	O381	O	-0.204584	0.948357	1.230521
	H382	H	-0.193947	0.930177	1.227981
	H383	H	-0.229556	0.954459	1.257409
	O384	O	0.607993	0.353055	0.620014
	H385	H	0.586269	0.345444	0.620896
	H386	H	0.609744	0.355245	0.628374
	O387	O	0.728798	0.704436	-0.278757
	H388	H	0.722554	0.666061	-0.270339
	H389	H	0.760063	0.733647	-0.248717
	O390	O	0.349217	0.545009	0.651942
	H391	H	0.339198	0.536493	0.671671
	H392	H	0.350196	0.548874	0.647510
	O393	O	0.552816	0.279002	0.297080
	H394	H	0.547017	0.271573	0.284242
	H395	H	0.530698	0.280318	0.307784
	O396	O	-0.003668	0.977186	1.209266
	H397	H	-0.024003	0.965610	1.205053
	H398	H	-0.015674	0.986499	1.209858
	O399	O	-0.162715	0.045663	1.100966
	H400	H	-0.164943	0.065676	1.109254
	H401	H	-0.174755	0.039421	1.111794
	O402	O	0.730272	0.453608	0.572697
	H403	H	0.710383	0.460320	0.560703
	H404	H	0.743187	0.455757	0.558346
	O405	O	0.987303	0.199759	1.024949
	H406	H	0.989797	0.206093	1.020623
	H407	H	0.984011	0.187596	1.023987
	O408	O	-0.168619	-0.192715	-0.176445
	H409	H	-0.156822	-0.171828	-0.160373
	H410	H	-0.145833	-0.176643	-0.159597
	O411	O	0.664764	0.424172	0.469426
	H412	H	0.654906	0.441784	0.467860
	H413	H	0.687642	0.407528	0.463505
	O414	O	0.731159	0.278440	0.296739
	H415	H	0.719828	0.297912	0.313358
	H416	H	0.698211	0.288422	0.303426
	O417	O	0.607053	0.637578	0.488743
	H418	H	0.616926	0.646638	0.514301
	H419	H	0.584364	0.634785	0.496830
	O420	O	0.308428	0.695656	0.303987
	H421	H	0.328637	0.688496	0.297213
	H422	H	0.291981	0.713462	0.278946
	O423	O	0.363904	0.397473	0.445667
	H424	H	0.368236	0.406209	0.452933
	H425	H	0.361467	0.401883	0.441259
	O426	O	0.693262	0.310810	0.485218
	H427	H	0.703906	0.288438	0.496309
	H428	H	0.671918	0.305223	0.478422
	O429	O	1.307409	1.285085	0.719688
	H430	H	1.319682	1.290572	0.707485
	H431	H	1.292026	1.276700	0.721953
	O432	O	0.365615	0.363703	0.611241
	H433	H	0.366267	0.368715	0.600820
	H434	H	0.361032	0.370231	0.600743
	O435	O	0.221775	0.963226	0.120018
	H436	H	0.213673	0.962669	0.109998
	H437	H	0.219873	0.960555	0.106094
	O438	O	0.089342	-0.048332	0.073184
	H439	H	0.079844	-0.048888	0.073442
	H440	H	0.086003	-0.051143	0.067036
	O441	O	-0.192630	0.022481	-0.201077
	H442	H	-0.203089	0.026716	-0.205954
	H443	H	-0.201487	0.037652	-0.202813
	O444	O	-0.154995	0.153598	0.184872
	H445	H	-0.130269	0.158631	0.182442
	H446	H	-0.181492	0.182591	0.211472
	O447	O	0.146991	0.990418	0.859372
	H448	H	0.138730	0.994840	0.854014
	H449	H	0.137479	1.000744	0.857470
	O450	O	0.002300	0.873903	0.942942
	H451	H	0.007773	0.867640	0.939069
	H452	H	-0.002813	0.881136	0.941747
	O453	O	0.388377	0.466546	0.702291
	H454	H	0.387581	0.470576	0.708355
	H455	H	0.391708	0.447308	0.706637
	O456	O	0.244918	0.061212	0.907228
	H457	H	0.261449	0.065020	0.888658
	H458	H	0.244970	0.071704	0.906468
	O459	O	0.734102	0.469135	0.294824
	H460	H	0.731665	0.468664	0.297579
	H461	H	0.746993	0.464634	0.281964
	O462	O	0.411096	0.339815	0.408174
	H463	H	0.386181	0.345633	0.397677
	H464	H	0.402627	0.333663	0.416401
	O465	O	0.980432	0.026393	-0.181566
	H466	H	0.974485	0.012508	-0.182278
	H467	H	0.960234	0.026981	-0.167904
	O468	O	-0.199956	1.172702	-0.030690
	H469	H	-0.202840	1.162515	-0.033769
	H470	H	-0.215980	1.185488	-0.016047
	O471	O	0.618292	0.442514	0.464860
	H472	H	0.615264	0.438699	0.460630
	H473	H	0.615998	0.435587	0.456922
	O474	O	-0.453894	1.715686	-0.269013
	H475	H	-0.432951	1.715823	-0.280225
	H476	H	-0.448615	1.742632	-0.241753
	O477	O	0.010060	0.832411	1.035189
	H478	H	0.005413	0.834025	1.023224
	H479	H	0.012508	0.836286	1.029927
	O480	O	0.441881	0.527494	0.397634
	H481	H	0.451621	0.534970	0.407420
	H482	H	0.417619	0.528030	0.388377
	O483	O	0.357752	0.497902	0.537207
	H484	H	0.364702	0.499096	0.537292
	H485	H	0.363732	0.497417	0.534804
	O486	O	1.262504	-0.254252	0.760266
	H487	H	1.284888	-0.263472	0.771278
	H488	H	1.277088	-0.250698	0.739073
	O489	O	0.809550	0.782204	0.220502
	H490	H	0.778296	0.752918	0.250589
	H491	H	0.821482	0.797378	0.208157
