data_Molecule from HDF5

_cell_length_a		16.317504
_cell_length_b		16.160286
_cell_length_c		16.246567
_cell_angle_alpha	90.051933
_cell_angle_beta	89.864327
_cell_angle_gamma	90.021307
_symmetry_space_group_name_H-M	'P 1'
_symmetry_Int_Tables_number		1

loop_
	_symmetry_equiv_pos_as_xyz
	x,y,z

loop_
	_atom_site_label
	_atom_site_type_symbol
	_atom_site_fract_x
	_atom_site_fract_y
	_atom_site_fract_z
	H0	H	0.394095	0.840655	0.715255
	H1	H	0.590833	0.170246	0.714601
	H2	H	0.591133	0.839823	0.288938
	H3	H	0.394845	0.169616	0.288005
	H4	H	0.707825	0.405438	0.838428
	H5	H	0.706157	0.604887	0.166267
	H6	H	0.277115	0.605387	0.839207
	H7	H	0.275913	0.404607	0.165445
	H8	H	0.828803	0.719282	0.406533
	H9	H	0.156322	0.720217	0.599695
	H10	H	0.828937	0.290495	0.601676
	H11	H	0.156030	0.292137	0.403482
	H12	H	0.828065	0.407929	0.717089
	H13	H	0.155575	0.605856	0.716824
	H14	H	0.828912	0.605175	0.288427
	H15	H	0.154468	0.405297	0.285403
	H16	H	0.395339	0.718322	0.838359
	H17	H	0.588582	0.718084	0.166556
	H18	H	0.588836	0.292287	0.837089
	H19	H	0.394099	0.291252	0.166195
	H20	H	0.706674	0.840618	0.403915
	H21	H	0.706596	0.169625	0.600571
	H22	H	0.278465	0.841551	0.601221
	H23	H	0.279455	0.170162	0.403177
	H24	H	0.893857	0.341258	0.216241
	H25	H	0.090076	0.670516	0.215473
	H26	H	0.090507	0.341503	0.787684
	H27	H	0.895542	0.671662	0.791300
	H28	H	0.207474	0.906537	0.338296
	H29	H	0.207324	0.106027	0.665156
	H30	H	0.777867	0.104876	0.338224
	H31	H	0.777297	0.907300	0.665522
	H32	H	0.328060	0.216823	0.905493
	H33	H	0.655696	0.218505	0.098593
	H34	H	0.329167	0.791196	0.099441
	H35	H	0.656228	0.791067	0.904747
	H36	H	0.329785	0.905641	0.217091
	H37	H	0.656281	0.103130	0.214894
	H38	H	0.329568	0.103958	0.787043
	H39	H	0.656335	0.906813	0.787384
	H40	H	0.895920	0.219012	0.337708
	H41	H	0.089855	0.219501	0.666198
	H42	H	0.089192	0.793136	0.337689
	H43	H	0.896894	0.795552	0.667412
	H44	H	0.205743	0.340672	0.902968
	H45	H	0.206956	0.669499	0.102194
	H46	H	0.777954	0.341299	0.101637
	H47	H	0.778282	0.670017	0.904505
	H48	H	0.391037	0.125512	0.592715
	H49	H	0.585222	0.887602	0.594176
	H50	H	0.581580	0.121022	0.411944
	H51	H	0.396607	0.887792	0.413379
	H52	H	0.587412	0.413423	0.119748
	H53	H	0.595434	0.601601	0.881284
	H54	H	0.397934	0.594384	0.119192
	H55	H	0.399964	0.407205	0.884102
	H56	H	0.109292	0.599758	0.412855
	H57	H	0.876600	0.597306	0.596675
	H58	H	0.110708	0.402064	0.593918
	H59	H	0.878567	0.411826	0.417739
	H60	H	0.104059	0.419710	0.585808
	H61	H	0.874088	0.601505	0.599823
	H62	H	0.108606	0.594627	0.406384
	H63	H	0.876831	0.420995	0.406588
	H64	H	0.401266	0.598315	0.119244
	H65	H	0.587019	0.586628	0.887883
	H66	H	0.583521	0.412223	0.118405
	H67	H	0.393511	0.412637	0.883574
	H68	H	0.592917	0.124140	0.410368
	H69	H	0.585570	0.887116	0.594433
	H70	H	0.404073	0.124532	0.603335
	H71	H	0.399874	0.885921	0.405936
	H72	H	0.900557	0.625106	0.099961
	H73	H	0.093566	0.385655	0.092713
	H74	H	0.082434	0.621660	0.913490
	H75	H	0.903152	0.384503	0.896288
	H76	H	0.085026	0.909966	0.619906
	H77	H	0.094301	0.096047	0.383611
	H78	H	0.910491	0.099189	0.616130
	H79	H	0.899927	0.905766	0.382986
	H80	H	0.607939	0.097758	0.914748
	H81	H	0.374987	0.096316	0.100273
	H82	H	0.613466	0.906146	0.100884
	H83	H	0.378047	0.919404	0.906326
	H84	H	0.608064	0.909473	0.087705
	H85	H	0.374982	0.100904	0.095338
	H86	H	0.608534	0.092727	0.902850
	H87	H	0.373768	0.907365	0.903703
	H88	H	0.891598	0.108003	0.623910
	H89	H	0.081332	0.093249	0.388196
	H90	H	0.090486	0.913806	0.620214
	H91	H	0.891998	0.913773	0.383791
	H92	H	0.090008	0.624445	0.911010
	H93	H	0.081046	0.386644	0.103329
	H94	H	0.900437	0.621688	0.092205
	H95	H	0.909228	0.393587	0.917169
	H96	H	0.406137	0.119612	0.587618
	H97	H	0.585771	0.887254	0.594843
	H98	H	0.585015	0.124700	0.401851
	H99	H	0.404370	0.889395	0.411336
	H100	H	0.586337	0.409036	0.119299
	H101	H	0.577222	0.603041	0.886159
	H102	H	0.396247	0.599706	0.120200
	H103	H	0.400845	0.415388	0.886877
	H104	H	0.109791	0.602393	0.405553
	H105	H	0.875574	0.602525	0.594798
	H106	H	0.109970	0.418960	0.605848
	H107	H	0.872793	0.407106	0.405198
	H108	H	0.893761	0.625245	0.095992
	H109	H	0.078809	0.390938	0.087386
	H110	H	0.083709	0.624170	0.906357
	H111	H	0.887075	0.385261	0.913509
	H112	H	0.084603	0.916432	0.617768
	H113	H	0.084511	0.106167	0.382655
	H114	H	0.893122	0.086796	0.617231
	H115	H	0.903243	0.916271	0.386576
	H116	H	0.611879	0.104682	0.904766
	H117	H	0.377809	0.095018	0.093973
	H118	H	0.607958	0.919448	0.097969
	H119	H	0.377418	0.910515	0.915440
	C120	C	0.371742	0.014076	0.623109
	C121	C	0.613753	0.996574	0.622863
	C122	C	0.614501	0.013945	0.380418
	C123	C	0.371728	0.996490	0.381221
	C124	C	0.613764	0.383593	0.010561
	C125	C	0.614081	0.625863	0.993793
	C126	C	0.370679	0.626220	0.011219
	C127	C	0.369812	0.383404	0.993238
	C128	C	0.001231	0.627549	0.380801
	C129	C	0.983861	0.628599	0.624823
	C130	C	0.000138	0.384514	0.624057
	C131	C	0.983778	0.384573	0.380746
	C132	C	0.870366	0.514669	0.124247
	C133	C	0.113199	0.496913	0.123226
	C134	C	0.113890	0.514613	0.880907
	C135	C	0.871449	0.497015	0.881318
	C136	C	0.115016	0.884326	0.510889
	C137	C	0.114610	0.127393	0.493232
	C138	C	0.870901	0.126914	0.510731
	C139	C	0.870852	0.884529	0.493389
	C140	C	0.501055	0.126617	0.879719
	C141	C	0.483839	0.126634	0.124184
	C142	C	0.501571	0.883181	0.123785
	C143	C	0.484300	0.883181	0.879633
	C144	C	0.373839	0.890185	0.678206
	C145	C	0.611619	0.120743	0.677604
	C146	C	0.611543	0.889238	0.326491
	C147	C	0.374566	0.120653	0.326259
	C148	C	0.669127	0.385770	0.887067
	C149	C	0.668598	0.624637	0.117147
	C150	C	0.315081	0.625086	0.888024
	C151	C	0.314169	0.384719	0.116714
	C152	C	0.877522	0.681722	0.385123
	C153	C	0.107222	0.682922	0.621040
	C154	C	0.877349	0.329054	0.621439
	C155	C	0.106973	0.329470	0.383124
	C156	C	0.877063	0.387234	0.679021
	C157	C	0.106833	0.626152	0.679288
	C158	C	0.877733	0.625242	0.326548
	C159	C	0.106211	0.385573	0.324271
	C160	C	0.374059	0.680825	0.887488
	C161	C	0.610272	0.681135	0.117238
	C162	C	0.609958	0.329516	0.886340
	C163	C	0.373198	0.328642	0.117198
	C164	C	0.668829	0.889619	0.383499
	C165	C	0.668379	0.120743	0.620282
	C166	C	0.316187	0.890629	0.621459
	C167	C	0.316839	0.120773	0.383081
	C168	C	0.873126	0.390474	0.178864
	C169	C	0.110331	0.621079	0.177722
	C170	C	0.110899	0.390478	0.825504
	C171	C	0.874249	0.621960	0.828054
	C172	C	0.169857	0.886153	0.387325
	C173	C	0.169530	0.125891	0.616398
	C174	C	0.815834	0.125156	0.387085
	C175	C	0.815462	0.886923	0.616852
	C176	C	0.377412	0.180418	0.883803
	C177	C	0.606963	0.181293	0.120220
	C178	C	0.378255	0.828371	0.120608
	C179	C	0.607365	0.828542	0.883257
	C180	C	0.378383	0.885315	0.178837
	C181	C	0.607280	0.123716	0.177857
	C182	C	0.378089	0.124126	0.825125
	C183	C	0.607422	0.886244	0.825373
	C184	C	0.874650	0.181501	0.386771
	C185	C	0.110920	0.182205	0.617009
	C186	C	0.111188	0.829695	0.386983
	C187	C	0.875094	0.831528	0.617824
	C188	C	0.168503	0.390095	0.882577
	C189	C	0.168638	0.620535	0.121511
	C190	C	0.815730	0.390509	0.121701
	C191	C	0.816373	0.621126	0.884335
	C192	C	0.393819	0.100826	0.601000
	C193	C	0.591986	0.909694	0.601006
	C194	C	0.593044	0.100849	0.401754
	C195	C	0.393750	0.910097	0.403455
	C196	C	0.592174	0.405271	0.096875
	C197	C	0.592917	0.603676	0.907395
	C198	C	0.392083	0.604164	0.097369
	C199	C	0.391653	0.405200	0.907267
	C200	C	0.086995	0.605473	0.402058
	C201	C	0.897550	0.607000	0.603352
	C202	C	0.086180	0.407056	0.601836
	C203	C	0.898287	0.406745	0.403313
	C204	C	0.892018	0.601612	0.102581
	C205	C	0.090936	0.410224	0.101045
	C206	C	0.091974	0.601028	0.903694
	C207	C	0.893255	0.410240	0.902685
	C208	C	0.093271	0.906843	0.597099
	C209	C	0.092916	0.105031	0.406807
	C210	C	0.892210	0.104671	0.596922
	C211	C	0.892153	0.905724	0.406832
	C212	C	0.587301	0.104874	0.901329
	C213	C	0.397960	0.104113	0.102929
	C214	C	0.587591	0.905221	0.101948
	C215	C	0.398347	0.905776	0.901941
	Zn216	Zn	0.493178	0.005423	0.751030
	Zn217	Zn	0.493057	0.004570	0.252960
	Zn218	Zn	0.743140	0.505144	0.002282
	Zn219	Zn	0.241546	0.505215	0.002203
	Zn220	Zn	-0.007208	0.756235	0.502708
	Zn221	Zn	-0.007211	0.255459	0.502127
	Zn222	Zn	-0.007841	0.506853	0.753025
	Zn223	Zn	-0.008040	0.505976	0.252067
	Zn224	Zn	0.492268	0.754335	0.002063
	Zn225	Zn	0.491580	0.255076	0.001650
	Zn226	Zn	0.742014	0.005529	0.501637
	Zn227	Zn	0.243391	0.005993	0.502282
	N228	N	0.407782	0.968108	0.679402
	N229	N	0.578210	0.042538	0.679067
	N230	N	0.578278	0.967568	0.324639
	N231	N	0.407799	0.042370	0.324835
	N232	N	0.671577	0.418736	0.965270
	N233	N	0.671164	0.591170	0.039322
	N234	N	0.312922	0.591592	0.965825
	N235	N	0.312121	0.418269	0.038920
	N236	N	0.955173	0.683514	0.418041
	N237	N	0.029634	0.684595	0.588068
	N238	N	0.954996	0.327224	0.588089
	N239	N	0.029969	0.328800	0.417624
	N240	N	0.954486	0.421032	0.680529
	N241	N	0.029070	0.593063	0.681684
	N242	N	0.955443	0.592288	0.323494
	N243	N	0.028692	0.419207	0.322636
	N244	N	0.407854	0.681755	0.964902
	N245	N	0.576868	0.681899	0.039537
	N246	N	0.576187	0.328081	0.963960
	N247	N	0.407078	0.327466	0.039497
	N248	N	0.670774	0.968056	0.416441
	N249	N	0.670172	0.042489	0.587146
	N250	N	0.314937	0.968657	0.587855
	N251	N	0.315209	0.042758	0.416840
	N252	N	0.906561	0.468656	0.180369
	N253	N	0.076603	0.543052	0.179030
	N254	N	0.077772	0.468907	0.824167
	N255	N	0.908122	0.544075	0.826175
	N256	N	0.172379	0.919280	0.465302
	N257	N	0.171788	0.092549	0.538453
	N258	N	0.813019	0.092042	0.465095
	N259	N	0.812791	0.919152	0.538602
	N260	N	0.454842	0.181753	0.917333
	N261	N	0.529348	0.183179	0.087502
	N262	N	0.455855	0.826819	0.087364
	N263	N	0.529648	0.826499	0.916456
	N264	N	0.456021	0.918529	0.181067
	N265	N	0.529674	0.090287	0.180458
	N266	N	0.455976	0.091545	0.822574
	N267	N	0.529799	0.919263	0.823113
	N268	N	0.908101	0.182640	0.464493
	N269	N	0.077468	0.183141	0.539323
	N270	N	0.077747	0.828462	0.464814
	N271	N	0.908915	0.830061	0.540130
	N272	N	0.170497	0.468171	0.916101
	N273	N	0.170301	0.542244	0.088278
	N274	N	0.813837	0.468778	0.088558
	N275	N	0.814357	0.542474	0.916727
	O276	O	0.508432	-0.461836	0.511925
	H277	H	0.502264	-0.462526	0.505627
	H278	H	0.508570	-0.458560	0.508211
	O279	O	0.447827	0.458957	0.492420
	H280	H	0.449263	0.453798	0.487578
	H281	H	0.449831	0.468253	0.490729
	O282	O	0.423416	0.482532	0.472436
	H283	H	0.422845	0.476867	0.482653
	H284	H	0.417513	0.490390	0.472702
	O285	O	0.494501	0.505795	0.520786
	H286	H	0.502527	0.514897	0.520971
	H287	H	0.495475	0.498690	0.522094
	O288	O	0.494269	0.535541	0.486108
	H289	H	0.488673	0.536276	0.493246
	H290	H	0.492627	0.539409	0.484290
	O291	O	0.465661	0.446318	0.491569
	H292	H	0.469381	0.448980	0.493002
	H293	H	0.469309	0.434653	0.487669
	O294	O	0.478566	0.490452	0.493163
	H295	H	0.472990	0.481045	0.491863
	H296	H	0.486782	0.483211	0.496596
	O297	O	1.494080	0.523404	0.496674
	H298	H	1.492940	0.528912	0.499739
	H299	H	1.492145	0.522176	0.493170
