data_Molecule from HDF5

_cell_length_a		16.332350
_cell_length_b		16.061531
_cell_length_c		16.473906
_cell_angle_alpha	90.509747
_cell_angle_beta	90.466877
_cell_angle_gamma	90.742538
_symmetry_space_group_name_H-M	'P 1'
_symmetry_Int_Tables_number		1

loop_
	_symmetry_equiv_pos_as_xyz
	x,y,z

loop_
	_atom_site_label
	_atom_site_type_symbol
	_atom_site_fract_x
	_atom_site_fract_y
	_atom_site_fract_z
	H0	H	0.391997	0.818972	0.707077
	H1	H	0.604939	0.145269	0.712098
	H2	H	0.601929	0.818338	0.268169
	H3	H	0.393932	0.141794	0.271339
	H4	H	0.710434	0.376449	0.828689
	H5	H	0.717588	0.589254	0.147616
	H6	H	0.272321	0.584178	0.828480
	H7	H	0.273620	0.379837	0.148269
	H8	H	0.831082	0.693178	0.391379
	H9	H	0.155306	0.701606	0.594367
	H10	H	0.832429	0.263231	0.586224
	H11	H	0.156963	0.270069	0.390617
	H12	H	0.833607	0.373374	0.707207
	H13	H	0.152438	0.590581	0.712775
	H14	H	0.834351	0.587624	0.268048
	H15	H	0.152148	0.379008	0.268390
	H16	H	0.395985	0.693911	0.825902
	H17	H	0.597543	0.701401	0.149354
	H18	H	0.589768	0.263447	0.827486
	H19	H	0.393497	0.265844	0.150151
	H20	H	0.708295	0.816585	0.389555
	H21	H	0.716036	0.145724	0.593141
	H22	H	0.276158	0.818443	0.592576
	H23	H	0.282039	0.144624	0.389450
	H24	H	0.887526	0.318974	0.205587
	H25	H	0.097752	0.646571	0.208654
	H26	H	0.094209	0.319206	0.770213
	H27	H	0.893589	0.645191	0.772844
	H28	H	0.212080	0.875959	0.329805
	H29	H	0.216763	0.087100	0.649858
	H30	H	0.775160	0.083532	0.329452
	H31	H	0.775250	0.878302	0.650031
	H32	H	0.329617	0.188193	0.892242
	H33	H	0.655349	0.203262	0.092262
	H34	H	0.331278	0.766126	0.083965
	H35	H	0.657323	0.767332	0.889699
	H36	H	0.335542	0.872408	0.207668
	H37	H	0.656358	0.088430	0.210012
	H38	H	0.336723	0.086747	0.767215
	H39	H	0.655909	0.879712	0.771485
	H40	H	0.898602	0.193049	0.326961
	H41	H	0.097996	0.201702	0.650620
	H42	H	0.090818	0.763807	0.328812
	H43	H	0.896824	0.767274	0.652212
	H44	H	0.203371	0.316521	0.888427
	H45	H	0.211788	0.646408	0.090985
	H46	H	0.776693	0.317190	0.085423
	H47	H	0.780103	0.646215	0.888869
	H48	H	0.418045	0.095892	0.583140
	H49	H	0.579812	0.867017	0.581455
	H50	H	0.582165	0.097907	0.395023
	H51	H	0.404237	0.865309	0.404190
	H52	H	0.584043	0.388828	0.103395
	H53	H	0.592367	0.579485	0.870469
	H54	H	0.403380	0.570421	0.101411
	H55	H	0.396174	0.391761	0.874897
	H56	H	0.107705	0.569856	0.400719
	H57	H	0.877674	0.572765	0.579060
	H58	H	0.108706	0.390819	0.577327
	H59	H	0.874904	0.395447	0.380899
	H60	H	0.106157	0.402549	0.582036
	H61	H	0.879839	0.567403	0.582219
	H62	H	0.109303	0.570566	0.398975
	H63	H	0.873457	0.372296	0.399419
	H64	H	0.403583	0.573679	0.102494
	H65	H	0.590516	0.563799	0.876174
	H66	H	0.590457	0.397273	0.102397
	H67	H	0.401570	0.385660	0.874710
	H68	H	0.580905	0.093766	0.405267
	H69	H	0.584811	0.866171	0.577270
	H70	H	0.404966	0.095757	0.570769
	H71	H	0.399454	0.860706	0.395521
	H72	H	0.908519	0.598921	0.081930
	H73	H	0.079028	0.366040	0.080350
	H74	H	0.083867	0.601075	0.894751
	H75	H	0.902658	0.363239	0.893919
	H76	H	0.085376	0.894354	0.603093
	H77	H	0.087537	0.069007	0.376826
	H78	H	0.899949	0.063943	0.602825
	H79	H	0.903853	0.894164	0.378642
	H80	H	0.612162	0.080273	0.904477
	H81	H	0.378231	0.076204	0.080831
	H82	H	0.609504	0.888888	0.073729
	H83	H	0.378798	0.889773	0.893724
	H84	H	0.607448	0.902155	0.081030
	H85	H	0.381704	0.064675	0.080294
	H86	H	0.606897	0.066470	0.905170
	H87	H	0.379532	0.889912	0.896908
	H88	H	0.913902	0.072827	0.600507
	H89	H	0.086957	0.076979	0.374442
	H90	H	0.087540	0.889881	0.604961
	H91	H	0.903327	0.881688	0.375072
	H92	H	0.078360	0.596947	0.902473
	H93	H	0.081500	0.365274	0.078504
	H94	H	0.905657	0.598969	0.078367
	H95	H	0.900831	0.365600	0.898668
	H96	H	0.402234	0.102630	0.587217
	H97	H	0.585732	0.864834	0.583221
	H98	H	0.591359	0.098959	0.401944
	H99	H	0.410017	0.863212	0.395493
	H100	H	0.580393	0.398054	0.099599
	H101	H	0.577787	0.574230	0.876637
	H102	H	0.401213	0.572108	0.102458
	H103	H	0.393554	0.383667	0.872499
	H104	H	0.107724	0.571799	0.400536
	H105	H	0.876432	0.572327	0.585610
	H106	H	0.111009	0.393284	0.589354
	H107	H	0.885147	0.398903	0.408621
	H108	H	0.904439	0.599991	0.082365
	H109	H	0.082370	0.365240	0.081402
	H110	H	0.088565	0.599622	0.904179
	H111	H	0.897774	0.362343	0.895850
	H112	H	0.090769	0.894093	0.604349
	H113	H	0.093700	0.073374	0.373558
	H114	H	0.900521	0.079838	0.607229
	H115	H	0.893025	0.888721	0.373825
	H116	H	0.612678	0.072019	0.893015
	H117	H	0.377356	0.069269	0.090159
	H118	H	0.613559	0.889473	0.088291
	H119	H	0.380671	0.891960	0.894689
	C120	C	0.375868	-0.009664	0.610846
	C121	C	0.616709	0.974061	0.611633
	C122	C	0.615247	-0.010971	0.369468
	C123	C	0.374939	0.970989	0.368754
	C124	C	0.613960	0.361473	-0.003645
	C125	C	0.618156	0.605107	0.979973
	C126	C	0.372347	0.602181	-0.003847
	C127	C	0.368277	0.357666	0.979996
	C128	C	0.002348	0.601767	0.369673
	C129	C	0.984486	0.603793	0.613133
	C130	C	0.002630	0.361496	0.611023
	C131	C	0.984362	0.359598	0.366750
	C132	C	0.873653	0.491004	0.109773
	C133	C	0.113647	0.474018	0.111082
	C134	C	0.112735	0.490779	0.869035
	C135	C	0.871838	0.472444	0.867172
	C136	C	0.116759	0.859727	0.498477
	C137	C	0.119652	0.104886	0.480997
	C138	C	0.874582	0.101733	0.497528
	C139	C	0.871067	0.858536	0.481866
	C140	C	0.503782	0.101879	0.869599
	C141	C	0.486077	0.103098	0.113324
	C142	C	0.503566	0.859855	0.110019
	C143	C	0.486303	0.860637	0.866479
	C144	C	0.373820	0.867800	0.668331
	C145	C	0.621408	0.096736	0.671319
	C146	C	0.617968	0.866849	0.309134
	C147	C	0.374922	0.093381	0.310684
	C148	C	0.670841	0.359031	0.876245
	C149	C	0.677397	0.607343	0.100202
	C150	C	0.313223	0.602168	0.875910
	C151	C	0.312556	0.359791	0.100673
	C152	C	0.880076	0.656932	0.370953
	C153	C	0.106082	0.663154	0.613664
	C154	C	0.880966	0.302002	0.607564
	C155	C	0.107264	0.306022	0.369377
	C156	C	0.881411	0.357234	0.667455
	C157	C	0.104800	0.607984	0.672979
	C158	C	0.881675	0.604213	0.309628
	C159	C	0.104840	0.359947	0.308423
	C160	C	0.374565	0.657205	0.874648
	C161	C	0.617600	0.663293	0.100827
	C162	C	0.610997	0.302178	0.875767
	C163	C	0.372071	0.302951	0.101422
	C164	C	0.671424	0.865762	0.369404
	C165	C	0.677040	0.096809	0.612432
	C166	C	0.316029	0.867540	0.611214
	C167	C	0.319021	0.094627	0.369482
	C168	C	0.869785	0.367984	0.166831
	C169	C	0.116137	0.597188	0.169614
	C170	C	0.112215	0.367639	0.810291
	C171	C	0.873899	0.596049	0.811178
	C172	C	0.172963	0.857647	0.377599
	C173	C	0.177815	0.106290	0.601793
	C174	C	0.815615	0.101857	0.377169
	C175	C	0.814189	0.859356	0.602185
	C176	C	0.380080	0.154190	0.870970
	C177	C	0.607067	0.163669	0.112376
	C178	C	0.380926	0.802899	0.105990
	C179	C	0.608438	0.804697	0.869006
	C180	C	0.382898	0.855983	0.167469
	C181	C	0.607533	0.106491	0.171102
	C182	C	0.383590	0.103431	0.808790
	C183	C	0.607742	0.860615	0.809923
	C184	C	0.877212	0.156068	0.375734
	C185	C	0.118495	0.163216	0.602064
	C186	C	0.112755	0.801509	0.377424
	C187	C	0.874510	0.803923	0.603271
	C188	C	0.166772	0.366171	0.869199
	C189	C	0.172557	0.597430	0.110708
	C190	C	0.815026	0.366950	0.106729
	C191	C	0.817582	0.596786	0.868945
	C192	C	0.401244	0.075952	0.587157
	C193	C	0.590845	0.888339	0.587603
	C194	C	0.591577	0.074691	0.393750
	C195	C	0.398037	0.885248	0.391759
	C196	C	0.591487	0.387293	0.080151
	C197	C	0.594013	0.579641	0.896205
	C198	C	0.395693	0.578893	0.080329
	C199	C	0.390549	0.380228	0.895834
	C200	C	0.086398	0.577724	0.393209
	C201	C	0.899992	0.578330	0.589153
	C202	C	0.086910	0.387762	0.589243
	C203	C	0.899737	0.382277	0.389602
	C204	C	0.898930	0.577061	0.087460
	C205	C	0.088330	0.387833	0.087008
	C206	C	0.090295	0.576758	0.893354
	C207	C	0.893821	0.385941	0.889585
	C208	C	0.094499	0.885340	0.582413
	C209	C	0.096199	0.080209	0.396709
	C210	C	0.898042	0.079089	0.581861
	C211	C	0.893510	0.881442	0.397617
	C212	C	0.588543	0.079443	0.893755
	C213	C	0.401039	0.077509	0.090418
	C214	C	0.588244	0.885853	0.087820
	C215	C	0.401797	0.883753	0.888672
	Zn216	Zn	0.496287	-0.016518	0.739507
	Zn217	Zn	0.495926	-0.020882	0.240074
	Zn218	Zn	0.745733	0.482354	-0.011522
	Zn219	Zn	0.240503	0.481211	-0.011632
	Zn220	Zn	-0.006540	0.730390	0.490297
	Zn221	Zn	-0.004883	0.232296	0.489413
	Zn222	Zn	-0.006791	0.481862	0.740718
	Zn223	Zn	-0.006898	0.482617	0.239539
	Zn224	Zn	0.494499	0.732018	-0.012366
	Zn225	Zn	0.492146	0.229877	-0.011112
	Zn226	Zn	0.743254	-0.018521	0.489478
	Zn227	Zn	0.247005	-0.019158	0.489743
	N228	N	0.410540	0.945338	0.668014
	N229	N	0.584601	0.019430	0.670830
	N230	N	0.583564	0.944664	0.308992
	N231	N	0.408876	0.015456	0.309799
	N232	N	0.672694	0.395145	0.952274
	N233	N	0.678040	0.572159	0.024001
	N234	N	0.311619	0.568776	0.952616
	N235	N	0.310057	0.392990	0.024117
	N236	N	0.955824	0.655453	0.407778
	N237	N	0.030150	0.660696	0.577097
	N238	N	0.957378	0.304355	0.573189
	N239	N	0.031387	0.305537	0.404966
	N240	N	0.958060	0.393642	0.669648
	N241	N	0.028404	0.571375	0.672662
	N242	N	0.958611	0.570713	0.308387
	N243	N	0.027496	0.392528	0.306470
	N244	N	0.410838	0.657087	0.950218
	N245	N	0.581800	0.662382	0.024904
	N246	N	0.576051	0.303738	0.951451
	N247	N	0.405814	0.301393	0.025325
	N248	N	0.669809	0.942762	0.406331
	N249	N	0.674346	0.019488	0.576054
	N250	N	0.317482	0.944723	0.575931
	N251	N	0.318831	0.017343	0.404768
	N252	N	0.905585	0.446015	0.168625
	N253	N	0.080186	0.519323	0.169722
	N254	N	0.079555	0.446104	0.809915
	N255	N	0.906612	0.517590	0.809904
	N256	N	0.175493	0.892924	0.453792
	N257	N	0.178691	0.070881	0.525427
	N258	N	0.813946	0.068639	0.453890
	N259	N	0.811754	0.892562	0.525364
	N260	N	0.455745	0.153309	0.908271
	N261	N	0.530335	0.161871	0.077451
	N262	N	0.457087	0.805113	0.071333
	N263	N	0.531903	0.804306	0.903362
	N264	N	0.460503	0.890616	0.170126
	N265	N	0.531037	0.069635	0.171912
	N266	N	0.461537	0.071985	0.807506
	N267	N	0.530961	0.894390	0.807970
	N268	N	0.912858	0.156426	0.451673
	N269	N	0.083511	0.162950	0.525911
	N270	N	0.078651	0.802509	0.453686
	N271	N	0.908689	0.803106	0.527426
	N272	N	0.167244	0.443803	0.905178
	N273	N	0.171204	0.519615	0.075114
	N274	N	0.817357	0.444532	0.071990
	N275	N	0.816158	0.518830	0.902997
	O276	O	0.364415	0.431182	0.478939
	H277	H	0.371846	0.442596	0.478892
	H278	H	0.373800	0.409291	0.478234
	O279	O	0.303141	0.460299	0.309166
	H280	H	0.305382	0.463797	0.329214
	H281	H	0.322832	0.473745	0.299709
	O282	O	1.093132	-0.016871	0.950087
	H283	H	1.095276	-0.007990	0.956230
	H284	H	1.088391	-0.030918	0.944077
	O285	O	0.647816	0.505871	0.469335
	H286	H	0.646435	0.509852	0.481840
	H287	H	0.635456	0.519782	0.481292
	O288	O	0.871105	1.115200	0.998390
	H289	H	0.874128	1.102902	0.997837
	H290	H	0.871090	1.098465	0.985451
	O291	O	-0.162396	0.961410	0.019877
	H292	H	-0.145365	0.963760	0.019338
	H293	H	-0.156722	0.981095	0.016910
	O294	O	0.553510	0.431006	0.391529
	H295	H	0.558821	0.446952	0.414260
	H296	H	0.557051	0.439858	0.375594
	O297	O	0.581056	0.394702	0.324799
	H298	H	0.596276	0.400872	0.323037
	H299	H	0.586524	0.396997	0.313067
	O300	O	0.317859	0.285179	0.555447
	H301	H	0.303326	0.277637	0.569022
	H302	H	0.310777	0.270893	0.533406
	O303	O	0.658952	0.479409	0.682540
	H304	H	0.655702	0.458625	0.687598
	H305	H	0.650477	0.459638	0.671550
	O306	O	0.676315	0.609968	0.661317
	H307	H	0.688845	0.596190	0.659490
	H308	H	0.684598	0.589840	0.675177
	O309	O	0.525931	0.392652	0.476212
	H310	H	0.517801	0.393866	0.479007
	H311	H	0.520061	0.396627	0.495375
	O312	O	-0.081520	0.099403	-0.010251
	H313	H	-0.094380	0.087183	-0.015519
	H314	H	-0.090470	0.109244	-0.012898
	O315	O	0.512731	0.274248	0.363301
	H316	H	0.514844	0.259606	0.360178
	H317	H	0.540086	0.269635	0.383645
	O318	O	0.052643	1.150287	1.106344
	H319	H	0.034934	1.149932	1.115442
	H320	H	0.045317	1.146677	1.102732
	O321	O	0.443883	0.662142	0.498757
	H322	H	0.439989	0.676655	0.509775
	H323	H	0.434058	0.669636	0.481928
	O324	O	0.083299	1.031464	-0.100546
	H325	H	0.107546	1.030084	-0.092144
	H326	H	0.087829	1.036372	-0.078833
	O327	O	0.500464	0.633566	0.306381
	H328	H	0.486469	0.624436	0.313351
	H329	H	0.499145	0.659483	0.288539
	O330	O	-0.114674	0.083320	0.880730
	H331	H	-0.111619	0.094347	0.875501
	H332	H	-0.106143	0.084675	0.873553
	O333	O	-0.008252	-0.088160	0.937588
	H334	H	-0.015981	-0.087755	0.933596
	H335	H	-0.004398	-0.084301	0.949377
	O336	O	0.316457	0.668432	0.481748
	H337	H	0.301214	0.671748	0.470655
	H338	H	0.308970	0.661013	0.463109
	O339	O	0.356840	0.647442	0.323368
	H340	H	0.358025	0.638100	0.340207
	H341	H	0.370122	0.627870	0.314794
	O342	O	0.536903	-0.316099	0.635254
	H343	H	0.533901	-0.305875	0.652200
	H344	H	0.547057	-0.324977	0.647311
	O345	O	1.504840	0.384512	1.384392
	H346	H	1.513053	0.394318	1.378089
	H347	H	1.504980	0.381844	1.373604
	O348	O	1.063183	0.904618	0.109637
	H349	H	1.073659	0.904167	0.115254
	H350	H	1.063331	0.916690	0.110772
	O351	O	0.591970	0.574918	0.547796
	H352	H	0.593869	0.584936	0.561540
	H353	H	0.596829	0.580639	0.562678
	O354	O	0.944909	-0.104237	1.017291
	H355	H	0.951161	-0.102420	0.990730
	H356	H	0.950975	-0.093120	1.016554
	O357	O	0.509836	0.417638	0.357122
	H358	H	0.518527	0.400571	0.358788
	H359	H	0.533767	0.427950	0.353741
	O360	O	1.161957	1.229233	1.181209
	H361	H	1.166421	1.243428	1.194878
	H362	H	1.174349	1.241470	1.184380
	O363	O	-0.058309	0.869961	0.974251
	H364	H	-0.065904	0.868652	0.988788
	H365	H	-0.041120	0.872176	0.967580
	O366	O	0.578134	0.641932	0.483034
	H367	H	0.564307	0.661229	0.469649
	H368	H	0.569010	0.650113	0.496621
	O369	O	0.015417	0.914134	-0.144478
	H370	H	0.013793	0.932353	-0.142486
	H371	H	0.020031	0.920641	-0.147012
	O372	O	0.523956	0.330883	0.642423
	H373	H	0.519598	0.324363	0.647079
	H374	H	0.509935	0.330989	0.642938
	O375	O	0.685703	0.333366	0.318093
	H376	H	0.700276	0.350693	0.325553
	H377	H	0.695758	0.350494	0.324687
	O378	O	1.075731	0.952124	-0.066795
	H379	H	1.080706	0.940739	-0.056683
	H380	H	1.072175	0.977393	-0.071899
	O381	O	1.075100	-0.031502	0.166654
	H382	H	1.081411	-0.009674	0.163520
	H383	H	1.081981	-0.016967	0.171971
	O384	O	0.995321	0.814796	0.105807
	H385	H	0.974054	0.810212	0.104520
	H386	H	0.998963	0.808241	0.107977
	O387	O	-0.655350	0.599270	0.507535
	H388	H	-0.663743	0.607285	0.491881
	H389	H	-0.632657	0.595414	0.506402
	O390	O	0.179381	1.084533	-0.025306
	H391	H	0.196469	1.098932	-0.016722
	H392	H	0.179191	1.076459	-0.000270
	O393	O	0.906132	0.882678	1.021006
	H394	H	0.908427	0.889744	1.023862
	H395	H	0.913095	0.869061	1.028945
	O396	O	0.556476	0.434260	0.643996
	H397	H	0.550902	0.440149	0.638980
	H398	H	0.549689	0.439835	0.628546
	O399	O	-0.186843	0.838082	1.060991
	H400	H	-0.200980	0.844196	1.064916
	H401	H	-0.196772	0.826348	1.063667
	O402	O	0.320117	0.440715	0.588455
	H403	H	0.313157	0.453056	0.583177
	H404	H	0.320108	0.455341	0.579039
	O405	O	0.970909	1.050856	-0.175932
	H406	H	0.990284	1.061060	-0.183522
	H407	H	0.975103	1.047449	-0.164910
	O408	O	1.108081	1.134145	0.132992
	H409	H	1.096943	1.137917	0.123780
	H410	H	1.121920	1.162118	0.153095
	O411	O	1.174741	-0.067695	0.912320
	H412	H	1.192467	-0.079353	0.918092
	H413	H	1.172509	-0.066245	0.909802
	O414	O	0.619549	0.463169	0.563183
	H415	H	0.639699	0.463991	0.566024
	H416	H	0.604799	0.467025	0.563325
	O417	O	0.327957	0.345877	0.675346
	H418	H	0.319958	0.364900	0.674853
	H419	H	0.328753	0.343712	0.671567
