data_Molecule from HDF5

_cell_length_a		16.199638
_cell_length_b		16.151788
_cell_length_c		16.650599
_cell_angle_alpha	89.907386
_cell_angle_beta	90.041204
_cell_angle_gamma	90.279811
_symmetry_space_group_name_H-M	'P 1'
_symmetry_Int_Tables_number		1

loop_
	_symmetry_equiv_pos_as_xyz
	x,y,z

loop_
	_atom_site_label
	_atom_site_type_symbol
	_atom_site_fract_x
	_atom_site_fract_y
	_atom_site_fract_z
	H0	H	0.395030	0.825177	0.720237
	H1	H	0.608120	0.147904	0.720444
	H2	H	0.608636	0.825582	0.280829
	H3	H	0.396051	0.146423	0.277666
	H4	H	0.720970	0.384591	0.839594
	H5	H	0.721706	0.585543	0.158055
	H6	H	0.283057	0.589007	0.840477
	H7	H	0.280880	0.383148	0.157783
	H8	H	0.837847	0.697067	0.400839
	H9	H	0.164894	0.700974	0.596859
	H10	H	0.838174	0.270517	0.596589
	H11	H	0.165356	0.273494	0.401653
	H12	H	0.841574	0.376459	0.720615
	H13	H	0.160805	0.594894	0.721096
	H14	H	0.842215	0.590292	0.277801
	H15	H	0.160917	0.376486	0.276330
	H16	H	0.403022	0.704545	0.840267
	H17	H	0.605324	0.704538	0.158906
	H18	H	0.602666	0.267663	0.839648
	H19	H	0.399233	0.265383	0.158369
	H20	H	0.714210	0.822589	0.404216
	H21	H	0.718823	0.150389	0.599872
	H22	H	0.286130	0.822827	0.598811
	H23	H	0.287149	0.150171	0.399494
	H24	H	0.890839	0.325199	0.221785
	H25	H	0.108655	0.645602	0.219861
	H26	H	0.111831	0.326433	0.775132
	H27	H	0.893764	0.644050	0.776529
	H28	H	0.225650	0.880167	0.342819
	H29	H	0.222306	0.090056	0.658135
	H30	H	0.780023	0.091405	0.341907
	H31	H	0.783877	0.884370	0.658444
	H32	H	0.338975	0.202783	0.898485
	H33	H	0.665840	0.203525	0.099012
	H34	H	0.339750	0.770270	0.099802
	H35	H	0.666058	0.774144	0.901896
	H36	H	0.343530	0.878399	0.222007
	H37	H	0.662188	0.097348	0.223106
	H38	H	0.342953	0.096362	0.776081
	H39	H	0.660738	0.878764	0.776934
	H40	H	0.898891	0.206264	0.340435
	H41	H	0.104778	0.207043	0.657755
	H42	H	0.103094	0.766930	0.340021
	H43	H	0.897893	0.764103	0.656611
	H44	H	0.220590	0.323410	0.896531
	H45	H	0.216997	0.649498	0.098219
	H46	H	0.784259	0.322091	0.099366
	H47	H	0.790717	0.649066	0.901564
	H48	H	0.419256	0.102102	0.594993
	H49	H	0.595371	0.869237	0.590044
	H50	H	0.590343	0.102480	0.411484
	H51	H	0.415818	0.872783	0.413603
	H52	H	0.588176	0.398933	0.108075
	H53	H	0.611452	0.585448	0.879938
	H54	H	0.416284	0.577860	0.110071
	H55	H	0.412465	0.398823	0.889429
	H56	H	0.116293	0.571525	0.410594
	H57	H	0.883148	0.578076	0.589478
	H58	H	0.116271	0.396153	0.585431
	H59	H	0.885639	0.398365	0.406227
	H60	H	0.115091	0.405216	0.589544
	H61	H	0.888530	0.569054	0.586001
	H62	H	0.119233	0.573060	0.402654
	H63	H	0.885846	0.396897	0.407992
	H64	H	0.407572	0.581351	0.114476
	H65	H	0.594120	0.566155	0.891356
	H66	H	0.592420	0.388789	0.112852
	H67	H	0.414090	0.392905	0.887868
	H68	H	0.593005	0.104254	0.407663
	H69	H	0.587781	0.869400	0.598420
	H70	H	0.415562	0.099975	0.586534
	H71	H	0.411160	0.869981	0.409415
	H72	H	0.909462	0.602725	0.089808
	H73	H	0.093453	0.368793	0.089080
	H74	H	0.092533	0.600930	0.909539
	H75	H	0.913593	0.368853	0.909763
	H76	H	0.089086	0.899102	0.609166
	H77	H	0.091706	0.076289	0.388845
	H78	H	0.914569	0.084060	0.612768
	H79	H	0.903992	0.892996	0.384024
	H80	H	0.616748	0.075703	0.910551
	H81	H	0.391265	0.069877	0.083541
	H82	H	0.620852	0.893882	0.091369
	H83	H	0.387309	0.901413	0.908637
	H84	H	0.616906	0.901565	0.090167
	H85	H	0.387640	0.066451	0.096503
	H86	H	0.616864	0.072021	0.909215
	H87	H	0.384851	0.895988	0.906571
	H88	H	0.904200	0.075678	0.613061
	H89	H	0.093064	0.081767	0.386704
	H90	H	0.089563	0.889809	0.612099
	H91	H	0.909569	0.898117	0.387580
	H92	H	0.089478	0.602566	0.904583
	H93	H	0.085605	0.369747	0.093723
	H94	H	0.916582	0.601651	0.095715
	H95	H	0.911785	0.367659	0.907181
	H96	H	0.409646	0.104633	0.592700
	H97	H	0.585618	0.873502	0.588168
	H98	H	0.588254	0.102870	0.406565
	H99	H	0.417738	0.871037	0.407284
	H100	H	0.599839	0.397962	0.111759
	H101	H	0.584691	0.591729	0.885898
	H102	H	0.408195	0.572150	0.110713
	H103	H	0.408340	0.394983	0.886680
	H104	H	0.119967	0.578656	0.408377
	H105	H	0.884430	0.569596	0.596051
	H106	H	0.119003	0.397777	0.594598
	H107	H	0.886687	0.398977	0.408153
	H108	H	0.917789	0.599227	0.087390
	H109	H	0.085797	0.371506	0.084590
	H110	H	0.086724	0.598587	0.908705
	H111	H	0.915203	0.368782	0.906146
	H112	H	0.097825	0.895083	0.612121
	H113	H	0.097440	0.076694	0.386227
	H114	H	0.915631	0.071675	0.607412
	H115	H	0.911803	0.890150	0.386432
	H116	H	0.617595	0.074628	0.907022
	H117	H	0.385285	0.079730	0.091983
	H118	H	0.620317	0.899308	0.097600
	H119	H	0.386496	0.896245	0.912142
	C120	C	0.381625	-0.004559	0.621779
	C121	C	0.622149	0.978100	0.622254
	C122	C	0.622157	-0.004429	0.379198
	C123	C	0.382240	0.977984	0.378775
	C124	C	0.624251	0.364264	0.006494
	C125	C	0.626260	0.609730	0.991222
	C126	C	0.380600	0.608164	0.007294
	C127	C	0.379408	0.363519	0.991507
	C128	C	0.010993	0.605261	0.377485
	C129	C	0.992328	0.605456	0.620457
	C130	C	0.010274	0.366069	0.620463
	C131	C	0.992708	0.365398	0.377203
	C132	C	0.881720	0.493652	0.120883
	C133	C	0.121104	0.476925	0.119790
	C134	C	0.122831	0.494313	0.876548
	C135	C	0.882166	0.475922	0.877666
	C136	C	0.123367	0.863532	0.506930
	C137	C	0.125153	0.109363	0.491546
	C138	C	0.879959	0.108651	0.506997
	C139	C	0.878227	0.862702	0.490643
	C140	C	0.510492	0.106522	0.878340
	C141	C	0.494238	0.106429	0.121566
	C142	C	0.512153	0.865399	0.122715
	C143	C	0.493055	0.866590	0.878485
	C144	C	0.378097	0.873261	0.680112
	C145	C	0.625593	0.099807	0.680486
	C146	C	0.625373	0.873837	0.321017
	C147	C	0.378928	0.099032	0.318780
	C148	C	0.681610	0.365048	0.886964
	C149	C	0.683194	0.606917	0.110672
	C150	C	0.322374	0.608462	0.887913
	C151	C	0.320493	0.363148	0.110515
	C152	C	0.887554	0.660651	0.379426
	C153	C	0.115241	0.663692	0.618414
	C154	C	0.887580	0.307712	0.618305
	C155	C	0.115640	0.309192	0.379577
	C156	C	0.889338	0.360721	0.679730
	C157	C	0.113341	0.610437	0.679756
	C158	C	0.889866	0.607450	0.318295
	C159	C	0.113472	0.360654	0.317281
	C160	C	0.382010	0.665944	0.887888
	C161	C	0.625150	0.665918	0.110972
	C162	C	0.623023	0.306561	0.887076
	C163	C	0.379517	0.304995	0.110902
	C164	C	0.677789	0.872049	0.382555
	C165	C	0.680193	0.101192	0.620238
	C166	C	0.324008	0.872093	0.619697
	C167	C	0.324731	0.100630	0.379480
	C168	C	0.875855	0.372773	0.180522
	C169	C	0.125280	0.598028	0.179330
	C170	C	0.127877	0.374038	0.815935
	C171	C	0.878347	0.596865	0.818125
	C172	C	0.184088	0.862176	0.389250
	C173	C	0.183152	0.109691	0.610575
	C174	C	0.820013	0.110060	0.388868
	C175	C	0.821706	0.863636	0.610341
	C176	C	0.388017	0.164554	0.878776
	C177	C	0.616280	0.165734	0.120129
	C178	C	0.389304	0.807632	0.120908
	C179	C	0.616157	0.810510	0.880410
	C180	C	0.391167	0.861167	0.181937
	C181	C	0.614716	0.112380	0.181723
	C182	C	0.389999	0.111734	0.817656
	C183	C	0.613688	0.863027	0.818558
	C184	C	0.879470	0.167335	0.388169
	C185	C	0.124157	0.167533	0.610577
	C186	C	0.123237	0.805628	0.387904
	C187	C	0.878648	0.804050	0.609603
	C188	C	0.182162	0.372454	0.876487
	C189	C	0.179187	0.599908	0.118707
	C190	C	0.822606	0.371242	0.119424
	C191	C	0.826501	0.599297	0.879669
	C192	C	0.407386	0.080169	0.598385
	C193	C	0.596853	0.892983	0.599163
	C194	C	0.597728	0.081151	0.402055
	C195	C	0.407539	0.893239	0.402979
	C196	C	0.600351	0.388083	0.089389
	C197	C	0.603414	0.587504	0.907529
	C198	C	0.403926	0.584052	0.090292
	C199	C	0.404280	0.388281	0.909455
	C200	C	0.096231	0.581354	0.400530
	C201	C	0.907536	0.579702	0.597237
	C202	C	0.094724	0.392095	0.596801
	C203	C	0.908105	0.390606	0.400611
	C204	C	0.907436	0.578868	0.097807
	C205	C	0.095771	0.392132	0.095910
	C206	C	0.097066	0.578756	0.900733
	C207	C	0.906554	0.390595	0.901031
	C208	C	0.099262	0.887653	0.589704
	C209	C	0.101089	0.085261	0.408580
	C210	C	0.904459	0.084183	0.589566
	C211	C	0.901584	0.886729	0.407606
	C212	C	0.594908	0.081393	0.902083
	C213	C	0.409925	0.079749	0.097619
	C214	C	0.597169	0.890921	0.099697
	C215	C	0.408439	0.891092	0.902241
	Zn216	Zn	0.501414	-0.013250	0.750462
	Zn217	Zn	0.503292	-0.013797	0.250525
	Zn218	Zn	0.755657	0.485613	-0.001637
	Zn219	Zn	0.249429	0.486338	-0.001148
	Zn220	Zn	0.001396	0.732618	0.498627
	Zn221	Zn	0.002070	0.238971	0.499101
	Zn222	Zn	0.001177	0.485265	0.749098
	Zn223	Zn	0.002498	0.484393	0.249287
	Zn224	Zn	0.502556	0.739484	0.000166
	Zn225	Zn	0.501931	0.233569	-0.000683
	Zn226	Zn	0.749297	-0.013159	0.499773
	Zn227	Zn	0.254410	-0.013549	0.500121
	N228	N	0.413082	0.950981	0.681580
	N229	N	0.590377	0.022255	0.681779
	N230	N	0.591853	0.951882	0.318788
	N231	N	0.413836	0.021655	0.318222
	N232	N	0.682451	0.400037	0.962207
	N233	N	0.684046	0.572889	0.035228
	N234	N	0.321457	0.573050	0.963236
	N235	N	0.319938	0.398304	0.035385
	N236	N	0.963895	0.659761	0.415307
	N237	N	0.039068	0.660785	0.582100
	N238	N	0.963711	0.310819	0.582244
	N239	N	0.039674	0.311782	0.415937
	N240	N	0.966820	0.396034	0.681348
	N241	N	0.035875	0.575113	0.681226
	N242	N	0.967783	0.573748	0.316964
	N243	N	0.035958	0.394719	0.315663
	N244	N	0.417305	0.665913	0.962952
	N245	N	0.590377	0.667827	0.035560
	N246	N	0.588217	0.305820	0.962395
	N247	N	0.415163	0.304825	0.035921
	N248	N	0.676025	0.948971	0.417726
	N249	N	0.678178	0.024411	0.584587
	N250	N	0.325852	0.948868	0.584358
	N251	N	0.326624	0.024204	0.416004
	N252	N	0.912335	0.449834	0.181378
	N253	N	0.090008	0.520502	0.180131
	N254	N	0.091428	0.450723	0.816164
	N255	N	0.912324	0.519091	0.816878
	N256	N	0.184267	0.897448	0.464227
	N257	N	0.183806	0.074265	0.535607
	N258	N	0.820062	0.074384	0.463888
	N259	N	0.821091	0.899434	0.535463
	N260	N	0.463755	0.161685	0.915831
	N261	N	0.540348	0.161920	0.083241
	N262	N	0.465718	0.809939	0.085036
	N263	N	0.540308	0.812751	0.917293
	N264	N	0.468522	0.896307	0.183188
	N265	N	0.537746	0.076170	0.182724
	N266	N	0.466992	0.076122	0.817240
	N267	N	0.536017	0.897052	0.817278
	N268	N	0.916012	0.166513	0.462528
	N269	N	0.088933	0.167596	0.535347
	N270	N	0.086049	0.806571	0.461959
	N271	N	0.912823	0.803058	0.534064
	N272	N	0.179120	0.448204	0.913656
	N273	N	0.176892	0.523627	0.082233
	N274	N	0.826206	0.447503	0.082899
	N275	N	0.828757	0.523056	0.916157
	O276	O	0.549354	0.350140	0.438256
	H277	H	0.550296	0.346654	0.416945
	H278	H	0.547259	0.355630	0.433094
	O279	O	0.576557	0.503535	0.543221
	H280	H	0.570319	0.492513	0.553939
	H281	H	0.577704	0.495641	0.532334
	O282	O	0.482574	0.418486	0.459660
	H283	H	0.479516	0.418420	0.460033
	H284	H	0.471446	0.423833	0.465564
	O285	O	0.804288	-0.132163	0.158546
	H286	H	0.792226	-0.145017	0.154377
	H287	H	0.788520	-0.137049	0.166585
	O288	O	-0.012252	0.115034	0.851457
	H289	H	-0.007857	0.116793	0.861954
	H290	H	-0.014592	0.100082	0.845330
	O291	O	0.522452	0.540599	0.455319
	H292	H	0.522479	0.540433	0.468889
	H293	H	0.528434	0.549402	0.458927
	O294	O	0.380959	0.586535	0.579047
	H295	H	0.384404	0.594808	0.587167
	H296	H	0.386060	0.587652	0.587014
	O297	O	1.202623	0.971640	0.835678
	H298	H	1.203154	0.969401	0.826419
	H299	H	1.202555	0.954781	0.833729
	O300	O	-0.201257	-0.029875	-0.205685
	H301	H	-0.221996	-0.018638	-0.221598
	H302	H	-0.197351	-0.001597	-0.205997
	O303	O	0.553183	0.660367	0.543617
	H304	H	0.551706	0.648088	0.541075
	H305	H	0.552170	0.652741	0.554792
	O306	O	1.191015	0.112278	0.152873
	H307	H	1.175627	0.086630	0.159264
	H308	H	1.172092	0.129026	0.151374
	O309	O	-0.151970	-0.053525	0.909056
	H310	H	-0.155559	-0.046345	0.911678
	H311	H	-0.143978	-0.034017	0.906031
	O312	O	1.155671	0.789994	0.029695
	H313	H	1.155836	0.814446	0.046500
	H314	H	1.157053	0.774672	0.012492
	O315	O	0.124983	0.124273	-0.068958
	H316	H	0.136851	0.135752	-0.067205
	H317	H	0.131174	0.109024	-0.070092
	O318	O	0.443470	0.655418	0.480567
	H319	H	0.465024	0.656038	0.486303
	H320	H	0.443455	0.654426	0.477235
	O321	O	1.087316	-0.152397	1.058382
	H322	H	1.098060	-0.133114	1.046012
	H323	H	1.068750	-0.160246	1.069410
	O324	O	-0.064099	0.070759	0.843906
	H325	H	-0.057279	0.070400	0.857929
	H326	H	-0.067779	0.092445	0.827118
	O327	O	0.119242	0.098462	-0.051417
	H328	H	0.129505	0.099268	-0.037098
	H329	H	0.138348	0.102581	-0.064818
	O330	O	0.370716	0.380809	0.370124
	H331	H	0.370935	0.371124	0.371439
	H332	H	0.371288	0.398840	0.370731
	O333	O	0.578946	1.529372	0.448308
	H334	H	0.572388	1.524524	0.457982
	H335	H	0.575743	1.509647	0.463639
	O336	O	0.427771	0.611798	0.320899
	H337	H	0.436669	0.607627	0.344918
	H338	H	0.421552	0.610488	0.323171
	O339	O	0.909101	0.077098	0.972035
	H340	H	0.917221	0.078539	0.975613
	H341	H	0.915341	0.071943	0.987875
	O342	O	0.530908	1.522706	0.600402
	H343	H	0.529514	1.517150	0.608615
	H344	H	0.522014	1.513039	0.588255
	O345	O	-0.083081	0.930750	0.885225
	H346	H	-0.080714	0.932163	0.894070
	H347	H	-0.096335	0.945478	0.892754
	O348	O	0.534933	0.504762	0.626705
	H349	H	0.537237	0.503920	0.617820
	H350	H	0.545352	0.505558	0.613260
	O351	O	0.215523	0.165524	0.059643
	H352	H	0.241045	0.193990	0.076788
	H353	H	0.209998	0.166970	0.092642
	O354	O	0.950914	1.067761	0.023891
	H355	H	0.954926	1.047092	0.035973
	H356	H	0.942036	1.080020	0.009008
	O357	O	0.397301	1.368092	0.606467
	H358	H	0.385223	1.357187	0.621350
	H359	H	0.389258	1.379054	0.617144
	O360	O	0.514723	0.460961	0.671315
	H361	H	0.514989	0.460804	0.677800
	H362	H	0.499802	0.460069	0.663888
	O363	O	0.186717	0.797857	0.810044
	H364	H	0.147581	0.792727	0.807640
	H365	H	0.198034	0.817741	0.819868
	O366	O	1.534619	1.336908	0.499219
	H367	H	1.537069	1.329999	0.496999
	H368	H	1.540527	1.341603	0.504531
	O369	O	0.658711	0.540912	0.606393
	H370	H	0.646475	0.532033	0.622170
	H371	H	0.671672	0.537975	0.605742
	O372	O	0.377317	0.613826	0.352837
	H373	H	0.384587	0.621410	0.343216
	H374	H	0.376986	0.634809	0.352781
	O375	O	0.393261	0.475535	0.558410
	H376	H	0.406697	0.472111	0.555260
	H377	H	0.389632	0.493436	0.551423
	O378	O	0.929766	0.128687	0.065356
	H379	H	0.909175	0.126011	0.079395
	H380	H	0.947869	0.128472	0.048873
	O381	O	0.561597	0.509566	0.371414
	H382	H	0.549452	0.515454	0.382923
	H383	H	0.554564	0.525295	0.373693
	O384	O	0.125193	0.999511	1.112768
	H385	H	0.118304	0.993789	1.118739
	H386	H	0.131659	1.005489	1.128022
	O387	O	0.821390	0.925705	0.189856
	H388	H	0.822053	0.921292	0.188909
	H389	H	0.820854	0.913899	0.190459
	O390	O	0.423568	0.390057	0.491891
	H391	H	0.416489	0.379288	0.505516
	H392	H	0.411505	0.377184	0.471745
	O393	O	1.385805	0.462516	1.518928
	H394	H	1.379098	0.460149	1.515586
	H395	H	1.382218	0.462018	1.523748
	O396	O	-0.075284	0.803313	0.973003
	H397	H	-0.065681	0.822154	0.950074
	H398	H	-0.073292	0.795785	0.966771
	O399	O	0.637125	0.539622	0.398233
	H400	H	0.630708	0.537501	0.409832
	H401	H	0.647206	0.560279	0.388063
	O402	O	1.022611	-0.178097	0.798848
	H403	H	1.018854	-0.171026	0.794542
	H404	H	1.020293	-0.178126	0.799156
	O405	O	0.064372	-0.045265	0.038728
	H406	H	0.067515	-0.035525	0.041974
	H407	H	0.063585	-0.062754	0.048519
	O408	O	0.478354	1.473842	1.352029
	H409	H	0.481591	1.493670	1.348515
	H410	H	0.478021	1.455744	1.360315
	O411	O	1.085779	1.118632	0.206034
	H412	H	1.079522	1.128270	0.216577
	H413	H	1.077986	1.116605	0.199527
	O414	O	-0.172443	0.135364	0.816327
	H415	H	-0.175091	0.141922	0.846189
	H416	H	-0.139422	0.141634	0.822425
	O417	O	0.610130	0.524036	0.577524
	H418	H	0.612609	0.529058	0.578325
	H419	H	0.617219	0.502581	0.573561
	O420	O	0.005276	1.045193	0.199036
	H421	H	0.016654	1.063582	0.209036
	H422	H	0.016128	1.025275	0.195739
	O423	O	0.969555	-0.118924	-0.088695
	H424	H	0.967562	-0.101324	-0.078133
	H425	H	0.973016	-0.125710	-0.097366
	O426	O	-0.036620	-0.060739	1.209489
	H427	H	-0.041751	-0.075975	1.190500
	H428	H	-0.048553	-0.084910	1.231345
	O429	O	-0.046602	0.843102	0.169806
	H430	H	-0.050257	0.812088	0.172867
	H431	H	-0.078527	0.841326	0.168366
