data_Molecule from HDF5

_cell_length_a		16.385137
_cell_length_b		16.227693
_cell_length_c		16.143775
_cell_angle_alpha	90.327129
_cell_angle_beta	90.103719
_cell_angle_gamma	90.310294
_symmetry_space_group_name_H-M	'P 1'
_symmetry_Int_Tables_number		1

loop_
	_symmetry_equiv_pos_as_xyz
	x,y,z

loop_
	_atom_site_label
	_atom_site_type_symbol
	_atom_site_fract_x
	_atom_site_fract_y
	_atom_site_fract_z
	H0	H	0.403866	0.815068	0.717341
	H1	H	0.606690	0.141461	0.721686
	H2	H	0.602194	0.816640	0.286625
	H3	H	0.406549	0.143806	0.293279
	H4	H	0.721306	0.378960	0.840871
	H5	H	0.722709	0.585578	0.168526
	H6	H	0.288461	0.581117	0.842225
	H7	H	0.288245	0.379051	0.167640
	H8	H	0.843332	0.695590	0.403247
	H9	H	0.166619	0.698125	0.607364
	H10	H	0.843991	0.259850	0.609779
	H11	H	0.165865	0.263340	0.405019
	H12	H	0.842377	0.381082	0.721451
	H13	H	0.168052	0.580908	0.722032
	H14	H	0.843813	0.580786	0.287234
	H15	H	0.165865	0.378310	0.288105
	H16	H	0.406448	0.691272	0.839925
	H17	H	0.605599	0.699499	0.168246
	H18	H	0.604280	0.263719	0.840064
	H19	H	0.405764	0.266976	0.168547
	H20	H	0.721172	0.816736	0.398795
	H21	H	0.725404	0.140100	0.611227
	H22	H	0.287080	0.816368	0.604351
	H23	H	0.286550	0.140349	0.400933
	H24	H	0.904772	0.316644	0.217565
	H25	H	0.105751	0.643015	0.221800
	H26	H	0.101586	0.316306	0.791993
	H27	H	0.906832	0.644463	0.791913
	H28	H	0.219179	0.876191	0.339873
	H29	H	0.222282	0.079738	0.667642
	H30	H	0.787258	0.081237	0.341927
	H31	H	0.785872	0.876229	0.667846
	H32	H	0.341596	0.194581	0.903411
	H33	H	0.665336	0.199603	0.106895
	H34	H	0.342229	0.762515	0.103797
	H35	H	0.665141	0.762092	0.901107
	H36	H	0.341035	0.882163	0.217655
	H37	H	0.665001	0.082958	0.222169
	H38	H	0.341632	0.077136	0.787746
	H39	H	0.665776	0.878024	0.786382
	H40	H	0.904687	0.193768	0.341314
	H41	H	0.107108	0.196486	0.669003
	H42	H	0.102729	0.762034	0.341038
	H43	H	0.906486	0.765953	0.670274
	H44	H	0.220712	0.318202	0.902533
	H45	H	0.223369	0.643013	0.109035
	H46	H	0.784340	0.319752	0.108967
	H47	H	0.788424	0.643041	0.902886
	H48	H	0.409034	0.097557	0.598067
	H49	H	0.596339	0.864011	0.586932
	H50	H	0.595075	0.093638	0.417304
	H51	H	0.406442	0.862606	0.419123
	H52	H	0.593866	0.382643	0.122255
	H53	H	0.602220	0.572484	0.885339
	H54	H	0.414198	0.578638	0.125021
	H55	H	0.414944	0.391429	0.888805
	H56	H	0.119707	0.574348	0.417147
	H57	H	0.887625	0.581102	0.597428
	H58	H	0.120828	0.388223	0.600080
	H59	H	0.890003	0.390030	0.412618
	H60	H	0.119815	0.386329	0.597517
	H61	H	0.892785	0.566559	0.593664
	H62	H	0.118198	0.567405	0.416912
	H63	H	0.887274	0.384760	0.411032
	H64	H	0.408521	0.567436	0.122624
	H65	H	0.598357	0.564070	0.890375
	H66	H	0.603288	0.393909	0.122320
	H67	H	0.412843	0.382768	0.885079
	H68	H	0.601248	0.095814	0.417295
	H69	H	0.599023	0.861028	0.596382
	H70	H	0.416771	0.095326	0.597967
	H71	H	0.406253	0.858069	0.403695
	H72	H	0.916099	0.595259	0.093900
	H73	H	0.096160	0.364801	0.095007
	H74	H	0.097264	0.597036	0.915807
	H75	H	0.903869	0.359571	0.907930
	H76	H	0.102336	0.891230	0.622858
	H77	H	0.090483	0.069031	0.389803
	H78	H	0.906928	0.063159	0.621687
	H79	H	0.909760	0.891257	0.388145
	H80	H	0.616986	0.068680	0.917397
	H81	H	0.389328	0.070069	0.098328
	H82	H	0.622121	0.885210	0.102198
	H83	H	0.387173	0.876580	0.914438
	H84	H	0.616868	0.886257	0.085553
	H85	H	0.386414	0.076018	0.101035
	H86	H	0.619224	0.069991	0.908628
	H87	H	0.392452	0.891935	0.915462
	H88	H	0.922290	0.066071	0.617800
	H89	H	0.097720	0.075583	0.385666
	H90	H	0.093926	0.894068	0.619425
	H91	H	0.916756	0.888104	0.390208
	H92	H	0.101131	0.597859	0.916139
	H93	H	0.099390	0.363999	0.094162
	H94	H	0.911857	0.596653	0.094882
	H95	H	0.921543	0.365956	0.909504
	H96	H	0.411744	0.093966	0.590876
	H97	H	0.589947	0.863823	0.594724
	H98	H	0.597742	0.096853	0.411718
	H99	H	0.419705	0.864381	0.409327
	H100	H	0.590133	0.396180	0.117394
	H101	H	0.592359	0.572823	0.888935
	H102	H	0.420539	0.568783	0.119930
	H103	H	0.406084	0.389003	0.885340
	H104	H	0.120618	0.570469	0.411480
	H105	H	0.887642	0.569168	0.607312
	H106	H	0.119648	0.389173	0.597385
	H107	H	0.889314	0.385622	0.416345
	H108	H	0.914875	0.596972	0.098299
	H109	H	0.098065	0.362635	0.097500
	H110	H	0.099822	0.598952	0.912780
	H111	H	0.910168	0.367226	0.924872
	H112	H	0.095131	0.885194	0.622218
	H113	H	0.099817	0.065510	0.388435
	H114	H	0.913445	0.077211	0.625306
	H115	H	0.910936	0.883576	0.387577
	H116	H	0.619843	0.077326	0.914330
	H117	H	0.387964	0.076626	0.094222
	H118	H	0.616119	0.900481	0.096535
	H119	H	0.385658	0.887665	0.901398
	C120	C	0.383008	-0.012428	0.624481
	C121	C	0.626042	0.970155	0.625256
	C122	C	0.626359	-0.011854	0.383215
	C123	C	0.382243	0.970101	0.382435
	C124	C	0.625710	0.359687	0.012674
	C125	C	0.627268	0.602413	0.996108
	C126	C	0.384575	0.600417	0.013856
	C127	C	0.382683	0.358943	0.995136
	C128	C	0.013031	0.600715	0.384252
	C129	C	0.996319	0.602550	0.628816
	C130	C	0.013382	0.357850	0.628182
	C131	C	0.995854	0.357210	0.383134
	C132	C	0.883587	0.489010	0.126114
	C133	C	0.127546	0.471360	0.126573
	C134	C	0.127133	0.489654	0.884725
	C135	C	0.883121	0.472212	0.884175
	C136	C	0.125856	0.858700	0.513143
	C137	C	0.126441	0.100392	0.496062
	C138	C	0.883844	0.099409	0.513903
	C139	C	0.882862	0.857406	0.496997
	C140	C	0.511975	0.100988	0.882776
	C141	C	0.494841	0.103646	0.127510
	C142	C	0.511905	0.859832	0.124641
	C143	C	0.495415	0.856264	0.880418
	C144	C	0.384236	0.864250	0.679586
	C145	C	0.626171	0.092445	0.683625
	C146	C	0.623257	0.865577	0.325084
	C147	C	0.385409	0.094107	0.329111
	C148	C	0.682434	0.359711	0.889728
	C149	C	0.684031	0.604027	0.119450
	C150	C	0.327219	0.600163	0.891036
	C151	C	0.327302	0.360357	0.118831
	C152	C	0.891916	0.657590	0.383818
	C153	C	0.118407	0.659494	0.627361
	C154	C	0.891916	0.299928	0.628125
	C155	C	0.117411	0.301159	0.384659
	C156	C	0.891223	0.359921	0.684016
	C157	C	0.119046	0.601186	0.684322
	C158	C	0.892164	0.600296	0.325896
	C159	C	0.117310	0.358912	0.326722
	C160	C	0.386115	0.654907	0.889819
	C161	C	0.625534	0.660553	0.119329
	C162	C	0.624173	0.302369	0.889265
	C163	C	0.385262	0.304066	0.119202
	C164	C	0.682593	0.865572	0.380893
	C165	C	0.685427	0.091712	0.628359
	C166	C	0.325883	0.864935	0.623693
	C167	C	0.325887	0.092511	0.382940
	C168	C	0.884475	0.366110	0.181321
	C169	C	0.126046	0.594155	0.183905
	C170	C	0.123229	0.365936	0.828898
	C171	C	0.886097	0.595321	0.829120
	C172	C	0.181196	0.857511	0.389277
	C173	C	0.183639	0.099834	0.619028
	C174	C	0.826386	0.099840	0.390858
	C175	C	0.825473	0.857525	0.619553
	C176	C	0.390099	0.156205	0.883753
	C177	C	0.616882	0.160690	0.126441
	C178	C	0.390298	0.802038	0.123477
	C179	C	0.616825	0.800222	0.881455
	C180	C	0.389751	0.861332	0.180287
	C181	C	0.616709	0.103152	0.184423
	C182	C	0.390216	0.097921	0.826082
	C183	C	0.617147	0.858121	0.824353
	C184	C	0.884758	0.156042	0.390635
	C185	C	0.125842	0.157265	0.619911
	C186	C	0.123326	0.800714	0.389816
	C187	C	0.885422	0.802689	0.620703
	C188	C	0.182544	0.366801	0.883907
	C189	C	0.184568	0.594234	0.127780
	C190	C	0.824887	0.367486	0.126729
	C191	C	0.827081	0.594609	0.884618
	C192	C	0.405825	0.073339	0.602138
	C193	C	0.602021	0.885047	0.600018
	C194	C	0.604561	0.073403	0.408197
	C195	C	0.404347	0.884074	0.404321
	C196	C	0.602587	0.383774	0.098557
	C197	C	0.604398	0.577457	0.910490
	C198	C	0.407647	0.578161	0.100149
	C199	C	0.404749	0.381084	0.908658
	C200	C	0.097696	0.577573	0.408402
	C201	C	0.911539	0.579276	0.605965
	C202	C	0.097970	0.381056	0.605164
	C203	C	0.910869	0.380217	0.406544
	C204	C	0.907408	0.574286	0.102513
	C205	C	0.104522	0.386173	0.102512
	C206	C	0.105880	0.575733	0.908222
	C207	C	0.905280	0.386324	0.907219
	C208	C	0.103525	0.882960	0.599097
	C209	C	0.102830	0.076773	0.410319
	C210	C	0.907241	0.075632	0.599436
	C211	C	0.905863	0.880705	0.410983
	C212	C	0.596753	0.078605	0.906523
	C213	C	0.410082	0.081010	0.104657
	C214	C	0.596413	0.883667	0.101555
	C215	C	0.410438	0.878759	0.903663
	Zn216	Zn	0.504044	-0.021618	0.752525
	Zn217	Zn	0.503327	-0.019286	0.255659
	Zn218	Zn	0.754641	0.480696	0.005366
	Zn219	Zn	0.256065	0.480894	0.005390
	Zn220	Zn	0.005115	0.730122	0.505723
	Zn221	Zn	0.004802	0.228497	0.505441
	Zn222	Zn	0.005514	0.480577	0.757074
	Zn223	Zn	0.004488	0.479273	0.254154
	Zn224	Zn	0.504322	0.729008	0.003616
	Zn225	Zn	0.503572	0.231169	0.004029
	Zn226	Zn	0.754874	-0.021473	0.504772
	Zn227	Zn	0.255210	-0.021199	0.502716
	N228	N	0.419213	0.941474	0.680250
	N229	N	0.590086	0.015819	0.681721
	N230	N	0.589290	0.942960	0.326113
	N231	N	0.419637	0.017039	0.328522
	N232	N	0.683588	0.394454	0.967626
	N233	N	0.685227	0.568647	0.041863
	N234	N	0.326175	0.567138	0.969274
	N235	N	0.325472	0.393492	0.040659
	N236	N	0.968141	0.657719	0.419525
	N237	N	0.041346	0.660549	0.593573
	N238	N	0.968809	0.298440	0.594133
	N239	N	0.040700	0.300127	0.419054
	N240	N	0.967680	0.395266	0.684052
	N241	N	0.042274	0.566466	0.685554
	N242	N	0.968606	0.565833	0.325832
	N243	N	0.040601	0.392832	0.325575
	N244	N	0.421218	0.655231	0.967243
	N245	N	0.591067	0.659808	0.041600
	N246	N	0.589527	0.302362	0.966846
	N247	N	0.419171	0.303072	0.041250
	N248	N	0.684762	0.942786	0.416213
	N249	N	0.685301	0.014627	0.592518
	N250	N	0.324994	0.942658	0.590196
	N251	N	0.323941	0.014343	0.415367
	N252	N	0.920372	0.442779	0.180948
	N253	N	0.091399	0.516831	0.183719
	N254	N	0.089327	0.443299	0.829361
	N255	N	0.920250	0.518083	0.828749
	N256	N	0.182877	0.892885	0.466889
	N257	N	0.184264	0.065295	0.541008
	N258	N	0.825501	0.065345	0.468645
	N259	N	0.823609	0.890672	0.541376
	N260	N	0.466878	0.158162	0.918248
	N261	N	0.540260	0.161278	0.091932
	N262	N	0.467181	0.800924	0.089628
	N263	N	0.540038	0.798979	0.915557
	N264	N	0.466371	0.896532	0.181051
	N265	N	0.540086	0.068274	0.185202
	N266	N	0.467048	0.064215	0.825417
	N267	N	0.540613	0.892357	0.823858
	N268	N	0.919714	0.156105	0.468077
	N269	N	0.090921	0.157712	0.542464
	N270	N	0.089462	0.801546	0.467713
	N271	N	0.920066	0.802324	0.543143
	N272	N	0.185237	0.444691	0.917751
	N273	N	0.185831	0.516873	0.093066
	N274	N	0.824103	0.445077	0.093243
	N275	N	0.825202	0.516894	0.918097
	O276	O	0.226884	0.228324	0.174554
	H277	H	0.225504	0.230598	0.171718
	H278	H	0.216089	0.234053	0.178722
	O279	O	0.365587	0.574655	0.361162
	H280	H	0.346164	0.578624	0.347266
	H281	H	0.365675	0.570878	0.362284
	O282	O	1.117156	0.067916	0.019661
	H283	H	1.115764	0.062647	0.019474
	H284	H	1.123248	0.069763	0.026323
	O285	O	-0.176121	0.862400	0.058140
	H286	H	-0.188872	0.861383	0.050350
	H287	H	-0.183157	0.871135	0.047108
	O288	O	0.578821	0.433661	0.455065
	H289	H	0.570108	0.440141	0.450472
	H290	H	0.587329	0.437959	0.456834
	O291	O	0.666234	0.306068	0.506462
	H292	H	0.653711	0.290832	0.507035
	H293	H	0.662712	0.304627	0.504551
	O294	O	1.030883	0.923049	1.130580
	H295	H	1.015586	0.924472	1.123470
	H296	H	1.023890	0.923548	1.131883
	O297	O	0.070148	-0.169856	-0.033153
	H298	H	0.068147	-0.173444	-0.042734
	H299	H	0.063993	-0.174920	-0.023376
	O300	O	0.517931	0.323652	0.358795
	H301	H	0.522084	0.326330	0.358141
	H302	H	0.524254	0.303704	0.366071
	O303	O	0.096239	0.931536	0.907376
	H304	H	0.105731	0.920609	0.912635
	H305	H	0.099453	0.920571	0.903422
	O306	O	0.493713	0.453496	0.507661
	H307	H	0.485564	0.454629	0.499894
	H308	H	0.501126	0.449454	0.512766
	O309	O	1.047132	-0.131683	0.050174
	H310	H	1.052402	-0.140069	0.053194
	H311	H	1.041571	-0.138881	0.051347
	O312	O	0.095258	-0.090537	1.000654
	H313	H	0.089585	-0.094319	0.999944
	H314	H	0.091605	-0.097511	1.007891
	O315	O	-0.147486	1.089398	0.015648
	H316	H	-0.161610	1.097149	0.005567
	H317	H	-0.147665	1.094372	0.008377
	O318	O	0.558165	0.590040	0.413807
	H319	H	0.554592	0.604890	0.429169
	H320	H	0.559371	0.590656	0.423996
	O321	O	0.925547	0.112156	-0.166898
	H322	H	0.936335	0.121157	-0.159880
	H323	H	0.931927	0.113908	-0.187437
	O324	O	-0.139265	0.906604	0.034032
	H325	H	-0.150779	0.923193	0.022340
	H326	H	-0.137941	0.914492	0.031629
	O327	O	-0.601676	1.342503	0.643915
	H328	H	-0.609268	1.330586	0.644318
	H329	H	-0.601343	1.361543	0.652089
	O330	O	0.576441	0.508965	0.638850
	H331	H	0.587586	0.500931	0.622580
	H332	H	0.570802	0.502770	0.635035
	O333	O	0.103545	0.993966	1.020314
	H334	H	0.096695	0.988899	1.036238
	H335	H	0.110078	0.991261	1.026459
	O336	O	1.051580	1.011794	1.169323
	H337	H	1.036232	1.010089	1.173625
	H338	H	1.044977	1.010045	1.164845
	O339	O	0.981621	1.001293	-0.096262
	H340	H	0.981215	1.007240	-0.094075
	H341	H	0.994898	0.999994	-0.089656
	O342	O	0.931184	-0.024798	0.084350
	H343	H	0.921245	-0.027276	0.090163
	H344	H	0.909945	-0.016961	0.072579
	O345	O	0.592582	0.366770	0.394295
	H346	H	0.588045	0.370092	0.407158
	H347	H	0.597094	0.392914	0.387679
	O348	O	1.028636	1.957812	0.901926
	H349	H	1.039721	1.948377	0.914181
	H350	H	1.026941	1.947757	0.889069
	O351	O	0.135622	1.080077	0.012773
	H352	H	0.115215	1.084391	0.012362
	H353	H	0.135599	1.075094	0.015640
	O354	O	0.523351	0.580315	0.551389
	H355	H	0.519927	0.582348	0.553771
	H356	H	0.521775	0.573909	0.556335
	O357	O	0.504446	0.346380	0.367960
	H358	H	0.503378	0.340514	0.346381
	H359	H	0.520296	0.353076	0.361445
	O360	O	-0.079823	-0.070304	0.015096
	H361	H	-0.087913	-0.076445	0.007974
	H362	H	-0.076831	-0.066986	0.027866
	O363	O	0.675465	0.560767	0.591865
	H364	H	0.676573	0.544812	0.591911
	H365	H	0.674573	0.556283	0.583779
	O366	O	0.405341	0.368088	0.534599
	H367	H	0.394313	0.348883	0.527493
	H368	H	0.415202	0.380598	0.533127
	O369	O	0.538701	0.371009	0.589975
	H370	H	0.528826	0.379789	0.592046
	H371	H	0.541067	0.367511	0.593677
	O372	O	0.399223	0.432466	0.468915
	H373	H	0.400840	0.416793	0.461430
	H374	H	0.410229	0.430262	0.483435
	O375	O	0.470155	0.612924	0.606525
	H376	H	0.473909	0.614741	0.617869
	H377	H	0.481362	0.609244	0.602190
	O378	O	0.456790	0.632146	0.540428
	H379	H	0.460748	0.607089	0.531957
	H380	H	0.458060	0.643221	0.548617
	O381	O	0.630187	0.641876	0.473300
	H382	H	0.625632	0.652882	0.491911
	H383	H	0.640865	0.649114	0.477444
	O384	O	0.064073	1.083408	0.122609
	H385	H	0.071351	1.071126	0.113233
	H386	H	0.073883	1.086743	0.116672
	O387	O	0.527448	0.373879	1.537303
	H388	H	0.535632	0.365290	1.534267
	H389	H	0.517484	0.373272	1.520634
	O390	O	-0.083728	1.008123	-0.104587
	H391	H	-0.076417	0.997100	-0.115963
	H392	H	-0.077543	1.000370	-0.099317
	O393	O	1.007849	0.965304	0.016051
	H394	H	1.020630	0.964720	0.011755
	H395	H	0.999367	0.966836	0.026278
	O396	O	0.435837	0.592424	0.556933
	H397	H	0.427458	0.594002	0.547494
	H398	H	0.448497	0.590719	0.570523
	O399	O	0.505785	1.492982	1.400506
	H400	H	0.493734	1.483882	1.390915
	H401	H	0.498447	1.495491	1.403494
	O402	O	0.896701	1.091081	1.011705
	H403	H	0.900541	1.082702	1.002073
	H404	H	0.897856	1.097597	1.021942
	O405	O	0.550870	0.407410	0.532120
	H406	H	0.541350	0.392775	0.526612
	H407	H	0.546461	0.397173	0.527770
