data_Molecule from HDF5

_cell_length_a		16.078877
_cell_length_b		16.268963
_cell_length_c		16.300419
_cell_angle_alpha	90.016469
_cell_angle_beta	89.951983
_cell_angle_gamma	89.928062
_symmetry_space_group_name_H-M	'P 1'
_symmetry_Int_Tables_number		1

loop_
	_symmetry_equiv_pos_as_xyz
	x,y,z

loop_
	_atom_site_label
	_atom_site_type_symbol
	_atom_site_fract_x
	_atom_site_fract_y
	_atom_site_fract_z
	H0	H	0.391556	0.837322	0.717213
	H1	H	0.597607	0.161330	0.717221
	H2	H	0.595700	0.834750	0.283115
	H3	H	0.393287	0.162037	0.282945
	H4	H	0.708889	0.401825	0.835756
	H5	H	0.707492	0.596903	0.164156
	H6	H	0.279927	0.596677	0.835444
	H7	H	0.281426	0.401614	0.163319
	H8	H	0.828691	0.713333	0.401461
	H9	H	0.158970	0.713326	0.599363
	H10	H	0.829515	0.284951	0.600489
	H11	H	0.159788	0.286082	0.401786
	H12	H	0.830090	0.399645	0.715332
	H13	H	0.158424	0.600460	0.714959
	H14	H	0.829432	0.600169	0.285612
	H15	H	0.159023	0.400196	0.286710
	H16	H	0.393177	0.715084	0.836274
	H17	H	0.594836	0.715283	0.162294
	H18	H	0.596632	0.282032	0.837441
	H19	H	0.393657	0.282376	0.162256
	H20	H	0.707906	0.833697	0.402631
	H21	H	0.706949	0.163846	0.595138
	H22	H	0.281173	0.835388	0.597211
	H23	H	0.280979	0.163583	0.401289
	H24	H	0.892611	0.336230	0.217262
	H25	H	0.094640	0.662011	0.215820
	H26	H	0.096227	0.336759	0.783009
	H27	H	0.893484	0.661998	0.784411
	H28	H	0.206999	0.902711	0.335047
	H29	H	0.209975	0.097636	0.663598
	H30	H	0.781188	0.096440	0.335891
	H31	H	0.780537	0.902709	0.663604
	H32	H	0.329339	0.213480	0.899574
	H33	H	0.660330	0.211846	0.097709
	H34	H	0.329099	0.786047	0.097419
	H35	H	0.659750	0.785455	0.900222
	H36	H	0.329390	0.900038	0.212373
	H37	H	0.659717	0.098024	0.213276
	H38	H	0.329799	0.099652	0.784004
	H39	H	0.659366	0.899919	0.784955
	H40	H	0.893603	0.215116	0.337098
	H41	H	0.095914	0.216496	0.663075
	H42	H	0.095605	0.782006	0.337685
	H43	H	0.893128	0.783978	0.663247
	H44	H	0.208207	0.334974	0.901759
	H45	H	0.207001	0.663283	0.095884
	H46	H	0.780930	0.334272	0.097754
	H47	H	0.780237	0.662829	0.902236
	H48	H	0.399965	0.116357	0.589882
	H49	H	0.588883	0.882891	0.590124
	H50	H	0.581044	0.116973	0.393706
	H51	H	0.401058	0.880856	0.400105
	H52	H	0.581442	0.409342	0.113726
	H53	H	0.589008	0.593032	0.882359
	H54	H	0.405928	0.595482	0.115715
	H55	H	0.406009	0.405892	0.884140
	H56	H	0.114312	0.591120	0.403402
	H57	H	0.874546	0.592205	0.597443
	H58	H	0.112427	0.411693	0.595766
	H59	H	0.872518	0.391488	0.412007
	H60	H	0.114234	0.403084	0.591873
	H61	H	0.875245	0.595623	0.589682
	H62	H	0.112565	0.595158	0.410172
	H63	H	0.881850	0.417102	0.419066
	H64	H	0.397449	0.594952	0.118388
	H65	H	0.586701	0.590600	0.883783
	H66	H	0.585447	0.397870	0.117984
	H67	H	0.401678	0.402742	0.881892
	H68	H	0.580662	0.110674	0.413375
	H69	H	0.586588	0.880344	0.595888
	H70	H	0.404744	0.116712	0.595562
	H71	H	0.406652	0.884113	0.406259
	H72	H	0.897500	0.617162	0.095858
	H73	H	0.094155	0.376420	0.105704
	H74	H	0.084502	0.616078	0.904114
	H75	H	0.909048	0.382888	0.901485
	H76	H	0.092636	0.895266	0.621393
	H77	H	0.083753	0.094821	0.383676
	H78	H	0.906679	0.094121	0.614973
	H79	H	0.907986	0.885371	0.378789
	H80	H	0.615971	0.100405	0.906581
	H81	H	0.375606	0.088573	0.097745
	H82	H	0.614969	0.898752	0.089963
	H83	H	0.376364	0.904886	0.911215
	H84	H	0.610029	0.910881	0.085551
	H85	H	0.375102	0.097076	0.091211
	H86	H	0.608656	0.087654	0.915348
	H87	H	0.377456	0.911281	0.906767
	H88	H	0.898868	0.097838	0.618568
	H89	H	0.089747	0.096366	0.382313
	H90	H	0.093940	0.916218	0.615908
	H91	H	0.883225	0.912906	0.379126
	H92	H	0.085407	0.615976	0.909884
	H93	H	0.073646	0.385028	0.097123
	H94	H	0.905034	0.615781	0.097120
	H95	H	0.903081	0.384204	0.914513
	H96	H	0.406613	0.114204	0.590074
	H97	H	0.582818	0.883149	0.591114
	H98	H	0.598569	0.117604	0.405324
	H99	H	0.398710	0.881732	0.408718
	H100	H	0.593419	0.408195	0.117316
	H101	H	0.585592	0.593805	0.883477
	H102	H	0.401884	0.588487	0.114392
	H103	H	0.401543	0.408273	0.883370
	H104	H	0.111095	0.587648	0.409783
	H105	H	0.877264	0.586954	0.591199
	H106	H	0.110485	0.410015	0.586835
	H107	H	0.872711	0.411708	0.393556
	H108	H	0.901906	0.614884	0.090517
	H109	H	0.092701	0.383222	0.083043
	H110	H	0.089922	0.616816	0.905810
	H111	H	0.895435	0.378948	0.903626
	H112	H	0.075696	0.905832	0.612526
	H113	H	0.088604	0.089902	0.383949
	H114	H	0.898932	0.088518	0.616292
	H115	H	0.917756	0.918219	0.392432
	H116	H	0.613308	0.084645	0.899518
	H117	H	0.378730	0.087727	0.087411
	H118	H	0.614492	0.909491	0.097736
	H119	H	0.374152	0.904414	0.904142
	C120	C	0.373775	0.007895	0.621034
	C121	C	0.615464	0.990585	0.620996
	C122	C	0.616533	0.006883	0.376113
	C123	C	0.373023	0.990593	0.376834
	C124	C	0.616504	0.376807	0.008402
	C125	C	0.615841	0.620730	0.991326
	C126	C	0.372514	0.621153	0.007962
	C127	C	0.373485	0.376766	0.990807
	C128	C	0.002952	0.620537	0.379182
	C129	C	0.984947	0.620723	0.621388
	C130	C	0.003265	0.378666	0.621204
	C131	C	0.984945	0.378141	0.379479
	C132	C	0.872458	0.507665	0.122962
	C133	C	0.115540	0.490147	0.122319
	C134	C	0.116236	0.507964	0.877827
	C135	C	0.873145	0.490468	0.878438
	C136	C	0.116424	0.877137	0.508614
	C137	C	0.116738	0.121916	0.491554
	C138	C	0.872513	0.121583	0.508464
	C139	C	0.873235	0.877264	0.491613
	C140	C	0.503199	0.119895	0.878386
	C141	C	0.485668	0.120018	0.120589
	C142	C	0.503709	0.877659	0.120177
	C143	C	0.485400	0.877945	0.878253
	C144	C	0.373174	0.885452	0.677826
	C145	C	0.615836	0.112976	0.677845
	C146	C	0.615444	0.883738	0.320747
	C147	C	0.373979	0.113462	0.321375
	C148	C	0.671522	0.380489	0.884897
	C149	C	0.670633	0.618005	0.114679
	C150	C	0.317363	0.617535	0.884706
	C151	C	0.318477	0.380095	0.114293
	C152	C	0.878200	0.675712	0.381643
	C153	C	0.109354	0.675956	0.619474
	C154	C	0.878884	0.322889	0.620099
	C155	C	0.110120	0.323520	0.381449
	C156	C	0.879042	0.379984	0.677127
	C157	C	0.109186	0.619892	0.677131
	C158	C	0.878409	0.619204	0.323958
	C159	C	0.109756	0.380411	0.324455
	C160	C	0.373908	0.676394	0.884967
	C161	C	0.614490	0.676844	0.113908
	C162	C	0.615719	0.320840	0.885828
	C163	C	0.374552	0.321160	0.113644
	C164	C	0.671484	0.883176	0.380172
	C165	C	0.670216	0.114229	0.617300
	C166	C	0.318174	0.884645	0.618184
	C167	C	0.318263	0.114431	0.380495
	C168	C	0.873187	0.384778	0.178961
	C169	C	0.114363	0.613425	0.177503
	C170	C	0.115673	0.385187	0.821534
	C171	C	0.873946	0.613237	0.822888
	C172	C	0.170614	0.880701	0.384762
	C173	C	0.172017	0.118600	0.614744
	C174	C	0.818110	0.117668	0.385180
	C175	C	0.818026	0.881231	0.614760
	C176	C	0.378781	0.175727	0.879632
	C177	C	0.610622	0.174507	0.117997
	C178	C	0.378805	0.822874	0.118150
	C179	C	0.610243	0.822902	0.879765
	C180	C	0.378798	0.879892	0.175020
	C181	C	0.610325	0.118139	0.175666
	C182	C	0.378915	0.118913	0.822438
	C183	C	0.609940	0.879735	0.822671
	C184	C	0.873714	0.177066	0.385785
	C185	C	0.115404	0.177475	0.614580
	C186	C	0.115104	0.820952	0.386066
	C187	C	0.874024	0.822231	0.614552
	C188	C	0.170865	0.384211	0.881019
	C189	C	0.169836	0.614067	0.117542
	C190	C	0.817718	0.383664	0.119337
	C191	C	0.817858	0.613874	0.881614
	C192	C	0.397065	0.093542	0.598565
	C193	C	0.592656	0.904418	0.599010
	C194	C	0.593660	0.092874	0.397942
	C195	C	0.395656	0.904537	0.398678
	C196	C	0.593535	0.398707	0.094143
	C197	C	0.593571	0.598794	0.905413
	C198	C	0.394987	0.599346	0.093878
	C199	C	0.396457	0.399060	0.905130
	C200	C	0.089987	0.597899	0.401225
	C201	C	0.898068	0.598219	0.599311
	C202	C	0.089755	0.401331	0.598366
	C203	C	0.898072	0.400238	0.401658
	C204	C	0.895017	0.593555	0.101152
	C205	C	0.093386	0.403913	0.101517
	C206	C	0.093247	0.594012	0.900007
	C207	C	0.895907	0.404227	0.900181
	C208	C	0.094104	0.899261	0.594402
	C209	C	0.094014	0.100153	0.405567
	C210	C	0.894868	0.100004	0.594471
	C211	C	0.896310	0.899015	0.405754
	C212	C	0.590171	0.097399	0.900584
	C213	C	0.398844	0.097697	0.098685
	C214	C	0.590621	0.899818	0.097785
	C215	C	0.398388	0.900264	0.900581
	Zn216	Zn	0.494427	-0.000925	0.750343
	Zn217	Zn	0.494640	-0.001473	0.248102
	Zn218	Zn	0.744759	0.499201	0.000361
	Zn219	Zn	0.244160	0.498380	-0.000180
	Zn220	Zn	-0.005731	0.748148	0.500587
	Zn221	Zn	-0.005622	0.250411	0.499985
	Zn222	Zn	-0.005332	0.499448	0.749478
	Zn223	Zn	-0.005885	0.499191	0.251787
	Zn224	Zn	0.494610	0.749962	-0.000862
	Zn225	Zn	0.494494	0.247445	-0.000574
	Zn226	Zn	0.744149	-0.001223	0.499463
	Zn227	Zn	0.245368	-0.000853	0.499454
	N228	N	0.407033	0.963057	0.679834
	N229	N	0.582567	0.034979	0.680201
	N230	N	0.582206	0.961706	0.318058
	N231	N	0.407538	0.035496	0.319269
	N232	N	0.672168	0.414412	0.962098
	N233	N	0.671503	0.583853	0.037525
	N234	N	0.316440	0.583771	0.962088
	N235	N	0.317457	0.413853	0.036932
	N236	N	0.956551	0.676592	0.415316
	N237	N	0.031156	0.676325	0.585463
	N238	N	0.957153	0.322040	0.585800
	N239	N	0.031551	0.321964	0.415138
	N240	N	0.957153	0.414104	0.677745
	N241	N	0.030873	0.585923	0.678545
	N242	N	0.957044	0.585648	0.322295
	N243	N	0.031199	0.413882	0.323349
	N244	N	0.407489	0.678862	0.962635
	N245	N	0.581287	0.678918	0.036142
	N246	N	0.582187	0.318441	0.963619
	N247	N	0.407832	0.318927	0.035877
	N248	N	0.672208	0.960673	0.413969
	N249	N	0.670170	0.037003	0.582664
	N250	N	0.318464	0.961792	0.583360
	N251	N	0.317372	0.036983	0.414081
	N252	N	0.906418	0.462766	0.181372
	N253	N	0.081220	0.535468	0.180411
	N254	N	0.082308	0.463067	0.819601
	N255	N	0.907561	0.535460	0.820727
	N256	N	0.171674	0.915015	0.461957
	N257	N	0.173080	0.084885	0.537240
	N258	N	0.817255	0.083878	0.462413
	N259	N	0.817372	0.914573	0.537282
	N260	N	0.456875	0.176086	0.913969
	N261	N	0.532143	0.175948	0.084723
	N262	N	0.457428	0.821400	0.084475
	N263	N	0.531884	0.821573	0.913638
	N264	N	0.457430	0.913115	0.176379
	N265	N	0.531764	0.084735	0.177293
	N266	N	0.457379	0.084963	0.821466
	N267	N	0.531315	0.913358	0.821708
	N268	N	0.906838	0.179651	0.463648
	N269	N	0.081565	0.179614	0.536919
	N270	N	0.082214	0.818672	0.463923
	N271	N	0.907717	0.819737	0.536846
	N272	N	0.171572	0.461602	0.915266
	N273	N	0.170741	0.536469	0.083980
	N274	N	0.817084	0.461041	0.085280
	N275	N	0.817574	0.536553	0.915732
	O276	O	0.463886	0.506341	0.508278
	H277	H	0.453913	0.514619	0.514799
	H278	H	0.466301	0.512398	0.509507
	O279	O	0.495733	0.448962	0.492175
	H280	H	0.490963	0.449608	0.502441
	H281	H	0.494615	0.448080	0.492363
	O282	O	0.557872	0.511703	0.560820
	H283	H	0.555637	0.509787	0.558848
	H284	H	0.564225	0.509841	0.568586
	O285	O	0.004019	0.983640	1.047671
	H286	H	0.003163	0.979330	1.048986
	H287	H	0.005127	0.977347	1.040025
	O288	O	0.470281	0.524484	0.577648
	H289	H	0.475027	0.528859	0.577765
	H290	H	0.470377	0.520531	0.570618
	O291	O	-0.003292	0.006807	1.056537
	H292	H	-0.005726	0.003603	1.055111
	H293	H	-0.002691	0.003759	1.055002
	O294	O	0.471763	0.490188	0.542197
	H295	H	0.475058	0.489218	0.541980
	H296	H	0.472836	0.485087	0.546155
	O297	O	0.452151	0.497302	0.469844
	H298	H	0.456953	0.502115	0.472117
	H299	H	0.443525	0.494771	0.474320
	O300	O	0.558119	0.507089	0.489981
	H301	H	0.554592	0.516757	0.492873
	H302	H	0.561288	0.499848	0.489604
	O303	O	0.476110	0.522518	0.504280
	H304	H	0.482039	0.516366	0.502225
	H305	H	0.468461	0.528356	0.495042
	O306	O	1.021825	0.023743	1.070052
	H307	H	1.025839	0.010533	1.071352
	H308	H	1.016967	0.028125	1.074252
	O309	O	0.492760	0.505633	0.536344
	H310	H	0.487241	0.508744	0.540003
	H311	H	0.495013	0.508431	0.537096
	O312	O	0.481727	0.465308	0.422637
	H313	H	0.487720	0.467858	0.420946
	H314	H	0.483556	0.455818	0.424648
	O315	O	0.979400	-0.029770	1.041472
	H316	H	0.984539	-0.030778	1.038598
	H317	H	0.982629	-0.028928	1.038272
	O318	O	0.029365	0.010659	0.076889
	H319	H	0.022303	0.018494	0.084081
	H320	H	0.022412	0.017758	0.076609
	O321	O	0.429589	0.540347	0.459032
	H322	H	0.433952	0.538642	0.461493
	H323	H	0.418129	0.547459	0.446662
	O324	O	0.981006	0.024244	0.007605
	H325	H	0.987276	0.026761	0.015135
	H326	H	0.981130	0.030510	0.009073
	O327	O	1.479701	1.460303	-0.516431
	H328	H	1.476543	1.458553	-0.517267
	H329	H	1.481431	1.459740	-0.518403
	O330	O	0.519688	0.511565	0.503869
	H331	H	0.516478	0.507205	0.498697
	H332	H	0.528159	0.508784	0.501406
	O333	O	0.535654	0.498449	0.436732
	H334	H	0.536779	0.497534	0.434809
	H335	H	0.545519	0.491634	0.435641
