data_Molecule from HDF5

_cell_length_a		16.494800
_cell_length_b		16.548347
_cell_length_c		16.530647
_cell_angle_alpha	89.942249
_cell_angle_beta	90.096299
_cell_angle_gamma	90.030397
_symmetry_space_group_name_H-M	'P 1'
_symmetry_Int_Tables_number		1

loop_
	_symmetry_equiv_pos_as_xyz
	x,y,z

loop_
	_atom_site_label
	_atom_site_type_symbol
	_atom_site_fract_x
	_atom_site_fract_y
	_atom_site_fract_z
	H0	H	0.408454	0.852461	0.719726
	H1	H	0.614022	0.166634	0.716565
	H2	H	0.618996	0.851772	0.275379
	H3	H	0.411796	0.167913	0.281658
	H4	H	0.732031	0.405586	0.841489
	H5	H	0.733025	0.612072	0.157262
	H6	H	0.294351	0.609887	0.840247
	H7	H	0.292048	0.404287	0.157241
	H8	H	0.854830	0.733097	0.391421
	H9	H	0.170779	0.727574	0.600966
	H10	H	0.852895	0.291173	0.599795
	H11	H	0.169264	0.289286	0.395147
	H12	H	0.853065	0.407119	0.716703
	H13	H	0.170256	0.611183	0.718138
	H14	H	0.854793	0.616212	0.274919
	H15	H	0.169487	0.405990	0.279370
	H16	H	0.408952	0.729401	0.841874
	H17	H	0.618089	0.730387	0.157073
	H18	H	0.617292	0.287783	0.843363
	H19	H	0.410244	0.289364	0.157560
	H20	H	0.736211	0.851933	0.390642
	H21	H	0.730799	0.166629	0.600276
	H22	H	0.294076	0.850961	0.599506
	H23	H	0.295689	0.168328	0.398916
	H24	H	0.906963	0.353603	0.220560
	H25	H	0.119879	0.664760	0.222788
	H26	H	0.114914	0.351402	0.779876
	H27	H	0.906426	0.666186	0.776212
	H28	H	0.231888	0.904308	0.341001
	H29	H	0.229346	0.109721	0.656893
	H30	H	0.789342	0.113816	0.342585
	H31	H	0.789655	0.901778	0.656030
	H32	H	0.355045	0.228820	0.895818
	H33	H	0.670297	0.229453	0.103580
	H34	H	0.354893	0.787915	0.103412
	H35	H	0.668411	0.783582	0.890387
	H36	H	0.353901	0.906550	0.217826
	H37	H	0.670376	0.112555	0.219720
	H38	H	0.355380	0.112583	0.778843
	H39	H	0.669230	0.900141	0.774502
	H40	H	0.905712	0.230360	0.342334
	H41	H	0.115270	0.228366	0.656387
	H42	H	0.118247	0.786213	0.342930
	H43	H	0.907022	0.787465	0.656735
	H44	H	0.229209	0.350026	0.898095
	H45	H	0.235595	0.664572	0.105953
	H46	H	0.791984	0.352622	0.101840
	H47	H	0.790244	0.667283	0.891458
	H48	H	0.422519	0.124132	0.594533
	H49	H	0.599116	0.895564	0.589232
	H50	H	0.604046	0.118510	0.416450
	H51	H	0.423059	0.894540	0.403335
	H52	H	0.598724	0.416102	0.112908
	H53	H	0.596408	0.591631	0.890568
	H54	H	0.425314	0.598399	0.110458
	H55	H	0.424796	0.412019	0.885130
	H56	H	0.125309	0.598532	0.406046
	H57	H	0.902233	0.595195	0.584765
	H58	H	0.124847	0.419939	0.591220
	H59	H	0.901252	0.426477	0.411952
	H60	H	0.126160	0.416446	0.589941
	H61	H	0.896963	0.598023	0.593520
	H62	H	0.121943	0.601565	0.416135
	H63	H	0.896516	0.418865	0.401110
	H64	H	0.422691	0.599174	0.112435
	H65	H	0.596157	0.604792	0.886386
	H66	H	0.607214	0.420787	0.112494
	H67	H	0.414036	0.418740	0.883925
	H68	H	0.603442	0.122257	0.405124
	H69	H	0.598714	0.897332	0.585539
	H70	H	0.425676	0.120114	0.587112
	H71	H	0.423728	0.898012	0.411448
	H72	H	0.927686	0.619224	0.083606
	H73	H	0.102156	0.396884	0.087903
	H74	H	0.098584	0.619441	0.912192
	H75	H	0.921132	0.395812	0.905202
	H76	H	0.101500	0.910348	0.614363
	H77	H	0.104328	0.097180	0.384844
	H78	H	0.920448	0.101142	0.613443
	H79	H	0.924015	0.919040	0.387784
	H80	H	0.625728	0.098686	0.909751
	H81	H	0.399473	0.096815	0.090984
	H82	H	0.624590	0.920448	0.086251
	H83	H	0.398419	0.911442	0.910679
	H84	H	0.624825	0.921582	0.089611
	H85	H	0.397531	0.101911	0.091662
	H86	H	0.625850	0.099050	0.910101
	H87	H	0.405934	0.924372	0.919320
	H88	H	0.921015	0.095858	0.611592
	H89	H	0.099138	0.101164	0.386244
	H90	H	0.109773	0.925408	0.611437
	H91	H	0.923191	0.924220	0.388559
	H92	H	0.107521	0.623553	0.911028
	H93	H	0.100415	0.396679	0.090511
	H94	H	0.919550	0.622681	0.084155
	H95	H	0.924820	0.399096	0.909468
	H96	H	0.417076	0.123618	0.587180
	H97	H	0.602007	0.896560	0.586640
	H98	H	0.593830	0.117429	0.410207
	H99	H	0.416123	0.894114	0.408658
	H100	H	0.599114	0.424883	0.109191
	H101	H	0.607736	0.597794	0.885156
	H102	H	0.422966	0.596729	0.110835
	H103	H	0.424499	0.423430	0.889934
	H104	H	0.119960	0.591286	0.412754
	H105	H	0.898057	0.604431	0.585898
	H106	H	0.124458	0.418879	0.587444
	H107	H	0.897749	0.413344	0.414022
	H108	H	0.925244	0.623347	0.091015
	H109	H	0.099397	0.397960	0.087881
	H110	H	0.101268	0.623207	0.903694
	H111	H	0.919291	0.396942	0.911319
	H112	H	0.093209	0.923572	0.606757
	H113	H	0.104665	0.103538	0.383365
	H114	H	0.925300	0.100084	0.611057
	H115	H	0.927786	0.922455	0.389671
	H116	H	0.625455	0.098708	0.910287
	H117	H	0.399595	0.100503	0.086831
	H118	H	0.625760	0.918056	0.088610
	H119	H	0.400505	0.926614	0.903115
	C120	C	0.390729	0.017792	0.620391
	C121	C	0.632537	1.000031	0.619432
	C122	C	0.633785	0.016188	0.377081
	C123	C	0.391035	1.000603	0.377754
	C124	C	0.633411	0.388882	0.007565
	C125	C	0.633498	0.630788	0.990922
	C126	C	0.391403	0.629760	0.007489
	C127	C	0.390268	0.386737	0.990741
	C128	C	0.019113	0.630861	0.377687
	C129	C	1.003737	0.630087	0.619690
	C130	C	0.020113	0.387678	0.619913
	C131	C	1.003015	0.388085	0.377320
	C132	C	0.891632	0.518398	0.118900
	C133	C	0.133861	0.500448	0.121217
	C134	C	0.132880	0.517435	0.878351
	C135	C	0.889574	0.501112	0.876265
	C136	C	0.133377	0.887580	0.507161
	C137	C	0.133135	0.130799	0.489840
	C138	C	0.890520	0.130155	0.507785
	C139	C	0.891074	0.888026	0.491425
	C140	C	0.521259	0.130060	0.878310
	C141	C	0.503701	0.130772	0.121176
	C142	C	0.520541	0.888345	0.119955
	C143	C	0.504977	0.887830	0.877996
	C144	C	0.389655	0.899303	0.679312
	C145	C	0.633362	0.119263	0.677453
	C146	C	0.637153	0.898883	0.315561
	C147	C	0.391866	0.120405	0.320570
	C148	C	0.692380	0.387009	0.889032
	C149	C	0.693747	0.632074	0.109727
	C150	C	0.333340	0.629813	0.887906
	C151	C	0.331755	0.385547	0.109838
	C152	C	0.901439	0.692065	0.373824
	C153	C	0.123101	0.688285	0.620341
	C154	C	0.900630	0.330069	0.619526
	C155	C	0.121875	0.329029	0.376174
	C156	C	0.900732	0.387932	0.677512
	C157	C	0.123054	0.630544	0.678525
	C158	C	0.901481	0.634151	0.315791
	C159	C	0.121872	0.387102	0.318612
	C160	C	0.390621	0.688645	0.888598
	C161	C	0.636272	0.690375	0.109769
	C162	C	0.635252	0.328447	0.889761
	C163	C	0.390312	0.328375	0.110036
	C164	C	0.695411	0.898925	0.373261
	C165	C	0.691371	0.119133	0.619903
	C166	C	0.332754	0.898691	0.619990
	C167	C	0.334321	0.120603	0.378655
	C168	C	0.888546	0.400554	0.180003
	C169	C	0.137734	0.617918	0.182385
	C170	C	0.133578	0.398753	0.819684
	C171	C	0.887632	0.619179	0.815957
	C172	C	0.192721	0.885558	0.388730
	C173	C	0.190779	0.129854	0.609470
	C174	C	0.829849	0.132255	0.389587
	C175	C	0.829721	0.883949	0.608868
	C176	C	0.402484	0.189157	0.876711
	C177	C	0.622978	0.189697	0.122472
	C178	C	0.401730	0.828810	0.121560
	C179	C	0.621909	0.825034	0.873440
	C180	C	0.401322	0.887289	0.178803
	C181	C	0.622847	0.131742	0.180350
	C182	C	0.402649	0.131439	0.818600
	C183	C	0.622299	0.882981	0.815617
	C184	C	0.887784	0.190105	0.389397
	C185	C	0.133776	0.188519	0.609082
	C186	C	0.135788	0.826937	0.389477
	C187	C	0.888283	0.827211	0.609398
	C188	C	0.190532	0.397801	0.878512
	C189	C	0.195484	0.617860	0.124443
	C190	C	0.831439	0.399979	0.121241
	C191	C	0.829885	0.619606	0.873655
	C192	C	0.414870	0.100975	0.596478
	C193	C	0.607395	0.917857	0.594496
	C194	C	0.608005	0.098116	0.403257
	C195	C	0.414127	0.917277	0.401141
	C196	C	0.608771	0.413600	0.090127
	C197	C	0.607699	0.605494	0.908898
	C198	C	0.416275	0.605133	0.089909
	C199	C	0.414225	0.411053	0.907788
	C200	C	0.101085	0.604791	0.404056
	C201	C	0.920644	0.605916	0.595261
	C202	C	0.103655	0.411408	0.596247
	C203	C	0.919914	0.412644	0.402023
	C204	C	0.916965	0.600426	0.093609
	C205	C	0.108191	0.418440	0.095926
	C206	C	0.109241	0.600407	0.902255
	C207	C	0.914531	0.418859	0.901577
	C208	C	0.108648	0.912625	0.589370
	C209	C	0.109465	0.107344	0.406467
	C210	C	0.915240	0.105875	0.590475
	C211	C	0.917473	0.914284	0.409856
	C212	C	0.604164	0.105719	0.902900
	C213	C	0.420558	0.106584	0.096797
	C214	C	0.603464	0.912896	0.095074
	C215	C	0.422968	0.913556	0.903706
	Zn216	Zn	0.513108	0.008654	0.749277
	Zn217	Zn	0.512023	0.008802	0.249049
	Zn218	Zn	0.762249	0.509906	-0.001479
	Zn219	Zn	0.262181	0.508769	-0.000811
	Zn220	Zn	0.011447	0.759461	0.499060
	Zn221	Zn	0.011747	0.259117	0.498413
	Zn222	Zn	0.011963	0.509387	0.748928
	Zn223	Zn	0.011905	0.509772	0.248890
	Zn224	Zn	0.512464	0.759265	-0.000567
	Zn225	Zn	0.512819	0.259049	-0.000349
	Zn226	Zn	0.762209	0.008026	0.498961
	Zn227	Zn	0.261686	0.009442	0.498236
	N228	N	0.424736	0.974539	0.679876
	N229	N	0.597868	0.044129	0.677505
	N230	N	0.599631	0.972835	0.317977
	N231	N	0.426100	0.044802	0.319728
	N232	N	0.691325	0.423902	0.963264
	N233	N	0.692276	0.596056	0.034847
	N234	N	0.333620	0.593980	0.962834
	N235	N	0.331524	0.420918	0.034628
	N236	N	0.975536	0.689981	0.411698
	N237	N	0.047837	0.688293	0.584843
	N238	N	0.976105	0.329781	0.584879
	N239	N	0.046700	0.329431	0.411953
	N240	N	0.976222	0.423168	0.678085
	N241	N	0.047688	0.595257	0.678230
	N242	N	0.975857	0.596958	0.318096
	N243	N	0.046695	0.422738	0.318990
	N244	N	0.425803	0.688813	0.963968
	N245	N	0.599915	0.690025	0.034871
	N246	N	0.599311	0.329459	0.964609
	N247	N	0.425710	0.328747	0.034879
	N248	N	0.693388	0.973007	0.410936
	N249	N	0.691274	0.043873	0.584813
	N250	N	0.333287	0.973598	0.584340
	N251	N	0.333139	0.045031	0.413107
	N252	N	0.925033	0.475030	0.178703
	N253	N	0.100375	0.543895	0.180513
	N254	N	0.098576	0.474029	0.819293
	N255	N	0.923803	0.544454	0.817228
	N256	N	0.191421	0.922759	0.462931
	N257	N	0.190705	0.094776	0.534218
	N258	N	0.831375	0.095567	0.464113
	N259	N	0.831306	0.921021	0.534515
	N260	N	0.477387	0.188754	0.912930
	N261	N	0.547821	0.189483	0.086701
	N262	N	0.476944	0.829238	0.085999
	N263	N	0.548062	0.828051	0.911761
	N264	N	0.476259	0.923621	0.177880
	N265	N	0.547577	0.096050	0.179649
	N266	N	0.477680	0.095706	0.819297
	N267	N	0.548615	0.921502	0.818517
	N268	N	0.924632	0.189079	0.463953
	N269	N	0.099052	0.189468	0.533505
	N270	N	0.099580	0.828081	0.464177
	N271	N	0.925606	0.829542	0.535186
	N272	N	0.190555	0.472819	0.914018
	N273	N	0.193512	0.543671	0.087182
	N274	N	0.833029	0.474310	0.084156
	N275	N	0.830727	0.544998	0.910195
	O276	O	1.176880	1.064291	-0.114327
	H277	H	1.176619	1.059309	-0.092590
	H278	H	1.177093	1.065680	-0.103451
	O279	O	0.210680	-0.190145	1.008950
	H280	H	0.224457	-0.193154	1.013225
	H281	H	0.183433	-0.191184	0.995026
	O282	O	0.692038	0.701090	0.683813
	H283	H	0.702480	0.666078	0.699573
	H284	H	0.673461	0.696040	0.670443
	O285	O	0.504234	0.380189	0.602098
	H286	H	0.493550	0.364701	0.589185
	H287	H	0.509029	0.384943	0.588479
	O288	O	1.059468	0.208009	0.922596
	H289	H	1.053580	0.219399	0.894417
	H290	H	1.068646	0.202998	0.928350
	O291	O	0.469003	0.720121	0.523916
	H292	H	0.477465	0.718643	0.510967
	H293	H	0.491455	0.724638	0.532011
	O294	O	0.233079	0.227717	0.035928
	H295	H	0.256309	0.257018	0.043468
	H296	H	0.230264	0.227574	0.076513
	O297	O	0.716714	-0.254096	0.338151
	H298	H	0.714625	-0.253802	0.307229
	H299	H	0.742722	-0.248226	0.349746
	O300	O	0.223236	-0.044440	0.056249
	H301	H	0.221181	-0.054832	0.062434
	H302	H	0.221637	-0.050511	0.063271
	O303	O	0.227661	-0.031284	-0.217486
	H304	H	0.245204	-0.020115	-0.228551
	H305	H	0.237209	-0.034619	-0.209208
	O306	O	0.809035	0.222430	-0.031565
	H307	H	0.800463	0.215672	-0.057080
	H308	H	0.783004	0.219465	-0.033498
	O309	O	0.523373	0.711034	0.699489
	H310	H	0.540873	0.720720	0.681868
	H311	H	0.526406	0.694577	0.712519
	O312	O	0.547886	0.293521	0.284756
	H313	H	0.548098	0.279214	0.258965
	H314	H	0.543579	0.299356	0.283284
	O315	O	0.249750	0.760305	0.236634
	H316	H	0.257923	0.747231	0.262921
	H317	H	0.227250	0.776378	0.224713
	O318	O	0.787672	1.044790	-0.221691
	H319	H	0.774621	1.033033	-0.249252
	H320	H	0.793516	1.038111	-0.225366
	O321	O	0.302986	0.306899	0.532177
	H322	H	0.290208	0.304466	0.536005
	H323	H	0.294832	0.307291	0.538547
	O324	O	0.928757	-0.188030	0.840334
	H325	H	0.948314	-0.188337	0.841210
	H326	H	0.933379	-0.191377	0.832532
	O327	O	0.365809	0.516526	0.293316
	H328	H	0.362115	0.521988	0.302876
	H329	H	0.352352	0.526685	0.280348
	O330	O	-0.048575	1.230886	0.060121
	H331	H	-0.030781	1.233831	0.033442
	H332	H	-0.074898	1.237610	0.038314
	O333	O	0.533098	0.601372	0.561980
	H334	H	0.522938	0.581183	0.556845
	H335	H	0.515693	0.606798	0.543476
	O336	O	0.294333	0.376159	0.714223
	H337	H	0.303561	0.349131	0.724510
	H338	H	0.278813	0.360043	0.730308
	O339	O	0.508367	0.413367	0.407672
	H340	H	0.510121	0.415676	0.398239
	H341	H	0.516100	0.407861	0.401828
	O342	O	-0.162172	0.930856	-0.065047
	H343	H	-0.165615	0.939438	-0.079987
	H344	H	-0.164336	0.934503	-0.062450
	O345	O	1.076294	0.921887	0.152309
	H346	H	1.074152	0.917889	0.133810
	H347	H	1.075726	0.913631	0.154014
	O348	O	0.735330	0.525262	0.499022
	H349	H	0.739424	0.545951	0.503989
	H350	H	0.732495	0.507068	0.481254
	O351	O	-0.075287	-0.072415	1.009600
	H352	H	-0.090752	-0.084104	1.006699
	H353	H	-0.057724	-0.054097	1.019098
	O354	O	0.964060	0.056654	1.215851
	H355	H	0.987138	0.055431	1.221628
	H356	H	0.981232	0.060391	1.200889
	O357	O	0.525784	0.530264	0.440719
	H358	H	0.530538	0.539704	0.436892
	H359	H	0.511249	0.523860	0.428850
	O360	O	0.199076	0.191077	0.810737
	H361	H	0.177569	0.177348	0.826287
	H362	H	0.186191	0.164627	0.832731
	O363	O	0.695748	0.503597	0.445918
	H364	H	0.710575	0.518348	0.449486
	H365	H	0.694884	0.508808	0.447724
	O366	O	1.010766	-0.140160	0.847493
	H367	H	1.028281	-0.141122	0.846551
	H368	H	1.006871	-0.152593	0.835394
	O369	O	-0.196720	0.220387	0.790556
	H370	H	-0.215366	0.203526	0.773524
	H371	H	-0.216355	0.227629	0.780240
	O372	O	-0.173057	1.194828	1.186976
	H373	H	-0.152521	1.183911	1.163950
	H374	H	-0.157204	1.170675	1.173704
	O375	O	1.023364	-0.151822	0.141023
	H376	H	1.018059	-0.149292	0.123118
	H377	H	1.025166	-0.162014	0.154477
	O378	O	0.320761	0.521833	0.563023
	H379	H	0.314800	0.514022	0.582876
	H380	H	0.336616	0.515881	0.568149
	O381	O	-0.114606	1.000068	-0.158436
	H382	H	-0.110402	0.998371	-0.165969
	H383	H	-0.103572	0.979488	-0.147108
	O384	O	0.373005	0.318558	0.350997
	H385	H	0.388006	0.335590	0.359034
	H386	H	0.376963	0.335621	0.375598
	O387	O	0.501492	0.487445	0.376951
	H388	H	0.496124	0.501498	0.380273
	H389	H	0.523079	0.484603	0.374306
	O390	O	0.114442	1.068619	1.051378
	H391	H	0.113678	1.081034	1.056248
	H392	H	0.130190	1.084951	1.050270
	O393	O	1.045597	0.222316	0.214632
	H394	H	1.039400	0.250508	0.229180
	H395	H	1.039411	0.228111	0.192044
	O396	O	0.216035	0.215356	0.203022
	H397	H	0.201265	0.185251	0.208041
	H398	H	0.220714	0.240502	0.231289
	O399	O	0.225254	0.792428	0.835363
	H400	H	0.236631	0.783220	0.844577
	H401	H	0.248239	0.791277	0.821519
	O402	O	0.981977	0.230936	0.780392
	H403	H	0.956930	0.246957	0.761843
	H404	H	0.958663	0.230359	0.773219
	O405	O	0.725582	0.538546	0.711594
	H406	H	0.738533	0.529970	0.719545
	H407	H	0.721026	0.526021	0.721837
	O408	O	1.230593	1.048752	1.217289
	H409	H	1.240643	1.034472	1.224827
	H410	H	1.233563	1.053924	1.230294
	O411	O	0.725441	0.436539	0.285214
	H412	H	0.748346	0.429354	0.267426
	H413	H	0.728946	0.430348	0.285930
	O414	O	-0.007993	-0.178460	0.067854
	H415	H	-0.016315	-0.191232	0.070051
	H416	H	-0.007100	-0.175562	0.060643
	O417	O	0.314731	0.711392	0.460958
	H418	H	0.300782	0.715667	0.478287
	H419	H	0.331547	0.708645	0.471597
	O420	O	0.851507	-0.167879	1.077758
	H421	H	0.843854	-0.177745	1.057787
	H422	H	0.842175	-0.165116	1.082160
	O423	O	0.876975	0.983726	0.049812
	H424	H	0.886676	0.981822	0.038926
	H425	H	0.867712	0.966832	0.065454
	O426	O	0.563845	0.476095	0.723005
	H427	H	0.551995	0.484198	0.709009
	H428	H	0.555684	0.467209	0.726041
	O429	O	0.354206	0.659687	0.301874
	H430	H	0.353670	0.662864	0.312199
	H431	H	0.347164	0.654979	0.307078
	O432	O	0.964270	-0.021114	0.862283
	H433	H	0.949256	0.003802	0.855623
	H434	H	0.984311	-0.017697	0.863566
	O435	O	0.387514	0.496637	0.678404
	H436	H	0.363730	0.483669	0.697048
	H437	H	0.395499	0.476705	0.663863
	O438	O	0.614771	0.552529	0.364678
	H439	H	0.634266	0.557629	0.354071
	H440	H	0.609389	0.554424	0.359649
	O441	O	0.332368	0.692620	0.682594
	H442	H	0.352035	0.698781	0.684064
	H443	H	0.351068	0.671428	0.669715
	O444	O	0.492781	0.632498	0.303652
	H445	H	0.486782	0.642698	0.304256
	H446	H	0.482938	0.631460	0.302403
	O447	O	0.695715	0.319936	0.686919
	H448	H	0.669809	0.332564	0.669767
	H449	H	0.681785	0.342189	0.665933
	O450	O	0.716519	0.302295	0.335746
	H451	H	0.741662	0.269747	0.310607
	H452	H	0.688857	0.310338	0.315549
	O453	O	0.440345	0.488009	0.503153
	H454	H	0.452803	0.494231	0.505677
	H455	H	0.438998	0.494383	0.498570
	O456	O	-0.006722	1.006416	1.001715
	H457	H	-0.003393	0.997869	0.989677
	H458	H	0.002884	1.021986	1.002631
	O459	O	0.318579	0.455980	0.430649
	H460	H	0.317263	0.459575	0.447439
	H461	H	0.324334	0.474243	0.426960
	O462	O	0.722942	0.723533	0.522273
	H463	H	0.703623	0.716668	0.549036
	H464	H	0.750094	0.757079	0.523173
	O465	O	0.704327	0.324919	0.494086
	H466	H	0.721245	0.313976	0.465697
	H467	H	0.696394	0.324021	0.475744
	O468	O	-0.099204	0.875091	0.135438
	H469	H	-0.101377	0.886134	0.100462
	H470	H	-0.091903	0.894423	0.147108
	O471	O	0.099573	-0.131089	0.781317
	H472	H	0.106902	-0.140042	0.775277
	H473	H	0.111953	-0.109264	0.781506
	O474	O	0.803119	0.984866	0.211779
	H475	H	0.794160	0.978327	0.233465
	H476	H	0.822650	0.995733	0.220036
	O477	O	0.396652	0.292432	0.716446
	H478	H	0.407129	0.297385	0.690144
	H479	H	0.384613	0.255139	0.749741
