data_Molecule from HDF5

_cell_length_a		16.555841
_cell_length_b		16.465989
_cell_length_c		16.558918
_cell_angle_alpha	90.095173
_cell_angle_beta	90.047493
_cell_angle_gamma	89.992124
_symmetry_space_group_name_H-M	'P 1'
_symmetry_Int_Tables_number		1

loop_
	_symmetry_equiv_pos_as_xyz
	x,y,z

loop_
	_atom_site_label
	_atom_site_type_symbol
	_atom_site_fract_x
	_atom_site_fract_y
	_atom_site_fract_z
	H0	H	0.414904	0.867083	0.715331
	H1	H	0.625197	0.183139	0.722077
	H2	H	0.620023	0.866363	0.279701
	H3	H	0.413949	0.182915	0.276432
	H4	H	0.740040	0.417785	0.840133
	H5	H	0.740965	0.632167	0.152216
	H6	H	0.297656	0.625631	0.840219
	H7	H	0.296037	0.417893	0.154504
	H8	H	0.858154	0.743435	0.395569
	H9	H	0.177489	0.740432	0.595987
	H10	H	0.860571	0.303026	0.603391
	H11	H	0.173495	0.302898	0.391688
	H12	H	0.861584	0.418939	0.719768
	H13	H	0.176925	0.625228	0.714708
	H14	H	0.859360	0.630283	0.276537
	H15	H	0.173863	0.420743	0.277251
	H16	H	0.415318	0.741206	0.838737
	H17	H	0.621611	0.745988	0.153267
	H18	H	0.622238	0.302622	0.839000
	H19	H	0.413495	0.302331	0.153910
	H20	H	0.734685	0.866261	0.396972
	H21	H	0.741914	0.183243	0.606727
	H22	H	0.299354	0.867444	0.599105
	H23	H	0.296462	0.182570	0.391301
	H24	H	0.909055	0.367931	0.221426
	H25	H	0.119756	0.683280	0.217130
	H26	H	0.125724	0.366699	0.774787
	H27	H	0.916334	0.682906	0.778765
	H28	H	0.237988	0.920912	0.339875
	H29	H	0.243574	0.134278	0.652465
	H30	H	0.795458	0.131085	0.340843
	H31	H	0.799769	0.923861	0.656733
	H32	H	0.360938	0.248413	0.890782
	H33	H	0.674295	0.248131	0.102613
	H34	H	0.359157	0.806952	0.098922
	H35	H	0.674571	0.806128	0.896043
	H36	H	0.361290	0.920829	0.218101
	H37	H	0.674406	0.133495	0.220753
	H38	H	0.362481	0.134434	0.771691
	H39	H	0.674733	0.922132	0.777930
	H40	H	0.911493	0.248315	0.341265
	H41	H	0.123565	0.247596	0.654453
	H42	H	0.120608	0.805093	0.339860
	H43	H	0.917864	0.808055	0.656975
	H44	H	0.238616	0.365665	0.893391
	H45	H	0.236400	0.682432	0.101685
	H46	H	0.793655	0.367264	0.104346
	H47	H	0.799523	0.683111	0.895552
	H48	H	0.433194	0.136768	0.583075
	H49	H	0.608971	0.916023	0.582771
	H50	H	0.610156	0.139380	0.410972
	H51	H	0.429717	0.913320	0.409620
	H52	H	0.602639	0.438776	0.105634
	H53	H	0.607844	0.611462	0.885139
	H54	H	0.424360	0.619250	0.112515
	H55	H	0.418775	0.445296	0.886187
	H56	H	0.130402	0.615036	0.403533
	H57	H	0.904088	0.613475	0.592023
	H58	H	0.122834	0.440497	0.574366
	H59	H	0.906818	0.439502	0.410578
	H60	H	0.128774	0.446559	0.596102
	H61	H	0.903036	0.620106	0.592014
	H62	H	0.130485	0.618921	0.407333
	H63	H	0.905077	0.437720	0.408800
	H64	H	0.424301	0.613003	0.111006
	H65	H	0.605885	0.614729	0.883971
	H66	H	0.605601	0.433896	0.108516
	H67	H	0.439593	0.439916	0.890452
	H68	H	0.607115	0.139457	0.405397
	H69	H	0.611748	0.911603	0.589465
	H70	H	0.428820	0.138165	0.583370
	H71	H	0.425329	0.910526	0.407120
	H72	H	0.931112	0.634360	0.084197
	H73	H	0.104314	0.412359	0.085391
	H74	H	0.105564	0.635543	0.909261
	H75	H	0.929968	0.411256	0.907054
	H76	H	0.116157	0.937471	0.611768
	H77	H	0.103003	0.112222	0.387713
	H78	H	0.929393	0.108134	0.606495
	H79	H	0.922476	0.939762	0.385552
	H80	H	0.623394	0.103533	0.913836
	H81	H	0.410171	0.108923	0.078520
	H82	H	0.630719	0.936845	0.090842
	H83	H	0.402658	0.932422	0.902780
	H84	H	0.632006	0.930726	0.087995
	H85	H	0.406137	0.107287	0.093449
	H86	H	0.630845	0.111636	0.902397
	H87	H	0.402963	0.932285	0.905771
	H88	H	0.934866	0.116841	0.607699
	H89	H	0.106669	0.115424	0.385730
	H90	H	0.104276	0.939471	0.607347
	H91	H	0.931676	0.932704	0.386980
	H92	H	0.109750	0.636746	0.909362
	H93	H	0.109483	0.410094	0.087853
	H94	H	0.925749	0.635668	0.085247
	H95	H	0.931275	0.412389	0.909954
	H96	H	0.431990	0.138758	0.587258
	H97	H	0.603434	0.913719	0.589450
	H98	H	0.604402	0.137638	0.410686
	H99	H	0.429972	0.911605	0.404118
	H100	H	0.608663	0.439410	0.107989
	H101	H	0.610263	0.614495	0.883207
	H102	H	0.429488	0.616007	0.110005
	H103	H	0.426005	0.424938	0.881243
	H104	H	0.128501	0.613653	0.408044
	H105	H	0.905329	0.617074	0.586259
	H106	H	0.134338	0.425028	0.588003
	H107	H	0.905771	0.436983	0.411340
	H108	H	0.929600	0.637467	0.089093
	H109	H	0.104492	0.410689	0.091341
	H110	H	0.107691	0.637410	0.905735
	H111	H	0.927366	0.412290	0.910109
	H112	H	0.107769	0.927865	0.611835
	H113	H	0.108480	0.110687	0.387091
	H114	H	0.925428	0.116403	0.611535
	H115	H	0.921930	0.928607	0.382135
	H116	H	0.627957	0.119009	0.916147
	H117	H	0.404488	0.121168	0.085973
	H118	H	0.630023	0.935954	0.083990
	H119	H	0.403524	0.935018	0.904243
	C120	C	0.398656	0.033834	0.616531
	C121	C	0.640561	1.017813	0.620409
	C122	C	0.638419	0.034127	0.377627
	C123	C	0.396456	1.016222	0.374768
	C124	C	0.638700	0.403723	0.004242
	C125	C	0.639177	0.645831	0.987903
	C126	C	0.395164	0.646174	0.006559
	C127	C	0.396194	0.403377	0.989313
	C128	C	0.025443	0.647374	0.375508
	C129	C	1.009493	0.646314	0.619207
	C130	C	0.025894	0.403721	0.618960
	C131	C	1.009175	0.405016	0.377317
	C132	C	0.895122	0.532400	0.119303
	C133	C	0.137724	0.515695	0.119365
	C134	C	0.139454	0.532128	0.876560
	C135	C	0.897932	0.516486	0.877294
	C136	C	0.139611	0.904007	0.505794
	C137	C	0.139577	0.146921	0.489438
	C138	C	0.896724	0.146583	0.505426
	C139	C	0.896101	0.903884	0.489960
	C140	C	0.525090	0.145566	0.876676
	C141	C	0.510118	0.146567	0.118907
	C142	C	0.526366	0.903642	0.118269
	C143	C	0.507972	0.902818	0.874637
	C144	C	0.396607	0.914685	0.675613
	C145	C	0.642980	0.136039	0.681186
	C146	C	0.639184	0.914448	0.319133
	C147	C	0.394956	0.135446	0.315862
	C148	C	0.699270	0.400197	0.886606
	C149	C	0.699503	0.649017	0.105812
	C150	C	0.336823	0.645648	0.887603
	C151	C	0.336489	0.400219	0.107519
	C152	C	0.906158	0.705171	0.375806
	C153	C	0.129596	0.702386	0.617055
	C154	C	0.907846	0.343173	0.621326
	C155	C	0.126607	0.343634	0.373840
	C156	C	0.908253	0.400714	0.679558
	C157	C	0.129354	0.645060	0.675889
	C158	C	0.906730	0.648704	0.316526
	C159	C	0.126815	0.402261	0.316935
	C160	C	0.395804	0.702546	0.886706
	C161	C	0.640477	0.705903	0.106263
	C162	C	0.640481	0.343036	0.886177
	C163	C	0.394834	0.342748	0.107299
	C164	C	0.696263	0.914088	0.377318
	C165	C	0.701100	0.136033	0.623637
	C166	C	0.338954	0.914893	0.617862
	C167	C	0.336744	0.135174	0.373117
	C168	C	0.891583	0.414669	0.180373
	C169	C	0.138686	0.635247	0.177934
	C170	C	0.142522	0.413761	0.815920
	C171	C	0.897202	0.635587	0.818550
	C172	C	0.198034	0.902454	0.387052
	C173	C	0.201870	0.151475	0.606159
	C174	C	0.835654	0.149550	0.387901
	C175	C	0.839153	0.904607	0.609307
	C176	C	0.407795	0.207707	0.872653
	C177	C	0.627308	0.208018	0.121499
	C178	C	0.407077	0.845732	0.118349
	C179	C	0.627298	0.845072	0.875613
	C180	C	0.407835	0.902755	0.177360
	C181	C	0.627401	0.150778	0.180171
	C182	C	0.408489	0.150874	0.813715
	C183	C	0.627322	0.902947	0.817504
	C184	C	0.893356	0.207710	0.387954
	C185	C	0.142289	0.207923	0.607017
	C186	C	0.139546	0.844986	0.387078
	C187	C	0.897670	0.846921	0.609435
	C188	C	0.199093	0.413315	0.874823
	C189	C	0.196542	0.634912	0.120269
	C190	C	0.834008	0.414475	0.122382
	C191	C	0.839215	0.635868	0.876273
	C192	C	0.423932	0.116492	0.591765
	C193	C	0.615307	0.935243	0.594559
	C194	C	0.614179	0.117180	0.402014
	C195	C	0.421249	0.933433	0.399819
	C196	C	0.612846	0.429910	0.086064
	C197	C	0.614951	0.620739	0.905503
	C198	C	0.418994	0.622744	0.089480
	C199	C	0.421018	0.429268	0.907340
	C200	C	0.108195	0.623040	0.399260
	C201	C	0.925877	0.623567	0.596563
	C202	C	0.107454	0.429823	0.593412
	C203	C	0.927183	0.430669	0.403011
	C204	C	0.921246	0.614674	0.093401
	C205	C	0.113206	0.432637	0.095099
	C206	C	0.114750	0.614944	0.901258
	C207	C	0.922484	0.433563	0.901943
	C208	C	0.116167	0.928247	0.588785
	C209	C	0.113562	0.120323	0.407962
	C210	C	0.922585	0.121086	0.587372
	C211	C	0.918786	0.927140	0.406511
	C212	C	0.606240	0.119032	0.903371
	C213	C	0.428115	0.120070	0.093339
	C214	C	0.609288	0.927639	0.094375
	C215	C	0.424701	0.926487	0.897534
	Zn216	Zn	0.517534	0.025845	0.746920
	Zn217	Zn	0.518753	0.025032	0.247349
	Zn218	Zn	0.767880	0.523918	-0.003339
	Zn219	Zn	0.267199	0.523542	-0.001494
	Zn220	Zn	0.017907	0.775279	0.497703
	Zn221	Zn	0.017822	0.275653	0.497224
	Zn222	Zn	0.018318	0.524169	0.747923
	Zn223	Zn	0.016636	0.524806	0.247655
	Zn224	Zn	0.517007	0.774532	-0.002917
	Zn225	Zn	0.517592	0.274896	-0.003067
	Zn226	Zn	0.767593	0.026032	0.498070
	Zn227	Zn	0.269071	0.025203	0.496658
	N228	N	0.432997	0.989649	0.674979
	N229	N	0.606155	0.061266	0.679372
	N230	N	0.604419	0.990230	0.318718
	N231	N	0.431481	0.060515	0.316832
	N232	N	0.698339	0.437053	0.961029
	N233	N	0.698810	0.612276	0.031304
	N234	N	0.336032	0.611696	0.963273
	N235	N	0.337227	0.437149	0.033113
	N236	N	0.981007	0.704605	0.411736
	N237	N	0.053991	0.703493	0.582815
	N238	N	0.982062	0.344732	0.584570
	N239	N	0.052416	0.345357	0.410717
	N240	N	0.982680	0.437373	0.678349
	N241	N	0.053471	0.611313	0.677605
	N242	N	0.981960	0.613521	0.316083
	N243	N	0.052639	0.439504	0.318708
	N244	N	0.431179	0.703386	0.961800
	N245	N	0.603726	0.704207	0.031877
	N246	N	0.603419	0.345255	0.960403
	N247	N	0.431175	0.344639	0.032958
	N248	N	0.696366	0.989634	0.412793
	N249	N	0.699719	0.061295	0.586704
	N250	N	0.339905	0.990119	0.582123
	N251	N	0.337708	0.060027	0.409089
	N252	N	0.928849	0.489118	0.178488
	N253	N	0.102970	0.559997	0.177486
	N254	N	0.106079	0.488709	0.816915
	N255	N	0.932679	0.560249	0.818884
	N256	N	0.198212	0.938642	0.461806
	N257	N	0.200361	0.114091	0.531987
	N258	N	0.837624	0.112515	0.462113
	N259	N	0.837899	0.938949	0.533807
	N260	N	0.481123	0.204423	0.911154
	N261	N	0.553203	0.205278	0.084125
	N262	N	0.481906	0.846085	0.082451
	N263	N	0.552041	0.844802	0.910194
	N264	N	0.483142	0.937704	0.177724
	N265	N	0.553348	0.113106	0.178586
	N266	N	0.482427	0.113011	0.816106
	N267	N	0.551914	0.937805	0.816458
	N268	N	0.930301	0.206236	0.462247
	N269	N	0.104261	0.205177	0.533314
	N270	N	0.103878	0.845942	0.461944
	N271	N	0.932203	0.846166	0.534064
	N272	N	0.197164	0.487832	0.912131
	N273	N	0.196259	0.559427	0.084654
	N274	N	0.835944	0.489086	0.085263
	N275	N	0.839383	0.560546	0.911791
	O276	O	0.607145	0.613912	0.476301
	H277	H	0.622302	0.619081	0.473795
	H278	H	0.607097	0.609893	0.462838
	O279	O	0.050143	-0.186158	0.780635
	H280	H	0.072701	-0.178060	0.774163
	H281	H	0.066459	-0.204218	0.763574
	O282	O	0.388326	0.411765	0.492266
	H283	H	0.400425	0.406178	0.497742
	H284	H	0.390272	0.402715	0.498315
	O285	O	0.411172	0.519047	0.683335
	H286	H	0.424103	0.503646	0.674704
	H287	H	0.404502	0.499843	0.692647
	O288	O	0.914629	-0.000399	0.832151
	H289	H	0.922641	0.001955	0.845391
	H290	H	0.904091	-0.002835	0.834535
	O291	O	-0.051204	1.060025	0.037175
	H292	H	-0.049268	1.065598	0.035638
	H293	H	-0.049755	1.068880	0.028786
	O294	O	0.230530	0.053893	0.214124
	H295	H	0.245620	0.058380	0.232490
	H296	H	0.235768	0.067157	0.203082
	O297	O	1.028917	0.125289	1.233283
	H298	H	1.024504	0.125791	1.233605
	H299	H	1.026517	0.100160	1.231029
	O300	O	-0.207544	-0.025007	0.035293
	H301	H	-0.200568	-0.026426	0.035401
	H302	H	-0.204315	-0.016937	0.035502
	O303	O	0.141638	-0.085144	0.190556
	H304	H	0.140434	-0.069879	0.182028
	H305	H	0.148045	-0.076220	0.186371
	O306	O	1.001974	0.180706	0.210303
	H307	H	1.011348	0.187531	0.230943
	H308	H	0.999783	0.175197	0.216653
	O309	O	0.578856	0.308831	0.556559
	H310	H	0.597853	0.323770	0.553668
	H311	H	0.595981	0.313703	0.538194
	O312	O	0.631508	0.597832	0.403734
	H313	H	0.637181	0.597289	0.386855
	H314	H	0.624476	0.605691	0.398748
	O315	O	0.718922	0.444089	0.463247
	H316	H	0.722966	0.454468	0.456689
	H317	H	0.718039	0.442574	0.453777
	O318	O	0.394734	0.626148	-0.358772
	H319	H	0.396766	0.624995	-0.370470
	H320	H	0.412138	0.599924	-0.351651
	O321	O	0.336407	0.695852	0.457048
	H322	H	0.358600	0.679049	0.479248
	H323	H	0.323813	0.701837	0.474088
	O324	O	1.341473	-0.644590	0.696329
	H325	H	1.357167	-0.650605	0.701731
	H326	H	1.359587	-0.638214	0.694434
	O327	O	0.434878	0.680559	0.569922
	H328	H	0.448739	0.673501	0.563642
	H329	H	0.455498	0.662418	0.558336
	O330	O	0.210023	1.005624	-0.014534
	H331	H	0.207905	1.008393	-0.023944
	H332	H	0.210432	1.012178	-0.017052
	O333	O	-0.024393	0.162037	1.045332
	H334	H	-0.027159	0.175712	1.043662
	H335	H	-0.026525	0.162900	1.051522
	O336	O	0.320755	0.537357	0.577984
	H337	H	0.320934	0.526912	0.570172
	H338	H	0.318541	0.518545	0.580804
	O339	O	0.722672	0.447617	0.611197
	H340	H	0.737117	0.457266	0.596785
	H341	H	0.740872	0.459493	0.621366
	O342	O	-0.077665	1.232775	-0.207686
	H343	H	-0.083202	1.228762	-0.227628
	H344	H	-0.053875	1.217319	-0.217774
	O345	O	1.044559	1.123934	-0.160747
	H346	H	1.038948	1.122006	-0.173831
	H347	H	1.057148	1.131783	-0.163219
	O348	O	0.702506	0.518892	0.625823
	H349	H	0.726619	0.522787	0.631038
	H350	H	0.704364	0.547501	0.610901
	O351	O	-0.175115	-0.164315	0.809732
	H352	H	-0.149865	-0.146332	0.823543
	H353	H	-0.163761	-0.142167	0.832839
	O354	O	1.008419	-0.044674	0.988944
	H355	H	1.013449	-0.042103	0.985929
	H356	H	0.996132	-0.045345	0.990922
	O357	O	0.554277	0.615013	0.346479
	H358	H	0.536814	0.604971	0.331894
	H359	H	0.539979	0.627105	0.338616
	O360	O	-0.048495	-0.160532	0.910587
	H361	H	-0.029330	-0.152421	0.925217
	H362	H	-0.028132	-0.171366	0.883596
	O363	O	0.467121	0.336800	0.705262
	H364	H	0.479631	0.326475	0.698315
	H365	H	0.491150	0.327248	0.706820
	O366	O	1.448940	0.346695	0.470865
	H367	H	1.459486	0.350460	0.481476
	H368	H	1.447702	0.346086	0.478989
	O369	O	-0.297749	-0.380137	0.457747
	H370	H	-0.289880	-0.361232	0.459007
	H371	H	-0.309504	-0.362876	0.451171
	O372	O	0.088689	0.824375	1.191028
	H373	H	0.074191	0.823580	1.204132
	H374	H	0.059283	0.828589	1.179267
	O375	O	1.079369	0.008583	0.009270
	H376	H	1.063815	0.020096	0.011680
	H377	H	1.087485	0.001407	0.015213
	O378	O	0.608104	0.329271	0.302144
	H379	H	0.581401	0.329744	0.293966
	H380	H	0.601790	0.321109	0.304404
	O381	O	-0.272275	0.729512	-0.294429
	H382	H	-0.244336	0.763739	-0.258597
	H383	H	-0.320428	0.730322	-0.286082
	O384	O	0.331611	0.544796	0.330374
	H385	H	0.316782	0.565960	0.324453
	H386	H	0.313658	0.537573	0.318745
	O387	O	0.315650	0.728279	0.291917
	H388	H	0.312824	0.726405	0.329730
	H389	H	0.294175	0.751285	0.285517
	O390	O	0.206916	1.232264	1.023791
	H391	H	0.211538	1.224475	1.006173
	H392	H	0.206444	1.237719	1.008473
	O393	O	0.809022	0.232701	-0.129658
	H394	H	0.808891	0.232494	-0.117604
	H395	H	0.806754	0.257040	-0.141824
	O396	O	-0.097798	-0.176374	0.196500
	H397	H	-0.106624	-0.173167	0.174713
	H398	H	-0.114346	-0.185113	0.212119
	O399	O	0.230070	0.999477	0.779736
	H400	H	0.231655	0.968111	0.777963
	H401	H	0.242505	0.977537	0.765180
	O402	O	1.225413	-0.193352	0.971439
	H403	H	1.211163	-0.198224	0.985411
	H404	H	1.234605	-0.215755	0.982058
	O405	O	0.629299	0.628351	0.493858
	H406	H	0.638817	0.633345	0.472250
	H407	H	0.640297	0.631680	0.488230
	O408	O	0.992695	1.236630	0.911318
	H409	H	1.009861	1.242428	0.911283
	H410	H	1.007697	1.238948	0.916069
	O411	O	0.704292	0.475544	0.300647
	H412	H	0.673218	0.459776	0.304481
	H413	H	0.696114	0.496611	0.315071
	O414	O	0.080966	-0.177360	0.042299
	H415	H	0.065549	-0.179489	0.061315
	H416	H	0.077145	-0.157750	0.043717
	O417	O	0.664444	0.310960	0.408590
	H418	H	0.672795	0.310711	0.413206
	H419	H	0.669007	0.303817	0.383458
	O420	O	0.879497	0.196566	1.176380
	H421	H	0.871608	0.196531	1.192358
	H422	H	0.909738	0.200134	1.177541
	O423	O	1.295962	1.312520	0.236989
	H424	H	1.285337	1.303741	0.227692
	H425	H	1.279001	1.317833	0.221037
	O426	O	0.193646	0.866800	0.802001
	H427	H	0.219569	0.833881	0.782593
	H428	H	0.200926	0.858101	0.845005
	O429	O	0.488788	0.481823	0.350754
	H430	H	0.487430	0.488586	0.358314
	H431	H	0.466351	0.491699	0.341985
	O432	O	1.110574	0.147255	0.892478
	H433	H	1.113726	0.151446	0.891203
	H434	H	1.103147	0.131828	0.892780
	O435	O	0.457812	0.426323	0.354025
	H436	H	0.482286	0.413029	0.359027
	H437	H	0.451254	0.432217	0.354298
	O438	O	0.304630	0.434853	0.436764
	H439	H	0.313367	0.448779	0.440615
	H440	H	0.286528	0.423687	0.432533
	O441	O	0.583818	0.439365	0.682111
	H442	H	0.612108	0.447513	0.676596
	H443	H	0.589520	0.428467	0.680395
	O444	O	1.152027	0.011246	-0.088090
	H445	H	1.150116	0.004805	-0.099749
	H446	H	1.144971	0.001863	-0.092274
	O447	O	0.999563	0.022883	1.219773
	H448	H	0.994445	0.010013	1.228904
	H449	H	0.997423	0.020095	1.216742
	O450	O	0.484024	0.739260	0.276864
	H451	H	0.464472	0.742656	0.267871
	H452	H	0.468008	0.749647	0.262634
	O453	O	0.735681	0.738883	0.539241
	H454	H	0.745948	0.750561	0.570853
	H455	H	0.747554	0.755652	0.556583
	O456	O	-0.048828	0.949777	1.075212
	H457	H	-0.054776	0.947855	1.063898
	H458	H	-0.044300	0.947066	1.061879
	O459	O	0.561270	0.741235	0.716398
	H460	H	0.545971	0.762631	0.740611
	H461	H	0.544225	0.726036	0.711235
	O462	O	0.461461	0.507996	0.431738
	H463	H	0.461425	0.508560	0.420596
	H464	H	0.460024	0.508923	0.427713
	O465	O	0.799718	0.056683	0.785072
	H466	H	0.791722	0.085551	0.778678
	H467	H	0.783739	0.049801	0.777726
	O468	O	-1.198881	-0.094314	0.210538
	H469	H	-1.196495	-0.083684	0.213434
	H470	H	-1.211508	-0.109204	0.196183
	O471	O	-0.167936	0.157865	0.993814
	H472	H	-0.162301	0.162632	1.018750
	H473	H	-0.164829	0.177356	1.000921
	O474	O	1.160787	1.154332	-0.051111
	H475	H	1.148736	1.146965	-0.065419
	H476	H	1.167138	1.134956	-0.061659
	O477	O	0.300399	0.738182	0.713795
	H478	H	0.309771	0.712759	0.697966
	H479	H	0.315461	0.724442	0.693317
