data_Molecule from HDF5

_cell_length_a		16.305818
_cell_length_b		16.364393
_cell_length_c		16.459661
_cell_angle_alpha	89.686707
_cell_angle_beta	89.843862
_cell_angle_gamma	90.058988
_symmetry_space_group_name_H-M	'P 1'
_symmetry_Int_Tables_number		1

loop_
	_symmetry_equiv_pos_as_xyz
	x,y,z

loop_
	_atom_site_label
	_atom_site_type_symbol
	_atom_site_fract_x
	_atom_site_fract_y
	_atom_site_fract_z
	H0	H	0.379788	0.849925	0.718446
	H1	H	0.598265	0.165895	0.717761
	H2	H	0.596091	0.849893	0.273563
	H3	H	0.379938	0.164067	0.267580
	H4	H	0.714205	0.400510	0.834466
	H5	H	0.712789	0.611471	0.150593
	H6	H	0.270593	0.614123	0.832347
	H7	H	0.267098	0.403277	0.149386
	H8	H	0.829346	0.730184	0.387675
	H9	H	0.149167	0.730607	0.595722
	H10	H	0.829329	0.288402	0.598674
	H11	H	0.149436	0.290032	0.388533
	H12	H	0.830832	0.400628	0.715357
	H13	H	0.149608	0.613578	0.710640
	H14	H	0.830476	0.616664	0.269489
	H15	H	0.148786	0.405318	0.272550
	H16	H	0.386576	0.730378	0.834231
	H17	H	0.596680	0.727789	0.151688
	H18	H	0.599250	0.282198	0.836128
	H19	H	0.379918	0.284155	0.149119
	H20	H	0.710515	0.850842	0.389426
	H21	H	0.712297	0.167533	0.600690
	H22	H	0.267426	0.849122	0.600040
	H23	H	0.271335	0.168323	0.390250
	H24	H	0.881177	0.350673	0.217848
	H25	H	0.096766	0.667340	0.211337
	H26	H	0.096288	0.349302	0.770405
	H27	H	0.882556	0.666225	0.768223
	H28	H	0.211613	0.905037	0.335558
	H29	H	0.210836	0.114509	0.651768
	H30	H	0.766628	0.117529	0.334339
	H31	H	0.766407	0.904436	0.651188
	H32	H	0.330648	0.230408	0.887109
	H33	H	0.649037	0.227967	0.096588
	H34	H	0.329716	0.787666	0.097416
	H35	H	0.650854	0.791694	0.890715
	H36	H	0.330026	0.901665	0.214141
	H37	H	0.648412	0.112254	0.212982
	H38	H	0.330415	0.117039	0.770926
	H39	H	0.647732	0.903800	0.771783
	H40	H	0.884666	0.231174	0.333471
	H41	H	0.093352	0.229783	0.651821
	H42	H	0.094863	0.790933	0.333743
	H43	H	0.880735	0.785292	0.649251
	H44	H	0.209035	0.348476	0.888384
	H45	H	0.207889	0.668141	0.091774
	H46	H	0.770815	0.347436	0.097429
	H47	H	0.769953	0.667790	0.887468
	H48	H	0.404470	0.120219	0.583191
	H49	H	0.573804	0.897813	0.578613
	H50	H	0.577283	0.124812	0.399758
	H51	H	0.410775	0.898271	0.407391
	H52	H	0.574991	0.422664	0.102762
	H53	H	0.573962	0.602144	0.880732
	H54	H	0.396067	0.593917	0.105120
	H55	H	0.396372	0.411730	0.874155
	H56	H	0.106078	0.604163	0.398649
	H57	H	0.876221	0.594609	0.579788
	H58	H	0.103081	0.417899	0.579252
	H59	H	0.876654	0.421722	0.410813
	H60	H	0.102528	0.421668	0.580755
	H61	H	0.876038	0.596753	0.579526
	H62	H	0.102680	0.600640	0.405928
	H63	H	0.875969	0.427787	0.401116
	H64	H	0.402311	0.596955	0.103860
	H65	H	0.584494	0.603017	0.876783
	H66	H	0.576274	0.414174	0.105642
	H67	H	0.396806	0.427814	0.879767
	H68	H	0.573227	0.121952	0.402769
	H69	H	0.579379	0.895620	0.581758
	H70	H	0.399260	0.122016	0.579520
	H71	H	0.393146	0.893379	0.412835
	H72	H	0.902227	0.621135	0.079577
	H73	H	0.080794	0.392041	0.086833
	H74	H	0.076962	0.621362	0.902040
	H75	H	0.905862	0.395376	0.901592
	H76	H	0.074167	0.914391	0.606616
	H77	H	0.080111	0.104395	0.378201
	H78	H	0.894176	0.096637	0.606563
	H79	H	0.896546	0.913384	0.375064
	H80	H	0.605080	0.096968	0.901470
	H81	H	0.374953	0.095341	0.082005
	H82	H	0.605904	0.915903	0.083131
	H83	H	0.373023	0.916947	0.903926
	H84	H	0.604823	0.918801	0.084515
	H85	H	0.374613	0.094269	0.080273
	H86	H	0.602008	0.097269	0.909765
	H87	H	0.376248	0.918494	0.909839
	H88	H	0.903006	0.094200	0.602724
	H89	H	0.083945	0.097652	0.379702
	H90	H	0.082245	0.920642	0.607048
	H91	H	0.893451	0.931139	0.379977
	H92	H	0.081819	0.622869	0.901002
	H93	H	0.072391	0.396128	0.083284
	H94	H	0.903967	0.620843	0.080333
	H95	H	0.902155	0.395881	0.906530
	H96	H	0.399538	0.123501	0.586343
	H97	H	0.573538	0.896370	0.584882
	H98	H	0.578357	0.122674	0.405054
	H99	H	0.398682	0.889429	0.395048
	H100	H	0.582982	0.420466	0.105751
	H101	H	0.580537	0.593366	0.881231
	H102	H	0.397538	0.600346	0.107690
	H103	H	0.410055	0.418094	0.881232
	H104	H	0.103061	0.596022	0.398622
	H105	H	0.877074	0.595957	0.578084
	H106	H	0.104649	0.418520	0.582924
	H107	H	0.873089	0.416632	0.401425
	H108	H	0.902958	0.620527	0.078688
	H109	H	0.079750	0.394413	0.077463
	H110	H	0.078366	0.623124	0.897043
	H111	H	0.900577	0.392970	0.901646
	H112	H	0.072778	0.923752	0.603890
	H113	H	0.075922	0.097907	0.380999
	H114	H	0.901611	0.103576	0.606418
	H115	H	0.910333	0.922927	0.384311
	H116	H	0.601193	0.090101	0.905074
	H117	H	0.376061	0.093478	0.082237
	H118	H	0.605963	0.916997	0.086410
	H119	H	0.375616	0.923388	0.905350
	C120	C	0.367751	0.016736	0.616023
	C121	C	0.609328	1.001193	0.614620
	C122	C	0.609334	0.017730	0.371762
	C123	C	0.367837	0.998412	0.371898
	C124	C	0.611323	0.386096	0.000550
	C125	C	0.612481	0.630256	0.984258
	C126	C	0.367842	0.630155	0.000567
	C127	C	0.367724	0.386441	0.983047
	C128	C	-0.001571	0.632163	0.369099
	C129	C	0.981319	0.629280	0.611828
	C130	C	-0.001867	0.387099	0.613805
	C131	C	0.980966	0.389817	0.372379
	C132	C	0.868920	0.516530	0.113630
	C133	C	0.110337	0.499539	0.112950
	C134	C	0.111058	0.517063	0.868933
	C135	C	0.869208	0.499230	0.870101
	C136	C	0.109577	0.888551	0.501456
	C137	C	0.111768	0.131737	0.484677
	C138	C	0.866794	0.131855	0.500889
	C139	C	0.866642	0.888377	0.483870
	C140	C	0.498154	0.129184	0.872218
	C141	C	0.480203	0.127827	0.113851
	C142	C	0.499152	0.885309	0.116053
	C143	C	0.480735	0.887844	0.873573
	C144	C	0.363013	0.897452	0.677561
	C145	C	0.614286	0.119116	0.676614
	C146	C	0.613535	0.897936	0.313068
	C147	C	0.363700	0.117581	0.309605
	C148	C	0.673335	0.382679	0.881949
	C149	C	0.672709	0.630739	0.103264
	C150	C	0.309749	0.632325	0.880590
	C151	C	0.306910	0.384526	0.101844
	C152	C	0.877529	0.691109	0.368047
	C153	C	0.101142	0.690399	0.614101
	C154	C	0.877663	0.327708	0.616650
	C155	C	0.101180	0.329754	0.370349
	C156	C	0.878324	0.383851	0.674826
	C157	C	0.101385	0.632173	0.671485
	C158	C	0.878371	0.634533	0.309269
	C159	C	0.101158	0.387449	0.312623
	C160	C	0.367295	0.690626	0.881616
	C161	C	0.614601	0.688565	0.103766
	C162	C	0.615810	0.324087	0.882678
	C163	C	0.363430	0.325421	0.101899
	C164	C	0.670454	0.898245	0.370850
	C165	C	0.671141	0.119961	0.618000
	C166	C	0.306965	0.897028	0.618509
	C167	C	0.309613	0.119527	0.370778
	C168	C	0.864192	0.397760	0.176315
	C169	C	0.113670	0.619569	0.171525
	C170	C	0.113771	0.397034	0.810146
	C171	C	0.865333	0.618924	0.809045
	C172	C	0.171023	0.887019	0.382545
	C173	C	0.170666	0.132795	0.604259
	C174	C	0.806678	0.135064	0.381822
	C175	C	0.806309	0.885874	0.603220
	C176	C	0.378296	0.190379	0.869215
	C177	C	0.600850	0.188122	0.115600
	C178	C	0.377944	0.826713	0.116488
	C179	C	0.602087	0.830282	0.871908
	C180	C	0.378233	0.883278	0.174674
	C181	C	0.600667	0.130648	0.173637
	C182	C	0.378412	0.133820	0.811397
	C183	C	0.600650	0.885834	0.812571
	C184	C	0.865674	0.191664	0.381350
	C185	C	0.112045	0.190274	0.604205
	C186	C	0.112749	0.830162	0.381641
	C187	C	0.863074	0.826379	0.602199
	C188	C	0.170342	0.396738	0.868544
	C189	C	0.169132	0.620010	0.111999
	C190	C	0.809488	0.396015	0.116043
	C191	C	0.808975	0.619364	0.868115
	C192	C	0.393699	0.100036	0.590420
	C193	C	0.583093	0.918206	0.589193
	C194	C	0.583685	0.101384	0.395762
	C195	C	0.393305	0.915472	0.397741
	C196	C	0.585422	0.411687	0.083113
	C197	C	0.587023	0.606271	0.901174
	C198	C	0.391993	0.604717	0.083922
	C199	C	0.393823	0.411710	0.899851
	C200	C	0.082180	0.607380	0.393816
	C201	C	0.898013	0.603318	0.586449
	C202	C	0.081910	0.412253	0.588406
	C203	C	0.897042	0.414830	0.397180
	C204	C	0.895303	0.599202	0.087092
	C205	C	0.084968	0.415941	0.089290
	C206	C	0.085952	0.600756	0.893036
	C207	C	0.895419	0.416401	0.895740
	C208	C	0.083857	0.912832	0.584311
	C209	C	0.087182	0.107181	0.401343
	C210	C	0.892420	0.105591	0.583782
	C211	C	0.892594	0.914837	0.401206
	C212	C	0.581058	0.102610	0.897930
	C213	C	0.397001	0.102036	0.088691
	C214	C	0.583321	0.910000	0.091811
	C215	C	0.396882	0.912402	0.898983
	Zn216	Zn	0.488507	0.008223	0.744661
	Zn217	Zn	0.489264	0.007126	0.243199
	Zn218	Zn	0.740725	0.507617	-0.007631
	Zn219	Zn	0.238475	0.508426	-0.009009
	Zn220	Zn	-0.010809	0.759470	0.491398
	Zn221	Zn	-0.011128	0.259872	0.492622
	Zn222	Zn	-0.009567	0.508293	0.741055
	Zn223	Zn	-0.010446	0.509346	0.241689
	Zn224	Zn	0.490273	0.758855	-0.006230
	Zn225	Zn	0.489051	0.257059	-0.007019
	Zn226	Zn	0.737756	0.010471	0.492563
	Zn227	Zn	0.239901	0.008498	0.494111
	N228	N	0.399913	0.973065	0.676186
	N229	N	0.576292	0.044196	0.674391
	N230	N	0.576282	0.973232	0.313405
	N231	N	0.399153	0.041337	0.310033
	N232	N	0.670317	0.420902	0.956091
	N233	N	0.671595	0.595392	0.027892
	N234	N	0.309981	0.595294	0.955772
	N235	N	0.309449	0.421723	0.026970
	N236	N	0.953251	0.689919	0.404288
	N237	N	0.025277	0.688967	0.577929
	N238	N	0.953063	0.329639	0.579285
	N239	N	0.025367	0.331024	0.406803
	N240	N	0.954237	0.420200	0.673092
	N241	N	0.025834	0.594863	0.670094
	N242	N	0.954568	0.598730	0.309748
	N243	N	0.025452	0.423992	0.313868
	N244	N	0.402559	0.689486	0.957377
	N245	N	0.577645	0.688260	0.028811
	N246	N	0.577743	0.326334	0.957286
	N247	N	0.400417	0.326410	0.026802
	N248	N	0.667939	0.973844	0.406608
	N249	N	0.668285	0.045562	0.580002
	N250	N	0.309427	0.972343	0.581317
	N251	N	0.311926	0.044538	0.408720
	N252	N	0.900244	0.473616	0.175132
	N253	N	0.077632	0.543589	0.172195
	N254	N	0.077839	0.473073	0.810118
	N255	N	0.901938	0.543179	0.809890
	N256	N	0.169203	0.922582	0.457944
	N257	N	0.170632	0.097112	0.528897
	N258	N	0.807259	0.098665	0.457291
	N259	N	0.808292	0.923506	0.528441
	N260	N	0.453782	0.187837	0.906132
	N261	N	0.524880	0.186767	0.079508
	N262	N	0.454215	0.827426	0.081131
	N263	N	0.526493	0.831304	0.909175
	N264	N	0.454557	0.918939	0.174464
	N265	N	0.524715	0.094029	0.172767
	N266	N	0.453888	0.096435	0.813014
	N267	N	0.524116	0.920783	0.813570
	N268	N	0.901987	0.189964	0.456615
	N269	N	0.076217	0.189733	0.528629
	N270	N	0.075103	0.831028	0.456439
	N271	N	0.899717	0.827749	0.527003
	N272	N	0.168731	0.472224	0.904480
	N273	N	0.167203	0.544424	0.076212
	N274	N	0.812364	0.470912	0.077739
	N275	N	0.811078	0.544097	0.905194
	O276	O	0.507769	0.551513	0.357734
	H277	H	0.504337	0.555051	0.360671
	H278	H	0.505202	0.543191	0.356644
	O279	O	0.445675	0.634434	0.474391
	H280	H	0.445413	0.645531	0.485129
	H281	H	0.438333	0.625254	0.503119
	O282	O	0.685094	0.659289	0.412042
	H283	H	0.675365	0.657452	0.424077
	H284	H	0.666427	0.667634	0.412402
	O285	O	1.043258	0.845233	-0.078582
	H286	H	1.046983	0.826212	-0.080022
	H287	H	1.053696	0.849982	-0.052845
	O288	O	0.699873	0.299119	0.469990
	H289	H	0.719035	0.275635	0.474935
	H290	H	0.682674	0.296764	0.466008
	O291	O	0.462024	0.721842	0.278942
	H292	H	0.442060	0.720686	0.268024
	H293	H	0.463460	0.728320	0.257714
	O294	O	0.781804	1.009553	0.938656
	H295	H	0.790820	0.998502	0.930032
	H296	H	0.780576	0.997698	0.930940
	O297	O	0.680755	0.460264	0.300262
	H298	H	0.676897	0.471011	0.319382
	H299	H	0.688047	0.469166	0.285208
	O300	O	0.557912	0.336948	0.410840
	H301	H	0.566164	0.315827	0.391707
	H302	H	0.573319	0.349650	0.430078
	O303	O	0.358265	0.448402	0.369249
	H304	H	0.387133	0.437555	0.358011
	H305	H	0.358969	0.431913	0.367206
	O306	O	0.045910	0.096097	1.188928
	H307	H	0.043178	0.076530	1.190559
	H308	H	0.064521	0.093987	1.201772
	O309	O	1.156437	0.074194	-0.175716
	H310	H	1.159260	0.049171	-0.159297
	H311	H	1.161869	0.062601	-0.181602
	O312	O	0.811692	-0.136105	0.125803
	H313	H	0.796675	-0.146142	0.128043
	H314	H	0.812133	-0.117729	0.108927
	O315	O	0.554625	0.362432	0.630646
	H316	H	0.549775	0.375734	0.625533
	H317	H	0.566210	0.375198	0.638071
	O318	O	0.082012	-0.006069	-0.096679
	H319	H	0.089636	-0.018405	-0.093665
	H320	H	0.085686	-0.008357	-0.109600
	O321	O	0.310243	0.362050	0.681434
	H322	H	0.314853	0.359042	0.681428
	H323	H	0.304371	0.367610	0.664603
	O324	O	0.806517	-0.191144	1.004466
	H325	H	0.808336	-0.191161	1.007261
	H326	H	0.805493	-0.202380	0.983865
	O327	O	0.565414	0.665312	0.417652
	H328	H	0.557310	0.673559	0.420514
	H329	H	0.563801	0.662096	0.427159
	O330	O	-0.074662	1.090602	1.124381
	H331	H	-0.077883	1.079121	1.126371
	H332	H	-0.071625	1.077255	1.110421
	O333	O	0.073683	1.080582	0.004648
	H334	H	0.077407	1.090575	0.026758
	H335	H	0.075709	1.083260	0.008215
	O336	O	0.845403	1.086329	-0.199343
	H337	H	0.852508	1.064666	-0.200421
	H338	H	0.825787	1.093224	-0.191277
	O339	O	-0.504585	1.569846	1.446909
	H340	H	-0.507251	1.566100	1.435054
	H341	H	-0.512646	1.560411	1.441135
	O342	O	0.471627	0.516001	0.568020
	H343	H	0.467938	0.516489	0.569122
	H344	H	0.472465	0.531848	0.569615
	O345	O	-0.471520	-0.513584	1.445134
	H346	H	-0.472806	-0.514488	1.443837
	H347	H	-0.483568	-0.498244	1.463104
	O348	O	0.700606	0.532802	0.707070
	H349	H	0.694352	0.535494	0.693464
	H350	H	0.731193	0.539194	0.732667
	O351	O	1.070780	0.950331	0.112162
	H352	H	1.057439	0.967204	0.103622
	H353	H	1.078094	0.961587	0.124458
	O354	O	1.090847	0.791019	1.097543
	H355	H	1.093197	0.796696	1.110889
	H356	H	1.089031	0.772695	1.091856
	O357	O	0.007977	0.194044	0.051707
	H358	H	-0.007795	0.197186	0.047064
	H359	H	-0.002865	0.207241	0.066612
	O360	O	0.908227	0.150907	-0.102766
	H361	H	0.894838	0.150326	-0.109947
	H362	H	0.902305	0.156354	-0.112816
	O363	O	1.426482	-0.607258	0.349592
	H364	H	1.432016	-0.604894	0.344966
	H365	H	1.432829	-0.624933	0.337306
	O366	O	0.469460	0.533933	1.636328
	H367	H	0.474574	0.547397	1.632570
	H368	H	0.456997	0.507176	1.622237
	O369	O	0.962625	0.198055	0.950149
	H370	H	0.968236	0.206011	0.954467
	H371	H	0.966260	0.184169	0.950883
	O372	O	0.343193	0.556117	0.547690
	H373	H	0.333712	0.546087	0.538128
	H374	H	0.350014	0.545080	0.540317
	O375	O	-0.047743	-0.187952	1.202974
	H376	H	-0.075939	-0.191556	1.209107
	H377	H	-0.059550	-0.203264	1.220726
	O378	O	0.324243	0.347273	0.439963
	H379	H	0.320576	0.335634	0.443731
	H380	H	0.329251	0.336891	0.443599
	O381	O	-0.183950	1.014777	0.165691
	H382	H	-0.172921	0.996446	0.157877
	H383	H	-0.208041	1.016529	0.174558
	O384	O	0.619830	0.328833	0.306131
	H385	H	0.618442	0.350454	0.302712
	H386	H	0.622901	0.332347	0.332443
	O387	O	0.676869	0.698210	0.675648
	H388	H	0.662044	0.697885	0.675155
	H389	H	0.684541	0.685402	0.642652
	O390	O	0.363200	0.564347	0.589970
	H391	H	0.383446	0.553051	0.583971
	H392	H	0.355225	0.548051	0.595486
	O393	O	1.012913	0.040159	0.956639
	H394	H	1.017726	0.035413	0.948406
	H395	H	1.020260	0.044198	0.959187
	O396	O	1.151646	-0.017203	-0.094668
	H397	H	1.134303	-0.022576	-0.091982
	H398	H	1.166794	-0.035779	-0.096569
	O399	O	0.453291	0.519456	0.673765
	H400	H	0.466951	0.527571	0.686117
	H401	H	0.470231	0.525562	0.677502
	O402	O	1.180837	1.200660	0.169889
	H403	H	1.165307	1.203551	0.147823
	H404	H	1.160586	1.193900	0.164059
	O405	O	0.347996	0.500265	0.357969
	H406	H	0.348407	0.470149	0.370518
	H407	H	0.335878	0.498742	0.352868
	O408	O	0.368224	0.412069	0.634836
	H409	H	0.358730	0.411091	0.657422
	H410	H	0.381777	0.404596	0.632838
	O411	O	0.997751	0.954593	0.789562
	H412	H	1.007121	0.952881	0.798470
	H413	H	1.003394	0.962438	0.794792
	O414	O	0.629932	0.529887	0.471647
	H415	H	0.626845	0.510500	0.466395
	H416	H	0.624897	0.525700	0.468460
	O417	O	0.087101	0.895037	1.026442
	H418	H	0.078471	0.890390	1.034446
	H419	H	0.091498	0.892280	1.025881
	O420	O	-0.118264	1.174864	0.885696
	H421	H	-0.117527	1.167644	0.891615
	H422	H	-0.092607	1.185713	0.876446
	O423	O	0.007331	0.808828	-0.211733
	H424	H	0.007503	0.779770	-0.231915
	H425	H	0.020288	0.835211	-0.213620
	O426	O	0.399083	0.709032	0.528572
	H427	H	0.404043	0.697950	0.520641
	H428	H	0.402095	0.725349	0.541301
	O429	O	0.423772	0.397190	0.703503
	H430	H	0.418334	0.388807	0.709917
	H431	H	0.412104	0.391423	0.709436
	O432	O	0.241151	0.867513	0.250185
	H433	H	0.256346	0.872362	0.249626
	H434	H	0.253118	0.850988	0.252420
	O435	O	0.107611	-0.133504	0.003076
	H436	H	0.108707	-0.144141	0.013075
	H437	H	0.108919	-0.121208	0.021616
	O438	O	-0.113111	0.906845	0.948546
	H439	H	-0.093280	0.905101	0.953288
	H440	H	-0.116158	0.884251	0.938269
	O441	O	1.179765	0.114387	1.072913
	H442	H	1.175313	0.124186	1.062288
	H443	H	1.199156	0.109670	1.070428
