data_Molecule from HDF5

_cell_length_a		16.148292
_cell_length_b		16.173739
_cell_length_c		16.266548
_cell_angle_alpha	90.789397
_cell_angle_beta	89.879582
_cell_angle_gamma	89.447719
_symmetry_space_group_name_H-M	'P 1'
_symmetry_Int_Tables_number		1

loop_
	_symmetry_equiv_pos_as_xyz
	x,y,z

loop_
	_atom_site_label
	_atom_site_type_symbol
	_atom_site_fract_x
	_atom_site_fract_y
	_atom_site_fract_z
	H0	H	0.406556	0.828753	0.707786
	H1	H	0.603333	0.156789	0.714783
	H2	H	0.608555	0.830504	0.277009
	H3	H	0.405040	0.158368	0.284689
	H4	H	0.723563	0.389590	0.832900
	H5	H	0.715815	0.590687	0.162269
	H6	H	0.289245	0.589591	0.833016
	H7	H	0.292225	0.398525	0.161322
	H8	H	0.840900	0.706342	0.401682
	H9	H	0.171623	0.707803	0.596262
	H10	H	0.839823	0.284723	0.593763
	H11	H	0.169665	0.276708	0.395213
	H12	H	0.842166	0.397684	0.711414
	H13	H	0.171466	0.593645	0.712563
	H14	H	0.840909	0.593723	0.286906
	H15	H	0.169437	0.391472	0.280273
	H16	H	0.406526	0.703690	0.831766
	H17	H	0.603974	0.709380	0.159877
	H18	H	0.607033	0.274607	0.832125
	H19	H	0.408938	0.282404	0.161243
	H20	H	0.720490	0.829083	0.394815
	H21	H	0.714914	0.159596	0.594802
	H22	H	0.294919	0.827510	0.590923
	H23	H	0.290991	0.158291	0.400868
	H24	H	0.907058	0.329333	0.210311
	H25	H	0.102250	0.657996	0.214131
	H26	H	0.109267	0.330321	0.778679
	H27	H	0.905186	0.659006	0.786532
	H28	H	0.221402	0.891991	0.332611
	H29	H	0.219498	0.094881	0.660732
	H30	H	0.789504	0.092013	0.331926
	H31	H	0.792134	0.899277	0.660359
	H32	H	0.342055	0.205772	0.899873
	H33	H	0.671911	0.205470	0.094578
	H34	H	0.340825	0.782645	0.092701
	H35	H	0.671044	0.774654	0.895346
	H36	H	0.341090	0.897516	0.208324
	H37	H	0.670292	0.094332	0.211871
	H38	H	0.341051	0.091796	0.785740
	H39	H	0.669675	0.887745	0.777045
	H40	H	0.904483	0.207818	0.332383
	H41	H	0.103247	0.211098	0.659898
	H42	H	0.105609	0.776116	0.332780
	H43	H	0.907755	0.783632	0.661010
	H44	H	0.219762	0.328365	0.896761
	H45	H	0.216708	0.658681	0.097461
	H46	H	0.796267	0.327155	0.091213
	H47	H	0.789979	0.658518	0.902302
	H48	H	0.406950	0.115093	0.599844
	H49	H	0.595274	0.877148	0.585558
	H50	H	0.600839	0.115637	0.394873
	H51	H	0.417548	0.878116	0.405661
	H52	H	0.611159	0.397550	0.116734
	H53	H	0.601167	0.589465	0.876553
	H54	H	0.414936	0.596684	0.115096
	H55	H	0.420205	0.385576	0.878452
	H56	H	0.122419	0.580456	0.405959
	H57	H	0.885869	0.600807	0.589881
	H58	H	0.124462	0.404275	0.594000
	H59	H	0.893205	0.412594	0.411491
	H60	H	0.124790	0.395202	0.585838
	H61	H	0.892595	0.581566	0.584302
	H62	H	0.126035	0.584385	0.399485
	H63	H	0.883109	0.404337	0.390575
	H64	H	0.402703	0.587463	0.115833
	H65	H	0.604245	0.576836	0.880232
	H66	H	0.596923	0.408220	0.110649
	H67	H	0.399986	0.397888	0.875691
	H68	H	0.587798	0.108628	0.404695
	H69	H	0.601261	0.876368	0.583479
	H70	H	0.421740	0.108271	0.593641
	H71	H	0.408028	0.873187	0.399759
	H72	H	0.917555	0.607770	0.089687
	H73	H	0.087251	0.379845	0.084848
	H74	H	0.094858	0.610289	0.909346
	H75	H	0.920453	0.378438	0.906065
	H76	H	0.094773	0.900803	0.613105
	H77	H	0.095510	0.081933	0.381144
	H78	H	0.905849	0.086786	0.613482
	H79	H	0.916887	0.896365	0.379099
	H80	H	0.623999	0.082954	0.910028
	H81	H	0.388475	0.091810	0.086997
	H82	H	0.624895	0.899078	0.090566
	H83	H	0.387632	0.898660	0.899699
	H84	H	0.623912	0.898438	0.083282
	H85	H	0.389281	0.084282	0.090742
	H86	H	0.623096	0.074871	0.901897
	H87	H	0.387913	0.897904	0.901568
	H88	H	0.915654	0.087274	0.610982
	H89	H	0.097330	0.087350	0.379138
	H90	H	0.103868	0.898554	0.616449
	H91	H	0.909678	0.897279	0.377364
	H92	H	0.101273	0.613005	0.906608
	H93	H	0.108419	0.375693	0.080575
	H94	H	0.900943	0.612418	0.089966
	H95	H	0.911090	0.374985	0.904131
	H96	H	0.407629	0.109881	0.583147
	H97	H	0.600083	0.874427	0.589511
	H98	H	0.603175	0.111879	0.412144
	H99	H	0.418358	0.874565	0.393992
	H100	H	0.594556	0.390754	0.114385
	H101	H	0.592582	0.580959	0.882281
	H102	H	0.416281	0.581991	0.110357
	H103	H	0.419425	0.408962	0.884751
	H104	H	0.125149	0.587708	0.406794
	H105	H	0.886598	0.585618	0.603068
	H106	H	0.120592	0.406066	0.582889
	H107	H	0.884930	0.389990	0.409017
	H108	H	0.910485	0.614572	0.103056
	H109	H	0.100884	0.371101	0.100462
	H110	H	0.094547	0.612427	0.902117
	H111	H	0.917930	0.375328	0.896185
	H112	H	0.101613	0.906149	0.611746
	H113	H	0.101337	0.082511	0.379005
	H114	H	0.910965	0.095339	0.613973
	H115	H	0.913704	0.903379	0.380095
	H116	H	0.627121	0.085298	0.899650
	H117	H	0.386671	0.090303	0.095304
	H118	H	0.623063	0.904983	0.087076
	H119	H	0.387610	0.898728	0.901602
	C120	C	0.384108	0.001656	0.617897
	C121	C	0.626384	0.984848	0.616962
	C122	C	0.627383	0.003380	0.373715
	C123	C	0.384906	0.984376	0.373767
	C124	C	0.629446	0.368664	0.005095
	C125	C	0.626852	0.612704	0.988212
	C126	C	0.382471	0.615518	0.005184
	C127	C	0.384364	0.370830	0.988065
	C128	C	0.015211	0.613761	0.377023
	C129	C	0.997645	0.617409	0.620410
	C130	C	0.014461	0.373932	0.617060
	C131	C	0.995924	0.371756	0.374331
	C132	C	0.883070	0.502367	0.120188
	C133	C	0.126189	0.484839	0.118722
	C134	C	0.127007	0.502719	0.875787
	C135	C	0.885454	0.485182	0.875946
	C136	C	0.128602	0.871170	0.505222
	C137	C	0.126652	0.114555	0.487695
	C138	C	0.881820	0.117092	0.504474
	C139	C	0.884858	0.872513	0.487746
	C140	C	0.515328	0.111496	0.875904
	C141	C	0.497374	0.115966	0.118956
	C142	C	0.514937	0.873134	0.115492
	C143	C	0.496903	0.868325	0.872001
	C144	C	0.386499	0.877869	0.670804
	C145	C	0.623769	0.108041	0.675573
	C146	C	0.627430	0.879394	0.316198
	C147	C	0.385778	0.109004	0.321506
	C148	C	0.685407	0.369399	0.881838
	C149	C	0.679693	0.611163	0.112729
	C150	C	0.326933	0.611084	0.882019
	C151	C	0.329825	0.376678	0.111960
	C152	C	0.890460	0.669156	0.380584
	C153	C	0.122089	0.670963	0.617132
	C154	C	0.889834	0.320893	0.614462
	C155	C	0.120242	0.314668	0.374972
	C156	C	0.890773	0.377368	0.672743
	C157	C	0.122031	0.614142	0.674771
	C158	C	0.890294	0.613025	0.323669
	C159	C	0.120145	0.371902	0.318189
	C160	C	0.385565	0.667684	0.881369
	C161	C	0.623936	0.670155	0.111504
	C162	C	0.627204	0.312344	0.881398
	C163	C	0.387657	0.318720	0.111838
	C164	C	0.683124	0.878679	0.374715
	C165	C	0.679061	0.109404	0.615754
	C166	C	0.330768	0.877531	0.612674
	C167	C	0.328666	0.109014	0.379268
	C168	C	0.886907	0.378101	0.173079
	C169	C	0.122858	0.608914	0.175522
	C170	C	0.127615	0.379227	0.817537
	C171	C	0.885598	0.609362	0.823186
	C172	C	0.183617	0.871910	0.381613
	C173	C	0.181901	0.114414	0.611377
	C174	C	0.827163	0.112772	0.381090
	C175	C	0.829550	0.877679	0.611270
	C176	C	0.391137	0.167745	0.879433
	C177	C	0.622141	0.169209	0.115488
	C178	C	0.390082	0.819875	0.112972
	C179	C	0.621237	0.812191	0.874333
	C180	C	0.390464	0.876751	0.170626
	C181	C	0.621399	0.113969	0.173862
	C182	C	0.390617	0.110932	0.822620
	C183	C	0.620636	0.868534	0.815896
	C184	C	0.884145	0.170750	0.381463
	C185	C	0.124151	0.172297	0.611006
	C186	C	0.126269	0.814130	0.381864
	C187	C	0.887177	0.820161	0.611524
	C188	C	0.182788	0.378061	0.876501
	C189	C	0.179525	0.609331	0.117398
	C190	C	0.831743	0.377088	0.113843
	C191	C	0.828533	0.609198	0.881251
	C192	C	0.405619	0.088399	0.597983
	C193	C	0.605141	0.898297	0.593240
	C194	C	0.604024	0.089722	0.397195
	C195	C	0.407858	0.897654	0.393746
	C196	C	0.607332	0.391741	0.091227
	C197	C	0.605643	0.589229	0.901888
	C198	C	0.404715	0.594884	0.091584
	C199	C	0.406529	0.391367	0.901786
	C200	C	0.102144	0.590722	0.397996
	C201	C	0.910671	0.595935	0.598766
	C202	C	0.101058	0.395261	0.594324
	C203	C	0.909606	0.395398	0.397000
	C204	C	0.903528	0.589193	0.100220
	C205	C	0.105056	0.398041	0.095530
	C206	C	0.103874	0.589332	0.899300
	C207	C	0.909415	0.398597	0.896247
	C208	C	0.106536	0.894875	0.591397
	C209	C	0.104648	0.090702	0.401920
	C210	C	0.904111	0.096034	0.590582
	C211	C	0.907008	0.892753	0.401183
	C212	C	0.602296	0.088028	0.897518
	C213	C	0.410441	0.094853	0.097466
	C214	C	0.601474	0.894317	0.093459
	C215	C	0.410062	0.891612	0.894418
	Zn216	Zn	0.505301	-0.007629	0.746252
	Zn217	Zn	0.506381	-0.005843	0.245529
	Zn218	Zn	0.756182	0.492447	-0.002514
	Zn219	Zn	0.254625	0.493248	-0.003001
	Zn220	Zn	0.006314	0.743118	0.496936
	Zn221	Zn	0.004990	0.244746	0.495812
	Zn222	Zn	0.006960	0.494991	0.746981
	Zn223	Zn	0.005167	0.493980	0.247895
	Zn224	Zn	0.506047	0.742667	-0.004107
	Zn225	Zn	0.507030	0.241071	-0.003614
	Zn226	Zn	0.754868	-0.006297	0.495687
	Zn227	Zn	0.256394	-0.007150	0.496378
	N228	N	0.419176	0.956153	0.674310
	N229	N	0.591749	0.029538	0.676364
	N230	N	0.593490	0.957798	0.315336
	N231	N	0.419873	0.030703	0.317945
	N232	N	0.686971	0.403702	0.959612
	N233	N	0.681596	0.576242	0.035078
	N234	N	0.325044	0.579512	0.959998
	N235	N	0.327795	0.408440	0.034010
	N236	N	0.969035	0.669806	0.413056
	N237	N	0.043711	0.673187	0.584116
	N238	N	0.967857	0.318778	0.580397
	N239	N	0.042190	0.314401	0.409271
	N240	N	0.969241	0.409671	0.674341
	N241	N	0.043550	0.581494	0.676805
	N242	N	0.968817	0.579237	0.321038
	N243	N	0.041900	0.406520	0.317475
	N244	N	0.419538	0.670558	0.959123
	N245	N	0.591725	0.671086	0.033171
	N246	N	0.593022	0.311844	0.959237
	N247	N	0.421068	0.315044	0.033860
	N248	N	0.683441	0.956675	0.409607
	N249	N	0.680743	0.031741	0.580026
	N250	N	0.329042	0.955614	0.580600
	N251	N	0.328061	0.030737	0.411149
	N252	N	0.918241	0.457018	0.177106
	N253	N	0.090571	0.530451	0.176572
	N254	N	0.093490	0.457739	0.817167
	N255	N	0.920314	0.531270	0.819754
	N256	N	0.185102	0.906634	0.459279
	N257	N	0.183512	0.079262	0.533723
	N258	N	0.825488	0.080082	0.458723
	N259	N	0.827958	0.909615	0.533134
	N260	N	0.469690	0.168139	0.911873
	N261	N	0.543977	0.170682	0.082012
	N262	N	0.468283	0.817508	0.079386
	N263	N	0.543229	0.812012	0.908478
	N264	N	0.468979	0.909493	0.172318
	N265	N	0.542792	0.081736	0.176345
	N266	N	0.469022	0.076395	0.820446
	N267	N	0.542171	0.902716	0.814101
	N268	N	0.917581	0.173423	0.459128
	N269	N	0.090496	0.172457	0.533360
	N270	N	0.092706	0.813674	0.459771
	N271	N	0.920718	0.816903	0.533669
	N272	N	0.182320	0.455741	0.912163
	N273	N	0.181737	0.531092	0.082827
	N274	N	0.829198	0.455120	0.081857
	N275	N	0.828219	0.530879	0.913310
	O276	O	1.110216	0.990553	-0.007355
	H277	H	1.125272	0.977300	-0.007085
	H278	H	1.119520	0.979681	-0.019181
	O279	O	0.055075	-0.020689	0.978462
	H280	H	0.054714	-0.022926	0.967506
	H281	H	0.050988	-0.027296	0.973102
	O282	O	0.082389	0.003782	-0.014608
	H283	H	0.086131	-0.004970	-0.012201
	H284	H	0.082759	0.007398	-0.014908
	O285	O	0.536448	0.489901	0.555065
	H286	H	0.540387	0.482861	0.556616
	H287	H	0.533075	0.490289	0.555059
	O288	O	-0.022717	-0.063239	0.011086
	H289	H	-0.021352	-0.063388	0.009592
	H290	H	-0.025647	-0.066212	0.011809
	O291	O	-0.340136	1.378342	0.344004
	H292	H	-0.341351	1.378553	0.350138
	H293	H	-0.341065	1.378155	0.355129
	O294	O	-0.034503	0.945886	-0.056906
	H295	H	-0.039283	0.951562	-0.054788
	H296	H	-0.031753	0.964400	-0.054755
	O297	O	0.571335	0.534046	0.536737
	H298	H	0.573332	0.527843	0.529709
	H299	H	0.578748	0.549038	0.542869
	O300	O	0.613973	0.490208	0.497074
	H301	H	0.623782	0.496476	0.503642
	H302	H	0.620881	0.486547	0.492633
	O303	O	0.547016	0.498453	1.568869
	H304	H	0.547359	0.510661	1.565659
	H305	H	0.548521	0.493162	1.570633
	O306	O	0.991225	2.012656	1.007025
	H307	H	0.992978	2.016629	1.006964
	H308	H	0.996804	2.015311	1.000966
	O309	O	0.063021	0.950027	0.910696
	H310	H	0.057260	0.947699	0.918755
	H311	H	0.060076	0.940548	0.915777
	O312	O	-0.018668	0.014025	0.993267
	H313	H	-0.024965	0.011201	1.003105
	H314	H	-0.026498	0.017821	0.984271
	O315	O	0.511553	0.520488	0.573712
	H316	H	0.509304	0.521916	0.576585
	H317	H	0.512210	0.516887	0.566491
	O318	O	0.500839	-0.585599	0.401597
	H319	H	0.508829	-0.576701	0.390007
	H320	H	0.504760	-0.601982	0.398431
	O321	O	0.470857	0.514511	0.427837
	H322	H	0.468862	0.506248	0.431851
	H323	H	0.465510	0.515704	0.413860
	O324	O	0.951693	0.012402	0.964778
	H325	H	0.964273	0.009849	0.957451
	H326	H	0.954093	0.018209	0.967870
	O327	O	0.972370	0.973680	0.972258
	H328	H	0.984553	0.980641	0.970569
	H329	H	0.969627	0.976390	0.972328
	O330	O	0.547097	0.465387	0.450095
	H331	H	0.536902	0.468165	0.446549
	H332	H	0.536394	0.448254	0.437722
	O333	O	0.551832	0.534977	0.518643
	H334	H	0.548283	0.536117	0.523473
	H335	H	0.545356	0.534111	0.514745
	O336	O	0.507843	0.526769	0.539971
	H337	H	0.518285	0.527930	0.537819
	H338	H	0.501168	0.530262	0.554867
	O339	O	-1.019465	0.025146	-0.002951
	H340	H	-1.015015	0.033274	-0.005129
	H341	H	-1.026325	0.032255	0.000815
	O342	O	0.553456	0.503256	0.492162
	H343	H	0.564576	0.504399	0.492459
	H344	H	0.557659	0.501135	0.495266
	O345	O	0.445946	0.465641	0.463950
	H346	H	0.444159	0.465777	0.470836
	H347	H	0.450138	0.461194	0.462503
