data_Molecule from HDF5

_cell_length_a		16.343977
_cell_length_b		16.104878
_cell_length_c		16.115452
_cell_angle_alpha	91.139127
_cell_angle_beta	91.096827
_cell_angle_gamma	91.002464
_symmetry_space_group_name_H-M	'P 1'
_symmetry_Int_Tables_number		1

loop_
	_symmetry_equiv_pos_as_xyz
	x,y,z

loop_
	_atom_site_label
	_atom_site_type_symbol
	_atom_site_fract_x
	_atom_site_fract_y
	_atom_site_fract_z
	H0	H	0.390618	0.829868	0.694309
	H1	H	0.591566	0.161396	0.713084
	H2	H	0.579890	0.831467	0.276979
	H3	H	0.389796	0.161970	0.277246
	H4	H	0.696965	0.390387	0.826890
	H5	H	0.708247	0.604516	0.154393
	H6	H	0.266649	0.589217	0.828249
	H7	H	0.271967	0.394231	0.157865
	H8	H	0.822676	0.704687	0.392724
	H9	H	0.148239	0.720767	0.600759
	H10	H	0.825554	0.279775	0.585834
	H11	H	0.151734	0.285585	0.394117
	H12	H	0.822458	0.398658	0.700000
	H13	H	0.148353	0.604885	0.716186
	H14	H	0.825435	0.592151	0.273823
	H15	H	0.150716	0.398009	0.279044
	H16	H	0.387006	0.699773	0.824352
	H17	H	0.590684	0.715307	0.155178
	H18	H	0.575595	0.280136	0.825859
	H19	H	0.389427	0.282477	0.157309
	H20	H	0.698435	0.832814	0.388680
	H21	H	0.707957	0.161915	0.599343
	H22	H	0.267296	0.835655	0.587939
	H23	H	0.274479	0.163754	0.390680
	H24	H	0.890170	0.329235	0.198707
	H25	H	0.090425	0.661894	0.210689
	H26	H	0.077147	0.332663	0.776646
	H27	H	0.887106	0.662647	0.780556
	H28	H	0.196046	0.897267	0.326557
	H29	H	0.210947	0.107950	0.654991
	H30	H	0.769771	0.094640	0.328084
	H31	H	0.773945	0.898880	0.656989
	H32	H	0.321464	0.200139	0.891900
	H33	H	0.647531	0.218629	0.098662
	H34	H	0.324067	0.778590	0.083125
	H35	H	0.649474	0.779717	0.892189
	H36	H	0.323139	0.894254	0.200620
	H37	H	0.648500	0.100952	0.212161
	H38	H	0.324253	0.086671	0.775183
	H39	H	0.650933	0.895396	0.777384
	H40	H	0.892081	0.202691	0.325061
	H41	H	0.091453	0.217082	0.656664
	H42	H	0.079246	0.781537	0.327638
	H43	H	0.890626	0.787543	0.658507
	H44	H	0.190852	0.329578	0.892335
	H45	H	0.210862	0.658085	0.102131
	H46	H	0.767386	0.332681	0.090430
	H47	H	0.770376	0.660673	0.892166
	H48	H	0.396604	0.116376	0.579314
	H49	H	0.574882	0.879143	0.587388
	H50	H	0.573893	0.115682	0.396495
	H51	H	0.395138	0.884903	0.408612
	H52	H	0.565300	0.418354	0.102069
	H53	H	0.574343	0.581959	0.874894
	H54	H	0.403354	0.593803	0.109338
	H55	H	0.380896	0.402212	0.873460
	H56	H	0.101971	0.594333	0.414644
	H57	H	0.869838	0.588272	0.589071
	H58	H	0.103679	0.411485	0.588369
	H59	H	0.868902	0.391189	0.394973
	H60	H	0.104034	0.409285	0.588108
	H61	H	0.868780	0.594455	0.584742
	H62	H	0.102510	0.582060	0.401080
	H63	H	0.873451	0.403397	0.400457
	H64	H	0.392881	0.588025	0.111939
	H65	H	0.576803	0.589201	0.872339
	H66	H	0.576168	0.390490	0.114348
	H67	H	0.391637	0.395644	0.874965
	H68	H	0.577779	0.110714	0.414461
	H69	H	0.580927	0.881939	0.574375
	H70	H	0.397762	0.118360	0.591305
	H71	H	0.376245	0.875306	0.396440
	H72	H	0.894683	0.614704	0.083599
	H73	H	0.073164	0.378616	0.084754
	H74	H	0.091142	0.616792	0.911215
	H75	H	0.890677	0.380782	0.905123
	H76	H	0.085935	0.914958	0.610191
	H77	H	0.086647	0.090173	0.371485
	H78	H	0.889780	0.096335	0.615320
	H79	H	0.899742	0.907414	0.378385
	H80	H	0.605646	0.089244	0.896501
	H81	H	0.363172	0.110933	0.076677
	H82	H	0.600826	0.906031	0.077561
	H83	H	0.375383	0.904230	0.898299
	H84	H	0.602000	0.912938	0.088737
	H85	H	0.380272	0.069579	0.065934
	H86	H	0.603412	0.097045	0.907586
	H87	H	0.366676	0.898636	0.878668
	H88	H	0.898717	0.080853	0.607412
	H89	H	0.079196	0.087596	0.375833
	H90	H	0.078025	0.917204	0.607525
	H91	H	0.891660	0.890118	0.371823
	H92	H	0.077326	0.617729	0.897500
	H93	H	0.082158	0.377052	0.080782
	H94	H	0.899413	0.615402	0.088775
	H95	H	0.880491	0.375699	0.893258
	H96	H	0.406657	0.114127	0.585105
	H97	H	0.589239	0.874597	0.584819
	H98	H	0.591828	0.119247	0.403249
	H99	H	0.396522	0.878718	0.385728
	H100	H	0.596521	0.417442	0.111406
	H101	H	0.581872	0.582032	0.872464
	H102	H	0.400763	0.581225	0.106317
	H103	H	0.381625	0.390152	0.870579
	H104	H	0.107251	0.599115	0.398246
	H105	H	0.871634	0.588833	0.581671
	H106	H	0.102838	0.410575	0.586183
	H107	H	0.869698	0.401771	0.387145
	H108	H	0.900096	0.611331	0.082196
	H109	H	0.080673	0.374942	0.090333
	H110	H	0.073539	0.610789	0.915272
	H111	H	0.896445	0.379383	0.890090
	H112	H	0.079087	0.908166	0.610656
	H113	H	0.080557	0.095001	0.370318
	H114	H	0.908452	0.098260	0.609049
	H115	H	0.880105	0.905965	0.372792
	H116	H	0.600835	0.083295	0.907663
	H117	H	0.364831	0.078767	0.107549
	H118	H	0.606066	0.900532	0.088167
	H119	H	0.367425	0.884756	0.894520
	C120	C	0.369109	0.006631	0.610527
	C121	C	0.611979	0.987604	0.615436
	C122	C	0.607498	0.005974	0.372772
	C123	C	0.363443	0.989023	0.368604
	C124	C	0.605405	0.376237	0.000088
	C125	C	0.609483	0.617689	0.982002
	C126	C	0.367158	0.613732	0.000205
	C127	C	0.360157	0.370419	0.983035
	C128	C	-0.004002	0.618108	0.373145
	C129	C	0.977475	0.622447	0.617382
	C130	C	-0.004093	0.378213	0.613455
	C131	C	0.979061	0.372779	0.368267
	C132	C	0.867330	0.504597	0.112192
	C133	C	0.110576	0.486167	0.116930
	C134	C	0.105451	0.505664	0.875212
	C135	C	0.862180	0.487876	0.868866
	C136	C	0.106885	0.880243	0.500730
	C137	C	0.112474	0.122577	0.482042
	C138	C	0.868896	0.117949	0.500775
	C139	C	0.863715	0.874670	0.483576
	C140	C	0.495396	0.115235	0.872293
	C141	C	0.476997	0.118775	0.115348
	C142	C	0.495227	0.875229	0.111210
	C143	C	0.478264	0.869564	0.865053
	C144	C	0.370044	0.880703	0.659911
	C145	C	0.611325	0.112101	0.674094
	C146	C	0.602002	0.881219	0.314905
	C147	C	0.368155	0.112820	0.313789
	C148	C	0.658940	0.373272	0.876154
	C149	C	0.668429	0.621564	0.105561
	C150	C	0.307256	0.609210	0.876625
	C151	C	0.308864	0.374275	0.108155
	C152	C	0.872324	0.669073	0.373050
	C153	C	0.099615	0.681521	0.619323
	C154	C	0.873622	0.319129	0.607722
	C155	C	0.102369	0.321129	0.372986
	C156	C	0.872218	0.378117	0.664637
	C157	C	0.099435	0.624173	0.677148
	C158	C	0.873710	0.613270	0.313764
	C159	C	0.101914	0.377317	0.315507
	C160	C	0.366883	0.664400	0.874613
	C161	C	0.610260	0.677073	0.105617
	C162	C	0.598453	0.318370	0.875423
	C163	C	0.366939	0.318209	0.107923
	C164	C	0.660764	0.881744	0.370743
	C165	C	0.669354	0.112122	0.617743
	C166	C	0.308743	0.883546	0.606971
	C167	C	0.311109	0.113732	0.370738
	C168	C	0.868944	0.379691	0.163816
	C169	C	0.110594	0.611505	0.173631
	C170	C	0.099267	0.381652	0.815568
	C171	C	0.866322	0.612782	0.816837
	C172	C	0.159359	0.878341	0.376054
	C173	C	0.171395	0.125606	0.605985
	C174	C	0.809995	0.114232	0.376786
	C175	C	0.811100	0.878605	0.607963
	C176	C	0.371161	0.165215	0.872170
	C177	C	0.598938	0.178938	0.117291
	C178	C	0.372601	0.817208	0.105440
	C179	C	0.600849	0.816469	0.870457
	C180	C	0.372276	0.874821	0.163798
	C181	C	0.599564	0.120105	0.173494
	C182	C	0.372453	0.108696	0.814161
	C183	C	0.601598	0.874402	0.813445
	C184	C	0.870726	0.168182	0.375303
	C185	C	0.112084	0.180073	0.606653
	C186	C	0.101172	0.820860	0.376611
	C187	C	0.869318	0.823093	0.608607
	C188	C	0.155640	0.379967	0.873476
	C189	C	0.170455	0.609584	0.119569
	C190	C	0.808177	0.381159	0.109668
	C191	C	0.807865	0.611637	0.871896
	C192	C	0.393201	0.093670	0.590753
	C193	C	0.588607	0.900856	0.589797
	C194	C	0.587159	0.092582	0.397577
	C195	C	0.383479	0.902203	0.390459
	C196	C	0.585286	0.401255	0.086699
	C197	C	0.584870	0.591722	0.895600
	C198	C	0.391776	0.593600	0.086769
	C199	C	0.378947	0.390111	0.895678
	C200	C	0.081659	0.598018	0.397535
	C201	C	0.892028	0.597757	0.592466
	C202	C	0.081404	0.403092	0.593411
	C203	C	0.892976	0.392785	0.388189
	C204	C	0.891118	0.591371	0.091074
	C205	C	0.085903	0.399443	0.092443
	C206	C	0.086344	0.592505	0.900387
	C207	C	0.882989	0.400983	0.889873
	C208	C	0.086879	0.905966	0.587148
	C209	C	0.088975	0.098044	0.395043
	C210	C	0.892175	0.097946	0.588149
	C211	C	0.884181	0.895301	0.396870
	C212	C	0.581116	0.095808	0.896776
	C213	C	0.391655	0.093835	0.090411
	C214	C	0.580854	0.899506	0.090908
	C215	C	0.392125	0.889875	0.884637
	Zn216	Zn	0.488844	-0.004708	0.740395
	Zn217	Zn	0.485957	-0.003343	0.243116
	Zn218	Zn	0.736623	0.496695	-0.008812
	Zn219	Zn	0.235570	0.493789	-0.006016
	Zn220	Zn	-0.014073	0.748967	0.493708
	Zn221	Zn	-0.010903	0.247205	0.491120
	Zn222	Zn	-0.014456	0.499556	0.744335
	Zn223	Zn	-0.011828	0.496255	0.242635
	Zn224	Zn	0.487524	0.743673	-0.010285
	Zn225	Zn	0.484204	0.245598	-0.007725
	Zn226	Zn	0.738320	-0.002656	0.492828
	Zn227	Zn	0.237890	0.000643	0.491103
	N228	N	0.407113	0.958205	0.662175
	N229	N	0.576535	0.033524	0.672942
	N230	N	0.569474	0.959467	0.316203
	N231	N	0.400102	0.034255	0.312427
	N232	N	0.663179	0.408851	0.954479
	N233	N	0.668190	0.585404	0.027435
	N234	N	0.307191	0.578646	0.955701
	N235	N	0.304460	0.405909	0.029518
	N236	N	0.949408	0.672298	0.409295
	N237	N	0.022557	0.680947	0.583314
	N238	N	0.951521	0.319070	0.576650
	N239	N	0.024953	0.318162	0.405209
	N240	N	0.949121	0.414235	0.668204
	N241	N	0.022360	0.588169	0.676022
	N242	N	0.951498	0.582205	0.313726
	N243	N	0.024293	0.408803	0.312147
	N244	N	0.403785	0.667289	0.952337
	N245	N	0.574109	0.674690	0.027746
	N246	N	0.565821	0.320074	0.953557
	N247	N	0.397950	0.315445	0.029204
	N248	N	0.664397	0.960194	0.406069
	N249	N	0.669961	0.033765	0.581806
	N250	N	0.308133	0.963111	0.577117
	N251	N	0.307652	0.035573	0.403627
	N252	N	0.905368	0.457542	0.165295
	N253	N	0.074149	0.533703	0.172210
	N254	N	0.068679	0.460757	0.816541
	N255	N	0.899289	0.534734	0.814537
	N256	N	0.162871	0.914727	0.454075
	N257	N	0.171791	0.090774	0.527417
	N258	N	0.808964	0.083553	0.455933
	N259	N	0.807195	0.909778	0.529207
	N260	N	0.448470	0.169341	0.907896
	N261	N	0.521467	0.178538	0.081940
	N262	N	0.450131	0.817203	0.073579
	N263	N	0.523010	0.812980	0.901468
	N264	N	0.449559	0.910025	0.167658
	N265	N	0.522850	0.083734	0.172513
	N266	N	0.450672	0.078480	0.814017
	N267	N	0.524276	0.906622	0.809777
	N268	N	0.906701	0.170563	0.453361
	N269	N	0.076201	0.178374	0.528636
	N270	N	0.069434	0.821836	0.455195
	N271	N	0.901367	0.820486	0.530296
	N272	N	0.159528	0.457945	0.910061
	N273	N	0.170785	0.530600	0.085080
	N274	N	0.807040	0.459964	0.078358
	N275	N	0.805173	0.532899	0.903611
	O276	O	0.561604	0.560216	0.590539
	H277	H	0.559287	0.553150	0.590750
	H278	H	0.570088	0.556083	0.598761
	O279	O	0.377517	0.552538	0.399515
	H280	H	0.371602	0.562172	0.395454
	H281	H	0.376295	0.543543	0.401224
	O282	O	1.028508	1.087351	0.053599
	H283	H	1.028715	1.087899	0.052184
	H284	H	1.028463	1.100596	0.060511
	O285	O	1.007075	-0.049536	0.867738
	H286	H	1.008886	-0.053121	0.863008
	H287	H	1.000644	-0.042542	0.872845
	O288	O	0.441510	0.460054	0.387709
	H289	H	0.444655	0.463779	0.386197
	H290	H	0.449575	0.463956	0.376555
	O291	O	0.522140	0.537134	0.549709
	H292	H	0.531646	0.545604	0.557949
	H293	H	0.518650	0.547187	0.550894
	O294	O	0.542330	0.489409	0.509771
	H295	H	0.538553	0.485143	0.514114
	H296	H	0.556913	0.511067	0.511023
	O297	O	0.000900	0.012906	1.050741
	H298	H	0.013966	0.018361	1.055558
	H299	H	0.003367	0.004484	1.040260
	O300	O	0.551040	0.484878	0.407297
	H301	H	0.543306	0.489943	0.405278
	H302	H	0.552453	0.484481	0.415528
	O303	O	1.028240	0.963711	0.020979
	H304	H	1.027118	0.966787	0.024722
	H305	H	1.022276	0.979499	0.023170
	O306	O	-0.079961	0.997700	0.955090
	H307	H	-0.081179	0.999576	0.946358
	H308	H	-0.080974	0.984981	0.952169
	O309	O	0.395647	0.445739	0.617900
	H310	H	0.393363	0.446290	0.616101
	H311	H	0.388374	0.445648	0.625815
	O312	O	0.044978	-0.002966	-0.004298
	H313	H	0.045825	-0.008501	0.002703
	H314	H	0.050181	-0.001595	0.014850
	O315	O	0.905008	0.015568	-0.100022
	H316	H	0.905271	0.016053	-0.099339
	H317	H	0.910691	0.009515	-0.098709
	O318	O	0.941853	1.079803	1.022739
	H319	H	0.946612	1.090621	1.022392
	H320	H	0.931286	1.082361	1.013947
	O321	O	-0.040002	-0.054232	0.947784
	H322	H	-0.043303	-0.059983	0.953413
	H323	H	-0.043424	-0.048089	0.947885
	O324	O	0.520437	0.573135	0.588863
	H325	H	0.515198	0.575656	0.589243
	H326	H	0.522783	0.572609	0.582128
	O327	O	0.087359	0.043855	0.012070
	H328	H	0.091760	0.046672	0.011408
	H329	H	0.084112	0.048535	0.007053
	O330	O	0.459913	0.605071	0.416374
	H331	H	0.469472	0.600952	0.413264
	H332	H	0.443360	0.603937	0.413864
	O333	O	0.553724	0.491522	1.381273
	H334	H	0.553050	0.492367	1.378272
	H335	H	0.559633	0.494643	1.389742
	O336	O	0.428936	-0.588864	0.476422
	H337	H	0.430215	-0.598517	0.469040
	H338	H	0.424045	-0.593411	0.469875
	O339	O	0.518442	0.486201	0.598426
	H340	H	0.506159	0.484172	0.594001
	H341	H	0.516332	0.497120	0.603594
	O342	O	0.955646	1.003431	1.055641
	H343	H	0.954345	0.998141	1.056865
	H344	H	0.956465	1.005987	1.051428
	O345	O	1.399279	1.486611	-0.447517
	H346	H	1.409906	1.487792	-0.451835
	H347	H	1.400179	1.499298	-0.449141
	O348	O	0.468593	0.551645	0.394997
	H349	H	0.457112	0.557856	0.394868
	H350	H	0.477297	0.566598	0.403261
	O351	O	1.086033	0.976875	0.977047
	H352	H	1.080879	0.979908	0.974236
	H353	H	1.092960	0.977586	0.986686
	O354	O	0.452245	0.385042	0.473659
	H355	H	0.448185	0.382367	0.474931
	H356	H	0.450888	0.374800	0.485315
	O357	O	0.888797	-0.002956	0.894820
	H358	H	0.880996	-0.004600	0.902729
	H359	H	0.887925	-0.001797	0.880686
	O360	O	1.054268	0.043454	0.011444
	H361	H	1.052423	0.053505	0.011448
	H362	H	1.056947	0.037259	0.016205
	O363	O	0.397269	0.510830	0.436403
	H364	H	0.406043	0.508466	0.435638
	H365	H	0.407523	0.506700	0.432572
	O366	O	0.862692	1.017946	0.923668
	H367	H	0.854913	1.020489	0.924217
	H368	H	0.855992	1.013717	0.912914
	O369	O	0.480172	0.569327	1.455842
	H370	H	0.476781	0.575222	1.466573
	H371	H	0.493294	0.552626	1.447225
	O372	O	0.019461	-0.040372	0.062147
	H373	H	0.027704	-0.036469	0.058275
	H374	H	0.025872	-0.034389	0.059062
	O375	O	1.573853	0.527826	0.536268
	H376	H	1.571180	0.514391	0.540622
	H377	H	1.560404	0.532409	0.534689
	O378	O	0.545251	0.374223	0.487361
	H379	H	0.548076	0.368971	0.481571
	H380	H	0.538007	0.393755	0.488550
	O381	O	0.610747	0.537072	0.610707
	H382	H	0.625967	0.543381	0.614196
	H383	H	0.617800	0.545239	0.597771
