data_Molecule from HDF5

_cell_length_a		16.273554
_cell_length_b		16.241714
_cell_length_c		16.191860
_cell_angle_alpha	89.835487
_cell_angle_beta	90.256508
_cell_angle_gamma	89.886083
_symmetry_space_group_name_H-M	'P 1'
_symmetry_Int_Tables_number		1

loop_
	_symmetry_equiv_pos_as_xyz
	x,y,z

loop_
	_atom_site_label
	_atom_site_type_symbol
	_atom_site_fract_x
	_atom_site_fract_y
	_atom_site_fract_z
	H0	H	0.400477	0.839084	0.711886
	H1	H	0.593326	0.168723	0.711571
	H2	H	0.592975	0.838563	0.286857
	H3	H	0.398283	0.167759	0.283288
	H4	H	0.710599	0.406282	0.833525
	H5	H	0.713694	0.603605	0.162095
	H6	H	0.284104	0.603195	0.834216
	H7	H	0.286362	0.404558	0.162801
	H8	H	0.833350	0.717228	0.400105
	H9	H	0.160255	0.717733	0.599116
	H10	H	0.832724	0.289959	0.596861
	H11	H	0.160642	0.287926	0.400607
	H12	H	0.833371	0.405186	0.712230
	H13	H	0.161304	0.600262	0.711600
	H14	H	0.834217	0.602110	0.282030
	H15	H	0.162528	0.405155	0.286858
	H16	H	0.398054	0.717885	0.834578
	H17	H	0.596277	0.716631	0.163107
	H18	H	0.596200	0.290883	0.833205
	H19	H	0.402473	0.290294	0.162612
	H20	H	0.710879	0.839526	0.400743
	H21	H	0.711149	0.168218	0.598117
	H22	H	0.282972	0.839468	0.596980
	H23	H	0.281782	0.167786	0.398452
	H24	H	0.902856	0.338126	0.211209
	H25	H	0.096359	0.667743	0.212288
	H26	H	0.094518	0.338733	0.786594
	H27	H	0.899370	0.668054	0.784563
	H28	H	0.208789	0.905149	0.334026
	H29	H	0.211256	0.102039	0.662027
	H30	H	0.781806	0.102795	0.333892
	H31	H	0.783675	0.905309	0.663114
	H32	H	0.333968	0.219598	0.898393
	H33	H	0.661259	0.216827	0.097109
	H34	H	0.333674	0.788633	0.096869
	H35	H	0.660153	0.789376	0.900583
	H36	H	0.332150	0.906064	0.210475
	H37	H	0.660356	0.101209	0.213726
	H38	H	0.332970	0.102972	0.784026
	H39	H	0.660847	0.906054	0.786078
	H40	H	0.896709	0.218444	0.334297
	H41	H	0.094542	0.215842	0.662769
	H42	H	0.093584	0.790128	0.334449
	H43	H	0.899450	0.790539	0.664087
	H44	H	0.212034	0.339706	0.901409
	H45	H	0.213329	0.667610	0.096980
	H46	H	0.784347	0.339441	0.097885
	H47	H	0.783518	0.667643	0.898991
	H48	H	0.404131	0.117130	0.582352
	H49	H	0.583387	0.889057	0.592409
	H50	H	0.588485	0.120574	0.403104
	H51	H	0.397230	0.885710	0.407118
	H52	H	0.593218	0.396539	0.119871
	H53	H	0.588483	0.599379	0.880734
	H54	H	0.404036	0.596745	0.117319
	H55	H	0.404882	0.415674	0.881925
	H56	H	0.114860	0.602971	0.410227
	H57	H	0.878544	0.597105	0.595663
	H58	H	0.115063	0.404994	0.593102
	H59	H	0.881792	0.411803	0.406012
	H60	H	0.112201	0.410870	0.588498
	H61	H	0.879121	0.600683	0.589560
	H62	H	0.112029	0.591296	0.409627
	H63	H	0.881368	0.412574	0.403973
	H64	H	0.405508	0.594491	0.115906
	H65	H	0.593164	0.597666	0.879737
	H66	H	0.602108	0.419064	0.116523
	H67	H	0.408106	0.407967	0.879802
	H68	H	0.586596	0.119328	0.406952
	H69	H	0.593405	0.889048	0.585434
	H70	H	0.394735	0.123668	0.591803
	H71	H	0.401885	0.884245	0.399454
	H72	H	0.901842	0.624268	0.099440
	H73	H	0.095000	0.385205	0.094611
	H74	H	0.083683	0.618718	0.904865
	H75	H	0.903440	0.385274	0.901850
	H76	H	0.094557	0.913939	0.617337
	H77	H	0.082031	0.094323	0.382980
	H78	H	0.905894	0.099779	0.616331
	H79	H	0.896337	0.901604	0.376904
	H80	H	0.613279	0.097632	0.911008
	H81	H	0.377787	0.099725	0.095747
	H82	H	0.614265	0.913423	0.097581
	H83	H	0.380137	0.906995	0.912268
	H84	H	0.615921	0.903695	0.094865
	H85	H	0.379426	0.101336	0.085663
	H86	H	0.613050	0.091346	0.902321
	H87	H	0.382105	0.918666	0.904400
	H88	H	0.898939	0.098663	0.617747
	H89	H	0.089169	0.103063	0.378277
	H90	H	0.085762	0.911681	0.614931
	H91	H	0.898314	0.921417	0.382433
	H92	H	0.095425	0.620376	0.911724
	H93	H	0.091353	0.387040	0.093427
	H94	H	0.915451	0.616140	0.089719
	H95	H	0.907124	0.387624	0.906072
	H96	H	0.408770	0.121118	0.596417
	H97	H	0.594003	0.884519	0.597178
	H98	H	0.591103	0.120761	0.407175
	H99	H	0.406406	0.888068	0.406972
	H100	H	0.579092	0.415646	0.110542
	H101	H	0.589712	0.593934	0.881846
	H102	H	0.406531	0.597125	0.116132
	H103	H	0.400255	0.409747	0.878619
	H104	H	0.116289	0.596811	0.399770
	H105	H	0.881593	0.593210	0.589062
	H106	H	0.114537	0.411837	0.594856
	H107	H	0.879725	0.410686	0.404564
	H108	H	0.899106	0.619632	0.082006
	H109	H	0.094138	0.386216	0.090204
	H110	H	0.094350	0.623880	0.897457
	H111	H	0.901260	0.385444	0.907625
	H112	H	0.091993	0.905401	0.618064
	H113	H	0.093593	0.091841	0.380008
	H114	H	0.902883	0.092468	0.615370
	H115	H	0.913947	0.908254	0.383765
	H116	H	0.616576	0.101115	0.902263
	H117	H	0.381677	0.092030	0.089652
	H118	H	0.612516	0.910125	0.087503
	H119	H	0.376753	0.906836	0.898822
	C120	C	0.375027	0.012014	0.619256
	C121	C	0.618391	0.995811	0.620342
	C122	C	0.617236	0.011715	0.377181
	C123	C	0.373670	0.994861	0.376083
	C124	C	0.619362	0.382103	0.006604
	C125	C	0.619185	0.625149	0.989529
	C126	C	0.376417	0.625148	0.007496
	C127	C	0.376765	0.382259	0.989251
	C128	C	0.006171	0.625395	0.377025
	C129	C	0.988182	0.624971	0.620071
	C130	C	0.005750	0.381052	0.620385
	C131	C	0.989337	0.382250	0.377086
	C132	C	0.877266	0.511663	0.119453
	C133	C	0.121483	0.494693	0.120841
	C134	C	0.119306	0.512340	0.877132
	C135	C	0.875548	0.494952	0.876509
	C136	C	0.117955	0.882121	0.507618
	C137	C	0.117046	0.124666	0.489338
	C138	C	0.874108	0.125563	0.507159
	C139	C	0.875006	0.882113	0.490223
	C140	C	0.505867	0.125901	0.876194
	C141	C	0.488603	0.125250	0.119216
	C142	C	0.505577	0.881257	0.120866
	C143	C	0.487816	0.882194	0.877145
	C144	C	0.379227	0.888226	0.674203
	C145	C	0.615100	0.119461	0.674906
	C146	C	0.613964	0.887819	0.323624
	C147	C	0.377197	0.118655	0.321168
	C148	C	0.673402	0.385538	0.882517
	C149	C	0.674603	0.622879	0.113549
	C150	C	0.321223	0.623443	0.883686
	C151	C	0.323321	0.384590	0.113450
	C152	C	0.882565	0.679837	0.379269
	C153	C	0.111645	0.679690	0.618508
	C154	C	0.881984	0.327177	0.617406
	C155	C	0.112135	0.325780	0.380116
	C156	C	0.882442	0.384268	0.675053
	C157	C	0.112152	0.621207	0.674508
	C158	C	0.882913	0.622734	0.320619
	C159	C	0.113052	0.384080	0.323503
	C160	C	0.378013	0.680516	0.883821
	C161	C	0.616569	0.679346	0.113606
	C162	C	0.616462	0.328141	0.882529
	C163	C	0.380855	0.327520	0.113357
	C164	C	0.672798	0.888479	0.380182
	C165	C	0.673351	0.119253	0.618001
	C166	C	0.320758	0.888416	0.617278
	C167	C	0.319137	0.118542	0.378123
	C168	C	0.881077	0.387603	0.174306
	C169	C	0.117688	0.618640	0.174969
	C170	C	0.115708	0.388141	0.823448
	C171	C	0.878677	0.618723	0.822183
	C172	C	0.171578	0.884556	0.383172
	C173	C	0.172991	0.121948	0.613089
	C174	C	0.819290	0.123262	0.383167
	C175	C	0.821431	0.885122	0.614320
	C176	C	0.382815	0.181656	0.878308
	C177	C	0.611964	0.179381	0.117396
	C178	C	0.382261	0.826629	0.117188
	C179	C	0.611250	0.827128	0.879919
	C180	C	0.381395	0.885169	0.173357
	C181	C	0.611729	0.121866	0.175331
	C182	C	0.382169	0.123687	0.821514
	C183	C	0.611670	0.885364	0.823145
	C184	C	0.876293	0.180665	0.383450
	C185	C	0.114772	0.178152	0.613706
	C186	C	0.114609	0.827159	0.383596
	C187	C	0.878551	0.827565	0.614547
	C188	C	0.174059	0.388565	0.880567
	C189	C	0.175509	0.618670	0.117671
	C190	C	0.821964	0.388331	0.118103
	C191	C	0.820979	0.618598	0.879187
	C192	C	0.396351	0.098403	0.596837
	C193	C	0.596856	0.909667	0.598179
	C194	C	0.595126	0.098014	0.399166
	C195	C	0.395419	0.908262	0.398038
	C196	C	0.597838	0.404002	0.093282
	C197	C	0.597025	0.603481	0.903257
	C198	C	0.398714	0.602672	0.094221
	C199	C	0.398020	0.404440	0.902515
	C200	C	0.092028	0.603286	0.399640
	C201	C	0.902073	0.603359	0.598078
	C202	C	0.091694	0.402708	0.598415
	C203	C	0.903240	0.405084	0.398535
	C204	C	0.899077	0.597748	0.096909
	C205	C	0.100057	0.408312	0.099176
	C206	C	0.097609	0.598863	0.898441
	C207	C	0.897392	0.408432	0.898730
	C208	C	0.096924	0.903747	0.594216
	C209	C	0.094735	0.102942	0.402857
	C210	C	0.896030	0.103582	0.594025
	C211	C	0.896378	0.903977	0.403414
	C212	C	0.592060	0.103322	0.898662
	C213	C	0.401912	0.103835	0.096838
	C214	C	0.591860	0.902656	0.099640
	C215	C	0.401862	0.904225	0.898707
	Zn216	Zn	0.496830	0.004392	0.748536
	Zn217	Zn	0.495743	0.003286	0.248138
	Zn218	Zn	0.747419	0.503613	-0.001585
	Zn219	Zn	0.248937	0.504095	-0.001829
	Zn220	Zn	-0.002837	0.754159	0.499421
	Zn221	Zn	-0.003404	0.252995	0.498593
	Zn222	Zn	-0.002472	0.503410	0.748460
	Zn223	Zn	-0.001206	0.503268	0.248035
	Zn224	Zn	0.496860	0.753390	-0.001200
	Zn225	Zn	0.498074	0.254154	-0.002493
	Zn226	Zn	0.746983	0.003838	0.498635
	Zn227	Zn	0.245793	0.003648	0.497963
	N228	N	0.412207	0.966229	0.675705
	N229	N	0.581493	0.041820	0.676355
	N230	N	0.580330	0.965550	0.321450
	N231	N	0.410285	0.040655	0.319709
	N232	N	0.675459	0.418508	0.960804
	N233	N	0.676512	0.589936	0.035468
	N234	N	0.320268	0.589625	0.961479
	N235	N	0.320779	0.417979	0.035148
	N236	N	0.960074	0.681782	0.413379
	N237	N	0.033608	0.682306	0.585528
	N238	N	0.959632	0.324970	0.584260
	N239	N	0.034076	0.324541	0.412619
	N240	N	0.960274	0.417261	0.676995
	N241	N	0.034489	0.587889	0.675577
	N242	N	0.960840	0.589681	0.319012
	N243	N	0.035763	0.418557	0.321490
	N244	N	0.411812	0.681614	0.962005
	N245	N	0.582714	0.680971	0.035598
	N246	N	0.583623	0.326000	0.960657
	N247	N	0.413422	0.326116	0.035174
	N248	N	0.674885	0.966525	0.412946
	N249	N	0.675482	0.041295	0.584828
	N250	N	0.318149	0.966365	0.583759
	N251	N	0.316915	0.040500	0.411424
	N252	N	0.914607	0.465320	0.175203
	N253	N	0.084686	0.540701	0.176838
	N254	N	0.082490	0.466158	0.821096
	N255	N	0.911969	0.540925	0.820328
	N256	N	0.173813	0.917970	0.461078
	N257	N	0.174392	0.089329	0.534662
	N258	N	0.817760	0.089783	0.461192
	N259	N	0.818919	0.918084	0.535964
	N260	N	0.460816	0.182960	0.911540
	N261	N	0.534366	0.181448	0.083407
	N262	N	0.460492	0.824117	0.085314
	N263	N	0.533537	0.825003	0.912664
	N264	N	0.459141	0.918240	0.175810
	N265	N	0.533745	0.089043	0.176585
	N266	N	0.459675	0.089758	0.820088
	N267	N	0.533976	0.919138	0.821313
	N268	N	0.909539	0.182322	0.461731
	N269	N	0.080713	0.179943	0.535924
	N270	N	0.081987	0.825667	0.461876
	N271	N	0.911329	0.825780	0.536326
	N272	N	0.176297	0.466657	0.913113
	N273	N	0.178174	0.540684	0.084888
	N274	N	0.819428	0.466404	0.084909
	N275	N	0.819201	0.540424	0.912525
	O276	O	0.560812	0.539793	0.482134
	H277	H	0.566869	0.534910	0.476306
	H278	H	0.568055	0.539962	0.483714
	O279	O	-0.346530	-0.374118	0.355054
	H280	H	-0.345584	-0.373380	0.353726
	H281	H	-0.342222	-0.384400	0.354420
	O282	O	0.550286	0.510167	0.495846
	H283	H	0.550923	0.500316	0.496664
	H284	H	0.548434	0.510037	0.484409
	O285	O	0.568378	0.568001	0.525576
	H286	H	0.573936	0.567632	0.531043
	H287	H	0.567370	0.568699	0.522588
	O288	O	0.953707	-0.020940	0.017903
	H289	H	0.952437	-0.023799	0.024342
	H290	H	0.953797	-0.016336	0.018135
	O291	O	-0.492757	0.518434	-0.510034
	H292	H	-0.480809	0.508434	-0.504938
	H293	H	-0.495662	0.521868	-0.508373
	O294	O	0.518783	0.459033	0.417262
	H295	H	0.520392	0.465122	0.404590
	H296	H	0.515460	0.466322	0.418512
	O297	O	0.477125	1.521008	0.491515
	H298	H	0.485429	1.533120	0.493655
	H299	H	0.475826	1.516138	0.487337
	O300	O	1.515177	0.462800	0.484153
	H301	H	1.508004	0.464298	0.478047
	H302	H	1.506761	0.459714	0.488954
	O303	O	0.497270	0.506232	0.452887
	H304	H	0.503289	0.499889	0.451083
	H305	H	0.492198	0.512854	0.460751
	O306	O	0.415603	0.563873	1.468929
	H307	H	0.412278	0.565863	1.480249
	H308	H	0.415390	0.564620	1.476218
	O309	O	0.570042	0.570781	0.511125
	H310	H	0.573465	0.577920	0.508037
	H311	H	0.566002	0.571692	0.512840
