data_Molecule from HDF5

_cell_length_a		16.150110
_cell_length_b		16.289372
_cell_length_c		16.247844
_cell_angle_alpha	89.997525
_cell_angle_beta	90.164501
_cell_angle_gamma	90.006424
_symmetry_space_group_name_H-M	'P 1'
_symmetry_Int_Tables_number		1

loop_
	_symmetry_equiv_pos_as_xyz
	x,y,z

loop_
	_atom_site_label
	_atom_site_type_symbol
	_atom_site_fract_x
	_atom_site_fract_y
	_atom_site_fract_z
	H0	H	0.398629	0.838924	0.710863
	H1	H	0.596253	0.166172	0.712449
	H2	H	0.594524	0.838605	0.283145
	H3	H	0.396417	0.166159	0.280589
	H4	H	0.708494	0.405525	0.832396
	H5	H	0.710583	0.598983	0.161744
	H6	H	0.283203	0.599938	0.833005
	H7	H	0.285776	0.406040	0.162447
	H8	H	0.832512	0.716260	0.397700
	H9	H	0.160781	0.716903	0.596942
	H10	H	0.831434	0.289621	0.596104
	H11	H	0.160428	0.288005	0.398202
	H12	H	0.831247	0.405670	0.708925
	H13	H	0.161406	0.600783	0.709976
	H14	H	0.832312	0.600528	0.283619
	H15	H	0.161420	0.404330	0.284296
	H16	H	0.396903	0.716749	0.833528
	H17	H	0.596692	0.716892	0.161531
	H18	H	0.596771	0.286854	0.834522
	H19	H	0.397660	0.286294	0.161288
	H20	H	0.710167	0.838431	0.399702
	H21	H	0.710011	0.167139	0.594552
	H22	H	0.283308	0.838254	0.593673
	H23	H	0.282648	0.166640	0.398762
	H24	H	0.898780	0.338591	0.211575
	H25	H	0.095870	0.666294	0.212270
	H26	H	0.095956	0.339257	0.782233
	H27	H	0.897809	0.666672	0.782492
	H28	H	0.208890	0.906009	0.332219
	H29	H	0.212050	0.100807	0.660894
	H30	H	0.783247	0.099578	0.332535
	H31	H	0.784916	0.906389	0.662127
	H32	H	0.332088	0.216216	0.898037
	H33	H	0.661520	0.214907	0.096123
	H34	H	0.332067	0.789546	0.095081
	H35	H	0.661272	0.789046	0.899346
	H36	H	0.331867	0.904088	0.209217
	H37	H	0.660556	0.100518	0.211018
	H38	H	0.331776	0.100569	0.783622
	H39	H	0.661458	0.904619	0.784505
	H40	H	0.895525	0.218060	0.333942
	H41	H	0.097128	0.217375	0.660888
	H42	H	0.095156	0.788090	0.333091
	H43	H	0.898109	0.787710	0.660774
	H44	H	0.209168	0.338099	0.901184
	H45	H	0.210278	0.666591	0.094158
	H46	H	0.784583	0.337962	0.093647
	H47	H	0.782161	0.666208	0.899250
	H48	H	0.394812	0.121246	0.588443
	H49	H	0.588427	0.886798	0.588678
	H50	H	0.591802	0.119125	0.407537
	H51	H	0.403487	0.887468	0.407782
	H52	H	0.587100	0.416333	0.111484
	H53	H	0.601417	0.593552	0.876960
	H54	H	0.397344	0.597380	0.116729
	H55	H	0.402164	0.418882	0.883004
	H56	H	0.118521	0.599674	0.398838
	H57	H	0.878440	0.586830	0.595362
	H58	H	0.116490	0.412590	0.599106
	H59	H	0.878512	0.407276	0.407604
	H60	H	0.116102	0.399398	0.588809
	H61	H	0.874645	0.604175	0.592917
	H62	H	0.114193	0.598582	0.412452
	H63	H	0.879360	0.414863	0.403406
	H64	H	0.407780	0.590325	0.112561
	H65	H	0.581153	0.587392	0.885088
	H66	H	0.584977	0.401372	0.114676
	H67	H	0.413911	0.403881	0.881988
	H68	H	0.592185	0.121079	0.398539
	H69	H	0.593559	0.884939	0.589744
	H70	H	0.407721	0.120300	0.598566
	H71	H	0.399373	0.884770	0.401367
	H72	H	0.906320	0.619673	0.092746
	H73	H	0.087639	0.387946	0.087453
	H74	H	0.095000	0.618437	0.910324
	H75	H	0.906910	0.390147	0.913472
	H76	H	0.091387	0.913222	0.613058
	H77	H	0.085149	0.099958	0.380443
	H78	H	0.906654	0.091028	0.611831
	H79	H	0.896506	0.906969	0.377947
	H80	H	0.612495	0.095652	0.914185
	H81	H	0.377695	0.094795	0.092263
	H82	H	0.611645	0.918081	0.086856
	H83	H	0.378708	0.906926	0.908453
	H84	H	0.617406	0.908343	0.099517
	H85	H	0.377518	0.098526	0.086734
	H86	H	0.613255	0.086347	0.899990
	H87	H	0.380112	0.915467	0.902403
	H88	H	0.907793	0.104214	0.615228
	H89	H	0.092567	0.096832	0.378555
	H90	H	0.085280	0.909014	0.613179
	H91	H	0.904284	0.915137	0.382374
	H92	H	0.093578	0.622633	0.895224
	H93	H	0.096320	0.383333	0.091668
	H94	H	0.904397	0.617638	0.088090
	H95	H	0.891488	0.381416	0.900819
	H96	H	0.409538	0.115905	0.582958
	H97	H	0.589404	0.885379	0.593971
	H98	H	0.583949	0.118020	0.402682
	H99	H	0.407331	0.886646	0.400928
	H100	H	0.598145	0.407764	0.117210
	H101	H	0.585125	0.609240	0.878001
	H102	H	0.409021	0.603118	0.114648
	H103	H	0.395316	0.402327	0.877078
	H104	H	0.113077	0.587678	0.403134
	H105	H	0.881773	0.594976	0.579467
	H106	H	0.110930	0.414651	0.582940
	H107	H	0.876505	0.407428	0.400283
	H108	H	0.900907	0.620451	0.091672
	H109	H	0.087836	0.385755	0.097769
	H110	H	0.081517	0.617267	0.903391
	H111	H	0.910513	0.385012	0.892306
	H112	H	0.090977	0.906083	0.615263
	H113	H	0.087896	0.092152	0.381109
	H114	H	0.896067	0.097590	0.617690
	H115	H	0.907864	0.904344	0.379846
	H116	H	0.619044	0.103107	0.899220
	H117	H	0.379877	0.092593	0.085967
	H118	H	0.615154	0.901852	0.084397
	H119	H	0.376064	0.906367	0.898980
	C120	C	0.375391	0.011181	0.618265
	C121	C	0.618602	0.994228	0.619031
	C122	C	0.617957	0.011126	0.374737
	C123	C	0.374323	0.994145	0.374374
	C124	C	0.618431	0.380375	0.006021
	C125	C	0.618246	0.624694	0.988813
	C126	C	0.375487	0.624654	0.006033
	C127	C	0.375576	0.379918	0.989302
	C128	C	0.005989	0.623581	0.376031
	C129	C	0.987593	0.623798	0.618023
	C130	C	0.005245	0.380851	0.618558
	C131	C	0.987724	0.381622	0.376116
	C132	C	0.875475	0.510811	0.118981
	C133	C	0.118749	0.493749	0.120039
	C134	C	0.118602	0.511215	0.875122
	C135	C	0.874693	0.494188	0.874722
	C136	C	0.117736	0.881248	0.505316
	C137	C	0.118055	0.124595	0.488272
	C138	C	0.874773	0.124924	0.505980
	C139	C	0.874819	0.880473	0.488670
	C140	C	0.505749	0.123620	0.875915
	C141	C	0.487365	0.123425	0.117602
	C142	C	0.505488	0.881047	0.118355
	C143	C	0.487484	0.881223	0.875336
	C144	C	0.378031	0.887574	0.673020
	C145	C	0.616371	0.117082	0.674434
	C146	C	0.615165	0.887768	0.320337
	C147	C	0.375943	0.117355	0.318593
	C148	C	0.672004	0.384229	0.882001
	C149	C	0.673334	0.620582	0.112505
	C150	C	0.320365	0.620906	0.882229
	C151	C	0.321943	0.384066	0.113142
	C152	C	0.881540	0.678133	0.378102
	C153	C	0.111646	0.678876	0.616756
	C154	C	0.880908	0.326800	0.615780
	C155	C	0.111715	0.326437	0.378508
	C156	C	0.880789	0.384792	0.671948
	C157	C	0.111971	0.621477	0.672997
	C158	C	0.881289	0.620678	0.321402
	C159	C	0.112076	0.384046	0.321842
	C160	C	0.376827	0.679108	0.882517
	C161	C	0.616554	0.679269	0.112367
	C162	C	0.616524	0.325153	0.883004
	C163	C	0.378135	0.324840	0.112604
	C164	C	0.672503	0.887667	0.378618
	C165	C	0.672558	0.117872	0.615469
	C166	C	0.321274	0.887257	0.614415
	C167	C	0.319332	0.117532	0.377117
	C168	C	0.878276	0.387485	0.173556
	C169	C	0.115930	0.617415	0.174236
	C170	C	0.116119	0.387930	0.820405
	C171	C	0.877426	0.617533	0.820221
	C172	C	0.172066	0.884490	0.381377
	C173	C	0.173850	0.121445	0.612003
	C174	C	0.820502	0.120823	0.381839
	C175	C	0.821478	0.884673	0.612750
	C176	C	0.381448	0.178647	0.877767
	C177	C	0.612045	0.177646	0.116115
	C178	C	0.381290	0.826890	0.115184
	C179	C	0.611906	0.826464	0.878386
	C180	C	0.381200	0.883700	0.172117
	C181	C	0.611702	0.120918	0.173024
	C182	C	0.381301	0.121214	0.820732
	C183	C	0.611890	0.883746	0.821238
	C184	C	0.876296	0.179673	0.382582
	C185	C	0.116657	0.179427	0.611937
	C186	C	0.115604	0.825860	0.381865
	C187	C	0.877678	0.825597	0.611989
	C188	C	0.172362	0.387382	0.879517
	C189	C	0.173190	0.617579	0.116137
	C190	C	0.821462	0.387194	0.114955
	C191	C	0.819973	0.617461	0.878171
	C192	C	0.397467	0.096905	0.596452
	C193	C	0.596923	0.907960	0.597171
	C194	C	0.595921	0.097186	0.396635
	C195	C	0.396878	0.908489	0.396621
	C196	C	0.596513	0.402108	0.092331
	C197	C	0.595795	0.603098	0.902389
	C198	C	0.398098	0.603252	0.092295
	C199	C	0.397534	0.401743	0.902887
	C200	C	0.092873	0.601807	0.398093
	C201	C	0.900847	0.601815	0.595952
	C202	C	0.092164	0.402455	0.596739
	C203	C	0.900644	0.403492	0.397370
	C204	C	0.897360	0.597145	0.097316
	C205	C	0.097048	0.407891	0.098731
	C206	C	0.096676	0.597167	0.896716
	C207	C	0.896597	0.407831	0.895857
	C208	C	0.095828	0.903055	0.591502
	C209	C	0.095251	0.102858	0.402276
	C210	C	0.896932	0.103773	0.592452
	C211	C	0.896509	0.902305	0.402231
	C212	C	0.592504	0.101667	0.898019
	C213	C	0.400860	0.101679	0.095025
	C214	C	0.592498	0.902891	0.096666
	C215	C	0.400696	0.903098	0.896860
	Zn216	Zn	0.496553	0.002486	0.747465
	Zn217	Zn	0.495912	0.002582	0.245467
	Zn218	Zn	0.746554	0.502070	-0.003177
	Zn219	Zn	0.247269	0.502357	-0.002444
	Zn220	Zn	-0.003112	0.751580	0.497042
	Zn221	Zn	-0.003717	0.253350	0.497153
	Zn222	Zn	-0.003170	0.502860	0.745691
	Zn223	Zn	-0.003347	0.502745	0.248196
	Zn224	Zn	0.496558	0.753537	-0.003017
	Zn225	Zn	0.497669	0.251584	-0.002675
	Zn226	Zn	0.747022	0.002806	0.497492
	Zn227	Zn	0.246222	0.002756	0.496646
	N228	N	0.410992	0.965472	0.675552
	N229	N	0.583442	0.039143	0.676547
	N230	N	0.582094	0.965651	0.317743
	N231	N	0.409466	0.039693	0.316662
	N232	N	0.673254	0.418027	0.959647
	N233	N	0.674628	0.587601	0.034639
	N234	N	0.319504	0.587413	0.960034
	N235	N	0.320418	0.417768	0.035593
	N236	N	0.959904	0.679840	0.411544
	N237	N	0.033469	0.680356	0.582963
	N238	N	0.959486	0.324177	0.583207
	N239	N	0.033273	0.324709	0.411449
	N240	N	0.959156	0.417821	0.673580
	N241	N	0.033871	0.587922	0.673771
	N242	N	0.959649	0.587495	0.320073
	N243	N	0.033974	0.417737	0.320467
	N244	N	0.410303	0.681582	0.960347
	N245	N	0.583083	0.681809	0.034327
	N246	N	0.584040	0.322618	0.961008
	N247	N	0.410544	0.322090	0.034324
	N248	N	0.674686	0.965420	0.411617
	N249	N	0.674112	0.040503	0.581586
	N250	N	0.319548	0.964929	0.581010
	N251	N	0.318333	0.040266	0.411136
	N252	N	0.911042	0.465394	0.176192
	N253	N	0.082986	0.539677	0.176870
	N254	N	0.083369	0.465870	0.817496
	N255	N	0.910739	0.539795	0.817852
	N256	N	0.173474	0.918291	0.459040
	N257	N	0.174883	0.088228	0.534172
	N258	N	0.819402	0.087494	0.459657
	N259	N	0.819700	0.918065	0.535034
	N260	N	0.459853	0.180307	0.911359
	N261	N	0.533877	0.179349	0.082280
	N262	N	0.459643	0.825355	0.082227
	N263	N	0.533581	0.824631	0.911301
	N264	N	0.459622	0.916559	0.174376
	N265	N	0.533449	0.087698	0.173902
	N266	N	0.459484	0.087928	0.819355
	N267	N	0.533640	0.917231	0.819450
	N268	N	0.909240	0.182396	0.460791
	N269	N	0.082759	0.181692	0.534013
	N270	N	0.082220	0.824034	0.459648
	N271	N	0.909769	0.822632	0.533650
	N272	N	0.174166	0.465021	0.912779
	N273	N	0.175021	0.539817	0.083079
	N274	N	0.819875	0.464916	0.081674
	N275	N	0.818211	0.539810	0.911455
	O276	O	0.499207	0.462668	0.528537
	H277	H	0.496347	0.461527	0.533781
	H278	H	0.496531	0.468474	0.528240
	O279	O	-0.020336	0.045919	0.073403
	H280	H	-0.019019	0.048980	0.082310
	H281	H	-0.018849	0.044488	0.071647
	O282	O	0.498265	0.478346	0.521584
	H283	H	0.493252	0.474305	0.519301
	H284	H	0.485085	0.474899	0.515596
	O285	O	0.498473	0.508408	0.510664
	H286	H	0.501890	0.511694	0.515132
	H287	H	0.508337	0.503250	0.506312
	O288	O	0.992549	0.044794	0.077264
	H289	H	0.997191	0.051410	0.080626
	H290	H	0.993287	0.043390	0.079109
	O291	O	-0.440103	0.508491	-0.451230
	H292	H	-0.447574	0.510223	-0.449917
	H293	H	-0.433476	0.503026	-0.452140
	O294	O	0.464148	0.478689	0.521016
	H295	H	0.470900	0.486684	0.527101
	H296	H	0.462375	0.478003	0.524508
	O297	O	0.513342	1.537658	0.528179
	H298	H	0.520506	1.531370	0.531579
	H299	H	0.514470	1.523647	0.528430
	O300	O	1.477856	0.478082	0.457522
	H301	H	1.488976	0.484126	0.451500
	H302	H	1.478948	0.482784	0.458314
	O303	O	0.377426	0.475299	0.543778
	H304	H	0.380088	0.475991	0.540182
	H305	H	0.365743	0.475218	0.549420
	O306	O	0.545864	0.514468	1.532617
	H307	H	0.551795	0.515727	1.526762
	H308	H	0.553424	0.517310	1.536023
	O309	O	0.456410	0.453568	0.563738
	H310	H	0.446325	0.462623	0.562379
	H311	H	0.452188	0.450355	0.567254
