data_Molecule from HDF5

_cell_length_a		16.468560
_cell_length_b		16.185304
_cell_length_c		16.472385
_cell_angle_alpha	89.607886
_cell_angle_beta	89.934355
_cell_angle_gamma	89.896184
_symmetry_space_group_name_H-M	'P 1'
_symmetry_Int_Tables_number		1

loop_
	_symmetry_equiv_pos_as_xyz
	x,y,z

loop_
	_atom_site_label
	_atom_site_type_symbol
	_atom_site_fract_x
	_atom_site_fract_y
	_atom_site_fract_z
	H0	H	0.389925	0.833628	0.721021
	H1	H	0.601340	0.155304	0.719644
	H2	H	0.597597	0.832025	0.283371
	H3	H	0.388215	0.154087	0.277043
	H4	H	0.721372	0.388220	0.841199
	H5	H	0.719550	0.600759	0.156881
	H6	H	0.275395	0.604528	0.839161
	H7	H	0.273263	0.386537	0.154703
	H8	H	0.835713	0.712179	0.397487
	H9	H	0.156113	0.712426	0.596108
	H10	H	0.835907	0.278361	0.603612
	H11	H	0.153088	0.271859	0.393808
	H12	H	0.839658	0.389484	0.723044
	H13	H	0.155262	0.602508	0.717674
	H14	H	0.839957	0.606189	0.273204
	H15	H	0.153922	0.387860	0.276000
	H16	H	0.397062	0.715181	0.838588
	H17	H	0.598294	0.710548	0.159412
	H18	H	0.600961	0.275713	0.839217
	H19	H	0.393605	0.274267	0.156925
	H20	H	0.714190	0.833018	0.396725
	H21	H	0.716449	0.155202	0.604531
	H22	H	0.274745	0.832974	0.605644
	H23	H	0.275021	0.155728	0.395835
	H24	H	0.892601	0.336397	0.222109
	H25	H	0.101740	0.658344	0.214534
	H26	H	0.106053	0.335967	0.775830
	H27	H	0.895615	0.657169	0.780636
	H28	H	0.218119	0.887587	0.341353
	H29	H	0.218194	0.101273	0.656808
	H30	H	0.773160	0.102125	0.339864
	H31	H	0.774106	0.888594	0.657878
	H32	H	0.337799	0.216717	0.893911
	H33	H	0.655115	0.211798	0.102718
	H34	H	0.336119	0.773521	0.102213
	H35	H	0.656991	0.780182	0.901595
	H36	H	0.336180	0.886848	0.221744
	H37	H	0.652773	0.098680	0.221538
	H38	H	0.338944	0.106036	0.773956
	H39	H	0.652161	0.886722	0.775633
	H40	H	0.890601	0.218806	0.340238
	H41	H	0.096868	0.214102	0.659390
	H42	H	0.094038	0.781055	0.336954
	H43	H	0.893770	0.774868	0.657751
	H44	H	0.218881	0.335181	0.891763
	H45	H	0.214535	0.657416	0.096536
	H46	H	0.776297	0.335378	0.107943
	H47	H	0.779247	0.656929	0.896547
	H48	H	0.402669	0.110780	0.589713
	H49	H	0.580718	0.878685	0.594826
	H50	H	0.581136	0.107542	0.411546
	H51	H	0.399002	0.877636	0.413405
	H52	H	0.586045	0.402768	0.111778
	H53	H	0.591119	0.592537	0.881341
	H54	H	0.407713	0.581307	0.109959
	H55	H	0.410740	0.406983	0.885560
	H56	H	0.112609	0.591836	0.403960
	H57	H	0.882744	0.585063	0.585912
	H58	H	0.110131	0.406068	0.589847
	H59	H	0.884156	0.413026	0.407690
	H60	H	0.109537	0.405416	0.586534
	H61	H	0.883644	0.579452	0.592648
	H62	H	0.108461	0.584849	0.410955
	H63	H	0.883937	0.409559	0.408407
	H64	H	0.404286	0.584091	0.112607
	H65	H	0.593980	0.579149	0.886632
	H66	H	0.589371	0.404940	0.111909
	H67	H	0.405762	0.405295	0.883286
	H68	H	0.587050	0.111343	0.410278
	H69	H	0.578677	0.884060	0.583278
	H70	H	0.410898	0.107997	0.588005
	H71	H	0.406594	0.877141	0.405924
	H72	H	0.909280	0.610389	0.083853
	H73	H	0.082765	0.378419	0.097619
	H74	H	0.087103	0.609667	0.910090
	H75	H	0.912435	0.381432	0.912179
	H76	H	0.086238	0.900648	0.612996
	H77	H	0.078835	0.085267	0.388290
	H78	H	0.914544	0.079793	0.607082
	H79	H	0.902612	0.911314	0.386009
	H80	H	0.609299	0.083252	0.908159
	H81	H	0.380840	0.084565	0.088600
	H82	H	0.608927	0.902162	0.090868
	H83	H	0.384081	0.914647	0.907729
	H84	H	0.608057	0.906176	0.093607
	H85	H	0.383987	0.081122	0.085748
	H86	H	0.607705	0.080722	0.909165
	H87	H	0.377864	0.900482	0.903893
	H88	H	0.901439	0.096618	0.616046
	H89	H	0.087365	0.083999	0.385501
	H90	H	0.086692	0.908437	0.611149
	H91	H	0.905192	0.901529	0.384455
	H92	H	0.089977	0.612569	0.905052
	H93	H	0.077066	0.386308	0.081383
	H94	H	0.907375	0.610002	0.084539
	H95	H	0.905827	0.379328	0.911933
	H96	H	0.404135	0.108023	0.581657
	H97	H	0.590332	0.878937	0.585983
	H98	H	0.581905	0.111222	0.405504
	H99	H	0.408899	0.881454	0.415544
	H100	H	0.586366	0.407085	0.110775
	H101	H	0.581034	0.584091	0.888114
	H102	H	0.402952	0.579535	0.110542
	H103	H	0.406226	0.410043	0.885820
	H104	H	0.109946	0.582033	0.401101
	H105	H	0.880519	0.587259	0.594065
	H106	H	0.108981	0.408477	0.587724
	H107	H	0.885537	0.411916	0.410881
	H108	H	0.908507	0.610305	0.085693
	H109	H	0.094430	0.379041	0.082508
	H110	H	0.083560	0.610955	0.904961
	H111	H	0.909552	0.378630	0.906717
	H112	H	0.080237	0.904323	0.610241
	H113	H	0.082584	0.077224	0.389353
	H114	H	0.892835	0.075167	0.612762
	H115	H	0.895959	0.904901	0.382533
	H116	H	0.609445	0.080682	0.906867
	H117	H	0.382731	0.079803	0.090712
	H118	H	0.610348	0.902820	0.095723
	H119	H	0.383402	0.903407	0.918112
	C120	C	0.373578	0.002864	0.620004
	C121	C	0.615395	0.986728	0.619666
	C122	C	0.615033	0.003200	0.378749
	C123	C	0.372894	0.985211	0.378744
	C124	C	0.619741	0.372750	0.007123
	C125	C	0.618788	0.616150	0.990492
	C126	C	0.374821	0.615794	0.006025
	C127	C	0.374904	0.373258	0.988851
	C128	C	0.005287	0.618250	0.374640
	C129	C	0.987779	0.616388	0.619945
	C130	C	0.005088	0.374115	0.621308
	C131	C	0.988085	0.376126	0.376795
	C132	C	0.876315	0.504541	0.119222
	C133	C	0.117331	0.487619	0.117967
	C134	C	0.119519	0.504806	0.875166
	C135	C	0.877622	0.486687	0.878649
	C136	C	0.115995	0.873298	0.506883
	C137	C	0.114856	0.115167	0.491890
	C138	C	0.871720	0.117157	0.507053
	C139	C	0.872062	0.873612	0.489971
	C140	C	0.504260	0.115818	0.876031
	C141	C	0.487176	0.114207	0.120500
	C142	C	0.503749	0.871612	0.123250
	C143	C	0.486894	0.874295	0.878613
	C144	C	0.371374	0.881984	0.681173
	C145	C	0.618624	0.107346	0.679474
	C146	C	0.616449	0.880814	0.321735
	C147	C	0.370144	0.106088	0.317478
	C148	C	0.680597	0.369995	0.888406
	C149	C	0.678720	0.618242	0.109709
	C150	C	0.315854	0.620768	0.886747
	C151	C	0.314271	0.369557	0.107679
	C152	C	0.884561	0.675326	0.376097
	C153	C	0.108204	0.674372	0.617333
	C154	C	0.884508	0.316657	0.622585
	C155	C	0.106049	0.312843	0.375272
	C156	C	0.886478	0.371749	0.682342
	C157	C	0.107808	0.619360	0.677761
	C158	C	0.886630	0.622113	0.314556
	C159	C	0.106732	0.370859	0.316691
	C160	C	0.376239	0.676186	0.886434
	C161	C	0.618208	0.673077	0.110939
	C162	C	0.620557	0.314025	0.887383
	C163	C	0.374040	0.313179	0.108620
	C164	C	0.674589	0.881488	0.377968
	C165	C	0.676162	0.107230	0.622294
	C166	C	0.313918	0.881773	0.623862
	C167	C	0.314178	0.107095	0.376584
	C168	C	0.874129	0.384180	0.181584
	C169	C	0.119655	0.609679	0.175321
	C170	C	0.123253	0.384037	0.815617
	C171	C	0.876853	0.608726	0.820176
	C172	C	0.176831	0.870803	0.388089
	C173	C	0.176437	0.118383	0.610347
	C174	C	0.812526	0.120660	0.387771
	C175	C	0.814326	0.871245	0.610147
	C176	C	0.385500	0.176929	0.875077
	C177	C	0.606821	0.173013	0.121712
	C178	C	0.383775	0.812819	0.122118
	C179	C	0.608206	0.817371	0.880116
	C180	C	0.383882	0.868804	0.181968
	C181	C	0.605757	0.116569	0.180984
	C182	C	0.385975	0.121486	0.815307
	C183	C	0.605877	0.870821	0.817970
	C184	C	0.871343	0.178287	0.387724
	C185	C	0.116275	0.174793	0.611382
	C186	C	0.115343	0.817400	0.385848
	C187	C	0.873713	0.814490	0.610113
	C188	C	0.179854	0.383794	0.873136
	C189	C	0.175900	0.609337	0.116837
	C190	C	0.816522	0.383511	0.124495
	C191	C	0.818681	0.608402	0.877453
	C192	C	0.398766	0.087057	0.593994
	C193	C	0.590270	0.902511	0.595116
	C194	C	0.590449	0.087855	0.402277
	C195	C	0.397639	0.900830	0.404148
	C196	C	0.594614	0.397654	0.089789
	C197	C	0.595327	0.592188	0.907206
	C198	C	0.398129	0.589277	0.089362
	C199	C	0.400145	0.399736	0.906263
	C200	C	0.088772	0.593451	0.398449
	C201	C	0.904021	0.591333	0.597411
	C202	C	0.087922	0.399370	0.595486
	C203	C	0.905915	0.403556	0.401750
	C204	C	0.901320	0.588568	0.092540
	C205	C	0.092042	0.403219	0.094107
	C206	C	0.094262	0.589072	0.899608
	C207	C	0.902385	0.401914	0.903339
	C208	C	0.091555	0.897370	0.589890
	C209	C	0.089950	0.089423	0.409238
	C210	C	0.895702	0.091364	0.590448
	C211	C	0.894848	0.898683	0.406024
	C212	C	0.587277	0.089137	0.900791
	C213	C	0.404157	0.089036	0.095564
	C214	C	0.587179	0.896481	0.100173
	C215	C	0.403516	0.899146	0.902698
	Zn216	Zn	0.494724	-0.005601	0.747951
	Zn217	Zn	0.494257	-0.006719	0.251314
	Zn218	Zn	0.748153	0.494897	-0.001056
	Zn219	Zn	0.245387	0.494981	-0.002807
	Zn220	Zn	-0.004840	0.744636	0.497698
	Zn221	Zn	-0.005512	0.246348	0.499629
	Zn222	Zn	-0.002187	0.495128	0.749184
	Zn223	Zn	-0.002428	0.497524	0.246565
	Zn224	Zn	0.496480	0.744634	-0.000503
	Zn225	Zn	0.497178	0.243808	-0.001613
	Zn226	Zn	0.742729	-0.004990	0.499012
	Zn227	Zn	0.245143	-0.005981	0.499372
	N228	N	0.407699	0.958360	0.679008
	N229	N	0.581304	0.031445	0.677869
	N230	N	0.580345	0.957506	0.321729
	N231	N	0.405963	0.029355	0.318780
	N232	N	0.680410	0.405412	0.963986
	N233	N	0.679238	0.583359	0.033909
	N234	N	0.314783	0.583881	0.962216
	N235	N	0.314388	0.405851	0.032034
	N236	N	0.959251	0.672896	0.412823
	N237	N	0.032620	0.672701	0.582034
	N238	N	0.959203	0.317935	0.585265
	N239	N	0.031125	0.315920	0.411908
	N240	N	0.962707	0.406366	0.681858
	N241	N	0.032035	0.583938	0.679425
	N242	N	0.962969	0.587586	0.313321
	N243	N	0.032499	0.409410	0.317451
	N244	N	0.412122	0.673075	0.961553
	N245	N	0.581680	0.672087	0.036026
	N246	N	0.583408	0.315536	0.962126
	N247	N	0.410877	0.315249	0.033795
	N248	N	0.674154	0.958700	0.412264
	N249	N	0.674194	0.031189	0.585755
	N250	N	0.315107	0.957986	0.586542
	N251	N	0.315565	0.030940	0.413714
	N252	N	0.910446	0.460611	0.178636
	N253	N	0.084101	0.532831	0.176273
	N254	N	0.086409	0.460172	0.816679
	N255	N	0.912908	0.531998	0.820914
	N256	N	0.177461	0.904670	0.464339
	N257	N	0.175743	0.082254	0.535019
	N258	N	0.812663	0.083493	0.463054
	N259	N	0.812951	0.906983	0.534198
	N260	N	0.460255	0.173713	0.912066
	N261	N	0.532010	0.171700	0.084918
	N262	N	0.459255	0.814221	0.086600
	N263	N	0.533343	0.819640	0.917342
	N264	N	0.459529	0.904346	0.182934
	N265	N	0.530171	0.080665	0.180566
	N266	N	0.461086	0.084293	0.815801
	N267	N	0.529541	0.905397	0.816914
	N268	N	0.907235	0.176342	0.463008
	N269	N	0.078500	0.172751	0.536945
	N270	N	0.077989	0.818762	0.460411
	N271	N	0.908701	0.815590	0.534316
	N272	N	0.177581	0.459949	0.909453
	N273	N	0.174713	0.532481	0.082078
	N274	N	0.817824	0.459252	0.086448
	N275	N	0.819346	0.531528	0.913311
	O276	O	0.514038	0.311094	0.314180
	H277	H	0.504869	0.298547	0.307937
	H278	H	0.501584	0.306035	0.330720
	O279	O	0.701174	0.281712	0.453499
	H280	H	0.707373	0.270698	0.417502
	H281	H	0.705702	0.265063	0.436895
	O282	O	0.309918	0.521905	0.632265
	H283	H	0.309442	0.522438	0.619934
	H284	H	0.324499	0.537326	0.631463
	O285	O	0.807479	0.823336	0.006328
	H286	H	0.805134	0.827333	-0.002768
	H287	H	0.803846	0.827604	-0.008022
	O288	O	0.652558	0.686818	0.688784
	H289	H	0.655563	0.660087	0.702830
	H290	H	0.630132	0.689505	0.675034
	O291	O	0.442436	0.488773	0.496245
	H292	H	0.440190	0.489751	0.489057
	H293	H	0.431593	0.488606	0.487140
	O294	O	0.989811	0.798450	1.100899
	H295	H	0.974770	0.783579	1.108475
	H296	H	0.966621	0.803505	1.104877
	O297	O	0.290384	0.383303	0.605003
	H298	H	0.291536	0.399669	0.614412
	H299	H	0.259463	0.387699	0.622345
	O300	O	0.656512	0.590403	0.365426
	H301	H	0.659274	0.596909	0.381970
	H302	H	0.647081	0.594047	0.381918
	O303	O	0.297301	0.441349	0.506022
	H304	H	0.294519	0.467871	0.486094
	H305	H	0.298293	0.444214	0.513096
	O306	O	-0.011369	0.169934	1.034965
	H307	H	-0.003914	0.161474	1.039650
	H308	H	0.000248	0.165906	1.025476
	O309	O	1.043055	-0.119249	-0.000200
	H310	H	1.037144	-0.127592	0.007633
	H311	H	1.036003	-0.129354	0.018940
	O312	O	0.493611	0.635858	0.416400
	H313	H	0.485727	0.640630	0.400605
	H314	H	0.480815	0.625568	0.407529
	O315	O	0.559050	0.337534	0.502716
	H316	H	0.543642	0.325136	0.520930
	H317	H	0.572507	0.334621	0.506536
	O318	O	0.141181	0.027923	0.029134
	H319	H	0.156894	0.039622	0.027414
	H320	H	0.132147	0.008039	0.025363
	O321	O	0.658144	0.305316	0.319444
	H322	H	0.647233	0.337244	0.306780
	H323	H	0.638003	0.314693	0.311385
	O324	O	0.812095	0.165248	0.817256
	H325	H	0.846350	0.175419	0.805444
	H326	H	0.815304	0.140758	0.831292
	O327	O	0.694284	0.540878	0.702811
	H328	H	0.700044	0.530156	0.692303
	H329	H	0.677591	0.528819	0.719678
	O330	O	-0.058893	0.915326	0.827191
	H331	H	-0.056217	0.942584	0.820702
	H332	H	-0.068841	0.894845	0.810935
	O333	O	0.110213	0.857019	0.022888
	H334	H	0.081263	0.851846	0.028117
	H335	H	0.110727	0.868909	0.041587
	O336	O	1.165893	0.999485	0.026502
	H337	H	1.173256	0.996948	0.024001
	H338	H	1.172263	1.007184	0.032847
	O339	O	-0.116370	0.874002	1.200007
	H340	H	-0.123505	0.869958	1.222582
	H341	H	-0.136314	0.891505	1.195001
	O342	O	0.314536	0.688368	0.452966
	H343	H	0.319869	0.692678	0.451152
	H344	H	0.307793	0.688137	0.448561
	O345	O	-0.014076	0.180371	0.799583
	H346	H	0.005768	0.183144	0.817138
	H347	H	-0.014750	0.199732	0.781836
	O348	O	0.314483	0.319677	0.668149
	H349	H	0.318861	0.328195	0.650452
	H350	H	0.310491	0.351363	0.680934
	O351	O	0.840028	1.006235	0.077665
	H352	H	0.844439	1.014628	0.059279
	H353	H	0.841053	0.998857	0.083144
	O354	O	1.088304	0.892153	0.924612
	H355	H	1.067901	0.882597	0.926431
	H356	H	1.091117	0.885959	0.929061
	O357	O	-0.119119	0.134111	0.086602
	H358	H	-0.105294	0.129527	0.081742
	H359	H	-0.109027	0.145000	0.085451
	O360	O	0.470220	0.287988	0.709006
	H361	H	0.469631	0.276406	0.715526
	H362	H	0.453428	0.278573	0.714847
	O363	O	0.905255	0.061702	0.006387
	H364	H	0.907779	0.073657	0.010234
	H365	H	0.916295	0.064436	-0.015327
	O366	O	0.219617	0.326860	1.216639
	H367	H	0.189703	0.317998	1.205991
	H368	H	0.237423	0.350883	1.208798
	O369	O	0.797139	0.000993	0.803674
	H370	H	0.788712	0.005887	0.801208
	H371	H	0.803789	0.007290	0.812617
	O372	O	0.533547	0.389091	0.544180
	H373	H	0.523325	0.374816	0.536868
	H374	H	0.551956	0.391466	0.556181
	O375	O	0.169153	0.043988	0.959091
	H376	H	0.164989	0.018526	0.972396
	H377	H	0.170640	0.025668	0.942666
	O378	O	0.469911	0.532006	0.445293
	H379	H	0.460936	0.512107	0.435724
	H380	H	0.456344	0.522920	0.450175
	O381	O	0.039549	1.165047	0.195749
	H382	H	0.028883	1.151657	0.206957
	H383	H	0.020699	1.168553	0.199341
	O384	O	0.656489	0.708251	0.517229
	H385	H	0.654157	0.705114	0.542394
	H386	H	0.669295	0.731488	0.526668
	O387	O	0.508625	0.665326	0.694225
	H388	H	0.506302	0.675143	0.686210
	H389	H	0.515950	0.659329	0.689535
	O390	O	0.808452	0.808443	0.174112
	H391	H	0.794805	0.824201	0.166458
	H392	H	0.797538	0.826946	0.159776
	O393	O	0.780586	0.208587	0.975481
	H394	H	0.795528	0.205085	0.958404
	H395	H	0.752055	0.238049	0.966539
	O396	O	0.698256	0.516927	0.496163
	H397	H	0.706003	0.490582	0.504825
	H398	H	0.695674	0.524019	0.505368
	O399	O	0.702666	0.464748	0.292655
	H400	H	0.702520	0.479223	0.297815
	H401	H	0.715841	0.480295	0.288054
	O402	O	0.979533	1.002503	0.075214
	H403	H	0.985311	0.994825	0.069612
	H404	H	0.990900	0.983618	0.087253
	O405	O	0.449861	0.509243	0.282193
	H406	H	0.457070	0.499766	0.285852
	H407	H	0.459309	0.487056	0.283646
	O408	O	0.509248	0.477023	0.705711
	H409	H	0.500792	0.479419	0.698071
	H410	H	0.512745	0.463219	0.704181
	O411	O	0.981670	0.929672	0.807599
	H412	H	1.004079	0.930577	0.794573
	H413	H	0.977385	0.939379	0.802585
	O414	O	0.378246	0.501355	0.319445
	H415	H	0.387319	0.480094	0.324214
	H416	H	0.377423	0.500214	0.309406
	O417	O	0.076178	1.090482	0.905248
	H418	H	0.070907	1.097953	0.904405
	H419	H	0.076597	1.093090	0.906984
	O420	O	0.131791	0.852020	0.820388
	H421	H	0.124504	0.829704	0.815329
	H422	H	0.151113	0.845210	0.835669
	O423	O	0.082854	1.012715	0.215396
	H424	H	0.084774	1.008623	0.226711
	H425	H	0.079339	1.019471	0.218336
	O426	O	0.388619	0.532112	0.436122
	H427	H	0.404010	0.541773	0.417614
	H428	H	0.377691	0.537553	0.434055
	O429	O	0.469592	0.661856	0.564856
	H430	H	0.465666	0.653424	0.553975
	H431	H	0.479277	0.668994	0.555293
	O432	O	0.576446	0.395427	0.528505
	H433	H	0.587435	0.388240	0.523498
	H434	H	0.573486	0.389808	0.525483
	O435	O	0.188585	0.129001	0.168211
	H436	H	0.189562	0.151327	0.145590
	H437	H	0.178099	0.130932	0.187193
	O438	O	0.115511	0.888801	0.838710
	H439	H	0.124708	0.891347	0.819906
	H440	H	0.107742	0.888588	0.846250
	O441	O	0.348125	0.603188	0.307103
	H442	H	0.356759	0.589130	0.303997
	H443	H	0.345819	0.609857	0.307763
