data_Molecule from HDF5

_cell_length_a		16.385604
_cell_length_b		16.458211
_cell_length_c		16.582962
_cell_angle_alpha	89.967956
_cell_angle_beta	89.989187
_cell_angle_gamma	89.833075
_symmetry_space_group_name_H-M	'P 1'
_symmetry_Int_Tables_number		1

loop_
	_symmetry_equiv_pos_as_xyz
	x,y,z

loop_
	_atom_site_label
	_atom_site_type_symbol
	_atom_site_fract_x
	_atom_site_fract_y
	_atom_site_fract_z
	H0	H	0.388120	0.846860	0.728879
	H1	H	0.599745	0.162423	0.727516
	H2	H	0.605209	0.848506	0.280342
	H3	H	0.389865	0.162904	0.286356
	H4	H	0.717138	0.400075	0.849725
	H5	H	0.715164	0.608911	0.163596
	H6	H	0.273132	0.610823	0.848453
	H7	H	0.274118	0.402406	0.163327
	H8	H	0.835622	0.728241	0.398832
	H9	H	0.152492	0.724567	0.610019
	H10	H	0.834927	0.285611	0.610703
	H11	H	0.154062	0.287279	0.405673
	H12	H	0.837368	0.397573	0.729395
	H13	H	0.151115	0.612466	0.728194
	H14	H	0.835395	0.612898	0.282462
	H15	H	0.153575	0.402312	0.287935
	H16	H	0.389798	0.727362	0.848917
	H17	H	0.601777	0.728123	0.161945
	H18	H	0.601170	0.283211	0.849124
	H19	H	0.389981	0.284311	0.162431
	H20	H	0.718186	0.847208	0.399670
	H21	H	0.713452	0.163858	0.608782
	H22	H	0.274090	0.845366	0.609662
	H23	H	0.275998	0.163292	0.405071
	H24	H	0.889616	0.347186	0.226395
	H25	H	0.099292	0.661726	0.228480
	H26	H	0.100487	0.349047	0.783980
	H27	H	0.881180	0.660186	0.779163
	H28	H	0.215016	0.899692	0.349008
	H29	H	0.213212	0.107625	0.664162
	H30	H	0.774587	0.107605	0.348934
	H31	H	0.769302	0.896782	0.662553
	H32	H	0.336490	0.227912	0.899229
	H33	H	0.652172	0.224811	0.109461
	H34	H	0.335906	0.786517	0.108531
	H35	H	0.652932	0.781993	0.899642
	H36	H	0.336777	0.899242	0.227207
	H37	H	0.651860	0.110763	0.226950
	H38	H	0.337376	0.113172	0.782105
	H39	H	0.652749	0.897046	0.783281
	H40	H	0.891065	0.224439	0.348470
	H41	H	0.099692	0.226572	0.662586
	H42	H	0.098437	0.783464	0.349241
	H43	H	0.882394	0.777016	0.660683
	H44	H	0.214780	0.347910	0.902258
	H45	H	0.212788	0.663873	0.109316
	H46	H	0.775444	0.346553	0.107903
	H47	H	0.769997	0.662318	0.898994
	H48	H	0.398490	0.121785	0.602981
	H49	H	0.578827	0.892545	0.594720
	H50	H	0.583300	0.115831	0.418417
	H51	H	0.405699	0.889138	0.411521
	H52	H	0.584129	0.417437	0.117734
	H53	H	0.585947	0.595797	0.892207
	H54	H	0.406471	0.593942	0.116698
	H55	H	0.404993	0.411794	0.891904
	H56	H	0.109210	0.600228	0.416796
	H57	H	0.883055	0.591104	0.587526
	H58	H	0.109096	0.412441	0.594747
	H59	H	0.878045	0.412517	0.414315
	H60	H	0.105839	0.417800	0.592796
	H61	H	0.882970	0.585147	0.593448
	H62	H	0.102507	0.589558	0.424170
	H63	H	0.880321	0.415627	0.417136
	H64	H	0.404397	0.600093	0.119937
	H65	H	0.583267	0.587025	0.896336
	H66	H	0.581912	0.414593	0.117704
	H67	H	0.401055	0.418951	0.892523
	H68	H	0.584331	0.118227	0.414579
	H69	H	0.581746	0.893286	0.591734
	H70	H	0.413451	0.114257	0.597593
	H71	H	0.410609	0.892625	0.416384
	H72	H	0.903431	0.617648	0.090883
	H73	H	0.082609	0.393274	0.093200
	H74	H	0.078020	0.617217	0.917074
	H75	H	0.910952	0.392245	0.909778
	H76	H	0.085192	0.908812	0.621853
	H77	H	0.081118	0.093668	0.394469
	H78	H	0.905416	0.097686	0.618897
	H79	H	0.909073	0.905136	0.392747
	H80	H	0.607695	0.095419	0.917458
	H81	H	0.379287	0.099725	0.093793
	H82	H	0.606634	0.920368	0.092777
	H83	H	0.382532	0.921344	0.915778
	H84	H	0.609479	0.917216	0.096039
	H85	H	0.382678	0.090453	0.093146
	H86	H	0.606701	0.090439	0.918853
	H87	H	0.380310	0.914942	0.914870
	H88	H	0.902346	0.095312	0.620020
	H89	H	0.084609	0.100268	0.391439
	H90	H	0.086606	0.920974	0.617488
	H91	H	0.896236	0.922804	0.393842
	H92	H	0.083412	0.619539	0.919009
	H93	H	0.088516	0.389607	0.097422
	H94	H	0.902726	0.620818	0.099669
	H95	H	0.914119	0.397948	0.923686
	H96	H	0.399778	0.115204	0.587608
	H97	H	0.583064	0.891960	0.595386
	H98	H	0.580067	0.116134	0.415048
	H99	H	0.403258	0.891050	0.418675
	H100	H	0.585015	0.413836	0.118827
	H101	H	0.576594	0.594724	0.895661
	H102	H	0.400415	0.594866	0.119542
	H103	H	0.408924	0.418557	0.895000
	H104	H	0.106245	0.587443	0.410184
	H105	H	0.879614	0.593324	0.594897
	H106	H	0.108449	0.417663	0.598358
	H107	H	0.878927	0.416911	0.413156
	H108	H	0.911002	0.616724	0.096476
	H109	H	0.081381	0.390922	0.100556
	H110	H	0.082262	0.620119	0.913392
	H111	H	0.899590	0.391961	0.920478
	H112	H	0.075827	0.914792	0.615282
	H113	H	0.088846	0.093805	0.392837
	H114	H	0.905764	0.093964	0.618024
	H115	H	0.916694	0.923723	0.402109
	H116	H	0.607726	0.092032	0.914191
	H117	H	0.378585	0.093723	0.101317
	H118	H	0.607288	0.915307	0.090968
	H119	H	0.383577	0.916773	0.920728
	C120	C	0.371974	0.012766	0.628377
	C121	C	0.614716	0.996685	0.626532
	C122	C	0.616346	0.012981	0.383534
	C123	C	0.373949	0.995598	0.384852
	C124	C	0.616490	0.383137	0.014516
	C125	C	0.615078	0.625526	0.998188
	C126	C	0.371840	0.628390	0.014655
	C127	C	0.372817	0.384311	0.997161
	C128	C	0.001544	0.626210	0.383924
	C129	C	0.985724	0.624436	0.625828
	C130	C	0.003062	0.383721	0.627655
	C131	C	0.984926	0.384099	0.384840
	C132	C	0.873455	0.513916	0.127039
	C133	C	0.115476	0.496075	0.128353
	C134	C	0.114586	0.514785	0.884525
	C135	C	0.873094	0.497098	0.884632
	C136	C	0.115223	0.882698	0.514768
	C137	C	0.115764	0.126490	0.497445
	C138	C	0.872868	0.126672	0.514971
	C139	C	0.872711	0.882937	0.498446
	C140	C	0.502864	0.125474	0.884473
	C141	C	0.485012	0.126524	0.127255
	C142	C	0.503426	0.885092	0.126169
	C143	C	0.486464	0.883943	0.884252
	C144	C	0.369688	0.893980	0.688698
	C145	C	0.617630	0.115313	0.686915
	C146	C	0.621764	0.895476	0.321835
	C147	C	0.371792	0.115297	0.326426
	C148	C	0.677403	0.380888	0.896772
	C149	C	0.675819	0.627880	0.115945
	C150	C	0.312549	0.629760	0.895980
	C151	C	0.313383	0.382872	0.115859
	C152	C	0.882960	0.687775	0.381066
	C153	C	0.104781	0.684703	0.627986
	C154	C	0.883313	0.324438	0.629479
	C155	C	0.105844	0.326074	0.385345
	C156	C	0.884054	0.380564	0.688339
	C157	C	0.104020	0.629108	0.687276
	C158	C	0.882963	0.630344	0.322934
	C159	C	0.105683	0.383346	0.327183
	C160	C	0.370361	0.688026	0.896320
	C161	C	0.618870	0.686941	0.115544
	C162	C	0.619581	0.322883	0.896604
	C163	C	0.371024	0.324219	0.115262
	C164	C	0.677914	0.894631	0.381463
	C165	C	0.674140	0.115994	0.627778
	C166	C	0.313051	0.893191	0.629539
	C167	C	0.314892	0.115346	0.385367
	C168	C	0.870961	0.394579	0.186468
	C169	C	0.117205	0.614876	0.188111
	C170	C	0.117859	0.396013	0.824616
	C171	C	0.866182	0.614240	0.821632
	C172	C	0.174917	0.881206	0.396259
	C173	C	0.174020	0.126601	0.616367
	C174	C	0.814166	0.126896	0.396043
	C175	C	0.809938	0.878856	0.615535
	C176	C	0.384094	0.187074	0.881588
	C177	C	0.604495	0.185772	0.128582
	C178	C	0.383739	0.825803	0.127575
	C179	C	0.605380	0.822180	0.881339
	C180	C	0.384120	0.882123	0.186418
	C181	C	0.604234	0.129029	0.186947
	C182	C	0.384284	0.129910	0.823312
	C183	C	0.605312	0.879596	0.823419
	C184	C	0.871933	0.185164	0.396150
	C185	C	0.117663	0.186146	0.615524
	C186	C	0.116852	0.823489	0.396313
	C187	C	0.866661	0.819449	0.614829
	C188	C	0.174956	0.395588	0.883290
	C189	C	0.173524	0.615909	0.128713
	C190	C	0.814244	0.394305	0.127582
	C191	C	0.810195	0.614714	0.881001
	C192	C	0.396962	0.095566	0.603369
	C193	C	0.588839	0.914114	0.601299
	C194	C	0.589906	0.095339	0.408757
	C195	C	0.399261	0.912591	0.408545
	C196	C	0.590991	0.408019	0.096661
	C197	C	0.589167	0.599925	0.916111
	C198	C	0.396630	0.603501	0.097217
	C199	C	0.397663	0.409279	0.914795
	C200	C	0.084482	0.599802	0.409534
	C201	C	0.903215	0.597681	0.599571
	C202	C	0.086167	0.408870	0.602702
	C203	C	0.901001	0.408162	0.408222
	C204	C	0.898715	0.596741	0.102811
	C205	C	0.091081	0.412886	0.103867
	C206	C	0.088734	0.597312	0.909409
	C207	C	0.900561	0.415399	0.910600
	C208	C	0.089845	0.907734	0.597000
	C209	C	0.091886	0.102600	0.414557
	C210	C	0.897409	0.102505	0.597496
	C211	C	0.899514	0.909667	0.417422
	C212	C	0.585673	0.099705	0.909372
	C213	C	0.401653	0.101674	0.102817
	C214	C	0.586137	0.910515	0.100714
	C215	C	0.403821	0.910225	0.909807
	Zn216	Zn	0.494315	0.004439	0.755575
	Zn217	Zn	0.494547	0.004993	0.255132
	Zn218	Zn	0.744863	0.505425	0.005709
	Zn219	Zn	0.243435	0.506271	0.005896
	Zn220	Zn	-0.006511	0.753634	0.506217
	Zn221	Zn	-0.006074	0.256120	0.506082
	Zn222	Zn	-0.006920	0.505732	0.755244
	Zn223	Zn	-0.006627	0.504691	0.256652
	Zn224	Zn	0.495434	0.755889	0.005839
	Zn225	Zn	0.494518	0.254507	0.005521
	Zn226	Zn	0.743803	0.004516	0.506303
	Zn227	Zn	0.244235	0.003628	0.506311
	N228	N	0.405487	0.969465	0.687967
	N229	N	0.581618	0.039953	0.686388
	N230	N	0.584179	0.970148	0.322967
	N231	N	0.407582	0.039711	0.325686
	N232	N	0.675833	0.417361	0.971081
	N233	N	0.673318	0.590403	0.041945
	N234	N	0.313009	0.593747	0.970794
	N235	N	0.313991	0.419131	0.041213
	N236	N	0.957981	0.685450	0.418030
	N237	N	0.029787	0.682210	0.590757
	N238	N	0.958348	0.326134	0.592421
	N239	N	0.029769	0.326298	0.420159
	N240	N	0.959572	0.416731	0.687337
	N241	N	0.028684	0.592690	0.686270
	N242	N	0.958017	0.592957	0.324555
	N243	N	0.029262	0.418208	0.326415
	N244	N	0.406230	0.687508	0.971247
	N245	N	0.582077	0.685695	0.041119
	N246	N	0.582614	0.323980	0.970959
	N247	N	0.406833	0.324757	0.040298
	N248	N	0.674624	0.968879	0.419153
	N249	N	0.672443	0.041176	0.591178
	N250	N	0.314451	0.967929	0.592744
	N251	N	0.315900	0.039919	0.420834
	N252	N	0.907099	0.469857	0.186326
	N253	N	0.081914	0.539227	0.188000
	N254	N	0.081141	0.471109	0.825196
	N255	N	0.904816	0.540120	0.823764
	N256	N	0.174190	0.917065	0.471009
	N257	N	0.173238	0.090314	0.541767
	N258	N	0.814467	0.091373	0.470937
	N259	N	0.813473	0.917418	0.542216
	N260	N	0.458747	0.184611	0.918888
	N261	N	0.529210	0.184333	0.092193
	N262	N	0.458704	0.827544	0.090609
	N263	N	0.530492	0.824793	0.918465
	N264	N	0.459684	0.918070	0.185675
	N265	N	0.528797	0.092973	0.186342
	N266	N	0.459068	0.092191	0.825038
	N267	N	0.530428	0.917402	0.825129
	N268	N	0.907526	0.185301	0.471069
	N269	N	0.081951	0.186117	0.540559
	N270	N	0.080580	0.824075	0.470968
	N271	N	0.905016	0.821915	0.541046
	N272	N	0.172980	0.470337	0.919829
	N273	N	0.172578	0.541073	0.092167
	N274	N	0.815676	0.469317	0.091537
	N275	N	0.814698	0.541175	0.919730
	O276	O	0.836745	0.822705	0.196916
	H277	H	0.847274	0.821857	0.174351
	H278	H	0.853860	0.813717	0.197411
	O279	O	0.322880	0.316709	0.662953
	H280	H	0.312957	0.325975	0.659694
	H281	H	0.311491	0.316632	0.646265
	O282	O	0.787920	0.799828	0.055209
	H283	H	0.788062	0.790203	0.059795
	H284	H	0.783617	0.808415	0.043559
	O285	O	0.625236	0.300511	0.297708
	H286	H	0.628928	0.332773	0.296822
	H287	H	0.644727	0.282024	0.273161
	O288	O	-0.103386	0.060103	0.163006
	H289	H	-0.087944	0.052861	0.164466
	H290	H	-0.118094	0.061654	0.157876
	O291	O	1.203050	0.800200	0.237122
	H292	H	1.181446	0.808376	0.218320
	H293	H	1.180134	0.797700	0.232453
	O294	O	0.036492	0.793165	0.117716
	H295	H	0.028396	0.793593	0.131884
	H296	H	0.038742	0.796081	0.097405
	O297	O	0.143407	-0.020049	0.147400
	H298	H	0.124988	-0.011813	0.142102
	H299	H	0.156586	-0.001965	0.141079
	O300	O	0.653815	0.483316	0.448576
	H301	H	0.655527	0.485048	0.460075
	H302	H	0.649419	0.472633	0.446300
	O303	O	0.707012	0.400185	0.343820
	H304	H	0.720310	0.408302	0.334353
	H305	H	0.702026	0.419441	0.336546
	O306	O	0.523467	0.515392	0.655911
	H307	H	0.538653	0.518317	0.649620
	H308	H	0.515043	0.504594	0.662165
	O309	O	0.576470	0.537096	0.571105
	H310	H	0.570267	0.530661	0.567880
	H311	H	0.575181	0.534809	0.586421
	O312	O	0.669313	0.396627	0.628443
	H313	H	0.662911	0.392521	0.613717
	H314	H	0.660591	0.406474	0.619964
	O315	O	0.511204	-0.341214	1.579517
	H316	H	0.517834	-0.336655	1.598891
	H317	H	0.535748	-0.335756	1.586355
	O318	O	0.204639	1.211500	0.085400
	H319	H	0.203721	1.200245	0.073473
	H320	H	0.206683	1.224130	0.071528
	O321	O	0.674110	0.685968	-0.378837
	H322	H	0.672812	0.705836	-0.395931
	H323	H	0.649625	0.689180	-0.392612
	O324	O	1.007853	-0.209457	0.785123
	H325	H	1.049946	-0.206132	0.796304
	H326	H	1.020549	-0.236828	0.760785
	O327	O	0.911190	0.099866	1.014655
	H328	H	0.912984	0.106309	1.001324
	H329	H	0.902790	0.114611	1.020771
	O330	O	0.917425	-0.096114	-0.187343
	H331	H	0.910374	-0.111414	-0.182136
	H332	H	0.925030	-0.114802	-0.192032
	O333	O	1.143961	1.039824	1.221611
	H334	H	1.141597	1.075763	1.221693
	H335	H	1.166620	1.048805	1.239982
	O336	O	1.053002	0.227937	0.963899
	H337	H	1.055389	0.227772	0.959638
	H338	H	1.050725	0.227016	0.948644
	O339	O	0.293127	0.297869	0.536037
	H340	H	0.310784	0.300716	0.526991
	H341	H	0.274594	0.292101	0.525776
	O342	O	0.207982	0.778632	0.948900
	H343	H	0.199697	0.793271	0.959618
	H344	H	0.237334	0.754047	0.941809
	O345	O	-0.045271	-0.057550	-0.089452
	H346	H	-0.056030	-0.045810	-0.095455
	H347	H	-0.033896	-0.069924	-0.103999
	O348	O	0.868953	0.042063	0.800828
	H349	H	0.847912	0.037533	0.790575
	H350	H	0.865745	0.053754	0.799024
	O351	O	1.051522	1.196861	-0.189449
	H352	H	1.051016	1.208501	-0.210587
	H353	H	1.041756	1.173810	-0.191426
	O354	O	0.543493	0.307283	0.527093
	H355	H	0.536106	0.298691	0.530724
	H356	H	0.559922	0.314945	0.530375
	O357	O	1.090228	1.135948	0.864570
	H358	H	1.077472	1.152909	0.871271
	H359	H	1.079168	1.132004	0.863306
	O360	O	0.321104	0.423546	0.447106
	H361	H	0.328949	0.434001	0.459181
	H362	H	0.328461	0.427739	0.439488
	O363	O	0.671468	0.319819	0.533968
	H364	H	0.674306	0.319084	0.507273
	H365	H	0.687268	0.289211	0.525989
	O366	O	0.803716	0.189869	0.841764
	H367	H	0.814183	0.175271	0.843794
	H368	H	0.797574	0.200025	0.841395
	O369	O	0.440394	0.627261	0.527691
	H370	H	0.444540	0.614243	0.514501
	H371	H	0.438470	0.634569	0.526371
	O372	O	0.371536	0.305340	0.387302
	H373	H	0.388584	0.318816	0.392771
	H374	H	0.381095	0.315216	0.403627
	O375	O	-0.105080	0.836075	0.973113
	H376	H	-0.112111	0.863581	0.973868
	H377	H	-0.105666	0.826015	0.978889
	O378	O	0.499442	0.589356	0.543482
	H379	H	0.492838	0.599619	0.527030
	H380	H	0.512008	0.578378	0.534121
	O381	O	0.821220	0.021069	-0.048301
	H382	H	0.804830	0.024231	-0.059776
	H383	H	0.847936	0.003676	-0.064560
	O384	O	0.163903	-0.177575	0.824548
	H385	H	0.170387	-0.164039	0.846314
	H386	H	0.183914	-0.177351	0.834569
	O387	O	0.003307	0.925820	1.195758
	H388	H	-0.007888	0.938513	1.197857
	H389	H	0.002712	0.927467	1.200668
	O390	O	-0.207781	0.216674	0.989795
	H391	H	-0.210942	0.220808	0.975149
	H392	H	-0.221850	0.224616	0.996236
	O393	O	0.908707	0.996729	-0.032067
	H394	H	0.913479	0.997842	-0.018614
	H395	H	0.894141	0.992037	-0.045700
	O396	O	0.290446	0.713320	0.439810
	H397	H	0.295380	0.717947	0.424050
	H398	H	0.268396	0.721714	0.427566
	O399	O	0.283237	0.473180	0.719870
	H400	H	0.269973	0.472784	0.738406
	H401	H	0.293712	0.486096	0.727811
	O402	O	0.022424	0.219911	1.224915
	H403	H	0.042838	0.228591	1.227006
	H404	H	0.031058	0.236339	1.232407
	O405	O	0.208145	0.091103	-0.086147
	H406	H	0.188099	0.092970	-0.079993
	H407	H	0.216114	0.079505	-0.073308
	O408	O	0.695542	0.513180	0.703689
	H409	H	0.701628	0.515263	0.696998
	H410	H	0.704795	0.520717	0.700405
	O411	O	0.303928	0.589116	0.593763
	H412	H	0.304526	0.587064	0.597415
	H413	H	0.321757	0.594608	0.592270
	O414	O	0.695004	0.703533	0.620912
	H415	H	0.708451	0.690456	0.621950
	H416	H	0.706238	0.698043	0.591684
	O417	O	0.441598	0.697513	0.603097
	H418	H	0.430974	0.704211	0.611281
	H419	H	0.431333	0.684370	0.599371
	O420	O	0.464179	0.489458	0.354059
	H421	H	0.476356	0.482021	0.366901
	H422	H	0.449441	0.477522	0.352129
	O423	O	0.195142	1.153845	0.212309
	H424	H	0.211082	1.170347	0.223459
	H425	H	0.190821	1.156695	0.188291
	O426	O	1.066472	1.012341	0.923274
	H427	H	1.064674	1.020304	0.913508
	H428	H	1.076472	1.001953	0.932155
	O429	O	0.446515	0.615238	0.287252
	H430	H	0.432173	0.610928	0.284262
	H431	H	0.458702	0.634927	0.295949
	O432	O	0.363923	0.688811	0.294514
	H433	H	0.348041	0.712803	0.267647
	H434	H	0.356011	0.671274	0.291404
	O435	O	0.201351	-0.025768	-0.206214
	H436	H	0.209593	-0.028674	-0.206532
	H437	H	0.212137	-0.026517	-0.213067
	O438	O	1.211452	-0.058911	0.053230
	H439	H	1.208090	-0.052529	0.053641
	H440	H	1.212042	-0.050613	0.067697
	O441	O	0.528593	0.289287	0.410955
	H442	H	0.557150	0.287815	0.403810
	H443	H	0.545281	0.273961	0.416194
	O444	O	-0.030145	1.117765	0.946276
	H445	H	-0.027660	1.107786	0.954204
	H446	H	-0.034433	1.114922	0.942505
	O447	O	0.468293	0.295287	0.721253
	H448	H	0.460188	0.267114	0.741639
	H449	H	0.433183	0.292132	0.711761
	O450	O	0.552275	0.632792	0.520855
	H451	H	0.539724	0.629863	0.517197
	H452	H	0.538213	0.623092	0.528745
	O453	O	0.580106	0.487210	0.407013
	H454	H	0.572426	0.487861	0.397829
	H455	H	0.580545	0.488984	0.415167
	O456	O	0.823743	0.114590	0.160245
	H457	H	0.831449	0.106925	0.151172
	H458	H	0.829822	0.106029	0.147024
	O459	O	0.585201	0.577868	0.310293
	H460	H	0.578237	0.593594	0.305726
	H461	H	0.566954	0.585881	0.324363
	O462	O	0.288405	0.524556	0.338324
	H463	H	0.286918	0.521885	0.330035
	H464	H	0.293513	0.527238	0.352723
	O465	O	0.808673	0.001254	0.211893
	H466	H	0.792190	-0.000797	0.230879
	H467	H	0.823747	-0.007467	0.207817
