data_Molecule from HDF5

_cell_length_a		16.488407
_cell_length_b		16.489129
_cell_length_c		16.416492
_cell_angle_alpha	89.863987
_cell_angle_beta	90.032463
_cell_angle_gamma	89.963997
_symmetry_space_group_name_H-M	'P 1'
_symmetry_Int_Tables_number		1

loop_
	_symmetry_equiv_pos_as_xyz
	x,y,z

loop_
	_atom_site_label
	_atom_site_type_symbol
	_atom_site_fract_x
	_atom_site_fract_y
	_atom_site_fract_z
	H0	H	0.380340	0.844044	0.718228
	H1	H	0.594936	0.156375	0.716078
	H2	H	0.589174	0.840026	0.274679
	H3	H	0.382636	0.157171	0.273045
	H4	H	0.708599	0.392031	0.835903
	H5	H	0.706076	0.600298	0.153143
	H6	H	0.266208	0.601201	0.836510
	H7	H	0.265555	0.389917	0.153058
	H8	H	0.830730	0.718425	0.388481
	H9	H	0.143887	0.718745	0.600759
	H10	H	0.830690	0.273569	0.601876
	H11	H	0.143826	0.273145	0.386552
	H12	H	0.829907	0.390968	0.716951
	H13	H	0.144490	0.601093	0.716574
	H14	H	0.830389	0.601424	0.272767
	H15	H	0.144057	0.388229	0.270185
	H16	H	0.378001	0.721304	0.837538
	H17	H	0.588751	0.717389	0.152385
	H18	H	0.593330	0.276049	0.835845
	H19	H	0.382963	0.275667	0.153210
	H20	H	0.707027	0.840193	0.388958
	H21	H	0.710367	0.155392	0.599511
	H22	H	0.263787	0.843183	0.602204
	H23	H	0.263516	0.155731	0.386786
	H24	H	0.883006	0.339842	0.216230
	H25	H	0.089216	0.655724	0.213306
	H26	H	0.091259	0.338712	0.775877
	H27	H	0.884379	0.655086	0.775057
	H28	H	0.209277	0.891513	0.336069
	H29	H	0.208211	0.102194	0.651945
	H30	H	0.767539	0.103920	0.334319
	H31	H	0.765491	0.892431	0.651904
	H32	H	0.329467	0.221614	0.887362
	H33	H	0.643901	0.220409	0.100025
	H34	H	0.327927	0.776277	0.102557
	H35	H	0.641032	0.774469	0.887818
	H36	H	0.327373	0.895474	0.214619
	H37	H	0.644892	0.102923	0.214589
	H38	H	0.329648	0.107473	0.770113
	H39	H	0.643113	0.892520	0.773012
	H40	H	0.882194	0.221115	0.336338
	H41	H	0.094818	0.219779	0.651238
	H42	H	0.092067	0.776253	0.336120
	H43	H	0.881879	0.776042	0.651947
	H44	H	0.208494	0.338724	0.891363
	H45	H	0.209055	0.654165	0.102386
	H46	H	0.764521	0.339454	0.101295
	H47	H	0.768519	0.655073	0.892242
	H48	H	0.397382	0.110673	0.576461
	H49	H	0.575182	0.887543	0.579860
	H50	H	0.575030	0.113678	0.397560
	H51	H	0.398371	0.886599	0.407438
	H52	H	0.579396	0.413351	0.107109
	H53	H	0.574808	0.585764	0.881478
	H54	H	0.396270	0.584468	0.108038
	H55	H	0.395075	0.407517	0.881268
	H56	H	0.100523	0.582361	0.403440
	H57	H	0.871151	0.596170	0.584987
	H58	H	0.100198	0.404634	0.582612
	H59	H	0.878310	0.411314	0.409934
	H60	H	0.097773	0.410758	0.581033
	H61	H	0.878451	0.583171	0.574211
	H62	H	0.102625	0.589148	0.402202
	H63	H	0.876383	0.412171	0.404483
	H64	H	0.400415	0.587787	0.107223
	H65	H	0.575841	0.589031	0.880442
	H66	H	0.569932	0.409153	0.104918
	H67	H	0.397187	0.415314	0.883820
	H68	H	0.573966	0.109211	0.408381
	H69	H	0.577763	0.885299	0.584307
	H70	H	0.396175	0.112440	0.582557
	H71	H	0.395176	0.885897	0.404541
	H72	H	0.886817	0.613743	0.085692
	H73	H	0.070985	0.384124	0.088016
	H74	H	0.071236	0.607190	0.908666
	H75	H	0.897389	0.381655	0.902158
	H76	H	0.071471	0.907701	0.605815
	H77	H	0.075054	0.085738	0.380680
	H78	H	0.903689	0.092009	0.607165
	H79	H	0.893026	0.913546	0.380454
	H80	H	0.598856	0.087372	0.905842
	H81	H	0.373032	0.086485	0.086904
	H82	H	0.596168	0.907702	0.075828
	H83	H	0.373208	0.910867	0.906567
	H84	H	0.597383	0.914593	0.086967
	H85	H	0.374010	0.091239	0.079854
	H86	H	0.597996	0.087017	0.905415
	H87	H	0.373552	0.911880	0.907783
	H88	H	0.889962	0.084811	0.609257
	H89	H	0.074264	0.083403	0.382577
	H90	H	0.077629	0.904988	0.608267
	H91	H	0.903775	0.907557	0.382355
	H92	H	0.081241	0.610254	0.909325
	H93	H	0.073101	0.387888	0.075603
	H94	H	0.902839	0.610798	0.090103
	H95	H	0.900091	0.384446	0.908007
	H96	H	0.402557	0.110251	0.581091
	H97	H	0.572935	0.887000	0.584801
	H98	H	0.583965	0.113247	0.405340
	H99	H	0.399091	0.885656	0.403759
	H100	H	0.577059	0.403300	0.109628
	H101	H	0.578179	0.585668	0.879563
	H102	H	0.395955	0.589586	0.110369
	H103	H	0.402889	0.408639	0.883758
	H104	H	0.099228	0.587794	0.408450
	H105	H	0.873707	0.579354	0.591193
	H106	H	0.100585	0.409611	0.587214
	H107	H	0.875583	0.407198	0.406911
	H108	H	0.897235	0.606252	0.074906
	H109	H	0.082244	0.382413	0.082985
	H110	H	0.075939	0.611411	0.900966
	H111	H	0.893272	0.382900	0.907936
	H112	H	0.076864	0.912579	0.606575
	H113	H	0.072623	0.085075	0.381486
	H114	H	0.902078	0.076964	0.602527
	H115	H	0.894530	0.901767	0.376886
	H116	H	0.598861	0.087183	0.905531
	H117	H	0.376562	0.083315	0.079817
	H118	H	0.601336	0.902077	0.086333
	H119	H	0.374254	0.912230	0.905876
	C120	C	0.365490	0.007962	0.614453
	C121	C	0.608939	0.990055	0.615264
	C122	C	0.608505	0.007407	0.371993
	C123	C	0.365118	0.990391	0.372509
	C124	C	0.608374	0.376115	0.002459
	C125	C	0.606954	0.618505	0.985692
	C126	C	0.364543	0.619360	0.004022
	C127	C	0.366475	0.376972	0.987079
	C128	C	-0.003337	0.618524	0.372556
	C129	C	0.978466	0.618090	0.615895
	C130	C	-0.004152	0.375058	0.616390
	C131	C	0.979477	0.376183	0.373280
	C132	C	0.864249	0.505738	0.116451
	C133	C	0.108242	0.488606	0.115848
	C134	C	0.108233	0.505217	0.874584
	C135	C	0.865771	0.487488	0.873645
	C136	C	0.108460	0.875774	0.502632
	C137	C	0.107587	0.118000	0.485544
	C138	C	0.866113	0.118484	0.501956
	C139	C	0.865081	0.875748	0.484807
	C140	C	0.495107	0.120916	0.871750
	C141	C	0.478471	0.119537	0.115018
	C142	C	0.494190	0.876371	0.116324
	C143	C	0.477204	0.878291	0.873585
	C144	C	0.362308	0.890577	0.676955
	C145	C	0.612391	0.108906	0.675485
	C146	C	0.608541	0.887709	0.313717
	C147	C	0.363278	0.109271	0.312189
	C148	C	0.668683	0.373671	0.883498
	C149	C	0.666119	0.619712	0.105369
	C150	C	0.304963	0.620609	0.884336
	C151	C	0.306095	0.372792	0.105785
	C152	C	0.877766	0.678210	0.370290
	C153	C	0.096850	0.678410	0.618916
	C154	C	0.877717	0.314002	0.619462
	C155	C	0.096956	0.313869	0.368938
	C156	C	0.877204	0.372538	0.676613
	C157	C	0.097075	0.619770	0.676448
	C158	C	0.877698	0.620110	0.312859
	C159	C	0.096866	0.371289	0.310846
	C160	C	0.360964	0.680048	0.884892
	C161	C	0.607752	0.677590	0.105106
	C162	C	0.611172	0.315832	0.883518
	C163	C	0.364418	0.315769	0.105759
	C164	C	0.667234	0.887893	0.370615
	C165	C	0.670143	0.108338	0.617612
	C166	C	0.304394	0.889984	0.619300
	C167	C	0.304191	0.108793	0.368843
	C168	C	0.863657	0.386971	0.176153
	C169	C	0.109081	0.607810	0.174923
	C170	C	0.110083	0.386059	0.815224
	C171	C	0.865435	0.607411	0.814869
	C172	C	0.169135	0.873224	0.383860
	C173	C	0.168221	0.120643	0.604269
	C174	C	0.806784	0.122123	0.382397
	C175	C	0.805155	0.873856	0.604043
	C176	C	0.377029	0.181978	0.868548
	C177	C	0.597160	0.179634	0.117679
	C178	C	0.375468	0.816457	0.119901
	C179	C	0.594405	0.815654	0.869963
	C180	C	0.375138	0.875932	0.175795
	C181	C	0.597343	0.121266	0.174833
	C182	C	0.377104	0.124676	0.810344
	C183	C	0.595543	0.874894	0.813192
	C184	C	0.863889	0.180482	0.383356
	C185	C	0.111727	0.179115	0.603889
	C186	C	0.110932	0.815668	0.383750
	C187	C	0.863130	0.815999	0.604212
	C188	C	0.168587	0.386500	0.872554
	C189	C	0.168705	0.606954	0.119569
	C190	C	0.804775	0.386897	0.119099
	C191	C	0.807577	0.607467	0.872736
	C192	C	0.391260	0.089902	0.587544
	C193	C	0.582856	0.907956	0.590177
	C194	C	0.584393	0.090297	0.396481
	C195	C	0.390238	0.907602	0.397938
	C196	C	0.582980	0.401355	0.085559
	C197	C	0.583086	0.593954	0.902315
	C198	C	0.390086	0.594381	0.087001
	C199	C	0.391467	0.402887	0.904459
	C200	C	0.079362	0.593683	0.397662
	C201	C	0.895847	0.593291	0.590696
	C202	C	0.078147	0.400824	0.590802
	C203	C	0.897799	0.402677	0.399716
	C204	C	0.888532	0.588779	0.091033
	C205	C	0.082795	0.406228	0.089823
	C206	C	0.083350	0.587939	0.899325
	C207	C	0.890059	0.404745	0.898600
	C208	C	0.082724	0.901167	0.585282
	C209	C	0.081320	0.092131	0.402951
	C210	C	0.891226	0.092192	0.584577
	C211	C	0.890047	0.900496	0.401716
	C212	C	0.577154	0.094764	0.898011
	C213	C	0.395998	0.094458	0.089387
	C214	C	0.576853	0.900957	0.090448
	C215	C	0.395010	0.904179	0.899296
	Zn216	Zn	0.486742	-0.000419	0.743361
	Zn217	Zn	0.486265	-0.001640	0.243577
	Zn218	Zn	0.736263	0.496715	-0.005384
	Zn219	Zn	0.236964	0.497141	-0.004014
	Zn220	Zn	-0.012607	0.747193	0.494087
	Zn221	Zn	-0.012420	0.246969	0.494191
	Zn222	Zn	-0.012572	0.496110	0.744997
	Zn223	Zn	-0.012207	0.496731	0.244181
	Zn224	Zn	0.484798	0.748327	-0.005213
	Zn225	Zn	0.487078	0.248201	-0.005749
	Zn226	Zn	0.736992	-0.001602	0.493155
	Zn227	Zn	0.236534	-0.001842	0.493406
	N228	N	0.399651	0.965022	0.673935
	N229	N	0.575006	0.034429	0.674363
	N230	N	0.573206	0.963078	0.313985
	N231	N	0.400309	0.034568	0.314367
	N232	N	0.666993	0.410341	0.958583
	N233	N	0.665871	0.583760	0.030031
	N234	N	0.307040	0.583595	0.959355
	N235	N	0.307337	0.410360	0.031117
	N236	N	0.952789	0.677352	0.406773
	N237	N	0.022036	0.677696	0.582056
	N238	N	0.952516	0.315662	0.582557
	N239	N	0.022901	0.316602	0.407102
	N240	N	0.951707	0.409546	0.675080
	N241	N	0.022475	0.583112	0.674654
	N242	N	0.952562	0.583823	0.314038
	N243	N	0.023034	0.409659	0.313676
	N244	N	0.397217	0.679396	0.960232
	N245	N	0.571882	0.677048	0.029712
	N246	N	0.574489	0.317188	0.958656
	N247	N	0.401307	0.318286	0.030913
	N248	N	0.667491	0.963392	0.405915
	N249	N	0.668103	0.033534	0.580929
	N250	N	0.306275	0.964008	0.581085
	N251	N	0.305041	0.033701	0.405407
	N252	N	0.899872	0.461979	0.174702
	N253	N	0.072446	0.533123	0.172831
	N254	N	0.073470	0.460904	0.816148
	N255	N	0.900520	0.531880	0.815007
	N256	N	0.167942	0.909682	0.458934
	N257	N	0.165741	0.083265	0.529636
	N258	N	0.808098	0.084131	0.456965
	N259	N	0.805968	0.910030	0.528643
	N260	N	0.451572	0.179793	0.906052
	N261	N	0.522240	0.178496	0.081074
	N262	N	0.450572	0.816570	0.083597
	N263	N	0.519713	0.817644	0.906838
	N264	N	0.450068	0.912435	0.173679
	N265	N	0.522506	0.084623	0.173333
	N266	N	0.451770	0.087726	0.812064
	N267	N	0.521556	0.913159	0.815254
	N268	N	0.899864	0.178427	0.458834
	N269	N	0.074766	0.177588	0.528959
	N270	N	0.074041	0.817213	0.458754
	N271	N	0.899398	0.816700	0.528909
	N272	N	0.167720	0.461733	0.908512
	N273	N	0.168337	0.531682	0.083653
	N274	N	0.805054	0.461986	0.082896
	N275	N	0.807245	0.531889	0.908281
	O276	O	1.106588	0.900507	0.075116
	H277	H	1.117491	0.885798	0.098885
	H278	H	1.103222	0.911394	0.085067
	O279	O	0.185977	-0.201463	-0.207442
	H280	H	0.149597	-0.193481	-0.205190
	H281	H	0.184082	-0.165957	-0.202113
	O282	O	0.977529	1.153429	-0.220175
	H283	H	0.933616	1.144821	-0.206925
	H284	H	0.966999	1.175984	-0.248560
	O285	O	0.594215	0.303275	0.466712
	H286	H	0.584625	0.306450	0.466925
	H287	H	0.595280	0.292567	0.462280
	O288	O	-0.202462	0.143169	-0.194558
	H289	H	-0.218422	0.155460	-0.162878
	H290	H	-0.214623	0.122714	-0.198281
	O291	O	1.468730	0.471802	0.299674
	H292	H	1.476236	0.461985	0.300087
	H293	H	1.457988	0.482156	0.302618
	O294	O	0.007072	1.161096	0.185685
	H295	H	0.016577	1.162089	0.189397
	H296	H	0.007052	1.134634	0.178542
	O297	O	0.186922	0.035185	0.175033
	H298	H	0.175082	0.050633	0.160153
	H299	H	0.203374	0.034125	0.183301
	O300	O	0.451810	0.313446	0.482077
	H301	H	0.421210	0.310186	0.489679
	H302	H	0.457442	0.312826	0.495878
	O303	O	0.611746	0.343974	0.654487
	H304	H	0.592071	0.354334	0.646739
	H305	H	0.619420	0.349972	0.633298
	O306	O	0.704732	0.528690	0.711781
	H307	H	0.724791	0.519181	0.728757
	H308	H	0.707231	0.507374	0.702273
	O309	O	0.506021	0.302763	0.293216
	H310	H	0.502668	0.301517	0.285542
	H311	H	0.484985	0.296515	0.309713
	O312	O	0.479282	0.674860	0.705023
	H313	H	0.487133	0.664811	0.712547
	H314	H	0.491230	0.669856	0.719656
	O315	O	0.539815	-0.307933	1.479413
	H316	H	0.552511	-0.312103	1.490651
	H317	H	0.531987	-0.310782	1.501473
	O318	O	0.010231	0.791111	-0.206343
	H319	H	0.000765	0.787177	-0.194556
	H320	H	0.007541	0.780141	-0.211695
	O321	O	0.281293	0.286175	-0.484296
	H322	H	0.254723	0.273947	-0.489334
	H323	H	0.272115	0.308584	-0.507819
	O324	O	0.772691	-0.209170	1.016689
	H325	H	0.765351	-0.215296	1.031631
	H326	H	0.773631	-0.221331	1.031969
	O327	O	0.780158	0.219746	1.142067
	H328	H	0.776686	0.224578	1.148503
	H329	H	0.797181	0.220993	1.147759
	O330	O	0.648768	0.336240	0.317078
	H331	H	0.642888	0.348376	0.306809
	H332	H	0.627560	0.339182	0.300852
	O333	O	1.293548	0.534802	1.298303
	H334	H	1.270635	0.545071	1.276760
	H335	H	1.316795	0.570539	1.305984
	O336	O	0.762063	0.771091	0.766875
	H337	H	0.767782	0.771553	0.779395
	H338	H	0.744369	0.765298	0.767327
	O339	O	0.264652	0.286837	0.711136
	H340	H	0.264559	0.279492	0.679874
	H341	H	0.249272	0.284255	0.725210
	O342	O	-0.157662	1.010404	0.825543
	H343	H	-0.167699	0.999233	0.828850
	H344	H	-0.162120	1.009606	0.804744
	O345	O	-0.014537	0.056624	-0.064544
	H346	H	0.002483	0.047822	-0.063354
	H347	H	-0.031443	0.068657	-0.061925
	O348	O	0.780441	0.205455	0.926224
	H349	H	0.769689	0.207081	0.943956
	H350	H	0.773337	0.216078	0.941821
	O351	O	0.930314	0.838300	0.151286
	H352	H	0.947173	0.834936	0.153629
	H353	H	0.950810	0.832079	0.145830
	O354	O	0.633230	0.692953	0.697243
	H355	H	0.625643	0.675661	0.692723
	H356	H	0.641378	0.683506	0.706753
	O357	O	1.321598	1.534790	0.510857
	H358	H	1.317119	1.534403	0.530292
	H359	H	1.311122	1.547029	0.503831
	O360	O	0.527180	0.494585	0.655706
	H361	H	0.521715	0.472031	0.667335
	H362	H	0.502172	0.490783	0.654139
	O363	O	0.426977	0.643118	0.419360
	H364	H	0.423588	0.640322	0.437594
	H365	H	0.422327	0.646688	0.428707
	O366	O	1.203266	0.079832	0.990824
	H367	H	1.195702	0.067951	1.013568
	H368	H	1.210582	0.071932	0.991594
	O369	O	0.887496	0.908530	0.797842
	H370	H	0.893586	0.905616	0.807105
	H371	H	0.868321	0.914701	0.785348
	O372	O	0.433336	0.469509	0.655644
	H373	H	0.438187	0.456336	0.658338
	H374	H	0.411644	0.466294	0.642369
	O375	O	0.070307	1.037581	0.972296
	H376	H	0.078470	1.040274	0.977972
	H377	H	0.067970	1.040057	0.965966
	O378	O	0.274734	0.476780	0.704387
	H379	H	0.256862	0.457394	0.712785
	H380	H	0.269590	0.469890	0.712654
	O381	O	1.173156	-0.188053	0.014274
	H382	H	1.183097	-0.195263	0.010925
	H383	H	1.177278	-0.192861	-0.003741
	O384	O	0.293897	-0.310821	1.303967
	H385	H	0.336375	-0.306211	1.304778
	H386	H	0.292296	-0.308496	1.343665
	O387	O	-0.231438	0.976803	0.970062
	H388	H	-0.230246	0.982242	0.966820
	H389	H	-0.237675	0.952315	0.990319
	O390	O	0.138904	0.155735	1.189702
	H391	H	0.130293	0.170116	1.179436
	H392	H	0.145293	0.153723	1.182749
	O393	O	1.099164	1.194199	0.003519
	H394	H	1.101191	1.194011	0.000265
	H395	H	1.105897	1.191923	-0.010448
	O396	O	0.686637	0.521969	0.343393
	H397	H	0.702584	0.518452	0.328055
	H398	H	0.678754	0.534596	0.357610
	O399	O	0.777607	0.793062	0.196488
	H400	H	0.797795	0.785632	0.208469
	H401	H	0.774265	0.771703	0.203530
	O402	O	-0.040099	0.055319	1.184170
	H403	H	-0.041734	0.043982	1.175463
	H404	H	-0.065476	0.042669	1.191423
	O405	O	0.124826	0.122700	-0.084342
	H406	H	0.119201	0.108002	-0.070254
	H407	H	0.101261	0.112109	-0.077295
	O408	O	0.652656	0.685986	0.332968
	H409	H	0.645585	0.674752	0.354857
	H410	H	0.642249	0.669440	0.342619
	O411	O	0.033774	0.797188	1.110151
	H412	H	0.028085	0.798399	1.095659
	H413	H	0.039225	0.800792	1.120913
	O414	O	0.706347	0.355438	0.520860
	H415	H	0.713955	0.340103	0.516454
	H416	H	0.700474	0.354497	0.493203
	O417	O	0.465996	0.697301	0.290891
	H418	H	0.472961	0.718108	0.281694
	H419	H	0.485069	0.668756	0.291996
	O420	O	0.553662	0.573471	0.460587
	H421	H	0.555765	0.552761	0.481138
	H422	H	0.545884	0.592432	0.467089
	O423	O	0.271523	1.442714	0.400286
	H424	H	0.261134	1.475414	0.422058
	H425	H	0.274839	1.468921	0.371712
	O426	O	0.970461	1.169503	0.948528
	H427	H	0.965270	1.162052	0.940811
	H428	H	0.954553	1.173647	0.940735
	O429	O	0.459412	0.285533	0.709818
	H430	H	0.451146	0.266364	0.718745
	H431	H	0.454996	0.276534	0.712944
	O432	O	0.616560	0.387204	0.522494
	H433	H	0.634645	0.367422	0.509266
	H434	H	0.606672	0.391413	0.539328
	O435	O	0.189879	-0.035919	-0.203089
	H436	H	0.195367	-0.015175	-0.202706
	H437	H	0.173180	-0.021131	-0.219847
	O438	O	1.109368	-0.102446	0.139944
	H439	H	1.117559	-0.086253	0.128217
	H440	H	1.113370	-0.102277	0.139442
	O441	O	0.409733	0.470349	0.418414
	H442	H	0.402519	0.480181	0.432736
	H443	H	0.397054	0.467449	0.404067
	O444	O	-0.197226	0.978629	1.185482
	H445	H	-0.207392	0.947667	1.183230
	H446	H	-0.211931	0.979924	1.210611
	O447	O	0.560548	0.494514	0.387446
	H448	H	0.560243	0.481467	0.387942
	H449	H	0.559951	0.498409	0.395051
	O450	O	0.326002	0.694054	0.648252
	H451	H	0.344002	0.711465	0.651813
	H452	H	0.328351	0.701246	0.666980
	O453	O	0.698028	0.702128	0.536713
	H454	H	0.691873	0.699244	0.562321
	H455	H	0.721435	0.723266	0.536431
	O456	O	0.777116	0.048939	0.115555
	H457	H	0.770630	0.037406	0.137628
	H458	H	0.778681	0.040333	0.116717
	O459	O	0.966277	-0.201609	0.971130
	H460	H	0.977781	-0.190786	0.979417
	H461	H	0.958741	-0.197801	0.977186
	O462	O	0.334161	0.719505	0.504234
	H463	H	0.354102	0.727239	0.535670
	H464	H	0.337137	0.730233	0.497615
	O465	O	1.058125	0.066365	-0.161186
	H466	H	1.053007	0.072065	-0.153205
	H467	H	1.055158	0.073738	-0.165401
