data_Molecule from HDF5

_cell_length_a		16.357550
_cell_length_b		16.225506
_cell_length_c		16.170915
_cell_angle_alpha	89.983779
_cell_angle_beta	90.052899
_cell_angle_gamma	90.071295
_symmetry_space_group_name_H-M	'P 1'
_symmetry_Int_Tables_number		1

loop_
	_symmetry_equiv_pos_as_xyz
	x,y,z

loop_
	_atom_site_label
	_atom_site_type_symbol
	_atom_site_fract_x
	_atom_site_fract_y
	_atom_site_fract_z
	H0	H	0.404615	0.835236	0.711913
	H1	H	0.597104	0.165247	0.712273
	H2	H	0.596466	0.834874	0.287168
	H3	H	0.403766	0.165556	0.287162
	H4	H	0.713387	0.402686	0.835133
	H5	H	0.714907	0.599958	0.164351
	H6	H	0.283970	0.600146	0.836487
	H7	H	0.286041	0.401350	0.165135
	H8	H	0.836650	0.714065	0.401001
	H9	H	0.162982	0.714381	0.598597
	H10	H	0.837283	0.284297	0.598053
	H11	H	0.163161	0.284364	0.400974
	H12	H	0.836520	0.401134	0.713514
	H13	H	0.163292	0.597551	0.714040
	H14	H	0.835742	0.595562	0.287454
	H15	H	0.163362	0.402875	0.286232
	H16	H	0.404063	0.711787	0.834859
	H17	H	0.596672	0.712331	0.165456
	H18	H	0.596610	0.288125	0.834851
	H19	H	0.403987	0.287702	0.165203
	H20	H	0.713070	0.835392	0.401475
	H21	H	0.716373	0.163198	0.599975
	H22	H	0.286713	0.835505	0.597847
	H23	H	0.285306	0.163951	0.400759
	H24	H	0.903273	0.335366	0.212528
	H25	H	0.095450	0.665209	0.211492
	H26	H	0.096171	0.335117	0.787379
	H27	H	0.904223	0.664998	0.788382
	H28	H	0.214051	0.901195	0.334858
	H29	H	0.215226	0.099480	0.663728
	H30	H	0.785232	0.098237	0.335762
	H31	H	0.786405	0.901024	0.664307
	H32	H	0.336799	0.213681	0.902119
	H33	H	0.664413	0.214139	0.097674
	H34	H	0.336465	0.785329	0.097952
	H35	H	0.663568	0.786206	0.902495
	H36	H	0.336459	0.903939	0.212666
	H37	H	0.663452	0.098033	0.214085
	H38	H	0.336175	0.096742	0.786595
	H39	H	0.664127	0.904147	0.787184
	H40	H	0.904887	0.211634	0.334648
	H41	H	0.097224	0.211896	0.665537
	H42	H	0.096064	0.787545	0.334777
	H43	H	0.903779	0.787155	0.665215
	H44	H	0.215339	0.336709	0.900372
	H45	H	0.214884	0.664191	0.100098
	H46	H	0.785122	0.336310	0.099232
	H47	H	0.786038	0.664555	0.900620
	H48	H	0.405005	0.115946	0.586279
	H49	H	0.600208	0.881530	0.589345
	H50	H	0.589842	0.115630	0.407431
	H51	H	0.405206	0.880366	0.397573
	H52	H	0.581161	0.414234	0.112949
	H53	H	0.590580	0.597257	0.882023
	H54	H	0.400076	0.596150	0.120741
	H55	H	0.397697	0.414397	0.881853
	H56	H	0.113990	0.594578	0.412640
	H57	H	0.882151	0.600733	0.591336
	H58	H	0.113848	0.407506	0.585035
	H59	H	0.886915	0.410650	0.411125
	H60	H	0.115717	0.412963	0.600197
	H61	H	0.886417	0.588665	0.588721
	H62	H	0.116157	0.588695	0.402739
	H63	H	0.881885	0.406603	0.399474
	H64	H	0.406914	0.585074	0.116179
	H65	H	0.599704	0.593663	0.879699
	H66	H	0.594004	0.392402	0.122465
	H67	H	0.414199	0.411290	0.886437
	H68	H	0.596764	0.116279	0.411485
	H69	H	0.595130	0.880111	0.601456
	H70	H	0.400632	0.119695	0.595619
	H71	H	0.414214	0.886550	0.409844
	H72	H	0.902239	0.620409	0.098268
	H73	H	0.098117	0.384685	0.082324
	H74	H	0.092516	0.620950	0.894041
	H75	H	0.905258	0.384145	0.912337
	H76	H	0.089054	0.903012	0.616724
	H77	H	0.093340	0.081829	0.386179
	H78	H	0.906219	0.095260	0.618689
	H79	H	0.903932	0.907702	0.381401
	H80	H	0.611986	0.088867	0.914357
	H81	H	0.381912	0.102322	0.092946
	H82	H	0.616707	0.909151	0.097734
	H83	H	0.384099	0.902655	0.909512
	H84	H	0.617537	0.900683	0.094167
	H85	H	0.387423	0.091260	0.085290
	H86	H	0.617889	0.089805	0.896126
	H87	H	0.385271	0.910596	0.905671
	H88	H	0.903943	0.089648	0.617926
	H89	H	0.083641	0.099007	0.383396
	H90	H	0.099530	0.904630	0.620010
	H91	H	0.906995	0.907428	0.382403
	H92	H	0.082526	0.611840	0.914132
	H93	H	0.100800	0.378272	0.101376
	H94	H	0.912507	0.616704	0.093393
	H95	H	0.900625	0.380901	0.905729
	H96	H	0.411899	0.117512	0.595141
	H97	H	0.587573	0.884908	0.591116
	H98	H	0.595697	0.118852	0.403250
	H99	H	0.398574	0.882437	0.412859
	H100	H	0.606715	0.415874	0.118951
	H101	H	0.592490	0.588823	0.884375
	H102	H	0.413117	0.597312	0.117274
	H103	H	0.404444	0.398359	0.878852
	H104	H	0.118786	0.599760	0.403680
	H105	H	0.881803	0.591768	0.600809
	H106	H	0.119367	0.398034	0.596632
	H107	H	0.882821	0.397874	0.409260
	H108	H	0.902660	0.616131	0.087541
	H109	H	0.082945	0.385480	0.095306
	H110	H	0.105973	0.619312	0.914450
	H111	H	0.909556	0.383222	0.904889
	H112	H	0.093363	0.913317	0.615872
	H113	H	0.103357	0.097196	0.377415
	H114	H	0.910035	0.090423	0.616845
	H115	H	0.905660	0.904102	0.381900
	H116	H	0.619040	0.105720	0.907305
	H117	H	0.383531	0.089448	0.100346
	H118	H	0.614364	0.907876	0.088971
	H119	H	0.381871	0.903888	0.901142
	C120	C	0.378578	0.008648	0.620898
	C121	C	0.621968	0.991298	0.621725
	C122	C	0.621460	0.008107	0.378928
	C123	C	0.377984	0.991702	0.378043
	C124	C	0.621352	0.379429	0.008550
	C125	C	0.621940	0.621711	0.991417
	C126	C	0.378574	0.621296	0.009135
	C127	C	0.378281	0.379553	0.991479
	C128	C	0.008008	0.621778	0.378309
	C129	C	0.991522	0.621879	0.621853
	C130	C	0.008200	0.377726	0.622186
	C131	C	0.991764	0.377422	0.378362
	C132	C	0.877996	0.508792	0.121530
	C133	C	0.121395	0.491704	0.121401
	C134	C	0.121493	0.508701	0.879049
	C135	C	0.877870	0.491575	0.878899
	C136	C	0.121540	0.878641	0.508158
	C137	C	0.122000	0.121187	0.491369
	C138	C	0.878563	0.120420	0.508960
	C139	C	0.878525	0.878335	0.491091
	C140	C	0.508368	0.122655	0.877571
	C141	C	0.492321	0.122481	0.121483
	C142	C	0.508134	0.877893	0.121513
	C143	C	0.491788	0.878125	0.877769
	C144	C	0.383084	0.884303	0.674833
	C145	C	0.618247	0.115865	0.675325
	C146	C	0.617543	0.884023	0.324592
	C147	C	0.382001	0.116052	0.324036
	C148	C	0.675505	0.382075	0.884206
	C149	C	0.676458	0.619413	0.115495
	C150	C	0.322969	0.619730	0.885077
	C151	C	0.324039	0.381734	0.116018
	C152	C	0.885337	0.676355	0.380760
	C153	C	0.114378	0.676349	0.618725
	C154	C	0.885819	0.322291	0.619092
	C155	C	0.114658	0.322846	0.380967
	C156	C	0.885348	0.380406	0.676428
	C157	C	0.114379	0.618529	0.676598
	C158	C	0.884794	0.617422	0.324317
	C159	C	0.114615	0.381199	0.323467
	C160	C	0.382149	0.675160	0.884266
	C161	C	0.617954	0.675443	0.116005
	C162	C	0.617539	0.325194	0.884243
	C163	C	0.382409	0.325127	0.115991
	C164	C	0.675697	0.884343	0.381355
	C165	C	0.677393	0.114943	0.619491
	C166	C	0.324566	0.884623	0.618295
	C167	C	0.323240	0.115190	0.380334
	C168	C	0.881760	0.384770	0.175636
	C169	C	0.117463	0.615725	0.175464
	C170	C	0.117649	0.384374	0.824881
	C171	C	0.882505	0.615767	0.824974
	C172	C	0.175725	0.881449	0.384193
	C173	C	0.176952	0.119057	0.615057
	C174	C	0.823338	0.118599	0.384789
	C175	C	0.824217	0.880696	0.615424
	C176	C	0.385285	0.176207	0.881158
	C177	C	0.615311	0.176690	0.118347
	C178	C	0.385192	0.823371	0.118510
	C179	C	0.614834	0.823791	0.881057
	C180	C	0.384907	0.882519	0.175124
	C181	C	0.615118	0.119151	0.176305
	C182	C	0.385150	0.118488	0.823502
	C183	C	0.615040	0.882375	0.823907
	C184	C	0.882676	0.174625	0.384173
	C185	C	0.118356	0.175055	0.615891
	C186	C	0.117172	0.824908	0.383753
	C187	C	0.882777	0.824537	0.615826
	C188	C	0.176625	0.385111	0.881169
	C189	C	0.176247	0.615230	0.119811
	C190	C	0.823091	0.385260	0.119547
	C191	C	0.823787	0.615234	0.880944
	C192	C	0.399737	0.095319	0.598934
	C193	C	0.600732	0.904574	0.600271
	C194	C	0.600326	0.094608	0.400900
	C195	C	0.399601	0.905344	0.400159
	C196	C	0.600261	0.401130	0.095703
	C197	C	0.600633	0.599775	0.904468
	C198	C	0.400175	0.599372	0.095637
	C199	C	0.399362	0.401475	0.904826
	C200	C	0.094071	0.600614	0.399989
	C201	C	0.905338	0.600205	0.600067
	C202	C	0.094104	0.399734	0.600391
	C203	C	0.906129	0.398732	0.400247
	C204	C	0.899497	0.595285	0.099590
	C205	C	0.100127	0.405036	0.099613
	C206	C	0.099971	0.595080	0.900987
	C207	C	0.899003	0.405105	0.901072
	C208	C	0.100183	0.900346	0.595226
	C209	C	0.100058	0.099271	0.404533
	C210	C	0.900126	0.098250	0.595337
	C211	C	0.899341	0.899974	0.404287
	C212	C	0.594193	0.101201	0.899313
	C213	C	0.406458	0.100736	0.099405
	C214	C	0.594101	0.899454	0.099998
	C215	C	0.405831	0.899440	0.899134
	Zn216	Zn	0.500026	0.000611	0.748922
	Zn217	Zn	0.499926	0.000198	0.250391
	Zn218	Zn	0.749741	0.500160	0.000191
	Zn219	Zn	0.250135	0.500546	0.000877
	Zn220	Zn	-0.000280	0.750460	0.499838
	Zn221	Zn	0.000773	0.248591	0.500536
	Zn222	Zn	-0.000418	0.499956	0.750702
	Zn223	Zn	0.000045	0.499911	0.249374
	Zn224	Zn	0.499960	0.748655	-0.000235
	Zn225	Zn	0.499941	0.251219	-0.000237
	Zn226	Zn	0.749979	-0.000926	0.500174
	Zn227	Zn	0.249795	-0.000030	0.499705
	N228	N	0.415849	0.962430	0.676444
	N229	N	0.584639	0.038086	0.676645
	N230	N	0.584377	0.961986	0.323000
	N231	N	0.415587	0.038272	0.322617
	N232	N	0.678064	0.414948	0.962603
	N233	N	0.678970	0.586501	0.037056
	N234	N	0.320697	0.586865	0.963588
	N235	N	0.321409	0.414675	0.037599
	N236	N	0.962940	0.678841	0.413829
	N237	N	0.036875	0.678492	0.585528
	N238	N	0.963215	0.320712	0.585948
	N239	N	0.037323	0.320271	0.414272
	N240	N	0.962580	0.414194	0.678401
	N241	N	0.036836	0.585493	0.678593
	N242	N	0.962135	0.584311	0.322562
	N243	N	0.037374	0.414621	0.321909
	N244	N	0.416194	0.676015	0.962062
	N245	N	0.584792	0.676951	0.037835
	N246	N	0.584554	0.323716	0.962539
	N247	N	0.415720	0.323715	0.037868
	N248	N	0.678240	0.962507	0.414423
	N249	N	0.679976	0.036466	0.587116
	N250	N	0.321766	0.962933	0.585476
	N251	N	0.320545	0.036961	0.413046
	N252	N	0.915390	0.462544	0.176897
	N253	N	0.083987	0.537695	0.176660
	N254	N	0.083941	0.462035	0.823552
	N255	N	0.915569	0.537767	0.823585
	N256	N	0.178571	0.914117	0.462758
	N257	N	0.179188	0.086288	0.536604
	N258	N	0.820757	0.085511	0.463231
	N259	N	0.821262	0.913081	0.536990
	N260	N	0.462848	0.178866	0.914132
	N261	N	0.537841	0.178658	0.085149
	N262	N	0.462827	0.820480	0.085856
	N263	N	0.537322	0.821195	0.913976
	N264	N	0.462300	0.915606	0.177182
	N265	N	0.537599	0.085864	0.178412
	N266	N	0.462696	0.085677	0.821432
	N267	N	0.537613	0.915338	0.821625
	N268	N	0.916227	0.175969	0.462167
	N269	N	0.085025	0.176405	0.537813
	N270	N	0.084202	0.823215	0.461905
	N271	N	0.916089	0.823183	0.537658
	N272	N	0.179194	0.463451	0.913873
	N273	N	0.178574	0.537257	0.086922
	N274	N	0.820687	0.463437	0.086584
	N275	N	0.820784	0.537034	0.913666
