data_Molecule from HDF5

_cell_length_a		16.477195
_cell_length_b		16.657185
_cell_length_c		16.431532
_cell_angle_alpha	90.051289
_cell_angle_beta	89.868450
_cell_angle_gamma	90.009822
_symmetry_space_group_name_H-M	'P 1'
_symmetry_Int_Tables_number		1

loop_
	_symmetry_equiv_pos_as_xyz
	x,y,z

loop_
	_atom_site_label
	_atom_site_type_symbol
	_atom_site_fract_x
	_atom_site_fract_y
	_atom_site_fract_z
	H0	H	0.417986	0.868139	0.711591
	H1	H	0.623139	0.181063	0.714210
	H2	H	0.621942	0.869465	0.270596
	H3	H	0.410673	0.181750	0.270015
	H4	H	0.738622	0.425446	0.835607
	H5	H	0.737252	0.628097	0.153816
	H6	H	0.304341	0.624532	0.834963
	H7	H	0.296463	0.416828	0.150960
	H8	H	0.864007	0.745209	0.387484
	H9	H	0.176616	0.745821	0.597171
	H10	H	0.861050	0.307071	0.596813
	H11	H	0.177008	0.299703	0.384513
	H12	H	0.861745	0.424805	0.712077
	H13	H	0.180141	0.625387	0.709464
	H14	H	0.862599	0.626096	0.275449
	H15	H	0.179137	0.418474	0.271446
	H16	H	0.418387	0.743659	0.835740
	H17	H	0.625073	0.747873	0.151312
	H18	H	0.625078	0.306375	0.836546
	H19	H	0.412059	0.301460	0.151602
	H20	H	0.742379	0.870480	0.383549
	H21	H	0.741266	0.179831	0.597142
	H22	H	0.300521	0.868765	0.595402
	H23	H	0.295839	0.181910	0.388292
	H24	H	0.914634	0.369706	0.215801
	H25	H	0.127691	0.679317	0.216960
	H26	H	0.125208	0.368584	0.771462
	H27	H	0.917329	0.682120	0.773133
	H28	H	0.242243	0.919354	0.337283
	H29	H	0.236664	0.128078	0.653128
	H30	H	0.797848	0.128930	0.334520
	H31	H	0.797501	0.921007	0.650608
	H32	H	0.364029	0.249735	0.885935
	H33	H	0.676848	0.245070	0.099384
	H34	H	0.363102	0.802138	0.099435
	H35	H	0.676938	0.805046	0.887207
	H36	H	0.359872	0.921625	0.212613
	H37	H	0.674835	0.130458	0.215393
	H38	H	0.361262	0.128386	0.775292
	H39	H	0.678746	0.925984	0.775867
	H40	H	0.911611	0.247047	0.335918
	H41	H	0.121981	0.245133	0.651611
	H42	H	0.128973	0.800424	0.338668
	H43	H	0.912233	0.803807	0.650493
	H44	H	0.243480	0.368979	0.887946
	H45	H	0.243106	0.680176	0.098308
	H46	H	0.796349	0.371130	0.100702
	H47	H	0.799046	0.681643	0.888402
	H48	H	0.427323	0.137986	0.583863
	H49	H	0.598848	0.913192	0.592015
	H50	H	0.607703	0.136557	0.406426
	H51	H	0.431027	0.916988	0.406408
	H52	H	0.606836	0.436215	0.107594
	H53	H	0.601968	0.616945	0.883789
	H54	H	0.436253	0.617521	0.107287
	H55	H	0.438525	0.438815	0.885323
	H56	H	0.134886	0.616894	0.407038
	H57	H	0.906637	0.617453	0.581966
	H58	H	0.130302	0.438417	0.575755
	H59	H	0.909235	0.437271	0.403770
	H60	H	0.135543	0.435470	0.589331
	H61	H	0.906656	0.612972	0.583087
	H62	H	0.131649	0.612006	0.410717
	H63	H	0.907547	0.433341	0.404312
	H64	H	0.428398	0.616066	0.109593
	H65	H	0.613764	0.625169	0.875941
	H66	H	0.608639	0.432871	0.109480
	H67	H	0.434228	0.431444	0.880315
	H68	H	0.605663	0.135863	0.404973
	H69	H	0.607165	0.917127	0.571684
	H70	H	0.425704	0.139873	0.585109
	H71	H	0.426203	0.914488	0.406313
	H72	H	0.938287	0.634393	0.083077
	H73	H	0.105933	0.414966	0.079498
	H74	H	0.117643	0.638536	0.904405
	H75	H	0.927482	0.415027	0.909108
	H76	H	0.102426	0.935552	0.605141
	H77	H	0.106420	0.109795	0.382522
	H78	H	0.923405	0.109209	0.605860
	H79	H	0.932068	0.929361	0.378883
	H80	H	0.634363	0.121661	0.906738
	H81	H	0.405766	0.117455	0.076960
	H82	H	0.628064	0.946116	0.081115
	H83	H	0.404144	0.932864	0.900085
	H84	H	0.634555	0.933335	0.088526
	H85	H	0.408587	0.110982	0.078079
	H86	H	0.630693	0.112857	0.907640
	H87	H	0.405022	0.930474	0.904632
	H88	H	0.936741	0.112305	0.601437
	H89	H	0.104482	0.113971	0.381245
	H90	H	0.108171	0.931370	0.608312
	H91	H	0.927343	0.937666	0.379817
	H92	H	0.111144	0.638406	0.896489
	H93	H	0.111360	0.413993	0.078706
	H94	H	0.926556	0.637054	0.077863
	H95	H	0.929306	0.411850	0.900060
	H96	H	0.427991	0.139428	0.586203
	H97	H	0.619991	0.907778	0.587647
	H98	H	0.605866	0.134292	0.406590
	H99	H	0.429460	0.914146	0.401501
	H100	H	0.611026	0.436943	0.109035
	H101	H	0.616065	0.609505	0.880087
	H102	H	0.432993	0.610223	0.105886
	H103	H	0.429601	0.439687	0.882441
	H104	H	0.133587	0.611022	0.403740
	H105	H	0.904546	0.616193	0.586113
	H106	H	0.135141	0.424959	0.578962
	H107	H	0.909954	0.435113	0.407285
	H108	H	0.928850	0.639939	0.090594
	H109	H	0.108571	0.413025	0.083347
	H110	H	0.108276	0.634235	0.905291
	H111	H	0.936033	0.415450	0.905696
	H112	H	0.109076	0.938694	0.607112
	H113	H	0.108822	0.113277	0.380030
	H114	H	0.928824	0.121734	0.607982
	H115	H	0.936361	0.936830	0.382631
	H116	H	0.634612	0.115395	0.898828
	H117	H	0.405931	0.114817	0.083409
	H118	H	0.630112	0.932219	0.073070
	H119	H	0.406294	0.935116	0.904270
	C120	C	0.396929	0.034430	0.615430
	C121	C	0.640762	1.016140	0.615022
	C122	C	0.639371	0.033417	0.371575
	C123	C	0.395958	1.017951	0.371798
	C124	C	0.640950	0.404734	0.003686
	C125	C	0.641718	0.647971	0.985153
	C126	C	0.401157	0.645297	0.002712
	C127	C	0.399921	0.403437	0.986347
	C128	C	0.029645	0.645013	0.373894
	C129	C	1.011017	0.646155	0.614799
	C130	C	0.028764	0.403483	0.613629
	C131	C	1.012516	0.402331	0.371485
	C132	C	0.898702	0.534208	0.116070
	C133	C	0.142094	0.516453	0.114220
	C134	C	0.144023	0.533846	0.870354
	C135	C	0.899534	0.517454	0.873019
	C136	C	0.140126	0.903080	0.502924
	C137	C	0.138731	0.145063	0.485656
	C138	C	0.897043	0.146414	0.501202
	C139	C	0.898460	0.903336	0.484499
	C140	C	0.528847	0.148039	0.871904
	C141	C	0.510093	0.146519	0.113716
	C142	C	0.527046	0.904583	0.113515
	C143	C	0.510632	0.903659	0.872394
	C144	C	0.397719	0.915776	0.672856
	C145	C	0.642321	0.134208	0.674121
	C146	C	0.641269	0.916384	0.310422
	C147	C	0.392937	0.134761	0.310740
	C148	C	0.699595	0.405130	0.883521
	C149	C	0.698839	0.647986	0.105464
	C150	C	0.343163	0.644723	0.882810
	C151	C	0.337534	0.399761	0.104247
	C152	C	0.911043	0.704903	0.370168
	C153	C	0.129953	0.705536	0.616161
	C154	C	0.908865	0.346163	0.615397
	C155	C	0.130138	0.340462	0.367378
	C156	C	0.909114	0.404568	0.672598
	C157	C	0.131479	0.645348	0.671507
	C158	C	0.910570	0.645570	0.314372
	C159	C	0.131234	0.399898	0.311228
	C160	C	0.399557	0.703857	0.883106
	C161	C	0.643296	0.707770	0.104238
	C162	C	0.643240	0.346030	0.884140
	C163	C	0.394897	0.341950	0.104280
	C164	C	0.701023	0.916790	0.366788
	C165	C	0.700633	0.133696	0.615936
	C166	C	0.339531	0.915918	0.614883
	C167	C	0.335501	0.135126	0.369646
	C168	C	0.896396	0.416826	0.176142
	C169	C	0.145543	0.633016	0.175824
	C170	C	0.144923	0.415846	0.810776
	C171	C	0.898296	0.634880	0.812820
	C172	C	0.201547	0.900685	0.384601
	C173	C	0.197597	0.146971	0.605061
	C174	C	0.837423	0.147926	0.382202
	C175	C	0.837536	0.902005	0.603105
	C176	C	0.410833	0.208328	0.868991
	C177	C	0.628925	0.205708	0.117415
	C178	C	0.409348	0.843205	0.117196
	C179	C	0.629794	0.845222	0.869812
	C180	C	0.407922	0.902662	0.173250
	C181	C	0.627995	0.148707	0.175194
	C182	C	0.409424	0.148111	0.813693
	C183	C	0.630788	0.905422	0.814561
	C184	C	0.894176	0.206559	0.383013
	C185	C	0.140679	0.205335	0.604407
	C186	C	0.145156	0.841860	0.384980
	C187	C	0.894966	0.843831	0.603088
	C188	C	0.203337	0.415827	0.868871
	C189	C	0.202946	0.633376	0.117082
	C190	C	0.837364	0.417443	0.118978
	C191	C	0.839391	0.634854	0.870299
	C192	C	0.420363	0.117407	0.592040
	C193	C	0.615859	0.934212	0.590541
	C194	C	0.613798	0.114458	0.398339
	C195	C	0.421539	0.936223	0.397505
	C196	C	0.616075	0.428458	0.087145
	C197	C	0.617794	0.624088	0.901636
	C198	C	0.425603	0.621672	0.085961
	C199	C	0.426454	0.429246	0.904095
	C200	C	0.111953	0.620398	0.399684
	C201	C	0.927664	0.622475	0.590595
	C202	C	0.111923	0.426520	0.588711
	C203	C	0.930334	0.427925	0.397474
	C204	C	0.923955	0.615833	0.090877
	C205	C	0.116018	0.435129	0.087959
	C206	C	0.119553	0.615687	0.895100
	C207	C	0.923890	0.435575	0.898050
	C208	C	0.113993	0.928268	0.585377
	C209	C	0.113604	0.119639	0.402815
	C210	C	0.922395	0.121418	0.583563
	C211	C	0.924396	0.927855	0.401793
	C212	C	0.611833	0.123578	0.897008
	C213	C	0.428024	0.121414	0.087255
	C214	C	0.609348	0.930023	0.088123
	C215	C	0.426989	0.926354	0.896154
	Zn216	Zn	0.519424	0.025315	0.744401
	Zn217	Zn	0.517725	0.025607	0.242155
	Zn218	Zn	0.769415	0.526286	-0.005500
	Zn219	Zn	0.272143	0.524143	-0.005964
	Zn220	Zn	0.019618	0.774355	0.493715
	Zn221	Zn	0.018904	0.274361	0.492925
	Zn222	Zn	0.020297	0.524676	0.742585
	Zn223	Zn	0.021687	0.524703	0.244472
	Zn224	Zn	0.520358	0.775461	-0.006556
	Zn225	Zn	0.520081	0.275562	-0.005662
	Zn226	Zn	0.769180	0.024338	0.492153
	Zn227	Zn	0.267389	0.025360	0.493945
	N228	N	0.432474	0.990719	0.673436
	N229	N	0.605703	0.060160	0.673512
	N230	N	0.603791	0.989806	0.313140
	N231	N	0.429842	0.060789	0.312040
	N232	N	0.698453	0.440841	0.958942
	N233	N	0.698061	0.611730	0.030481
	N234	N	0.343565	0.609335	0.958250
	N235	N	0.340612	0.437413	0.029928
	N236	N	0.986209	0.704927	0.406175
	N237	N	0.053831	0.706478	0.581999
	N238	N	0.984330	0.345084	0.579682
	N239	N	0.055109	0.341756	0.404074
	N240	N	0.984779	0.439013	0.671900
	N241	N	0.056493	0.609291	0.670734
	N242	N	0.985280	0.609139	0.316284
	N243	N	0.057026	0.437420	0.313498
	N244	N	0.434529	0.704439	0.958854
	N245	N	0.608675	0.707999	0.028172
	N246	N	0.607864	0.345477	0.959971
	N247	N	0.433206	0.344344	0.030049
	N248	N	0.700150	0.990685	0.403947
	N249	N	0.699762	0.059286	0.579929
	N250	N	0.338480	0.991064	0.580422
	N251	N	0.337178	0.061281	0.406743
	N252	N	0.933850	0.490385	0.174455
	N253	N	0.108631	0.559130	0.174200
	N254	N	0.108892	0.490175	0.811419
	N255	N	0.935171	0.560914	0.814491
	N256	N	0.198368	0.938364	0.458814
	N257	N	0.196469	0.110408	0.530125
	N258	N	0.839290	0.110886	0.456628
	N259	N	0.839575	0.938379	0.528131
	N260	N	0.486371	0.208528	0.904221
	N261	N	0.554563	0.204747	0.080076
	N262	N	0.484567	0.844059	0.080970
	N263	N	0.554195	0.844050	0.905198
	N264	N	0.481967	0.940331	0.170860
	N265	N	0.553069	0.112580	0.173228
	N266	N	0.483911	0.111139	0.815494
	N267	N	0.555708	0.940952	0.815971
	N268	N	0.930510	0.205844	0.458034
	N269	N	0.104907	0.204374	0.528909
	N270	N	0.107608	0.843290	0.459619
	N271	N	0.932120	0.844431	0.528211
	N272	N	0.202976	0.490269	0.904961
	N273	N	0.201056	0.559723	0.079785
	N274	N	0.838682	0.491487	0.082300
	N275	N	0.840101	0.560903	0.907248
	O276	O	0.656997	0.515319	0.666462
	H277	H	0.660568	0.505909	0.656325
	H278	H	0.647637	0.492035	0.672755
	O279	O	0.050245	-0.190943	0.780844
	H280	H	0.047100	-0.187887	0.797413
	H281	H	0.040287	-0.207921	0.754226
	O282	O	0.407390	0.316013	0.468319
	H283	H	0.405881	0.314214	0.478859
	H284	H	0.394448	0.316428	0.474853
	O285	O	0.705165	0.707157	0.522178
	H286	H	0.726418	0.721916	0.524924
	H287	H	0.701019	0.694205	0.546998
	O288	O	0.812618	0.072812	0.946921
	H289	H	0.825944	0.055087	0.932325
	H290	H	0.806330	0.068359	0.942471
	O291	O	0.224741	1.229688	0.010381
	H292	H	0.230711	1.222620	0.008780
	H293	H	0.228822	1.223213	0.003825
	O294	O	0.229304	0.051527	0.201347
	H295	H	0.237537	0.052810	0.209862
	H296	H	0.241109	0.046470	0.201476
	O297	O	0.931721	0.159476	1.139717
	H298	H	0.949591	0.149736	1.117353
	H299	H	0.930100	0.154363	1.142905
	O300	O	-0.131416	-0.174512	-0.084695
	H301	H	-0.118399	-0.174023	-0.076825
	H302	H	-0.158594	-0.193945	-0.105646
	O303	O	0.114459	-0.075836	0.198256
	H304	H	0.114478	-0.081658	0.186195
	H305	H	0.109099	-0.079774	0.202967
	O306	O	1.116228	0.039059	-0.007261
	H307	H	1.119566	0.038954	-0.016427
	H308	H	1.120451	0.040867	-0.015458
	O309	O	0.491826	0.427515	0.496451
	H310	H	0.503280	0.416704	0.484987
	H311	H	0.472727	0.445986	0.485705
	O312	O	0.711415	0.633749	0.636290
	H313	H	0.713060	0.600900	0.637916
	H314	H	0.693629	0.650219	0.633632
	O315	O	0.541007	0.465928	0.286995
	H316	H	0.547674	0.473456	0.288592
	H317	H	0.553290	0.459561	0.279046
	O318	O	0.303064	0.490241	-0.289171
	H319	H	0.296974	0.469490	-0.286441
	H320	H	0.278812	0.481146	-0.274232
	O321	O	0.467446	0.430401	0.676250
	H322	H	0.454266	0.410441	0.662762
	H323	H	0.476448	0.425383	0.669178
	O324	O	1.288084	-0.706344	0.730046
	H325	H	1.274169	-0.708411	0.709106
	H326	H	1.280860	-0.722680	0.735793
	O327	O	0.319490	0.729570	0.694361
	H328	H	0.343375	0.707788	0.680054
	H329	H	0.336960	0.717469	0.675057
	O330	O	0.293601	0.800833	0.212610
	H331	H	0.295911	0.811806	0.192595
	H332	H	0.279473	0.807058	0.199957
	O333	O	0.000157	0.238147	1.200416
	H334	H	0.014291	0.249857	1.216724
	H335	H	0.003950	0.238860	1.188618
	O336	O	0.302540	0.481766	0.480931
	H337	H	0.306617	0.492965	0.460982
	H338	H	0.301481	0.498734	0.494617
	O339	O	0.724472	0.316466	0.469339
	H340	H	0.723750	0.302529	0.466272
	H341	H	0.728814	0.313757	0.463346
	O342	O	-0.188148	1.230238	-0.213163
	H343	H	-0.193919	1.191111	-0.218592
	H344	H	-0.176091	1.238621	-0.176162
	O345	O	1.002626	1.007157	-0.082669
	H346	H	1.008521	0.996126	-0.082912
	H347	H	1.002208	1.017240	-0.100375
	O348	O	0.698689	0.495593	0.509240
	H349	H	0.697955	0.490347	0.507701
	H350	H	0.698830	0.486532	0.501959
	O351	O	-0.184525	-0.183426	0.782694
	H352	H	-0.193726	-0.181926	0.766992
	H353	H	-0.185330	-0.185559	0.778722
	O354	O	1.188857	0.037010	0.926745
	H355	H	1.196823	0.024382	0.915346
	H356	H	1.182622	0.022335	0.936130
	O357	O	0.329772	0.338706	0.472448
	H358	H	0.321492	0.349295	0.456850
	H359	H	0.310263	0.333287	0.463480
	O360	O	-0.029613	-0.174595	0.973934
	H361	H	-0.038892	-0.181140	0.964320
	H362	H	-0.025897	-0.164431	0.982223
	O363	O	0.497472	0.310334	0.704119
	H364	H	0.491367	0.288281	0.720057
	H365	H	0.471852	0.310075	0.694548
	O366	O	1.513407	0.325992	0.465057
	H367	H	1.524329	0.319927	0.475904
	H368	H	1.519587	0.321604	0.474937
	O369	O	-0.548688	-0.328948	0.493686
	H370	H	-0.559501	-0.312876	0.478912
	H371	H	-0.546169	-0.338096	0.493010
	O372	O	0.020681	1.009463	0.871296
	H373	H	0.038857	1.008867	0.864495
	H374	H	0.031516	1.007842	0.885027
	O375	O	1.168558	-0.200656	-0.006841
	H376	H	1.163192	-0.198041	-0.037390
	H377	H	1.176266	-0.216465	-0.005809
	O378	O	0.719951	0.319074	0.291841
	H379	H	0.733747	0.326130	0.291974
	H380	H	0.696671	0.307886	0.292092
	O381	O	-0.423464	0.666240	-0.381340
	H382	H	-0.414908	0.662968	-0.406060
	H383	H	-0.425471	0.660444	-0.366415
	O384	O	0.493726	0.689709	0.438937
	H385	H	0.512159	0.698816	0.417267
	H386	H	0.497307	0.691836	0.430699
	O387	O	0.321761	0.715752	0.311487
	H388	H	0.313535	0.742567	0.284748
	H389	H	0.322532	0.676844	0.303765
	O390	O	0.041456	1.147792	0.965970
	H391	H	0.057460	1.151299	0.971083
	H392	H	0.044384	1.141710	0.955554
	O393	O	0.804914	0.248090	-0.041673
	H394	H	0.795445	0.257698	-0.028667
	H395	H	0.788289	0.240879	-0.035938
	O396	O	-0.182153	-0.184930	0.198571
	H397	H	-0.191387	-0.193744	0.169336
	H398	H	-0.183365	-0.156553	0.203802
	O399	O	0.199578	1.140494	0.812993
	H400	H	0.195983	1.111707	0.809559
	H401	H	0.187098	1.135522	0.829187
	O402	O	0.994810	-0.198408	1.215063
	H403	H	0.967642	-0.197781	1.210033
	H404	H	0.984541	-0.222724	1.236347
	O405	O	0.731887	0.497797	0.333765
	H406	H	0.731583	0.476946	0.328016
	H407	H	0.748130	0.497836	0.322939
	O408	O	0.981300	1.247638	0.773929
	H409	H	0.971335	1.271040	0.747989
	H410	H	0.965275	1.244749	0.775101
	O411	O	0.527292	0.695886	0.288464
	H412	H	0.541856	0.688646	0.280958
	H413	H	0.505869	0.699626	0.292053
	O414	O	0.126645	-0.068121	0.025299
	H415	H	0.142191	-0.074688	0.017717
	H416	H	0.111381	-0.073110	0.021168
	O417	O	0.412335	0.651904	0.428752
	H418	H	0.401971	0.672219	0.412250
	H419	H	0.421130	0.647720	0.410444
	O420	O	1.172428	0.222306	1.184729
	H421	H	1.158609	0.227016	1.161377
	H422	H	1.173428	0.195251	1.195339
	O423	O	1.395699	1.524117	0.534269
	H424	H	1.381936	1.532170	0.550084
	H425	H	1.407817	1.546632	0.531135
	O426	O	0.067132	1.066756	1.116058
	H427	H	0.076578	1.068066	1.104988
	H428	H	0.079973	1.067202	1.121438
	O429	O	0.547069	0.314002	0.288421
	H430	H	0.557183	0.308709	0.296311
	H431	H	0.542342	0.296414	0.283943
	O432	O	1.068284	0.174953	0.880965
	H433	H	1.064561	0.171647	0.888712
	H434	H	1.054688	0.191112	0.872919
	O435	O	0.473598	0.584182	0.670942
	H436	H	0.447641	0.559842	0.674305
	H437	H	0.495252	0.561304	0.662304
	O438	O	0.304999	0.554225	0.278736
	H439	H	0.322242	0.552114	0.264546
	H440	H	0.292138	0.542776	0.254507
	O441	O	0.704095	0.368991	0.679710
	H442	H	0.697461	0.350884	0.670714
	H443	H	0.709160	0.363300	0.699491
	O444	O	1.235270	-0.068916	-0.163908
	H445	H	1.246870	-0.079506	-0.169623
	H446	H	1.244952	-0.084377	-0.165018
	O447	O	0.803070	-0.128387	1.008165
	H448	H	0.788315	-0.132056	1.000125
	H449	H	0.792265	-0.137361	1.010067
	O450	O	0.651354	0.680033	0.342607
	H451	H	0.663586	0.657189	0.357459
	H452	H	0.657639	0.694697	0.357020
	O453	O	0.621108	0.596468	0.497859
	H454	H	0.616534	0.583725	0.484159
	H455	H	0.625047	0.610708	0.495173
	O456	O	-0.142534	1.093721	1.197295
	H457	H	-0.137823	1.090591	1.196067
	H458	H	-0.140372	1.083326	1.212563
	O459	O	0.548796	0.733787	0.698075
	H460	H	0.529883	0.714905	0.709978
	H461	H	0.546601	0.736390	0.698568
	O462	O	0.569671	0.593077	0.325573
	H463	H	0.590771	0.597339	0.313395
	H464	H	0.565614	0.596101	0.338440
	O465	O	0.856829	0.042371	0.782949
	H466	H	0.865552	0.043179	0.778128
	H467	H	0.872156	0.026629	0.779831
	O468	O	-1.133201	-0.021096	0.161730
	H469	H	-1.122283	-0.021219	0.176546
	H470	H	-1.132735	-0.004519	0.176634
	O471	O	-0.021270	-0.028441	0.985611
	H472	H	-0.025866	-0.021056	0.983127
	H473	H	-0.019363	-0.023764	1.002910
	O474	O	0.958958	1.224579	0.088470
	H475	H	0.960871	1.232222	0.089548
	H476	H	0.967378	1.213702	0.080321
	O477	O	0.215539	0.825070	0.789755
	H478	H	0.248064	0.792578	0.758799
	H479	H	0.180280	0.820414	0.793485
