data_Molecule from HDF5

_cell_length_a		16.754791
_cell_length_b		16.543330
_cell_length_c		16.577885
_cell_angle_alpha	89.927333
_cell_angle_beta	90.124497
_cell_angle_gamma	90.163725
_symmetry_space_group_name_H-M	'P 1'
_symmetry_Int_Tables_number		1

loop_
	_symmetry_equiv_pos_as_xyz
	x,y,z

loop_
	_atom_site_label
	_atom_site_type_symbol
	_atom_site_fract_x
	_atom_site_fract_y
	_atom_site_fract_z
	H0	H	0.395255	0.837486	0.713274
	H1	H	0.595908	0.152756	0.717552
	H2	H	0.596409	0.839544	0.279620
	H3	H	0.389365	0.150985	0.277326
	H4	H	0.715701	0.389105	0.843904
	H5	H	0.712396	0.598151	0.156225
	H6	H	0.274405	0.599831	0.842368
	H7	H	0.266899	0.382992	0.150637
	H8	H	0.839230	0.715844	0.395626
	H9	H	0.148787	0.715672	0.603476
	H10	H	0.837296	0.275005	0.603272
	H11	H	0.149422	0.278185	0.398190
	H12	H	0.838170	0.389266	0.721075
	H13	H	0.149630	0.597576	0.719088
	H14	H	0.839507	0.600673	0.278215
	H15	H	0.147962	0.391997	0.278652
	H16	H	0.394217	0.712593	0.841092
	H17	H	0.594356	0.712460	0.157252
	H18	H	0.598334	0.274969	0.843068
	H19	H	0.383043	0.267851	0.151114
	H20	H	0.715925	0.840733	0.392437
	H21	H	0.713717	0.152126	0.603070
	H22	H	0.273299	0.839988	0.602390
	H23	H	0.273296	0.151875	0.393010
	H24	H	0.888195	0.339391	0.219063
	H25	H	0.099961	0.651070	0.220368
	H26	H	0.096403	0.338257	0.780146
	H27	H	0.891853	0.652917	0.780282
	H28	H	0.217735	0.885734	0.345660
	H29	H	0.214338	0.100687	0.655052
	H30	H	0.772164	0.101333	0.343524
	H31	H	0.772872	0.889786	0.655516
	H32	H	0.343433	0.222279	0.887554
	H33	H	0.646948	0.221444	0.107933
	H34	H	0.340255	0.773356	0.104836
	H35	H	0.649504	0.777171	0.897790
	H36	H	0.341317	0.889042	0.221520
	H37	H	0.646124	0.106210	0.225442
	H38	H	0.340903	0.103179	0.774155
	H39	H	0.648212	0.891935	0.778390
	H40	H	0.889068	0.216824	0.342929
	H41	H	0.095682	0.214737	0.656167
	H42	H	0.099471	0.773116	0.344674
	H43	H	0.891036	0.775333	0.656569
	H44	H	0.218204	0.342092	0.889646
	H45	H	0.217219	0.650309	0.106003
	H46	H	0.770686	0.340933	0.104801
	H47	H	0.776181	0.653763	0.896209
	H48	H	0.398340	0.110143	0.584876
	H49	H	0.585298	0.881166	0.590313
	H50	H	0.582583	0.105029	0.418259
	H51	H	0.408611	0.882547	0.405319
	H52	H	0.585579	0.411074	0.111099
	H53	H	0.588314	0.589699	0.883609
	H54	H	0.404647	0.584231	0.111186
	H55	H	0.411304	0.407861	0.889135
	H56	H	0.105661	0.583176	0.406494
	H57	H	0.883386	0.583458	0.589186
	H58	H	0.103183	0.405857	0.589001
	H59	H	0.882305	0.405497	0.410567
	H60	H	0.103461	0.406548	0.590959
	H61	H	0.881991	0.585383	0.591594
	H62	H	0.106004	0.588449	0.410498
	H63	H	0.882802	0.407913	0.409074
	H64	H	0.402751	0.585937	0.111575
	H65	H	0.587144	0.586105	0.885392
	H66	H	0.578881	0.410444	0.108069
	H67	H	0.403445	0.410376	0.887010
	H68	H	0.587039	0.109310	0.410921
	H69	H	0.581648	0.883159	0.588998
	H70	H	0.403269	0.111369	0.593988
	H71	H	0.407647	0.887485	0.419156
	H72	H	0.909285	0.605043	0.083263
	H73	H	0.083101	0.382534	0.085816
	H74	H	0.077422	0.605390	0.911159
	H75	H	0.899923	0.381541	0.906956
	H76	H	0.081838	0.907980	0.610597
	H77	H	0.083714	0.088304	0.385983
	H78	H	0.900165	0.085113	0.612822
	H79	H	0.899362	0.907085	0.386676
	H80	H	0.602967	0.081050	0.908716
	H81	H	0.391505	0.072259	0.080702
	H82	H	0.606068	0.904234	0.090158
	H83	H	0.381135	0.896944	0.909566
	H84	H	0.605751	0.905699	0.088870
	H85	H	0.383556	0.079194	0.092466
	H86	H	0.605855	0.086087	0.908662
	H87	H	0.384683	0.908678	0.910753
	H88	H	0.904318	0.082864	0.610714
	H89	H	0.086045	0.084956	0.386826
	H90	H	0.084407	0.908283	0.611598
	H91	H	0.906588	0.911618	0.391143
	H92	H	0.088854	0.607650	0.915923
	H93	H	0.078837	0.383661	0.087781
	H94	H	0.896613	0.610095	0.084185
	H95	H	0.906522	0.384886	0.910212
	H96	H	0.408081	0.106976	0.585743
	H97	H	0.584522	0.883021	0.586027
	H98	H	0.578440	0.106058	0.409870
	H99	H	0.396307	0.881507	0.412271
	H100	H	0.581857	0.404862	0.111334
	H101	H	0.584495	0.589009	0.885832
	H102	H	0.402762	0.583374	0.112783
	H103	H	0.408417	0.415810	0.891759
	H104	H	0.102631	0.583034	0.412950
	H105	H	0.882308	0.586622	0.588444
	H106	H	0.103839	0.404847	0.590395
	H107	H	0.881633	0.405847	0.407803
	H108	H	0.905218	0.610673	0.094945
	H109	H	0.080397	0.386111	0.083441
	H110	H	0.086208	0.610844	0.903313
	H111	H	0.899886	0.383604	0.914883
	H112	H	0.083084	0.909993	0.609869
	H113	H	0.081513	0.085107	0.387687
	H114	H	0.904307	0.088117	0.611950
	H115	H	0.907502	0.902655	0.388024
	H116	H	0.604042	0.084496	0.913371
	H117	H	0.386365	0.087606	0.078898
	H118	H	0.606264	0.906639	0.090575
	H119	H	0.380152	0.904430	0.899994
	C120	C	0.372391	0.005216	0.619514
	C121	C	0.615625	0.986356	0.620239
	C122	C	0.614395	0.003781	0.379497
	C123	C	0.372156	0.986707	0.378257
	C124	C	0.614638	0.375851	0.007223
	C125	C	0.616126	0.618024	0.989896
	C126	C	0.372642	0.616329	0.007868
	C127	C	0.372677	0.374841	0.990289
	C128	C	0.002513	0.617146	0.377892
	C129	C	0.985364	0.616610	0.621142
	C130	C	0.001552	0.373198	0.622022
	C131	C	0.984952	0.374869	0.378214
	C132	C	0.871822	0.504937	0.120102
	C133	C	0.114358	0.486824	0.119064
	C134	C	0.115200	0.504432	0.877688
	C135	C	0.872021	0.487119	0.878329
	C136	C	0.114982	0.875178	0.508076
	C137	C	0.115097	0.117690	0.490324
	C138	C	0.871694	0.117174	0.508034
	C139	C	0.872617	0.874510	0.491526
	C140	C	0.502958	0.116810	0.876784
	C141	C	0.486843	0.115997	0.119535
	C142	C	0.503683	0.873497	0.121707
	C143	C	0.485178	0.873346	0.876947
	C144	C	0.373727	0.885314	0.675831
	C145	C	0.615849	0.105244	0.678539
	C146	C	0.615851	0.886454	0.319266
	C147	C	0.370720	0.104173	0.317413
	C148	C	0.675414	0.371863	0.890562
	C149	C	0.673113	0.617409	0.109128
	C150	C	0.314213	0.618278	0.889425
	C151	C	0.308615	0.366863	0.104888
	C152	C	0.885856	0.676175	0.376608
	C153	C	0.102490	0.675559	0.622074
	C154	C	0.884516	0.314125	0.622540
	C155	C	0.102137	0.316841	0.378131
	C156	C	0.884700	0.371334	0.681041
	C157	C	0.102760	0.617024	0.679546
	C158	C	0.886190	0.619102	0.317965
	C159	C	0.101753	0.373649	0.319010
	C160	C	0.373674	0.674330	0.888944
	C161	C	0.614756	0.674055	0.109775
	C162	C	0.617054	0.314921	0.890301
	C163	C	0.366555	0.309793	0.104971
	C164	C	0.674916	0.886839	0.375428
	C165	C	0.674386	0.105040	0.621956
	C166	C	0.313617	0.886850	0.620815
	C167	C	0.313200	0.104684	0.374912
	C168	C	0.870022	0.386841	0.179498
	C169	C	0.117825	0.604215	0.180064
	C170	C	0.115845	0.386001	0.818881
	C171	C	0.872433	0.605790	0.819687
	C172	C	0.176011	0.870139	0.391790
	C173	C	0.173995	0.119130	0.608388
	C174	C	0.812283	0.119492	0.390239
	C175	C	0.812961	0.871559	0.608812
	C176	C	0.388600	0.180000	0.871280
	C177	C	0.600916	0.179993	0.125058
	C178	C	0.387076	0.813363	0.123448
	C179	C	0.602619	0.815973	0.877564
	C180	C	0.387401	0.870906	0.181393
	C181	C	0.600539	0.122505	0.183563
	C182	C	0.387480	0.121001	0.814691
	C183	C	0.602106	0.873118	0.818617
	C184	C	0.870613	0.176672	0.389847
	C185	C	0.115357	0.175700	0.609035
	C186	C	0.117486	0.813453	0.391463
	C187	C	0.871366	0.814702	0.609356
	C188	C	0.176366	0.387793	0.873408
	C189	C	0.176224	0.603598	0.123318
	C190	C	0.811450	0.387536	0.122862
	C191	C	0.814756	0.606158	0.876985
	C192	C	0.396349	0.088028	0.595204
	C193	C	0.591245	0.903976	0.595466
	C194	C	0.589548	0.085702	0.405467
	C195	C	0.396990	0.905236	0.404716
	C196	C	0.589524	0.401575	0.088942
	C197	C	0.593298	0.594961	0.906831
	C198	C	0.396359	0.591592	0.090294
	C199	C	0.399827	0.403323	0.910155
	C200	C	0.083810	0.592209	0.402924
	C201	C	0.903846	0.592156	0.596764
	C202	C	0.082589	0.398411	0.597086
	C203	C	0.903405	0.399416	0.402243
	C204	C	0.896664	0.587265	0.094829
	C205	C	0.088213	0.405530	0.092995
	C206	C	0.090808	0.586520	0.902929
	C207	C	0.895357	0.404876	0.903430
	C208	C	0.090092	0.901404	0.589505
	C209	C	0.090666	0.093185	0.408250
	C210	C	0.896094	0.092360	0.590410
	C211	C	0.897223	0.899928	0.409765
	C212	C	0.583395	0.090934	0.902904
	C213	C	0.407574	0.087862	0.091862
	C214	C	0.584991	0.898593	0.097154
	C215	C	0.403231	0.896812	0.900282
	Zn216	Zn	0.493736	-0.004669	0.747758
	Zn217	Zn	0.493971	-0.004367	0.250549
	Zn218	Zn	0.743520	0.496571	-0.001420
	Zn219	Zn	0.243438	0.495265	-0.001393
	Zn220	Zn	-0.006025	0.746283	0.499972
	Zn221	Zn	-0.006889	0.245059	0.499418
	Zn222	Zn	-0.007000	0.495296	0.750162
	Zn223	Zn	-0.006260	0.495685	0.247915
	Zn224	Zn	0.494036	0.745348	-0.000499
	Zn225	Zn	0.493857	0.246433	-0.001435
	Zn226	Zn	0.743718	-0.004801	0.499332
	Zn227	Zn	0.243585	-0.003684	0.498752
	N228	N	0.409258	0.960291	0.675620
	N229	N	0.580474	0.030255	0.678223
	N230	N	0.579181	0.960255	0.321534
	N231	N	0.406433	0.029611	0.319084
	N232	N	0.674058	0.409078	0.964546
	N233	N	0.674373	0.583715	0.033469
	N234	N	0.313261	0.583002	0.964545
	N235	N	0.312420	0.407022	0.032593
	N236	N	0.959443	0.675467	0.412860
	N237	N	0.028486	0.675592	0.586550
	N238	N	0.958321	0.314894	0.586752
	N239	N	0.028446	0.317380	0.414046
	N240	N	0.958554	0.407313	0.681023
	N241	N	0.028841	0.581301	0.679301
	N242	N	0.960065	0.583375	0.318221
	N243	N	0.027556	0.408755	0.318543
	N244	N	0.409220	0.673417	0.963687
	N245	N	0.580060	0.674943	0.034584
	N246	N	0.579792	0.317299	0.963931
	N247	N	0.405904	0.314676	0.032613
	N248	N	0.674379	0.961039	0.411975
	N249	N	0.674614	0.029916	0.586670
	N250	N	0.312392	0.962645	0.587089
	N251	N	0.313538	0.030410	0.411804
	N252	N	0.906797	0.461096	0.177886
	N253	N	0.079819	0.530718	0.177467
	N254	N	0.078454	0.459718	0.821468
	N255	N	0.907094	0.530711	0.820018
	N256	N	0.174636	0.907970	0.465317
	N257	N	0.174259	0.083761	0.533476
	N258	N	0.812710	0.083317	0.464838
	N259	N	0.813398	0.907962	0.534447
	N260	N	0.461223	0.177542	0.909444
	N261	N	0.529054	0.176121	0.085785
	N262	N	0.460599	0.814471	0.087153
	N263	N	0.528817	0.815942	0.913077
	N264	N	0.461005	0.907516	0.180605
	N265	N	0.528576	0.083237	0.180209
	N266	N	0.459726	0.082317	0.817858
	N267	N	0.528021	0.908121	0.817994
	N268	N	0.906657	0.175539	0.464327
	N269	N	0.079525	0.175072	0.534572
	N270	N	0.079986	0.816447	0.464798
	N271	N	0.907615	0.816150	0.535207
	N272	N	0.176325	0.462552	0.909122
	N273	N	0.174321	0.529450	0.086116
	N274	N	0.812451	0.462106	0.086525
	N275	N	0.814108	0.531337	0.912640
	O276	O	-0.070409	0.850990	-0.126652
	H277	H	-0.060360	0.835474	-0.137458
	H278	H	-0.085130	0.847390	-0.107216
	O279	O	0.714491	0.715518	0.525141
	H280	H	0.732719	0.734037	0.543009
	H281	H	0.717094	0.705026	0.539570
	O282	O	0.802620	0.183804	1.185412
	H283	H	0.815738	0.181021	1.170510
	H284	H	0.825315	0.153628	1.188852
	O285	O	0.596219	0.459276	0.573530
	H286	H	0.591944	0.449229	0.576835
	H287	H	0.603841	0.464006	0.585466
	O288	O	0.696850	0.673191	0.674511
	H289	H	0.667048	0.670277	0.665393
	H290	H	0.715451	0.705860	0.709049
	O291	O	0.303093	0.687264	0.685947
	H292	H	0.318458	0.676605	0.658413
	H293	H	0.320687	0.662927	0.672917
	O294	O	0.961294	0.060362	1.028184
	H295	H	0.948036	0.048772	1.020719
	H296	H	0.954793	0.065367	1.045018
	O297	O	0.491698	0.709202	0.506536
	H298	H	0.504580	0.710839	0.498215
	H299	H	0.496759	0.694853	0.507319
	O300	O	-0.042191	0.216994	0.781190
	H301	H	-0.058331	0.240922	0.754618
	H302	H	-0.067043	0.206768	0.777151
	O303	O	0.482565	0.442190	0.303929
	H304	H	0.469300	0.432425	0.301020
	H305	H	0.476166	0.443696	0.309692
	O306	O	0.493804	0.442247	0.421569
	H307	H	0.497299	0.451278	0.428362
	H308	H	0.489019	0.432711	0.437101
	O309	O	0.532068	0.699788	0.704966
	H310	H	0.527058	0.694704	0.696401
	H311	H	0.518802	0.701436	0.712016
	O312	O	0.607312	0.486949	0.635576
	H313	H	0.618454	0.494715	0.654299
	H314	H	0.602745	0.459600	0.639814
	O315	O	1.089488	0.884224	0.953160
	H316	H	1.095261	0.867000	0.950863
	H317	H	1.095522	0.881302	0.951740
	O318	O	0.455964	0.714949	0.284806
	H319	H	0.453025	0.714657	0.294307
	H320	H	0.457577	0.738834	0.263418
	O321	O	0.225195	0.956710	0.776273
	H322	H	0.237709	0.965406	0.748282
	H323	H	0.219899	0.975984	0.781418
	O324	O	0.960693	0.772660	0.225890
	H325	H	0.947966	0.757351	0.233931
	H326	H	0.931898	0.758893	0.235467
	O327	O	0.214178	-0.074201	1.048682
	H328	H	0.196815	-0.079085	1.048371
	H329	H	0.213659	-0.097847	1.032144
	O330	O	0.395940	0.281526	0.540427
	H331	H	0.406068	0.287324	0.519170
	H332	H	0.394239	0.274818	0.526658
	O333	O	0.478356	0.316690	0.715822
	H334	H	0.478958	0.314462	0.712187
	H335	H	0.467389	0.305419	0.723913
	O336	O	0.703419	0.284715	0.289953
	H337	H	0.710378	0.319832	0.289309
	H338	H	0.724763	0.265110	0.275846
	O339	O	1.046990	-0.002610	0.912935
	H340	H	1.056121	0.000302	0.927129
	H341	H	1.048732	-0.030583	0.905441
	O342	O	-0.080223	-0.157215	0.005035
	H343	H	-0.081700	-0.173066	0.019420
	H344	H	-0.069515	-0.157001	-0.007509
	O345	O	0.048878	0.947182	1.228054
	H346	H	0.053127	0.945434	1.223145
	H347	H	0.039205	0.930668	1.230878
	O348	O	0.234838	0.237524	0.242805
	H349	H	0.246481	0.212090	0.244937
	H350	H	0.260917	0.268740	0.270125
	O351	O	0.769856	0.924322	0.215127
	H352	H	0.778014	0.926652	0.224558
	H353	H	0.764837	0.907812	0.236097
	O354	O	0.073885	0.028845	0.776892
	H355	H	0.059329	0.024481	0.802702
	H356	H	0.063833	0.023262	0.773925
	O357	O	0.659506	0.679702	0.310731
	H358	H	0.640763	0.657035	0.323536
	H359	H	0.650316	0.662692	0.336532
	O360	O	0.288427	0.290734	0.707144
	H361	H	0.273037	0.273350	0.688490
	H362	H	0.285699	0.267885	0.723559
	O363	O	-0.234435	0.007393	-0.055623
	H364	H	-0.237107	0.013468	-0.047727
	H365	H	-0.246157	0.014888	-0.040712
	O366	O	0.595474	0.616294	0.450154
	H367	H	0.610810	0.631303	0.459453
	H368	H	0.582156	0.604297	0.463326
	O369	O	0.877921	0.025934	0.011968
	H370	H	0.876794	0.020412	0.021729
	H371	H	0.878998	0.014257	-0.004229
	O372	O	0.890639	0.988902	0.218955
	H373	H	0.905448	0.983088	0.202302
	H374	H	0.906740	0.982646	0.228526
	O375	O	0.757772	0.034711	0.081106
	H376	H	0.759379	0.036066	0.102263
	H377	H	0.760263	0.035415	0.094600
	O378	O	0.431795	0.537421	0.721481
	H379	H	0.414691	0.510135	0.722201
	H380	H	0.436395	0.528970	0.718492
	O381	O	0.033567	0.774399	0.776950
	H382	H	0.062211	0.766318	0.767530
	H383	H	0.054837	0.761619	0.761554
	O384	O	0.769429	-0.183201	1.014054
	H385	H	0.762041	-0.187950	1.022440
	H386	H	0.760749	-0.179679	1.016262
	O387	O	1.207126	0.784479	-0.209572
	H388	H	1.240257	0.755187	-0.244611
	H389	H	1.214942	0.837360	-0.217268
	O390	O	0.425368	0.613305	0.537076
	H391	H	0.428127	0.606419	0.532431
	H392	H	0.425659	0.619152	0.509459
	O393	O	0.719724	0.526073	0.723808
	H394	H	0.742598	0.540789	0.749209
	H395	H	0.719548	0.557173	0.723182
	O396	O	0.444676	0.465245	0.563912
	H397	H	0.453860	0.465045	0.564580
	H398	H	0.447309	0.475957	0.577777
	O399	O	0.163617	0.190567	0.921670
	H400	H	0.154441	0.198156	0.924616
	H401	H	0.159737	0.199047	0.935758
	O402	O	0.342566	0.350104	0.299652
	H403	H	0.349533	0.362061	0.316739
	H404	H	0.362230	0.363704	0.313639
	O405	O	0.767491	0.029483	0.777715
	H406	H	0.767918	0.027668	0.759592
	H407	H	0.752469	0.028290	0.771653
	O408	O	0.212842	0.011845	0.223509
	H409	H	0.212110	0.011275	0.209858
	H410	H	0.228149	0.013406	0.248590
	O411	O	0.768339	0.780560	0.783442
	H412	H	0.797118	0.798437	0.806388
	H413	H	0.758628	0.794594	0.804770
	O414	O	0.677120	0.310805	0.684403
	H415	H	0.681435	0.308225	0.687926
	H416	H	0.661839	0.317984	0.686909
	O417	O	0.521595	0.281634	0.280251
	H418	H	0.536602	0.270470	0.266070
	H419	H	0.549409	0.275495	0.276649
	O420	O	0.501335	0.456214	0.387733
	H421	H	0.488786	0.456278	0.395454
	H422	H	0.496710	0.465819	0.373510
	O423	O	0.221745	-0.228227	0.966821
	H424	H	0.243153	-0.254410	0.952887
	H425	H	0.219369	-0.230349	0.927883
	O426	O	0.446589	0.315445	0.399908
	H427	H	0.461497	0.311318	0.390825
	H428	H	0.462894	0.313465	0.392616
	O429	O	0.880821	0.956918	0.833835
	H430	H	0.872703	0.950509	0.850412
	H431	H	0.895756	0.957867	0.833410
	O432	O	0.674906	0.477364	0.438147
	H433	H	0.670033	0.484603	0.463015
	H434	H	0.661267	0.477490	0.436089
	O435	O	0.192707	0.803371	0.192521
	H436	H	0.179085	0.822566	0.174913
	H437	H	0.174672	0.826156	0.172811
	O438	O	0.223630	0.073829	-0.095626
	H439	H	0.223759	0.060527	-0.070274
	H440	H	0.225021	0.080781	-0.090822
	O441	O	0.010246	0.155560	0.191073
	H442	H	0.027582	0.167151	0.197186
	H443	H	0.021226	0.173760	0.194062
	O444	O	0.277146	0.528350	0.297380
	H445	H	0.265038	0.540660	0.287599
	H446	H	0.276064	0.542601	0.291139
	O447	O	0.041288	1.090568	0.940520
	H448	H	0.038100	1.104189	0.929442
	H449	H	0.048132	1.087241	0.936656
	O450	O	0.004411	1.182914	1.077740
	H451	H	0.018922	1.188180	1.071468
	H452	H	0.007790	1.177387	1.067029
	O453	O	0.266081	0.492152	0.664190
	H454	H	0.260042	0.464862	0.657712
	H455	H	0.255161	0.467101	0.691834
	O456	O	0.230504	0.234397	0.674239
	H457	H	0.215889	0.219496	0.693766
	H458	H	0.218082	0.220057	0.689451
	O459	O	1.013399	1.036337	0.119275
	H460	H	1.011504	1.053149	0.124034
	H461	H	1.001756	1.033295	0.113386
	O462	O	0.714412	0.459402	0.281899
	H463	H	0.724589	0.462860	0.272074
	H464	H	0.701611	0.472929	0.273188
	O465	O	0.765435	-0.235052	0.179987
	H466	H	0.751727	-0.215086	0.185137
	H467	H	0.740779	-0.256083	0.203527
	O468	O	0.329657	0.672129	0.454246
	H469	H	0.320183	0.674324	0.456433
	H470	H	0.326545	0.680221	0.447331
	O471	O	0.261422	0.481094	0.499245
	H472	H	0.263267	0.477737	0.502649
	H473	H	0.267971	0.485615	0.499506
	O474	O	0.285645	0.698306	0.293860
	H475	H	0.306751	0.689372	0.302603
	H476	H	0.255730	0.732115	0.260816
	O477	O	0.383151	0.459529	1.608409
	H478	H	0.375958	0.450907	1.606864
	H479	H	0.372287	0.449491	1.614798
	O480	O	0.711317	0.277052	0.463729
	H481	H	0.716228	0.295922	0.449846
	H482	H	0.743335	0.255933	0.460240
	O483	O	0.618714	0.396836	0.523794
	H484	H	0.629401	0.398781	0.543398
	H485	H	0.633181	0.382428	0.521819
	O486	O	0.783124	0.197403	0.796327
	H487	H	0.777628	0.174053	0.785583
	H488	H	0.776549	0.206189	0.844339
	O489	O	1.055469	0.782771	0.084884
	H490	H	1.052634	0.794669	0.086315
	H491	H	1.051492	0.769244	0.095997
	O492	O	0.192805	0.198348	0.093000
	H493	H	0.219020	0.215200	0.119987
	H494	H	0.193328	0.173985	0.087807
	O495	O	0.046353	1.214079	1.040733
	H496	H	0.054363	1.211208	1.038692
	H497	H	0.046036	1.227965	1.036234
	O498	O	0.814694	1.174804	0.952494
	H499	H	0.813329	1.189487	0.963809
	H500	H	0.825127	1.171866	0.963550
	O501	O	0.377901	0.616677	0.484459
	H502	H	0.373985	0.597343	0.483615
	H503	H	0.370813	0.611321	0.480592
