data_Molecule from HDF5

_cell_length_a		16.273938
_cell_length_b		16.223373
_cell_length_c		16.475026
_cell_angle_alpha	90.000677
_cell_angle_beta	90.094027
_cell_angle_gamma	90.176904
_symmetry_space_group_name_H-M	'P 1'
_symmetry_Int_Tables_number		1

loop_
	_symmetry_equiv_pos_as_xyz
	x,y,z

loop_
	_atom_site_label
	_atom_site_type_symbol
	_atom_site_fract_x
	_atom_site_fract_y
	_atom_site_fract_z
	H0	H	0.387261	0.834330	0.709951
	H1	H	0.601202	0.154860	0.712316
	H2	H	0.602186	0.835112	0.269417
	H3	H	0.393240	0.155980	0.271180
	H4	H	0.716960	0.388436	0.832370
	H5	H	0.714555	0.596625	0.151484
	H6	H	0.275896	0.595142	0.831070
	H7	H	0.275527	0.389340	0.149800
	H8	H	0.833832	0.712510	0.391043
	H9	H	0.159434	0.713372	0.591942
	H10	H	0.834706	0.276392	0.594395
	H11	H	0.157306	0.279501	0.391527
	H12	H	0.835630	0.390174	0.711541
	H13	H	0.156304	0.603449	0.712693
	H14	H	0.835525	0.601893	0.270939
	H15	H	0.156125	0.390911	0.272270
	H16	H	0.391009	0.712827	0.830383
	H17	H	0.599487	0.714327	0.149781
	H18	H	0.597990	0.274266	0.830569
	H19	H	0.393083	0.275208	0.150190
	H20	H	0.713297	0.833602	0.388504
	H21	H	0.713859	0.157148	0.593506
	H22	H	0.278617	0.832201	0.590743
	H23	H	0.278845	0.156965	0.388595
	H24	H	0.889866	0.335154	0.213131
	H25	H	0.103151	0.655477	0.211148
	H26	H	0.104955	0.336619	0.766299
	H27	H	0.890848	0.656133	0.771424
	H28	H	0.213284	0.891872	0.331722
	H29	H	0.220377	0.100856	0.648975
	H30	H	0.774562	0.102030	0.332623
	H31	H	0.773682	0.889586	0.649709
	H32	H	0.332420	0.209964	0.887729
	H33	H	0.655132	0.214048	0.092305
	H34	H	0.333022	0.776417	0.089639
	H35	H	0.655588	0.771896	0.883845
	H36	H	0.335635	0.886996	0.210833
	H37	H	0.654507	0.103955	0.211896
	H38	H	0.333833	0.097050	0.770745
	H39	H	0.653615	0.885958	0.766398
	H40	H	0.893780	0.215122	0.332453
	H41	H	0.104686	0.218587	0.649478
	H42	H	0.100099	0.775642	0.332974
	H43	H	0.892291	0.775351	0.650941
	H44	H	0.211528	0.331958	0.888856
	H45	H	0.213640	0.655409	0.091731
	H46	H	0.779334	0.331650	0.093049
	H47	H	0.775276	0.654947	0.887108
	H48	H	0.417814	0.105150	0.575806
	H49	H	0.583725	0.881521	0.578823
	H50	H	0.589700	0.111156	0.402814
	H51	H	0.409691	0.879968	0.398790
	H52	H	0.584980	0.394491	0.106421
	H53	H	0.591740	0.583716	0.875377
	H54	H	0.409186	0.591399	0.104926
	H55	H	0.399910	0.395678	0.873129
	H56	H	0.109175	0.587860	0.408765
	H57	H	0.888953	0.574195	0.571485
	H58	H	0.107647	0.410644	0.574430
	H59	H	0.883960	0.408044	0.411254
	H60	H	0.110469	0.414093	0.586288
	H61	H	0.877322	0.579681	0.598528
	H62	H	0.109008	0.577968	0.397571
	H63	H	0.880847	0.414906	0.394142
	H64	H	0.395657	0.584917	0.107685
	H65	H	0.584325	0.574494	0.880653
	H66	H	0.593345	0.407965	0.104879
	H67	H	0.398467	0.407672	0.876448
	H68	H	0.583897	0.112618	0.394701
	H69	H	0.583590	0.879577	0.578913
	H70	H	0.398300	0.109882	0.573567
	H71	H	0.402416	0.879076	0.402016
	H72	H	0.907712	0.609534	0.080040
	H73	H	0.079399	0.379828	0.082384
	H74	H	0.083928	0.610969	0.895851
	H75	H	0.906322	0.379057	0.898788
	H76	H	0.092404	0.905918	0.607172
	H77	H	0.082743	0.083681	0.380682
	H78	H	0.901985	0.087301	0.606915
	H79	H	0.905693	0.905208	0.378871
	H80	H	0.608296	0.080187	0.902293
	H81	H	0.380186	0.082753	0.077664
	H82	H	0.610052	0.908008	0.081601
	H83	H	0.377617	0.902002	0.893733
	H84	H	0.611096	0.904253	0.080870
	H85	H	0.380720	0.079587	0.081716
	H86	H	0.609534	0.081285	0.896418
	H87	H	0.382133	0.900624	0.904773
	H88	H	0.905545	0.078275	0.602390
	H89	H	0.085315	0.091841	0.376682
	H90	H	0.085853	0.910010	0.604120
	H91	H	0.904283	0.904282	0.377452
	H92	H	0.079624	0.606737	0.905049
	H93	H	0.087442	0.377419	0.080957
	H94	H	0.903601	0.611123	0.081663
	H95	H	0.912619	0.381041	0.900325
	H96	H	0.407814	0.113285	0.591603
	H97	H	0.582678	0.879977	0.579584
	H98	H	0.579619	0.108181	0.402886
	H99	H	0.404136	0.876824	0.394465
	H100	H	0.577720	0.408094	0.099925
	H101	H	0.579127	0.586749	0.877965
	H102	H	0.406936	0.576649	0.101936
	H103	H	0.408395	0.402591	0.878257
	H104	H	0.115455	0.591860	0.395454
	H105	H	0.877629	0.601009	0.577684
	H106	H	0.113514	0.401785	0.582360
	H107	H	0.876229	0.396833	0.398233
	H108	H	0.907480	0.610729	0.084856
	H109	H	0.083958	0.377103	0.089016
	H110	H	0.089647	0.611133	0.905610
	H111	H	0.907794	0.381193	0.904941
	H112	H	0.084822	0.901982	0.605389
	H113	H	0.090716	0.084772	0.376741
	H114	H	0.911829	0.086500	0.603200
	H115	H	0.904155	0.906543	0.378182
	H116	H	0.610055	0.086334	0.900446
	H117	H	0.378677	0.084391	0.082212
	H118	H	0.608843	0.906128	0.077686
	H119	H	0.383235	0.911120	0.900154
	C120	C	0.375144	0.002967	0.610807
	C121	C	0.616183	0.986402	0.611790
	C122	C	0.616526	0.004223	0.368869
	C123	C	0.374529	0.985512	0.368268
	C124	C	0.617031	0.371602	-0.001066
	C125	C	0.617296	0.614615	0.982885
	C126	C	0.373079	0.615081	-0.000988
	C127	C	0.372045	0.371292	0.981550
	C128	C	0.004603	0.617540	0.369973
	C129	C	0.987911	0.617584	0.613246
	C130	C	0.004479	0.375428	0.612846
	C131	C	0.986944	0.375458	0.370874
	C132	C	0.874749	0.503496	0.113057
	C133	C	0.116298	0.485107	0.113719
	C134	C	0.116848	0.503597	0.870003
	C135	C	0.875532	0.486472	0.869959
	C136	C	0.117660	0.874638	0.500084
	C137	C	0.119309	0.118612	0.482740
	C138	C	0.874702	0.116406	0.499526
	C139	C	0.873506	0.873379	0.483084
	C140	C	0.503240	0.114635	0.868455
	C141	C	0.486397	0.114624	0.111173
	C142	C	0.504067	0.873303	0.111070
	C143	C	0.486540	0.871596	0.867524
	C144	C	0.371201	0.881969	0.669644
	C145	C	0.619066	0.106915	0.672147
	C146	C	0.619730	0.883184	0.309600
	C147	C	0.374099	0.107748	0.310572
	C148	C	0.677004	0.369671	0.879665
	C149	C	0.675887	0.615707	0.103127
	C150	C	0.314575	0.614812	0.878814
	C151	C	0.314687	0.370719	0.102110
	C152	C	0.882722	0.674838	0.370810
	C153	C	0.110199	0.675151	0.612172
	C154	C	0.883186	0.315775	0.613550
	C155	C	0.108799	0.317894	0.371631
	C156	C	0.883550	0.372423	0.671697
	C157	C	0.108808	0.620360	0.672392
	C158	C	0.883440	0.619537	0.311250
	C159	C	0.108176	0.373490	0.312412
	C160	C	0.372529	0.672961	0.878549
	C161	C	0.618527	0.674376	0.102474
	C162	C	0.617574	0.313029	0.878764
	C163	C	0.372962	0.313707	0.102261
	C164	C	0.675094	0.882464	0.368923
	C165	C	0.675463	0.108131	0.613311
	C166	C	0.316526	0.881096	0.610472
	C167	C	0.317014	0.108066	0.368657
	C168	C	0.872489	0.382768	0.172590
	C169	C	0.120057	0.606861	0.171625
	C170	C	0.120852	0.383714	0.808236
	C171	C	0.872364	0.607320	0.810612
	C172	C	0.174856	0.873345	0.379668
	C173	C	0.180245	0.120188	0.601550
	C174	C	0.814834	0.119541	0.380252
	C175	C	0.813769	0.871276	0.602301
	C176	C	0.381433	0.172304	0.868244
	C177	C	0.607054	0.174857	0.111758
	C178	C	0.382252	0.814433	0.110413
	C179	C	0.606976	0.811608	0.865536
	C180	C	0.383507	0.869553	0.170729
	C181	C	0.606640	0.119699	0.171155
	C182	C	0.382078	0.116127	0.809962
	C183	C	0.606133	0.868171	0.806744
	C184	C	0.874098	0.176058	0.379974
	C185	C	0.122474	0.178714	0.601842
	C186	C	0.118313	0.815507	0.380489
	C187	C	0.872782	0.814277	0.602764
	C188	C	0.173950	0.381164	0.869390
	C189	C	0.175032	0.607154	0.112045
	C190	C	0.817618	0.380787	0.112808
	C191	C	0.814949	0.606861	0.868431
	C192	C	0.400610	0.087567	0.587091
	C193	C	0.590768	0.902240	0.586434
	C194	C	0.591627	0.088579	0.393053
	C195	C	0.398364	0.900795	0.391656
	C196	C	0.592594	0.396340	0.081870
	C197	C	0.592427	0.589191	0.899700
	C198	C	0.397091	0.591315	0.083011
	C199	C	0.395398	0.394869	0.897830
	C200	C	0.089060	0.593022	0.393589
	C201	C	0.903423	0.592338	0.589572
	C202	C	0.088428	0.401310	0.588375
	C203	C	0.902435	0.399697	0.394259
	C204	C	0.899016	0.588469	0.088808
	C205	C	0.090817	0.400147	0.090754
	C206	C	0.091632	0.587742	0.894900
	C207	C	0.901534	0.402331	0.894329
	C208	C	0.094423	0.898864	0.583929
	C209	C	0.093720	0.093713	0.399692
	C210	C	0.899465	0.091123	0.582510
	C211	C	0.897706	0.898256	0.399686
	C212	C	0.587453	0.089842	0.892604
	C213	C	0.401809	0.089256	0.087396
	C214	C	0.588294	0.898907	0.086962
	C215	C	0.402628	0.897206	0.892321
	Zn216	Zn	0.494230	-0.005934	0.739724
	Zn217	Zn	0.495820	-0.005389	0.240159
	Zn218	Zn	0.747189	0.493116	-0.008543
	Zn219	Zn	0.243522	0.493126	-0.007993
	Zn220	Zn	-0.003358	0.745362	0.491551
	Zn221	Zn	-0.003893	0.246701	0.491912
	Zn222	Zn	-0.003325	0.495943	0.741565
	Zn223	Zn	-0.004124	0.496042	0.241616
	Zn224	Zn	0.495362	0.744290	-0.009942
	Zn225	Zn	0.493817	0.242759	-0.010153
	Zn226	Zn	0.744220	-0.004434	0.490687
	Zn227	Zn	0.246897	-0.005660	0.490288
	N228	N	0.407325	0.958699	0.669698
	N229	N	0.583282	0.030051	0.671597
	N230	N	0.584239	0.959876	0.309168
	N231	N	0.408906	0.030705	0.309939
	N232	N	0.676812	0.405234	0.955265
	N233	N	0.675339	0.579406	0.027616
	N234	N	0.314813	0.579478	0.954799
	N235	N	0.313827	0.405473	0.026059
	N236	N	0.959176	0.673905	0.406527
	N237	N	0.033992	0.673567	0.576188
	N238	N	0.959597	0.317349	0.577901
	N239	N	0.032663	0.318946	0.407359
	N240	N	0.959987	0.408631	0.671520
	N241	N	0.031766	0.585240	0.673109
	N242	N	0.960515	0.585012	0.310278
	N243	N	0.031375	0.408761	0.311806
	N244	N	0.408243	0.673056	0.954269
	N245	N	0.582673	0.673745	0.026806
	N246	N	0.581066	0.313743	0.953872
	N247	N	0.407745	0.313655	0.026323
	N248	N	0.673422	0.958856	0.404906
	N249	N	0.673821	0.032001	0.576719
	N250	N	0.318954	0.957324	0.574159
	N251	N	0.317215	0.031188	0.403902
	N252	N	0.907109	0.460066	0.173007
	N253	N	0.084257	0.530013	0.172716
	N254	N	0.085962	0.460718	0.808498
	N255	N	0.909536	0.531465	0.811639
	N256	N	0.174454	0.909617	0.455028
	N257	N	0.178240	0.083456	0.526411
	N258	N	0.815197	0.083046	0.455579
	N259	N	0.814155	0.907217	0.526904
	N260	N	0.457868	0.171610	0.903989
	N261	N	0.531333	0.171711	0.074931
	N262	N	0.458275	0.816440	0.074238
	N263	N	0.531531	0.813722	0.902579
	N264	N	0.460391	0.905122	0.171526
	N265	N	0.530400	0.082871	0.170820
	N266	N	0.458751	0.080879	0.810002
	N267	N	0.530135	0.904800	0.807841
	N268	N	0.910755	0.174260	0.455256
	N269	N	0.085296	0.177840	0.527004
	N270	N	0.083200	0.816299	0.456231
	N271	N	0.909137	0.815226	0.527507
	N272	N	0.171681	0.456704	0.907165
	N273	N	0.172904	0.530382	0.076719
	N274	N	0.818868	0.457087	0.076567
	N275	N	0.816950	0.530569	0.904709
	O276	O	0.309844	0.587685	0.324871
	H277	H	0.300724	0.578994	0.332406
	H278	H	0.302043	0.583835	0.321552
	O279	O	0.498353	0.312625	0.433567
	H280	H	0.489814	0.316435	0.451966
	H281	H	0.499703	0.313716	0.426007
	O282	O	0.435683	0.576335	0.390374
	H283	H	0.426951	0.564991	0.386237
	H284	H	0.449035	0.581748	0.413928
	O285	O	0.891141	-0.000382	-0.209043
	H286	H	0.877798	-0.003418	-0.203159
	H287	H	0.902837	-0.017747	-0.205185
	O288	O	-0.057648	-0.001017	0.950479
	H289	H	-0.056830	0.011027	0.961496
	H290	H	-0.059469	-0.011039	0.965665
	O291	O	0.604438	0.459248	0.666891
	H292	H	0.599836	0.453241	0.662105
	H293	H	0.610865	0.477766	0.678134
	O294	O	0.419692	0.487358	0.525375
	H295	H	0.417733	0.489281	0.524880
	H296	H	0.423167	0.489926	0.530691
	O297	O	0.858316	0.855171	0.993908
	H298	H	0.883425	0.859464	0.988127
	H299	H	0.858562	0.844108	1.006817
	O300	O	-0.166722	0.037855	0.056897
	H301	H	-0.166585	0.037335	0.062185
	H302	H	-0.145066	0.035729	0.047428
	O303	O	0.588032	0.614627	0.657212
	H304	H	0.596369	0.610432	0.641816
	H305	H	0.585868	0.646594	0.668653
	O306	O	1.123529	0.118155	-0.075371
	H307	H	1.121741	0.127808	-0.072580
	H308	H	1.120161	0.130231	-0.086335
	O309	O	0.407752	0.565818	0.511446
	H310	H	0.405528	0.542205	0.503195
	H311	H	0.391163	0.570524	0.510104
	O312	O	0.808978	1.083623	-0.200367
	H313	H	0.785095	1.067691	-0.211725
	H314	H	0.804851	1.075143	-0.187855
	O315	O	0.603807	0.545669	0.466603
	H316	H	0.615973	0.549982	0.464760
	H317	H	0.616597	0.543390	0.488247
	O318	O	0.406510	0.573745	0.607113
	H319	H	0.395599	0.557504	0.612204
	H320	H	0.406335	0.590341	0.607686
	O321	O	0.991356	0.201002	0.779376
	H322	H	0.981740	0.208729	0.765149
	H323	H	0.971584	0.205985	0.775862
	O324	O	0.078261	-0.118682	0.931478
	H325	H	0.077570	-0.127302	0.933234
	H326	H	0.084293	-0.107084	0.940262
	O327	O	0.428129	0.694783	0.306195
	H328	H	0.420868	0.700445	0.299053
	H329	H	0.426231	0.704243	0.302402
	O330	O	0.580890	0.405055	0.439490
	H331	H	0.587879	0.402677	0.431377
	H332	H	0.581872	0.402565	0.441214
	O333	O	0.858991	1.003245	1.197746
	H334	H	0.857232	0.996524	1.200662
	H335	H	0.849735	1.002171	1.205011
	O336	O	0.365115	0.373893	0.654321
	H337	H	0.379652	0.372155	0.652145
	H338	H	0.358124	0.358963	0.659229
	O339	O	1.205659	-0.069657	1.103169
	H340	H	1.196375	-0.033099	1.090815
	H341	H	1.236218	-0.077591	1.112394
	O342	O	-0.079384	0.793916	1.196044
	H343	H	-0.063497	0.770065	1.224854
	H344	H	-0.080849	0.829276	1.195006
	O345	O	0.163009	1.104920	1.104484
	H346	H	0.165352	1.122352	1.079947
	H347	H	0.136982	1.110836	1.114590
	O348	O	0.464178	0.557483	0.406730
	H349	H	0.458716	0.560630	0.404491
	H350	H	0.456461	0.563159	0.396227
	O351	O	0.077579	0.057020	0.164207
	H352	H	0.082940	0.058476	0.171523
	H353	H	0.069670	0.037779	0.160375
	O354	O	1.105278	1.132481	-0.008325
	H355	H	1.122303	1.143364	-0.026581
	H356	H	1.090428	1.121197	-0.017890
	O357	O	0.464503	1.363045	0.334239
	H358	H	0.468238	1.368054	0.328530
	H359	H	0.462005	1.346690	0.328046
	O360	O	0.347347	0.391535	0.676773
	H361	H	0.350650	0.388918	0.682644
	H362	H	0.350023	0.398707	0.677032
	O363	O	0.490725	0.587156	0.602622
	H364	H	0.487571	0.579849	0.599810
	H365	H	0.483415	0.593113	0.601333
	O366	O	1.112683	0.823977	0.829533
	H367	H	1.112012	0.814936	0.832056
	H368	H	1.104563	0.823318	0.832199
	O369	O	0.363220	0.305792	0.538679
	H370	H	0.380739	0.294117	0.545928
	H371	H	0.355451	0.313133	0.532367
	O372	O	0.574384	0.543172	0.501674
	H373	H	0.580776	0.537494	0.487557
	H374	H	0.586444	0.556175	0.501025
	O375	O	0.642710	0.529925	0.668124
	H376	H	0.656906	0.544454	0.659609
	H377	H	0.633092	0.524843	0.675886
	O378	O	0.433563	0.609890	0.606985
	H379	H	0.429564	0.616164	0.615882
	H380	H	0.436344	0.610504	0.612917
	O381	O	0.681235	0.370212	0.309023
	H382	H	0.676537	0.361291	0.302763
	H383	H	0.673193	0.362193	0.314633
	O384	O	-0.067585	1.094425	1.103373
	H385	H	-0.064310	1.084852	1.083383
	H386	H	-0.070306	1.100681	1.102842
	O387	O	1.119600	1.032442	-0.129272
	H388	H	1.119680	1.029225	-0.145465
	H389	H	1.122799	1.025928	-0.127123
	O390	O	0.637967	0.546902	0.494888
	H391	H	0.644336	0.529106	0.487763
	H392	H	0.647559	0.563625	0.506681
	O393	O	1.073411	0.120197	1.137115
	H394	H	1.075249	0.102896	1.139254
	H395	H	1.062122	0.113899	1.124490
	O396	O	0.004924	0.814733	0.830630
	H397	H	0.002453	0.819011	0.833261
	H398	H	0.010825	0.808713	0.831162
	O399	O	0.667516	0.444930	0.400159
	H400	H	0.664368	0.431312	0.394885
	H401	H	0.667724	0.444156	0.405061
	O402	O	1.091556	0.148053	0.876593
	H403	H	1.069177	0.160765	0.875542
	H404	H	1.092642	0.143378	0.865301
	O405	O	0.130321	-0.090252	0.030683
	H406	H	0.133347	-0.078894	0.028969
	H407	H	0.135630	-0.075085	0.045556
	O408	O	0.878829	1.107209	1.080557
	H409	H	0.864713	1.106716	1.077306
	H410	H	0.887295	1.102556	1.055469
	O411	O	0.828919	1.183205	-0.108008
	H412	H	0.827142	1.159171	-0.094919
	H413	H	0.822241	1.178399	-0.119909
	O414	O	-0.208821	-0.149159	1.126359
	H415	H	-0.215699	-0.171994	1.127901
	H416	H	-0.216516	-0.138881	1.136424
	O417	O	0.544394	0.424478	0.315760
	H418	H	0.536934	0.422384	0.304230
	H419	H	0.532038	0.425291	0.318487
	O420	O	0.034192	0.846192	-0.058456
	H421	H	0.041575	0.835725	-0.057393
	H422	H	0.041179	0.855118	-0.067450
	O423	O	1.078220	-0.138283	0.160921
	H424	H	1.101758	-0.131244	0.168540
	H425	H	1.065445	-0.131597	0.149517
	O426	O	-0.223900	-0.105233	1.004312
	H427	H	-0.213116	-0.106917	1.007725
	H428	H	-0.240716	-0.130732	1.014931
	O429	O	0.357108	0.448009	0.435713
	H430	H	0.352235	0.443210	0.434493
	H431	H	0.367631	0.443592	0.442409
