data_Molecule from HDF5

_cell_length_a		16.255285
_cell_length_b		16.339074
_cell_length_c		16.618072
_cell_angle_alpha	90.002100
_cell_angle_beta	90.064669
_cell_angle_gamma	90.063116
_symmetry_space_group_name_H-M	'P 1'
_symmetry_Int_Tables_number		1

loop_
	_symmetry_equiv_pos_as_xyz
	x,y,z

loop_
	_atom_site_label
	_atom_site_type_symbol
	_atom_site_fract_x
	_atom_site_fract_y
	_atom_site_fract_z
	H0	H	0.395245	0.844681	0.723197
	H1	H	0.618510	0.157736	0.725908
	H2	H	0.612475	0.842564	0.277614
	H3	H	0.400677	0.159398	0.278199
	H4	H	0.731664	0.390123	0.844740
	H5	H	0.727312	0.605542	0.156056
	H6	H	0.282248	0.604962	0.842710
	H7	H	0.286310	0.398010	0.158793
	H8	H	0.843147	0.718984	0.398938
	H9	H	0.165413	0.720193	0.603329
	H10	H	0.845109	0.278914	0.607388
	H11	H	0.163229	0.281106	0.395969
	H12	H	0.848228	0.388508	0.727621
	H13	H	0.163768	0.608131	0.722312
	H14	H	0.845954	0.611897	0.276387
	H15	H	0.161378	0.393228	0.277502
	H16	H	0.397359	0.722874	0.842447
	H17	H	0.611854	0.724576	0.154734
	H18	H	0.613793	0.274959	0.844527
	H19	H	0.401082	0.278022	0.156293
	H20	H	0.721361	0.839654	0.398995
	H21	H	0.726547	0.160954	0.603143
	H22	H	0.286482	0.841558	0.601410
	H23	H	0.289122	0.161910	0.398320
	H24	H	0.890482	0.345710	0.228404
	H25	H	0.108200	0.660924	0.218892
	H26	H	0.115696	0.342701	0.776482
	H27	H	0.896467	0.657499	0.776163
	H28	H	0.222036	0.899795	0.341258
	H29	H	0.228866	0.108606	0.655492
	H30	H	0.784595	0.103817	0.341703
	H31	H	0.780691	0.894805	0.656651
	H32	H	0.345129	0.219922	0.895415
	H33	H	0.664935	0.222561	0.105713
	H34	H	0.343933	0.783990	0.098117
	H35	H	0.664706	0.778692	0.892519
	H36	H	0.346743	0.895510	0.219151
	H37	H	0.664861	0.109315	0.222761
	H38	H	0.348928	0.111554	0.774824
	H39	H	0.663027	0.891525	0.774335
	H40	H	0.895710	0.225547	0.344147
	H41	H	0.112688	0.225986	0.655385
	H42	H	0.106803	0.780663	0.343503
	H43	H	0.897634	0.777989	0.657025
	H44	H	0.223396	0.340211	0.899084
	H45	H	0.219429	0.662909	0.098469
	H46	H	0.781855	0.341940	0.106658
	H47	H	0.784562	0.659606	0.896324
	H48	H	0.417180	0.116527	0.589102
	H49	H	0.595953	0.888183	0.584213
	H50	H	0.590651	0.115398	0.404898
	H51	H	0.404963	0.879510	0.400245
	H52	H	0.587097	0.415953	0.107252
	H53	H	0.592306	0.593462	0.886580
	H54	H	0.415811	0.596380	0.113304
	H55	H	0.412466	0.411171	0.887154
	H56	H	0.118909	0.587753	0.409388
	H57	H	0.887150	0.589883	0.595187
	H58	H	0.117739	0.414986	0.589705
	H59	H	0.891146	0.426414	0.407567
	H60	H	0.118213	0.413996	0.587770
	H61	H	0.890584	0.590752	0.586212
	H62	H	0.119401	0.590075	0.409805
	H63	H	0.884474	0.406575	0.408425
	H64	H	0.409983	0.590874	0.112682
	H65	H	0.597647	0.585424	0.886705
	H66	H	0.590237	0.406804	0.111735
	H67	H	0.415735	0.410365	0.887986
	H68	H	0.592233	0.113679	0.412142
	H69	H	0.589135	0.886181	0.594849
	H70	H	0.420946	0.115416	0.589897
	H71	H	0.427634	0.887170	0.401548
	H72	H	0.924197	0.612085	0.089426
	H73	H	0.096350	0.384493	0.093043
	H74	H	0.090286	0.613726	0.910814
	H75	H	0.925977	0.390943	0.916759
	H76	H	0.092469	0.911699	0.612368
	H77	H	0.093330	0.091735	0.387923
	H78	H	0.922453	0.087318	0.608916
	H79	H	0.911313	0.906204	0.386341
	H80	H	0.619817	0.087324	0.911265
	H81	H	0.393610	0.088734	0.084726
	H82	H	0.619636	0.915541	0.087594
	H83	H	0.392224	0.913475	0.911618
	H84	H	0.622779	0.912645	0.091897
	H85	H	0.392778	0.082570	0.091968
	H86	H	0.618212	0.085995	0.914301
	H87	H	0.392589	0.915059	0.909635
	H88	H	0.916178	0.094153	0.612651
	H89	H	0.094945	0.092440	0.386873
	H90	H	0.096601	0.908988	0.614248
	H91	H	0.912611	0.914387	0.388731
	H92	H	0.094735	0.614304	0.911872
	H93	H	0.090785	0.385675	0.094329
	H94	H	0.914299	0.613540	0.083119
	H95	H	0.912853	0.385627	0.915676
	H96	H	0.419420	0.115269	0.586464
	H97	H	0.584098	0.892869	0.584593
	H98	H	0.596875	0.117366	0.408086
	H99	H	0.413004	0.889071	0.420005
	H100	H	0.597118	0.415017	0.111249
	H101	H	0.588767	0.585517	0.890354
	H102	H	0.418189	0.589291	0.110100
	H103	H	0.413717	0.407646	0.886574
	H104	H	0.118348	0.589166	0.411061
	H105	H	0.892401	0.582854	0.591065
	H106	H	0.117923	0.416332	0.587995
	H107	H	0.893766	0.415326	0.424677
	H108	H	0.914559	0.616423	0.094714
	H109	H	0.092860	0.386894	0.089501
	H110	H	0.092865	0.615333	0.907702
	H111	H	0.921715	0.385095	0.905331
	H112	H	0.097156	0.913841	0.612962
	H113	H	0.094792	0.090730	0.387644
	H114	H	0.912821	0.084943	0.611603
	H115	H	0.918720	0.908971	0.389137
	H116	H	0.618532	0.083600	0.911603
	H117	H	0.388161	0.091397	0.092193
	H118	H	0.621207	0.909503	0.086731
	H119	H	0.390718	0.913173	0.909564
	C120	C	0.385072	0.010875	0.620934
	C121	C	0.625590	0.992968	0.620863
	C122	C	0.626161	0.009868	0.377543
	C123	C	0.383909	0.991568	0.376892
	C124	C	0.626674	0.378111	0.008017
	C125	C	0.626765	0.622148	0.990553
	C126	C	0.382480	0.623131	0.007800
	C127	C	0.382660	0.377931	0.991364
	C128	C	0.013070	0.622019	0.378918
	C129	C	0.995751	0.621119	0.622217
	C130	C	0.013271	0.380205	0.622126
	C131	C	0.994639	0.381643	0.379919
	C132	C	0.883428	0.509637	0.122256
	C133	C	0.124978	0.492084	0.122185
	C134	C	0.126443	0.509475	0.878341
	C135	C	0.885183	0.491570	0.879206
	C136	C	0.126138	0.880169	0.508920
	C137	C	0.127230	0.124378	0.490863
	C138	C	0.883392	0.121853	0.507681
	C139	C	0.881280	0.877423	0.491749
	C140	C	0.514311	0.120688	0.879079
	C141	C	0.497223	0.121153	0.121187
	C142	C	0.514674	0.880638	0.119225
	C143	C	0.496694	0.880028	0.876794
	C144	C	0.379258	0.892099	0.682377
	C145	C	0.633404	0.111287	0.683666
	C146	C	0.629864	0.890021	0.317950
	C147	C	0.382335	0.111683	0.317943
	C148	C	0.689854	0.373133	0.891354
	C149	C	0.687569	0.624658	0.108671
	C150	C	0.322234	0.623902	0.889820
	C151	C	0.324838	0.377935	0.110667
	C152	C	0.891836	0.680590	0.379187
	C153	C	0.116855	0.681087	0.623059
	C154	C	0.893552	0.318243	0.625691
	C155	C	0.114889	0.320669	0.377436
	C156	C	0.894715	0.373528	0.685117
	C157	C	0.116114	0.625260	0.682184
	C158	C	0.893369	0.627176	0.317994
	C159	C	0.114039	0.376730	0.318517
	C160	C	0.379881	0.682463	0.889476
	C161	C	0.630466	0.684192	0.107827
	C162	C	0.631178	0.315732	0.891123
	C163	C	0.382118	0.318506	0.109640
	C164	C	0.684061	0.888539	0.378422
	C165	C	0.687386	0.112695	0.622911
	C166	C	0.324821	0.890549	0.621720
	C167	C	0.326774	0.113109	0.377682
	C168	C	0.876158	0.391911	0.185737
	C169	C	0.126533	0.613102	0.179574
	C170	C	0.131448	0.390092	0.817745
	C171	C	0.879593	0.610213	0.817283
	C172	C	0.183687	0.879770	0.389288
	C173	C	0.188809	0.127285	0.608434
	C174	C	0.823484	0.123189	0.389189
	C175	C	0.821005	0.876135	0.609858
	C176	C	0.393942	0.181214	0.876771
	C177	C	0.616997	0.182516	0.123749
	C178	C	0.393060	0.822114	0.119046
	C179	C	0.616676	0.818586	0.874425
	C180	C	0.394340	0.877581	0.178938
	C181	C	0.617051	0.125984	0.182176
	C182	C	0.395586	0.126996	0.816880
	C183	C	0.615848	0.875085	0.815614
	C184	C	0.878978	0.183821	0.390621
	C185	C	0.130624	0.185562	0.608400
	C186	C	0.126434	0.820560	0.390371
	C187	C	0.878831	0.817655	0.609915
	C188	C	0.185206	0.388659	0.878686
	C189	C	0.181877	0.613966	0.119808
	C190	C	0.822030	0.389809	0.124967
	C191	C	0.823875	0.611208	0.876978
	C192	C	0.411739	0.094148	0.595816
	C193	C	0.597812	0.910653	0.595240
	C194	C	0.600652	0.093619	0.401548
	C195	C	0.408092	0.907134	0.400508
	C196	C	0.599505	0.405021	0.088923
	C197	C	0.600514	0.595742	0.909155
	C198	C	0.407467	0.599105	0.090492
	C199	C	0.406972	0.402418	0.908720
	C200	C	0.096946	0.596331	0.403123
	C201	C	0.911948	0.595367	0.597912
	C202	C	0.096200	0.407441	0.596085
	C203	C	0.911642	0.408282	0.405977
	C204	C	0.910215	0.592353	0.096461
	C205	C	0.100306	0.407758	0.099017
	C206	C	0.100244	0.592706	0.903076
	C207	C	0.912141	0.408722	0.905085
	C208	C	0.102226	0.904538	0.591613
	C209	C	0.101642	0.098929	0.408934
	C210	C	0.909640	0.096198	0.589600
	C211	C	0.906927	0.902544	0.409484
	C212	C	0.597323	0.093567	0.905004
	C213	C	0.413380	0.095015	0.096554
	C214	C	0.599221	0.905565	0.095435
	C215	C	0.413425	0.906664	0.902546
	Zn216	Zn	0.505493	0.002072	0.749565
	Zn217	Zn	0.506346	0.000312	0.249090
	Zn218	Zn	0.756478	0.499626	-0.000134
	Zn219	Zn	0.253317	0.500732	0.000751
	Zn220	Zn	0.004608	0.749380	0.501068
	Zn221	Zn	0.003626	0.252599	0.500633
	Zn222	Zn	0.005533	0.499772	0.750528
	Zn223	Zn	0.003562	0.502137	0.250496
	Zn224	Zn	0.504758	0.752135	-0.001764
	Zn225	Zn	0.505606	0.248308	-0.000368
	Zn226	Zn	0.753124	0.000932	0.499526
	Zn227	Zn	0.256702	0.001720	0.499340
	N228	N	0.415895	0.968090	0.681987
	N229	N	0.595954	0.035804	0.682879
	N230	N	0.594789	0.966519	0.317157
	N231	N	0.416799	0.034819	0.317057
	N232	N	0.687452	0.411026	0.965111
	N233	N	0.685537	0.586919	0.034826
	N234	N	0.323827	0.587573	0.964374
	N235	N	0.324747	0.413871	0.035889
	N236	N	0.967277	0.677741	0.416419
	N237	N	0.041069	0.678835	0.586615
	N238	N	0.968066	0.322572	0.586903
	N239	N	0.039796	0.323740	0.415151
	N240	N	0.970325	0.411170	0.683082
	N241	N	0.039769	0.588797	0.682010
	N242	N	0.969815	0.591521	0.317724
	N243	N	0.038185	0.413709	0.319641
	N244	N	0.416894	0.681819	0.963801
	N245	N	0.593574	0.682909	0.033386
	N246	N	0.592726	0.318695	0.964568
	N247	N	0.416910	0.318226	0.034410
	N248	N	0.681606	0.963984	0.414902
	N249	N	0.682667	0.038380	0.584417
	N250	N	0.327937	0.965612	0.584583
	N251	N	0.327697	0.037354	0.413518
	N252	N	0.913449	0.467522	0.184226
	N253	N	0.092404	0.535989	0.181548
	N254	N	0.095834	0.466429	0.817205
	N255	N	0.916747	0.534646	0.818433
	N256	N	0.183846	0.915881	0.463968
	N257	N	0.186943	0.090242	0.534254
	N258	N	0.826098	0.085548	0.463200
	N259	N	0.822358	0.912360	0.535412
	N260	N	0.469005	0.177584	0.914650
	N261	N	0.541694	0.179250	0.086241
	N262	N	0.468948	0.823969	0.082836
	N263	N	0.541357	0.821597	0.911911
	N264	N	0.471215	0.912807	0.179493
	N265	N	0.541397	0.088485	0.180684
	N266	N	0.471372	0.090049	0.818200
	N267	N	0.540268	0.912350	0.817115
	N268	N	0.915040	0.183378	0.465483
	N269	N	0.093199	0.184065	0.534249
	N270	N	0.091306	0.820636	0.465635
	N271	N	0.915368	0.818236	0.535267
	N272	N	0.182186	0.463789	0.915677
	N273	N	0.181435	0.537632	0.085242
	N274	N	0.826561	0.463801	0.086045
	N275	N	0.827289	0.536374	0.914595
	O276	O	0.320565	0.696968	0.474577
	H277	H	0.331443	0.694075	0.476215
	H278	H	0.301627	0.702676	0.479804
	O279	O	1.197532	0.197759	1.195736
	H280	H	1.200451	0.169122	1.187147
	H281	H	1.222208	0.188770	1.218766
	O282	O	0.322279	0.583706	0.588264
	H283	H	0.315205	0.590853	0.619046
	H284	H	0.323733	0.584428	0.589750
	O285	O	0.300262	0.297535	0.523966
	H286	H	0.279426	0.287422	0.522351
	H287	H	0.293987	0.309423	0.500267
	O288	O	0.794336	1.205527	-0.016843
	H289	H	0.812719	1.207962	-0.023222
	H290	H	0.776693	1.237200	-0.013472
	O291	O	0.672732	0.290353	0.487759
	H292	H	0.659201	0.286284	0.503302
	H293	H	0.694075	0.281534	0.506747
	O294	O	-0.007139	0.209029	0.789174
	H295	H	-0.027581	0.215587	0.775207
	H296	H	-0.020691	0.211106	0.789753
	O297	O	0.318785	0.319040	0.686643
	H298	H	0.310850	0.349159	0.672350
	H299	H	0.342328	0.309205	0.666861
	O300	O	0.590478	0.413126	0.558312
	H301	H	0.569771	0.417487	0.546735
	H302	H	0.578750	0.418486	0.570598
	O303	O	0.321899	0.394931	0.408319
	H304	H	0.346433	0.398942	0.419993
	H305	H	0.321482	0.412639	0.417074
	O306	O	0.495799	0.512224	0.616821
	H307	H	0.482631	0.507048	0.607902
	H308	H	0.503943	0.511720	0.626990
	O309	O	0.688431	0.685746	0.686876
	H310	H	0.696534	0.699933	0.680397
	H311	H	0.695354	0.648276	0.682316
	O312	O	0.028689	1.221541	1.218805
	H313	H	0.060335	1.225893	1.225230
	H314	H	0.045211	1.238298	1.236883
	O315	O	-0.204643	0.791287	1.027330
	H316	H	-0.223621	0.765093	1.024206
	H317	H	-0.202125	0.810175	1.025805
	O318	O	1.026465	-0.039788	0.026411
	H319	H	1.016207	-0.035592	0.012087
	H320	H	1.013621	-0.039124	0.030867
	O321	O	0.478678	-0.353100	-0.719246
	H322	H	0.481399	-0.358663	-0.721576
	H323	H	0.475209	-0.348991	-0.728628
	O324	O	0.715752	0.524152	0.716618
	H325	H	0.713650	0.512877	0.699345
	H326	H	0.741972	0.524220	0.737765
	O327	O	-0.025731	0.217747	1.033603
	H328	H	-0.015511	0.223143	1.013642
	H329	H	-0.007745	0.226911	1.049905
	O330	O	-0.023424	1.043993	-0.088316
	H331	H	-0.004806	1.047018	-0.099372
	H332	H	-0.011845	1.053756	-0.079877
	O333	O	0.366269	0.512348	0.712243
	H334	H	0.380192	0.495637	0.712075
	H335	H	0.371011	0.519866	0.724664
	O336	O	-0.321369	-0.292150	-0.492077
	H337	H	-0.312108	-0.286395	-0.493723
	H338	H	-0.318914	-0.290732	-0.479962
	O339	O	-0.045384	0.897583	0.892049
	H340	H	-0.034575	0.897497	0.897348
	H341	H	-0.036528	0.908968	0.897795
	O342	O	0.155246	0.799362	0.851957
	H343	H	0.151571	0.800712	0.848932
	H344	H	0.155404	0.795052	0.854784
	O345	O	1.222370	1.219031	0.031242
	H346	H	1.223805	1.212035	0.053584
	H347	H	1.251511	1.246801	0.036384
	O348	O	0.711276	0.483178	0.291548
	H349	H	0.746178	0.481179	0.268605
	H350	H	0.700961	0.497221	0.311933
	O351	O	0.049209	0.891336	1.119270
	H352	H	0.035101	0.901381	1.127529
	H353	H	0.047079	0.901565	1.112636
	O354	O	0.132088	0.870232	0.102067
	H355	H	0.113198	0.886033	0.096182
	H356	H	0.129565	0.861737	0.093709
	O357	O	-0.125356	0.115585	0.889173
	H358	H	-0.131161	0.089840	0.880017
	H359	H	-0.115661	0.128103	0.911882
	O360	O	0.517458	0.303555	0.295550
	H361	H	0.534268	0.297612	0.285890
	H362	H	0.534288	0.294214	0.307225
	O363	O	0.191544	-0.141824	1.154879
	H364	H	0.176572	-0.128838	1.146941
	H365	H	0.170747	-0.131111	1.140705
	O366	O	0.659451	0.620676	0.347079
	H367	H	0.643186	0.613940	0.361524
	H368	H	0.636815	0.635731	0.353116
	O369	O	0.423928	0.432329	0.695167
	H370	H	0.436554	0.458963	0.698317
	H371	H	0.421049	0.432759	0.713100
	O372	O	1.054956	-0.137706	0.860267
	H373	H	1.054076	-0.133020	0.858706
	H374	H	1.042731	-0.143121	0.862315
	O375	O	0.512628	0.510039	0.299233
	H376	H	0.512776	0.498424	0.311912
	H377	H	0.517270	0.499544	0.288034
	O378	O	-0.175518	0.811756	0.188713
	H379	H	-0.177406	0.805882	0.185802
	H380	H	-0.186850	0.838839	0.172813
	O381	O	0.523600	0.711461	0.711077
	H382	H	0.529195	0.731223	0.724002
	H383	H	0.552933	0.717125	0.704986
	O384	O	0.411191	0.347144	0.444854
	H385	H	0.403467	0.353902	0.431619
	H386	H	0.413157	0.352001	0.439460
	O387	O	0.216995	0.051247	0.964623
	H388	H	0.215977	0.060961	0.950043
	H389	H	0.217126	0.064356	0.963786
	O390	O	0.034520	-0.105428	0.119159
	H391	H	0.023495	-0.081589	0.116987
	H392	H	0.031154	-0.126789	0.118434
	O393	O	1.204795	1.034879	1.204782
	H394	H	1.213541	1.014942	1.211548
	H395	H	1.195802	1.010837	1.207305
	O396	O	0.532901	-0.304582	0.411575
	H397	H	0.532131	-0.318164	0.410749
	H398	H	0.553361	-0.300845	0.409075
	O399	O	0.995054	0.139313	0.938416
	H400	H	1.026510	0.147725	0.937117
	H401	H	0.991912	0.144597	0.941408
	O402	O	0.800779	0.977430	1.210748
	H403	H	0.794511	0.996016	1.197246
	H404	H	0.788111	0.969290	1.223111
	O405	O	0.978642	0.988629	0.139902
	H406	H	0.961254	0.997732	0.148126
	H407	H	0.974094	1.007957	0.141352
	O408	O	0.825229	0.007165	-0.210023
	H409	H	0.797497	0.005668	-0.229394
	H410	H	0.837063	-0.021991	-0.193287
	O411	O	1.475876	1.293560	0.635058
	H412	H	1.461493	1.294291	0.642902
	H413	H	1.467213	1.281830	0.648607
	O414	O	0.455351	0.679228	0.554380
	H415	H	0.451484	0.678482	0.561257
	H416	H	0.453623	0.682629	0.550155
	O417	O	0.867172	0.999260	0.804088
	H418	H	0.875294	0.981052	0.802792
	H419	H	0.851130	1.012248	0.817050
	O420	O	0.082518	-0.188492	-0.154610
	H421	H	0.070870	-0.198884	-0.159227
	H422	H	0.087183	-0.165153	-0.145514
	O423	O	0.283920	0.532444	0.279827
	H424	H	0.251049	0.537296	0.246019
	H425	H	0.290649	0.583239	0.286004
	O426	O	0.307897	0.699617	0.309744
	H427	H	0.291424	0.726669	0.298318
	H428	H	0.334193	0.708694	0.324237
	O429	O	0.542522	0.440685	0.443786
	H430	H	0.535921	0.437700	0.452450
	H431	H	0.520596	0.432648	0.428514
	O432	O	0.680311	0.317528	0.317716
	H433	H	0.682888	0.326633	0.328103
	H434	H	0.693605	0.335535	0.337788
	O435	O	0.879447	0.888613	-0.022093
	H436	H	0.892270	0.910558	-0.004459
	H437	H	0.867991	0.877401	-0.013562
	O438	O	-0.196289	0.056843	0.072375
	H439	H	-0.178870	0.058206	0.066820
	H440	H	-0.194674	0.076400	0.060207
	O441	O	1.167869	-0.025874	-0.162951
	H442	H	1.170476	-0.021383	-0.163753
	H443	H	1.171326	-0.027238	-0.174765
	O444	O	0.090087	1.073903	0.862156
	H445	H	0.090502	1.087022	0.849132
	H446	H	0.082750	1.082043	0.871955
	O447	O	0.639729	0.413126	0.665456
	H448	H	0.621072	0.414482	0.643306
	H449	H	0.644930	0.402995	0.659412
	O450	O	0.718823	0.508957	0.492310
	H451	H	0.705611	0.515238	0.478488
	H452	H	0.721591	0.504226	0.500503
	O453	O	0.425311	0.473911	0.471226
	H454	H	0.417847	0.491476	0.475083
	H455	H	0.424349	0.490310	0.465075
