data_Molecule from HDF5

_cell_length_a		16.145588
_cell_length_b		16.327181
_cell_length_c		16.418410
_cell_angle_alpha	89.820774
_cell_angle_beta	90.276729
_cell_angle_gamma	90.369665
_symmetry_space_group_name_H-M	'P 1'
_symmetry_Int_Tables_number		1

loop_
	_symmetry_equiv_pos_as_xyz
	x,y,z

loop_
	_atom_site_label
	_atom_site_type_symbol
	_atom_site_fract_x
	_atom_site_fract_y
	_atom_site_fract_z
	H0	H	0.390685	0.824066	0.711337
	H1	H	0.606240	0.143416	0.712422
	H2	H	0.603512	0.825705	0.268639
	H3	H	0.389869	0.142980	0.267440
	H4	H	0.713179	0.383934	0.829447
	H5	H	0.720121	0.588150	0.150199
	H6	H	0.280073	0.584095	0.830336
	H7	H	0.278208	0.380723	0.152260
	H8	H	0.832635	0.699977	0.386225
	H9	H	0.157430	0.701419	0.593356
	H10	H	0.832867	0.261865	0.596601
	H11	H	0.157433	0.266866	0.388813
	H12	H	0.832721	0.377869	0.711200
	H13	H	0.157914	0.586511	0.708753
	H14	H	0.836045	0.589945	0.267569
	H15	H	0.156485	0.377297	0.271867
	H16	H	0.394080	0.703209	0.832110
	H17	H	0.607223	0.707031	0.149967
	H18	H	0.600306	0.265917	0.830252
	H19	H	0.389774	0.260297	0.150087
	H20	H	0.711951	0.822052	0.389644
	H21	H	0.717104	0.144753	0.592452
	H22	H	0.279517	0.821237	0.590313
	H23	H	0.276882	0.144483	0.385638
	H24	H	0.889044	0.323979	0.212641
	H25	H	0.105320	0.643412	0.214286
	H26	H	0.096943	0.322504	0.774131
	H27	H	0.890564	0.643713	0.769811
	H28	H	0.213283	0.881772	0.329496
	H29	H	0.215697	0.084596	0.650765
	H30	H	0.777806	0.084362	0.329498
	H31	H	0.779705	0.882368	0.652280
	H32	H	0.333275	0.198399	0.889599
	H33	H	0.659562	0.203322	0.093783
	H34	H	0.335965	0.764051	0.093757
	H35	H	0.660652	0.769876	0.891036
	H36	H	0.335138	0.877639	0.209383
	H37	H	0.658778	0.089793	0.210178
	H38	H	0.334597	0.085364	0.772586
	H39	H	0.660182	0.883143	0.774875
	H40	H	0.887337	0.206519	0.332264
	H41	H	0.100223	0.203069	0.651070
	H42	H	0.099211	0.763444	0.330965
	H43	H	0.891300	0.763759	0.651175
	H44	H	0.209643	0.321769	0.893749
	H45	H	0.214757	0.646101	0.092971
	H46	H	0.778221	0.322245	0.090941
	H47	H	0.781542	0.646592	0.889689
	H48	H	0.405953	0.098110	0.577627
	H49	H	0.578023	0.870016	0.587995
	H50	H	0.584571	0.098008	0.400781
	H51	H	0.399629	0.867751	0.400423
	H52	H	0.585425	0.392157	0.104764
	H53	H	0.586131	0.574765	0.878790
	H54	H	0.408679	0.568250	0.104314
	H55	H	0.396217	0.391397	0.874962
	H56	H	0.111838	0.573502	0.401861
	H57	H	0.877572	0.570469	0.583571
	H58	H	0.111662	0.399574	0.591004
	H59	H	0.878707	0.392751	0.401605
	H60	H	0.113842	0.385389	0.583221
	H61	H	0.877978	0.575395	0.580096
	H62	H	0.110996	0.575559	0.404250
	H63	H	0.881378	0.396878	0.406378
	H64	H	0.413013	0.578831	0.106355
	H65	H	0.584869	0.579534	0.876952
	H66	H	0.588672	0.396211	0.104073
	H67	H	0.407084	0.399030	0.879710
	H68	H	0.584338	0.098718	0.401682
	H69	H	0.585992	0.871547	0.575170
	H70	H	0.406359	0.100581	0.585004
	H71	H	0.409628	0.867989	0.393343
	H72	H	0.909180	0.597655	0.079038
	H73	H	0.083228	0.366380	0.093267
	H74	H	0.093347	0.599987	0.904013
	H75	H	0.909338	0.373364	0.912032
	H76	H	0.085423	0.895633	0.603154
	H77	H	0.084786	0.070825	0.377839
	H78	H	0.915355	0.079749	0.603749
	H79	H	0.903255	0.889085	0.375439
	H80	H	0.611611	0.070689	0.902752
	H81	H	0.376019	0.076975	0.090140
	H82	H	0.612400	0.901685	0.083945
	H83	H	0.381028	0.894097	0.901510
	H84	H	0.614718	0.893557	0.083659
	H85	H	0.382420	0.079151	0.068269
	H86	H	0.615854	0.076345	0.894550
	H87	H	0.380365	0.894482	0.898443
	H88	H	0.898458	0.074194	0.607104
	H89	H	0.080731	0.079694	0.376736
	H90	H	0.083496	0.889678	0.604231
	H91	H	0.902281	0.892180	0.375343
	H92	H	0.087962	0.603071	0.891173
	H93	H	0.077297	0.373909	0.078554
	H94	H	0.911648	0.597954	0.083218
	H95	H	0.892826	0.364110	0.897846
	H96	H	0.412420	0.096912	0.581255
	H97	H	0.592088	0.864954	0.587475
	H98	H	0.585347	0.097992	0.400501
	H99	H	0.409978	0.872219	0.405586
	H100	H	0.583973	0.395719	0.102975
	H101	H	0.589433	0.577668	0.876105
	H102	H	0.401939	0.576679	0.108780
	H103	H	0.408967	0.386127	0.875837
	H104	H	0.110537	0.572060	0.404542
	H105	H	0.880374	0.569936	0.579032
	H106	H	0.106227	0.397661	0.575631
	H107	H	0.880556	0.399616	0.401001
	H108	H	0.912793	0.595902	0.078599
	H109	H	0.093974	0.367888	0.079446
	H110	H	0.079488	0.596598	0.901201
	H111	H	0.914603	0.368625	0.890415
	H112	H	0.089691	0.891340	0.605520
	H113	H	0.089494	0.078404	0.373829
	H114	H	0.910440	0.063322	0.600672
	H115	H	0.905763	0.890739	0.376413
	H116	H	0.615390	0.081609	0.903870
	H117	H	0.385605	0.059795	0.078869
	H118	H	0.610942	0.897111	0.076169
	H119	H	0.379921	0.890957	0.899865
	C120	C	0.376196	-0.007917	0.611745
	C121	C	0.618597	0.975057	0.613781
	C122	C	0.616828	-0.007488	0.369571
	C123	C	0.374288	0.974980	0.367655
	C124	C	0.617128	0.364114	-0.001741
	C125	C	0.620009	0.607723	0.982602
	C126	C	0.376703	0.605318	0.000575
	C127	C	0.373244	0.360928	0.982735
	C128	C	0.004675	0.605059	0.370167
	C129	C	0.986071	0.604112	0.612162
	C130	C	0.003515	0.361595	0.614151
	C131	C	0.986825	0.364108	0.371344
	C132	C	0.876781	0.491726	0.111830
	C133	C	0.117909	0.475359	0.114778
	C134	C	0.116799	0.492725	0.869897
	C135	C	0.874653	0.475488	0.869060
	C136	C	0.116999	0.861700	0.498640
	C137	C	0.117494	0.106440	0.482175
	C138	C	0.874351	0.104702	0.498785
	C139	C	0.872972	0.860508	0.482156
	C140	C	0.506677	0.105789	0.869057
	C141	C	0.488437	0.104969	0.111505
	C142	C	0.506195	0.863666	0.112407
	C143	C	0.488529	0.863619	0.870290
	C144	C	0.373154	0.871633	0.670995
	C145	C	0.622884	0.095659	0.672255
	C146	C	0.620174	0.872933	0.309292
	C147	C	0.371850	0.095194	0.307634
	C148	C	0.674790	0.364539	0.877790
	C149	C	0.680457	0.607735	0.102589
	C150	C	0.318638	0.604404	0.879139
	C151	C	0.316075	0.360471	0.103674
	C152	C	0.882034	0.662501	0.367469
	C153	C	0.108575	0.662826	0.612647
	C154	C	0.881523	0.301794	0.614894
	C155	C	0.108571	0.305351	0.370298
	C156	C	0.881503	0.359301	0.672225
	C157	C	0.108875	0.605573	0.670111
	C158	C	0.883594	0.607431	0.308636
	C159	C	0.108287	0.360875	0.311996
	C160	C	0.375502	0.663711	0.879896
	C161	C	0.624134	0.666844	0.102447
	C162	C	0.618148	0.305728	0.878099
	C163	C	0.371996	0.300838	0.102491
	C164	C	0.674394	0.871097	0.369684
	C165	C	0.678316	0.096272	0.612756
	C166	C	0.317661	0.870422	0.610949
	C167	C	0.315780	0.095993	0.366713
	C168	C	0.872081	0.371658	0.171974
	C169	C	0.121853	0.595853	0.173759
	C170	C	0.116148	0.370922	0.813285
	C171	C	0.872695	0.596032	0.809840
	C172	C	0.174528	0.862171	0.377787
	C173	C	0.176356	0.105138	0.602779
	C174	C	0.815730	0.104769	0.378069
	C175	C	0.816797	0.861669	0.603613
	C176	C	0.382802	0.161085	0.869317
	C177	C	0.610645	0.164609	0.113014
	C178	C	0.384329	0.803465	0.112939
	C179	C	0.611569	0.807492	0.871308
	C180	C	0.383984	0.860100	0.170329
	C181	C	0.610110	0.107907	0.170977
	C182	C	0.383595	0.104837	0.811221
	C183	C	0.611275	0.863729	0.813261
	C184	C	0.870419	0.165708	0.379375
	C185	C	0.118964	0.163940	0.602853
	C186	C	0.117680	0.803242	0.378586
	C187	C	0.872693	0.802548	0.602838
	C188	C	0.172285	0.370472	0.872801
	C189	C	0.176617	0.597168	0.113464
	C190	C	0.816647	0.370812	0.111805
	C191	C	0.818645	0.597523	0.869809
	C192	C	0.401054	0.076499	0.588093
	C193	C	0.592810	0.890886	0.590147
	C194	C	0.591996	0.076328	0.393955
	C195	C	0.399330	0.891176	0.392619
	C196	C	0.593006	0.387897	0.082270
	C197	C	0.594386	0.584172	0.899069
	C198	C	0.400764	0.581413	0.084705
	C199	C	0.397025	0.385212	0.898843
	C200	C	0.089100	0.580631	0.396081
	C201	C	0.900722	0.579192	0.587902
	C202	C	0.088561	0.386827	0.590221
	C203	C	0.902251	0.389207	0.395654
	C204	C	0.903347	0.575521	0.087279
	C205	C	0.092284	0.391418	0.090828
	C206	C	0.093636	0.577621	0.892141
	C207	C	0.898581	0.390720	0.893133
	C208	C	0.093074	0.885400	0.582529
	C209	C	0.092420	0.082971	0.397981
	C210	C	0.900547	0.079547	0.582285
	C211	C	0.896676	0.884093	0.397717
	C212	C	0.592120	0.082965	0.893037
	C213	C	0.403324	0.079321	0.086505
	C214	C	0.590859	0.889614	0.088337
	C215	C	0.402955	0.886605	0.893201
	Zn216	Zn	0.497262	-0.016026	0.741843
	Zn217	Zn	0.496548	-0.015727	0.240033
	Zn218	Zn	0.747517	0.484417	-0.009422
	Zn219	Zn	0.245829	0.484146	-0.007533
	Zn220	Zn	-0.005276	0.732216	0.490800
	Zn221	Zn	-0.005360	0.235297	0.490856
	Zn222	Zn	-0.005129	0.484006	0.740887
	Zn223	Zn	-0.003372	0.483757	0.242883
	Zn224	Zn	0.497950	0.735756	-0.008385
	Zn225	Zn	0.496766	0.233215	-0.009415
	Zn226	Zn	0.745392	-0.016654	0.490505
	Zn227	Zn	0.246655	-0.016297	0.489970
	N228	N	0.408824	0.948244	0.671665
	N229	N	0.586338	0.019434	0.673067
	N230	N	0.585163	0.949402	0.309015
	N231	N	0.407419	0.018936	0.308077
	N232	N	0.673919	0.400391	0.953411
	N233	N	0.678179	0.571709	0.027165
	N234	N	0.319264	0.568691	0.955165
	N235	N	0.316507	0.397022	0.028172
	N236	N	0.958195	0.661061	0.405305
	N237	N	0.031174	0.661786	0.577356
	N238	N	0.958526	0.303018	0.579461
	N239	N	0.032334	0.307417	0.406664
	N240	N	0.958332	0.396084	0.671691
	N241	N	0.031613	0.569751	0.669999
	N242	N	0.960796	0.572390	0.310082
	N243	N	0.031411	0.396769	0.312451
	N244	N	0.410629	0.664468	0.956359
	N245	N	0.587402	0.666911	0.026765
	N246	N	0.582921	0.305346	0.954093
	N247	N	0.407030	0.301091	0.026305
	N248	N	0.672346	0.946461	0.406695
	N249	N	0.675832	0.020199	0.577092
	N250	N	0.319344	0.946442	0.574891
	N251	N	0.317250	0.020270	0.403399
	N252	N	0.908499	0.447879	0.172257
	N253	N	0.086509	0.519007	0.174902
	N254	N	0.082272	0.448009	0.811428
	N255	N	0.906612	0.519041	0.809325
	N256	N	0.173976	0.898192	0.453347
	N257	N	0.175743	0.070517	0.526555
	N258	N	0.818355	0.067482	0.453195
	N259	N	0.816479	0.896844	0.527485
	N260	N	0.460120	0.161953	0.904677
	N261	N	0.533765	0.162907	0.076733
	N262	N	0.461346	0.805246	0.077966
	N263	N	0.534304	0.807499	0.906334
	N264	N	0.460860	0.896829	0.170206
	N265	N	0.532937	0.071721	0.170041
	N266	N	0.461658	0.071468	0.810664
	N267	N	0.533771	0.897917	0.812563
	N268	N	0.905938	0.165886	0.455671
	N269	N	0.083279	0.164987	0.526558
	N270	N	0.082533	0.802959	0.454649
	N271	N	0.906878	0.801779	0.526210
	N272	N	0.172915	0.447112	0.907192
	N273	N	0.174421	0.521268	0.077545
	N274	N	0.819356	0.446556	0.075283
	N275	N	0.819619	0.521329	0.905857
	O276	O	0.684710	0.581240	0.586885
	H277	H	0.687599	0.602331	0.596497
	H278	H	0.685314	0.571484	0.586697
	O279	O	0.438256	0.405613	0.616364
	H280	H	0.441263	0.397107	0.628479
	H281	H	0.438330	0.393753	0.613157
	O282	O	0.890990	-0.025309	0.988539
	H283	H	0.888755	-0.020297	0.990940
	H284	H	0.887531	-0.024451	0.982178
	O285	O	0.354107	0.376307	0.423201
	H286	H	0.352949	0.374954	0.430279
	H287	H	0.358882	0.384955	0.434154
	O288	O	0.935972	0.884030	0.981021
	H289	H	0.931199	0.891673	0.974522
	H290	H	0.942696	0.878906	0.968025
	O291	O	-0.017371	0.895225	0.001154
	H292	H	-0.004391	0.898113	-0.004821
	H293	H	-0.025913	0.880592	0.010131
	O294	O	0.416175	0.498903	0.526970
	H295	H	0.422445	0.494857	0.528890
	H296	H	0.421735	0.502958	0.508452
	O297	O	0.359785	0.448600	0.673001
	H298	H	0.386382	0.431790	0.681484
	H299	H	0.358216	0.450195	0.646916
	O300	O	0.540482	0.382675	0.310378
	H301	H	0.529893	0.378430	0.320673
	H302	H	0.511966	0.374728	0.304206
	O303	O	0.601815	0.660942	0.668480
	H304	H	0.596670	0.669766	0.660028
	H305	H	0.597760	0.638525	0.675347
	O306	O	0.573827	0.332657	0.621445
	H307	H	0.564698	0.322884	0.606421
	H308	H	0.575774	0.313880	0.627157
	O309	O	0.467818	0.568081	0.484617
	H310	H	0.477414	0.567645	0.482680
	H311	H	0.464536	0.566252	0.492820
	O312	O	-0.059633	-0.112774	-0.095217
	H313	H	-0.048357	-0.108725	-0.091660
	H314	H	-0.061837	-0.125873	-0.098959
	O315	O	0.361951	0.516633	0.678375
	H316	H	0.365110	0.513796	0.676425
	H317	H	0.388007	0.522016	0.683953
	O318	O	0.022623	0.998603	1.028852
	H319	H	0.042210	1.006518	1.037001
	H320	H	0.025325	0.985993	1.021870
	O321	O	0.297539	0.307299	0.622872
	H322	H	0.308026	0.335312	0.614863
	H323	H	0.278412	0.297270	0.637388
	O324	O	0.085114	0.915453	0.121553
	H325	H	0.082357	0.908869	0.112155
	H326	H	0.090923	0.916862	0.142179
	O327	O	0.608406	0.439424	0.310688
	H328	H	0.622765	0.432522	0.305877
	H329	H	0.600116	0.418359	0.307943
	O330	O	0.074505	-0.133019	1.065376
	H331	H	0.071126	-0.134540	1.061303
	H332	H	0.088081	-0.137902	1.068743
	O333	O	0.000128	0.134114	0.964037
	H334	H	0.000648	0.136036	0.979628
	H335	H	0.003112	0.131288	0.969372
	O336	O	0.367986	0.646412	0.564817
	H337	H	0.378598	0.651038	0.562929
	H338	H	0.369899	0.625202	0.569959
	O339	O	0.325608	0.494999	0.316713
	H340	H	0.312434	0.481575	0.322244
	H341	H	0.312997	0.520825	0.312994
	O342	O	0.320011	-0.340586	0.318492
	H343	H	0.308078	-0.361094	0.335914
	H344	H	0.336101	-0.331852	0.339724
	O345	O	1.532405	0.349186	1.524475
	H346	H	1.540934	0.346442	1.509661
	H347	H	1.535899	0.341960	1.507786
	O348	O	1.018571	1.120316	-0.149777
	H349	H	1.013110	1.126080	-0.135864
	H350	H	1.007448	1.106613	-0.158527
	O351	O	0.521472	0.602221	0.519549
	H352	H	0.529935	0.605641	0.508045
	H353	H	0.540611	0.591789	0.515159
	O354	O	0.990071	0.071139	1.011377
	H355	H	0.981085	0.076656	1.020072
	H356	H	0.990321	0.062972	1.007505
	O357	O	0.546736	0.358548	0.286793
	H358	H	0.559122	0.370251	0.279705
	H359	H	0.529209	0.375383	0.278132
	O360	O	0.816818	0.723041	0.893161
	H361	H	0.834840	0.729922	0.897856
	H362	H	0.814919	0.725373	0.892684
	O363	O	0.127639	1.051210	1.045288
	H364	H	0.108720	1.049149	1.043282
	H365	H	0.118888	1.038122	1.046391
	O366	O	0.679559	0.495616	0.430235
	H367	H	0.663772	0.512582	0.429131
	H368	H	0.695268	0.484433	0.420076
	O369	O	0.040468	1.120297	0.132692
	H370	H	0.062739	1.101137	0.131326
	H371	H	0.045698	1.139871	0.149610
	O372	O	0.650477	0.461148	0.598731
	H373	H	0.653180	0.452811	0.595506
	H374	H	0.672259	0.444638	0.605454
	O375	O	0.615681	0.482899	0.315857
	H376	H	0.623875	0.500882	0.317372
	H377	H	0.623300	0.490984	0.314802
	O378	O	1.041050	0.924103	-0.049829
	H379	H	1.029137	0.937820	-0.054090
	H380	H	1.034820	0.927761	-0.041321
	O381	O	0.921947	0.087328	-0.011217
	H382	H	0.921333	0.088914	-0.012109
	H383	H	0.919161	0.077120	-0.005707
	O384	O	1.117910	0.984773	-0.107130
	H385	H	1.120050	0.990511	-0.117821
	H386	H	1.119254	0.979029	-0.099926
	O387	O	-0.706466	0.444587	0.483301
	H388	H	-0.714433	0.424852	0.497024
	H389	H	-0.710945	0.451172	0.501433
	O390	O	0.015821	1.027502	0.022163
	H391	H	0.014898	1.031205	0.020252
	H392	H	0.015300	1.028664	0.025091
	O393	O	1.090946	1.056006	0.968671
	H394	H	1.109464	1.055854	0.957946
	H395	H	1.096220	1.046019	0.981383
	O396	O	0.611163	0.686206	0.451158
	H397	H	0.619932	0.693185	0.441011
	H398	H	0.607886	0.680814	0.468645
	O399	O	0.107859	0.813671	0.918321
	H400	H	0.094912	0.804778	0.913375
	H401	H	0.096333	0.813642	0.913699
	O402	O	0.475900	0.696137	0.275628
	H403	H	0.480497	0.718886	0.268579
	H404	H	0.452615	0.702956	0.271078
	O405	O	0.866647	0.894473	0.050795
	H406	H	0.860212	0.901114	0.042767
	H407	H	0.868990	0.903769	0.042953
	O408	O	0.904851	0.930515	-0.044143
	H409	H	0.905449	0.923098	-0.046112
	H410	H	0.896778	0.921095	-0.046023
	O411	O	1.010407	0.106419	1.102215
	H412	H	1.005941	0.100839	1.096067
	H413	H	1.033724	0.121440	1.096883
	O414	O	0.516357	0.276860	0.501897
	H415	H	0.501408	0.267635	0.505890
	H416	H	0.495539	0.278675	0.481924
	O417	O	0.555968	0.352990	0.537717
	H418	H	0.548393	0.360505	0.533171
	H419	H	0.554445	0.344304	0.526357
