data_Molecule from HDF5

_cell_length_a		16.320233
_cell_length_b		16.068159
_cell_length_c		16.306657
_cell_angle_alpha	90.053357
_cell_angle_beta	90.013716
_cell_angle_gamma	90.029223
_symmetry_space_group_name_H-M	'P 1'
_symmetry_Int_Tables_number		1

loop_
	_symmetry_equiv_pos_as_xyz
	x,y,z

loop_
	_atom_site_label
	_atom_site_type_symbol
	_atom_site_fract_x
	_atom_site_fract_y
	_atom_site_fract_z
	H0	H	0.391605	0.838431	0.715464
	H1	H	0.590083	0.168765	0.715966
	H2	H	0.589268	0.837824	0.288522
	H3	H	0.392536	0.170019	0.288294
	H4	H	0.707964	0.402432	0.838950
	H5	H	0.707542	0.604961	0.164789
	H6	H	0.273411	0.604100	0.839616
	H7	H	0.275011	0.402744	0.165362
	H8	H	0.826746	0.716524	0.405784
	H9	H	0.155537	0.717264	0.599241
	H10	H	0.827074	0.290156	0.598522
	H11	H	0.155782	0.291708	0.406582
	H12	H	0.828410	0.401614	0.718189
	H13	H	0.153160	0.605952	0.720073
	H14	H	0.828829	0.605138	0.284974
	H15	H	0.154486	0.403709	0.285654
	H16	H	0.394471	0.715705	0.837264
	H17	H	0.587176	0.716261	0.166337
	H18	H	0.585208	0.292457	0.836746
	H19	H	0.395684	0.291448	0.166723
	H20	H	0.704732	0.838713	0.402569
	H21	H	0.705126	0.169094	0.601784
	H22	H	0.276951	0.838817	0.600386
	H23	H	0.277946	0.169899	0.402927
	H24	H	0.892995	0.338254	0.214788
	H25	H	0.089534	0.669590	0.214683
	H26	H	0.089095	0.338815	0.788382
	H27	H	0.892142	0.669253	0.789206
	H28	H	0.207126	0.903581	0.338806
	H29	H	0.207940	0.104838	0.664342
	H30	H	0.774693	0.104994	0.339638
	H31	H	0.774542	0.902629	0.664927
	H32	H	0.326309	0.215214	0.905957
	H33	H	0.655202	0.215975	0.097434
	H34	H	0.326431	0.790197	0.097317
	H35	H	0.654604	0.790628	0.906081
	H36	H	0.327798	0.903038	0.217479
	H37	H	0.653737	0.103907	0.218373
	H38	H	0.328281	0.103190	0.785852
	H39	H	0.653654	0.902941	0.785697
	H40	H	0.896672	0.214741	0.337475
	H41	H	0.087843	0.216909	0.666045
	H42	H	0.086898	0.791432	0.337059
	H43	H	0.895411	0.791275	0.666513
	H44	H	0.202920	0.337895	0.903674
	H45	H	0.204112	0.668463	0.099762
	H46	H	0.778366	0.337713	0.099600
	H47	H	0.776153	0.668106	0.901774
	H48	H	0.396203	0.124659	0.600477
	H49	H	0.587913	0.885003	0.589599
	H50	H	0.585131	0.120051	0.416765
	H51	H	0.405561	0.887119	0.403778
	H52	H	0.580378	0.409945	0.117803
	H53	H	0.581089	0.590534	0.888364
	H54	H	0.391881	0.590008	0.118394
	H55	H	0.402778	0.407642	0.886449
	H56	H	0.112352	0.600236	0.395737
	H57	H	0.875628	0.588235	0.602651
	H58	H	0.109821	0.411311	0.604657
	H59	H	0.874251	0.416989	0.400778
	H60	H	0.107894	0.405454	0.591810
	H61	H	0.870844	0.606051	0.600264
	H62	H	0.107546	0.605442	0.417051
	H63	H	0.871906	0.402256	0.406218
	H64	H	0.403757	0.593714	0.115691
	H65	H	0.583574	0.601673	0.884889
	H66	H	0.589438	0.405931	0.120906
	H67	H	0.389240	0.404791	0.881905
	H68	H	0.588463	0.125012	0.405266
	H69	H	0.584206	0.882810	0.600282
	H70	H	0.405866	0.120609	0.594723
	H71	H	0.399120	0.889021	0.417906
	H72	H	0.904953	0.618344	0.090315
	H73	H	0.082078	0.382440	0.103477
	H74	H	0.073700	0.617961	0.914273
	H75	H	0.900233	0.385600	0.908522
	H76	H	0.094539	0.909804	0.621335
	H77	H	0.093547	0.104412	0.380504
	H78	H	0.894487	0.098533	0.620007
	H79	H	0.895469	0.914657	0.386508
	H80	H	0.604433	0.087950	0.911482
	H81	H	0.373019	0.101768	0.095282
	H82	H	0.608064	0.910801	0.099516
	H83	H	0.370984	0.905440	0.900855
	H84	H	0.608012	0.908437	0.094654
	H85	H	0.375784	0.093538	0.094548
	H86	H	0.610617	0.096443	0.897809
	H87	H	0.375411	0.907679	0.914757
	H88	H	0.896609	0.092161	0.618157
	H89	H	0.088846	0.086084	0.387885
	H90	H	0.083650	0.920603	0.615321
	H91	H	0.899315	0.909937	0.386449
	H92	H	0.091392	0.622756	0.918058
	H93	H	0.076920	0.388241	0.090352
	H94	H	0.891701	0.623080	0.090208
	H95	H	0.898728	0.385557	0.911172
	H96	H	0.395447	0.122476	0.588685
	H97	H	0.576920	0.888197	0.592722
	H98	H	0.576169	0.120571	0.407068
	H99	H	0.390534	0.881904	0.405925
	H100	H	0.588735	0.415981	0.117463
	H101	H	0.591529	0.593719	0.883868
	H102	H	0.395436	0.601969	0.120780
	H103	H	0.392410	0.418579	0.886685
	H104	H	0.103453	0.584471	0.409373
	H105	H	0.878138	0.596260	0.586159
	H106	H	0.105070	0.418921	0.593086
	H107	H	0.877480	0.413466	0.415536
	H108	H	0.899035	0.624297	0.101323
	H109	H	0.090082	0.383686	0.091564
	H110	H	0.084131	0.625822	0.900594
	H111	H	0.897469	0.384444	0.908621
	H112	H	0.079171	0.905009	0.618994
	H113	H	0.074930	0.100770	0.386478
	H114	H	0.900943	0.097822	0.617918
	H115	H	0.893844	0.909195	0.383837
	H116	H	0.608257	0.104764	0.912348
	H117	H	0.372533	0.096601	0.101984
	H118	H	0.605716	0.914038	0.095017
	H119	H	0.375650	0.919082	0.904216
	C120	C	0.370093	0.012763	0.622964
	C121	C	0.611938	0.994785	0.623233
	C122	C	0.611672	0.012466	0.380632
	C123	C	0.369852	0.995604	0.380458
	C124	C	0.613643	0.382163	0.010203
	C125	C	0.613211	0.624696	0.993814
	C126	C	0.368689	0.624386	0.010205
	C127	C	0.368114	0.382068	0.993650
	C128	C	-0.000399	0.625048	0.379812
	C129	C	0.982861	0.625741	0.624366
	C130	C	-0.000447	0.382487	0.624484
	C131	C	0.982861	0.382065	0.379548
	C132	C	0.870121	0.512344	0.122742
	C133	C	0.111775	0.494505	0.123372
	C134	C	0.111438	0.512413	0.882013
	C135	C	0.869674	0.494537	0.880725
	C136	C	0.113281	0.882601	0.510117
	C137	C	0.113961	0.126368	0.493034
	C138	C	0.869209	0.125190	0.510613
	C139	C	0.868749	0.882311	0.494079
	C140	C	0.499361	0.125119	0.879676
	C141	C	0.482192	0.125727	0.124737
	C142	C	0.499122	0.882139	0.123951
	C143	C	0.481949	0.881915	0.879100
	C144	C	0.371990	0.887990	0.677714
	C145	C	0.610398	0.119389	0.678461
	C146	C	0.609321	0.887569	0.325856
	C147	C	0.372468	0.120579	0.325995
	C148	C	0.668745	0.383550	0.887288
	C149	C	0.668798	0.624031	0.116456
	C150	C	0.312298	0.623638	0.887837
	C151	C	0.313476	0.383448	0.116809
	C152	C	0.875931	0.679393	0.384112
	C153	C	0.106398	0.680282	0.620708
	C154	C	0.876295	0.327463	0.620024
	C155	C	0.106565	0.328378	0.384391
	C156	C	0.876819	0.383162	0.679550
	C157	C	0.105096	0.624792	0.680644
	C158	C	0.876808	0.623961	0.324181
	C159	C	0.105703	0.384041	0.324299
	C160	C	0.372773	0.678763	0.886548
	C161	C	0.609113	0.679605	0.117067
	C162	C	0.608207	0.328412	0.886416
	C163	C	0.373214	0.327933	0.117432
	C164	C	0.666823	0.887963	0.382481
	C165	C	0.667392	0.119605	0.621462
	C166	C	0.314879	0.888281	0.620450
	C167	C	0.315614	0.120646	0.383143
	C168	C	0.872564	0.387576	0.177424
	C169	C	0.109236	0.619821	0.177121
	C170	C	0.109145	0.388074	0.826461
	C171	C	0.872058	0.619564	0.826231
	C172	C	0.168587	0.883769	0.387286
	C173	C	0.169539	0.124809	0.615800
	C174	C	0.813770	0.124019	0.388001
	C175	C	0.813439	0.883597	0.616550
	C176	C	0.375616	0.178706	0.884216
	C177	C	0.605978	0.179513	0.119998
	C178	C	0.375439	0.827430	0.119066
	C179	C	0.605726	0.827847	0.884066
	C180	C	0.376005	0.883481	0.178489
	C181	C	0.605182	0.123764	0.179820
	C182	C	0.376708	0.123002	0.824494
	C183	C	0.605251	0.883608	0.824493
	C184	C	0.873882	0.179174	0.386944
	C185	C	0.109709	0.180145	0.616901
	C186	C	0.109085	0.827975	0.386547
	C187	C	0.873807	0.828426	0.617464
	C188	C	0.165476	0.387512	0.883708
	C189	C	0.166791	0.619126	0.120813
	C190	C	0.815630	0.387276	0.120236
	C191	C	0.814379	0.619114	0.882154
	C192	C	0.392536	0.100036	0.601060
	C193	C	0.589614	0.907794	0.600771
	C194	C	0.589800	0.099417	0.403040
	C195	C	0.391795	0.908579	0.402637
	C196	C	0.592603	0.404225	0.096470
	C197	C	0.591669	0.601915	0.907883
	C198	C	0.390575	0.601763	0.095975
	C199	C	0.388615	0.404047	0.907377
	C200	C	0.085408	0.603110	0.401054
	C201	C	0.897186	0.603409	0.602731
	C202	C	0.085408	0.405204	0.602978
	C203	C	0.896728	0.404288	0.401060
	C204	C	0.892034	0.599436	0.100283
	C205	C	0.089659	0.407240	0.101621
	C206	C	0.089517	0.599799	0.904461
	C207	C	0.891999	0.407553	0.902851
	C208	C	0.092070	0.905071	0.596269
	C209	C	0.092162	0.103754	0.407301
	C210	C	0.890985	0.102889	0.596575
	C211	C	0.890016	0.904669	0.407702
	C212	C	0.585684	0.103113	0.900918
	C213	C	0.396104	0.103823	0.103600
	C214	C	0.584944	0.904343	0.102575
	C215	C	0.396154	0.904156	0.900184
	Zn216	Zn	0.491290	0.003614	0.750537
	Zn217	Zn	0.490426	0.003377	0.253157
	Zn218	Zn	0.742738	0.503749	0.001770
	Zn219	Zn	0.238915	0.502802	0.002302
	Zn220	Zn	-0.008561	0.753765	0.502162
	Zn221	Zn	-0.008800	0.253862	0.502326
	Zn222	Zn	-0.009086	0.503811	0.753884
	Zn223	Zn	-0.009135	0.503955	0.250599
	Zn224	Zn	0.490862	0.753469	0.001728
	Zn225	Zn	0.490498	0.253920	0.001934
	Zn226	Zn	0.739550	0.003918	0.502039
	Zn227	Zn	0.242307	0.004237	0.501386
	N228	N	0.405758	0.966387	0.679104
	N229	N	0.576483	0.041003	0.679354
	N230	N	0.575665	0.965947	0.324609
	N231	N	0.405537	0.041796	0.324317
	N232	N	0.672180	0.416177	0.965283
	N233	N	0.671445	0.590503	0.038607
	N234	N	0.309802	0.590392	0.965560
	N235	N	0.309988	0.416082	0.038719
	N236	N	0.953084	0.680157	0.418170
	N237	N	0.029391	0.680998	0.586493
	N238	N	0.953521	0.327039	0.586373
	N239	N	0.029128	0.327003	0.417917
	N240	N	0.954420	0.416813	0.682319
	N241	N	0.027350	0.591759	0.683281
	N242	N	0.954460	0.591008	0.321423
	N243	N	0.027693	0.416651	0.321413
	N244	N	0.407174	0.679452	0.963657
	N245	N	0.575161	0.680103	0.039900
	N246	N	0.574527	0.327544	0.963773
	N247	N	0.406488	0.327090	0.039976
	N248	N	0.668522	0.966468	0.416027
	N249	N	0.668519	0.040978	0.587713
	N250	N	0.313692	0.966920	0.587182
	N251	N	0.313912	0.042058	0.416374
	N252	N	0.905687	0.466298	0.178872
	N253	N	0.075758	0.541217	0.178775
	N254	N	0.076156	0.466797	0.825310
	N255	N	0.905767	0.541023	0.825136
	N256	N	0.171352	0.917006	0.465078
	N257	N	0.171781	0.091624	0.538004
	N258	N	0.810718	0.091342	0.465819
	N259	N	0.810286	0.916235	0.538561
	N260	N	0.452933	0.180000	0.918029
	N261	N	0.528693	0.180819	0.086225
	N262	N	0.453052	0.826368	0.086042
	N263	N	0.528448	0.826747	0.917329
	N264	N	0.453596	0.916514	0.181720
	N265	N	0.527185	0.091066	0.182806
	N266	N	0.454560	0.090386	0.821835
	N267	N	0.527365	0.916367	0.821184
	N268	N	0.907905	0.179708	0.464135
	N269	N	0.076193	0.181544	0.539584
	N270	N	0.075420	0.827081	0.463920
	N271	N	0.907185	0.827329	0.540093
	N272	N	0.166695	0.465946	0.917571
	N273	N	0.168260	0.540326	0.087865
	N274	N	0.814099	0.465966	0.086838
	N275	N	0.812956	0.540554	0.915384
	O276	O	0.509739	-0.494109	0.533687
	H277	H	0.507969	-0.491485	0.538145
	H278	H	0.524054	-0.487911	0.526319
	O279	O	0.566902	0.539171	0.491758
	H280	H	0.566499	0.542532	0.491605
	H281	H	0.578021	0.539706	0.496925
	O282	O	0.504514	0.541298	0.471457
	H283	H	0.499691	0.543162	0.469107
	H284	H	0.506573	0.547814	0.462352
	O285	O	0.453314	0.555769	0.518078
	H286	H	0.451584	0.557415	0.524947
	H287	H	0.455936	0.555269	0.517214
	O288	O	0.472371	0.552245	0.496093
	H289	H	0.464556	0.548572	0.497197
	H290	H	0.467188	0.549142	0.494302
	O291	O	0.485233	0.516942	0.479296
	H292	H	0.495999	0.519615	0.480180
	H293	H	0.486683	0.516400	0.471940
	O294	O	0.503115	0.528446	0.531822
	H295	H	0.506445	0.529230	0.527308
	H296	H	0.501334	0.516334	0.534851
	O297	O	1.538978	0.506656	0.476393
	H298	H	1.538847	0.517766	0.473939
	H299	H	1.532541	0.497656	0.477353
