data_Molecule from HDF5

_cell_length_a		16.336953
_cell_length_b		16.500837
_cell_length_c		16.420948
_cell_angle_alpha	89.863631
_cell_angle_beta	89.911163
_cell_angle_gamma	90.150783
_symmetry_space_group_name_H-M	'P 1'
_symmetry_Int_Tables_number		1

loop_
	_symmetry_equiv_pos_as_xyz
	x,y,z

loop_
	_atom_site_label
	_atom_site_type_symbol
	_atom_site_fract_x
	_atom_site_fract_y
	_atom_site_fract_z
	H0	H	0.395653	0.849642	0.715944
	H1	H	0.607824	0.165439	0.714803
	H2	H	0.608290	0.850534	0.271394
	H3	H	0.400819	0.167404	0.274652
	H4	H	0.717793	0.406493	0.834419
	H5	H	0.719160	0.610741	0.154499
	H6	H	0.281898	0.610754	0.833735
	H7	H	0.279981	0.406470	0.154047
	H8	H	0.843790	0.732731	0.385820
	H9	H	0.160887	0.727473	0.599577
	H10	H	0.844164	0.282123	0.600525
	H11	H	0.162025	0.292058	0.390260
	H12	H	0.840262	0.401298	0.712576
	H13	H	0.159543	0.611144	0.714112
	H14	H	0.840563	0.614121	0.274791
	H15	H	0.159150	0.406440	0.272606
	H16	H	0.391365	0.732559	0.837005
	H17	H	0.604718	0.728305	0.154220
	H18	H	0.604807	0.288988	0.835650
	H19	H	0.394040	0.286322	0.152687
	H20	H	0.723570	0.849399	0.387702
	H21	H	0.726176	0.164533	0.599660
	H22	H	0.281287	0.849362	0.598136
	H23	H	0.284360	0.168342	0.391792
	H24	H	0.891445	0.351092	0.217381
	H25	H	0.108089	0.664828	0.218152
	H26	H	0.101417	0.349482	0.775194
	H27	H	0.891091	0.663809	0.767894
	H28	H	0.222369	0.905819	0.334507
	H29	H	0.222566	0.113231	0.652195
	H30	H	0.778122	0.114760	0.335419
	H31	H	0.778358	0.899983	0.650865
	H32	H	0.341918	0.227281	0.890194
	H33	H	0.659513	0.233114	0.101457
	H34	H	0.342977	0.784942	0.104585
	H35	H	0.658465	0.785270	0.887166
	H36	H	0.343142	0.903781	0.217070
	H37	H	0.661390	0.116373	0.215653
	H38	H	0.343705	0.113893	0.771678
	H39	H	0.660854	0.902513	0.774273
	H40	H	0.895032	0.231044	0.335047
	H41	H	0.110366	0.232372	0.649353
	H42	H	0.111282	0.784571	0.336326
	H43	H	0.893127	0.783343	0.650476
	H44	H	0.218411	0.349934	0.892061
	H45	H	0.222870	0.665927	0.100391
	H46	H	0.780147	0.348911	0.097059
	H47	H	0.778086	0.665903	0.888000
	H48	H	0.409851	0.121744	0.583735
	H49	H	0.584320	0.896567	0.583629
	H50	H	0.586234	0.118444	0.405018
	H51	H	0.415901	0.895733	0.402686
	H52	H	0.581876	0.415001	0.107295
	H53	H	0.583881	0.596368	0.883262
	H54	H	0.410721	0.593529	0.106853
	H55	H	0.411584	0.415317	0.881181
	H56	H	0.114174	0.595773	0.403945
	H57	H	0.887669	0.594935	0.581094
	H58	H	0.116227	0.418603	0.585084
	H59	H	0.887845	0.418440	0.410305
	H60	H	0.114542	0.417896	0.582627
	H61	H	0.887101	0.597928	0.578374
	H62	H	0.114502	0.596912	0.406141
	H63	H	0.886446	0.421458	0.403746
	H64	H	0.413850	0.599362	0.106216
	H65	H	0.587570	0.600960	0.880601
	H66	H	0.594044	0.415016	0.111155
	H67	H	0.408003	0.416421	0.879519
	H68	H	0.593547	0.119938	0.408972
	H69	H	0.592968	0.895848	0.578964
	H70	H	0.414763	0.120677	0.586125
	H71	H	0.412826	0.897282	0.408055
	H72	H	0.907118	0.621424	0.081726
	H73	H	0.090259	0.396444	0.079943
	H74	H	0.090075	0.623071	0.901136
	H75	H	0.913979	0.397656	0.905850
	H76	H	0.091141	0.919935	0.605817
	H77	H	0.091827	0.099434	0.379090
	H78	H	0.917667	0.097905	0.605061
	H79	H	0.918227	0.923521	0.384004
	H80	H	0.617019	0.100434	0.903338
	H81	H	0.392296	0.090472	0.080852
	H82	H	0.616805	0.919350	0.086023
	H83	H	0.388862	0.917887	0.913597
	H84	H	0.614753	0.914259	0.079131
	H85	H	0.386039	0.097094	0.090130
	H86	H	0.615213	0.100339	0.907320
	H87	H	0.389432	0.927428	0.904920
	H88	H	0.913376	0.093492	0.606104
	H89	H	0.093501	0.099175	0.379479
	H90	H	0.088286	0.916227	0.607206
	H91	H	0.917599	0.914177	0.380179
	H92	H	0.086888	0.621615	0.902412
	H93	H	0.085817	0.395848	0.086321
	H94	H	0.910089	0.621793	0.086706
	H95	H	0.903044	0.394098	0.906580
	H96	H	0.414226	0.119430	0.581184
	H97	H	0.591970	0.892445	0.588221
	H98	H	0.592873	0.122145	0.401294
	H99	H	0.410044	0.893757	0.403346
	H100	H	0.588695	0.425504	0.106084
	H101	H	0.589294	0.595166	0.882125
	H102	H	0.407875	0.598764	0.109024
	H103	H	0.410407	0.419080	0.880897
	H104	H	0.113457	0.594619	0.405530
	H105	H	0.888936	0.593953	0.577746
	H106	H	0.114952	0.420507	0.583208
	H107	H	0.884726	0.414863	0.404894
	H108	H	0.912650	0.620138	0.082134
	H109	H	0.082818	0.399431	0.080053
	H110	H	0.089688	0.621441	0.904923
	H111	H	0.909211	0.392730	0.896943
	H112	H	0.092671	0.915890	0.607662
	H113	H	0.092101	0.098123	0.379636
	H114	H	0.918432	0.091984	0.602437
	H115	H	0.909634	0.920283	0.379093
	H116	H	0.615349	0.096910	0.905452
	H117	H	0.388745	0.102579	0.078982
	H118	H	0.612452	0.923003	0.078748
	H119	H	0.384373	0.916511	0.901437
	C120	C	0.380138	0.016259	0.616198
	C121	C	0.623299	0.999039	0.615335
	C122	C	0.623797	0.016205	0.372174
	C123	C	0.381161	1.000190	0.372534
	C124	C	0.620393	0.387352	0.003011
	C125	C	0.620052	0.629307	0.986878
	C126	C	0.378272	0.629751	0.002682
	C127	C	0.377916	0.385869	0.985845
	C128	C	0.009414	0.629511	0.372361
	C129	C	0.992346	0.628195	0.613396
	C130	C	0.009771	0.385864	0.615027
	C131	C	0.992011	0.387434	0.373012
	C132	C	0.877370	0.516659	0.115894
	C133	C	0.120016	0.500803	0.114953
	C134	C	0.120104	0.516999	0.872036
	C135	C	0.876579	0.498861	0.870685
	C136	C	0.123704	0.886045	0.502164
	C137	C	0.124535	0.130696	0.484025
	C138	C	0.882102	0.128156	0.500676
	C139	C	0.881326	0.886149	0.484903
	C140	C	0.510735	0.130197	0.873013
	C141	C	0.493654	0.130013	0.115778
	C142	C	0.510069	0.886677	0.115668
	C143	C	0.492331	0.887386	0.873832
	C144	C	0.377473	0.897433	0.676104
	C145	C	0.626168	0.117897	0.674964
	C146	C	0.626736	0.897753	0.311317
	C147	C	0.381084	0.119890	0.313969
	C148	C	0.679223	0.387231	0.882775
	C149	C	0.679905	0.629977	0.106498
	C150	C	0.319745	0.630697	0.882313
	C151	C	0.318563	0.385794	0.105785
	C152	C	0.890955	0.691669	0.368882
	C153	C	0.112527	0.688006	0.617054
	C154	C	0.890913	0.323473	0.618120
	C155	C	0.113256	0.330206	0.371221
	C156	C	0.889224	0.383053	0.673761
	C157	C	0.111751	0.630196	0.674374
	C158	C	0.889150	0.632356	0.313425
	C159	C	0.111838	0.387121	0.312645
	C160	C	0.374500	0.691292	0.884041
	C161	C	0.622647	0.688429	0.106462
	C162	C	0.622441	0.328983	0.883048
	C163	C	0.375525	0.326490	0.105356
	C164	C	0.683939	0.897154	0.369452
	C165	C	0.685002	0.117374	0.617569
	C166	C	0.320328	0.897148	0.617352
	C167	C	0.323046	0.120127	0.372006
	C168	C	0.874120	0.398208	0.176607
	C169	C	0.124287	0.618397	0.176429
	C170	C	0.120672	0.397054	0.814487
	C171	C	0.873404	0.616967	0.808902
	C172	C	0.183419	0.885778	0.382414
	C173	C	0.183634	0.132070	0.603844
	C174	C	0.819334	0.132325	0.382698
	C175	C	0.819099	0.882226	0.603433
	C176	C	0.390127	0.188495	0.871486
	C177	C	0.612334	0.192424	0.119264
	C178	C	0.390714	0.825688	0.121000
	C179	C	0.611325	0.826174	0.870231
	C180	C	0.390955	0.884779	0.177223
	C181	C	0.613330	0.133670	0.175771
	C182	C	0.391072	0.131752	0.812608
	C183	C	0.612498	0.884787	0.813825
	C184	C	0.877532	0.190261	0.382340
	C185	C	0.127703	0.191386	0.602604
	C186	C	0.127939	0.825375	0.383610
	C187	C	0.876440	0.824200	0.603326
	C188	C	0.178821	0.397359	0.872461
	C189	C	0.182316	0.618625	0.118383
	C190	C	0.818522	0.397023	0.116771
	C191	C	0.817127	0.617901	0.868934
	C192	C	0.405726	0.099188	0.590937
	C193	C	0.597300	0.916458	0.590638
	C194	C	0.598428	0.098515	0.397673
	C195	C	0.405757	0.917189	0.397406
	C196	C	0.595278	0.411628	0.086606
	C197	C	0.594285	0.604856	0.903835
	C198	C	0.403572	0.604418	0.085798
	C199	C	0.402757	0.409951	0.902444
	C200	C	0.092484	0.603381	0.397857
	C201	C	0.909394	0.602804	0.586795
	C202	C	0.093290	0.411617	0.590630
	C203	C	0.908328	0.411280	0.398636
	C204	C	0.902663	0.599468	0.090718
	C205	C	0.093654	0.418605	0.089382
	C206	C	0.095833	0.600287	0.895837
	C207	C	0.901587	0.416150	0.896022
	C208	C	0.098277	0.910508	0.585404
	C209	C	0.099358	0.106039	0.401135
	C210	C	0.908901	0.101978	0.583102
	C211	C	0.907520	0.912010	0.402366
	C212	C	0.594053	0.106034	0.898089
	C213	C	0.410479	0.104081	0.090620
	C214	C	0.593082	0.911750	0.088960
	C215	C	0.409165	0.913117	0.899379
	Zn216	Zn	0.502044	0.007819	0.745027
	Zn217	Zn	0.502965	0.008063	0.243542
	Zn218	Zn	0.748894	0.507957	-0.005781
	Zn219	Zn	0.249750	0.508961	-0.006133
	Zn220	Zn	0.002408	0.757449	0.493573
	Zn221	Zn	0.002275	0.258626	0.493319
	Zn222	Zn	-0.000657	0.507745	0.742475
	Zn223	Zn	-0.001335	0.508985	0.244630
	Zn224	Zn	0.500068	0.758324	-0.005524
	Zn225	Zn	0.501106	0.258133	-0.005441
	Zn226	Zn	0.752335	0.006801	0.493330
	Zn227	Zn	0.252084	0.008458	0.493767
	N228	N	0.413530	0.972714	0.675703
	N229	N	0.588921	0.043202	0.674012
	N230	N	0.590512	0.972773	0.312527
	N231	N	0.416353	0.044167	0.314139
	N232	N	0.678103	0.422675	0.958445
	N233	N	0.678680	0.594033	0.031010
	N234	N	0.321953	0.593209	0.957113
	N235	N	0.319975	0.421847	0.030405
	N236	N	0.966915	0.690126	0.404575
	N237	N	0.037125	0.686943	0.579758
	N238	N	0.967085	0.324787	0.582506
	N239	N	0.037679	0.330271	0.407890
	N240	N	0.964073	0.421187	0.671755
	N241	N	0.036067	0.593913	0.672269
	N242	N	0.963912	0.594400	0.315433
	N243	N	0.035394	0.421513	0.313416
	N244	N	0.409876	0.691162	0.960047
	N245	N	0.586603	0.688138	0.030820
	N246	N	0.586699	0.328937	0.958851
	N247	N	0.411382	0.326148	0.029617
	N248	N	0.682295	0.971721	0.406658
	N249	N	0.683431	0.042362	0.581372
	N250	N	0.321610	0.972311	0.581113
	N251	N	0.322903	0.044612	0.407433
	N252	N	0.909996	0.473666	0.176285
	N253	N	0.086103	0.544204	0.174392
	N254	N	0.085318	0.472530	0.813881
	N255	N	0.909422	0.541890	0.809757
	N256	N	0.180951	0.922817	0.457267
	N257	N	0.181680	0.094826	0.529290
	N258	N	0.822035	0.094548	0.457264
	N259	N	0.822149	0.920257	0.528987
	N260	N	0.465432	0.187499	0.908320
	N261	N	0.536810	0.190342	0.082714
	N262	N	0.465827	0.826855	0.083248
	N263	N	0.535622	0.827652	0.906780
	N264	N	0.466164	0.922100	0.174002
	N265	N	0.538572	0.095369	0.173575
	N266	N	0.467047	0.096311	0.813198
	N267	N	0.537473	0.922182	0.815944
	N268	N	0.915921	0.187771	0.456818
	N269	N	0.091625	0.190721	0.527026
	N270	N	0.091834	0.825347	0.459149
	N271	N	0.914381	0.826381	0.528489
	N272	N	0.178756	0.472843	0.907331
	N273	N	0.179343	0.544571	0.080397
	N274	N	0.820246	0.471809	0.079865
	N275	N	0.819065	0.543545	0.906723
	O276	O	0.645598	0.525610	0.403798
	H277	H	0.650785	0.531337	0.400417
	H278	H	0.649217	0.506554	0.417108
	O279	O	1.203944	-0.196740	0.905472
	H280	H	1.194704	-0.196319	0.913499
	H281	H	1.221915	-0.191044	0.919093
	O282	O	0.674762	0.309933	0.547665
	H283	H	0.659313	0.301179	0.536929
	H284	H	0.669226	0.294702	0.562637
	O285	O	0.481175	0.636881	0.683299
	H286	H	0.502417	0.644472	0.681715
	H287	H	0.496403	0.623511	0.691635
	O288	O	0.780484	0.785147	0.019781
	H289	H	0.771930	0.779434	0.052097
	H290	H	0.763887	0.767386	0.045058
	O291	O	0.589186	0.707927	0.685225
	H292	H	0.594705	0.715305	0.674574
	H293	H	0.607583	0.686233	0.695181
	O294	O	0.204367	0.213386	1.062462
	H295	H	0.209619	0.222474	1.041183
	H296	H	0.217484	0.207586	1.050923
	O297	O	0.305004	0.305437	0.516663
	H298	H	0.314576	0.308832	0.535941
	H299	H	0.281263	0.286866	0.534274
	O300	O	0.524455	0.456946	0.674955
	H301	H	0.525924	0.439731	0.674316
	H302	H	0.532963	0.450599	0.684400
	O303	O	0.543988	0.350271	0.517728
	H304	H	0.536834	0.345029	0.522578
	H305	H	0.530202	0.357862	0.510736
	O306	O	0.482901	0.564527	0.425738
	H307	H	0.486360	0.575679	0.427065
	H308	H	0.488022	0.562009	0.447289
	O309	O	0.605291	0.438741	0.308167
	H310	H	0.582866	0.431387	0.305094
	H311	H	0.623123	0.429649	0.332622
	O312	O	-0.016515	0.795534	1.166443
	H313	H	0.007410	0.804460	1.170103
	H314	H	-0.012146	0.772717	1.183659
	O315	O	-0.039784	0.794407	0.945561
	H316	H	-0.046497	0.797508	0.963975
	H317	H	-0.035595	0.796634	0.955578
	O318	O	0.983744	-0.021029	0.104869
	H319	H	0.993294	-0.029656	0.114838
	H320	H	0.983978	-0.028043	0.103844
	O321	O	0.667597	-0.509559	-0.452116
	H322	H	0.661725	-0.517832	-0.460306
	H323	H	0.654788	-0.512154	-0.474112
	O324	O	0.704796	0.535143	0.701365
	H325	H	0.721315	0.518192	0.689132
	H326	H	0.717214	0.524209	0.707174
	O327	O	0.196543	0.106170	0.894330
	H328	H	0.160426	0.089572	0.892516
	H329	H	0.198675	0.088556	0.881217
	O330	O	0.012447	1.103960	-0.209322
	H331	H	0.003484	1.099380	-0.219050
	H332	H	0.026212	1.083058	-0.213488
	O333	O	0.301743	0.589195	0.462512
	H334	H	0.283499	0.604439	0.483153
	H335	H	0.322676	0.603316	0.459132
	O336	O	-0.198511	-0.083250	0.191750
	H337	H	-0.199989	-0.082621	0.211111
	H338	H	-0.199335	-0.050945	0.180879
	O339	O	0.150779	1.148617	1.204800
	H340	H	0.187287	1.160709	1.229253
	H341	H	0.152199	1.176113	1.180455
	O342	O	0.220800	0.982059	0.775897
	H343	H	0.230794	0.971815	0.753346
	H344	H	0.226066	0.948308	0.767106
	O345	O	1.177320	0.812939	0.077584
	H346	H	1.178130	0.826073	0.081928
	H347	H	1.178289	0.826779	0.056917
	O348	O	0.327123	0.633938	0.303875
	H349	H	0.343105	0.657592	0.301848
	H350	H	0.321706	0.618664	0.286374
	O351	O	-0.088466	1.181203	1.023047
	H352	H	-0.071118	1.190437	1.037486
	H353	H	-0.089900	1.159804	1.029237
	O354	O	-0.093859	1.144010	-0.132501
	H355	H	-0.091621	1.138223	-0.112526
	H356	H	-0.112274	1.164617	-0.137008
	O357	O	0.001590	-0.011783	1.154437
	H358	H	-0.016525	0.015250	1.162160
	H359	H	0.000195	-0.012998	1.152682
	O360	O	0.479798	0.294875	0.701740
	H361	H	0.445990	0.295444	0.692754
	H362	H	0.464273	0.267979	0.724515
	O363	O	0.020345	0.177528	1.210552
	H364	H	0.042881	0.197750	1.216324
	H365	H	0.022239	0.191013	1.209920
	O366	O	0.380210	0.720891	0.386500
	H367	H	0.386859	0.729332	0.356092
	H368	H	0.373817	0.725576	0.388658
	O369	O	0.645256	0.559387	0.356735
	H370	H	0.649775	0.556303	0.347228
	H371	H	0.641896	0.543213	0.370986
	O372	O	1.117389	-0.181214	0.799556
	H373	H	1.117285	-0.203375	0.824136
	H374	H	1.077027	-0.186493	0.802498
	O375	O	0.490024	0.370021	0.293898
	H376	H	0.472403	0.390748	0.284198
	H377	H	0.495850	0.356176	0.295074
	O378	O	0.481823	0.628724	0.481041
	H379	H	0.474642	0.627996	0.489844
	H380	H	0.474984	0.630411	0.484299
	O381	O	0.403187	0.338690	0.298348
	H382	H	0.406931	0.352465	0.323767
	H383	H	0.415984	0.346892	0.287228
	O384	O	0.433999	0.449012	0.481200
	H385	H	0.418902	0.462626	0.489618
	H386	H	0.427703	0.456580	0.482995
	O387	O	0.080601	0.188504	0.902881
	H388	H	0.074131	0.180903	0.912325
	H389	H	0.076032	0.177869	0.907407
	O390	O	0.071770	0.210165	-0.009665
	H391	H	0.071425	0.210027	-0.008358
	H392	H	0.080737	0.203738	-0.016515
	O393	O	0.841563	1.043035	1.157384
	H394	H	0.846553	1.070224	1.152579
	H395	H	0.850770	1.046946	1.152071
	O396	O	0.752688	-0.264236	0.278183
	H397	H	0.748288	-0.235719	0.284739
	H398	H	0.782678	-0.270657	0.271556
	O399	O	1.002382	0.112095	0.872807
	H400	H	1.005705	0.094293	0.869308
	H401	H	1.003671	0.110330	0.866351
	O402	O	0.880335	1.030721	1.046688
	H403	H	0.879302	1.020703	1.051602
	H404	H	0.870707	1.021415	1.029127
	O405	O	0.920583	0.903344	-0.223031
	H406	H	0.918314	0.882514	-0.244479
	H407	H	0.893486	0.900802	-0.212690
	O408	O	0.864260	-0.002084	-0.113481
	H409	H	0.848146	-0.013194	-0.097362
	H410	H	0.849329	0.001450	-0.132007
	O411	O	1.157327	1.047823	0.197818
	H412	H	1.151705	1.060635	0.197912
	H413	H	1.175086	1.061050	0.202537
	O414	O	0.398128	0.581823	0.432934
	H415	H	0.393428	0.591554	0.417071
	H416	H	0.396915	0.577246	0.441338
	O417	O	0.851779	0.851533	0.832504
	H418	H	0.853933	0.827022	0.853916
	H419	H	0.853370	0.849972	0.831664
	O420	O	-0.209115	0.014443	-0.123100
	H421	H	-0.210598	0.038268	-0.118106
	H422	H	-0.227403	0.006037	-0.131808
	O423	O	0.581534	0.596319	0.322444
	H424	H	0.592963	0.607464	0.356701
	H425	H	0.596879	0.597504	0.307331
	O426	O	0.684631	0.311276	0.393595
	H427	H	0.689334	0.321970	0.398768
	H428	H	0.672338	0.307363	0.411259
	O429	O	0.327731	0.517641	0.693411
	H430	H	0.329917	0.541891	0.703885
	H431	H	0.337701	0.534390	0.693752
	O432	O	0.834150	0.201202	0.794478
	H433	H	0.849236	0.200405	0.802410
	H434	H	0.837464	0.207366	0.806666
	O435	O	0.679252	0.711556	0.583675
	H436	H	0.691255	0.709844	0.578023
	H437	H	0.675042	0.711921	0.574299
	O438	O	0.221622	-0.015999	0.017751
	H439	H	0.219604	-0.003566	-0.003679
	H440	H	0.223434	-0.001645	0.037776
	O441	O	1.018301	-0.025395	0.010898
	H442	H	1.014866	-0.036492	0.002261
	H443	H	1.018862	-0.025843	0.013732
	O444	O	0.072098	0.995246	1.035094
	H445	H	0.075720	1.001274	1.037771
	H446	H	0.053749	0.988631	1.041551
	O447	O	0.327877	0.532474	0.544916
	H448	H	0.325290	0.540726	0.549234
	H449	H	0.332375	0.520283	0.541806
	O450	O	0.302978	0.303544	0.692354
	H451	H	0.279971	0.306060	0.706639
	H452	H	0.285549	0.330806	0.710467
	O453	O	0.424963	0.540169	0.531110
	H454	H	0.421747	0.548256	0.536721
	H455	H	0.433493	0.539511	0.533580
