data_Molecule from HDF5

_cell_length_a		16.535285
_cell_length_b		16.443482
_cell_length_c		16.429266
_cell_angle_alpha	89.802164
_cell_angle_beta	90.112105
_cell_angle_gamma	90.038222
_symmetry_space_group_name_H-M	'P 1'
_symmetry_Int_Tables_number		1

loop_
	_symmetry_equiv_pos_as_xyz
	x,y,z

loop_
	_atom_site_label
	_atom_site_type_symbol
	_atom_site_fract_x
	_atom_site_fract_y
	_atom_site_fract_z
	H0	H	0.385807	0.851752	0.725048
	H1	H	0.596259	0.168101	0.722653
	H2	H	0.592425	0.850594	0.283441
	H3	H	0.384731	0.168299	0.279901
	H4	H	0.712911	0.404138	0.844056
	H5	H	0.712125	0.612104	0.159005
	H6	H	0.267807	0.619597	0.843653
	H7	H	0.269164	0.404013	0.158961
	H8	H	0.835050	0.729722	0.396887
	H9	H	0.150185	0.731094	0.605685
	H10	H	0.835324	0.288155	0.605954
	H11	H	0.150236	0.289243	0.398666
	H12	H	0.835795	0.403908	0.723258
	H13	H	0.150443	0.614463	0.722469
	H14	H	0.834756	0.612195	0.280956
	H15	H	0.151323	0.407530	0.283263
	H16	H	0.386036	0.733925	0.842761
	H17	H	0.595396	0.729274	0.159413
	H18	H	0.595604	0.289519	0.844156
	H19	H	0.383585	0.287526	0.159483
	H20	H	0.711461	0.852481	0.396876
	H21	H	0.713912	0.166584	0.608550
	H22	H	0.268658	0.851596	0.609235
	H23	H	0.268753	0.168069	0.396049
	H24	H	0.890339	0.349783	0.219694
	H25	H	0.093741	0.669026	0.218995
	H26	H	0.095619	0.350511	0.782002
	H27	H	0.888263	0.667266	0.779166
	H28	H	0.211107	0.906680	0.344823
	H29	H	0.213369	0.115586	0.660527
	H30	H	0.769891	0.114683	0.342911
	H31	H	0.771819	0.905727	0.660739
	H32	H	0.333014	0.231409	0.898040
	H33	H	0.648115	0.231798	0.108625
	H34	H	0.332788	0.791277	0.102621
	H35	H	0.649368	0.792183	0.898436
	H36	H	0.331915	0.909206	0.218959
	H37	H	0.648427	0.113644	0.223295
	H38	H	0.333872	0.116099	0.779992
	H39	H	0.648114	0.906292	0.780709
	H40	H	0.888512	0.229261	0.342241
	H41	H	0.094374	0.228377	0.661664
	H42	H	0.092999	0.793360	0.342493
	H43	H	0.888953	0.789629	0.660153
	H44	H	0.215030	0.352387	0.895217
	H45	H	0.211389	0.668780	0.103493
	H46	H	0.770263	0.351056	0.106255
	H47	H	0.770966	0.667373	0.894610
	H48	H	0.405864	0.119748	0.587266
	H49	H	0.582593	0.897598	0.587942
	H50	H	0.589894	0.124375	0.416814
	H51	H	0.399022	0.898049	0.417103
	H52	H	0.586576	0.426610	0.115690
	H53	H	0.577265	0.600901	0.887280
	H54	H	0.403681	0.601330	0.113471
	H55	H	0.411981	0.421859	0.892230
	H56	H	0.107860	0.604193	0.408497
	H57	H	0.882747	0.597678	0.582461
	H58	H	0.106780	0.418237	0.593411
	H59	H	0.878777	0.417414	0.408584
	H60	H	0.104895	0.417503	0.587164
	H61	H	0.881334	0.591338	0.593741
	H62	H	0.104905	0.601178	0.413875
	H63	H	0.879750	0.418629	0.412879
	H64	H	0.400879	0.600118	0.113886
	H65	H	0.583973	0.604034	0.885139
	H66	H	0.575485	0.423114	0.112533
	H67	H	0.399920	0.416059	0.886072
	H68	H	0.576838	0.125901	0.403266
	H69	H	0.581709	0.894256	0.595062
	H70	H	0.398853	0.122083	0.586811
	H71	H	0.398642	0.895567	0.410905
	H72	H	0.905415	0.618577	0.083399
	H73	H	0.090823	0.394220	0.089095
	H74	H	0.073502	0.618453	0.917766
	H75	H	0.901547	0.394444	0.909992
	H76	H	0.071661	0.918527	0.614194
	H77	H	0.078280	0.097675	0.390813
	H78	H	0.901599	0.090327	0.611740
	H79	H	0.898646	0.915995	0.385688
	H80	H	0.602310	0.097689	0.914591
	H81	H	0.377195	0.098844	0.093260
	H82	H	0.604007	0.922893	0.094307
	H83	H	0.376368	0.924344	0.905576
	H84	H	0.606336	0.917881	0.096203
	H85	H	0.376985	0.101760	0.090522
	H86	H	0.603872	0.100467	0.910440
	H87	H	0.376968	0.913749	0.917196
	H88	H	0.909034	0.101880	0.613191
	H89	H	0.080639	0.100864	0.388490
	H90	H	0.085805	0.913257	0.620032
	H91	H	0.896596	0.923508	0.387624
	H92	H	0.090306	0.623623	0.916053
	H93	H	0.078984	0.394939	0.098484
	H94	H	0.892184	0.625283	0.091082
	H95	H	0.906863	0.398160	0.913300
	H96	H	0.402975	0.122887	0.592714
	H97	H	0.575954	0.898585	0.591794
	H98	H	0.572391	0.118321	0.420058
	H99	H	0.404273	0.898772	0.412277
	H100	H	0.582720	0.415535	0.117720
	H101	H	0.583557	0.596987	0.887442
	H102	H	0.403042	0.598206	0.112939
	H103	H	0.399918	0.430405	0.890262
	H104	H	0.106060	0.597759	0.407781
	H105	H	0.877889	0.604503	0.592667
	H106	H	0.103537	0.423392	0.590678
	H107	H	0.879798	0.421948	0.409384
	H108	H	0.907120	0.624432	0.098222
	H109	H	0.077765	0.399321	0.084539
	H110	H	0.079475	0.625353	0.902229
	H111	H	0.900656	0.397249	0.916639
	H112	H	0.083936	0.928495	0.615221
	H113	H	0.082465	0.096599	0.388596
	H114	H	0.896515	0.100869	0.618090
	H115	H	0.903839	0.920344	0.389413
	H116	H	0.603058	0.102267	0.914988
	H117	H	0.380007	0.098559	0.090342
	H118	H	0.604657	0.918115	0.090947
	H119	H	0.383411	0.928490	0.919136
	C120	C	0.369603	0.017685	0.622929
	C121	C	0.612470	1.001092	0.623857
	C122	C	0.611061	0.018136	0.381468
	C123	C	0.368545	1.001690	0.380859
	C124	C	0.612823	0.389428	0.010580
	C125	C	0.613478	0.631672	0.991644
	C126	C	0.370097	0.632551	0.009065
	C127	C	0.370746	0.389617	0.993351
	C128	C	0.001303	0.631595	0.378959
	C129	C	0.984653	0.630440	0.622271
	C130	C	0.001137	0.387673	0.622800
	C131	C	0.983869	0.387526	0.379444
	C132	C	0.870514	0.517607	0.122446
	C133	C	0.113488	0.501403	0.121683
	C134	C	0.113401	0.518051	0.879957
	C135	C	0.871124	0.501061	0.880121
	C136	C	0.111921	0.889222	0.511323
	C137	C	0.112717	0.130816	0.493935
	C138	C	0.870004	0.130571	0.509852
	C139	C	0.868793	0.887912	0.492863
	C140	C	0.499231	0.132265	0.880722
	C141	C	0.482413	0.131715	0.124007
	C142	C	0.499904	0.888366	0.123805
	C143	C	0.483117	0.890196	0.881580
	C144	C	0.366969	0.899198	0.684764
	C145	C	0.614676	0.120376	0.683246
	C146	C	0.611800	0.898615	0.322466
	C147	C	0.366370	0.120637	0.320069
	C148	C	0.672636	0.386233	0.891494
	C149	C	0.672692	0.632124	0.111440
	C150	C	0.308885	0.636643	0.890633
	C151	C	0.309550	0.386233	0.111772
	C152	C	0.882264	0.690153	0.377878
	C153	C	0.102882	0.690950	0.624350
	C154	C	0.882491	0.328062	0.624796
	C155	C	0.102834	0.328638	0.379271
	C156	C	0.882898	0.385499	0.683116
	C157	C	0.103053	0.633015	0.682596
	C158	C	0.882138	0.631864	0.320286
	C159	C	0.103539	0.387425	0.321851
	C160	C	0.367782	0.693449	0.890137
	C161	C	0.614613	0.689969	0.111701
	C162	C	0.614294	0.329175	0.891629
	C163	C	0.366536	0.328094	0.111972
	C164	C	0.671368	0.899578	0.378687
	C165	C	0.673426	0.119558	0.626502
	C166	C	0.309048	0.898937	0.626730
	C167	C	0.308329	0.120362	0.377632
	C168	C	0.870387	0.397540	0.180775
	C169	C	0.113367	0.621224	0.179694
	C170	C	0.115084	0.398343	0.820989
	C171	C	0.869479	0.619774	0.819310
	C172	C	0.171069	0.887946	0.391825
	C173	C	0.172961	0.133572	0.613142
	C174	C	0.810075	0.133130	0.390592
	C175	C	0.811032	0.886687	0.612776
	C176	C	0.380452	0.191481	0.879224
	C177	C	0.601087	0.191545	0.126735
	C178	C	0.380258	0.830413	0.122600
	C179	C	0.601859	0.831101	0.879438
	C180	C	0.379854	0.888849	0.180407
	C181	C	0.601136	0.133239	0.184175
	C182	C	0.380902	0.134237	0.820415
	C183	C	0.601189	0.888049	0.820845
	C184	C	0.869272	0.189849	0.390102
	C185	C	0.113937	0.189728	0.613563
	C186	C	0.112354	0.831739	0.390700
	C187	C	0.869214	0.828955	0.612603
	C188	C	0.174181	0.399215	0.877364
	C189	C	0.172060	0.621230	0.122506
	C190	C	0.810919	0.398338	0.124330
	C191	C	0.811073	0.619892	0.876772
	C192	C	0.395220	0.099983	0.596497
	C193	C	0.587178	0.918419	0.598784
	C194	C	0.586547	0.101145	0.406277
	C195	C	0.393535	0.918872	0.406246
	C196	C	0.588716	0.414497	0.093729
	C197	C	0.588700	0.607666	0.908335
	C198	C	0.395368	0.607031	0.091857
	C199	C	0.396460	0.415412	0.911057
	C200	C	0.084537	0.607984	0.403133
	C201	C	0.902159	0.605089	0.596957
	C202	C	0.083599	0.412670	0.597668
	C203	C	0.900968	0.412197	0.403245
	C204	C	0.894609	0.600901	0.097811
	C205	C	0.089550	0.418032	0.097549
	C206	C	0.088342	0.600837	0.904785
	C207	C	0.895910	0.418045	0.905899
	C208	C	0.087528	0.913108	0.594823
	C209	C	0.087588	0.105847	0.410947
	C210	C	0.895138	0.105105	0.592879
	C211	C	0.892629	0.912570	0.409288
	C212	C	0.581643	0.107495	0.905963
	C213	C	0.399827	0.106892	0.098768
	C214	C	0.583281	0.912426	0.100529
	C215	C	0.400446	0.915079	0.906667
	Zn216	Zn	0.490853	0.010134	0.751929
	Zn217	Zn	0.490531	0.010474	0.252335
	Zn218	Zn	0.742158	0.509870	0.000874
	Zn219	Zn	0.242395	0.510042	0.000322
	Zn220	Zn	-0.008142	0.760132	0.501084
	Zn221	Zn	-0.008165	0.258855	0.501758
	Zn222	Zn	-0.006923	0.508910	0.751643
	Zn223	Zn	-0.007389	0.509200	0.250962
	Zn224	Zn	0.491932	0.760331	0.000964
	Zn225	Zn	0.491163	0.260654	0.002799
	Zn226	Zn	0.740860	0.009842	0.501844
	Zn227	Zn	0.240319	0.009905	0.502738
	N228	N	0.403775	0.974144	0.682588
	N229	N	0.577429	0.045715	0.681851
	N230	N	0.575138	0.973485	0.323995
	N231	N	0.403050	0.045776	0.321751
	N232	N	0.671862	0.422822	0.966495
	N233	N	0.672176	0.596796	0.035725
	N234	N	0.310247	0.599364	0.965529
	N235	N	0.312053	0.423941	0.037110
	N236	N	0.957535	0.690466	0.413172
	N237	N	0.028181	0.689593	0.587624
	N238	N	0.956816	0.329450	0.588016
	N239	N	0.027486	0.328542	0.414227
	N240	N	0.957642	0.422061	0.681881
	N241	N	0.028396	0.596151	0.681324
	N242	N	0.957308	0.596444	0.320706
	N243	N	0.028426	0.423145	0.321746
	N244	N	0.405102	0.691064	0.964853
	N245	N	0.578862	0.690100	0.036200
	N246	N	0.577730	0.330873	0.966726
	N247	N	0.404092	0.330238	0.037425
	N248	N	0.671003	0.974800	0.414691
	N249	N	0.672299	0.044383	0.590421
	N250	N	0.310490	0.973594	0.589150
	N251	N	0.309506	0.045412	0.414819
	N252	N	0.906776	0.472706	0.179681
	N253	N	0.078070	0.545681	0.179575
	N254	N	0.078494	0.473269	0.822263
	N255	N	0.905867	0.544823	0.821174
	N256	N	0.171034	0.922808	0.467792
	N257	N	0.172393	0.097684	0.537785
	N258	N	0.810391	0.097049	0.466165
	N259	N	0.810613	0.922340	0.537156
	N260	N	0.455228	0.190796	0.915613
	N261	N	0.526087	0.191115	0.090536
	N262	N	0.456136	0.829701	0.088505
	N263	N	0.527302	0.832306	0.916319
	N264	N	0.455427	0.923610	0.181467
	N265	N	0.526222	0.097033	0.182588
	N266	N	0.455999	0.098534	0.820891
	N267	N	0.526260	0.924021	0.822333
	N268	N	0.905368	0.188576	0.465468
	N269	N	0.077158	0.188076	0.538495
	N270	N	0.076359	0.832364	0.465903
	N271	N	0.904310	0.829463	0.536866
	N272	N	0.173619	0.474829	0.912943
	N273	N	0.172500	0.545502	0.087429
	N274	N	0.810831	0.473968	0.088776
	N275	N	0.811915	0.544802	0.913756
	O276	O	0.866157	1.068741	0.124020
	H277	H	0.864257	1.063056	0.123956
	H278	H	0.861884	1.050121	0.111425
	O279	O	0.106396	0.209776	-0.016313
	H280	H	0.102229	0.215648	-0.015227
	H281	H	0.101287	0.208505	-0.009467
	O282	O	0.855770	0.967229	0.195085
	H283	H	0.849490	0.964969	0.187453
	H284	H	0.861598	0.963152	0.207661
	O285	O	0.523782	0.343039	0.328106
	H286	H	0.526836	0.368885	0.325268
	H287	H	0.524507	0.320632	0.305198
	O288	O	0.000213	-0.169651	-0.165579
	H289	H	-0.024081	-0.185457	-0.176315
	H290	H	-0.008915	-0.169077	-0.150863
	O291	O	1.665787	0.334130	0.677530
	H292	H	1.655870	0.350844	0.656607
	H293	H	1.647789	0.344538	0.660104
	O294	O	-0.311669	1.310637	0.307279
	H295	H	-0.310475	1.340768	0.293825
	H296	H	-0.308844	1.315306	0.302554
	O297	O	-0.035631	-0.199568	0.206699
	H298	H	-0.039296	-0.195280	0.199360
	H299	H	-0.046246	-0.213572	0.220023
	O300	O	0.445404	0.451922	0.279269
	H301	H	0.419873	0.451498	0.281675
	H302	H	0.446864	0.441468	0.275972
	O303	O	0.679839	0.691639	0.319695
	H304	H	0.654472	0.669742	0.328631
	H305	H	0.672688	0.673337	0.346381
	O306	O	0.708993	0.729508	0.529448
	H307	H	0.709458	0.731467	0.559234
	H308	H	0.729884	0.748722	0.555035
	O309	O	0.478321	0.490606	0.661125
	H310	H	0.469001	0.478602	0.663319
	H311	H	0.468042	0.492530	0.660460
	O312	O	0.516165	0.721249	0.709257
	H313	H	0.516361	0.731852	0.730939
	H314	H	0.508636	0.708261	0.704143
	O315	O	0.332583	-0.497155	1.699800
	H316	H	0.302644	-0.509446	1.726035
	H317	H	0.344238	-0.541424	1.693102
	O318	O	0.112691	1.080158	-0.065982
	H319	H	0.110698	1.068394	-0.071909
	H320	H	0.102129	1.086611	-0.072413
	O321	O	0.521296	0.695210	-0.549414
	H322	H	0.525896	0.698462	-0.565388
	H323	H	0.532071	0.705937	-0.554121
	O324	O	0.945108	-0.026387	0.937904
	H325	H	0.945608	-0.027565	0.931073
	H326	H	0.946541	-0.024329	0.951296
	O327	O	1.081801	0.175627	0.820628
	H328	H	1.080253	0.171075	0.833173
	H329	H	1.087680	0.167057	0.819218
	O330	O	0.835072	0.025856	0.066969
	H331	H	0.824042	0.013513	0.057525
	H332	H	0.842582	0.015912	0.075646
	O333	O	1.287094	0.714577	1.295551
	H334	H	1.259742	0.737946	1.284601
	H335	H	1.274246	0.726260	1.335611
	O336	O	0.786220	0.214194	0.798288
	H337	H	0.790817	0.232181	0.778121
	H338	H	0.769623	0.205905	0.792311
	O339	O	0.291453	0.306076	0.621380
	H340	H	0.274544	0.288209	0.621804
	H341	H	0.282415	0.309451	0.587499
	O342	O	-0.223585	1.141387	0.972265
	H343	H	-0.232327	1.151553	0.956086
	H344	H	-0.232575	1.149180	0.953680
	O345	O	-0.029559	0.062723	-0.061070
	H346	H	-0.025811	0.076759	-0.053587
	H347	H	-0.028230	0.074987	-0.067579
	O348	O	0.978237	-0.022206	0.802021
	H349	H	0.959991	-0.019473	0.799729
	H350	H	0.970600	-0.019700	0.801229
	O351	O	1.070549	1.065349	0.071461
	H352	H	1.076276	1.073436	0.073378
	H353	H	1.061620	1.062541	0.056627
	O354	O	0.279965	0.720966	0.462042
	H355	H	0.286059	0.709322	0.486162
	H356	H	0.270226	0.736174	0.477175
	O357	O	1.539200	1.471843	0.543459
	H358	H	1.545369	1.482103	0.544803
	H359	H	1.545993	1.465781	0.534389
	O360	O	0.570192	0.642605	0.500234
	H361	H	0.565530	0.653626	0.513186
	H362	H	0.568517	0.648773	0.500553
	O363	O	0.520639	0.377604	0.592244
	H364	H	0.527284	0.383605	0.570848
	H365	H	0.522337	0.362045	0.586360
	O366	O	0.809307	-0.076973	0.919697
	H367	H	0.819731	-0.071055	0.937438
	H368	H	0.818671	-0.071620	0.940555
	O369	O	0.684887	0.709697	0.699845
	H370	H	0.651696	0.697108	0.706989
	H371	H	0.705057	0.690462	0.718788
	O372	O	0.529201	0.496795	0.690496
	H373	H	0.516902	0.494187	0.686562
	H374	H	0.525640	0.474804	0.678151
	O375	O	0.200957	1.060152	1.080151
	H376	H	0.198259	1.085464	1.077107
	H377	H	0.201732	1.064268	1.085591
	O378	O	0.277380	0.540355	0.283108
	H379	H	0.266357	0.561608	0.270870
	H380	H	0.265421	0.563673	0.274403
	O381	O	1.008015	-0.201299	-0.007733
	H382	H	1.012604	-0.197954	0.005609
	H383	H	1.008254	-0.209143	-0.016160
	O384	O	0.168254	-0.176896	1.180452
	H385	H	0.157639	-0.143181	1.178915
	H386	H	0.157795	-0.170630	1.150243
	O387	O	-0.217875	1.034305	0.798139
	H388	H	-0.217464	1.044166	0.821373
	H389	H	-0.239964	1.035381	0.774188
	O390	O	0.198006	0.010606	1.094271
	H391	H	0.214240	0.034123	1.099211
	H392	H	0.196008	0.019672	1.096249
	O393	O	0.952109	1.070268	0.148372
	H394	H	0.973329	1.058128	0.145311
	H395	H	0.949914	1.059317	0.138628
	O396	O	0.306936	0.381494	0.368063
	H397	H	0.325649	0.394682	0.388194
	H398	H	0.307437	0.398968	0.364005
	O399	O	0.287589	0.353610	0.605997
	H400	H	0.303722	0.358407	0.592498
	H401	H	0.283409	0.318769	0.587682
	O402	O	-0.064031	-0.201518	0.960913
	H403	H	-0.087243	-0.203996	0.982923
	H404	H	-0.040907	-0.203426	0.969758
	O405	O	-0.227262	-0.205834	0.036635
	H406	H	-0.237959	-0.207293	0.056609
	H407	H	-0.241124	-0.223614	0.042970
	O408	O	0.514781	0.567148	0.377154
	H409	H	0.491899	0.585478	0.379806
	H410	H	0.508109	0.569317	0.385106
	O411	O	0.372804	0.701116	0.613640
	H412	H	0.391559	0.697993	0.593681
	H413	H	0.386878	0.691009	0.630656
	O414	O	0.276436	0.567530	0.549366
	H415	H	0.285010	0.566759	0.557276
	H416	H	0.278248	0.555657	0.566955
	O417	O	0.454512	0.730928	0.278808
	H418	H	0.421805	0.739802	0.270328
	H419	H	0.434784	0.749673	0.258139
	O420	O	0.695854	0.323867	0.457238
	H421	H	0.722366	0.316771	0.456959
	H422	H	0.692539	0.323468	0.418535
	O423	O	0.019064	1.177699	0.211475
	H424	H	-0.000747	1.168801	0.203334
	H425	H	0.002636	1.188750	0.231642
	O426	O	1.180609	0.860488	0.857088
	H427	H	1.186264	0.853244	0.868235
	H428	H	1.159290	0.858752	0.839314
	O429	O	0.424987	0.302344	0.713855
	H430	H	0.402942	0.290795	0.703989
	H431	H	0.433136	0.280616	0.723420
	O432	O	0.633209	0.520258	0.300434
	H433	H	0.628542	0.529219	0.294648
	H434	H	0.611700	0.545062	0.306443
	O435	O	0.189279	-0.170797	-0.005794
	H436	H	0.196600	-0.148419	-0.015873
	H437	H	0.209259	-0.175136	-0.013629
	O438	O	1.189138	0.200073	0.179167
	H439	H	1.147569	0.210290	0.184186
	H440	H	1.206695	0.221247	0.175851
	O441	O	0.400457	0.400114	0.492831
	H442	H	0.400667	0.415373	0.499065
	H443	H	0.397363	0.402093	0.495446
	O444	O	-0.024643	1.135446	1.046531
	H445	H	-0.017562	1.132830	1.036679
	H446	H	-0.035894	1.133158	1.052707
	O447	O	0.632849	0.396161	0.538305
	H448	H	0.627102	0.395229	0.518408
	H449	H	0.631685	0.406098	0.529834
	O450	O	0.701017	0.524187	0.403607
	H451	H	0.691935	0.528544	0.410748
	H452	H	0.701928	0.545589	0.405452
	O453	O	0.451055	0.289387	0.404073
	H454	H	0.467188	0.289878	0.396680
	H455	H	0.477189	0.294572	0.391744
	O456	O	1.142915	0.005296	-0.154188
	H457	H	1.136838	-0.007618	-0.146741
	H458	H	1.150945	-0.008840	-0.166432
	O459	O	0.974383	0.195222	0.884392
	H460	H	0.957132	0.192476	0.867711
	H461	H	0.960367	0.198867	0.875407
	O462	O	0.700753	0.542170	0.706344
	H463	H	0.690728	0.521842	0.699398
	H464	H	0.719245	0.532914	0.721028
	O465	O	0.784375	-0.196843	0.209646
	H466	H	0.802312	-0.183296	0.200585
	H467	H	0.755351	-0.229714	0.243612
