data_Molecule from HDF5

_cell_length_a		16.200311
_cell_length_b		16.225918
_cell_length_c		16.268102
_cell_angle_alpha	90.045588
_cell_angle_beta	89.936975
_cell_angle_gamma	89.859457
_symmetry_space_group_name_H-M	'P 1'
_symmetry_Int_Tables_number		1

loop_
	_symmetry_equiv_pos_as_xyz
	x,y,z

loop_
	_atom_site_label
	_atom_site_type_symbol
	_atom_site_fract_x
	_atom_site_fract_y
	_atom_site_fract_z
	H0	H	0.393135	0.839483	0.717297
	H1	H	0.589598	0.167363	0.718226
	H2	H	0.592680	0.839905	0.288034
	H3	H	0.392051	0.167254	0.287591
	H4	H	0.706859	0.405151	0.839382
	H5	H	0.705667	0.601123	0.167563
	H6	H	0.278693	0.602761	0.838379
	H7	H	0.278100	0.406663	0.166865
	H8	H	0.826890	0.718674	0.405285
	H9	H	0.155555	0.719553	0.601660
	H10	H	0.827219	0.292117	0.600090
	H11	H	0.156731	0.291479	0.403734
	H12	H	0.828244	0.406053	0.716302
	H13	H	0.156192	0.603691	0.715592
	H14	H	0.827081	0.604033	0.288441
	H15	H	0.156388	0.406676	0.288911
	H16	H	0.394435	0.717655	0.838525
	H17	H	0.591510	0.718843	0.166942
	H18	H	0.591017	0.289172	0.839251
	H19	H	0.392701	0.289209	0.166562
	H20	H	0.706980	0.840066	0.405624
	H21	H	0.702650	0.169224	0.600698
	H22	H	0.278014	0.839433	0.600710
	H23	H	0.279153	0.169000	0.405325
	H24	H	0.894737	0.340427	0.216692
	H25	H	0.090163	0.668988	0.217095
	H26	H	0.092447	0.341210	0.786560
	H27	H	0.892568	0.668640	0.789127
	H28	H	0.206450	0.907062	0.338524
	H29	H	0.204261	0.101595	0.666810
	H30	H	0.775559	0.104330	0.339071
	H31	H	0.778311	0.908083	0.667308
	H32	H	0.328072	0.217463	0.904823
	H33	H	0.656297	0.215766	0.100128
	H34	H	0.327014	0.789947	0.100503
	H35	H	0.656613	0.790085	0.905673
	H36	H	0.327876	0.903530	0.218269
	H37	H	0.655926	0.101288	0.216712
	H38	H	0.327488	0.101183	0.790857
	H39	H	0.656222	0.903880	0.788942
	H40	H	0.893993	0.218308	0.338261
	H41	H	0.089225	0.218941	0.666008
	H42	H	0.089646	0.791031	0.337996
	H43	H	0.893709	0.791726	0.666953
	H44	H	0.206474	0.339906	0.904104
	H45	H	0.205082	0.669113	0.099906
	H46	H	0.780663	0.339326	0.100515
	H47	H	0.776688	0.667675	0.905069
	H48	H	0.402262	0.123145	0.607587
	H49	H	0.585174	0.887287	0.591706
	H50	H	0.592581	0.122614	0.414283
	H51	H	0.396820	0.887386	0.413071
	H52	H	0.590909	0.416344	0.120320
	H53	H	0.585132	0.598105	0.886114
	H54	H	0.388750	0.595527	0.121827
	H55	H	0.393722	0.403156	0.882216
	H56	H	0.110312	0.601157	0.408738
	H57	H	0.869528	0.616116	0.594152
	H58	H	0.110791	0.408146	0.594821
	H59	H	0.874658	0.417938	0.405544
	H60	H	0.107844	0.413304	0.591928
	H61	H	0.881177	0.589176	0.581892
	H62	H	0.107452	0.596962	0.412946
	H63	H	0.871900	0.406632	0.405496
	H64	H	0.404433	0.590134	0.115888
	H65	H	0.586942	0.594469	0.887129
	H66	H	0.577052	0.409097	0.117643
	H67	H	0.395336	0.418865	0.887441
	H68	H	0.582689	0.123466	0.400116
	H69	H	0.589486	0.884742	0.598945
	H70	H	0.405332	0.116599	0.590304
	H71	H	0.398512	0.885289	0.406461
	H72	H	0.893799	0.623662	0.097831
	H73	H	0.086076	0.391061	0.082790
	H74	H	0.074807	0.620991	0.902489
	H75	H	0.903642	0.389873	0.915634
	H76	H	0.076870	0.911008	0.617031
	H77	H	0.091949	0.097685	0.383548
	H78	H	0.901391	0.105790	0.620318
	H79	H	0.897592	0.908619	0.384310
	H80	H	0.613325	0.099263	0.902657
	H81	H	0.373408	0.100904	0.095833
	H82	H	0.606902	0.913371	0.092752
	H83	H	0.372668	0.910439	0.904883
	H84	H	0.609468	0.912380	0.099654
	H85	H	0.375354	0.094033	0.092813
	H86	H	0.609841	0.100338	0.915833
	H87	H	0.373072	0.905535	0.910689
	H88	H	0.890732	0.098063	0.621352
	H89	H	0.082224	0.092959	0.388080
	H90	H	0.088900	0.904282	0.622510
	H91	H	0.896445	0.914990	0.385256
	H92	H	0.085564	0.618088	0.920309
	H93	H	0.095440	0.382556	0.102789
	H94	H	0.901241	0.622282	0.100187
	H95	H	0.892745	0.384567	0.909412
	H96	H	0.388327	0.123634	0.593954
	H97	H	0.581150	0.886799	0.598847
	H98	H	0.575572	0.116748	0.415160
	H99	H	0.402898	0.887826	0.410551
	H100	H	0.590013	0.400633	0.123848
	H101	H	0.583003	0.595241	0.887270
	H102	H	0.402039	0.606473	0.121274
	H103	H	0.408880	0.408619	0.888227
	H104	H	0.109402	0.595644	0.406459
	H105	H	0.871902	0.589910	0.611954
	H106	H	0.109940	0.413485	0.598309
	H107	H	0.876057	0.411517	0.415540
	H108	H	0.898662	0.620923	0.092311
	H109	H	0.073158	0.389461	0.102305
	H110	H	0.095131	0.626358	0.903714
	H111	H	0.904407	0.386022	0.902103
	H112	H	0.089775	0.918509	0.618800
	H113	H	0.082320	0.104512	0.383754
	H114	H	0.902013	0.093497	0.616441
	H115	H	0.901432	0.912638	0.388162
	H116	H	0.607696	0.088294	0.909435
	H117	H	0.373902	0.094285	0.099250
	H118	H	0.610003	0.906345	0.095274
	H119	H	0.375761	0.912806	0.912023
	C120	C	0.370190	0.012501	0.625010
	C121	C	0.612973	0.995159	0.624786
	C122	C	0.613008	0.012302	0.381638
	C123	C	0.370323	0.995414	0.381315
	C124	C	0.614424	0.381010	0.011957
	C125	C	0.613292	0.624675	0.994987
	C126	C	0.370341	0.625560	0.011322
	C127	C	0.370720	0.382360	0.994285
	C128	C	0.000190	0.626155	0.381381
	C129	C	0.983126	0.626673	0.624209
	C130	C	0.000632	0.383612	0.623447
	C131	C	0.983103	0.383306	0.380582
	C132	C	0.870548	0.513224	0.124736
	C133	C	0.113542	0.496187	0.124501
	C134	C	0.114096	0.513053	0.880558
	C135	C	0.870573	0.495420	0.880768
	C136	C	0.113480	0.882903	0.510905
	C137	C	0.113474	0.126603	0.493665
	C138	C	0.869556	0.127312	0.511086
	C139	C	0.869987	0.883752	0.494370
	C140	C	0.501070	0.124180	0.881815
	C141	C	0.483049	0.124699	0.124352
	C142	C	0.500263	0.881814	0.124128
	C143	C	0.483083	0.881569	0.881534
	C144	C	0.372529	0.888628	0.679662
	C145	C	0.610013	0.118815	0.679919
	C146	C	0.612060	0.888787	0.326320
	C147	C	0.372169	0.118653	0.325884
	C148	C	0.669238	0.384427	0.888486
	C149	C	0.668081	0.621916	0.118568
	C150	C	0.315996	0.622968	0.887581
	C151	C	0.315865	0.385709	0.117859
	C152	C	0.876004	0.681017	0.384306
	C153	C	0.106626	0.681700	0.621787
	C154	C	0.876815	0.329032	0.620690
	C155	C	0.107297	0.328713	0.383163
	C156	C	0.877196	0.385793	0.678570
	C157	C	0.106775	0.624137	0.678670
	C158	C	0.876227	0.624231	0.326367
	C159	C	0.107249	0.385940	0.326069
	C160	C	0.373758	0.679955	0.887526
	C161	C	0.611250	0.680500	0.118067
	C162	C	0.611666	0.326805	0.888333
	C163	C	0.372623	0.327181	0.117676
	C164	C	0.668919	0.888849	0.384866
	C165	C	0.666340	0.119535	0.621672
	C166	C	0.315153	0.888708	0.621913
	C167	C	0.315990	0.119455	0.384450
	C168	C	0.874062	0.389384	0.179174
	C169	C	0.110359	0.620129	0.178889
	C170	C	0.112317	0.389725	0.825029
	C171	C	0.872376	0.619411	0.826678
	C172	C	0.168623	0.885913	0.387423
	C173	C	0.167244	0.123145	0.617674
	C174	C	0.814240	0.124328	0.387649
	C175	C	0.815850	0.886898	0.618161
	C176	C	0.376833	0.179075	0.884734
	C177	C	0.606784	0.179204	0.121461
	C178	C	0.376179	0.827271	0.121192
	C179	C	0.607420	0.827263	0.884644
	C180	C	0.376479	0.883691	0.179660
	C181	C	0.606738	0.122340	0.179313
	C182	C	0.376815	0.121708	0.827691
	C183	C	0.607168	0.883770	0.826680
	C184	C	0.872650	0.181306	0.387420
	C185	C	0.110185	0.181245	0.617168
	C186	C	0.110654	0.828470	0.387132
	C187	C	0.872929	0.828998	0.617845
	C188	C	0.168943	0.389185	0.883476
	C189	C	0.167794	0.620092	0.121179
	C190	C	0.817662	0.388585	0.121294
	C191	C	0.814996	0.618926	0.884479
	C192	C	0.392178	0.098888	0.603591
	C193	C	0.591663	0.908581	0.603080
	C194	C	0.590294	0.098710	0.403369
	C195	C	0.392801	0.909147	0.403481
	C196	C	0.592448	0.402384	0.098290
	C197	C	0.591424	0.602427	0.909058
	C198	C	0.392000	0.603828	0.097360
	C199	C	0.392829	0.403682	0.908136
	C200	C	0.086690	0.604377	0.403093
	C201	C	0.896443	0.604804	0.602373
	C202	C	0.087295	0.405220	0.601440
	C203	C	0.896708	0.405398	0.402467
	C204	C	0.891681	0.599771	0.103075
	C205	C	0.091426	0.409941	0.102567
	C206	C	0.091754	0.599526	0.902500
	C207	C	0.893480	0.409225	0.902493
	C208	C	0.091461	0.904720	0.597289
	C209	C	0.091757	0.104860	0.407376
	C210	C	0.891650	0.105535	0.597127
	C211	C	0.892022	0.905807	0.407977
	C212	C	0.587954	0.102502	0.903130
	C213	C	0.396394	0.102819	0.102398
	C214	C	0.586597	0.904052	0.102185
	C215	C	0.396166	0.903212	0.902815
	Zn216	Zn	0.491978	0.003161	0.753624
	Zn217	Zn	0.491490	0.003410	0.252732
	Zn218	Zn	0.742634	0.503511	0.003596
	Zn219	Zn	0.241632	0.504413	0.002740
	Zn220	Zn	-0.008583	0.754708	0.502385
	Zn221	Zn	-0.008134	0.255347	0.501748
	Zn222	Zn	-0.008044	0.504853	0.752328
	Zn223	Zn	-0.008200	0.504922	0.252808
	Zn224	Zn	0.491874	0.753662	0.002731
	Zn225	Zn	0.492030	0.252819	0.002525
	Zn226	Zn	0.741344	0.004947	0.503777
	Zn227	Zn	0.242176	0.004646	0.502951
	N228	N	0.405820	0.966592	0.681903
	N229	N	0.577479	0.040568	0.681935
	N230	N	0.578052	0.966496	0.324332
	N231	N	0.405363	0.040507	0.323970
	N232	N	0.671081	0.417256	0.966465
	N233	N	0.669465	0.587905	0.041132
	N234	N	0.313813	0.589767	0.965543
	N235	N	0.314396	0.419218	0.040301
	N236	N	0.953911	0.682182	0.418082
	N237	N	0.028662	0.683332	0.588567
	N238	N	0.954915	0.327453	0.587154
	N239	N	0.029268	0.327165	0.416717
	N240	N	0.955051	0.419224	0.680121
	N241	N	0.028985	0.590388	0.680177
	N242	N	0.954327	0.590867	0.324436
	N243	N	0.029102	0.419232	0.324197
	N244	N	0.406868	0.681706	0.965263
	N245	N	0.577959	0.682480	0.040222
	N246	N	0.578090	0.324598	0.966054
	N247	N	0.406229	0.325018	0.039895
	N248	N	0.669525	0.966746	0.418587
	N249	N	0.668224	0.041693	0.588082
	N250	N	0.313870	0.966500	0.588417
	N251	N	0.314678	0.041689	0.418159
	N252	N	0.906140	0.467671	0.181586
	N253	N	0.077687	0.542032	0.181179
	N254	N	0.078984	0.467919	0.823068
	N255	N	0.906295	0.541515	0.824363
	N256	N	0.170515	0.919013	0.465279
	N257	N	0.169521	0.089927	0.539927
	N258	N	0.812346	0.091412	0.465579
	N259	N	0.814276	0.920249	0.540475
	N260	N	0.455149	0.180949	0.917326
	N261	N	0.528915	0.180617	0.087883
	N262	N	0.454102	0.825978	0.087477
	N263	N	0.529330	0.825628	0.917790
	N264	N	0.454494	0.916894	0.181676
	N265	N	0.528554	0.089317	0.181280
	N266	N	0.454829	0.087860	0.826070
	N267	N	0.528848	0.917006	0.824587
	N268	N	0.906132	0.183472	0.465017
	N269	N	0.077377	0.183292	0.539216
	N270	N	0.077109	0.826599	0.464966
	N271	N	0.905971	0.826818	0.539815
	N272	N	0.169971	0.466813	0.917348
	N273	N	0.169819	0.542091	0.088014
	N274	N	0.815408	0.466637	0.088158
	N275	N	0.813790	0.540988	0.917391
	O276	O	0.482009	-0.524097	0.461949
	H277	H	0.477459	-0.533613	0.462844
	H278	H	0.491877	-0.529199	0.469637
	O279	O	0.452413	0.531058	0.534846
	H280	H	0.452545	0.531141	0.535797
	H281	H	0.449879	0.532324	0.536176
	O282	O	0.509089	0.486079	0.493254
	H283	H	0.515449	0.491103	0.496611
	H284	H	0.515285	0.486888	0.494209
	O285	O	0.493556	0.548216	0.449463
	H286	H	0.492074	0.560480	0.449088
	H287	H	0.478387	0.552680	0.448267
	O288	O	0.504391	0.559098	0.465716
	H289	H	0.503455	0.561878	0.458972
	H290	H	0.506019	0.559369	0.457800
	O291	O	0.491423	0.509852	0.511092
	H292	H	0.487335	0.511438	0.514898
	H293	H	0.501101	0.513477	0.518022
	O294	O	0.463238	0.539109	0.513744
	H295	H	0.465618	0.531151	0.500061
	H296	H	0.449578	0.539458	0.515180
	O297	O	1.499500	0.528777	0.440158
	H298	H	1.496141	0.529971	0.445428
	H299	H	1.505026	0.529182	0.434166
