data_Molecule from HDF5

_cell_length_a		16.102659
_cell_length_b		16.390607
_cell_length_c		16.096286
_cell_angle_alpha	89.196244
_cell_angle_beta	89.174909
_cell_angle_gamma	90.285996
_symmetry_space_group_name_H-M	'P 1'
_symmetry_Int_Tables_number		1

loop_
	_symmetry_equiv_pos_as_xyz
	x,y,z

loop_
	_atom_site_label
	_atom_site_type_symbol
	_atom_site_fract_x
	_atom_site_fract_y
	_atom_site_fract_z
	H0	H	0.402462	0.835698	0.716640
	H1	H	0.603493	0.161740	0.708409
	H2	H	0.603981	0.836873	0.281055
	H3	H	0.408683	0.162709	0.281897
	H4	H	0.719029	0.403974	0.834056
	H5	H	0.711592	0.597056	0.163917
	H6	H	0.294017	0.599363	0.832307
	H7	H	0.286666	0.399509	0.163411
	H8	H	0.839524	0.716708	0.395532
	H9	H	0.166886	0.714680	0.597243
	H10	H	0.838423	0.278380	0.605685
	H11	H	0.167602	0.286751	0.395638
	H12	H	0.837852	0.398457	0.716591
	H13	H	0.169562	0.594174	0.705137
	H14	H	0.836073	0.596963	0.288200
	H15	H	0.167818	0.404838	0.283762
	H16	H	0.402098	0.718651	0.834823
	H17	H	0.602340	0.714978	0.161401
	H18	H	0.608211	0.286660	0.833934
	H19	H	0.393086	0.277257	0.160113
	H20	H	0.719356	0.835835	0.398887
	H21	H	0.718992	0.161442	0.591583
	H22	H	0.286008	0.835540	0.600522
	H23	H	0.290957	0.162547	0.398231
	H24	H	0.900248	0.337314	0.217619
	H25	H	0.098992	0.663500	0.208827
	H26	H	0.104318	0.336927	0.783616
	H27	H	0.905461	0.662080	0.780096
	H28	H	0.219117	0.903494	0.331967
	H29	H	0.212923	0.093791	0.663742
	H30	H	0.797532	0.096775	0.330959
	H31	H	0.789028	0.898975	0.662620
	H32	H	0.338264	0.216846	0.895733
	H33	H	0.665273	0.217638	0.096483
	H34	H	0.339067	0.781409	0.102821
	H35	H	0.667546	0.786771	0.894942
	H36	H	0.338440	0.899735	0.215157
	H37	H	0.669399	0.096798	0.203456
	H38	H	0.337126	0.097043	0.784481
	H39	H	0.669642	0.906908	0.786797
	H40	H	0.902521	0.218151	0.334612
	H41	H	0.104661	0.213238	0.661329
	H42	H	0.108164	0.785448	0.333782
	H43	H	0.897906	0.779730	0.661218
	H44	H	0.220572	0.337783	0.899015
	H45	H	0.217403	0.662752	0.093673
	H46	H	0.782621	0.337357	0.102661
	H47	H	0.789088	0.663017	0.898603
	H48	H	0.409201	0.115253	0.593697
	H49	H	0.603335	0.880909	0.589817
	H50	H	0.598523	0.113739	0.402578
	H51	H	0.420816	0.886695	0.407499
	H52	H	0.589586	0.406947	0.115513
	H53	H	0.587555	0.597416	0.881265
	H54	H	0.407939	0.596939	0.119614
	H55	H	0.402657	0.402081	0.875474
	H56	H	0.113692	0.584833	0.416842
	H57	H	0.884645	0.589539	0.590190
	H58	H	0.117400	0.411478	0.585626
	H59	H	0.883998	0.406982	0.407177
	H60	H	0.123550	0.402701	0.598015
	H61	H	0.884871	0.589168	0.588855
	H62	H	0.123769	0.586830	0.388337
	H63	H	0.883972	0.402137	0.411726
	H64	H	0.404764	0.586937	0.116696
	H65	H	0.601155	0.600644	0.875845
	H66	H	0.586492	0.405891	0.114746
	H67	H	0.411522	0.420876	0.884051
	H68	H	0.604136	0.116466	0.400537
	H69	H	0.594320	0.881572	0.600592
	H70	H	0.411012	0.113872	0.587915
	H71	H	0.406290	0.884277	0.416663
	H72	H	0.911709	0.616385	0.099465
	H73	H	0.093925	0.381820	0.098955
	H74	H	0.095804	0.614991	0.898794
	H75	H	0.907905	0.387070	0.915450
	H76	H	0.091578	0.902762	0.615286
	H77	H	0.102972	0.095374	0.377015
	H78	H	0.911783	0.085150	0.615042
	H79	H	0.913082	0.906446	0.378489
	H80	H	0.620370	0.085650	0.892777
	H81	H	0.386612	0.086197	0.085552
	H82	H	0.616960	0.914928	0.082275
	H83	H	0.384482	0.908757	0.906552
	H84	H	0.624797	0.906103	0.098685
	H85	H	0.383357	0.088163	0.094909
	H86	H	0.625576	0.108653	0.899543
	H87	H	0.383642	0.903504	0.909010
	H88	H	0.913731	0.090492	0.615879
	H89	H	0.093658	0.088426	0.381738
	H90	H	0.093231	0.905195	0.616154
	H91	H	0.914229	0.906661	0.378649
	H92	H	0.097177	0.614682	0.904770
	H93	H	0.087922	0.386652	0.089885
	H94	H	0.910089	0.613692	0.083760
	H95	H	0.907167	0.382071	0.906119
	H96	H	0.405952	0.115156	0.588336
	H97	H	0.590850	0.885758	0.587613
	H98	H	0.598381	0.115815	0.396483
	H99	H	0.407171	0.880401	0.399213
	H100	H	0.588773	0.403739	0.117352
	H101	H	0.598855	0.586733	0.881281
	H102	H	0.415260	0.590915	0.114393
	H103	H	0.424851	0.402454	0.881324
	H104	H	0.124633	0.609728	0.405894
	H105	H	0.885148	0.589026	0.589666
	H106	H	0.120127	0.397225	0.582570
	H107	H	0.885688	0.408812	0.413499
	H108	H	0.898169	0.618361	0.092977
	H109	H	0.099918	0.383598	0.088904
	H110	H	0.101989	0.616161	0.901040
	H111	H	0.916547	0.386325	0.909360
	H112	H	0.090150	0.905787	0.615171
	H113	H	0.091892	0.100383	0.378889
	H114	H	0.907772	0.089210	0.617296
	H115	H	0.913411	0.906026	0.378735
	H116	H	0.616682	0.091932	0.915670
	H117	H	0.383107	0.094050	0.086826
	H118	H	0.622917	0.895537	0.081031
	H119	H	0.385592	0.907987	0.912963
	C120	C	0.379274	0.007062	0.621050
	C121	C	0.625188	0.990473	0.618699
	C122	C	0.628458	0.007650	0.372730
	C123	C	0.383354	0.991040	0.377296
	C124	C	0.621184	0.378658	0.007105
	C125	C	0.623634	0.622108	0.988725
	C126	C	0.381724	0.621286	0.007594
	C127	C	0.380631	0.377595	0.988785
	C128	C	0.011642	0.622137	0.375732
	C129	C	0.994113	0.618698	0.617713
	C130	C	0.011257	0.374560	0.621038
	C131	C	0.993709	0.378656	0.379203
	C132	C	0.877193	0.508669	0.122640
	C133	C	0.123245	0.491859	0.119590
	C134	C	0.127414	0.508063	0.874446
	C135	C	0.881778	0.492004	0.878511
	C136	C	0.123516	0.877193	0.506463
	C137	C	0.124419	0.121036	0.488616
	C138	C	0.883233	0.118948	0.506908
	C139	C	0.882090	0.876288	0.487891
	C140	C	0.511585	0.123121	0.874889
	C141	C	0.493361	0.119325	0.116487
	C142	C	0.512454	0.876297	0.119304
	C143	C	0.494141	0.879252	0.878364
	C144	C	0.382017	0.884629	0.678317
	C145	C	0.623102	0.113142	0.671066
	C146	C	0.625033	0.885326	0.318681
	C147	C	0.387265	0.113934	0.320214
	C148	C	0.680344	0.382683	0.883285
	C149	C	0.676158	0.618148	0.113804
	C150	C	0.329422	0.619510	0.882406
	C151	C	0.323852	0.378953	0.113369
	C152	C	0.888268	0.677898	0.377006
	C153	C	0.117660	0.676042	0.616353
	C154	C	0.887742	0.317625	0.623614
	C155	C	0.118036	0.324522	0.377498
	C156	C	0.887374	0.377178	0.678932
	C157	C	0.119275	0.615778	0.669843
	C158	C	0.886621	0.618522	0.323027
	C159	C	0.118200	0.383217	0.321699
	C160	C	0.383463	0.678824	0.883491
	C161	C	0.621793	0.676980	0.112525
	C162	C	0.624685	0.324670	0.883301
	C163	C	0.376792	0.318088	0.111603
	C164	C	0.682349	0.884839	0.377224
	C165	C	0.680821	0.112771	0.613113
	C166	C	0.323650	0.884543	0.620673
	C167	C	0.328526	0.113822	0.377859
	C168	C	0.879316	0.386131	0.179455
	C169	C	0.120212	0.614641	0.172320
	C170	C	0.124768	0.385808	0.820815
	C171	C	0.884733	0.613829	0.819745
	C172	C	0.181245	0.881636	0.381753
	C173	C	0.177420	0.115739	0.613654
	C174	C	0.831609	0.117746	0.381404
	C175	C	0.825757	0.878031	0.612768
	C176	C	0.387543	0.178745	0.876160
	C177	C	0.616914	0.177514	0.115142
	C178	C	0.388293	0.820284	0.121024
	C179	C	0.618224	0.824690	0.877272
	C180	C	0.388156	0.878566	0.177263
	C181	C	0.619023	0.117313	0.168242
	C182	C	0.386873	0.119069	0.821128
	C183	C	0.619350	0.884252	0.822873
	C184	C	0.884052	0.178284	0.383301
	C185	C	0.123222	0.175016	0.612655
	C186	C	0.125755	0.823292	0.382436
	C187	C	0.879892	0.818742	0.612007
	C188	C	0.182765	0.386270	0.878355
	C189	C	0.178991	0.614179	0.114990
	C190	C	0.820735	0.386190	0.122345
	C191	C	0.826703	0.614032	0.878522
	C192	C	0.402025	0.092656	0.597000
	C193	C	0.602615	0.904830	0.598563
	C194	C	0.606888	0.093010	0.393658
	C195	C	0.404997	0.905869	0.400892
	C196	C	0.595813	0.399373	0.093544
	C197	C	0.602220	0.600983	0.901883
	C198	C	0.402906	0.598240	0.094417
	C199	C	0.405602	0.401547	0.902491
	C200	C	0.098363	0.600163	0.397260
	C201	C	0.907381	0.595786	0.595989
	C202	C	0.097926	0.397280	0.596083
	C203	C	0.906858	0.399708	0.403725
	C204	C	0.900131	0.594008	0.098989
	C205	C	0.100651	0.406306	0.098820
	C206	C	0.104919	0.593163	0.895207
	C207	C	0.904079	0.407046	0.903086
	C208	C	0.098699	0.898151	0.592937
	C209	C	0.102746	0.100689	0.401783
	C210	C	0.904751	0.095228	0.593510
	C211	C	0.906427	0.899619	0.401132
	C212	C	0.598363	0.101884	0.896366
	C213	C	0.407047	0.096401	0.095404
	C214	C	0.599262	0.898819	0.094628
	C215	C	0.407020	0.900531	0.902371
	Zn216	Zn	0.502964	-0.000458	0.749079
	Zn217	Zn	0.504203	-0.000675	0.245319
	Zn218	Zn	0.749456	0.499881	-0.000220
	Zn219	Zn	0.254780	0.500413	-0.002074
	Zn220	Zn	0.003007	0.748743	0.497326
	Zn221	Zn	0.002782	0.247787	0.498396
	Zn222	Zn	0.003720	0.498730	0.746429
	Zn223	Zn	0.001406	0.499999	0.250096
	Zn224	Zn	0.502806	0.748802	-0.002264
	Zn225	Zn	0.501930	0.249564	-0.002293
	Zn226	Zn	0.756268	-0.001380	0.496701
	Zn227	Zn	0.250871	-0.000922	0.497764
	N228	N	0.415776	0.962033	0.678746
	N229	N	0.589018	0.036021	0.674651
	N230	N	0.592330	0.962553	0.315670
	N231	N	0.420441	0.036597	0.319512
	N232	N	0.678400	0.415674	0.961457
	N233	N	0.677480	0.584677	0.035802
	N234	N	0.328313	0.584205	0.960517
	N235	N	0.325913	0.415361	0.035822
	N236	N	0.967009	0.680522	0.409039
	N237	N	0.038640	0.678068	0.584734
	N238	N	0.966036	0.315863	0.588522
	N239	N	0.039574	0.321427	0.412453
	N240	N	0.965518	0.411728	0.677690
	N241	N	0.041456	0.580686	0.670768
	N242	N	0.964423	0.584223	0.322226
	N243	N	0.039906	0.416414	0.322797
	N244	N	0.415059	0.680294	0.962279
	N245	N	0.590006	0.679637	0.033712
	N246	N	0.588686	0.322111	0.961265
	N247	N	0.411439	0.317177	0.033020
	N248	N	0.684802	0.961981	0.410007
	N249	N	0.682128	0.035401	0.581180
	N250	N	0.321743	0.961698	0.585777
	N251	N	0.326040	0.036642	0.412749
	N252	N	0.913373	0.463232	0.180032
	N253	N	0.086171	0.537408	0.175242
	N254	N	0.091154	0.462635	0.818010
	N255	N	0.918353	0.536830	0.819528
	N256	N	0.179935	0.914508	0.459797
	N257	N	0.178096	0.082684	0.535506
	N258	N	0.830909	0.081400	0.459023
	N259	N	0.826846	0.912999	0.534508
	N260	N	0.466138	0.181460	0.908683
	N261	N	0.538057	0.178876	0.083449
	N262	N	0.466696	0.818710	0.085831
	N263	N	0.539165	0.821472	0.910977
	N264	N	0.466284	0.913126	0.175991
	N265	N	0.541476	0.081602	0.169174
	N266	N	0.464997	0.085578	0.819689
	N267	N	0.541176	0.917620	0.823514
	N268	N	0.915406	0.179147	0.462359
	N269	N	0.090747	0.178307	0.534187
	N270	N	0.090546	0.820423	0.460948
	N271	N	0.914142	0.817492	0.533268
	N272	N	0.184714	0.463426	0.910868
	N273	N	0.181044	0.536852	0.082991
	N274	N	0.819156	0.463504	0.087844
	N275	N	0.825001	0.537322	0.914503
	O276	O	0.553895	0.440654	0.490755
	H277	H	0.553546	0.436573	0.494094
	H278	H	0.572133	0.441208	0.490143
	O279	O	0.492878	0.499828	0.492518
	H280	H	0.492922	0.481964	0.492257
	H281	H	0.496287	0.497716	0.492505
	O282	O	0.931695	1.062890	-0.095154
	H283	H	0.926993	1.085594	-0.119829
	H284	H	0.916631	1.051675	-0.083120
	O285	O	0.955848	0.146646	1.009310
	H286	H	0.963491	0.141502	1.014663
	H287	H	0.969298	0.154942	1.008924
	O288	O	0.495857	0.450671	0.588547
	H289	H	0.499561	0.452689	0.601588
	H290	H	0.499401	0.456175	0.580724
	O291	O	0.547889	0.515889	0.424887
	H292	H	0.553849	0.509419	0.419943
	H293	H	0.534408	0.514433	0.415570
	O294	O	0.491414	0.525101	0.513377
	H295	H	0.491111	0.533355	0.510638
	H296	H	0.495430	0.523924	0.515965
	O297	O	0.069972	0.052652	1.003105
	H298	H	0.080575	0.051734	1.005068
	H299	H	0.071215	0.051111	0.996230
	O300	O	0.435860	0.521969	0.591029
	H301	H	0.434985	0.517037	0.596267
	H302	H	0.432122	0.536279	0.587757
	O303	O	1.065481	0.843875	-0.108144
	H304	H	1.071916	0.834835	-0.109013
	H305	H	1.052384	0.838206	-0.092639
	O306	O	0.031651	0.939797	1.033988
	H307	H	0.034841	0.930756	1.043280
	H308	H	0.018049	0.938631	1.019369
	O309	O	0.487804	0.400549	0.535294
	H310	H	0.487701	0.410555	0.534097
	H311	H	0.483316	0.399092	0.536108
	O312	O	0.042919	-0.050966	-0.110727
	H313	H	0.049596	-0.054834	-0.116020
	H314	H	0.055088	-0.053891	-0.106774
	O315	O	0.910936	-0.054271	0.083357
	H316	H	0.908643	-0.056276	0.073257
	H317	H	0.895780	-0.063153	0.087814
	O318	O	0.870538	1.030507	1.075327
	H319	H	0.896204	1.030847	1.073602
	H320	H	0.865993	1.026526	1.058252
	O321	O	-0.084726	0.127939	0.968228
	H322	H	-0.082263	0.129289	0.965917
	H323	H	-0.069529	0.128373	0.953577
	O324	O	0.493159	0.506449	0.482316
	H325	H	0.499202	0.508020	0.482089
	H326	H	0.494106	0.493568	0.472101
	O327	O	0.049364	-0.115750	0.054908
	H328	H	0.044435	-0.115648	0.084340
	H329	H	0.037216	-0.109112	0.050186
	O330	O	0.532633	0.580772	0.506843
	H331	H	0.535737	0.579005	0.504280
	H332	H	0.537553	0.575517	0.505538
	O333	O	0.043002	0.943301	1.107733
	H334	H	0.037215	0.937353	1.123967
	H335	H	0.042719	0.944787	1.103518
	O336	O	-0.047275	-0.009285	-0.003562
	H337	H	-0.043494	-0.004470	0.003177
	H338	H	-0.043414	-0.016551	0.009484
	O339	O	0.527584	0.402253	0.537257
	H340	H	0.529128	0.395665	0.556301
	H341	H	0.517305	0.404524	0.540134
	O342	O	0.973042	1.054500	1.050421
	H343	H	0.961545	1.062480	1.056469
	H344	H	0.970835	1.055874	1.059088
	O345	O	0.991027	1.010170	0.071393
	H346	H	0.993191	1.015198	0.079482
	H347	H	0.994371	1.029233	0.062141
	O348	O	0.528502	0.470851	0.452907
	H349	H	0.535677	0.471713	0.453446
	H350	H	0.522289	0.467411	0.466406
	O351	O	0.460570	0.531886	0.496013
	H352	H	0.457139	0.548039	0.501313
	H353	H	0.453510	0.528718	0.499998
	O354	O	0.449046	0.609343	0.426804
	H355	H	0.443904	0.615361	0.419016
	H356	H	0.452664	0.608019	0.427229
	O357	O	0.895225	-0.067432	0.926329
	H358	H	0.890716	-0.071726	0.922233
	H359	H	0.907355	-0.053454	0.922930
	O360	O	0.499303	0.496007	0.516175
	H361	H	0.486897	0.497811	0.506735
	H362	H	0.494608	0.497275	0.516612
	O363	O	0.511078	0.513562	0.378499
	H364	H	0.512331	0.510019	0.368284
	H365	H	0.508913	0.507722	0.381923
	O366	O	1.008835	1.097236	0.926184
	H367	H	1.001483	1.088129	0.915071
	H368	H	1.000528	1.107938	0.918579
	O369	O	0.715592	0.267419	1.356319
	H370	H	0.720874	0.276826	1.358626
	H371	H	0.705916	0.262725	1.350715
	O372	O	0.148709	0.124150	0.010922
	H373	H	0.145429	0.122896	0.016196
	H374	H	0.144384	0.121695	0.012869
	O375	O	1.094400	-0.075633	-0.132469
	H376	H	1.088036	-0.087536	-0.130593
	H377	H	1.104890	-0.090683	-0.138841
	O378	O	0.515664	0.439830	0.566095
	H379	H	0.510172	0.436135	0.578548
	H380	H	0.509517	0.446827	0.563404
	O381	O	0.474458	0.499423	0.514768
	H382	H	0.484260	0.507241	0.511962
	H383	H	0.488135	0.490723	0.521508
