data_Molecule from HDF5

_cell_length_a		16.698232
_cell_length_b		16.569280
_cell_length_c		16.628607
_cell_angle_alpha	89.962487
_cell_angle_beta	89.950270
_cell_angle_gamma	89.985513
_symmetry_space_group_name_H-M	'P 1'
_symmetry_Int_Tables_number		1

loop_
	_symmetry_equiv_pos_as_xyz
	x,y,z

loop_
	_atom_site_label
	_atom_site_type_symbol
	_atom_site_fract_x
	_atom_site_fract_y
	_atom_site_fract_z
	H0	H	0.397651	0.830985	0.734628
	H1	H	0.604383	0.144714	0.733745
	H2	H	0.607417	0.832602	0.293681
	H3	H	0.397844	0.143213	0.294754
	H4	H	0.717871	0.386327	0.856249
	H5	H	0.725034	0.594914	0.167766
	H6	H	0.280755	0.593252	0.858425
	H7	H	0.283136	0.385898	0.170942
	H8	H	0.845106	0.708418	0.409929
	H9	H	0.155967	0.707771	0.617356
	H10	H	0.847110	0.266508	0.617267
	H11	H	0.156545	0.266092	0.408441
	H12	H	0.846283	0.382694	0.734259
	H13	H	0.155342	0.593684	0.735866
	H14	H	0.845168	0.593091	0.292384
	H15	H	0.155176	0.383005	0.292090
	H16	H	0.398852	0.707543	0.857906
	H17	H	0.607364	0.709914	0.168818
	H18	H	0.600005	0.271717	0.855511
	H19	H	0.398586	0.268789	0.170792
	H20	H	0.723700	0.833301	0.409291
	H21	H	0.722024	0.143753	0.619674
	H22	H	0.279588	0.831523	0.620449
	H23	H	0.280547	0.142563	0.409358
	H24	H	0.896186	0.331146	0.234358
	H25	H	0.104155	0.643894	0.233613
	H26	H	0.103446	0.330915	0.795931
	H27	H	0.895612	0.642927	0.792595
	H28	H	0.223717	0.879565	0.360212
	H29	H	0.221717	0.092331	0.668879
	H30	H	0.777706	0.095892	0.361005
	H31	H	0.777375	0.880426	0.668618
	H32	H	0.343276	0.205387	0.911551
	H33	H	0.655934	0.208670	0.117397
	H34	H	0.347010	0.766822	0.119088
	H35	H	0.655925	0.763965	0.905539
	H36	H	0.348281	0.880756	0.236901
	H37	H	0.656020	0.093555	0.234915
	H38	H	0.344280	0.089126	0.795078
	H39	H	0.655851	0.881929	0.790389
	H40	H	0.896895	0.209049	0.359334
	H41	H	0.105461	0.208218	0.669090
	H42	H	0.104839	0.766967	0.358027
	H43	H	0.894963	0.764822	0.668434
	H44	H	0.219890	0.330855	0.911408
	H45	H	0.222421	0.643240	0.119797
	H46	H	0.780519	0.330899	0.118172
	H47	H	0.777683	0.641800	0.906059
	H48	H	0.410817	0.101106	0.607968
	H49	H	0.591232	0.877368	0.597174
	H50	H	0.583725	0.100752	0.417407
	H51	H	0.415752	0.876119	0.424872
	H52	H	0.588224	0.390373	0.127815
	H53	H	0.587097	0.576718	0.904109
	H54	H	0.410960	0.578544	0.126090
	H55	H	0.412686	0.398952	0.902687
	H56	H	0.112155	0.577656	0.422746
	H57	H	0.889698	0.576366	0.601469
	H58	H	0.113452	0.397510	0.603926
	H59	H	0.887802	0.395897	0.421365
	H60	H	0.112510	0.398756	0.602099
	H61	H	0.890470	0.575402	0.603586
	H62	H	0.111871	0.577705	0.424350
	H63	H	0.890934	0.396659	0.428377
	H64	H	0.410510	0.575111	0.125048
	H65	H	0.591664	0.575389	0.901214
	H66	H	0.598358	0.400218	0.127966
	H67	H	0.408848	0.392192	0.899330
	H68	H	0.585865	0.095853	0.433794
	H69	H	0.592280	0.874135	0.605510
	H70	H	0.414986	0.097540	0.601709
	H71	H	0.411216	0.876136	0.430031
	H72	H	0.912728	0.597013	0.100917
	H73	H	0.093061	0.375539	0.100686
	H74	H	0.086863	0.601021	0.919215
	H75	H	0.914269	0.376639	0.925092
	H76	H	0.090692	0.898852	0.625907
	H77	H	0.090277	0.077153	0.401928
	H78	H	0.907192	0.075297	0.627220
	H79	H	0.916119	0.893538	0.402136
	H80	H	0.614294	0.085472	0.922483
	H81	H	0.389561	0.075602	0.106011
	H82	H	0.608428	0.904629	0.095856
	H83	H	0.390406	0.895211	0.924709
	H84	H	0.614954	0.903345	0.111530
	H85	H	0.389415	0.078932	0.103528
	H86	H	0.610687	0.076875	0.927198
	H87	H	0.392629	0.899047	0.928086
	H88	H	0.914845	0.070964	0.623854
	H89	H	0.092731	0.076562	0.401240
	H90	H	0.089531	0.898804	0.625155
	H91	H	0.904232	0.901423	0.400921
	H92	H	0.089230	0.597099	0.930353
	H93	H	0.092720	0.374054	0.105076
	H94	H	0.911733	0.597703	0.100432
	H95	H	0.906916	0.374710	0.927478
	H96	H	0.406688	0.099485	0.600431
	H97	H	0.584808	0.877882	0.602872
	H98	H	0.599202	0.102590	0.425195
	H99	H	0.409547	0.872802	0.424025
	H100	H	0.585911	0.402521	0.121713
	H101	H	0.589487	0.572617	0.905172
	H102	H	0.413392	0.576820	0.125418
	H103	H	0.404329	0.399664	0.900452
	H104	H	0.111255	0.576536	0.423321
	H105	H	0.889092	0.577197	0.603961
	H106	H	0.112308	0.399871	0.603950
	H107	H	0.890880	0.402565	0.423406
	H108	H	0.912103	0.598325	0.101163
	H109	H	0.089145	0.376247	0.103088
	H110	H	0.098426	0.602451	0.923898
	H111	H	0.909434	0.372365	0.920107
	H112	H	0.089641	0.897506	0.625770
	H113	H	0.091088	0.074682	0.402557
	H114	H	0.915207	0.080235	0.626280
	H115	H	0.915870	0.907072	0.406607
	H116	H	0.613665	0.076945	0.916614
	H117	H	0.390936	0.075179	0.102442
	H118	H	0.614966	0.889728	0.101090
	H119	H	0.391699	0.900858	0.922498
	C120	C	0.379198	-0.003980	0.635752
	C121	C	0.621510	0.979694	0.634540
	C122	C	0.622500	-0.003295	0.393413
	C123	C	0.380374	0.978154	0.393546
	C124	C	0.621342	0.366664	0.021940
	C125	C	0.622712	0.608546	1.005520
	C126	C	0.380395	0.608793	0.022163
	C127	C	0.378812	0.365928	1.004841
	C128	C	0.008806	0.609224	0.391844
	C129	C	0.991959	0.609022	0.635414
	C130	C	0.010100	0.366151	0.635054
	C131	C	0.992276	0.366056	0.392195
	C132	C	0.880121	0.494895	0.133734
	C133	C	0.122956	0.478724	0.135425
	C134	C	0.122388	0.496331	0.893345
	C135	C	0.879254	0.478447	0.892166
	C136	C	0.121905	0.866026	0.522637
	C137	C	0.122327	0.107837	0.505383
	C138	C	0.880157	0.108630	0.523183
	C139	C	0.879138	0.866954	0.505626
	C140	C	0.508980	0.109393	0.892042
	C141	C	0.492664	0.108804	0.135317
	C142	C	0.510583	0.866422	0.135189
	C143	C	0.493913	0.866295	0.892358
	C144	C	0.378195	0.878230	0.695239
	C145	C	0.623249	0.097430	0.694061
	C146	C	0.625607	0.879566	0.333463
	C147	C	0.378743	0.096015	0.334110
	C148	C	0.678817	0.366795	0.903471
	C149	C	0.683920	0.612309	0.121731
	C150	C	0.320812	0.611168	0.905245
	C151	C	0.321996	0.366375	0.123698
	C152	C	0.891873	0.668643	0.390961
	C153	C	0.109067	0.668570	0.636837
	C154	C	0.893453	0.306227	0.636343
	C155	C	0.109620	0.306590	0.390335
	C156	C	0.893317	0.364047	0.694402
	C157	C	0.108736	0.611646	0.695570
	C158	C	0.891967	0.611163	0.332551
	C159	C	0.109149	0.364358	0.332357
	C160	C	0.379346	0.668071	0.904728
	C161	C	0.625824	0.669729	0.122173
	C162	C	0.620028	0.310117	0.903010
	C163	C	0.379199	0.308147	0.123559
	C164	C	0.683577	0.879944	0.390655
	C165	C	0.681837	0.097077	0.637510
	C166	C	0.319498	0.878527	0.638543
	C167	C	0.320635	0.095766	0.391215
	C168	C	0.878340	0.377659	0.193545
	C169	C	0.123545	0.596614	0.194402
	C170	C	0.122511	0.378073	0.835259
	C171	C	0.877214	0.595932	0.832429
	C172	C	0.182469	0.862710	0.405969
	C173	C	0.181536	0.110107	0.622497
	C174	C	0.818879	0.113042	0.406983
	C175	C	0.818261	0.862914	0.622144
	C176	C	0.390637	0.166344	0.892367
	C177	C	0.609399	0.168605	0.136134
	C178	C	0.393922	0.806468	0.137294
	C179	C	0.609926	0.805389	0.888558
	C180	C	0.394552	0.863176	0.196018
	C181	C	0.609427	0.111176	0.194461
	C182	C	0.390950	0.108419	0.834495
	C183	C	0.609934	0.863825	0.831182
	C184	C	0.877792	0.169338	0.406218
	C185	C	0.123721	0.167600	0.622692
	C186	C	0.123508	0.806691	0.405026
	C187	C	0.876644	0.805600	0.622170
	C188	C	0.180503	0.378210	0.892672
	C189	C	0.182149	0.596575	0.137894
	C190	C	0.820715	0.377524	0.135865
	C191	C	0.818726	0.595450	0.888889
	C192	C	0.403781	0.078071	0.610512
	C193	C	0.596596	0.897805	0.609287
	C194	C	0.597129	0.078557	0.418422
	C195	C	0.405183	0.896277	0.418885
	C196	C	0.597569	0.390878	0.104353
	C197	C	0.596768	0.582394	0.924460
	C198	C	0.404864	0.583792	0.104219
	C199	C	0.402032	0.389737	0.922356
	C200	C	0.090483	0.584476	0.416447
	C201	C	0.910840	0.583683	0.610457
	C202	C	0.091659	0.391347	0.610358
	C203	C	0.911125	0.391020	0.417250
	C204	C	0.905199	0.576559	0.108311
	C205	C	0.098631	0.396636	0.110212
	C206	C	0.098300	0.578649	0.917484
	C207	C	0.903367	0.396094	0.917125
	C208	C	0.097005	0.891211	0.604305
	C209	C	0.098090	0.083237	0.423278
	C210	C	0.905438	0.082786	0.604499
	C211	C	0.904816	0.893255	0.424338
	C212	C	0.591424	0.086292	0.915408
	C213	C	0.411206	0.083670	0.110827
	C214	C	0.591787	0.891926	0.110051
	C215	C	0.412723	0.891357	0.917905
	Zn216	Zn	0.500999	-0.012318	0.763241
	Zn217	Zn	0.501668	-0.012595	0.265005
	Zn218	Zn	0.750984	0.487044	0.013587
	Zn219	Zn	0.251247	0.488319	0.014392
	Zn220	Zn	0.000785	0.738003	0.513587
	Zn221	Zn	0.001464	0.237022	0.513830
	Zn222	Zn	0.001072	0.487696	0.764206
	Zn223	Zn	0.000635	0.487473	0.263013
	Zn224	Zn	0.502258	0.737269	0.013700
	Zn225	Zn	0.500309	0.237897	0.013653
	Zn226	Zn	0.750669	-0.011544	0.514529
	Zn227	Zn	0.251185	-0.013567	0.514034
	N228	N	0.414438	0.952472	0.693780
	N229	N	0.586618	0.023348	0.692592
	N230	N	0.588500	0.953311	0.334896
	N231	N	0.414979	0.021796	0.335275
	N232	N	0.680011	0.401051	0.978606
	N233	N	0.682214	0.575065	0.048202
	N234	N	0.321086	0.575300	0.979652
	N235	N	0.321199	0.401254	0.048795
	N236	N	0.965691	0.667792	0.426906
	N237	N	0.035316	0.667518	0.600307
	N238	N	0.967197	0.307448	0.600377
	N239	N	0.035848	0.307232	0.426825
	N240	N	0.967222	0.400376	0.694092
	N241	N	0.034834	0.575507	0.695075
	N242	N	0.965890	0.574858	0.332946
	N243	N	0.035199	0.400501	0.333257
	N244	N	0.415570	0.666774	0.978624
	N245	N	0.588355	0.667396	0.048836
	N246	N	0.585371	0.309479	0.977887
	N247	N	0.413423	0.307373	0.048533
	N248	N	0.681960	0.954077	0.427105
	N249	N	0.681007	0.022688	0.601139
	N250	N	0.319986	0.952935	0.602265
	N251	N	0.321061	0.021150	0.427208
	N252	N	0.914569	0.451685	0.192299
	N253	N	0.087407	0.522312	0.193065
	N254	N	0.087128	0.452674	0.835312
	N255	N	0.914302	0.522092	0.834382
	N256	N	0.181660	0.898897	0.480116
	N257	N	0.181112	0.073773	0.548362
	N258	N	0.819975	0.076163	0.480761
	N259	N	0.819711	0.900341	0.548546
	N260	N	0.465059	0.167286	0.927130
	N261	N	0.535728	0.167327	0.099900
	N262	N	0.467264	0.808091	0.100265
	N263	N	0.536708	0.806735	0.926057
	N264	N	0.468388	0.899648	0.195128
	N265	N	0.535857	0.074570	0.194019
	N266	N	0.465761	0.074025	0.833821
	N267	N	0.536766	0.900919	0.833347
	N268	N	0.915345	0.166727	0.479595
	N269	N	0.087848	0.166595	0.548687
	N270	N	0.086590	0.808398	0.478754
	N271	N	0.913948	0.808042	0.548554
	N272	N	0.180795	0.453056	0.927999
	N273	N	0.182042	0.522143	0.101824
	N274	N	0.821554	0.451664	0.099267
	N275	N	0.819699	0.521146	0.925346
	O276	O	0.039434	0.989544	-0.095833
	H277	H	0.045633	0.982588	-0.095060
	H278	H	0.038448	0.990977	-0.101564
	O279	O	0.292147	0.693904	0.306900
	H280	H	0.285540	0.646951	0.308527
	H281	H	0.275891	0.710749	0.289100
	O282	O	0.774529	0.020015	0.873175
	H283	H	0.761806	0.002949	0.863026
	H284	H	0.798204	0.008700	0.880499
	O285	O	0.715072	0.699305	0.551759
	H286	H	0.704354	0.704850	0.531799
	H287	H	0.715595	0.703178	0.538363
	O288	O	0.958448	0.766446	0.234322
	H289	H	0.952615	0.754828	0.238251
	H290	H	0.962032	0.756614	0.242477
	O291	O	0.729482	0.519331	0.418143
	H292	H	0.726753	0.507560	0.401916
	H293	H	0.730594	0.526443	0.404967
	O294	O	1.284085	0.278054	0.718468
	H295	H	1.312368	0.297052	0.723850
	H296	H	1.275799	0.254869	0.726189
	O297	O	0.438622	0.300011	0.488784
	H298	H	0.439681	0.300315	0.478892
	H299	H	0.430592	0.302790	0.495210
	O300	O	0.225346	0.205417	1.059408
	H301	H	0.243633	0.217924	1.044764
	H302	H	0.224873	0.201616	1.037100
	O303	O	0.708183	0.447758	0.537314
	H304	H	0.710156	0.450391	0.530206
	H305	H	0.715995	0.454495	0.525699
	O306	O	0.710415	0.701969	0.312239
	H307	H	0.720951	0.719717	0.294039
	H308	H	0.686258	0.684535	0.326791
	O309	O	0.338756	0.420863	0.507929
	H310	H	0.341642	0.432140	0.519191
	H311	H	0.335653	0.418246	0.511213
	O312	O	0.472160	0.707504	0.298676
	H313	H	0.441254	0.710895	0.290730
	H314	H	0.470515	0.715036	0.281062
	O315	O	1.049406	0.934423	1.238018
	H316	H	1.064261	0.937604	1.235052
	H317	H	1.053975	0.931507	1.227305
	O318	O	0.709838	1.278960	0.304148
	H319	H	0.743587	1.243555	0.276346
	H320	H	0.713933	1.271802	0.355657
	O321	O	0.038059	1.159815	1.207699
	H322	H	0.049124	1.182698	1.224286
	H323	H	0.063968	1.157007	1.209778
	O324	O	0.971443	0.990358	0.183552
	H325	H	0.987731	1.003640	0.192579
	H326	H	0.979701	0.988092	0.189849
	O327	O	-0.196371	-0.117712	1.079462
	H328	H	-0.205374	-0.121949	1.098955
	H329	H	-0.191979	-0.117599	1.074798
	O330	O	0.717206	0.509964	0.730635
	H331	H	0.721268	0.534300	0.738900
	H332	H	0.736409	0.525001	0.737597
	O333	O	0.435770	0.709973	0.565567
	H334	H	0.437720	0.714814	0.551133
	H335	H	0.450723	0.712089	0.565274
	O336	O	0.498955	0.493899	0.740372
	H337	H	0.528186	0.506298	0.741194
	H338	H	0.479029	0.516450	0.744669
	O339	O	1.204630	-0.039331	0.810695
	H340	H	1.223203	-0.043358	0.792982
	H341	H	1.193296	-0.034099	0.795721
	O342	O	0.193271	0.068347	-0.045050
	H343	H	0.184260	0.054934	-0.040015
	H344	H	0.204651	0.046262	-0.046663
	O345	O	0.174218	0.933384	0.973132
	H346	H	0.177367	0.943617	0.955167
	H347	H	0.181915	0.922164	0.964169
	O348	O	0.219046	-0.065437	0.093244
	H349	H	0.228684	-0.088118	0.071378
	H350	H	0.220331	-0.050045	0.120247
	O351	O	0.853619	0.823136	0.017794
	H352	H	0.858935	0.841956	0.025979
	H353	H	0.830125	0.803468	0.031866
	O354	O	-0.054453	-0.063435	0.951838
	H355	H	-0.048621	-0.055988	0.951487
	H356	H	-0.053784	-0.069961	0.965193
	O357	O	0.722095	0.273735	0.477255
	H358	H	0.719778	0.259963	0.490692
	H359	H	0.717287	0.269926	0.495534
	O360	O	0.311280	0.674762	0.702330
	H361	H	0.332316	0.655608	0.690102
	H362	H	0.322626	0.665135	0.682808
	O363	O	0.022056	0.197537	-0.033456
	H364	H	0.006594	0.205408	-0.023160
	H365	H	0.028575	0.204142	-0.039918
	O366	O	0.571329	0.647175	0.523701
	H367	H	0.571894	0.636305	0.508644
	H368	H	0.555211	0.634857	0.517636
	O369	O	0.788327	0.029332	0.130393
	H370	H	0.792328	0.018217	0.132192
	H371	H	0.774259	0.034684	0.118722
	O372	O	0.864068	0.997441	0.236907
	H373	H	0.867811	1.021217	0.248894
	H374	H	0.867849	0.995551	0.237418
	O375	O	1.225127	-0.222852	-0.026434
	H376	H	1.254653	-0.245716	-0.031357
	H377	H	1.217449	-0.215870	-0.058910
	O378	O	0.625692	0.492944	0.453483
	H379	H	0.627382	0.494515	0.453410
	H380	H	0.637872	0.501005	0.457117
	O381	O	-0.214212	1.002222	0.855931
	H382	H	-0.238861	1.003122	0.848495
	H383	H	-0.202366	1.013431	0.871671
	O384	O	0.814727	-0.200724	0.823476
	H385	H	0.830391	-0.194948	0.851326
	H386	H	0.833643	-0.182954	0.835861
	O387	O	1.038319	1.035818	-0.072875
	H388	H	1.046349	1.033695	-0.086374
	H389	H	1.032518	1.048599	-0.078492
	O390	O	0.639663	0.379399	0.686862
	H391	H	0.621963	0.391440	0.673891
	H392	H	0.642204	0.397358	0.685104
	O393	O	0.256922	0.247208	0.278068
	H394	H	0.256897	0.252083	0.249445
	H395	H	0.287712	0.276372	0.296252
	O396	O	0.447275	0.267140	0.733012
	H397	H	0.446973	0.243756	0.758292
	H398	H	0.464879	0.284331	0.730228
	O399	O	0.223866	0.012867	1.241357
	H400	H	0.244216	0.023542	1.266666
	H401	H	0.222981	0.038676	1.240420
	O402	O	0.772086	0.211509	-0.024258
	H403	H	0.752495	0.217836	-0.028231
	H404	H	0.767625	0.222016	-0.042127
	O405	O	1.188598	0.172378	0.827371
	H406	H	1.179403	0.160719	0.831588
	H407	H	1.176656	0.158942	0.829295
	O408	O	-0.029417	0.208408	-0.211622
	H409	H	-0.041501	0.233503	-0.230700
	H410	H	-0.040883	0.204452	-0.213271
	O411	O	1.024819	0.758949	1.015364
	H412	H	1.040502	0.759359	1.012255
	H413	H	1.025523	0.760182	1.022883
	O414	O	0.550043	0.586811	0.652002
	H415	H	0.562805	0.599338	0.666698
	H416	H	0.561754	0.596270	0.657454
	O417	O	0.508348	0.359220	0.314891
	H418	H	0.520090	0.365670	0.319533
	H419	H	0.534568	0.335184	0.306612
	O420	O	0.282842	0.524632	0.300508
	H421	H	0.292378	0.509432	0.290164
	H422	H	0.282917	0.508330	0.291067
	O423	O	-0.030982	-0.093446	1.016758
	H424	H	-0.023903	-0.105467	1.027520
	H425	H	-0.022611	-0.075298	1.008264
	O426	O	0.456120	0.274694	0.373486
	H427	H	0.484882	0.282243	0.371302
	H428	H	0.462358	0.249998	0.359427
	O429	O	0.830471	0.796011	1.178759
	H430	H	0.834417	0.825202	1.176362
	H431	H	0.851454	0.787598	1.186139
	O432	O	0.710190	0.446035	0.344658
	H433	H	0.714894	0.419763	0.339670
	H434	H	0.722996	0.441389	0.336588
	O435	O	0.206432	0.780553	-0.193493
	H436	H	0.230037	0.770193	-0.209276
	H437	H	0.187216	0.787389	-0.205260
	O438	O	-0.191068	0.175063	0.209411
	H439	H	-0.165714	0.160292	0.190493
	H440	H	-0.179983	0.152131	0.190940
	O441	O	0.030298	-0.229615	-0.209775
	H442	H	0.032983	-0.251912	-0.223737
	H443	H	0.034237	-0.236790	-0.192122
	O444	O	0.081848	0.160415	0.138559
	H445	H	0.085854	0.158916	0.120858
	H446	H	0.083037	0.160418	0.141747
	O447	O	-1.016335	2.187421	1.131969
	H448	H	-1.006545	2.195217	1.145814
	H449	H	-1.011933	2.183366	1.137280
	O450	O	-0.290187	0.696837	0.720615
	H451	H	-0.272162	0.710991	0.707101
	H452	H	-0.268082	0.717164	0.707617
	O453	O	0.564046	0.588340	0.308512
	H454	H	0.576516	0.585921	0.302362
	H455	H	0.554313	0.585973	0.315276
	O456	O	0.317192	0.316199	0.560960
	H457	H	0.313513	0.310917	0.581460
	H458	H	0.302850	0.301879	0.576138
	O459	O	1.196392	0.795800	0.206507
	H460	H	1.197606	0.796155	0.195537
	H461	H	1.166062	0.815977	0.206515
	O462	O	0.282836	0.701297	0.482905
	H463	H	0.285678	0.709860	0.474004
	H464	H	0.269900	0.709709	0.465620
	O465	O	0.269903	-0.455381	0.550313
	H466	H	0.272518	-0.444026	0.543442
	H467	H	0.272154	-0.457738	0.556763
	O468	O	0.544269	0.280609	0.504672
	H469	H	0.537511	0.300605	0.509561
	H470	H	0.524950	0.268796	0.506884
	O471	O	0.275843	0.451515	0.733687
	H472	H	0.256243	0.448289	0.758299
	H473	H	0.279576	0.440623	0.728495
	O474	O	-0.045838	0.944125	-0.005693
	H475	H	-0.041740	0.942488	-0.010093
	H476	H	-0.042861	0.966749	-0.010114
	O477	O	0.465622	0.527952	1.356522
	H478	H	0.461757	0.525331	1.347840
	H479	H	0.469168	0.535242	1.358999
	O480	O	0.570923	0.328559	0.664187
	H481	H	0.569560	0.359659	0.673312
	H482	H	0.558743	0.321105	0.642383
	O483	O	0.289780	0.359682	0.384594
	H484	H	0.293185	0.368364	0.403484
	H485	H	0.305185	0.364621	0.390545
	O486	O	0.479460	0.484854	0.425315
	H487	H	0.479735	0.473768	0.428399
	H488	H	0.478261	0.491729	0.436983
	O489	O	1.412506	0.551332	0.625162
	H490	H	1.409216	0.555051	0.615517
	H491	H	1.411435	0.552799	0.631936
	O492	O	-0.063829	-0.017150	-0.192140
	H493	H	-0.068574	-0.026215	-0.190749
	H494	H	-0.062694	-0.021945	-0.196628
	O495	O	-0.060505	1.042104	0.920712
	H496	H	-0.063659	1.031283	0.917620
	H497	H	-0.077964	1.052168	0.921877
	O498	O	0.765380	1.221948	0.776483
	H499	H	0.757643	1.230459	0.765685
	H500	H	0.765345	1.217007	0.777256
	O501	O	0.536083	0.704303	0.613913
	H502	H	0.542215	0.706099	0.609334
	H503	H	0.544568	0.709535	0.604610
