data_Molecule from HDF5

_cell_length_a		16.309597
_cell_length_b		16.198252
_cell_length_c		16.123868
_cell_angle_alpha	90.546389
_cell_angle_beta	90.254628
_cell_angle_gamma	90.418227
_symmetry_space_group_name_H-M	'P 1'
_symmetry_Int_Tables_number		1

loop_
	_symmetry_equiv_pos_as_xyz
	x,y,z

loop_
	_atom_site_label
	_atom_site_type_symbol
	_atom_site_fract_x
	_atom_site_fract_y
	_atom_site_fract_z
	H0	H	0.399828	0.834455	0.705568
	H1	H	0.595300	0.165221	0.713340
	H2	H	0.593973	0.836418	0.282228
	H3	H	0.399401	0.165613	0.286906
	H4	H	0.707924	0.399266	0.832206
	H5	H	0.711199	0.602850	0.161937
	H6	H	0.281578	0.597050	0.833008
	H7	H	0.281157	0.402034	0.162143
	H8	H	0.833259	0.714490	0.397440
	H9	H	0.159540	0.718132	0.598806
	H10	H	0.833729	0.285130	0.594891
	H11	H	0.160467	0.286366	0.397666
	H12	H	0.831804	0.403530	0.708934
	H13	H	0.159087	0.602661	0.714173
	H14	H	0.832069	0.596307	0.284511
	H15	H	0.160218	0.403553	0.282614
	H16	H	0.398286	0.709530	0.832373
	H17	H	0.595512	0.716382	0.162422
	H18	H	0.589467	0.286678	0.832172
	H19	H	0.396340	0.288785	0.162891
	H20	H	0.710865	0.836930	0.396349
	H21	H	0.715127	0.164056	0.602661
	H22	H	0.279654	0.837366	0.597167
	H23	H	0.281563	0.164212	0.398707
	H24	H	0.896913	0.336884	0.208472
	H25	H	0.093592	0.667064	0.210893
	H26	H	0.091214	0.337255	0.782285
	H27	H	0.898863	0.667636	0.786429
	H28	H	0.208979	0.901359	0.333714
	H29	H	0.212102	0.102588	0.663391
	H30	H	0.781401	0.099285	0.334183
	H31	H	0.782965	0.901784	0.663079
	H32	H	0.331642	0.211213	0.899375
	H33	H	0.657775	0.219403	0.099541
	H34	H	0.332604	0.785704	0.094455
	H35	H	0.659477	0.785883	0.899399
	H36	H	0.332647	0.901667	0.210706
	H37	H	0.659098	0.101324	0.213828
	H38	H	0.332042	0.095170	0.783166
	H39	H	0.660275	0.902026	0.784027
	H40	H	0.899980	0.209616	0.332009
	H41	H	0.097165	0.217782	0.662991
	H42	H	0.093851	0.786663	0.333191
	H43	H	0.899487	0.788557	0.663640
	H44	H	0.208184	0.336874	0.896044
	H45	H	0.214110	0.664045	0.100271
	H46	H	0.778121	0.338049	0.096710
	H47	H	0.780757	0.665716	0.899027
	H48	H	0.403082	0.117492	0.586085
	H49	H	0.584993	0.886524	0.582828
	H50	H	0.592696	0.117355	0.412537
	H51	H	0.407063	0.883934	0.405224
	H52	H	0.585992	0.409149	0.115574
	H53	H	0.592728	0.589839	0.878604
	H54	H	0.404485	0.602148	0.118211
	H55	H	0.409412	0.404898	0.881278
	H56	H	0.113058	0.592573	0.403472
	H57	H	0.879129	0.601381	0.586848
	H58	H	0.113414	0.405191	0.586089
	H59	H	0.880746	0.403461	0.405982
	H60	H	0.110795	0.416368	0.587573
	H61	H	0.881437	0.588334	0.587974
	H62	H	0.113945	0.598055	0.404333
	H63	H	0.881386	0.407735	0.403543
	H64	H	0.396256	0.589021	0.117678
	H65	H	0.584427	0.589813	0.881002
	H66	H	0.590694	0.411282	0.115908
	H67	H	0.395152	0.398071	0.875618
	H68	H	0.593137	0.119304	0.405007
	H69	H	0.599834	0.880750	0.587192
	H70	H	0.401526	0.121098	0.596559
	H71	H	0.398583	0.883685	0.407897
	H72	H	0.915913	0.616761	0.096581
	H73	H	0.083876	0.385128	0.087869
	H74	H	0.096493	0.621312	0.905430
	H75	H	0.901067	0.383117	0.898977
	H76	H	0.088017	0.913376	0.615001
	H77	H	0.095861	0.103535	0.376054
	H78	H	0.898962	0.098187	0.619827
	H79	H	0.905820	0.911090	0.382286
	H80	H	0.612080	0.095534	0.906216
	H81	H	0.380444	0.092581	0.089350
	H82	H	0.612621	0.911389	0.093345
	H83	H	0.379340	0.900880	0.905330
	H84	H	0.614410	0.905189	0.090858
	H85	H	0.377888	0.092632	0.095626
	H86	H	0.611749	0.093917	0.909956
	H87	H	0.380991	0.908043	0.901714
	H88	H	0.905114	0.085561	0.613992
	H89	H	0.097355	0.083820	0.380488
	H90	H	0.087850	0.907267	0.617421
	H91	H	0.905646	0.903197	0.380410
	H92	H	0.085902	0.619261	0.903342
	H93	H	0.092092	0.383796	0.086143
	H94	H	0.901038	0.616622	0.077924
	H95	H	0.904417	0.385512	0.905655
	H96	H	0.411143	0.116451	0.593786
	H97	H	0.587750	0.880737	0.597813
	H98	H	0.586330	0.117084	0.408186
	H99	H	0.399478	0.881179	0.399908
	H100	H	0.586993	0.413779	0.113425
	H101	H	0.588601	0.597022	0.877584
	H102	H	0.410872	0.589292	0.112526
	H103	H	0.396086	0.414055	0.880308
	H104	H	0.112191	0.594951	0.408540
	H105	H	0.876486	0.595573	0.598381
	H106	H	0.114056	0.410459	0.596108
	H107	H	0.879334	0.403851	0.401559
	H108	H	0.892956	0.624622	0.098405
	H109	H	0.089378	0.381420	0.093670
	H110	H	0.089790	0.617525	0.913615
	H111	H	0.896665	0.384491	0.904739
	H112	H	0.092712	0.910597	0.617853
	H113	H	0.080472	0.092951	0.382212
	H114	H	0.913568	0.098813	0.615862
	H115	H	0.898441	0.907759	0.378793
	H116	H	0.612134	0.091473	0.906227
	H117	H	0.377439	0.097860	0.091520
	H118	H	0.610811	0.910188	0.086796
	H119	H	0.376974	0.901570	0.897141
	C120	C	0.375959	0.009413	0.618965
	C121	C	0.619635	0.991507	0.620080
	C122	C	0.618695	0.009241	0.377703
	C123	C	0.374374	0.991947	0.376747
	C124	C	0.615991	0.380579	0.006161
	C125	C	0.617715	0.622401	0.988504
	C126	C	0.375200	0.620542	0.006781
	C127	C	0.373094	0.378633	0.988520
	C128	C	0.004694	0.622529	0.376596
	C129	C	0.987225	0.624499	0.620377
	C130	C	0.004860	0.380726	0.618395
	C131	C	0.988382	0.377739	0.374667
	C132	C	0.874207	0.510271	0.118541
	C133	C	0.117673	0.492270	0.119143
	C134	C	0.117226	0.510283	0.877043
	C135	C	0.873484	0.493580	0.875545
	C136	C	0.117372	0.880704	0.507448
	C137	C	0.119835	0.123147	0.489052
	C138	C	0.876658	0.121592	0.507214
	C139	C	0.875112	0.879126	0.489708
	C140	C	0.504024	0.120781	0.877498
	C141	C	0.486540	0.124125	0.121739
	C142	C	0.504768	0.879319	0.118804
	C143	C	0.487436	0.876143	0.873830
	C144	C	0.378634	0.884468	0.670584
	C145	C	0.616724	0.115631	0.676242
	C146	C	0.614862	0.885524	0.320660
	C147	C	0.378460	0.116126	0.323518
	C148	C	0.670289	0.380312	0.881695
	C149	C	0.673363	0.622055	0.112624
	C150	C	0.319990	0.617251	0.882106
	C151	C	0.318523	0.381433	0.112835
	C152	C	0.881669	0.676454	0.377965
	C153	C	0.110545	0.680257	0.618730
	C154	C	0.882135	0.323816	0.615620
	C155	C	0.111506	0.323773	0.377015
	C156	C	0.881119	0.382924	0.672264
	C157	C	0.110427	0.623050	0.676254
	C158	C	0.881222	0.617840	0.321662
	C159	C	0.111161	0.381919	0.319685
	C160	C	0.377975	0.673111	0.881707
	C161	C	0.616040	0.678708	0.112878
	C162	C	0.611761	0.323802	0.881678
	C163	C	0.375971	0.325327	0.113369
	C164	C	0.673695	0.886115	0.376931
	C165	C	0.675969	0.115176	0.620914
	C166	C	0.319031	0.885970	0.616478
	C167	C	0.319755	0.115481	0.379281
	C168	C	0.876497	0.386134	0.171673
	C169	C	0.115059	0.617014	0.174248
	C170	C	0.112523	0.386556	0.820424
	C171	C	0.877749	0.617956	0.822864
	C172	C	0.171395	0.881841	0.382803
	C173	C	0.174591	0.122480	0.613711
	C174	C	0.820223	0.118907	0.383295
	C175	C	0.820489	0.881815	0.613852
	C176	C	0.380756	0.174477	0.878789
	C177	C	0.609202	0.180838	0.119901
	C178	C	0.381604	0.823404	0.115650
	C179	C	0.610646	0.822907	0.878125
	C180	C	0.381516	0.881433	0.173072
	C181	C	0.610044	0.121985	0.176576
	C182	C	0.380834	0.116020	0.821640
	C183	C	0.611062	0.880694	0.820852
	C184	C	0.879106	0.173939	0.381962
	C185	C	0.116992	0.179221	0.613747
	C186	C	0.114243	0.824694	0.382650
	C187	C	0.878188	0.825558	0.614230
	C188	C	0.170586	0.386182	0.876983
	C189	C	0.174867	0.615668	0.119247
	C190	C	0.817679	0.386721	0.116034
	C191	C	0.818740	0.617060	0.878470
	C192	C	0.398424	0.096083	0.598131
	C193	C	0.597442	0.905065	0.596344
	C194	C	0.596962	0.095580	0.401495
	C195	C	0.395495	0.905354	0.398007
	C196	C	0.594357	0.404408	0.092719
	C197	C	0.595129	0.599123	0.901670
	C198	C	0.397271	0.599673	0.093561
	C199	C	0.394098	0.399382	0.901592
	C200	C	0.090733	0.601565	0.399038
	C201	C	0.901339	0.601868	0.597707
	C202	C	0.090561	0.403882	0.596447
	C203	C	0.902638	0.398875	0.396983
	C204	C	0.896668	0.596845	0.097144
	C205	C	0.095104	0.405983	0.096020
	C206	C	0.096732	0.597009	0.900600
	C207	C	0.894591	0.406755	0.896860
	C208	C	0.095748	0.903637	0.594245
	C209	C	0.097694	0.100119	0.401986
	C210	C	0.899284	0.100539	0.594024
	C211	C	0.897013	0.900826	0.403028
	C212	C	0.589837	0.099732	0.900670
	C213	C	0.400810	0.100956	0.098962
	C214	C	0.590517	0.902270	0.096958
	C215	C	0.401365	0.897167	0.895079
	Zn216	Zn	0.496498	-0.000471	0.746924
	Zn217	Zn	0.495905	0.000894	0.249041
	Zn218	Zn	0.745572	0.501376	-0.003174
	Zn219	Zn	0.246408	0.499969	-0.002044
	Zn220	Zn	-0.003645	0.751963	0.497956
	Zn221	Zn	-0.002787	0.249618	0.497403
	Zn222	Zn	-0.004413	0.502392	0.747942
	Zn223	Zn	-0.003997	0.501200	0.247035
	Zn224	Zn	0.495627	0.749016	-0.002436
	Zn225	Zn	0.494467	0.251798	-0.001690
	Zn226	Zn	0.747925	0.000857	0.498915
	Zn227	Zn	0.246788	0.001157	0.498855
	N228	N	0.413490	0.962135	0.672166
	N229	N	0.582311	0.037756	0.675901
	N230	N	0.581270	0.963231	0.320891
	N231	N	0.411660	0.038323	0.321796
	N232	N	0.673093	0.414816	0.960089
	N233	N	0.674550	0.587793	0.034346
	N234	N	0.318104	0.585332	0.960765
	N235	N	0.316560	0.413792	0.034431
	N236	N	0.959344	0.679503	0.411432
	N237	N	0.032959	0.681345	0.584720
	N238	N	0.959960	0.322221	0.582961
	N239	N	0.034159	0.321005	0.410710
	N240	N	0.958483	0.417497	0.674133
	N241	N	0.032848	0.589128	0.677497
	N242	N	0.958745	0.585021	0.320674
	N243	N	0.033649	0.414697	0.318182
	N244	N	0.411575	0.675578	0.960207
	N245	N	0.582079	0.679079	0.034455
	N246	N	0.578869	0.323812	0.960030
	N247	N	0.409174	0.323339	0.034972
	N248	N	0.675841	0.964018	0.411658
	N249	N	0.678152	0.036883	0.586884
	N250	N	0.317159	0.964593	0.585107
	N251	N	0.317205	0.037277	0.411647
	N252	N	0.911041	0.463952	0.173381
	N253	N	0.080303	0.539268	0.174481
	N254	N	0.080188	0.464737	0.820163
	N255	N	0.910814	0.539974	0.820898
	N256	N	0.173573	0.915935	0.461380
	N257	N	0.176358	0.088310	0.535289
	N258	N	0.818658	0.086970	0.462009
	N259	N	0.818468	0.914451	0.535337
	N260	N	0.458179	0.177200	0.913215
	N261	N	0.531441	0.182423	0.086668
	N262	N	0.459204	0.822135	0.082417
	N263	N	0.532658	0.819844	0.910346
	N264	N	0.458926	0.915464	0.175062
	N265	N	0.532632	0.087518	0.177858
	N266	N	0.458560	0.083579	0.820632
	N267	N	0.533528	0.913065	0.818171
	N268	N	0.913431	0.175744	0.460112
	N269	N	0.083907	0.180119	0.535074
	N270	N	0.081377	0.823861	0.461084
	N271	N	0.911396	0.823604	0.536185
	N272	N	0.173651	0.464273	0.911497
	N273	N	0.176503	0.537226	0.085562
	N274	N	0.816158	0.465002	0.083787
	N275	N	0.816071	0.538670	0.910442
	O276	O	0.516629	0.551026	0.473087
	H277	H	0.508717	0.550354	0.472607
	H278	H	0.511817	0.559246	0.463933
	O279	O	0.569585	0.511992	0.520114
	H280	H	0.570831	0.516311	0.522760
	H281	H	0.571003	0.515640	0.513747
	O282	O	0.531965	0.513142	0.523502
	H283	H	0.529693	0.525714	0.528033
	H284	H	0.550181	0.514333	0.523568
	O285	O	0.014366	1.058130	1.037386
	H286	H	0.018121	1.050579	1.030220
	H287	H	0.015928	1.053028	1.044690
	O288	O	0.474308	0.527203	0.544532
	H289	H	0.481183	0.525458	0.548627
	H290	H	0.480761	0.522176	0.540701
	O291	O	-0.032039	0.074870	1.042238
	H292	H	-0.032801	0.086738	1.037519
	H293	H	-0.028085	0.076296	1.043735
	O294	O	0.481691	0.450174	0.465449
	H295	H	0.473843	0.451938	0.463816
	H296	H	0.489727	0.450723	0.465434
	O297	O	0.492824	0.452546	0.520194
	H298	H	0.492007	0.454914	0.517641
	H299	H	0.488644	0.439769	0.517701
	O300	O	0.564089	0.503210	0.483431
	H301	H	0.566554	0.503434	0.484374
	H302	H	0.569204	0.504011	0.476326
	O303	O	0.456863	0.527402	0.432004
	H304	H	0.447215	0.530648	0.439080
	H305	H	0.460962	0.514936	0.436460
	O306	O	0.955591	0.048681	0.986288
	H307	H	0.955550	0.054361	0.987724
	H308	H	0.951067	0.049303	0.982463
	O309	O	0.534015	0.474813	0.443138
	H310	H	0.520677	0.470177	0.438104
	H311	H	0.533422	0.470799	0.442073
	O312	O	0.562371	0.505875	0.525548
	H313	H	0.568136	0.513637	0.513997
	H314	H	0.568396	0.509585	0.543670
	O315	O	0.971431	0.015724	1.016943
	H316	H	0.973727	0.006918	1.017575
	H317	H	0.974473	0.010862	1.025120
	O318	O	0.004014	0.084092	-0.010073
	H319	H	0.003261	0.085800	-0.011655
	H320	H	0.006700	0.091113	-0.019196
	O321	O	0.531267	0.503654	0.568817
	H322	H	0.519712	0.507027	0.564191
	H323	H	0.533777	0.491793	0.572758
	O324	O	0.989309	-0.027953	0.022731
	H325	H	0.983496	-0.029281	0.024630
	H326	H	0.991688	-0.018493	0.025731
	O327	O	1.015216	1.054653	-0.009017
	H328	H	1.008993	1.059880	-0.011766
	H329	H	1.013153	1.056724	0.000792
	O330	O	0.448660	0.469688	0.481119
	H331	H	0.450448	0.474244	0.487934
	H332	H	0.449786	0.466728	0.480696
	O333	O	0.554548	0.444321	0.511719
	H334	H	0.553615	0.434840	0.507733
	H335	H	0.551360	0.442563	0.513544
