data_Molecule from HDF5

_cell_length_a		16.295503
_cell_length_b		16.254453
_cell_length_c		16.169739
_cell_angle_alpha	89.988263
_cell_angle_beta	89.890618
_cell_angle_gamma	90.035074
_symmetry_space_group_name_H-M	'P 1'
_symmetry_Int_Tables_number		1

loop_
	_symmetry_equiv_pos_as_xyz
	x,y,z

loop_
	_atom_site_label
	_atom_site_type_symbol
	_atom_site_fract_x
	_atom_site_fract_y
	_atom_site_fract_z
	H0	H	0.403053	0.835425	0.713447
	H1	H	0.596905	0.163957	0.713287
	H2	H	0.595829	0.835086	0.287460
	H3	H	0.405052	0.165287	0.288464
	H4	H	0.713284	0.402345	0.835294
	H5	H	0.712905	0.597009	0.164810
	H6	H	0.287659	0.597219	0.834692
	H7	H	0.285571	0.401739	0.164514
	H8	H	0.836438	0.714990	0.400979
	H9	H	0.164065	0.714160	0.598277
	H10	H	0.835726	0.285647	0.598244
	H11	H	0.164060	0.286165	0.401817
	H12	H	0.835730	0.403965	0.713121
	H13	H	0.164537	0.596502	0.712954
	H14	H	0.835141	0.596962	0.287470
	H15	H	0.163837	0.403872	0.286059
	H16	H	0.403156	0.713248	0.834801
	H17	H	0.597302	0.712614	0.165234
	H18	H	0.597392	0.287378	0.834910
	H19	H	0.402523	0.287522	0.165639
	H20	H	0.714460	0.836285	0.400922
	H21	H	0.713784	0.164236	0.598268
	H22	H	0.285332	0.836268	0.598857
	H23	H	0.287178	0.165110	0.402546
	H24	H	0.903540	0.335534	0.212305
	H25	H	0.095835	0.665225	0.212126
	H26	H	0.096232	0.335148	0.787618
	H27	H	0.904559	0.664786	0.787630
	H28	H	0.214172	0.901717	0.334949
	H29	H	0.213039	0.098319	0.664700
	H30	H	0.786160	0.099319	0.335352
	H31	H	0.785965	0.901651	0.665316
	H32	H	0.336366	0.214398	0.901705
	H33	H	0.663729	0.214207	0.097772
	H34	H	0.336444	0.785721	0.098849
	H35	H	0.663976	0.786954	0.902349
	H36	H	0.336254	0.902605	0.214361
	H37	H	0.664425	0.096425	0.212815
	H38	H	0.335895	0.095786	0.787881
	H39	H	0.663966	0.902433	0.785611
	H40	H	0.902400	0.213599	0.335105
	H41	H	0.096946	0.212829	0.664600
	H42	H	0.098624	0.786123	0.335313
	H43	H	0.902854	0.787089	0.664862
	H44	H	0.214480	0.335824	0.900909
	H45	H	0.214877	0.663721	0.098633
	H46	H	0.785322	0.335959	0.099184
	H47	H	0.785686	0.663382	0.900804
	H48	H	0.403121	0.115916	0.586315
	H49	H	0.594975	0.881806	0.594538
	H50	H	0.605788	0.120717	0.406105
	H51	H	0.405742	0.881816	0.401748
	H52	H	0.599481	0.403085	0.120893
	H53	H	0.598610	0.598801	0.879624
	H54	H	0.404163	0.589645	0.117444
	H55	H	0.408921	0.409348	0.883468
	H56	H	0.112245	0.584627	0.410215
	H57	H	0.882482	0.593026	0.598260
	H58	H	0.114741	0.412886	0.594693
	H59	H	0.882767	0.404707	0.406024
	H60	H	0.119483	0.401044	0.600069
	H61	H	0.882290	0.598769	0.592856
	H62	H	0.119914	0.593832	0.395540
	H63	H	0.883405	0.404817	0.408234
	H64	H	0.410185	0.594131	0.116805
	H65	H	0.596115	0.587111	0.882820
	H66	H	0.593570	0.413894	0.116056
	H67	H	0.408440	0.403836	0.881737
	H68	H	0.587424	0.118160	0.397538
	H69	H	0.590934	0.883495	0.593203
	H70	H	0.401236	0.120266	0.599455
	H71	H	0.409147	0.884861	0.410131
	H72	H	0.900983	0.618365	0.094897
	H73	H	0.089823	0.384099	0.090859
	H74	H	0.092776	0.615375	0.911416
	H75	H	0.900697	0.379080	0.900686
	H76	H	0.096764	0.909724	0.618378
	H77	H	0.093426	0.092945	0.382195
	H78	H	0.908957	0.097706	0.618940
	H79	H	0.907638	0.903613	0.381661
	H80	H	0.615190	0.086819	0.905088
	H81	H	0.384829	0.091923	0.090597
	H82	H	0.614747	0.915657	0.095324
	H83	H	0.380466	0.894582	0.908173
	H84	H	0.620959	0.900071	0.100871
	H85	H	0.382203	0.093460	0.099163
	H86	H	0.619216	0.098672	0.902219
	H87	H	0.387010	0.911377	0.916310
	H88	H	0.901539	0.092881	0.618932
	H89	H	0.093313	0.093831	0.381578
	H90	H	0.089206	0.908554	0.615954
	H91	H	0.903745	0.907837	0.381863
	H92	H	0.100857	0.618772	0.906233
	H93	H	0.098069	0.382818	0.090595
	H94	H	0.908450	0.617815	0.096548
	H95	H	0.914296	0.384808	0.905134
	H96	H	0.412726	0.115463	0.595008
	H97	H	0.594508	0.883151	0.590120
	H98	H	0.590219	0.113448	0.417020
	H99	H	0.400708	0.882599	0.409419
	H100	H	0.586603	0.402908	0.117502
	H101	H	0.587408	0.595515	0.883601
	H102	H	0.403780	0.596288	0.119635
	H103	H	0.403713	0.408041	0.881383
	H104	H	0.117250	0.602487	0.411813
	H105	H	0.885399	0.591750	0.591166
	H106	H	0.116683	0.402217	0.586546
	H107	H	0.883391	0.406908	0.406450
	H108	H	0.906323	0.615819	0.088972
	H109	H	0.093654	0.381634	0.098075
	H110	H	0.091430	0.617718	0.901837
	H111	H	0.902548	0.383715	0.914713
	H112	H	0.093036	0.902481	0.619426
	H113	H	0.094312	0.093285	0.381817
	H114	H	0.909367	0.088561	0.615920
	H115	H	0.910130	0.909220	0.383548
	H116	H	0.615337	0.095953	0.914254
	H117	H	0.381601	0.100099	0.092984
	H118	H	0.615192	0.901623	0.083914
	H119	H	0.382003	0.910835	0.896994
	C120	C	0.378047	0.008581	0.621593
	C121	C	0.621688	0.991514	0.621168
	C122	C	0.622130	0.008587	0.378400
	C123	C	0.378088	0.991768	0.378839
	C124	C	0.621221	0.378642	0.009023
	C125	C	0.621980	0.621446	0.991127
	C126	C	0.378574	0.621191	0.008407
	C127	C	0.378696	0.378315	0.991308
	C128	C	0.007970	0.621973	0.378007
	C129	C	0.991764	0.621967	0.621878
	C130	C	0.008351	0.377866	0.621557
	C131	C	0.991611	0.378033	0.378237
	C132	C	0.877995	0.508438	0.121370
	C133	C	0.121483	0.491885	0.121409
	C134	C	0.122470	0.508423	0.878041
	C135	C	0.878399	0.491109	0.878644
	C136	C	0.121230	0.878627	0.508359
	C137	C	0.121314	0.121551	0.491127
	C138	C	0.878883	0.121023	0.508786
	C139	C	0.878536	0.878682	0.491591
	C140	C	0.508325	0.121674	0.878460
	C141	C	0.491502	0.122549	0.122174
	C142	C	0.508668	0.877989	0.121812
	C143	C	0.491748	0.878041	0.878574
	C144	C	0.381753	0.884496	0.676169
	C145	C	0.618007	0.115170	0.675802
	C146	C	0.617983	0.884669	0.324079
	C147	C	0.382761	0.116012	0.325064
	C148	C	0.676289	0.381129	0.884558
	C149	C	0.675646	0.617854	0.115813
	C150	C	0.324570	0.618366	0.884108
	C151	C	0.323848	0.381337	0.115698
	C152	C	0.884895	0.676625	0.381079
	C153	C	0.115344	0.676341	0.618781
	C154	C	0.884776	0.323467	0.619038
	C155	C	0.115218	0.324147	0.381159
	C156	C	0.884718	0.382205	0.675975
	C157	C	0.115591	0.617829	0.675520
	C158	C	0.884303	0.618316	0.324455
	C159	C	0.115104	0.382407	0.323808
	C160	C	0.382313	0.675619	0.884103
	C161	C	0.618426	0.675272	0.115728
	C162	C	0.618371	0.324601	0.884288
	C163	C	0.381802	0.324364	0.115827
	C164	C	0.676779	0.885040	0.380363
	C165	C	0.676149	0.115087	0.618729
	C166	C	0.323085	0.885014	0.619475
	C167	C	0.324051	0.115919	0.381538
	C168	C	0.881753	0.384654	0.175700
	C169	C	0.117632	0.615716	0.175391
	C170	C	0.117828	0.384390	0.824479
	C171	C	0.882859	0.615436	0.824761
	C172	C	0.176114	0.881351	0.384179
	C173	C	0.175388	0.118657	0.615366
	C174	C	0.824506	0.118744	0.384431
	C175	C	0.823576	0.881109	0.615852
	C176	C	0.385122	0.176280	0.881238
	C177	C	0.615091	0.176509	0.118689
	C178	C	0.385218	0.823559	0.119118
	C179	C	0.615139	0.824122	0.881466
	C180	C	0.385217	0.881474	0.176671
	C181	C	0.615380	0.118250	0.175793
	C182	C	0.384756	0.117448	0.824703
	C183	C	0.615111	0.881807	0.823748
	C184	C	0.882095	0.175598	0.384175
	C185	C	0.117762	0.175517	0.615442
	C186	C	0.118708	0.824018	0.384353
	C187	C	0.881594	0.824222	0.615795
	C188	C	0.176609	0.384682	0.880744
	C189	C	0.176445	0.615257	0.118914
	C190	C	0.823606	0.384722	0.118866
	C191	C	0.823864	0.614796	0.881051
	C192	C	0.399333	0.094776	0.600009
	C193	C	0.600047	0.905009	0.598964
	C194	C	0.600905	0.095040	0.400199
	C195	C	0.398787	0.905495	0.400561
	C196	C	0.599597	0.400240	0.095663
	C197	C	0.600415	0.600204	0.904358
	C198	C	0.399732	0.599693	0.095494
	C199	C	0.400597	0.400530	0.904643
	C200	C	0.094051	0.600083	0.399581
	C201	C	0.905678	0.600807	0.600477
	C202	C	0.094741	0.399023	0.600105
	C203	C	0.905361	0.399225	0.400332
	C204	C	0.899036	0.594926	0.099885
	C205	C	0.100146	0.405162	0.099483
	C206	C	0.101190	0.595112	0.899940
	C207	C	0.899541	0.404816	0.900312
	C208	C	0.099499	0.900543	0.595432
	C209	C	0.100026	0.099828	0.404218
	C210	C	0.900451	0.099492	0.595425
	C211	C	0.900697	0.900410	0.404797
	C212	C	0.594410	0.100227	0.900565
	C213	C	0.405099	0.101393	0.100715
	C214	C	0.594797	0.899493	0.099758
	C215	C	0.405214	0.899342	0.900649
	Zn216	Zn	0.499730	-0.000191	0.749679
	Zn217	Zn	0.499902	0.000494	0.250209
	Zn218	Zn	0.749289	0.499876	-0.000107
	Zn219	Zn	0.250173	0.499733	-0.000064
	Zn220	Zn	-0.000030	0.750560	0.499882
	Zn221	Zn	-0.000095	0.249045	0.499690
	Zn222	Zn	0.000491	0.500044	0.750300
	Zn223	Zn	-0.000634	0.500199	0.249748
	Zn224	Zn	0.500276	0.749454	0.000055
	Zn225	Zn	0.500123	0.250718	-0.000342
	Zn226	Zn	0.750625	-0.000041	0.499856
	Zn227	Zn	0.249173	0.000201	0.500058
	N228	N	0.415272	0.962200	0.677558
	N229	N	0.584844	0.037129	0.677398
	N230	N	0.584399	0.962429	0.322874
	N231	N	0.415836	0.038138	0.323355
	N232	N	0.678034	0.414298	0.962860
	N233	N	0.678211	0.585104	0.037154
	N234	N	0.322230	0.585169	0.962432
	N235	N	0.321382	0.414044	0.037188
	N236	N	0.962767	0.678736	0.413947
	N237	N	0.037364	0.679380	0.586264
	N238	N	0.962654	0.320569	0.585941
	N239	N	0.037394	0.321419	0.414391
	N240	N	0.962427	0.415145	0.677630
	N241	N	0.037930	0.584598	0.677421
	N242	N	0.961882	0.585175	0.322308
	N243	N	0.037273	0.415106	0.321899
	N244	N	0.415126	0.677406	0.962506
	N245	N	0.585535	0.677415	0.037532
	N246	N	0.585189	0.322644	0.962622
	N247	N	0.415282	0.322775	0.037590
	N248	N	0.679411	0.963097	0.413254
	N249	N	0.678382	0.037157	0.585499
	N250	N	0.320667	0.962915	0.586242
	N251	N	0.321053	0.037769	0.414304
	N252	N	0.914840	0.462407	0.177256
	N253	N	0.084267	0.537941	0.176934
	N254	N	0.084931	0.462436	0.822755
	N255	N	0.916206	0.537661	0.823242
	N256	N	0.177904	0.914440	0.462470
	N257	N	0.177465	0.085410	0.537017
	N258	N	0.822359	0.085562	0.462616
	N259	N	0.821633	0.914114	0.537524
	N260	N	0.463022	0.179066	0.913794
	N261	N	0.537054	0.179253	0.086065
	N262	N	0.463007	0.821165	0.085804
	N263	N	0.537392	0.821806	0.914732
	N264	N	0.462847	0.914732	0.178255
	N265	N	0.537526	0.085177	0.177776
	N266	N	0.462313	0.083962	0.823149
	N267	N	0.537254	0.914717	0.822066
	N268	N	0.915301	0.177350	0.462468
	N269	N	0.085085	0.177502	0.537074
	N270	N	0.085301	0.822358	0.462554
	N271	N	0.915088	0.822643	0.537497
	N272	N	0.179343	0.462822	0.913574
	N273	N	0.179082	0.537035	0.086294
	N274	N	0.820864	0.462837	0.085857
	N275	N	0.821173	0.536689	0.913975
