data_Molecule from HDF5

_cell_length_a		16.141772
_cell_length_b		16.245481
_cell_length_c		16.252223
_cell_angle_alpha	89.470168
_cell_angle_beta	89.747009
_cell_angle_gamma	90.175317
_symmetry_space_group_name_H-M	'P 1'
_symmetry_Int_Tables_number		1

loop_
	_symmetry_equiv_pos_as_xyz
	x,y,z

loop_
	_atom_site_label
	_atom_site_type_symbol
	_atom_site_fract_x
	_atom_site_fract_y
	_atom_site_fract_z
	H0	H	0.392451	0.837086	0.717367
	H1	H	0.595590	0.164404	0.715779
	H2	H	0.597350	0.836642	0.288509
	H3	H	0.397006	0.162941	0.280014
	H4	H	0.712467	0.400354	0.835191
	H5	H	0.710674	0.594829	0.162797
	H6	H	0.286244	0.598805	0.834871
	H7	H	0.279568	0.396992	0.162769
	H8	H	0.830005	0.716865	0.399134
	H9	H	0.158387	0.719462	0.598436
	H10	H	0.830311	0.287169	0.601413
	H11	H	0.157951	0.290250	0.398264
	H12	H	0.832250	0.400245	0.717686
	H13	H	0.160539	0.602823	0.710469
	H14	H	0.831762	0.604786	0.281291
	H15	H	0.158622	0.404222	0.283287
	H16	H	0.396092	0.718181	0.837875
	H17	H	0.597848	0.711490	0.162784
	H18	H	0.599410	0.282072	0.836515
	H19	H	0.394839	0.280094	0.163242
	H20	H	0.710201	0.838182	0.404749
	H21	H	0.707314	0.166891	0.595796
	H22	H	0.277741	0.838331	0.601672
	H23	H	0.283308	0.166139	0.398810
	H24	H	0.891199	0.340778	0.220742
	H25	H	0.098034	0.665831	0.211673
	H26	H	0.098653	0.338065	0.782154
	H27	H	0.898176	0.665150	0.783664
	H28	H	0.211509	0.904728	0.336498
	H29	H	0.210452	0.101997	0.663603
	H30	H	0.781275	0.104217	0.335708
	H31	H	0.780802	0.905562	0.664067
	H32	H	0.333119	0.215970	0.898125
	H33	H	0.660028	0.213962	0.101111
	H34	H	0.331990	0.780989	0.101727
	H35	H	0.660854	0.787544	0.901283
	H36	H	0.333138	0.894615	0.218843
	H37	H	0.662397	0.094244	0.209430
	H38	H	0.331578	0.099700	0.784932
	H39	H	0.658308	0.899334	0.783247
	H40	H	0.895262	0.220479	0.335942
	H41	H	0.095516	0.219432	0.662796
	H42	H	0.094642	0.789469	0.336163
	H43	H	0.890261	0.784252	0.662240
	H44	H	0.211520	0.335757	0.900405
	H45	H	0.214254	0.663760	0.095153
	H46	H	0.783311	0.337055	0.098702
	H47	H	0.781186	0.663798	0.896642
	H48	H	0.406974	0.115079	0.588991
	H49	H	0.588687	0.884360	0.591447
	H50	H	0.585848	0.117492	0.405030
	H51	H	0.397028	0.882581	0.408098
	H52	H	0.595841	0.406508	0.116860
	H53	H	0.588269	0.594486	0.882178
	H54	H	0.404743	0.582766	0.114893
	H55	H	0.400817	0.397369	0.879450
	H56	H	0.105819	0.584270	0.414120
	H57	H	0.876103	0.588899	0.599455
	H58	H	0.112769	0.410142	0.591162
	H59	H	0.873032	0.403243	0.405502
	H60	H	0.112683	0.410095	0.587967
	H61	H	0.874163	0.601767	0.591711
	H62	H	0.117097	0.595767	0.390202
	H63	H	0.879566	0.413996	0.416913
	H64	H	0.410167	0.591380	0.115694
	H65	H	0.590846	0.596064	0.881671
	H66	H	0.584440	0.411298	0.111997
	H67	H	0.400477	0.415247	0.884440
	H68	H	0.592712	0.120666	0.403758
	H69	H	0.587071	0.885279	0.594378
	H70	H	0.399693	0.119301	0.590765
	H71	H	0.407860	0.884921	0.406510
	H72	H	0.894246	0.621090	0.088949
	H73	H	0.077295	0.388560	0.090843
	H74	H	0.095698	0.618543	0.903414
	H75	H	0.899335	0.383718	0.912815
	H76	H	0.082851	0.916944	0.612756
	H77	H	0.090637	0.097773	0.382928
	H78	H	0.903983	0.108375	0.620211
	H79	H	0.910567	0.904325	0.382135
	H80	H	0.615380	0.091081	0.904106
	H81	H	0.375088	0.101999	0.088347
	H82	H	0.614916	0.903299	0.090967
	H83	H	0.378459	0.908355	0.910297
	H84	H	0.614739	0.906501	0.096498
	H85	H	0.385064	0.080024	0.080803
	H86	H	0.612869	0.092115	0.910875
	H87	H	0.377615	0.905829	0.909668
	H88	H	0.888702	0.092015	0.618872
	H89	H	0.087130	0.096691	0.383766
	H90	H	0.079166	0.905447	0.616433
	H91	H	0.893350	0.908120	0.379418
	H92	H	0.089685	0.618691	0.900076
	H93	H	0.092406	0.385443	0.085051
	H94	H	0.908330	0.619951	0.097870
	H95	H	0.904689	0.381437	0.900103
	H96	H	0.406170	0.118974	0.597029
	H97	H	0.584979	0.885829	0.591411
	H98	H	0.587181	0.119740	0.397850
	H99	H	0.403337	0.886125	0.415360
	H100	H	0.585151	0.397626	0.117196
	H101	H	0.590220	0.593597	0.881677
	H102	H	0.400791	0.591762	0.118309
	H103	H	0.416078	0.405647	0.885732
	H104	H	0.114363	0.610535	0.413356
	H105	H	0.880756	0.588961	0.585500
	H106	H	0.111902	0.413096	0.589794
	H107	H	0.876771	0.419382	0.401120
	H108	H	0.908652	0.615599	0.081933
	H109	H	0.088773	0.381632	0.101747
	H110	H	0.090371	0.616580	0.907170
	H111	H	0.912853	0.387034	0.909902
	H112	H	0.091597	0.909551	0.617952
	H113	H	0.088136	0.099178	0.381959
	H114	H	0.910730	0.088863	0.611889
	H115	H	0.904405	0.920464	0.385694
	H116	H	0.612111	0.086335	0.907882
	H117	H	0.376319	0.082803	0.104205
	H118	H	0.616424	0.900102	0.096814
	H119	H	0.378147	0.905706	0.911707
	C120	C	0.373694	0.009692	0.622242
	C121	C	0.616105	0.993177	0.621000
	C122	C	0.617786	0.010464	0.376972
	C123	C	0.374407	0.992233	0.378439
	C124	C	0.618494	0.376548	0.007525
	C125	C	0.619035	0.621430	0.990144
	C126	C	0.376580	0.619604	0.008378
	C127	C	0.374963	0.375852	0.991057
	C128	C	0.003694	0.625513	0.376775
	C129	C	0.986017	0.623667	0.620361
	C130	C	0.004097	0.380746	0.620805
	C131	C	0.985270	0.383235	0.378236
	C132	C	0.873805	0.510787	0.120783
	C133	C	0.117426	0.493040	0.120345
	C134	C	0.120374	0.509552	0.875221
	C135	C	0.876069	0.492299	0.877315
	C136	C	0.115072	0.882055	0.508067
	C137	C	0.117758	0.126414	0.491114
	C138	C	0.873039	0.125535	0.508479
	C139	C	0.872419	0.881261	0.490791
	C140	C	0.504784	0.119862	0.878339
	C141	C	0.488039	0.117717	0.119979
	C142	C	0.505905	0.874373	0.123846
	C143	C	0.486420	0.878147	0.879996
	C144	C	0.373138	0.886455	0.679119
	C145	C	0.614697	0.115962	0.677026
	C146	C	0.616540	0.886198	0.325127
	C147	C	0.376767	0.114786	0.319568
	C148	C	0.674936	0.379458	0.884477
	C149	C	0.673762	0.616410	0.113671
	C150	C	0.322780	0.618878	0.884278
	C151	C	0.317678	0.376765	0.113930
	C152	C	0.879649	0.680166	0.378611
	C153	C	0.109571	0.680632	0.617849
	C154	C	0.880076	0.324810	0.620820
	C155	C	0.109110	0.328163	0.379101
	C156	C	0.880955	0.381222	0.678730
	C157	C	0.110688	0.622549	0.673653
	C158	C	0.880509	0.624536	0.319917
	C159	C	0.109419	0.384944	0.321980
	C160	C	0.377291	0.678495	0.885941
	C161	C	0.617241	0.674521	0.113583
	C162	C	0.618276	0.320509	0.885224
	C163	C	0.375481	0.318792	0.114254
	C164	C	0.673330	0.887196	0.382565
	C165	C	0.670399	0.117391	0.617426
	C166	C	0.316185	0.886962	0.621512
	C167	C	0.320583	0.116556	0.378970
	C168	C	0.873264	0.388714	0.180244
	C169	C	0.117142	0.616506	0.174153
	C170	C	0.118314	0.386558	0.820084
	C171	C	0.878043	0.615887	0.821387
	C172	C	0.172484	0.884385	0.385224
	C173	C	0.172893	0.123026	0.614405
	C174	C	0.818650	0.123979	0.384705
	C175	C	0.817311	0.883988	0.614458
	C176	C	0.381647	0.177113	0.879088
	C177	C	0.611487	0.174589	0.119307
	C178	C	0.381715	0.818643	0.122135
	C179	C	0.611058	0.824454	0.881120
	C180	C	0.382253	0.875173	0.180312
	C181	C	0.612386	0.115376	0.173545
	C182	C	0.380905	0.119420	0.822636
	C183	C	0.609771	0.879601	0.822029
	C184	C	0.875500	0.181702	0.384839
	C185	C	0.115634	0.181425	0.613914
	C186	C	0.114550	0.826954	0.385063
	C187	C	0.872117	0.823911	0.613486
	C188	C	0.174660	0.385435	0.878889
	C189	C	0.175050	0.615705	0.116348
	C190	C	0.819515	0.386757	0.119657
	C191	C	0.819862	0.615273	0.877789
	C192	C	0.397309	0.095468	0.599085
	C193	C	0.593647	0.907329	0.599049
	C194	C	0.595246	0.096892	0.396404
	C195	C	0.396256	0.906838	0.402819
	C196	C	0.595254	0.398711	0.093295
	C197	C	0.596510	0.600599	0.904166
	C198	C	0.398878	0.595568	0.093794
	C199	C	0.398888	0.399274	0.905417
	C200	C	0.089930	0.603350	0.399365
	C201	C	0.899533	0.600122	0.598805
	C202	C	0.090188	0.404185	0.596778
	C203	C	0.898917	0.405530	0.401190
	C204	C	0.897041	0.596657	0.096724
	C205	C	0.093357	0.407420	0.098795
	C206	C	0.098612	0.595435	0.897057
	C207	C	0.898877	0.406406	0.900721
	C208	C	0.091503	0.904109	0.593714
	C209	C	0.095331	0.104394	0.405295
	C210	C	0.894705	0.103060	0.594503
	C211	C	0.896084	0.904021	0.404765
	C212	C	0.590962	0.096709	0.900912
	C213	C	0.401427	0.095004	0.097769
	C214	C	0.592819	0.896869	0.101624
	C215	C	0.400374	0.900206	0.903447
	Zn216	Zn	0.494778	-0.000724	0.750700
	Zn217	Zn	0.496711	-0.001648	0.248931
	Zn218	Zn	0.747025	0.499938	-0.001663
	Zn219	Zn	0.247678	0.499435	-0.001267
	Zn220	Zn	-0.006148	0.752347	0.499313
	Zn221	Zn	-0.005808	0.254218	0.498773
	Zn222	Zn	-0.003238	0.501847	0.748181
	Zn223	Zn	-0.005133	0.503169	0.249017
	Zn224	Zn	0.496665	0.748744	0.000038
	Zn225	Zn	0.497155	0.246632	0.000266
	Zn226	Zn	0.745045	0.003544	0.499458
	Zn227	Zn	0.245604	0.002637	0.500361
	N228	N	0.408110	0.963710	0.679674
	N229	N	0.581613	0.037717	0.679451
	N230	N	0.582770	0.963758	0.321360
	N231	N	0.409324	0.036559	0.318977
	N232	N	0.675018	0.413836	0.961543
	N233	N	0.675155	0.584052	0.035748
	N234	N	0.321965	0.582903	0.961175
	N235	N	0.317271	0.411409	0.036344
	N236	N	0.957353	0.681121	0.413238
	N237	N	0.031125	0.681360	0.585394
	N238	N	0.957604	0.324480	0.585412
	N239	N	0.030960	0.326861	0.413355
	N240	N	0.959148	0.415304	0.678818
	N241	N	0.032742	0.587675	0.675505
	N242	N	0.958640	0.591385	0.318397
	N243	N	0.031477	0.418471	0.321266
	N244	N	0.409954	0.679151	0.964071
	N245	N	0.584116	0.677785	0.035834
	N246	N	0.583722	0.318765	0.962710
	N247	N	0.410081	0.317910	0.036658
	N248	N	0.674448	0.965498	0.414017
	N249	N	0.671451	0.040121	0.583375
	N250	N	0.316146	0.964620	0.586967
	N251	N	0.318720	0.039498	0.414751
	N252	N	0.906402	0.466987	0.180879
	N253	N	0.082160	0.539064	0.176776
	N254	N	0.085434	0.464683	0.817437
	N255	N	0.912129	0.538165	0.820946
	N256	N	0.172913	0.918124	0.462765
	N257	N	0.174456	0.089668	0.536929
	N258	N	0.816782	0.089810	0.462562
	N259	N	0.817525	0.919075	0.537154
	N260	N	0.459784	0.177639	0.913056
	N261	N	0.533000	0.175959	0.086536
	N262	N	0.459870	0.817759	0.088014
	N263	N	0.533491	0.823393	0.916464
	N264	N	0.460565	0.909000	0.181718
	N265	N	0.534476	0.080650	0.174028
	N266	N	0.458356	0.084505	0.822363
	N267	N	0.531333	0.912311	0.821202
	N268	N	0.908551	0.182859	0.462633
	N269	N	0.082068	0.183716	0.536191
	N270	N	0.079562	0.825573	0.462347
	N271	N	0.905760	0.822231	0.535538
	N272	N	0.176311	0.462923	0.912340
	N273	N	0.175476	0.537918	0.083736
	N274	N	0.819710	0.463667	0.083356
	N275	N	0.818455	0.537516	0.911936
	O276	O	1.079818	0.148662	1.091004
	H277	H	1.082213	0.146904	1.088686
	H278	H	1.076693	0.151476	1.088652
	O279	O	0.411207	0.530494	0.594286
	H280	H	0.424177	0.515448	0.606154
	H281	H	0.408121	0.523993	0.600787
	O282	O	0.455186	0.550363	0.344316
	H283	H	0.448226	0.555134	0.336643
	H284	H	0.453972	0.542910	0.353262
	O285	O	0.384368	0.587821	0.555858
	H286	H	0.374875	0.579328	0.562955
	H287	H	0.384388	0.596509	0.555394
	O288	O	0.404192	0.366751	0.550892
	H289	H	0.395860	0.356592	0.553907
	H290	H	0.419838	0.370425	0.555626
	O291	O	-0.042158	0.022024	0.994022
	H292	H	-0.045784	0.032867	0.981916
	H293	H	-0.033677	0.024004	0.991191
	O294	O	0.944969	1.040333	-0.053613
	H295	H	0.939692	1.043822	-0.062048
	H296	H	0.949469	1.047430	-0.055651
	O297	O	1.098493	1.132221	0.180396
	H298	H	1.094632	1.126868	0.184804
	H299	H	1.099162	1.140419	0.182133
	O300	O	0.556043	0.613436	0.481729
	H301	H	0.549320	0.611849	0.486926
	H302	H	0.555061	0.612103	0.466637
	O303	O	0.348636	0.503370	0.535697
	H304	H	0.359178	0.490115	0.528005
	H305	H	0.331137	0.511112	0.558002
	O306	O	0.493629	0.513236	0.425360
	H307	H	0.485282	0.514705	0.423850
	H308	H	0.487815	0.526459	0.415119
	O309	O	0.445859	0.570399	0.437056
	H310	H	0.433278	0.580760	0.435945
	H311	H	0.444297	0.549666	0.439153
	O312	O	1.057157	1.115661	0.968814
	H313	H	1.062038	1.112304	0.968196
	H314	H	1.053504	1.124354	0.969742
	O315	O	0.955721	0.973260	0.078270
	H316	H	0.950843	0.969837	0.088221
	H317	H	0.961263	0.973399	0.072965
	O318	O	0.520732	0.422730	0.568064
	H319	H	0.534489	0.427111	0.588265
	H320	H	0.504159	0.424007	0.568756
	O321	O	0.437558	0.432313	0.459049
	H322	H	0.438594	0.431721	0.467636
	H323	H	0.433907	0.429976	0.461406
	O324	O	-0.092674	0.957530	0.903221
	H325	H	-0.085872	0.966647	0.905402
	H326	H	-0.091040	0.960219	0.903772
	O327	O	-0.023116	1.021908	1.036254
	H328	H	-0.011113	1.014555	1.025124
	H329	H	-0.031399	1.019594	1.037759
	O330	O	-0.013008	-0.135457	-0.071173
	H331	H	-0.025884	-0.124330	-0.071308
	H332	H	-0.004334	-0.124600	-0.071895
	O333	O	0.394131	0.384733	0.554232
	H334	H	0.387379	0.372533	0.567091
	H335	H	0.410340	0.378399	0.559303
	O336	O	0.007407	0.108661	-0.066230
	H337	H	0.021170	0.102100	-0.073008
	H338	H	0.005612	0.101402	-0.063623
	O339	O	0.110509	0.008821	-0.027579
	H340	H	0.113761	0.003556	-0.014844
	H341	H	0.108486	0.006807	-0.029960
	O342	O	0.566694	0.568538	0.515140
	H343	H	0.556276	0.571557	0.505746
	H344	H	0.560971	0.575538	0.526015
	O345	O	0.066403	0.916760	1.045484
	H346	H	0.060261	0.916807	1.051135
	H347	H	0.062438	0.918838	1.056232
	O348	O	0.628195	0.452204	0.454866
	H349	H	0.627153	0.454582	0.446198
	H350	H	0.630522	0.441040	0.453218
	O351	O	0.582710	0.405287	0.382015
	H352	H	0.580886	0.407149	0.386980
	H353	H	0.591718	0.422654	0.389130
	O354	O	0.129468	0.965030	0.024539
	H355	H	0.127400	0.949270	0.024343
	H356	H	0.123955	0.963634	0.029171
	O357	O	0.512302	0.633645	0.452349
	H358	H	0.513489	0.638851	0.439757
	H359	H	0.505296	0.647535	0.450709
	O360	O	0.981545	-0.004828	0.961708
	H361	H	0.997380	-0.014709	0.957011
	H362	H	0.972273	-0.009450	0.967018
	O363	O	0.437848	0.613434	0.562515
	H364	H	0.431949	0.604511	0.565139
	H365	H	0.455154	0.620279	0.564265
	O366	O	0.560736	0.621676	0.420478
	H367	H	0.563567	0.614158	0.418716
	H368	H	0.553673	0.608633	0.417402
	O369	O	1.085235	-0.052348	-0.066980
	H370	H	1.075156	-0.050355	-0.065005
	H371	H	1.091567	-0.062718	-0.068864
	O372	O	0.465689	0.387034	0.558400
	H373	H	0.462078	0.370976	0.556565
	H374	H	0.457153	0.379235	0.561116
	O375	O	0.945971	0.004356	1.114149
	H376	H	0.945454	-0.000170	1.112330
	H377	H	0.935676	-0.004677	1.129134
	O378	O	-0.060945	0.909956	0.018180
	H379	H	-0.072330	0.906316	0.012475
	H380	H	-0.057097	0.904808	0.008894
	O381	O	0.597637	0.510524	0.563494
	H382	H	0.606781	0.505224	0.548118
	H383	H	0.579793	0.521660	0.560887
	O384	O	0.984567	0.870651	0.093527
	H385	H	0.969868	0.867788	0.091064
	H386	H	0.972042	0.866984	0.095650
	O387	O	0.983389	0.094351	1.000883
	H388	H	0.980719	0.091306	1.005973
	H389	H	0.989649	0.099030	0.994097
	O390	O	0.857686	1.016513	-0.067266
	H391	H	0.852441	1.008795	-0.065636
	H392	H	0.854081	1.021069	-0.060396
	O393	O	0.529640	0.472737	0.561668
	H394	H	0.539211	0.482945	0.556772
	H395	H	0.532657	0.476645	0.556375
