data_Molecule from HDF5

_cell_length_a		16.302171
_cell_length_b		16.166487
_cell_length_c		16.142289
_cell_angle_alpha	89.364906
_cell_angle_beta	89.784397
_cell_angle_gamma	90.237013
_symmetry_space_group_name_H-M	'P 1'
_symmetry_Int_Tables_number		1

loop_
	_symmetry_equiv_pos_as_xyz
	x,y,z

loop_
	_atom_site_label
	_atom_site_type_symbol
	_atom_site_fract_x
	_atom_site_fract_y
	_atom_site_fract_z
	H0	H	0.395331	0.835341	0.717997
	H1	H	0.593968	0.164862	0.709128
	H2	H	0.594005	0.833811	0.287157
	H3	H	0.400725	0.164153	0.285509
	H4	H	0.711769	0.401917	0.833752
	H5	H	0.713787	0.597955	0.162330
	H6	H	0.284267	0.600505	0.833655
	H7	H	0.281288	0.397722	0.163031
	H8	H	0.834022	0.713674	0.397027
	H9	H	0.160524	0.713772	0.596733
	H10	H	0.833401	0.282900	0.599145
	H11	H	0.160273	0.283917	0.399378
	H12	H	0.834711	0.397030	0.713995
	H13	H	0.162678	0.594003	0.708383
	H14	H	0.834082	0.596712	0.283239
	H15	H	0.161071	0.401714	0.285166
	H16	H	0.400053	0.714405	0.834463
	H17	H	0.594081	0.708590	0.164837
	H18	H	0.594508	0.288547	0.833579
	H19	H	0.399264	0.284895	0.164904
	H20	H	0.710121	0.834083	0.400793
	H21	H	0.713277	0.162146	0.597811
	H22	H	0.281461	0.834053	0.601720
	H23	H	0.282712	0.162737	0.397857
	H24	H	0.899011	0.333274	0.213376
	H25	H	0.097438	0.662963	0.210530
	H26	H	0.095307	0.331469	0.788453
	H27	H	0.902247	0.661563	0.781801
	H28	H	0.214211	0.898654	0.335273
	H29	H	0.210636	0.095870	0.664086
	H30	H	0.782609	0.098990	0.335100
	H31	H	0.779957	0.894686	0.663421
	H32	H	0.333014	0.214543	0.900324
	H33	H	0.660141	0.213408	0.097707
	H34	H	0.333934	0.780268	0.102389
	H35	H	0.661018	0.787102	0.901631
	H36	H	0.333214	0.899352	0.215222
	H37	H	0.660726	0.096289	0.210705
	H38	H	0.332467	0.098750	0.784824
	H39	H	0.660288	0.903823	0.785768
	H40	H	0.899653	0.211265	0.333964
	H41	H	0.092784	0.207960	0.664748
	H42	H	0.093801	0.789281	0.332094
	H43	H	0.896301	0.780262	0.662609
	H44	H	0.213195	0.334489	0.899854
	H45	H	0.213313	0.662311	0.095779
	H46	H	0.782457	0.334273	0.099808
	H47	H	0.786474	0.662994	0.896997
	H48	H	0.414858	0.113792	0.591671
	H49	H	0.585331	0.879831	0.598858
	H50	H	0.599659	0.119848	0.403070
	H51	H	0.407575	0.881001	0.404137
	H52	H	0.592511	0.396519	0.120481
	H53	H	0.598949	0.591015	0.879579
	H54	H	0.405832	0.585300	0.115289
	H55	H	0.403625	0.405724	0.880239
	H56	H	0.113668	0.588901	0.401725
	H57	H	0.880548	0.585102	0.598285
	H58	H	0.116843	0.399710	0.594597
	H59	H	0.879265	0.396402	0.411032
	H60	H	0.114633	0.400893	0.588859
	H61	H	0.880169	0.596612	0.587709
	H62	H	0.116230	0.596128	0.401775
	H63	H	0.883933	0.412518	0.410120
	H64	H	0.404925	0.591658	0.117415
	H65	H	0.587691	0.591415	0.881847
	H66	H	0.598409	0.412117	0.117666
	H67	H	0.403869	0.410616	0.881166
	H68	H	0.585506	0.117236	0.397975
	H69	H	0.584526	0.883686	0.588743
	H70	H	0.396811	0.115600	0.579250
	H71	H	0.406172	0.883622	0.414326
	H72	H	0.900677	0.619037	0.092286
	H73	H	0.089120	0.380833	0.091263
	H74	H	0.096674	0.618034	0.899347
	H75	H	0.905018	0.383734	0.919234
	H76	H	0.084954	0.903646	0.615899
	H77	H	0.097628	0.092629	0.378907
	H78	H	0.905972	0.092313	0.617535
	H79	H	0.911986	0.904440	0.382627
	H80	H	0.612815	0.088681	0.901060
	H81	H	0.381556	0.083218	0.094455
	H82	H	0.618275	0.905072	0.108697
	H83	H	0.377829	0.900088	0.907746
	H84	H	0.615170	0.890655	0.084364
	H85	H	0.376246	0.097393	0.098592
	H86	H	0.615847	0.099326	0.900516
	H87	H	0.382265	0.907006	0.914581
	H88	H	0.897519	0.088428	0.619544
	H89	H	0.088647	0.084591	0.383372
	H90	H	0.090644	0.900536	0.618661
	H91	H	0.895701	0.898591	0.375978
	H92	H	0.085241	0.614803	0.898838
	H93	H	0.088622	0.380908	0.090905
	H94	H	0.910396	0.615812	0.092685
	H95	H	0.890826	0.374658	0.903171
	H96	H	0.396048	0.121411	0.600426
	H97	H	0.593516	0.880336	0.592639
	H98	H	0.588556	0.113844	0.412245
	H99	H	0.398627	0.878873	0.407979
	H100	H	0.582064	0.408397	0.113425
	H101	H	0.593071	0.600623	0.878234
	H102	H	0.400735	0.587706	0.117162
	H103	H	0.407988	0.407637	0.882233
	H104	H	0.112779	0.592657	0.408480
	H105	H	0.884328	0.582810	0.584121
	H106	H	0.114605	0.404587	0.593216
	H107	H	0.876892	0.404179	0.396135
	H108	H	0.904869	0.614604	0.083294
	H109	H	0.089575	0.381136	0.091791
	H110	H	0.091731	0.613934	0.908987
	H111	H	0.912220	0.378487	0.898302
	H112	H	0.090601	0.908254	0.615747
	H113	H	0.085915	0.096337	0.380583
	H114	H	0.904341	0.083655	0.615083
	H115	H	0.897422	0.916323	0.382421
	H116	H	0.612469	0.095776	0.910321
	H117	H	0.381444	0.094422	0.084504
	H118	H	0.607312	0.918390	0.086200
	H119	H	0.380004	0.910542	0.905112
	C120	C	0.373914	0.007758	0.621110
	C121	C	0.616929	0.990454	0.620314
	C122	C	0.618434	0.007412	0.377301
	C123	C	0.375860	0.989907	0.378316
	C124	C	0.619116	0.377872	0.007777
	C125	C	0.620311	0.620817	0.989592
	C126	C	0.376381	0.619092	0.007429
	C127	C	0.375625	0.377240	0.990097
	C128	C	0.006009	0.620741	0.375446
	C129	C	0.989484	0.617890	0.618463
	C130	C	0.006670	0.373847	0.621208
	C131	C	0.988378	0.376303	0.377278
	C132	C	0.876191	0.507425	0.119510
	C133	C	0.118413	0.489450	0.119405
	C134	C	0.119727	0.506770	0.875904
	C135	C	0.875995	0.488417	0.876730
	C136	C	0.117697	0.877017	0.507412
	C137	C	0.118451	0.118971	0.490246
	C138	C	0.874807	0.118749	0.508489
	C139	C	0.873330	0.875953	0.489732
	C140	C	0.505130	0.122252	0.876477
	C141	C	0.488214	0.119902	0.120182
	C142	C	0.505437	0.875352	0.122627
	C143	C	0.488346	0.878427	0.879220
	C144	C	0.375756	0.884127	0.678683
	C145	C	0.614471	0.115015	0.672940
	C146	C	0.614822	0.883175	0.323794
	C147	C	0.379401	0.114347	0.322536
	C148	C	0.673767	0.381621	0.883042
	C149	C	0.675361	0.617894	0.113460
	C150	C	0.321853	0.619621	0.883149
	C151	C	0.319649	0.377809	0.114034
	C152	C	0.883020	0.675947	0.377152
	C153	C	0.112112	0.674775	0.616150
	C154	C	0.883065	0.319395	0.619321
	C155	C	0.111601	0.321645	0.379310
	C156	C	0.883481	0.376356	0.676727
	C157	C	0.113226	0.615075	0.671854
	C158	C	0.882958	0.617875	0.320572
	C159	C	0.112031	0.380357	0.322518
	C160	C	0.379452	0.676286	0.883561
	C161	C	0.615856	0.672814	0.114768
	C162	C	0.615518	0.325105	0.883016
	C163	C	0.378359	0.321698	0.114925
	C164	C	0.672194	0.883196	0.380712
	C165	C	0.673864	0.113733	0.617748
	C166	C	0.318862	0.883634	0.621223
	C167	C	0.320727	0.113733	0.378699
	C168	C	0.878389	0.382684	0.175622
	C169	C	0.117146	0.613712	0.173270
	C170	C	0.116723	0.381633	0.823894
	C171	C	0.880454	0.612545	0.819789
	C172	C	0.174941	0.879378	0.383799
	C173	C	0.172769	0.115849	0.614883
	C174	C	0.820393	0.118543	0.384129
	C175	C	0.818107	0.875772	0.614039
	C176	C	0.382015	0.177005	0.879737
	C177	C	0.611482	0.174968	0.117258
	C178	C	0.382745	0.818995	0.121768
	C179	C	0.611948	0.824697	0.881295
	C180	C	0.382183	0.878265	0.177831
	C181	C	0.611829	0.116689	0.173513
	C182	C	0.381460	0.119104	0.822591
	C183	C	0.611550	0.882618	0.823649
	C184	C	0.878290	0.174544	0.383821
	C185	C	0.114221	0.171749	0.615281
	C186	C	0.115177	0.824922	0.382177
	C187	C	0.875784	0.818600	0.613479
	C188	C	0.175304	0.383151	0.879403
	C189	C	0.174944	0.613239	0.116485
	C190	C	0.820616	0.383302	0.119019
	C191	C	0.823249	0.613300	0.877426
	C192	C	0.396036	0.094486	0.597396
	C193	C	0.594423	0.903704	0.599465
	C194	C	0.597490	0.094344	0.398300
	C195	C	0.397683	0.903357	0.402037
	C196	C	0.597524	0.399219	0.094650
	C197	C	0.599365	0.600425	0.902513
	C198	C	0.397504	0.595109	0.094209
	C199	C	0.398465	0.400843	0.903522
	C200	C	0.091790	0.599009	0.397537
	C201	C	0.903747	0.594948	0.596332
	C202	C	0.093131	0.395503	0.598745
	C203	C	0.902490	0.397944	0.399195
	C204	C	0.898806	0.594019	0.096273
	C205	C	0.095703	0.403183	0.097894
	C206	C	0.097645	0.593065	0.896379
	C207	C	0.896503	0.401524	0.899963
	C208	C	0.095209	0.897786	0.594249
	C209	C	0.097039	0.097513	0.403301
	C210	C	0.896189	0.094972	0.594936
	C211	C	0.895135	0.899635	0.402849
	C212	C	0.591446	0.100930	0.897542
	C213	C	0.401996	0.098147	0.098899
	C214	C	0.591425	0.897917	0.099750
	C215	C	0.402420	0.899740	0.902129
	Zn216	Zn	0.496265	-0.000068	0.748694
	Zn217	Zn	0.497049	-0.001065	0.249651
	Zn218	Zn	0.747856	0.498851	-0.001415
	Zn219	Zn	0.247220	0.498558	-0.002077
	Zn220	Zn	-0.003081	0.748666	0.497788
	Zn221	Zn	-0.003294	0.246300	0.499280
	Zn222	Zn	-0.001550	0.496210	0.748353
	Zn223	Zn	-0.003126	0.498488	0.247617
	Zn224	Zn	0.497251	0.747675	-0.000384
	Zn225	Zn	0.497547	0.249744	-0.000626
	Zn226	Zn	0.746104	-0.001970	0.499570
	Zn227	Zn	0.246217	-0.001934	0.499421
	N228	N	0.409222	0.962421	0.678896
	N229	N	0.579783	0.037289	0.674532
	N230	N	0.582168	0.961435	0.321488
	N231	N	0.412635	0.036266	0.322034
	N232	N	0.676056	0.413905	0.961635
	N233	N	0.678287	0.586362	0.034645
	N234	N	0.319911	0.584622	0.961212
	N235	N	0.317781	0.411634	0.035536
	N236	N	0.960582	0.678014	0.410535
	N237	N	0.034171	0.676609	0.583727
	N238	N	0.960672	0.317867	0.585595
	N239	N	0.033937	0.318974	0.412569
	N240	N	0.961373	0.409438	0.678284
	N241	N	0.035873	0.580438	0.673473
	N242	N	0.960358	0.584367	0.319287
	N243	N	0.034346	0.413586	0.321009
	N244	N	0.412586	0.675966	0.961787
	N245	N	0.582248	0.674916	0.036659
	N246	N	0.581998	0.322953	0.961281
	N247	N	0.412384	0.321379	0.036741
	N248	N	0.674826	0.961547	0.413181
	N249	N	0.675521	0.035141	0.585872
	N250	N	0.317878	0.961427	0.585798
	N251	N	0.318536	0.035300	0.412975
	N252	N	0.912356	0.460778	0.175987
	N253	N	0.082716	0.535769	0.175182
	N254	N	0.082565	0.459259	0.821637
	N255	N	0.912578	0.533976	0.819255
	N256	N	0.176749	0.910920	0.462650
	N257	N	0.175466	0.083801	0.536197
	N258	N	0.818103	0.084322	0.462500
	N259	N	0.816329	0.910544	0.535738
	N260	N	0.459761	0.179069	0.912562
	N261	N	0.533676	0.177004	0.084804
	N262	N	0.460485	0.817181	0.088074
	N263	N	0.534371	0.821932	0.915099
	N264	N	0.459556	0.912293	0.178672
	N265	N	0.534109	0.083098	0.175296
	N266	N	0.459049	0.085904	0.820346
	N267	N	0.533734	0.915320	0.822378
	N268	N	0.911458	0.174755	0.462134
	N269	N	0.081141	0.173763	0.536867
	N270	N	0.080127	0.823412	0.460058
	N271	N	0.909391	0.818615	0.535200
	N272	N	0.177416	0.461868	0.911058
	N273	N	0.175764	0.535245	0.083567
	N274	N	0.818945	0.461832	0.085014
	N275	N	0.820228	0.535110	0.911744
	O276	O	0.972591	0.937193	-0.009383
	H277	H	0.971482	0.921949	-0.009509
	H278	H	0.975185	0.931839	-0.008268
	O279	O	-0.007319	0.013256	0.957284
	H280	H	-0.009183	0.012500	0.963733
	H281	H	-0.015607	0.020436	0.958495
	O282	O	0.057927	0.059428	-0.008563
	H283	H	0.058872	0.057424	-0.012096
	H284	H	0.059944	0.055296	-0.007970
	O285	O	0.559569	0.505230	0.573410
	H286	H	0.552397	0.510271	0.568860
	H287	H	0.556259	0.507725	0.559997
	O288	O	-0.008232	-0.098068	0.058524
	H289	H	-0.016106	-0.089571	0.056065
	H290	H	-0.001553	-0.097621	0.066842
	O291	O	0.000017	1.028910	0.020920
	H292	H	-0.005723	1.034927	0.015983
	H293	H	0.012975	1.024312	0.024772
	O294	O	-0.004614	0.922834	-0.089298
	H295	H	-0.004436	0.926705	-0.088886
	H296	H	-0.010615	0.913548	-0.093875
	O297	O	0.479179	0.487498	0.525882
	H298	H	0.465264	0.490993	0.537291
	H299	H	0.481659	0.488697	0.531371
	O300	O	0.528956	0.552374	0.510419
	H301	H	0.532881	0.558265	0.523597
	H302	H	0.540998	0.560913	0.506905
	O303	O	0.950404	0.023447	1.013979
	H304	H	0.957212	0.019990	1.011021
	H305	H	0.940027	0.024604	1.014050
	O306	O	1.011010	2.024404	1.008701
	H307	H	1.008240	2.023902	1.001465
	H308	H	1.015329	2.027981	1.011990
	O309	O	-0.016955	0.988519	0.941566
	H310	H	-0.010882	0.981713	0.942159
	H311	H	-0.020144	0.982546	0.938920
	O312	O	-0.027979	-0.086549	1.031649
	H313	H	-0.035686	-0.087602	1.036390
	H314	H	-0.030507	-0.078935	1.036696
	O315	O	0.513186	0.583891	0.495066
	H316	H	0.522788	0.586461	0.497787
	H317	H	0.513139	0.581035	0.484922
	O318	O	0.547597	-0.441963	0.562734
	H319	H	0.546736	-0.445341	0.559663
	H320	H	0.551828	-0.446883	0.567478
	O321	O	0.578773	0.556327	0.461639
	H322	H	0.572962	0.544632	0.469103
	H323	H	0.584395	0.561472	0.457982
	O324	O	0.921105	0.014381	1.048357
	H325	H	0.930364	0.019107	1.054321
	H326	H	0.923681	0.003646	1.040411
	O327	O	0.965204	0.977469	1.078514
	H328	H	0.966206	0.984131	1.082129
	H329	H	0.966285	0.982696	1.081061
	O330	O	0.510547	0.488420	0.430022
	H331	H	0.514149	0.488514	0.436089
	H332	H	0.508349	0.475810	0.433497
	O333	O	0.562519	0.509759	0.487952
	H334	H	0.555338	0.504871	0.488980
	H335	H	0.568744	0.490704	0.488660
	O336	O	0.499240	0.536363	0.511514
	H337	H	0.502307	0.551997	0.506885
	H338	H	0.499847	0.537321	0.514003
	O339	O	-0.024359	-0.120362	0.174964
	H340	H	-0.029034	-0.118940	0.170684
	H341	H	-0.022379	-0.112078	0.189191
	O342	O	0.464140	0.445608	0.532375
	H343	H	0.452577	0.440930	0.542884
	H344	H	0.468332	0.454246	0.533797
	O345	O	0.437182	0.514131	0.458552
	H346	H	0.427181	0.515290	0.450752
	H347	H	0.444530	0.522184	0.456398
