data_Molecule from HDF5

_cell_length_a		16.530432
_cell_length_b		16.601770
_cell_length_c		16.569791
_cell_angle_alpha	90.178761
_cell_angle_beta	89.961663
_cell_angle_gamma	89.968845
_symmetry_space_group_name_H-M	'P 1'
_symmetry_Int_Tables_number		1

loop_
	_symmetry_equiv_pos_as_xyz
	x,y,z

loop_
	_atom_site_label
	_atom_site_type_symbol
	_atom_site_fract_x
	_atom_site_fract_y
	_atom_site_fract_z
	H0	H	0.404675	0.837853	0.727357
	H1	H	0.620241	0.147662	0.725746
	H2	H	0.619827	0.837053	0.279690
	H3	H	0.407978	0.148174	0.281405
	H4	H	0.733085	0.389504	0.844343
	H5	H	0.734103	0.596625	0.158952
	H6	H	0.292700	0.597661	0.844863
	H7	H	0.291695	0.388303	0.157281
	H8	H	0.857389	0.712586	0.398156
	H9	H	0.170666	0.715409	0.608672
	H10	H	0.858732	0.270167	0.609063
	H11	H	0.170403	0.270384	0.395825
	H12	H	0.858260	0.386969	0.723725
	H13	H	0.170647	0.600647	0.725420
	H14	H	0.857854	0.596818	0.281498
	H15	H	0.170572	0.386814	0.279600
	H16	H	0.408200	0.715021	0.845826
	H17	H	0.619859	0.714318	0.158148
	H18	H	0.616728	0.272288	0.844970
	H19	H	0.408558	0.272691	0.158466
	H20	H	0.735697	0.837027	0.397295
	H21	H	0.736346	0.148558	0.608451
	H22	H	0.289566	0.837163	0.609651
	H23	H	0.291042	0.147268	0.397028
	H24	H	0.910811	0.335265	0.222200
	H25	H	0.120493	0.648399	0.224615
	H26	H	0.120881	0.336703	0.778025
	H27	H	0.910622	0.649441	0.782310
	H28	H	0.234222	0.888840	0.345311
	H29	H	0.237356	0.099699	0.658381
	H30	H	0.793248	0.097060	0.345952
	H31	H	0.794958	0.890894	0.658553
	H32	H	0.357887	0.214760	0.896573
	H33	H	0.672430	0.210315	0.104678
	H34	H	0.357203	0.770965	0.107995
	H35	H	0.669921	0.770605	0.895790
	H36	H	0.355784	0.889932	0.221267
	H37	H	0.671805	0.094389	0.221036
	H38	H	0.358339	0.098698	0.779823
	H39	H	0.671064	0.887552	0.780575
	H40	H	0.908723	0.214865	0.346958
	H41	H	0.120703	0.215803	0.658400
	H42	H	0.119941	0.770873	0.345587
	H43	H	0.909388	0.772164	0.657192
	H44	H	0.236712	0.336470	0.895393
	H45	H	0.236327	0.648724	0.107846
	H46	H	0.794392	0.335280	0.105491
	H47	H	0.792715	0.647994	0.897818
	H48	H	0.428140	0.101232	0.589932
	H49	H	0.597549	0.881354	0.594862
	H50	H	0.604580	0.105504	0.413789
	H51	H	0.422745	0.881283	0.416338
	H52	H	0.602336	0.397770	0.115223
	H53	H	0.605166	0.586065	0.887770
	H54	H	0.426578	0.584822	0.113370
	H55	H	0.424419	0.400186	0.888736
	H56	H	0.124907	0.583196	0.420334
	H57	H	0.904126	0.578577	0.589188
	H58	H	0.125447	0.405672	0.588618
	H59	H	0.902440	0.405880	0.411376
	H60	H	0.125971	0.405748	0.588255
	H61	H	0.901192	0.582317	0.595695
	H62	H	0.125470	0.574940	0.409806
	H63	H	0.901159	0.400937	0.411686
	H64	H	0.421778	0.579633	0.113527
	H65	H	0.605901	0.576061	0.891042
	H66	H	0.609238	0.400434	0.116729
	H67	H	0.424543	0.406428	0.889836
	H68	H	0.604587	0.105830	0.409718
	H69	H	0.602941	0.883968	0.583179
	H70	H	0.425982	0.102385	0.588138
	H71	H	0.423050	0.877404	0.408090
	H72	H	0.927041	0.605166	0.096681
	H73	H	0.096556	0.382959	0.092091
	H74	H	0.105156	0.604893	0.911619
	H75	H	0.921576	0.380663	0.914354
	H76	H	0.101594	0.900324	0.615303
	H77	H	0.106569	0.076082	0.390994
	H78	H	0.926054	0.084298	0.615500
	H79	H	0.919357	0.910130	0.388952
	H80	H	0.628533	0.080791	0.907142
	H81	H	0.398003	0.083452	0.100103
	H82	H	0.627529	0.901229	0.091104
	H83	H	0.404243	0.906083	0.917190
	H84	H	0.625037	0.904139	0.088385
	H85	H	0.399887	0.090602	0.088096
	H86	H	0.627228	0.087076	0.917722
	H87	H	0.402208	0.906661	0.911383
	H88	H	0.923996	0.079153	0.613637
	H89	H	0.096350	0.081101	0.393242
	H90	H	0.104476	0.906720	0.613794
	H91	H	0.933727	0.902718	0.392491
	H92	H	0.100173	0.603102	0.911582
	H93	H	0.103422	0.383120	0.082579
	H94	H	0.927110	0.602685	0.087719
	H95	H	0.926279	0.378842	0.907494
	H96	H	0.425753	0.102903	0.590643
	H97	H	0.609887	0.878383	0.592905
	H98	H	0.601439	0.104158	0.411991
	H99	H	0.430394	0.882315	0.410867
	H100	H	0.603928	0.405292	0.114041
	H101	H	0.596756	0.581324	0.891488
	H102	H	0.428640	0.579006	0.111081
	H103	H	0.429755	0.403029	0.890813
	H104	H	0.131214	0.586916	0.409117
	H105	H	0.901812	0.586444	0.589163
	H106	H	0.125507	0.405956	0.589184
	H107	H	0.903560	0.403296	0.415234
	H108	H	0.919286	0.604792	0.092111
	H109	H	0.107561	0.378919	0.092931
	H110	H	0.103014	0.602434	0.915577
	H111	H	0.929545	0.382215	0.914346
	H112	H	0.097821	0.905359	0.612191
	H113	H	0.104754	0.087225	0.388518
	H114	H	0.929218	0.080583	0.611980
	H115	H	0.921537	0.894475	0.384463
	H116	H	0.622322	0.075304	0.916488
	H117	H	0.404265	0.076843	0.089199
	H118	H	0.626182	0.905053	0.093005
	H119	H	0.401212	0.900899	0.913906
	C120	C	0.392891	-0.000199	0.623144
	C121	C	0.635757	0.984146	0.623548
	C122	C	0.635519	0.001517	0.380520
	C123	C	0.392605	0.983368	0.380402
	C124	C	0.636060	0.370218	0.011180
	C125	C	0.634914	0.613241	0.993926
	C126	C	0.393042	0.613809	0.009790
	C127	C	0.393221	0.371439	0.993152
	C128	C	0.023229	0.613486	0.381170
	C129	C	1.006092	0.614691	0.623485
	C130	C	0.022765	0.372582	0.622105
	C131	C	1.005962	0.371337	0.380663
	C132	C	0.893200	0.500372	0.123505
	C133	C	0.135386	0.484709	0.122200
	C134	C	0.136179	0.500972	0.879344
	C135	C	0.893618	0.483963	0.880756
	C136	C	0.134681	0.871757	0.510415
	C137	C	0.135657	0.114166	0.493934
	C138	C	0.893276	0.114033	0.510888
	C139	C	0.892856	0.871274	0.492554
	C140	C	0.522467	0.113402	0.881182
	C141	C	0.505036	0.114374	0.123876
	C142	C	0.522225	0.871564	0.123099
	C143	C	0.505958	0.872107	0.881319
	C144	C	0.387885	0.883995	0.685682
	C145	C	0.638300	0.101301	0.684768
	C146	C	0.637969	0.883700	0.320405
	C147	C	0.389765	0.100977	0.320995
	C148	C	0.693902	0.370097	0.891802
	C149	C	0.694592	0.615097	0.111661
	C150	C	0.332717	0.616062	0.892026
	C151	C	0.332542	0.369932	0.110668
	C152	C	0.904876	0.672977	0.379404
	C153	C	0.123682	0.675459	0.626774
	C154	C	0.905509	0.310977	0.626361
	C155	C	0.123694	0.310839	0.377833
	C156	C	0.905263	0.369247	0.683545
	C157	C	0.123523	0.618223	0.684854
	C158	C	0.904992	0.615253	0.321592
	C159	C	0.123783	0.368732	0.320197
	C160	C	0.390196	0.674268	0.892316
	C161	C	0.637576	0.673752	0.111194
	C162	C	0.636405	0.311869	0.892136
	C163	C	0.390555	0.312274	0.111201
	C164	C	0.695980	0.883996	0.378357
	C165	C	0.696068	0.101645	0.626580
	C166	C	0.330470	0.883519	0.627233
	C167	C	0.331723	0.100561	0.378609
	C168	C	0.891907	0.382370	0.182611
	C169	C	0.138463	0.601676	0.183918
	C170	C	0.138867	0.383376	0.818739
	C171	C	0.891643	0.602125	0.821965
	C172	C	0.194670	0.869808	0.392481
	C173	C	0.196897	0.117469	0.611357
	C174	C	0.833216	0.115982	0.392951
	C175	C	0.834068	0.871041	0.611015
	C176	C	0.404781	0.174205	0.878401
	C177	C	0.624743	0.171464	0.123994
	C178	C	0.404089	0.811717	0.125400
	C179	C	0.623574	0.811257	0.878102
	C180	C	0.403451	0.870718	0.182004
	C181	C	0.624307	0.114189	0.182037
	C182	C	0.405050	0.116745	0.820055
	C183	C	0.623774	0.869380	0.820938
	C184	C	0.890595	0.174241	0.393220
	C185	C	0.138981	0.175377	0.611331
	C186	C	0.137504	0.811430	0.392491
	C187	C	0.890853	0.812156	0.610540
	C188	C	0.196581	0.383401	0.876898
	C189	C	0.196277	0.601786	0.125879
	C190	C	0.833915	0.382300	0.124671
	C191	C	0.833288	0.601608	0.879542
	C192	C	0.419068	0.080977	0.597064
	C193	C	0.610591	0.902588	0.597707
	C194	C	0.610610	0.083622	0.405143
	C195	C	0.418136	0.901546	0.405024
	C196	C	0.612027	0.394254	0.093962
	C197	C	0.609887	0.588161	0.911499
	C198	C	0.418501	0.588518	0.091476
	C199	C	0.418943	0.396225	0.911120
	C200	C	0.105711	0.588711	0.406021
	C201	C	0.923837	0.589499	0.598291
	C202	C	0.104458	0.398425	0.595969
	C203	C	0.923696	0.396323	0.405813
	C204	C	0.917500	0.582708	0.099322
	C205	C	0.109787	0.403110	0.096576
	C206	C	0.110163	0.582285	0.905321
	C207	C	0.918721	0.402062	0.905256
	C208	C	0.108997	0.897064	0.592320
	C209	C	0.109998	0.088780	0.412304
	C210	C	0.919101	0.088632	0.592477
	C211	C	0.917832	0.895495	0.410181
	C212	C	0.604596	0.088244	0.906647
	C213	C	0.422396	0.090600	0.099511
	C214	C	0.604769	0.896272	0.098001
	C215	C	0.423917	0.897287	0.906871
	Zn216	Zn	0.513835	-0.007929	0.752072
	Zn217	Zn	0.514228	-0.007550	0.251737
	Zn218	Zn	0.764327	0.491784	0.001820
	Zn219	Zn	0.264412	0.492781	0.001440
	Zn220	Zn	0.014370	0.742724	0.502014
	Zn221	Zn	0.014384	0.242836	0.502215
	Zn222	Zn	0.014231	0.493030	0.750882
	Zn223	Zn	0.014772	0.492179	0.252114
	Zn224	Zn	0.514040	0.742517	0.001675
	Zn225	Zn	0.514462	0.242304	0.002463
	Zn226	Zn	0.764623	-0.006904	0.501824
	Zn227	Zn	0.263627	-0.008041	0.502541
	N228	N	0.426245	0.957184	0.682972
	N229	N	0.601411	0.027219	0.682937
	N230	N	0.601187	0.957908	0.321374
	N231	N	0.426933	0.027018	0.321887
	N232	N	0.694134	0.405394	0.966998
	N233	N	0.693280	0.578149	0.037435
	N234	N	0.334383	0.579129	0.966037
	N235	N	0.334060	0.405934	0.036292
	N236	N	0.979698	0.672140	0.415597
	N237	N	0.049521	0.673669	0.589439
	N238	N	0.979706	0.312764	0.588982
	N239	N	0.049370	0.312253	0.414762
	N240	N	0.979134	0.406757	0.680945
	N241	N	0.049292	0.581228	0.683034
	N242	N	0.979700	0.579176	0.322348
	N243	N	0.049457	0.405641	0.321846
	N244	N	0.426747	0.673366	0.966716
	N245	N	0.601277	0.672673	0.036841
	N246	N	0.601482	0.311721	0.967296
	N247	N	0.427732	0.313041	0.037051
	N248	N	0.694477	0.958211	0.415078
	N249	N	0.694777	0.027867	0.589321
	N250	N	0.333502	0.956703	0.589089
	N251	N	0.333205	0.026374	0.414812
	N252	N	0.927845	0.456884	0.182089
	N253	N	0.101153	0.527798	0.181901
	N254	N	0.102096	0.457606	0.820055
	N255	N	0.928340	0.528067	0.822599
	N256	N	0.193017	0.906503	0.466834
	N257	N	0.195160	0.080140	0.537240
	N258	N	0.834513	0.079550	0.467141
	N259	N	0.835154	0.906923	0.536542
	N260	N	0.478793	0.172284	0.915708
	N261	N	0.549517	0.171953	0.088803
	N262	N	0.479105	0.811940	0.089567
	N263	N	0.549167	0.812576	0.914987
	N264	N	0.478143	0.906979	0.180859
	N265	N	0.548810	0.079530	0.182348
	N266	N	0.479278	0.079673	0.821701
	N267	N	0.549555	0.906211	0.822668
	N268	N	0.927000	0.173381	0.467599
	N269	N	0.101702	0.173472	0.537349
	N270	N	0.101203	0.812076	0.467181
	N271	N	0.926772	0.812286	0.535825
	N272	N	0.195210	0.457611	0.913722
	N273	N	0.194089	0.528231	0.087961
	N274	N	0.834289	0.456786	0.088798
	N275	N	0.834064	0.526958	0.915151
	O276	O	0.232327	0.770885	-0.026225
	H277	H	0.224902	0.789568	-0.050918
	H278	H	0.261899	0.738914	-0.032688
	O279	O	0.531404	0.324094	0.285475
	H280	H	0.518805	0.308138	0.281945
	H281	H	0.516650	0.312218	0.287148
	O282	O	1.224711	0.026989	1.217320
	H283	H	1.218097	0.038448	1.217187
	H284	H	1.240521	0.019868	1.240124
	O285	O	0.290232	0.462489	0.722880
	H286	H	0.273041	0.452637	0.733057
	H287	H	0.284984	0.440453	0.734457
	O288	O	0.960483	-0.204130	0.963839
	H289	H	0.959881	-0.209537	0.980674
	H290	H	0.966589	-0.199164	0.974850
	O291	O	0.792089	0.217270	0.963982
	H292	H	0.780919	0.221247	0.951580
	H293	H	0.774421	0.235415	0.942319
	O294	O	0.626544	-0.377619	0.678093
	H295	H	0.632663	-0.357965	0.647229
	H296	H	0.637853	-0.362951	0.698586
	O297	O	-0.218010	0.759735	0.762563
	H298	H	-0.220747	0.766926	0.766731
	H299	H	-0.201317	0.772944	0.773501
	O300	O	0.221297	0.206913	1.028010
	H301	H	0.211119	0.212949	1.015456
	H302	H	0.229320	0.210212	1.027223
	O303	O	0.618644	0.474474	0.473137
	H304	H	0.625895	0.470728	0.464932
	H305	H	0.616379	0.472830	0.481552
	O306	O	0.304556	0.668287	0.293680
	H307	H	0.287468	0.670649	0.278009
	H308	H	0.289513	0.669219	0.320415
	O309	O	0.458162	0.449035	0.521203
	H310	H	0.468812	0.447773	0.530809
	H311	H	0.465304	0.458960	0.515637
	O312	O	0.468795	0.517756	0.691129
	H313	H	0.464249	0.522463	0.685530
	H314	H	0.451294	0.514526	0.691949
	O315	O	1.238051	1.766659	1.778484
	H316	H	1.221876	1.762899	1.785105
	H317	H	1.234970	1.792533	1.769942
	O318	O	0.721220	0.449300	0.299540
	H319	H	0.741887	0.448179	0.278746
	H320	H	0.707292	0.437233	0.297726
	O321	O	0.299252	0.275188	0.531545
	H322	H	0.297607	0.263690	0.545070
	H323	H	0.287809	0.264644	0.532213
	O324	O	0.796907	0.774171	0.042823
	H325	H	0.807106	0.784252	0.081641
	H326	H	0.767140	0.744314	0.047201
	O327	O	0.028303	0.112045	0.779265
	H328	H	0.022064	0.139125	0.768742
	H329	H	0.020791	0.110732	0.778132
	O330	O	0.691088	0.680717	0.323344
	H331	H	0.672703	0.657835	0.331249
	H332	H	0.667136	0.678870	0.348576
	O333	O	0.739734	0.547669	0.444047
	H334	H	0.739878	0.542197	0.438374
	H335	H	0.739302	0.540921	0.437748
	O336	O	0.445131	0.686010	0.310287
	H337	H	0.426341	0.679414	0.302614
	H338	H	0.423949	0.699057	0.305292
	O339	O	1.011216	-0.189676	1.155563
	H340	H	1.006552	-0.211299	1.176232
	H341	H	0.997348	-0.191550	1.144496
	O342	O	0.131135	-0.062761	0.160235
	H343	H	0.118324	-0.068035	0.159550
	H344	H	0.129762	-0.061172	0.168273
	O345	O	-0.432134	1.459259	1.717626
	H346	H	-0.442239	1.474121	1.723732
	H347	H	-0.430522	1.472979	1.723078
	O348	O	-0.007592	0.113511	0.116961
	H349	H	-0.026098	0.116745	0.114794
	H350	H	0.006445	0.108794	0.125617
	O351	O	0.663680	0.320112	0.302654
	H352	H	0.650470	0.341142	0.306675
	H353	H	0.678646	0.298968	0.274810
	O354	O	0.448067	0.332475	1.676486
	H355	H	0.461918	0.337915	1.675506
	H356	H	0.462450	0.321822	1.665407
	O357	O	-0.000121	0.025733	-0.002188
	H358	H	0.004577	0.027067	-0.005612
	H359	H	0.015129	0.020469	-0.007557
	O360	O	0.017300	-0.163060	1.091815
	H361	H	0.020136	-0.168450	1.083181
	H362	H	0.019200	-0.164373	1.096577
	O363	O	-0.169093	0.160852	0.183594
	H364	H	-0.127128	0.153172	0.184578
	H365	H	-0.171405	0.139311	0.149653
	O366	O	0.818837	0.193175	0.800743
	H367	H	0.785540	0.215845	0.777784
	H368	H	0.811645	0.144380	0.798730
	O369	O	1.210274	0.151744	-0.160442
	H370	H	1.206572	0.154996	-0.146821
	H371	H	1.200053	0.147333	-0.145561
	O372	O	0.900736	0.865494	-0.190994
	H373	H	0.915105	0.871114	-0.176220
	H374	H	0.917597	0.858722	-0.194911
	O375	O	0.907602	0.133140	0.096210
	H376	H	0.898365	0.120670	0.081247
	H377	H	0.906805	0.147456	0.096303
	O378	O	-0.196302	1.019338	-0.178923
	H379	H	-0.189839	0.994560	-0.177105
	H380	H	-0.199976	1.004585	-0.187510
	O381	O	-0.193761	0.949931	1.202052
	H382	H	-0.179752	0.973937	1.209046
	H383	H	-0.208380	0.952869	1.203934
	O384	O	0.729019	0.707541	0.536867
	H385	H	0.741581	0.713576	0.524363
	H386	H	0.722417	0.717632	0.525827
	O387	O	0.721304	0.411694	-0.441151
	H388	H	0.720079	0.417504	-0.458342
	H389	H	0.724811	0.411763	-0.446577
	O390	O	0.544415	0.709966	0.716335
	H391	H	0.553930	0.724849	0.736461
	H392	H	0.572960	0.701164	0.719630
	O393	O	0.574686	0.718347	0.443144
	H394	H	0.561420	0.721527	0.439729
	H395	H	0.548351	0.720404	0.454516
	O396	O	0.057215	1.119194	1.127396
	H397	H	0.072975	1.135816	1.144803
	H398	H	0.080615	1.124283	1.114430
	O399	O	0.239335	0.025853	0.967653
	H400	H	0.247737	0.021696	0.964368
	H401	H	0.229194	0.026986	0.968351
	O402	O	0.287034	0.560831	0.520249
	H403	H	0.285786	0.544261	0.536078
	H404	H	0.295659	0.538345	0.507917
	O405	O	1.205297	-0.132092	0.979744
	H406	H	1.183732	-0.113818	0.979938
	H407	H	1.219751	-0.143172	0.962144
	O408	O	-0.009987	0.055178	-0.044653
	H409	H	-0.005535	0.057389	-0.053983
	H410	H	-0.001046	0.055541	-0.036124
	O411	O	0.399994	0.438697	0.310825
	H412	H	0.400731	0.447258	0.325879
	H413	H	0.401259	0.454338	0.299538
	O414	O	1.221619	0.203356	0.211084
	H415	H	1.221417	0.200924	0.175163
	H416	H	1.248811	0.216947	0.237861
	O417	O	0.221287	0.966460	0.792994
	H418	H	0.218794	0.965161	0.789408
	H419	H	0.234288	0.970877	0.784016
	O420	O	0.312842	0.289534	0.703596
	H421	H	0.341740	0.285254	0.684357
	H422	H	0.321138	0.287525	0.723007
	O423	O	0.302906	0.706511	0.465908
	H424	H	0.289544	0.719573	0.483444
	H425	H	0.303511	0.692263	0.478835
	O426	O	0.549843	0.304255	0.587006
	H427	H	0.564062	0.289113	0.574111
	H428	H	0.553581	0.324774	0.566958
	O429	O	1.593890	1.387083	0.298308
	H430	H	1.572805	1.378019	0.284267
	H431	H	1.608150	1.373758	0.290451
	O432	O	0.730689	0.521613	0.718290
	H433	H	0.739997	0.536800	0.724439
	H434	H	0.745269	0.529205	0.724354
	O435	O	0.147015	0.796710	0.132552
	H436	H	0.141877	0.796538	0.120665
	H437	H	0.141091	0.813981	0.132868
	O438	O	-0.099242	-0.053229	0.132711
	H439	H	-0.093601	-0.061997	0.133735
	H440	H	-0.115142	-0.045615	0.127712
	O441	O	0.007414	0.078721	0.178086
	H442	H	0.022253	0.073603	0.168068
	H443	H	0.018852	0.099473	0.192563
	O444	O	0.002985	-0.073424	-0.142320
	H445	H	0.013164	-0.050545	-0.138094
	H446	H	0.006639	-0.082521	-0.137374
	O447	O	0.027140	1.157131	0.791484
	H448	H	0.020857	1.176836	0.791806
	H449	H	-0.001764	1.167490	0.789166
	O450	O	-0.198657	0.915574	0.956300
	H451	H	-0.189905	0.906227	0.964421
	H452	H	-0.198283	0.895985	0.968704
	O453	O	0.461171	0.731451	0.561257
	H454	H	0.461137	0.742964	0.593652
	H455	H	0.457388	0.723904	0.572349
	O456	O	0.036168	0.222032	0.977608
	H457	H	0.013781	0.231137	0.964279
	H458	H	0.022184	0.217963	0.975084
	O459	O	0.539548	0.563085	0.334614
	H460	H	0.537348	0.571871	0.318926
	H461	H	0.529214	0.570380	0.342991
	O462	O	0.469210	0.261044	0.466349
	H463	H	0.468737	0.269173	0.480466
	H464	H	0.483569	0.266115	0.472926
	O465	O	0.733963	0.278398	0.473857
	H466	H	0.762705	0.258228	0.464394
	H467	H	0.735364	0.288661	0.444581
	O468	O	0.035481	0.809019	-0.204310
	H469	H	0.026830	0.790560	-0.216688
	H470	H	0.029313	0.812914	-0.188430
	O471	O	0.398797	0.527134	0.282685
	H472	H	0.406346	0.539167	0.286321
	H473	H	0.390667	0.553285	0.272545
	O474	O	-0.300593	1.308948	-0.311940
	H475	H	-0.316887	1.323750	-0.331524
	H476	H	-0.318640	1.330311	-0.327041
	O477	O	0.354810	1.294787	1.332264
	H478	H	0.352732	1.329200	1.338711
	H479	H	0.379724	1.290728	1.360727
	O480	O	0.377128	0.634507	0.612128
	H481	H	0.365257	0.642539	0.622826
	H482	H	0.381139	0.624439	0.600960
	O483	O	0.322055	0.425468	0.483610
	H484	H	0.323001	0.407602	0.496560
	H485	H	0.335720	0.423746	0.483471
	O486	O	1.529505	-0.483776	0.542381
	H487	H	1.541974	-0.483049	0.533281
	H488	H	1.534621	-0.484187	0.542062
	O489	O	0.801433	0.775643	0.216538
	H490	H	0.772275	0.751640	0.244421
	H491	H	0.808606	0.810184	0.224228
