data_Molecule from HDF5

_cell_length_a		16.101309
_cell_length_b		16.067432
_cell_length_c		16.409037
_cell_angle_alpha	89.876930
_cell_angle_beta	90.366776
_cell_angle_gamma	90.060858
_symmetry_space_group_name_H-M	'P 1'
_symmetry_Int_Tables_number		1

loop_
	_symmetry_equiv_pos_as_xyz
	x,y,z

loop_
	_atom_site_label
	_atom_site_type_symbol
	_atom_site_fract_x
	_atom_site_fract_y
	_atom_site_fract_z
	H0	H	0.394989	0.831957	0.709564
	H1	H	0.599282	0.160402	0.710479
	H2	H	0.596683	0.830853	0.279860
	H3	H	0.393823	0.160226	0.276738
	H4	H	0.709460	0.398692	0.831797
	H5	H	0.711926	0.594352	0.158083
	H6	H	0.277557	0.596246	0.833671
	H7	H	0.282103	0.396035	0.158159
	H8	H	0.830167	0.708470	0.397697
	H9	H	0.162571	0.706376	0.591188
	H10	H	0.830229	0.283808	0.590007
	H11	H	0.163216	0.287504	0.401609
	H12	H	0.830641	0.394673	0.709147
	H13	H	0.158672	0.600229	0.713809
	H14	H	0.831366	0.598889	0.278489
	H15	H	0.159168	0.394462	0.278671
	H16	H	0.395530	0.710636	0.832096
	H17	H	0.595056	0.710623	0.157676
	H18	H	0.592533	0.282627	0.831391
	H19	H	0.399945	0.280138	0.157583
	H20	H	0.706971	0.829609	0.399448
	H21	H	0.709299	0.162589	0.590778
	H22	H	0.286692	0.829299	0.589157
	H23	H	0.285013	0.162375	0.397146
	H24	H	0.893516	0.332692	0.211041
	H25	H	0.097011	0.661138	0.210898
	H26	H	0.097448	0.333077	0.778653
	H27	H	0.892236	0.661190	0.778247
	H28	H	0.209674	0.898832	0.331082
	H29	H	0.213842	0.093688	0.657612
	H30	H	0.779754	0.096890	0.331926
	H31	H	0.782630	0.896964	0.657342
	H32	H	0.329549	0.207075	0.896902
	H33	H	0.662599	0.205653	0.089556
	H34	H	0.329547	0.784271	0.089177
	H35	H	0.662407	0.784863	0.901094
	H36	H	0.331780	0.893327	0.209356
	H37	H	0.660481	0.097317	0.210051
	H38	H	0.332187	0.097464	0.777043
	H39	H	0.660678	0.894984	0.779579
	H40	H	0.897930	0.211466	0.331846
	H41	H	0.097607	0.210928	0.658139
	H42	H	0.094189	0.781371	0.330977
	H43	H	0.900934	0.781688	0.657812
	H44	H	0.205765	0.330176	0.899776
	H45	H	0.210110	0.661806	0.093598
	H46	H	0.786440	0.329414	0.089944
	H47	H	0.783472	0.662583	0.898331
	H48	H	0.400339	0.116087	0.584525
	H49	H	0.591676	0.874292	0.595406
	H50	H	0.589463	0.115310	0.400169
	H51	H	0.410058	0.879092	0.399045
	H52	H	0.579332	0.408507	0.106199
	H53	H	0.591325	0.594332	0.877054
	H54	H	0.402663	0.587215	0.110852
	H55	H	0.397729	0.408905	0.880097
	H56	H	0.115564	0.579886	0.388236
	H57	H	0.880256	0.587019	0.577737
	H58	H	0.113109	0.406666	0.586577
	H59	H	0.879794	0.405847	0.409068
	H60	H	0.113197	0.409022	0.591841
	H61	H	0.878023	0.580360	0.593880
	H62	H	0.117630	0.602053	0.402609
	H63	H	0.877056	0.411204	0.394477
	H64	H	0.404550	0.589001	0.110835
	H65	H	0.592017	0.585247	0.880131
	H66	H	0.589037	0.386131	0.114852
	H67	H	0.406542	0.400848	0.879801
	H68	H	0.584092	0.113961	0.398214
	H69	H	0.580332	0.880047	0.588274
	H70	H	0.408160	0.116400	0.592286
	H71	H	0.401492	0.877015	0.405001
	H72	H	0.904730	0.613574	0.082064
	H73	H	0.085426	0.380025	0.083498
	H74	H	0.077867	0.613726	0.897710
	H75	H	0.909508	0.378424	0.897261
	H76	H	0.098934	0.898290	0.613122
	H77	H	0.091328	0.093727	0.378099
	H78	H	0.910145	0.091127	0.609771
	H79	H	0.891706	0.896112	0.374022
	H80	H	0.620174	0.091869	0.886122
	H81	H	0.379803	0.083010	0.081812
	H82	H	0.612600	0.902916	0.083194
	H83	H	0.379100	0.905937	0.902502
	H84	H	0.613941	0.908759	0.091184
	H85	H	0.376932	0.084346	0.092646
	H86	H	0.614887	0.098861	0.911270
	H87	H	0.377893	0.907679	0.896659
	H88	H	0.899636	0.092876	0.612629
	H89	H	0.092487	0.089271	0.378492
	H90	H	0.093179	0.908521	0.608713
	H91	H	0.900221	0.914988	0.382174
	H92	H	0.083936	0.611829	0.910730
	H93	H	0.091853	0.375852	0.091566
	H94	H	0.898555	0.618202	0.090404
	H95	H	0.900291	0.378305	0.906726
	H96	H	0.409727	0.112461	0.582238
	H97	H	0.593693	0.878341	0.581221
	H98	H	0.585126	0.113354	0.403380
	H99	H	0.401063	0.875107	0.394429
	H100	H	0.604289	0.406629	0.112587
	H101	H	0.583430	0.590979	0.879935
	H102	H	0.401735	0.589983	0.111826
	H103	H	0.395223	0.397834	0.875958
	H104	H	0.109228	0.579609	0.413190
	H105	H	0.873448	0.596708	0.591002
	H106	H	0.114881	0.403098	0.591562
	H107	H	0.874608	0.396477	0.397641
	H108	H	0.908688	0.615480	0.092488
	H109	H	0.081407	0.378480	0.092878
	H110	H	0.091910	0.618377	0.899194
	H111	H	0.897160	0.374550	0.895397
	H112	H	0.086482	0.897977	0.609008
	H113	H	0.088075	0.090977	0.379933
	H114	H	0.902976	0.083162	0.608644
	H115	H	0.913292	0.897102	0.379680
	H116	H	0.609769	0.073979	0.903696
	H117	H	0.376505	0.092280	0.086062
	H118	H	0.616469	0.900043	0.092428
	H119	H	0.376451	0.901250	0.898748
	C120	C	0.376697	0.005472	0.614427
	C121	C	0.618028	0.987146	0.616338
	C122	C	0.616199	0.004758	0.373123
	C123	C	0.374803	0.986760	0.371241
	C124	C	0.618090	0.373457	0.003063
	C125	C	0.618306	0.618158	0.986620
	C126	C	0.373232	0.617953	0.003617
	C127	C	0.372605	0.372932	0.986394
	C128	C	0.004905	0.617407	0.372885
	C129	C	0.986531	0.617393	0.616378
	C130	C	0.004704	0.375707	0.617428
	C131	C	0.986968	0.375798	0.373211
	C132	C	0.875095	0.505880	0.115939
	C133	C	0.116301	0.487272	0.117400
	C134	C	0.114577	0.505579	0.874533
	C135	C	0.873665	0.487161	0.872189
	C136	C	0.120015	0.873354	0.502494
	C137	C	0.120246	0.119085	0.486445
	C138	C	0.874757	0.118706	0.503061
	C139	C	0.874357	0.873969	0.486327
	C140	C	0.505264	0.117397	0.871707
	C141	C	0.487116	0.116021	0.115184
	C142	C	0.504943	0.874334	0.116376
	C143	C	0.487308	0.875300	0.872463
	C144	C	0.376567	0.880814	0.670436
	C145	C	0.617848	0.111489	0.671837
	C146	C	0.615821	0.880299	0.318078
	C147	C	0.375101	0.111071	0.315553
	C148	C	0.671851	0.377630	0.880356
	C149	C	0.673660	0.614958	0.109371
	C150	C	0.316507	0.616233	0.881663
	C151	C	0.318792	0.375202	0.109136
	C152	C	0.880027	0.672234	0.376334
	C153	C	0.112232	0.670814	0.613029
	C154	C	0.880002	0.320089	0.612591
	C155	C	0.112721	0.322666	0.378828
	C156	C	0.880128	0.375470	0.671575
	C157	C	0.110401	0.617664	0.673700
	C158	C	0.880551	0.617609	0.317131
	C159	C	0.110714	0.376386	0.317993
	C160	C	0.374983	0.673255	0.881071
	C161	C	0.615602	0.672836	0.109265
	C162	C	0.613554	0.320200	0.880044
	C163	C	0.377265	0.317435	0.108759
	C164	C	0.670525	0.879442	0.377658
	C165	C	0.672628	0.112569	0.612522
	C166	C	0.322782	0.879419	0.610534
	C167	C	0.320859	0.112337	0.375330
	C168	C	0.875101	0.381517	0.171804
	C169	C	0.116157	0.612107	0.172692
	C170	C	0.115239	0.381675	0.818095
	C171	C	0.873611	0.611829	0.816633
	C172	C	0.172922	0.877184	0.379700
	C173	C	0.175916	0.114933	0.609002
	C174	C	0.818303	0.116959	0.380678
	C175	C	0.820623	0.876674	0.608885
	C176	C	0.379910	0.170946	0.875505
	C177	C	0.612572	0.169805	0.111265
	C178	C	0.379542	0.820492	0.111584
	C179	C	0.612551	0.821381	0.878514
	C180	C	0.380855	0.874808	0.171105
	C181	C	0.611352	0.115993	0.171419
	C182	C	0.381371	0.116909	0.815433
	C183	C	0.611733	0.876097	0.818268
	C184	C	0.877027	0.174126	0.380592
	C185	C	0.118093	0.173293	0.609289
	C186	C	0.115488	0.818735	0.379838
	C187	C	0.879066	0.819128	0.608976
	C188	C	0.169537	0.380349	0.878137
	C189	C	0.172290	0.612326	0.114634
	C190	C	0.821499	0.380034	0.112053
	C191	C	0.819502	0.612649	0.876289
	C192	C	0.399322	0.092410	0.592914
	C193	C	0.595365	0.900064	0.594639
	C194	C	0.593067	0.091738	0.394444
	C195	C	0.397356	0.899675	0.392983
	C196	C	0.597096	0.394494	0.088911
	C197	C	0.595662	0.596518	0.901132
	C198	C	0.396231	0.595341	0.089038
	C199	C	0.393685	0.395763	0.900785
	C200	C	0.091713	0.594004	0.394819
	C201	C	0.899864	0.594754	0.594017
	C202	C	0.091221	0.399311	0.596322
	C203	C	0.899861	0.397840	0.394339
	C204	C	0.897290	0.593103	0.094472
	C205	C	0.093181	0.400647	0.095949
	C206	C	0.091500	0.592224	0.896232
	C207	C	0.895810	0.399865	0.893450
	C208	C	0.099189	0.895030	0.588143
	C209	C	0.097339	0.097660	0.400817
	C210	C	0.897586	0.095838	0.588316
	C211	C	0.895412	0.896212	0.400499
	C212	C	0.592499	0.095005	0.893765
	C213	C	0.400146	0.093195	0.093183
	C214	C	0.591919	0.897172	0.095279
	C215	C	0.400102	0.898308	0.893118
	Zn216	Zn	0.496474	-0.004038	0.743707
	Zn217	Zn	0.496083	-0.004357	0.243776
	Zn218	Zn	0.748005	0.496103	-0.004907
	Zn219	Zn	0.243246	0.496401	-0.004323
	Zn220	Zn	-0.003373	0.744144	0.494521
	Zn221	Zn	-0.003284	0.248275	0.495191
	Zn222	Zn	-0.005157	0.497347	0.744868
	Zn223	Zn	-0.004950	0.496979	0.244586
	Zn224	Zn	0.495410	0.747384	-0.005125
	Zn225	Zn	0.495996	0.243669	-0.005767
	Zn226	Zn	0.744568	-0.003535	0.494304
	Zn227	Zn	0.249329	-0.004275	0.494085
	N228	N	0.409388	0.960010	0.673165
	N229	N	0.584569	0.032388	0.674374
	N230	N	0.582585	0.959194	0.315401
	N231	N	0.407709	0.031998	0.312730
	N232	N	0.674905	0.410058	0.957843
	N233	N	0.675413	0.581652	0.032154
	N234	N	0.315248	0.582616	0.958958
	N235	N	0.315661	0.408909	0.031838
	N236	N	0.958211	0.672074	0.410671
	N237	N	0.034493	0.670663	0.578008
	N238	N	0.958429	0.319942	0.579591
	N239	N	0.034706	0.322291	0.412626
	N240	N	0.958640	0.409055	0.675025
	N241	N	0.031215	0.585171	0.675960
	N242	N	0.959217	0.584317	0.314715
	N243	N	0.031513	0.408484	0.314428
	N244	N	0.409527	0.674356	0.957899
	N245	N	0.581905	0.674930	0.031995
	N246	N	0.580981	0.317406	0.957327
	N247	N	0.409832	0.315846	0.031451
	N248	N	0.670909	0.957881	0.411308
	N249	N	0.672735	0.034377	0.578710
	N250	N	0.322597	0.957709	0.576550
	N251	N	0.320511	0.033841	0.409159
	N252	N	0.907796	0.460547	0.174302
	N253	N	0.082203	0.533391	0.174784
	N254	N	0.081905	0.460522	0.815622
	N255	N	0.906538	0.532793	0.813911
	N256	N	0.175812	0.910360	0.456851
	N257	N	0.177220	0.081987	0.531646
	N258	N	0.816672	0.083248	0.457766
	N259	N	0.817532	0.910044	0.531522
	N260	N	0.458132	0.171311	0.909910
	N261	N	0.534209	0.170089	0.077068
	N262	N	0.457526	0.820305	0.078063
	N263	N	0.533954	0.820645	0.911294
	N264	N	0.459946	0.907406	0.174185
	N265	N	0.532431	0.083078	0.173845
	N266	N	0.460367	0.084285	0.812930
	N267	N	0.532769	0.908833	0.814591
	N268	N	0.911350	0.175476	0.457675
	N269	N	0.084024	0.176109	0.532108
	N270	N	0.083142	0.816262	0.457284
	N271	N	0.911672	0.817346	0.531646
	N272	N	0.169323	0.458234	0.912750
	N273	N	0.172524	0.534014	0.080980
	N274	N	0.821631	0.458333	0.077703
	N275	N	0.819228	0.534315	0.910183
	O276	O	1.021280	1.057239	-0.008069
	H277	H	1.024466	1.055156	-0.002333
	H278	H	1.014606	1.051112	-0.015111
	O279	O	0.046919	-0.049668	0.974920
	H280	H	0.054715	-0.039140	0.992037
	H281	H	0.048752	-0.049217	0.967923
	O282	O	0.063069	-0.000365	-0.029182
	H283	H	0.068506	0.006114	-0.031901
	H284	H	0.066043	0.002315	-0.017658
	O285	O	0.512895	0.454012	0.528179
	H286	H	0.501063	0.453695	0.525181
	H287	H	0.513688	0.448921	0.531838
	O288	O	0.014858	0.029373	-0.031978
	H289	H	0.018757	0.030609	-0.042441
	H290	H	0.021097	0.035993	-0.034132
	O291	O	0.041933	0.998901	0.013148
	H292	H	0.052459	1.006237	0.004297
	H293	H	0.047781	1.006576	0.020187
	O294	O	-0.042249	1.050507	-0.035416
	H295	H	-0.046937	1.047611	-0.037135
	H296	H	-0.041348	1.046273	-0.037349
	O297	O	0.504426	0.510169	0.479378
	H298	H	0.503211	0.498199	0.482942
	H299	H	0.516048	0.500889	0.487931
	O300	O	0.499856	0.535788	0.443027
	H301	H	0.500275	0.536108	0.448008
	H302	H	0.502645	0.548402	0.436956
	O303	O	1.045575	0.063070	1.073290
	H304	H	1.039557	0.056078	1.071289
	H305	H	1.040487	0.062932	1.077701
	O306	O	0.448225	1.434688	1.490740
	H307	H	0.435309	1.430903	1.492125
	H308	H	0.450079	1.437874	1.494918
	O309	O	-0.022298	1.040992	0.953971
	H310	H	-0.023459	1.039282	0.957151
	H311	H	-0.021106	1.037657	0.954919
	O312	O	0.041420	0.001457	1.050687
	H313	H	0.042213	0.005650	1.055268
	H314	H	0.041282	0.007191	1.058693
	O315	O	0.496133	0.454144	0.557121
	H316	H	0.494103	0.451781	0.553937
	H317	H	0.494649	0.454877	0.555368
	O318	O	0.433693	-0.479371	0.547429
	H319	H	0.427520	-0.471117	0.553099
	H320	H	0.438531	-0.473679	0.549749
	O321	O	0.482700	0.487596	0.471752
	H322	H	0.481069	0.492398	0.473750
	H323	H	0.471843	0.486108	0.475774
	O324	O	1.000717	0.023467	0.994290
	H325	H	0.999448	0.025494	0.990161
	H326	H	1.008732	0.024263	0.998976
	O327	O	0.998590	1.099100	0.921637
	H328	H	0.995883	1.104534	0.910204
	H329	H	0.989406	1.090178	0.927380
	O330	O	0.446035	0.466233	0.533560
	H331	H	0.448080	0.466472	0.540311
	H332	H	0.441954	0.474824	0.528530
	O333	O	0.465073	0.586320	0.458796
	H334	H	0.474116	0.585055	0.447452
	H335	H	0.466325	0.590593	0.462345
	O336	O	0.609286	0.473307	0.467800
	H337	H	0.608542	0.480798	0.462427
	H338	H	0.608021	0.459841	0.455758
	O339	O	0.528731	0.537414	0.555024
	H340	H	0.541039	0.533015	0.547858
	H341	H	0.531780	0.550474	0.556117
	O342	O	0.432491	0.482919	0.518263
	H343	H	0.427173	0.490643	0.510791
	H344	H	0.431816	0.475024	0.517857
	O345	O	0.558417	0.486506	0.487012
	H346	H	0.561407	0.476969	0.504282
	H347	H	0.559692	0.495734	0.487869
