data_Molecule from HDF5

_cell_length_a		16.514637
_cell_length_b		16.581645
_cell_length_c		16.478672
_cell_angle_alpha	89.919552
_cell_angle_beta	89.893894
_cell_angle_gamma	90.093060
_symmetry_space_group_name_H-M	'P 1'
_symmetry_Int_Tables_number		1

loop_
	_symmetry_equiv_pos_as_xyz
	x,y,z

loop_
	_atom_site_label
	_atom_site_type_symbol
	_atom_site_fract_x
	_atom_site_fract_y
	_atom_site_fract_z
	H0	H	0.401163	0.852613	0.724688
	H1	H	0.610421	0.166538	0.722212
	H2	H	0.610795	0.851793	0.282925
	H3	H	0.399599	0.164948	0.278627
	H4	H	0.726913	0.405385	0.845492
	H5	H	0.727809	0.614392	0.160417
	H6	H	0.288051	0.612206	0.843814
	H7	H	0.283383	0.404764	0.159965
	H8	H	0.851266	0.730405	0.396612
	H9	H	0.163572	0.730552	0.607614
	H10	H	0.850760	0.285803	0.610104
	H11	H	0.164164	0.287493	0.396534
	H12	H	0.849473	0.404112	0.723719
	H13	H	0.164097	0.612920	0.722420
	H14	H	0.849729	0.611438	0.283118
	H15	H	0.163879	0.404688	0.281370
	H16	H	0.401228	0.731726	0.846064
	H17	H	0.611136	0.729685	0.160826
	H18	H	0.608942	0.290660	0.844651
	H19	H	0.397922	0.286734	0.159686
	H20	H	0.727318	0.852565	0.398470
	H21	H	0.728924	0.165018	0.607890
	H22	H	0.282706	0.853161	0.609508
	H23	H	0.283716	0.166030	0.395569
	H24	H	0.899708	0.352449	0.225317
	H25	H	0.111407	0.665342	0.224080
	H26	H	0.110846	0.352511	0.781895
	H27	H	0.904731	0.666835	0.783674
	H28	H	0.226836	0.906538	0.344175
	H29	H	0.225981	0.112647	0.659104
	H30	H	0.786227	0.113581	0.343992
	H31	H	0.789314	0.907514	0.660627
	H32	H	0.347447	0.228921	0.899020
	H33	H	0.661720	0.233822	0.111412
	H34	H	0.348080	0.787483	0.109802
	H35	H	0.662998	0.789260	0.898928
	H36	H	0.348450	0.903932	0.225681
	H37	H	0.664133	0.114077	0.223167
	H38	H	0.348480	0.112157	0.782958
	H39	H	0.663829	0.906400	0.783383
	H40	H	0.900202	0.232003	0.344980
	H41	H	0.108969	0.228782	0.660031
	H42	H	0.113446	0.787322	0.345448
	H43	H	0.902913	0.788507	0.659460
	H44	H	0.228818	0.353509	0.896446
	H45	H	0.227824	0.666128	0.107973
	H46	H	0.782182	0.353877	0.110737
	H47	H	0.786777	0.666097	0.899767
	H48	H	0.418201	0.121327	0.594758
	H49	H	0.585902	0.899621	0.592691
	H50	H	0.599241	0.119806	0.421541
	H51	H	0.412427	0.896574	0.414395
	H52	H	0.593480	0.424753	0.114864
	H53	H	0.600615	0.597390	0.889772
	H54	H	0.417359	0.602221	0.116926
	H55	H	0.419039	0.423196	0.892791
	H56	H	0.120679	0.598999	0.412965
	H57	H	0.894552	0.596444	0.591930
	H58	H	0.119605	0.425878	0.597930
	H59	H	0.894465	0.416243	0.417304
	H60	H	0.122499	0.411345	0.591748
	H61	H	0.893039	0.599490	0.592988
	H62	H	0.119287	0.598006	0.414614
	H63	H	0.896455	0.423494	0.416448
	H64	H	0.412597	0.596991	0.117054
	H65	H	0.591793	0.597147	0.891992
	H66	H	0.590088	0.419174	0.114855
	H67	H	0.419426	0.415200	0.889207
	H68	H	0.601235	0.124744	0.407463
	H69	H	0.603384	0.897413	0.583025
	H70	H	0.418827	0.119726	0.589853
	H71	H	0.419288	0.897597	0.411450
	H72	H	0.919236	0.622938	0.101725
	H73	H	0.091138	0.401320	0.085391
	H74	H	0.097514	0.623896	0.905167
	H75	H	0.918557	0.397216	0.913406
	H76	H	0.093685	0.916275	0.615635
	H77	H	0.091233	0.103175	0.388233
	H78	H	0.919479	0.089026	0.610766
	H79	H	0.914738	0.924454	0.389455
	H80	H	0.618305	0.099406	0.912611
	H81	H	0.395691	0.095465	0.090447
	H82	H	0.615610	0.921560	0.086404
	H83	H	0.390968	0.914468	0.913297
	H84	H	0.619051	0.922712	0.097552
	H85	H	0.394124	0.097163	0.092349
	H86	H	0.618960	0.101600	0.913809
	H87	H	0.394884	0.921141	0.919119
	H88	H	0.926361	0.103808	0.612729
	H89	H	0.099805	0.097898	0.387051
	H90	H	0.098708	0.920265	0.616180
	H91	H	0.924042	0.919938	0.391088
	H92	H	0.090309	0.619062	0.914013
	H93	H	0.100581	0.396064	0.089390
	H94	H	0.925376	0.616340	0.086649
	H95	H	0.916172	0.396767	0.914906
	H96	H	0.414244	0.121584	0.590692
	H97	H	0.602592	0.892008	0.602713
	H98	H	0.588193	0.119133	0.411298
	H99	H	0.417606	0.900052	0.418684
	H100	H	0.595993	0.419345	0.116229
	H101	H	0.594730	0.604645	0.888345
	H102	H	0.419216	0.595967	0.113748
	H103	H	0.412161	0.420298	0.887892
	H104	H	0.119657	0.596969	0.412459
	H105	H	0.894773	0.599666	0.590024
	H106	H	0.115274	0.422320	0.583128
	H107	H	0.893341	0.419573	0.410914
	H108	H	0.909046	0.622634	0.087527
	H109	H	0.091353	0.396682	0.096509
	H110	H	0.102235	0.622096	0.916640
	H111	H	0.915852	0.395679	0.912045
	H112	H	0.093769	0.921907	0.613628
	H113	H	0.091768	0.093944	0.391936
	H114	H	0.910791	0.101489	0.617987
	H115	H	0.916167	0.914625	0.386135
	H116	H	0.618556	0.099656	0.914923
	H117	H	0.394393	0.098417	0.089188
	H118	H	0.620018	0.912513	0.092052
	H119	H	0.392264	0.923216	0.910308
	C120	C	0.384610	0.017659	0.624175
	C121	C	0.628519	1.000545	0.624495
	C122	C	0.628136	0.017652	0.381361
	C123	C	0.384668	1.001567	0.381290
	C124	C	0.626160	0.388957	0.011298
	C125	C	0.627296	0.630774	0.994441
	C126	C	0.385242	0.630133	0.011392
	C127	C	0.383738	0.387248	0.993905
	C128	C	0.015982	0.629724	0.381459
	C129	C	0.998147	0.630462	0.623426
	C130	C	0.015196	0.387723	0.623826
	C131	C	0.998536	0.387461	0.381564
	C132	C	0.884451	0.517581	0.124964
	C133	C	0.126929	0.501217	0.122838
	C134	C	0.128148	0.517770	0.880555
	C135	C	0.885627	0.500535	0.881751
	C136	C	0.127644	0.887862	0.511120
	C137	C	0.126472	0.129814	0.493705
	C138	C	0.885834	0.130599	0.510024
	C139	C	0.886321	0.888049	0.493213
	C140	C	0.514253	0.131170	0.881754
	C141	C	0.497776	0.130459	0.124071
	C142	C	0.514145	0.887060	0.124968
	C143	C	0.497044	0.888525	0.882422
	C144	C	0.382559	0.899475	0.684284
	C145	C	0.629440	0.118911	0.683276
	C146	C	0.629454	0.899292	0.322274
	C147	C	0.382031	0.118521	0.319647
	C148	C	0.686481	0.386952	0.892793
	C149	C	0.687257	0.632284	0.113047
	C150	C	0.326984	0.631337	0.891761
	C151	C	0.323405	0.385880	0.112652
	C152	C	0.898037	0.689876	0.378625
	C153	C	0.116288	0.690573	0.625796
	C154	C	0.897558	0.326740	0.627363
	C155	C	0.116914	0.327592	0.378637
	C156	C	0.896921	0.385364	0.684084
	C157	C	0.116647	0.632033	0.682994
	C158	C	0.897186	0.631019	0.322095
	C159	C	0.116831	0.385725	0.321131
	C160	C	0.383229	0.690710	0.892690
	C161	C	0.629285	0.689899	0.113366
	C162	C	0.627761	0.329939	0.892387
	C163	C	0.380512	0.327317	0.112526
	C164	C	0.687630	0.899601	0.379629
	C165	C	0.688548	0.118158	0.626224
	C166	C	0.323859	0.899825	0.626995
	C167	C	0.324205	0.118965	0.377867
	C168	C	0.881590	0.399811	0.185201
	C169	C	0.129794	0.618597	0.183840
	C170	C	0.130037	0.399882	0.821038
	C171	C	0.885298	0.619487	0.823135
	C172	C	0.187265	0.887250	0.391674
	C173	C	0.185948	0.131422	0.612325
	C174	C	0.826070	0.132053	0.391369
	C175	C	0.827781	0.887386	0.612648
	C176	C	0.395336	0.189630	0.880266
	C177	C	0.614859	0.192771	0.128432
	C178	C	0.395591	0.827404	0.127943
	C179	C	0.615687	0.829040	0.880338
	C180	C	0.395788	0.885613	0.185482
	C181	C	0.616303	0.132763	0.183886
	C182	C	0.395592	0.131604	0.822578
	C183	C	0.616181	0.887555	0.823135
	C184	C	0.882561	0.191283	0.391986
	C185	C	0.127817	0.188696	0.612638
	C186	C	0.130923	0.828096	0.392325
	C187	C	0.884710	0.828675	0.612374
	C188	C	0.188409	0.400285	0.878410
	C189	C	0.187780	0.618875	0.125902
	C190	C	0.822673	0.400556	0.128440
	C191	C	0.827021	0.619118	0.880933
	C192	C	0.409839	0.099531	0.599018
	C193	C	0.603981	0.917822	0.599892
	C194	C	0.603521	0.099931	0.406329
	C195	C	0.409543	0.919533	0.407377
	C196	C	0.600577	0.414011	0.093940
	C197	C	0.602630	0.606632	0.911610
	C198	C	0.409566	0.605591	0.094239
	C199	C	0.409561	0.412175	0.911357
	C200	C	0.098420	0.605152	0.406294
	C201	C	0.915507	0.605620	0.598708
	C202	C	0.097712	0.412804	0.598129
	C203	C	0.916196	0.412511	0.407396
	C204	C	0.910259	0.599346	0.099170
	C205	C	0.101589	0.419462	0.097557
	C206	C	0.103609	0.600231	0.905012
	C207	C	0.909824	0.418106	0.906278
	C208	C	0.102660	0.912237	0.593600
	C209	C	0.101629	0.105158	0.410617
	C210	C	0.911319	0.105364	0.592412
	C211	C	0.911124	0.912735	0.410677
	C212	C	0.597162	0.107213	0.906661
	C213	C	0.415986	0.104520	0.098145
	C214	C	0.596611	0.911809	0.099272
	C215	C	0.414318	0.912609	0.907040
	Zn216	Zn	0.506245	0.009404	0.753022
	Zn217	Zn	0.506759	0.009041	0.252898
	Zn218	Zn	0.755893	0.509334	0.002868
	Zn219	Zn	0.256504	0.509605	0.002519
	Zn220	Zn	0.007138	0.759104	0.501922
	Zn221	Zn	0.006702	0.259251	0.502334
	Zn222	Zn	0.006339	0.508753	0.751781
	Zn223	Zn	0.006709	0.508695	0.252861
	Zn224	Zn	0.505720	0.758953	0.003492
	Zn225	Zn	0.505556	0.259391	0.003056
	Zn226	Zn	0.757053	0.009026	0.502231
	Zn227	Zn	0.255481	0.009261	0.502743
	N228	N	0.419643	0.973576	0.682691
	N229	N	0.593064	0.044435	0.682360
	N230	N	0.593441	0.973827	0.322822
	N231	N	0.418791	0.044351	0.321831
	N232	N	0.685566	0.422971	0.967848
	N233	N	0.686182	0.596399	0.037954
	N234	N	0.328004	0.594838	0.966585
	N235	N	0.325210	0.422336	0.037686
	N236	N	0.972966	0.689365	0.414506
	N237	N	0.041514	0.689575	0.589364
	N238	N	0.972215	0.328043	0.590548
	N239	N	0.042190	0.328485	0.415337
	N240	N	0.971152	0.422736	0.681858
	N241	N	0.041994	0.595440	0.681735
	N242	N	0.971483	0.594116	0.323739
	N243	N	0.042215	0.422163	0.322880
	N244	N	0.418327	0.690429	0.968245
	N245	N	0.592678	0.689178	0.038564
	N246	N	0.591293	0.330753	0.967423
	N247	N	0.417165	0.328010	0.037663
	N248	N	0.687114	0.974215	0.415474
	N249	N	0.688141	0.043406	0.590520
	N250	N	0.325001	0.974192	0.590154
	N251	N	0.325611	0.045095	0.415579
	N252	N	0.919287	0.473729	0.183346
	N253	N	0.092821	0.544519	0.182241
	N254	N	0.093257	0.474062	0.822205
	N255	N	0.920800	0.544621	0.823310
	N256	N	0.185492	0.923760	0.466475
	N257	N	0.185103	0.095636	0.537233
	N258	N	0.827942	0.095047	0.465959
	N259	N	0.828605	0.923684	0.537747
	N260	N	0.470310	0.189582	0.916064
	N261	N	0.540058	0.191617	0.092142
	N262	N	0.470293	0.828151	0.091079
	N263	N	0.540603	0.829331	0.916519
	N264	N	0.470690	0.921772	0.183904
	N265	N	0.542228	0.094775	0.181605
	N266	N	0.470746	0.096120	0.823206
	N267	N	0.541387	0.923525	0.824078
	N268	N	0.918983	0.190495	0.466737
	N269	N	0.091855	0.187944	0.537596
	N270	N	0.094824	0.828201	0.467431
	N271	N	0.920289	0.828838	0.536994
	N272	N	0.187560	0.474850	0.914436
	N273	N	0.186155	0.544785	0.088660
	N274	N	0.824359	0.474934	0.091748
	N275	N	0.827024	0.544212	0.916469
	O276	O	1.219480	0.831065	-0.030076
	H277	H	1.240748	0.805266	-0.039712
	H278	H	1.210619	0.829442	-0.019358
	O279	O	0.002534	-0.201511	1.204970
	H280	H	0.020062	-0.190844	1.216480
	H281	H	0.016007	-0.205514	1.194525
	O282	O	0.714634	0.715484	0.709394
	H283	H	0.694259	0.732603	0.726309
	H284	H	0.707139	0.733893	0.711951
	O285	O	0.294928	0.300227	0.587118
	H286	H	0.270704	0.281269	0.582234
	H287	H	0.294088	0.326989	0.601961
	O288	O	1.082370	0.094802	1.125027
	H289	H	1.082023	0.088250	1.124775
	H290	H	1.075861	0.096776	1.127982
	O291	O	0.499841	0.668924	0.437215
	H292	H	0.500648	0.669268	0.452086
	H293	H	0.504469	0.665333	0.445856
	O294	O	0.219887	0.224404	0.034782
	H295	H	0.218330	0.214050	0.045154
	H296	H	0.236642	0.251133	0.035351
	O297	O	1.073277	-0.117409	0.187200
	H298	H	1.075444	-0.100135	0.177969
	H299	H	1.079919	-0.105952	0.181225
	O300	O	0.108148	0.078543	0.201569
	H301	H	0.091059	0.078296	0.202371
	H302	H	0.117929	0.087933	0.185992
	O303	O	-0.033502	0.102871	-0.204444
	H304	H	-0.029332	0.101453	-0.199139
	H305	H	-0.037874	0.106939	-0.221741
	O306	O	0.867362	0.218902	0.074762
	H307	H	0.866581	0.216431	0.086670
	H308	H	0.849783	0.230765	0.070765
	O309	O	0.505002	0.730426	0.556977
	H310	H	0.498008	0.732433	0.565763
	H311	H	0.501744	0.722590	0.553245
	O312	O	0.519060	0.293457	0.311493
	H313	H	0.510063	0.305015	0.307687
	H314	H	0.520446	0.285559	0.283347
	O315	O	0.412223	0.594818	0.579496
	H316	H	0.410310	0.586476	0.573060
	H317	H	0.411834	0.589435	0.570687
	O318	O	0.857645	0.822753	-0.098122
	H319	H	0.853270	0.841266	-0.081386
	H320	H	0.861803	0.816770	-0.086001
	O321	O	0.480803	0.426572	0.550705
	H322	H	0.488556	0.427760	0.548728
	H323	H	0.474549	0.422062	0.567859
	O324	O	0.925846	-0.179236	0.933212
	H325	H	0.931251	-0.165041	0.940811
	H326	H	0.938003	-0.167175	0.939732
	O327	O	0.716789	0.722928	0.493439
	H328	H	0.719191	0.713567	0.510714
	H329	H	0.737451	0.742733	0.499052
	O330	O	-0.048323	1.148199	0.166745
	H331	H	-0.040963	1.161815	0.186462
	H332	H	-0.036370	1.150969	0.170217
	O333	O	0.307908	0.537167	0.294047
	H334	H	0.310898	0.550150	0.305746
	H335	H	0.288694	0.547768	0.282854
	O336	O	0.490992	0.308102	0.500266
	H337	H	0.501429	0.313272	0.488073
	H338	H	0.476478	0.296614	0.519275
	O339	O	0.294472	0.721521	0.469956
	H340	H	0.284538	0.725986	0.473886
	H341	H	0.280547	0.715449	0.489013
	O342	O	0.205092	1.001559	0.014282
	H343	H	0.193803	0.999789	-0.002806
	H344	H	0.206255	0.989982	0.016840
	O345	O	0.305781	0.558389	0.601456
	H346	H	0.311463	0.542262	0.600741
	H347	H	0.299347	0.547291	0.606718
	O348	O	0.555940	0.714980	0.716430
	H349	H	0.530710	0.697679	0.701811
	H350	H	0.545013	0.740562	0.739706
	O351	O	-0.162182	-0.046618	0.967333
	H352	H	-0.166548	-0.045512	0.967511
	H353	H	-0.170240	-0.053891	0.972765
	O354	O	1.071415	0.009198	1.124116
	H355	H	1.078894	0.014083	1.130411
	H356	H	1.061857	0.014601	1.116497
	O357	O	0.301426	0.707237	0.293250
	H358	H	0.303961	0.713469	0.331108
	H359	H	0.309856	0.708291	0.289832
	O360	O	0.355631	0.469649	0.705595
	H361	H	0.357505	0.466138	0.718153
	H362	H	0.346318	0.471803	0.715647
	O363	O	0.537673	0.547084	0.415237
	H364	H	0.524390	0.546121	0.417575
	H365	H	0.527563	0.545420	0.418994
	O366	O	0.891939	0.057093	0.798040
	H367	H	0.871473	0.056776	0.774994
	H368	H	0.898191	0.063038	0.796904
	O369	O	-0.157431	0.210496	0.803903
	H370	H	-0.131011	0.224599	0.809962
	H371	H	-0.169342	0.224685	0.786910
	O372	O	0.008114	0.784737	0.973473
	H373	H	0.007671	0.783527	0.981123
	H374	H	-0.010899	0.788117	0.989916
	O375	O	0.790561	-0.167055	0.077826
	H376	H	0.776767	-0.176480	0.108780
	H377	H	0.783844	-0.186376	0.092183
	O378	O	0.563759	0.439691	0.672608
	H379	H	0.564742	0.437066	0.680436
	H380	H	0.584048	0.437436	0.666327
	O381	O	0.007693	1.004850	-0.020947
	H382	H	0.007082	1.014999	-0.019902
	H383	H	0.007686	1.006217	-0.028420
	O384	O	0.466727	0.290617	0.719711
	H385	H	0.479771	0.266492	0.724374
	H386	H	0.449269	0.289883	0.725668
	O387	O	0.208890	0.989099	0.795961
	H388	H	0.207502	0.989677	0.793675
	H389	H	0.218587	0.991162	0.799794
	O390	O	0.117118	1.198139	0.814542
	H391	H	0.101068	1.187967	0.826929
	H392	H	0.120394	1.185367	0.829168
	O393	O	0.928122	0.105231	0.158885
	H394	H	0.924833	0.106525	0.148131
	H395	H	0.908389	0.110087	0.164621
	O396	O	0.133809	0.217953	0.208528
	H397	H	0.142705	0.184156	0.204740
	H398	H	0.153773	0.243223	0.233037
	O399	O	0.297712	0.720753	0.710560
	H400	H	0.304119	0.720812	0.706707
	H401	H	0.272177	0.729578	0.722284
	O402	O	0.888283	0.044649	0.951356
	H403	H	0.872052	0.056787	0.952598
	H404	H	0.892007	0.034346	0.948677
	O405	O	0.655858	0.584218	0.515189
	H406	H	0.664806	0.577091	0.531922
	H407	H	0.648767	0.591675	0.520258
	O408	O	1.002827	1.026171	0.910557
	H409	H	1.011499	1.027845	0.911659
	H410	H	0.995404	1.023282	0.915164
	O411	O	0.697994	0.653839	0.321452
	H412	H	0.685164	0.649708	0.347747
	H413	H	0.699749	0.652337	0.324297
	O414	O	0.138269	0.066314	-0.031145
	H415	H	0.122438	0.084818	-0.023669
	H416	H	0.153165	0.065983	-0.022990
	O417	O	0.693578	0.518600	0.715176
	H418	H	0.694899	0.548369	0.718054
	H419	H	0.703998	0.530378	0.736783
	O420	O	1.016492	-0.040951	1.023022
	H421	H	1.008509	-0.029231	1.030103
	H422	H	1.017661	-0.031194	1.016489
	O423	O	0.799754	0.802381	0.211382
	H424	H	0.852814	0.795885	0.213872
	H425	H	0.781272	0.810108	0.230108
	O426	O	0.462669	0.714530	0.283299
	H427	H	0.469441	0.734395	0.274206
	H428	H	0.451661	0.725226	0.286781
	O429	O	0.692182	0.481422	0.538373
	H430	H	0.700329	0.494498	0.558569
	H431	H	0.697723	0.472453	0.535175
	O432	O	0.786144	0.170225	0.909017
	H433	H	0.764327	0.176215	0.884420
	H434	H	0.784644	0.190588	0.906702
	O435	O	0.479549	0.358616	0.537983
	H436	H	0.495818	0.353573	0.533042
	H437	H	0.477166	0.349600	0.521829
	O438	O	0.500534	0.499394	0.278938
	H439	H	0.504458	0.503466	0.283354
	H440	H	0.495838	0.518850	0.275835
	O441	O	0.537383	0.592519	0.502279
	H442	H	0.539325	0.582151	0.501573
	H443	H	0.530978	0.599325	0.503039
	O444	O	0.703871	0.309226	0.340961
	H445	H	0.681370	0.312998	0.332818
	H446	H	0.708535	0.331468	0.355695
	O447	O	0.690903	0.332500	0.680331
	H448	H	0.684700	0.349676	0.664541
	H449	H	0.682107	0.346982	0.656501
	O450	O	1.028585	0.224678	-0.011073
	H451	H	1.020916	0.230927	0.012070
	H452	H	1.013581	0.231821	-0.005822
	O453	O	0.300431	0.402052	0.462800
	H454	H	0.316862	0.398839	0.460892
	H455	H	0.294742	0.396710	0.467609
	O456	O	0.044490	0.801876	0.791874
	H457	H	0.027415	0.788555	0.799343
	H458	H	0.038809	0.793854	0.790894
	O459	O	0.689799	0.498451	0.294518
	H460	H	0.694405	0.503394	0.286389
	H461	H	0.678085	0.510467	0.288302
	O462	O	0.684271	0.341219	0.446351
	H463	H	0.705019	0.327183	0.427594
	H464	H	0.691345	0.359198	0.422008
	O465	O	0.614659	0.436528	0.416003
	H466	H	0.608903	0.462908	0.407739
	H467	H	0.620642	0.449022	0.424538
	O468	O	0.220505	0.794419	-0.171062
	H469	H	0.211643	0.786570	-0.163407
	H470	H	0.207307	0.814076	-0.170824
	O471	O	0.248442	0.253925	0.743396
	H472	H	0.225562	0.230398	0.761025
	H473	H	0.276557	0.253056	0.745552
	O474	O	0.831203	0.991459	0.211320
	H475	H	0.804906	0.983862	0.223149
	H476	H	0.834501	0.996518	0.205531
	O477	O	0.371045	0.384946	0.393643
	H478	H	0.382582	0.384053	0.400850
	H479	H	0.375823	0.394616	0.409199
