data_Molecule from HDF5

_cell_length_a		16.376100
_cell_length_b		16.054199
_cell_length_c		16.116879
_cell_angle_alpha	90.080169
_cell_angle_beta	89.800340
_cell_angle_gamma	90.591351
_symmetry_space_group_name_H-M	'P 1'
_symmetry_Int_Tables_number		1

loop_
	_symmetry_equiv_pos_as_xyz
	x,y,z

loop_
	_atom_site_label
	_atom_site_type_symbol
	_atom_site_fract_x
	_atom_site_fract_y
	_atom_site_fract_z
	H0	H	0.404956	0.838148	0.704355
	H1	H	0.602548	0.170757	0.705519
	H2	H	0.597920	0.837263	0.281977
	H3	H	0.409099	0.171448	0.281499
	H4	H	0.722179	0.403160	0.832527
	H5	H	0.721015	0.607507	0.160664
	H6	H	0.290344	0.604784	0.832546
	H7	H	0.288097	0.401210	0.160298
	H8	H	0.841613	0.717429	0.395941
	H9	H	0.167754	0.722274	0.592974
	H10	H	0.842860	0.288229	0.594640
	H11	H	0.169400	0.293621	0.396875
	H12	H	0.842584	0.403530	0.710929
	H13	H	0.168440	0.605909	0.709629
	H14	H	0.842525	0.602080	0.280061
	H15	H	0.169004	0.410399	0.281277
	H16	H	0.412733	0.711258	0.828034
	H17	H	0.601741	0.719490	0.161046
	H18	H	0.600205	0.294986	0.828882
	H19	H	0.407000	0.290366	0.160967
	H20	H	0.718008	0.839013	0.392045
	H21	H	0.721294	0.168825	0.594808
	H22	H	0.286086	0.841575	0.595624
	H23	H	0.291191	0.170749	0.393697
	H24	H	0.906140	0.338354	0.209131
	H25	H	0.102947	0.671377	0.206283
	H26	H	0.100096	0.337990	0.784207
	H27	H	0.910513	0.670783	0.783796
	H28	H	0.219411	0.904269	0.331067
	H29	H	0.221737	0.108190	0.659227
	H30	H	0.791171	0.105381	0.330209
	H31	H	0.786067	0.901065	0.658566
	H32	H	0.341167	0.217377	0.897143
	H33	H	0.667475	0.220799	0.092420
	H34	H	0.341596	0.788453	0.091233
	H35	H	0.667725	0.791741	0.893781
	H36	H	0.341918	0.902372	0.210033
	H37	H	0.667451	0.106148	0.209808
	H38	H	0.341158	0.100313	0.779827
	H39	H	0.667336	0.907786	0.777972
	H40	H	0.911612	0.214858	0.328731
	H41	H	0.100850	0.216006	0.662036
	H42	H	0.099265	0.795102	0.329046
	H43	H	0.904463	0.790676	0.660177
	H44	H	0.217837	0.338721	0.896475
	H45	H	0.222530	0.668348	0.098921
	H46	H	0.786489	0.340311	0.100155
	H47	H	0.792433	0.669485	0.895044
	H48	H	0.410090	0.123398	0.581500
	H49	H	0.595071	0.884892	0.585468
	H50	H	0.586755	0.118403	0.407021
	H51	H	0.405818	0.885708	0.402486
	H52	H	0.601235	0.421885	0.113278
	H53	H	0.604179	0.589727	0.878788
	H54	H	0.407698	0.598756	0.116499
	H55	H	0.405406	0.402543	0.873143
	H56	H	0.124871	0.607746	0.397881
	H57	H	0.889903	0.591997	0.590979
	H58	H	0.121959	0.411171	0.586221
	H59	H	0.889241	0.412004	0.400853
	H60	H	0.122514	0.414972	0.592743
	H61	H	0.887252	0.597849	0.592060
	H62	H	0.119152	0.601681	0.408062
	H63	H	0.888040	0.406050	0.400907
	H64	H	0.411803	0.590689	0.113472
	H65	H	0.594736	0.597546	0.879806
	H66	H	0.588610	0.413039	0.111167
	H67	H	0.404141	0.421555	0.878366
	H68	H	0.611056	0.123126	0.413202
	H69	H	0.595994	0.886370	0.583706
	H70	H	0.408088	0.127089	0.591263
	H71	H	0.410834	0.885720	0.399927
	H72	H	0.914642	0.623249	0.087478
	H73	H	0.099852	0.384832	0.085157
	H74	H	0.097732	0.618929	0.916991
	H75	H	0.900937	0.381456	0.901703
	H76	H	0.097044	0.912195	0.615340
	H77	H	0.093562	0.101111	0.377178
	H78	H	0.903898	0.100536	0.616652
	H79	H	0.901792	0.913261	0.374569
	H80	H	0.619794	0.100248	0.900895
	H81	H	0.390239	0.096258	0.083601
	H82	H	0.623237	0.911072	0.090634
	H83	H	0.389369	0.908804	0.904184
	H84	H	0.620903	0.910986	0.083773
	H85	H	0.388515	0.092102	0.092164
	H86	H	0.620371	0.096723	0.898941
	H87	H	0.386993	0.910981	0.893541
	H88	H	0.908824	0.086454	0.610794
	H89	H	0.105456	0.102530	0.374116
	H90	H	0.098917	0.916128	0.613855
	H91	H	0.914720	0.917832	0.379238
	H92	H	0.112972	0.628669	0.900871
	H93	H	0.100148	0.383060	0.093534
	H94	H	0.912687	0.623725	0.086644
	H95	H	0.919485	0.386404	0.898308
	H96	H	0.417754	0.123619	0.588672
	H97	H	0.596647	0.885406	0.584945
	H98	H	0.602248	0.127046	0.388680
	H99	H	0.410178	0.887948	0.405559
	H100	H	0.601501	0.407009	0.117612
	H101	H	0.605985	0.602620	0.873797
	H102	H	0.416907	0.598729	0.113135
	H103	H	0.420795	0.411762	0.879553
	H104	H	0.121619	0.595055	0.396601
	H105	H	0.889049	0.596793	0.586813
	H106	H	0.124145	0.408792	0.592504
	H107	H	0.890241	0.409252	0.406572
	H108	H	0.912445	0.623104	0.088919
	H109	H	0.093254	0.385430	0.089368
	H110	H	0.090786	0.624070	0.894225
	H111	H	0.911258	0.389009	0.915555
	H112	H	0.094772	0.914929	0.612760
	H113	H	0.100973	0.090983	0.378446
	H114	H	0.918173	0.099161	0.612854
	H115	H	0.912491	0.903330	0.374685
	H116	H	0.621224	0.100188	0.899062
	H117	H	0.385684	0.101653	0.090790
	H118	H	0.619692	0.917750	0.087826
	H119	H	0.385721	0.901213	0.898161
	C120	C	0.382621	0.014742	0.615235
	C121	C	0.625183	0.995309	0.614163
	C122	C	0.626597	0.013203	0.372925
	C123	C	0.382184	0.996278	0.373191
	C124	C	0.626024	0.384427	0.004946
	C125	C	0.628895	0.627095	0.986603
	C126	C	0.385218	0.623889	0.004735
	C127	C	0.382528	0.382516	0.986700
	C128	C	0.013918	0.628031	0.372528
	C129	C	0.996252	0.626470	0.618085
	C130	C	0.014618	0.382335	0.618261
	C131	C	0.997212	0.382789	0.373779
	C132	C	0.883687	0.513382	0.117572
	C133	C	0.126396	0.494746	0.117423
	C134	C	0.127064	0.513552	0.875149
	C135	C	0.883589	0.495423	0.875714
	C136	C	0.124616	0.885686	0.504152
	C137	C	0.127785	0.127319	0.486167
	C138	C	0.883771	0.124633	0.503542
	C139	C	0.880982	0.882053	0.485552
	C140	C	0.512756	0.126574	0.871613
	C141	C	0.495900	0.127047	0.117231
	C142	C	0.513336	0.882741	0.115814
	C143	C	0.495372	0.880807	0.870314
	C144	C	0.384646	0.888682	0.668462
	C145	C	0.623241	0.120819	0.668791
	C146	C	0.620540	0.887569	0.318275
	C147	C	0.387658	0.121789	0.318861
	C148	C	0.682455	0.384828	0.880826
	C149	C	0.683310	0.626902	0.111263
	C150	C	0.329495	0.623102	0.880990
	C151	C	0.326709	0.382619	0.110905
	C152	C	0.890579	0.680415	0.375866
	C153	C	0.119110	0.683766	0.614037
	C154	C	0.891588	0.326202	0.615268
	C155	C	0.120606	0.330385	0.376479
	C156	C	0.891426	0.383261	0.673312
	C157	C	0.119481	0.625946	0.672250
	C158	C	0.891114	0.623135	0.317965
	C159	C	0.120319	0.388241	0.318850
	C160	C	0.390276	0.676143	0.878684
	C161	C	0.624423	0.682677	0.111371
	C162	C	0.622105	0.330983	0.879159
	C163	C	0.385859	0.327487	0.111414
	C164	C	0.680271	0.888405	0.372938
	C165	C	0.682279	0.119823	0.613840
	C166	C	0.325658	0.890225	0.614333
	C167	C	0.328709	0.121173	0.374412
	C168	C	0.885590	0.388288	0.172282
	C169	C	0.123585	0.620932	0.170455
	C170	C	0.121717	0.387840	0.821069
	C171	C	0.888457	0.620657	0.820553
	C172	C	0.180442	0.886101	0.380007
	C173	C	0.182850	0.126539	0.610512
	C174	C	0.829675	0.123669	0.379278
	C175	C	0.825018	0.882747	0.609562
	C176	C	0.389890	0.180096	0.875817
	C177	C	0.618678	0.183232	0.113896
	C178	C	0.390330	0.826340	0.112335
	C179	C	0.618781	0.828596	0.873501
	C180	C	0.390395	0.882957	0.171112
	C181	C	0.618565	0.125935	0.171992
	C182	C	0.389706	0.121785	0.817730
	C183	C	0.618516	0.885826	0.815364
	C184	C	0.889527	0.178409	0.378589
	C185	C	0.123163	0.180532	0.611766
	C186	C	0.120455	0.831916	0.378851
	C187	C	0.883573	0.827399	0.610289
	C188	C	0.180489	0.388438	0.876811
	C189	C	0.183033	0.619531	0.116922
	C190	C	0.825874	0.389426	0.118188
	C191	C	0.829935	0.620096	0.876113
	C192	C	0.405208	0.102176	0.593441
	C193	C	0.602489	0.908230	0.591471
	C194	C	0.606093	0.100385	0.396202
	C195	C	0.402861	0.908998	0.395712
	C196	C	0.603877	0.407408	0.091362
	C197	C	0.607922	0.603592	0.900056
	C198	C	0.406037	0.602414	0.091858
	C199	C	0.403969	0.405270	0.899632
	C200	C	0.099803	0.607664	0.394390
	C201	C	0.910935	0.602642	0.596477
	C202	C	0.100381	0.405067	0.596762
	C203	C	0.911476	0.403013	0.396185
	C204	C	0.906578	0.600846	0.094451
	C205	C	0.104299	0.407210	0.095765
	C206	C	0.106597	0.601168	0.897524
	C207	C	0.904495	0.407969	0.898538
	C208	C	0.103109	0.907774	0.591505
	C209	C	0.106362	0.104742	0.399043
	C210	C	0.904224	0.102030	0.590910
	C211	C	0.903192	0.904716	0.398527
	C212	C	0.598435	0.105299	0.893189
	C213	C	0.410193	0.103625	0.095361
	C214	C	0.598979	0.906272	0.093790
	C215	C	0.409514	0.901008	0.892136
	Zn216	Zn	0.503803	0.003856	0.741666
	Zn217	Zn	0.504280	0.004621	0.245680
	Zn218	Zn	0.755915	0.504900	-0.003324
	Zn219	Zn	0.254569	0.504186	-0.003237
	Zn220	Zn	0.003987	0.756369	0.495398
	Zn221	Zn	0.005791	0.253081	0.495751
	Zn222	Zn	0.005637	0.504435	0.747930
	Zn223	Zn	0.005558	0.504850	0.244293
	Zn224	Zn	0.505436	0.753176	-0.005817
	Zn225	Zn	0.504789	0.255939	-0.005266
	Zn226	Zn	0.754570	0.003635	0.494186
	Zn227	Zn	0.254534	0.006061	0.495360
	N228	N	0.419634	0.967121	0.669118
	N229	N	0.588328	0.042347	0.669056
	N230	N	0.587734	0.966279	0.318007
	N231	N	0.420123	0.043068	0.317832
	N232	N	0.685031	0.417471	0.959900
	N233	N	0.686263	0.592988	0.032769
	N234	N	0.326152	0.591311	0.960315
	N235	N	0.324381	0.416083	0.032390
	N236	N	0.968051	0.683726	0.408991
	N237	N	0.041605	0.684268	0.580846
	N238	N	0.968949	0.325613	0.581645
	N239	N	0.043107	0.326861	0.410117
	N240	N	0.968783	0.417677	0.675505
	N241	N	0.042436	0.591054	0.674903
	N242	N	0.968669	0.591322	0.315878
	N243	N	0.042732	0.420122	0.317011
	N244	N	0.424257	0.676806	0.956527
	N245	N	0.591267	0.682939	0.032953
	N246	N	0.587641	0.330545	0.957179
	N247	N	0.419947	0.327391	0.033196
	N248	N	0.684248	0.967442	0.406106
	N249	N	0.683634	0.040937	0.580472
	N250	N	0.324317	0.969501	0.582014
	N251	N	0.325508	0.042242	0.407828
	N252	N	0.920870	0.466551	0.172028
	N253	N	0.089113	0.542272	0.170982
	N254	N	0.089436	0.466710	0.819845
	N255	N	0.921144	0.541886	0.820105
	N256	N	0.183121	0.918758	0.458999
	N257	N	0.186128	0.094368	0.531306
	N258	N	0.825991	0.090953	0.458236
	N259	N	0.823154	0.915718	0.530744
	N260	N	0.467388	0.183070	0.908721
	N261	N	0.541445	0.183867	0.080479
	N262	N	0.467807	0.826192	0.078492
	N263	N	0.541339	0.825021	0.906690
	N264	N	0.467683	0.917409	0.173422
	N265	N	0.541188	0.091563	0.174148
	N266	N	0.467126	0.089294	0.815045
	N267	N	0.540900	0.917521	0.813057
	N268	N	0.922474	0.179024	0.456986
	N269	N	0.089776	0.181105	0.533452
	N270	N	0.086268	0.831472	0.457029
	N271	N	0.917672	0.826765	0.532208
	N272	N	0.183901	0.467719	0.909577
	N273	N	0.185032	0.540136	0.084635
	N274	N	0.824782	0.468310	0.084616
	N275	N	0.826910	0.541269	0.909739
	O276	O	0.000591	-0.033980	-0.009621
	H277	H	0.007018	-0.037711	-0.010552
	H278	H	-0.003801	-0.030388	-0.007105
	O279	O	0.548046	0.488118	0.543150
	H280	H	0.554512	0.490617	0.542765
	H281	H	0.554804	0.485399	0.554890
	O282	O	0.486060	0.481617	0.465952
	H283	H	0.482019	0.493804	0.472782
	H284	H	0.476014	0.477617	0.462525
	O285	O	0.967294	-0.016891	1.045765
	H286	H	0.970985	-0.017928	1.047201
	H287	H	0.959892	-0.027589	1.042213
	O288	O	1.094963	0.000766	0.067196
	H289	H	1.082821	0.003782	0.061003
	H290	H	1.093307	-0.000958	0.082396
	O291	O	0.472054	0.480754	0.526556
	H292	H	0.468153	0.479389	0.523756
	H293	H	0.458933	0.482644	0.524034
	O294	O	0.991872	0.006898	1.013431
	H295	H	0.999215	0.003550	1.025599
	H296	H	0.996205	0.011786	1.016720
	O297	O	-0.014632	0.008529	0.015773
	H298	H	-0.016796	0.005710	0.016573
	H299	H	-0.019977	0.004309	0.022576
	O300	O	0.487982	0.480435	0.480332
	H301	H	0.494209	0.468575	0.468476
	H302	H	0.486442	0.490723	0.498111
	O303	O	0.557825	0.553515	0.479239
	H304	H	0.546663	0.546785	0.475040
	H305	H	0.568353	0.554283	0.477484
	O306	O	0.956599	0.019782	-0.034703
	H307	H	0.952345	0.019029	-0.025895
	H308	H	0.960260	0.011726	-0.040885
	O309	O	-0.088568	-0.044036	1.054514
	H310	H	-0.087718	-0.047447	1.065372
	H311	H	-0.088139	-0.051325	1.068721
	O312	O	1.036467	1.113830	0.983759
	H313	H	1.030445	1.124590	0.981975
	H314	H	1.042085	1.113258	0.976876
	O315	O	0.389193	0.536195	0.495623
	H316	H	0.385736	0.524871	0.505810
	H317	H	0.395816	0.541379	0.494877
	O318	O	0.608066	0.566189	0.454861
	H319	H	0.604681	0.573610	0.457320
	H320	H	0.613076	0.553651	0.443602
	O321	O	-0.098100	0.941947	1.058886
	H322	H	-0.089591	0.944452	1.060584
	H323	H	-0.106631	0.939567	1.055689
	O324	O	0.443062	0.472990	0.460866
	H325	H	0.445693	0.474156	0.468730
	H326	H	0.447130	0.489627	0.468766
	O327	O	0.543743	0.446276	0.408447
	H328	H	0.541287	0.439734	0.410841
	H329	H	0.545871	0.436136	0.398539
	O330	O	0.610313	0.542973	0.502273
	H331	H	0.613998	0.527566	0.497005
	H332	H	0.610998	0.549194	0.498595
	O333	O	0.600874	0.460104	0.481067
	H334	H	0.603367	0.461186	0.485907
	H335	H	0.602973	0.467653	0.481857
	O336	O	0.505610	0.628293	0.565498
	H337	H	0.511731	0.630116	0.557825
	H338	H	0.501021	0.632885	0.570214
	O339	O	0.935567	0.977993	0.056446
	H340	H	0.931996	0.976668	0.053813
	H341	H	0.921585	0.970262	0.057729
	O342	O	0.432680	0.537122	0.529155
	H343	H	0.432903	0.534514	0.542932
	H344	H	0.432157	0.531864	0.532838
	O345	O	0.536146	0.455620	0.541477
	H346	H	0.535006	0.460005	0.534523
	H347	H	0.534751	0.454378	0.541339
	O348	O	0.012986	0.023679	0.020881
	H349	H	0.016635	0.022155	0.020015
	H350	H	0.013921	0.027330	0.024265
	O351	O	0.002933	0.991805	1.005733
	H352	H	0.001967	1.002021	1.000014
	H353	H	0.007547	0.991368	0.995174
	O354	O	0.526199	0.527332	0.541581
	H355	H	0.528786	0.520173	0.538690
	H356	H	0.532701	0.532046	0.545423
	O357	O	0.074173	0.975734	0.937547
	H358	H	0.085789	0.979689	0.942811
	H359	H	0.064892	0.979316	0.945357
