data_Molecule from HDF5

_cell_length_a		16.243005
_cell_length_b		16.518729
_cell_length_c		16.379264
_cell_angle_alpha	90.090538
_cell_angle_beta	90.248662
_cell_angle_gamma	90.095097
_symmetry_space_group_name_H-M	'P 1'
_symmetry_Int_Tables_number		1

loop_
	_symmetry_equiv_pos_as_xyz
	x,y,z

loop_
	_atom_site_label
	_atom_site_type_symbol
	_atom_site_fract_x
	_atom_site_fract_y
	_atom_site_fract_z
	H0	H	0.381778	0.854318	0.720915
	H1	H	0.600026	0.166614	0.718496
	H2	H	0.597072	0.852481	0.271025
	H3	H	0.386975	0.169149	0.276170
	H4	H	0.709480	0.406442	0.836357
	H5	H	0.711521	0.611915	0.156534
	H6	H	0.270365	0.613022	0.836845
	H7	H	0.276202	0.410188	0.157765
	H8	H	0.831639	0.729285	0.385789
	H9	H	0.149016	0.730310	0.604440
	H10	H	0.831769	0.286349	0.598980
	H11	H	0.151881	0.285707	0.389990
	H12	H	0.831470	0.401630	0.714629
	H13	H	0.150296	0.612106	0.716965
	H14	H	0.830797	0.608661	0.275818
	H15	H	0.153276	0.402247	0.276197
	H16	H	0.382950	0.732822	0.837639
	H17	H	0.599412	0.732316	0.154804
	H18	H	0.599514	0.285214	0.839931
	H19	H	0.384370	0.287337	0.154491
	H20	H	0.711333	0.849990	0.388157
	H21	H	0.715038	0.165726	0.600328
	H22	H	0.270413	0.850650	0.598799
	H23	H	0.270125	0.167606	0.392812
	H24	H	0.889299	0.348482	0.213306
	H25	H	0.097568	0.665448	0.219397
	H26	H	0.097120	0.349749	0.774751
	H27	H	0.883177	0.664355	0.770954
	H28	H	0.205792	0.908295	0.334512
	H29	H	0.211298	0.111642	0.655607
	H30	H	0.774416	0.105807	0.333329
	H31	H	0.770461	0.903312	0.654766
	H32	H	0.330523	0.229230	0.891163
	H33	H	0.651606	0.232065	0.103272
	H34	H	0.332325	0.790195	0.099668
	H35	H	0.652567	0.790994	0.890446
	H36	H	0.329005	0.910974	0.209610
	H37	H	0.652579	0.114583	0.216903
	H38	H	0.330034	0.114333	0.775760
	H39	H	0.651960	0.906637	0.775191
	H40	H	0.885873	0.226917	0.335265
	H41	H	0.100102	0.230794	0.653467
	H42	H	0.093968	0.787445	0.336338
	H43	H	0.880645	0.783076	0.652526
	H44	H	0.212728	0.350173	0.893247
	H45	H	0.209820	0.668819	0.099327
	H46	H	0.771535	0.350005	0.097520
	H47	H	0.773293	0.668194	0.892300
	H48	H	0.403747	0.122868	0.587944
	H49	H	0.582705	0.897669	0.580821
	H50	H	0.578330	0.121725	0.399927
	H51	H	0.398735	0.894884	0.401255
	H52	H	0.575607	0.417838	0.110223
	H53	H	0.576816	0.603853	0.883500
	H54	H	0.404212	0.598062	0.108711
	H55	H	0.399790	0.421420	0.882425
	H56	H	0.107589	0.599553	0.404687
	H57	H	0.877295	0.589623	0.583918
	H58	H	0.105185	0.419328	0.582920
	H59	H	0.876908	0.418704	0.400950
	H60	H	0.107221	0.419346	0.587376
	H61	H	0.874491	0.598328	0.584934
	H62	H	0.104989	0.599666	0.412946
	H63	H	0.875801	0.412725	0.405761
	H64	H	0.407047	0.604442	0.109250
	H65	H	0.584739	0.603558	0.880691
	H66	H	0.584128	0.418705	0.111976
	H67	H	0.405926	0.421484	0.884340
	H68	H	0.576938	0.117950	0.411382
	H69	H	0.579440	0.894663	0.590274
	H70	H	0.404775	0.120816	0.581315
	H71	H	0.400339	0.895820	0.401865
	H72	H	0.906497	0.619933	0.084492
	H73	H	0.086774	0.391853	0.093594
	H74	H	0.075921	0.621013	0.901114
	H75	H	0.900889	0.397139	0.913677
	H76	H	0.079634	0.915577	0.611203
	H77	H	0.087055	0.103374	0.376610
	H78	H	0.908637	0.097673	0.606763
	H79	H	0.895514	0.916118	0.379942
	H80	H	0.606512	0.102305	0.907551
	H81	H	0.375140	0.100193	0.085902
	H82	H	0.608659	0.921297	0.089210
	H83	H	0.381694	0.930351	0.910952
	H84	H	0.607413	0.918710	0.081010
	H85	H	0.376886	0.101604	0.083745
	H86	H	0.604521	0.098859	0.912219
	H87	H	0.373580	0.921105	0.897973
	H88	H	0.901166	0.102586	0.610579
	H89	H	0.080215	0.087519	0.384934
	H90	H	0.080638	0.919854	0.609582
	H91	H	0.903924	0.923056	0.384250
	H92	H	0.076830	0.618276	0.910471
	H93	H	0.075975	0.397241	0.086386
	H94	H	0.900331	0.621276	0.086138
	H95	H	0.894549	0.392263	0.902228
	H96	H	0.398252	0.122594	0.584100
	H97	H	0.573047	0.898561	0.583673
	H98	H	0.587563	0.123165	0.408115
	H99	H	0.398529	0.896173	0.402630
	H100	H	0.579854	0.425361	0.108712
	H101	H	0.581403	0.596286	0.883175
	H102	H	0.400658	0.603156	0.111996
	H103	H	0.403021	0.416536	0.880885
	H104	H	0.104426	0.592716	0.409017
	H105	H	0.877990	0.595582	0.576769
	H106	H	0.107821	0.415468	0.584629
	H107	H	0.879335	0.418545	0.407975
	H108	H	0.904784	0.622269	0.090652
	H109	H	0.088536	0.395387	0.080318
	H110	H	0.084451	0.622356	0.906289
	H111	H	0.907684	0.396795	0.901567
	H112	H	0.076431	0.917753	0.609190
	H113	H	0.069316	0.102990	0.384154
	H114	H	0.899878	0.093100	0.608583
	H115	H	0.906300	0.911968	0.381628
	H116	H	0.604773	0.096092	0.906446
	H117	H	0.378027	0.099471	0.084538
	H118	H	0.605687	0.926610	0.083355
	H119	H	0.376835	0.913670	0.914012
	C120	C	0.369233	0.018036	0.617073
	C121	C	0.612452	1.000699	0.617277
	C122	C	0.612370	0.016747	0.373719
	C123	C	0.368073	1.001105	0.372205
	C124	C	0.612403	0.388464	0.005283
	C125	C	0.613664	0.632300	0.987673
	C126	C	0.370510	0.632967	0.004565
	C127	C	0.370992	0.388900	0.988081
	C128	C	-0.000486	0.628026	0.375481
	C129	C	0.981718	0.627962	0.616191
	C130	C	0.000858	0.385640	0.616473
	C131	C	0.983632	0.385496	0.373883
	C132	C	0.871305	0.516606	0.117352
	C133	C	0.114924	0.499469	0.118757
	C134	C	0.112265	0.516512	0.874580
	C135	C	0.869166	0.499678	0.873316
	C136	C	0.110682	0.886602	0.504226
	C137	C	0.112119	0.129624	0.486892
	C138	C	0.870617	0.128201	0.503245
	C139	C	0.868488	0.884876	0.486696
	C140	C	0.499520	0.131435	0.875664
	C141	C	0.482835	0.132274	0.117844
	C142	C	0.500462	0.890756	0.115732
	C143	C	0.483062	0.889634	0.874534
	C144	C	0.365170	0.900407	0.679069
	C145	C	0.617042	0.119194	0.677973
	C146	C	0.614716	0.898843	0.312103
	C147	C	0.368051	0.121325	0.315215
	C148	C	0.670905	0.387294	0.884951
	C149	C	0.672780	0.632294	0.108170
	C150	C	0.309820	0.632953	0.884795
	C151	C	0.313728	0.389690	0.109142
	C152	C	0.879525	0.688300	0.370110
	C153	C	0.101300	0.689738	0.621605
	C154	C	0.879807	0.326161	0.617523
	C155	C	0.104014	0.325816	0.371957
	C156	C	0.879462	0.383571	0.674987
	C157	C	0.102017	0.630754	0.677479
	C158	C	0.879206	0.628606	0.314677
	C159	C	0.104796	0.383762	0.315190
	C160	C	0.366231	0.692502	0.885176
	C161	C	0.616972	0.691990	0.107426
	C162	C	0.615995	0.326970	0.886521
	C163	C	0.367879	0.328738	0.107499
	C164	C	0.671573	0.897627	0.370698
	C165	C	0.674276	0.118806	0.619157
	C166	C	0.309421	0.898799	0.618455
	C167	C	0.309402	0.120477	0.372733
	C168	C	0.870229	0.396278	0.174464
	C169	C	0.116105	0.618528	0.179182
	C170	C	0.115098	0.397153	0.815490
	C171	C	0.866438	0.617568	0.812206
	C172	C	0.167885	0.887814	0.383064
	C173	C	0.172072	0.130556	0.607508
	C174	C	0.812774	0.126278	0.381843
	C175	C	0.808906	0.883704	0.606536
	C176	C	0.378615	0.190156	0.873092
	C177	C	0.603737	0.191912	0.120727
	C178	C	0.379669	0.831086	0.117172
	C179	C	0.603958	0.830175	0.871957
	C180	C	0.378090	0.890876	0.172028
	C181	C	0.604149	0.133663	0.177592
	C182	C	0.378558	0.132775	0.815462
	C183	C	0.603622	0.888004	0.814575
	C184	C	0.868237	0.186716	0.382990
	C185	C	0.116888	0.190172	0.606330
	C186	C	0.112345	0.827651	0.384003
	C187	C	0.864290	0.824086	0.605443
	C188	C	0.172825	0.397540	0.874222
	C189	C	0.171781	0.620354	0.119137
	C190	C	0.811256	0.397407	0.117312
	C191	C	0.811596	0.619744	0.872754
	C192	C	0.394920	0.100476	0.591643
	C193	C	0.586057	0.918458	0.592264
	C194	C	0.588048	0.099436	0.399324
	C195	C	0.392294	0.917611	0.395221
	C196	C	0.587150	0.413458	0.088742
	C197	C	0.588323	0.608199	0.904171
	C198	C	0.396607	0.608936	0.088079
	C199	C	0.395749	0.412866	0.904233
	C200	C	0.083685	0.604138	0.401510
	C201	C	0.898162	0.601849	0.589553
	C202	C	0.084783	0.410734	0.591917
	C203	C	0.899224	0.409675	0.398017
	C204	C	0.896571	0.599689	0.093901
	C205	C	0.090881	0.416438	0.094148
	C206	C	0.086456	0.599101	0.898917
	C207	C	0.893770	0.416846	0.898534
	C208	C	0.086171	0.910644	0.588100
	C209	C	0.086210	0.104951	0.403423
	C210	C	0.896012	0.104571	0.586799
	C211	C	0.894380	0.909666	0.403637
	C212	C	0.583369	0.106423	0.901547
	C213	C	0.398766	0.107579	0.092225
	C214	C	0.585050	0.915243	0.091529
	C215	C	0.399157	0.914479	0.900229
	Zn216	Zn	0.491009	0.011209	0.746932
	Zn217	Zn	0.491241	0.010278	0.244804
	Zn218	Zn	0.741415	0.509653	-0.004477
	Zn219	Zn	0.242474	0.510155	-0.003677
	Zn220	Zn	-0.009713	0.757008	0.495703
	Zn221	Zn	-0.008136	0.258146	0.495248
	Zn222	Zn	-0.009325	0.506778	0.744067
	Zn223	Zn	-0.007232	0.506775	0.246866
	Zn224	Zn	0.492742	0.761584	-0.003703
	Zn225	Zn	0.491050	0.259885	-0.003591
	Zn226	Zn	0.741214	0.006740	0.495077
	Zn227	Zn	0.239873	0.008801	0.495393
	N228	N	0.401518	0.975602	0.678416
	N229	N	0.579136	0.044819	0.676806
	N230	N	0.578381	0.973823	0.314091
	N231	N	0.403674	0.045854	0.314742
	N232	N	0.668588	0.425002	0.959818
	N233	N	0.671193	0.596092	0.032724
	N234	N	0.312462	0.596641	0.960156
	N235	N	0.315531	0.426455	0.033870
	N236	N	0.955581	0.688148	0.407210
	N237	N	0.025648	0.688045	0.583885
	N238	N	0.956330	0.327259	0.582134
	N239	N	0.027664	0.326878	0.407767
	N240	N	0.955623	0.419689	0.674659
	N241	N	0.026399	0.593103	0.674265
	N242	N	0.954870	0.591717	0.318042
	N243	N	0.029157	0.420455	0.316496
	N244	N	0.403153	0.692637	0.960690
	N245	N	0.580943	0.692265	0.031465
	N246	N	0.580403	0.327567	0.962449
	N247	N	0.402611	0.328019	0.031061
	N248	N	0.669975	0.971856	0.408702
	N249	N	0.671815	0.044198	0.582152
	N250	N	0.312041	0.972808	0.580564
	N251	N	0.309322	0.044809	0.407467
	N252	N	0.906584	0.471450	0.174768
	N253	N	0.081686	0.542327	0.179228
	N254	N	0.078256	0.471859	0.815326
	N255	N	0.901539	0.541803	0.812541
	N256	N	0.167130	0.923592	0.458795
	N257	N	0.169286	0.093530	0.532148
	N258	N	0.813842	0.090729	0.457763
	N259	N	0.811335	0.920673	0.531633
	N260	N	0.455067	0.189738	0.909368
	N261	N	0.527302	0.191322	0.084312
	N262	N	0.456922	0.830788	0.083143
	N263	N	0.527750	0.830750	0.908262
	N264	N	0.454194	0.927322	0.171268
	N265	N	0.527917	0.097485	0.175942
	N266	N	0.454919	0.097021	0.816923
	N267	N	0.527240	0.923725	0.815811
	N268	N	0.903476	0.188101	0.459295
	N269	N	0.080362	0.189669	0.530633
	N270	N	0.077867	0.826597	0.460535
	N271	N	0.900371	0.824469	0.529795
	N272	N	0.171325	0.472864	0.910197
	N273	N	0.171438	0.545489	0.082694
	N274	N	0.811819	0.473057	0.082364
	N275	N	0.812968	0.545317	0.910032
	O276	O	0.361290	0.679802	0.312702
	H277	H	0.350372	0.676090	0.296570
	H278	H	0.351573	0.684765	0.354649
	O279	O	0.698950	0.566499	0.457621
	H280	H	0.697208	0.577465	0.466533
	H281	H	0.706412	0.572409	0.436069
	O282	O	0.390882	0.452001	0.675738
	H283	H	0.401426	0.446167	0.662261
	H284	H	0.390228	0.440540	0.682273
	O285	O	0.866285	1.173830	-0.192943
	H286	H	0.848241	1.178701	-0.170166
	H287	H	0.905644	1.187059	-0.198593
	O288	O	0.528485	0.423887	0.550397
	H289	H	0.544986	0.422407	0.553015
	H290	H	0.517631	0.406786	0.537354
	O291	O	0.516866	0.729553	0.712963
	H292	H	0.515055	0.746485	0.708144
	H293	H	0.505674	0.747782	0.721455
	O294	O	0.720740	0.732683	0.717954
	H295	H	0.701075	0.734276	0.724255
	H296	H	0.718514	0.748237	0.695547
	O297	O	0.565580	0.389307	0.295160
	H298	H	0.571799	0.405216	0.289376
	H299	H	0.569930	0.385801	0.289668
	O300	O	0.695760	0.384153	0.494988
	H301	H	0.715502	0.374813	0.502194
	H302	H	0.696327	0.406411	0.487439
	O303	O	0.308074	0.574919	0.531928
	H304	H	0.317213	0.555415	0.527838
	H305	H	0.309986	0.579286	0.532187
	O306	O	-0.034575	0.019454	1.030611
	H307	H	-0.035188	0.030477	1.015467
	H308	H	-0.041120	0.007634	1.020693
	O309	O	1.133200	0.172917	-0.037806
	H310	H	1.140660	0.186777	-0.047811
	H311	H	1.128858	0.172315	-0.057628
	O312	O	0.831762	-0.107979	0.169932
	H313	H	0.827907	-0.086964	0.178104
	H314	H	0.861183	-0.098255	0.170318
	O315	O	0.353758	0.308332	0.537125
	H316	H	0.374412	0.308376	0.548814
	H317	H	0.352362	0.302523	0.540068
	O318	O	0.012176	-0.124746	0.004633
	H319	H	0.009872	-0.120654	0.003311
	H320	H	0.028700	-0.130452	-0.009908
	O321	O	0.472945	0.558517	0.419806
	H322	H	0.474833	0.561952	0.417793
	H323	H	0.471384	0.559487	0.430701
	O324	O	1.146198	0.184781	1.094175
	H325	H	1.144935	0.182387	1.083044
	H326	H	1.148176	0.194096	1.094895
	O327	O	0.322309	0.508325	0.338749
	H328	H	0.330575	0.491075	0.334291
	H329	H	0.336345	0.511969	0.342055
	O330	O	0.059978	0.932317	1.146305
	H331	H	0.044431	0.933937	1.138429
	H332	H	0.050257	0.951897	1.132680
	O333	O	0.170700	1.089036	0.112358
	H334	H	0.166589	1.105276	0.117542
	H335	H	0.172451	1.082447	0.120675
	O336	O	0.925179	0.883626	-0.076700
	H337	H	0.920689	0.885721	-0.061285
	H338	H	0.924345	0.886747	-0.063684
	O339	O	-0.479446	1.715653	1.469568
	H340	H	-0.473348	1.712152	1.450396
	H341	H	-0.469385	1.719962	1.478294
	O342	O	0.547024	0.460382	0.529741
	H343	H	0.534692	0.448878	0.536213
	H344	H	0.544431	0.481319	0.542495
	O345	O	-0.309138	-0.475542	1.697653
	H346	H	-0.290349	-0.458006	1.706816
	H347	H	-0.317580	-0.465178	1.703754
	O348	O	0.576416	0.407047	0.668454
	H349	H	0.570258	0.413744	0.662191
	H350	H	0.592460	0.410182	0.672115
	O351	O	0.888594	1.005135	-0.137557
	H352	H	0.881651	0.981674	-0.127011
	H353	H	0.860443	1.014985	-0.148193
	O354	O	0.983670	0.829647	0.862814
	H355	H	0.972395	0.831945	0.864004
	H356	H	0.974954	0.817514	0.857929
	O357	O	-0.034981	-0.019623	0.022283
	H358	H	-0.048527	-0.017171	0.004879
	H359	H	-0.030081	-0.020473	0.024805
	O360	O	0.787139	0.059778	-0.208283
	H361	H	0.757236	0.078669	-0.233220
	H362	H	0.799759	0.091885	-0.198665
	O363	O	1.276869	-0.274697	0.463667
	H364	H	1.272094	-0.273375	0.466400
	H365	H	1.261837	-0.266154	0.477151
	O366	O	0.519915	0.300886	1.614154
	H367	H	0.537187	0.289545	1.619969
	H368	H	0.526541	0.293171	1.606369
	O369	O	1.112262	-0.206556	0.935114
	H370	H	1.133924	-0.216741	0.920965
	H371	H	1.122701	-0.212674	0.916472
	O372	O	0.497004	0.518176	0.620534
	H373	H	0.487483	0.518063	0.624543
	H374	H	0.484932	0.523449	0.623187
	O375	O	-0.147773	0.083404	1.049681
	H376	H	-0.140945	0.080020	1.034833
	H377	H	-0.134791	0.076801	1.042231
	O378	O	0.374702	0.318682	0.536873
	H379	H	0.357774	0.335446	0.526861
	H380	H	0.391920	0.309472	0.512700
	O381	O	-0.217091	0.827594	0.051833
	H382	H	-0.222581	0.824858	0.079311
	H383	H	-0.231529	0.808305	0.065816
	O384	O	0.432669	0.312880	0.540620
	H385	H	0.431696	0.309682	0.538072
	H386	H	0.427791	0.300836	0.540367
	O387	O	0.656629	0.349667	0.368546
	H388	H	0.660904	0.347958	0.372010
	H389	H	0.661864	0.352949	0.370933
	O390	O	0.670357	0.682849	0.263473
	H391	H	0.668745	0.667807	0.268470
	H392	H	0.667646	0.681530	0.257295
	O393	O	0.902723	0.151782	1.032424
	H394	H	0.907508	0.166554	1.040762
	H395	H	0.902913	0.117851	1.024063
	O396	O	1.169811	-0.176626	-0.183205
	H397	H	1.176810	-0.168742	-0.200089
	H398	H	1.149886	-0.179279	-0.177780
	O399	O	0.372845	0.645730	0.620822
	H400	H	0.380028	0.643961	0.597874
	H401	H	0.378102	0.648068	0.604174
	O402	O	0.981887	0.986348	0.136988
	H403	H	0.984693	0.982426	0.146571
	H404	H	0.994195	1.005799	0.134200
	O405	O	0.701083	0.684120	0.495841
	H406	H	0.713883	0.677623	0.500083
	H407	H	0.711296	0.690846	0.489322
	O408	O	0.322742	0.543028	0.677627
	H409	H	0.329559	0.551199	0.674999
	H410	H	0.338052	0.542764	0.685704
	O411	O	1.032681	1.171512	0.842351
	H412	H	1.039219	1.169331	0.826748
	H413	H	1.047021	1.157448	0.830622
	O414	O	0.599359	0.503604	0.313672
	H415	H	0.563798	0.493697	0.308785
	H416	H	0.610204	0.510683	0.306389
	O417	O	0.177742	0.992585	0.839905
	H418	H	0.190564	0.979540	0.833217
	H419	H	0.180813	0.994368	0.850310
	O420	O	0.129628	0.941157	1.043576
	H421	H	0.138031	0.934190	1.044065
	H422	H	0.127584	0.951873	1.051899
	O423	O	0.015817	0.928852	0.180459
	H424	H	0.011011	0.939269	0.170171
	H425	H	0.016087	0.937349	0.175345
	O426	O	0.371778	0.407944	0.361427
	H427	H	0.367096	0.423129	0.373498
	H428	H	0.392220	0.391360	0.368400
	O429	O	0.529484	0.720743	0.356381
	H430	H	0.514035	0.731316	0.352776
	H431	H	0.521579	0.726719	0.357488
	O432	O	0.334343	0.529350	0.279749
	H433	H	0.320253	0.536318	0.287024
	H434	H	0.312679	0.533621	0.261669
	O435	O	0.025686	0.085526	-0.174767
	H436	H	0.050041	0.079333	-0.168802
	H437	H	-0.003631	0.056155	-0.175130
	O438	O	0.026307	1.148726	1.160588
	H439	H	0.035864	1.157026	1.160803
	H440	H	0.046502	1.155147	1.159078
	O441	O	0.812670	0.221198	0.913491
	H442	H	0.803969	0.217231	0.919607
	H443	H	0.798280	0.232308	0.920855
