data_Molecule from HDF5

_cell_length_a		16.327636
_cell_length_b		16.445079
_cell_length_c		16.218099
_cell_angle_alpha	89.781530
_cell_angle_beta	89.994046
_cell_angle_gamma	89.914614
_symmetry_space_group_name_H-M	'P 1'
_symmetry_Int_Tables_number		1

loop_
	_symmetry_equiv_pos_as_xyz
	x,y,z

loop_
	_atom_site_label
	_atom_site_type_symbol
	_atom_site_fract_x
	_atom_site_fract_y
	_atom_site_fract_z
	H0	H	0.399221	0.838685	0.716045
	H1	H	0.603205	0.158813	0.714601
	H2	H	0.604892	0.839298	0.277151
	H3	H	0.399823	0.159290	0.277772
	H4	H	0.718381	0.394178	0.835882
	H5	H	0.717106	0.601384	0.158109
	H6	H	0.282578	0.599727	0.833954
	H7	H	0.278924	0.393234	0.158467
	H8	H	0.842111	0.722733	0.387348
	H9	H	0.159353	0.719665	0.602863
	H10	H	0.840453	0.275351	0.603718
	H11	H	0.158589	0.276596	0.388721
	H12	H	0.838359	0.393568	0.715704
	H13	H	0.160921	0.597973	0.713009
	H14	H	0.838277	0.601230	0.278955
	H15	H	0.158030	0.392701	0.273816
	H16	H	0.394509	0.719405	0.836352
	H17	H	0.602491	0.717108	0.158291
	H18	H	0.603136	0.279491	0.835369
	H19	H	0.392345	0.276291	0.156903
	H20	H	0.721138	0.838587	0.392035
	H21	H	0.720954	0.157980	0.600627
	H22	H	0.279948	0.839827	0.602221
	H23	H	0.279672	0.157731	0.388899
	H24	H	0.891575	0.340522	0.218998
	H25	H	0.100648	0.657878	0.214931
	H26	H	0.102124	0.338553	0.776797
	H27	H	0.896559	0.659189	0.776380
	H28	H	0.220347	0.896396	0.333655
	H29	H	0.218753	0.100582	0.657971
	H30	H	0.780992	0.102087	0.334945
	H31	H	0.780569	0.892171	0.656555
	H32	H	0.340286	0.220931	0.887618
	H33	H	0.657846	0.222549	0.103045
	H34	H	0.340144	0.777621	0.105878
	H35	H	0.658676	0.775864	0.891590
	H36	H	0.339485	0.897536	0.216475
	H37	H	0.661274	0.102559	0.214706
	H38	H	0.339632	0.100550	0.776717
	H39	H	0.660663	0.892796	0.777475
	H40	H	0.892538	0.221460	0.337005
	H41	H	0.107157	0.219653	0.656544
	H42	H	0.107668	0.777773	0.335014
	H43	H	0.895123	0.776446	0.655678
	H44	H	0.221242	0.339862	0.889620
	H45	H	0.218079	0.657571	0.101071
	H46	H	0.775716	0.340676	0.102290
	H47	H	0.777017	0.658582	0.889798
	H48	H	0.412306	0.110278	0.582216
	H49	H	0.591507	0.886503	0.583377
	H50	H	0.588053	0.111124	0.405892
	H51	H	0.405970	0.885039	0.412532
	H52	H	0.587551	0.408291	0.112191
	H53	H	0.582280	0.600069	0.878994
	H54	H	0.404609	0.594335	0.116233
	H55	H	0.406147	0.416790	0.882601
	H56	H	0.117853	0.591256	0.400123
	H57	H	0.887899	0.581638	0.582945
	H58	H	0.112669	0.411802	0.585299
	H59	H	0.883452	0.403709	0.408082
	H60	H	0.114904	0.405851	0.589566
	H61	H	0.882340	0.592200	0.589393
	H62	H	0.112548	0.591430	0.414630
	H63	H	0.887236	0.410175	0.414327
	H64	H	0.403306	0.581903	0.112043
	H65	H	0.597145	0.584176	0.879796
	H66	H	0.585717	0.414051	0.110061
	H67	H	0.416090	0.408313	0.883353
	H68	H	0.593611	0.111545	0.409709
	H69	H	0.595501	0.883005	0.587512
	H70	H	0.406467	0.114037	0.586058
	H71	H	0.409247	0.883359	0.401595
	H72	H	0.907733	0.614591	0.092055
	H73	H	0.079745	0.387554	0.086199
	H74	H	0.088805	0.608526	0.915328
	H75	H	0.910118	0.386853	0.906333
	H76	H	0.090758	0.907354	0.610408
	H77	H	0.095092	0.089185	0.378847
	H78	H	0.908605	0.088056	0.613168
	H79	H	0.910028	0.907783	0.379162
	H80	H	0.614008	0.086405	0.904244
	H81	H	0.384395	0.092716	0.087110
	H82	H	0.613447	0.907532	0.084155
	H83	H	0.385542	0.910330	0.906349
	H84	H	0.614592	0.908418	0.086882
	H85	H	0.387891	0.087505	0.080822
	H86	H	0.616705	0.095150	0.905985
	H87	H	0.385136	0.907649	0.907770
	H88	H	0.913454	0.082665	0.609016
	H89	H	0.087440	0.083418	0.383646
	H90	H	0.089533	0.909933	0.610317
	H91	H	0.911213	0.914334	0.381587
	H92	H	0.096918	0.615472	0.901564
	H93	H	0.089892	0.386555	0.078122
	H94	H	0.911876	0.609696	0.082518
	H95	H	0.906545	0.386084	0.909965
	H96	H	0.412880	0.112583	0.589367
	H97	H	0.589127	0.884452	0.589493
	H98	H	0.593483	0.114005	0.402940
	H99	H	0.416602	0.887559	0.409278
	H100	H	0.581666	0.408983	0.110601
	H101	H	0.577288	0.581479	0.888413
	H102	H	0.414621	0.587999	0.110792
	H103	H	0.404417	0.404349	0.878651
	H104	H	0.111621	0.579112	0.406569
	H105	H	0.886634	0.593301	0.576908
	H106	H	0.112982	0.405288	0.581832
	H107	H	0.885108	0.412746	0.405080
	H108	H	0.901257	0.613721	0.082473
	H109	H	0.090439	0.381862	0.089907
	H110	H	0.080541	0.611302	0.900473
	H111	H	0.905996	0.384718	0.905129
	H112	H	0.087947	0.907971	0.609749
	H113	H	0.085497	0.093431	0.380468
	H114	H	0.915687	0.089964	0.610030
	H115	H	0.916594	0.909268	0.381870
	H116	H	0.612317	0.090055	0.912674
	H117	H	0.385879	0.084298	0.088748
	H118	H	0.614926	0.905916	0.085495
	H119	H	0.386225	0.909784	0.909470
	C120	C	0.378928	0.007126	0.618087
	C121	C	0.623104	0.989827	0.618504
	C122	C	0.623268	0.007083	0.374596
	C123	C	0.379381	0.990503	0.374881
	C124	C	0.618325	0.378360	0.004947
	C125	C	0.618222	0.619861	0.988343
	C126	C	0.376728	0.620189	0.005858
	C127	C	0.376157	0.376795	0.987894
	C128	C	0.008481	0.619876	0.374864
	C129	C	0.991262	0.619774	0.615827
	C130	C	0.008088	0.375642	0.618355
	C131	C	0.990402	0.376580	0.375121
	C132	C	0.875235	0.507765	0.118215
	C133	C	0.118783	0.489979	0.117149
	C134	C	0.120504	0.506540	0.874033
	C135	C	0.875681	0.490741	0.874041
	C136	C	0.122222	0.877084	0.503966
	C137	C	0.121866	0.120218	0.487408
	C138	C	0.879600	0.119301	0.504757
	C139	C	0.880131	0.877437	0.486889
	C140	C	0.508271	0.120850	0.874835
	C141	C	0.491738	0.120040	0.117206
	C142	C	0.508696	0.876517	0.118663
	C143	C	0.491286	0.877287	0.876162
	C144	C	0.379200	0.886577	0.676920
	C145	C	0.622951	0.110390	0.676245
	C146	C	0.623800	0.886992	0.316130
	C147	C	0.379705	0.111041	0.316155
	C148	C	0.678732	0.376071	0.884011
	C149	C	0.677640	0.620299	0.109748
	C150	C	0.319937	0.620238	0.883360
	C151	C	0.317815	0.375027	0.109634
	C152	C	0.889346	0.681538	0.370838
	C153	C	0.111750	0.678929	0.619628
	C154	C	0.888154	0.315617	0.621176
	C155	C	0.110229	0.316387	0.371069
	C156	C	0.887018	0.374638	0.677046
	C157	C	0.112365	0.618612	0.674745
	C158	C	0.887197	0.621072	0.316754
	C159	C	0.110257	0.374592	0.313933
	C160	C	0.375614	0.679851	0.884635
	C161	C	0.620666	0.677858	0.109913
	C162	C	0.620875	0.319208	0.883514
	C163	C	0.373989	0.316353	0.108724
	C164	C	0.681575	0.886699	0.373585
	C165	C	0.681601	0.110033	0.619476
	C166	C	0.319929	0.887309	0.620139
	C167	C	0.320308	0.110537	0.372214
	C168	C	0.873497	0.387867	0.178556
	C169	C	0.120193	0.610015	0.176111
	C170	C	0.121225	0.386424	0.815738
	C171	C	0.875891	0.611029	0.814843
	C172	C	0.181683	0.876637	0.382615
	C173	C	0.180492	0.120421	0.609149
	C174	C	0.820040	0.121181	0.383517
	C175	C	0.820606	0.874395	0.608205
	C176	C	0.388013	0.180255	0.870706
	C177	C	0.610771	0.181378	0.120266
	C178	C	0.388005	0.817715	0.122775
	C179	C	0.611126	0.816269	0.873553
	C180	C	0.387974	0.877091	0.178358
	C181	C	0.612755	0.121298	0.175655
	C182	C	0.387792	0.120682	0.815227
	C183	C	0.612322	0.875097	0.816964
	C184	C	0.875747	0.180396	0.384466
	C185	C	0.124442	0.179422	0.608416
	C186	C	0.125429	0.817709	0.382970
	C187	C	0.877715	0.816780	0.607743
	C188	C	0.180610	0.387245	0.872093
	C189	C	0.178533	0.609695	0.119295
	C190	C	0.815881	0.387826	0.120236
	C191	C	0.816759	0.610556	0.871604
	C192	C	0.403386	0.090441	0.593165
	C193	C	0.599073	0.906353	0.594048
	C194	C	0.599081	0.090544	0.399212
	C195	C	0.403581	0.907016	0.400255
	C196	C	0.592577	0.403206	0.089075
	C197	C	0.592883	0.595682	0.904244
	C198	C	0.400764	0.595408	0.090957
	C199	C	0.401541	0.402243	0.903370
	C200	C	0.092280	0.594419	0.399941
	C201	C	0.907398	0.595886	0.590426
	C202	C	0.091768	0.400377	0.593006
	C203	C	0.906930	0.401745	0.401544
	C204	C	0.899841	0.590797	0.092948
	C205	C	0.093865	0.407029	0.092063
	C206	C	0.095694	0.590050	0.898521
	C207	C	0.900417	0.407492	0.899595
	C208	C	0.096865	0.901388	0.588243
	C209	C	0.096691	0.095822	0.402894
	C210	C	0.905040	0.093971	0.588743
	C211	C	0.905320	0.903180	0.402834
	C212	C	0.592342	0.097276	0.900387
	C213	C	0.407702	0.095062	0.092644
	C214	C	0.592497	0.900229	0.092748
	C215	C	0.407519	0.902184	0.900808
	Zn216	Zn	0.501466	-0.001487	0.747062
	Zn217	Zn	0.501082	-0.001190	0.246395
	Zn218	Zn	0.746263	0.499230	-0.003791
	Zn219	Zn	0.248525	0.498435	-0.003141
	Zn220	Zn	0.001091	0.748775	0.495055
	Zn221	Zn	-0.000166	0.247869	0.496402
	Zn222	Zn	-0.001642	0.498487	0.745073
	Zn223	Zn	-0.001936	0.498710	0.246779
	Zn224	Zn	0.498485	0.748497	-0.002341
	Zn225	Zn	0.498349	0.249648	-0.004038
	Zn226	Zn	0.751791	-0.001978	0.496346
	Zn227	Zn	0.250103	-0.001050	0.495943
	N228	N	0.414949	0.962029	0.675998
	N229	N	0.587729	0.034598	0.676047
	N230	N	0.588462	0.962830	0.316611
	N231	N	0.415589	0.035252	0.317675
	N232	N	0.677242	0.412063	0.960385
	N233	N	0.676470	0.585022	0.033032
	N234	N	0.320406	0.584126	0.959970
	N235	N	0.318764	0.411431	0.033294
	N236	N	0.965763	0.680883	0.406372
	N237	N	0.035403	0.679817	0.584030
	N238	N	0.964518	0.315990	0.585560
	N239	N	0.034796	0.317634	0.408424
	N240	N	0.962740	0.411155	0.675674
	N241	N	0.036520	0.582299	0.672410
	N242	N	0.962392	0.583420	0.319003
	N243	N	0.034729	0.411474	0.316440
	N244	N	0.409717	0.680264	0.962195
	N245	N	0.584207	0.677568	0.033647
	N246	N	0.584188	0.320366	0.959828
	N247	N	0.409433	0.317185	0.031701
	N248	N	0.681676	0.962531	0.409037
	N249	N	0.682201	0.033950	0.584501
	N250	N	0.319667	0.963209	0.584228
	N251	N	0.320089	0.034819	0.408147
	N252	N	0.909789	0.463259	0.177412
	N253	N	0.083663	0.534749	0.174988
	N254	N	0.084401	0.461680	0.816839
	N255	N	0.911784	0.535434	0.816079
	N256	N	0.179955	0.912684	0.458951
	N257	N	0.179327	0.084708	0.532664
	N258	N	0.822205	0.083969	0.459369
	N259	N	0.821894	0.911454	0.532220
	N260	N	0.463962	0.180509	0.907234
	N261	N	0.534426	0.180676	0.084493
	N262	N	0.464020	0.817080	0.086595
	N263	N	0.535005	0.817536	0.909882
	N264	N	0.463987	0.913000	0.176014
	N265	N	0.537597	0.083945	0.173963
	N266	N	0.463605	0.084390	0.817777
	N267	N	0.536861	0.912513	0.818451
	N268	N	0.912153	0.179224	0.460828
	N269	N	0.088772	0.179641	0.531565
	N270	N	0.089212	0.817852	0.459520
	N271	N	0.914075	0.818599	0.531358
	N272	N	0.179991	0.462895	0.907665
	N273	N	0.178101	0.534045	0.083665
	N274	N	0.816975	0.463039	0.083342
	N275	N	0.816366	0.534565	0.907323
	O276	O	0.376364	0.592813	0.386216
	H277	H	0.390092	0.571520	0.394673
	H278	H	0.373018	0.593896	0.384489
	O279	O	0.488076	0.563808	0.455427
	H280	H	0.488477	0.568827	0.448398
	H281	H	0.497896	0.557451	0.483718
	O282	O	0.639167	0.467724	0.466627
	H283	H	0.649970	0.455029	0.464550
	H284	H	0.648289	0.471767	0.475525
	O285	O	1.008700	0.147930	-0.069257
	H286	H	0.993078	0.146317	-0.064063
	H287	H	1.023485	0.137824	-0.052390
	O288	O	-0.155264	-0.009328	1.029545
	H289	H	-0.160439	-0.012629	1.021276
	H290	H	-0.153616	-0.007200	1.055242
	O291	O	0.419588	0.370241	0.491441
	H292	H	0.397550	0.375007	0.503099
	H293	H	0.410073	0.363222	0.505013
	O294	O	0.639974	0.499279	0.388427
	H295	H	0.644651	0.499246	0.405756
	H296	H	0.653655	0.510072	0.374639
	O297	O	0.796871	1.149855	0.995266
	H298	H	0.802741	1.151844	1.017138
	H299	H	0.793910	1.174115	0.999816
	O300	O	-0.086997	0.123418	0.161467
	H301	H	-0.099951	0.107371	0.164503
	H302	H	-0.067710	0.105019	0.156624
	O303	O	0.442620	0.393695	0.402872
	H304	H	0.446867	0.393904	0.398263
	H305	H	0.425766	0.390464	0.414522
	O306	O	0.797370	-0.022474	0.199138
	H307	H	0.799432	-0.060709	0.182347
	H308	H	0.772398	-0.028598	0.221151
	O309	O	0.629518	0.357970	0.394084
	H310	H	0.624542	0.375388	0.385666
	H311	H	0.604686	0.367885	0.393763
	O312	O	0.884567	0.798210	-0.012620
	H313	H	0.880609	0.805930	-0.025490
	H314	H	0.895051	0.795443	-0.025222
	O315	O	0.450850	0.421429	0.686713
	H316	H	0.469617	0.418474	0.690099
	H317	H	0.447224	0.407798	0.670353
	O318	O	0.624500	0.706625	0.520238
	H319	H	0.629065	0.698935	0.517538
	H320	H	0.642715	0.727206	0.529946
	O321	O	0.992481	0.172932	1.092923
	H322	H	1.004480	0.183914	1.100988
	H323	H	0.980793	0.157780	1.081466
	O324	O	0.043667	-0.115490	1.117021
	H325	H	0.054847	-0.121925	1.103837
	H326	H	0.050365	-0.112616	1.115380
	O327	O	0.325264	0.538619	0.668930
	H328	H	0.343996	0.532197	0.673418
	H329	H	0.313700	0.538079	0.652877
	O330	O	0.332267	0.571751	0.446968
	H331	H	0.322653	0.551025	0.462577
	H332	H	0.326214	0.579243	0.436958
	O333	O	1.194057	0.790132	0.978302
	H334	H	1.189206	0.796219	0.944423
	H335	H	1.222859	0.767357	0.966897
	O336	O	0.626415	0.490037	0.346827
	H337	H	0.632274	0.488986	0.342297
	H338	H	0.612350	0.467925	0.345505
	O339	O	0.816975	0.175947	0.819546
	H340	H	0.856291	0.187148	0.817898
	H341	H	0.810437	0.176624	0.859412
	O342	O	0.028746	0.849684	0.818062
	H343	H	0.008883	0.873559	0.809838
	H344	H	0.024823	0.845812	0.804666
	O345	O	0.109329	0.875540	1.029226
	H346	H	0.124061	0.883637	1.033021
	H347	H	0.094643	0.876700	1.016501
	O348	O	0.635059	0.485427	0.572678
	H349	H	0.648580	0.488851	0.581306
	H350	H	0.647957	0.492615	0.557598
	O351	O	0.164307	0.211909	0.066422
	H352	H	0.156190	0.193833	0.102977
	H353	H	0.184562	0.239995	0.083337
	O354	O	1.115865	1.011937	0.091719
	H355	H	1.117549	1.005860	0.082022
	H356	H	1.113143	1.002835	0.072877
	O357	O	0.176907	1.152279	0.172376
	H358	H	0.166393	1.124611	0.180247
	H359	H	0.148675	1.161315	0.172499
	O360	O	0.481513	0.447879	0.560473
	H361	H	0.508524	0.456266	0.565868
	H362	H	0.479037	0.424043	0.559638
	O363	O	0.643976	0.323137	0.391866
	H364	H	0.637626	0.322517	0.371989
	H365	H	0.655545	0.307323	0.386830
	O366	O	0.593332	0.650154	0.593319
	H367	H	0.597139	0.652085	0.577605
	H368	H	0.583468	0.651219	0.602121
	O369	O	0.500627	0.605611	0.388518
	H370	H	0.491728	0.607938	0.388375
	H371	H	0.492603	0.614404	0.396386
	O372	O	0.408860	0.458761	0.471685
	H373	H	0.423987	0.445248	0.478813
	H374	H	0.407226	0.445899	0.471563
	O375	O	0.363172	0.355443	0.582105
	H376	H	0.363909	0.373178	0.573061
	H377	H	0.358183	0.356523	0.569044
	O378	O	0.532701	0.507102	0.498723
	H379	H	0.535612	0.505891	0.497782
	H380	H	0.522335	0.489959	0.501702
	O381	O	0.647579	0.586276	0.662155
	H382	H	0.640857	0.606837	0.664439
	H383	H	0.656965	0.598833	0.659932
	O384	O	0.063082	0.929883	0.810844
	H385	H	0.042283	0.942173	0.817179
	H386	H	0.074162	0.933995	0.806942
	O387	O	0.864487	0.831962	0.058869
	H388	H	0.850511	0.825224	0.037725
	H389	H	0.874425	0.842717	0.061899
	O390	O	0.456567	0.527552	0.432265
	H391	H	0.447497	0.544021	0.415000
	H392	H	0.455092	0.540182	0.444687
	O393	O	0.964688	0.082320	1.109787
	H394	H	0.962303	0.079370	1.123392
	H395	H	0.957797	0.074167	1.096949
	O396	O	0.069344	0.979219	0.825179
	H397	H	0.074201	0.987770	0.826721
	H398	H	0.058447	0.988418	0.820509
	O399	O	0.325473	0.696183	0.507516
	H400	H	0.316603	0.696472	0.490347
	H401	H	0.336219	0.711390	0.498481
	O402	O	1.100818	-0.090470	0.821617
	H403	H	1.099430	-0.073697	0.812516
	H404	H	1.105848	-0.073610	0.812448
	O405	O	0.124906	0.081744	-0.057315
	H406	H	0.138030	0.106757	-0.045218
	H407	H	0.115364	0.078173	-0.044036
	O408	O	0.794554	0.995860	0.803373
	H409	H	0.795149	1.020802	0.803314
	H410	H	0.776336	1.007246	0.779855
	O411	O	0.961710	0.911187	0.006421
	H412	H	0.954997	0.910411	-0.010210
	H413	H	0.960949	0.931057	0.005814
	O414	O	-0.019470	0.197281	0.790480
	H415	H	-0.008148	0.214973	0.762400
	H416	H	-0.010528	0.196242	0.805195
	O417	O	0.483666	0.496859	0.457807
	H418	H	0.465073	0.489744	0.453362
	H419	H	0.483846	0.510188	0.462227
	O420	O	0.099478	0.937281	0.060117
	H421	H	0.104205	0.911389	0.054368
	H422	H	0.096509	0.945528	0.037135
	O423	O	0.925488	-0.152323	0.167798
	H424	H	0.948486	-0.163326	0.154130
	H425	H	0.931323	-0.171541	0.159174
	O426	O	0.139699	0.049964	0.980429
	H427	H	0.150276	0.044417	0.985447
	H428	H	0.146221	0.065087	0.992992
	O429	O	0.394482	0.432595	0.678338
	H430	H	0.388532	0.441728	0.678533
	H431	H	0.388767	0.423941	0.676957
