data_Molecule from HDF5

_cell_length_a		16.319009
_cell_length_b		16.459559
_cell_length_c		16.365293
_cell_angle_alpha	89.845924
_cell_angle_beta	89.947756
_cell_angle_gamma	89.981540
_symmetry_space_group_name_H-M	'P 1'
_symmetry_Int_Tables_number		1

loop_
	_symmetry_equiv_pos_as_xyz
	x,y,z

loop_
	_atom_site_label
	_atom_site_type_symbol
	_atom_site_fract_x
	_atom_site_fract_y
	_atom_site_fract_z
	H0	H	0.384037	0.850135	0.715084
	H1	H	0.593451	0.167424	0.713597
	H2	H	0.598142	0.851292	0.271900
	H3	H	0.384484	0.167699	0.270085
	H4	H	0.707218	0.410483	0.831907
	H5	H	0.709900	0.614307	0.153203
	H6	H	0.270171	0.614913	0.833015
	H7	H	0.268710	0.405276	0.151979
	H8	H	0.833394	0.733039	0.386131
	H9	H	0.151360	0.731125	0.599524
	H10	H	0.833685	0.289437	0.600680
	H11	H	0.151552	0.289793	0.388926
	H12	H	0.832001	0.407526	0.713224
	H13	H	0.151502	0.616253	0.715143
	H14	H	0.831008	0.614897	0.273804
	H15	H	0.150470	0.403773	0.271949
	H16	H	0.382498	0.734104	0.834292
	H17	H	0.595092	0.731336	0.152049
	H18	H	0.593842	0.291171	0.833182
	H19	H	0.380232	0.285872	0.150831
	H20	H	0.712631	0.850948	0.389708
	H21	H	0.711762	0.167979	0.598933
	H22	H	0.269999	0.849723	0.597322
	H23	H	0.268032	0.167855	0.385383
	H24	H	0.886806	0.350623	0.213140
	H25	H	0.095342	0.668383	0.214494
	H26	H	0.097421	0.352014	0.772597
	H27	H	0.887997	0.670095	0.773058
	H28	H	0.207592	0.910340	0.331892
	H29	H	0.211188	0.111490	0.654364
	H30	H	0.774079	0.113957	0.332823
	H31	H	0.772691	0.906761	0.653524
	H32	H	0.329767	0.230101	0.887316
	H33	H	0.649316	0.230269	0.096398
	H34	H	0.330823	0.788933	0.100218
	H35	H	0.650291	0.791046	0.888896
	H36	H	0.331365	0.904831	0.215580
	H37	H	0.650697	0.113386	0.211563
	H38	H	0.329855	0.114319	0.771247
	H39	H	0.650399	0.905985	0.773739
	H40	H	0.888484	0.231552	0.334633
	H41	H	0.096802	0.229465	0.654707
	H42	H	0.096730	0.790042	0.333561
	H43	H	0.884948	0.786817	0.652102
	H44	H	0.212467	0.352543	0.887614
	H45	H	0.212518	0.668291	0.098684
	H46	H	0.767809	0.352025	0.098600
	H47	H	0.771515	0.671133	0.889683
	H48	H	0.404371	0.122634	0.586896
	H49	H	0.575418	0.895966	0.588186
	H50	H	0.577286	0.120300	0.407495
	H51	H	0.403065	0.896550	0.401956
	H52	H	0.580274	0.417945	0.109136
	H53	H	0.581913	0.608590	0.875786
	H54	H	0.406869	0.592092	0.102353
	H55	H	0.393070	0.422052	0.876904
	H56	H	0.101754	0.592419	0.408644
	H57	H	0.880971	0.594898	0.579971
	H58	H	0.109212	0.416609	0.585133
	H59	H	0.876762	0.423648	0.397936
	H60	H	0.106123	0.420937	0.579188
	H61	H	0.877095	0.598199	0.586675
	H62	H	0.107344	0.597283	0.396418
	H63	H	0.875722	0.414028	0.407597
	H64	H	0.407096	0.606780	0.107164
	H65	H	0.584367	0.597283	0.878722
	H66	H	0.578815	0.423558	0.105811
	H67	H	0.406765	0.426264	0.882902
	H68	H	0.587616	0.124977	0.404292
	H69	H	0.581010	0.897639	0.575710
	H70	H	0.406767	0.118543	0.577343
	H71	H	0.403456	0.898387	0.407190
	H72	H	0.903790	0.621602	0.079943
	H73	H	0.081378	0.395382	0.087387
	H74	H	0.083974	0.623171	0.910726
	H75	H	0.893127	0.396520	0.906459
	H76	H	0.092402	0.921238	0.611127
	H77	H	0.086107	0.097292	0.378684
	H78	H	0.900663	0.102801	0.609156
	H79	H	0.904391	0.923521	0.381519
	H80	H	0.600558	0.096454	0.908534
	H81	H	0.375953	0.095859	0.084680
	H82	H	0.602596	0.919235	0.073935
	H83	H	0.375309	0.920668	0.903083
	H84	H	0.603390	0.927929	0.085603
	H85	H	0.374481	0.101229	0.082158
	H86	H	0.605131	0.096984	0.896670
	H87	H	0.376485	0.920825	0.906778
	H88	H	0.900682	0.097867	0.607672
	H89	H	0.074104	0.097835	0.383222
	H90	H	0.072677	0.929667	0.601621
	H91	H	0.905605	0.920015	0.379936
	H92	H	0.082728	0.627422	0.897778
	H93	H	0.072489	0.400030	0.081871
	H94	H	0.894389	0.624571	0.081102
	H95	H	0.900129	0.395113	0.897220
	H96	H	0.397075	0.122192	0.579220
	H97	H	0.588667	0.892431	0.585500
	H98	H	0.578972	0.124317	0.396062
	H99	H	0.398635	0.895962	0.405415
	H100	H	0.574342	0.418830	0.106473
	H101	H	0.573142	0.601824	0.880763
	H102	H	0.394252	0.598081	0.108775
	H103	H	0.404502	0.412343	0.877273
	H104	H	0.106076	0.605955	0.407829
	H105	H	0.877687	0.602860	0.579563
	H106	H	0.106750	0.424208	0.586326
	H107	H	0.880646	0.426131	0.410413
	H108	H	0.901014	0.624735	0.088778
	H109	H	0.081942	0.397856	0.076030
	H110	H	0.072007	0.620673	0.904099
	H111	H	0.903706	0.399615	0.907156
	H112	H	0.073839	0.907753	0.609132
	H113	H	0.079928	0.108571	0.377871
	H114	H	0.904962	0.100586	0.607618
	H115	H	0.901896	0.921009	0.379230
	H116	H	0.606271	0.106711	0.904421
	H117	H	0.377007	0.097230	0.079091
	H118	H	0.607802	0.914099	0.086769
	H119	H	0.376591	0.923327	0.904623
	C120	C	0.369246	0.016861	0.614344
	C121	C	0.612756	1.000510	0.615068
	C122	C	0.613376	0.018280	0.371189
	C123	C	0.369471	1.001511	0.371617
	C124	C	0.609888	0.389611	0.001419
	C125	C	0.611663	0.633004	0.984233
	C126	C	0.369512	0.631760	0.001034
	C127	C	0.368359	0.388149	0.983856
	C128	C	-0.000128	0.631534	0.371813
	C129	C	0.983746	0.631130	0.614354
	C130	C	0.001836	0.388797	0.615858
	C131	C	0.983025	0.388901	0.372528
	C132	C	0.867925	0.518665	0.115518
	C133	C	0.111646	0.501949	0.114536
	C134	C	0.112025	0.519027	0.872217
	C135	C	0.868642	0.502751	0.871775
	C136	C	0.111911	0.888639	0.501696
	C137	C	0.112607	0.131570	0.485880
	C138	C	0.870447	0.132264	0.502466
	C139	C	0.871138	0.888819	0.485105
	C140	C	0.498062	0.131318	0.871082
	C141	C	0.481259	0.130677	0.113904
	C142	C	0.499317	0.888409	0.115053
	C143	C	0.481854	0.889198	0.872516
	C144	C	0.365990	0.897706	0.674900
	C145	C	0.612860	0.120025	0.673896
	C146	C	0.615956	0.898960	0.311698
	C147	C	0.366205	0.120104	0.310118
	C148	C	0.668488	0.390353	0.880544
	C149	C	0.670530	0.633377	0.104993
	C150	C	0.309326	0.633910	0.881200
	C151	C	0.308432	0.386496	0.104195
	C152	C	0.880602	0.692368	0.368864
	C153	C	0.103530	0.691326	0.617154
	C154	C	0.881094	0.329540	0.618310
	C155	C	0.103365	0.329241	0.370294
	C156	C	0.880564	0.388129	0.674515
	C157	C	0.103606	0.633777	0.674738
	C158	C	0.879674	0.633813	0.312432
	C159	C	0.102828	0.386225	0.312104
	C160	C	0.365394	0.693253	0.881827
	C161	C	0.613562	0.691820	0.104409
	C162	C	0.611985	0.330932	0.880910
	C163	C	0.363982	0.327009	0.103510
	C164	C	0.673189	0.898696	0.370389
	C165	C	0.671800	0.120044	0.616704
	C166	C	0.309302	0.897398	0.616067
	C167	C	0.308330	0.120308	0.367993
	C168	C	0.867134	0.398803	0.173976
	C169	C	0.113740	0.621039	0.174260
	C170	C	0.114993	0.399737	0.812254
	C171	C	0.868563	0.622290	0.812448
	C172	C	0.169612	0.890081	0.380340
	C173	C	0.171539	0.131090	0.606512
	C174	C	0.812349	0.133304	0.381633
	C175	C	0.812040	0.887527	0.605510
	C176	C	0.377751	0.190544	0.868893
	C177	C	0.601561	0.190591	0.115392
	C178	C	0.378940	0.828699	0.118064
	C179	C	0.602378	0.830601	0.870910
	C180	C	0.379191	0.886174	0.175646
	C181	C	0.602173	0.132290	0.172456
	C182	C	0.377894	0.132934	0.810986
	C183	C	0.602478	0.887667	0.813331
	C184	C	0.869480	0.191945	0.382540
	C185	C	0.114848	0.189987	0.606566
	C186	C	0.114574	0.830038	0.381383
	C187	C	0.867873	0.827942	0.604689
	C188	C	0.172280	0.399858	0.869905
	C189	C	0.172177	0.620888	0.116707
	C190	C	0.808170	0.399296	0.116820
	C191	C	0.810716	0.622891	0.870815
	C192	C	0.395242	0.099452	0.588611
	C193	C	0.588421	0.917065	0.590359
	C194	C	0.588490	0.101314	0.395670
	C195	C	0.394498	0.918659	0.397421
	C196	C	0.584883	0.413106	0.085376
	C197	C	0.586916	0.609371	0.900207
	C198	C	0.395302	0.606201	0.084161
	C199	C	0.394038	0.413009	0.900870
	C200	C	0.083347	0.605841	0.397203
	C201	C	0.900096	0.605859	0.589232
	C202	C	0.085407	0.413279	0.590736
	C203	C	0.899498	0.413978	0.398099
	C204	C	0.892656	0.601983	0.090768
	C205	C	0.086102	0.419305	0.089156
	C206	C	0.086732	0.602132	0.897068
	C207	C	0.892191	0.418902	0.896491
	C208	C	0.086862	0.912729	0.585426
	C209	C	0.087496	0.107961	0.401904
	C210	C	0.894945	0.107613	0.586333
	C211	C	0.896659	0.914167	0.401881
	C212	C	0.582082	0.107032	0.896025
	C213	C	0.397684	0.105532	0.089103
	C214	C	0.582723	0.913264	0.089434
	C215	C	0.398007	0.914304	0.897474
	Zn216	Zn	0.489552	0.008824	0.743642
	Zn217	Zn	0.490724	0.009455	0.242781
	Zn218	Zn	0.739233	0.511181	-0.006827
	Zn219	Zn	0.241009	0.510407	-0.007076
	Zn220	Zn	-0.007850	0.759438	0.493285
	Zn221	Zn	-0.007541	0.261180	0.494772
	Zn222	Zn	-0.007971	0.510289	0.743497
	Zn223	Zn	-0.009328	0.509624	0.244302
	Zn224	Zn	0.489842	0.760948	-0.007039
	Zn225	Zn	0.489181	0.259832	-0.007316
	Zn226	Zn	0.741947	0.009626	0.493057
	Zn227	Zn	0.240333	0.009470	0.493407
	N228	N	0.402502	0.972923	0.674042
	N229	N	0.577116	0.044543	0.673252
	N230	N	0.579498	0.974316	0.311904
	N231	N	0.403825	0.045364	0.312621
	N232	N	0.667559	0.425688	0.956479
	N233	N	0.669578	0.597699	0.029189
	N234	N	0.311748	0.596503	0.956300
	N235	N	0.310787	0.423768	0.029006
	N236	N	0.956431	0.691059	0.405037
	N237	N	0.027854	0.689744	0.580421
	N238	N	0.957370	0.329637	0.582674
	N239	N	0.027750	0.330849	0.407383
	N240	N	0.956522	0.424073	0.673284
	N241	N	0.027961	0.597153	0.673292
	N242	N	0.954919	0.596511	0.314262
	N243	N	0.027023	0.422521	0.313456
	N244	N	0.401743	0.692392	0.957536
	N245	N	0.577854	0.691786	0.028314
	N246	N	0.576293	0.330239	0.957211
	N247	N	0.400543	0.327822	0.027851
	N248	N	0.671777	0.973888	0.406585
	N249	N	0.672006	0.044536	0.581050
	N250	N	0.311181	0.972548	0.579193
	N251	N	0.310342	0.045563	0.405745
	N252	N	0.903422	0.474121	0.173327
	N253	N	0.076990	0.546067	0.173069
	N254	N	0.078135	0.474946	0.813771
	N255	N	0.903810	0.546403	0.812847
	N256	N	0.168309	0.925724	0.456285
	N257	N	0.170523	0.096044	0.530444
	N258	N	0.812441	0.097174	0.457418
	N259	N	0.814031	0.924762	0.530301
	N260	N	0.453521	0.189684	0.905446
	N261	N	0.525280	0.190118	0.080069
	N262	N	0.454694	0.829829	0.081061
	N263	N	0.526324	0.831442	0.906813
	N264	N	0.454992	0.922295	0.174021
	N265	N	0.526313	0.095988	0.171787
	N266	N	0.453826	0.096754	0.812114
	N267	N	0.526245	0.923327	0.814088
	N268	N	0.904488	0.191659	0.458906
	N269	N	0.079157	0.190449	0.530370
	N270	N	0.079647	0.829021	0.457767
	N271	N	0.903904	0.828557	0.528705
	N272	N	0.170711	0.474911	0.906438
	N273	N	0.171049	0.545758	0.080394
	N274	N	0.808281	0.475133	0.081509
	N275	N	0.810622	0.547371	0.906833
	O276	O	0.610854	0.553884	0.481653
	H277	H	0.613895	0.554580	0.471881
	H278	H	0.614323	0.551195	0.478245
	O279	O	0.653025	0.631675	0.353102
	H280	H	0.635782	0.624809	0.348266
	H281	H	0.667548	0.626728	0.364814
	O282	O	0.679245	0.359448	0.640869
	H283	H	0.674361	0.384388	0.624641
	H284	H	0.661932	0.351100	0.618863
	O285	O	0.815619	1.172276	-0.065599
	H286	H	0.801652	1.177665	-0.099764
	H287	H	0.818839	1.180540	-0.073113
	O288	O	0.679094	0.290459	0.477276
	H289	H	0.684162	0.298118	0.450022
	H290	H	0.697521	0.266885	0.462161
	O291	O	0.507312	0.717957	0.492346
	H292	H	0.503062	0.734926	0.474949
	H293	H	0.509620	0.724466	0.512806
	O294	O	0.919825	0.824568	0.775142
	H295	H	0.899485	0.832714	0.777576
	H296	H	0.921097	0.816689	0.778144
	O297	O	0.683921	0.439770	0.295287
	H298	H	0.674175	0.449953	0.282762
	H299	H	0.697515	0.433841	0.292044
	O300	O	0.702512	0.460659	0.508944
	H301	H	0.709875	0.445178	0.495057
	H302	H	0.694309	0.464549	0.502335
	O303	O	0.288833	0.644918	0.494985
	H304	H	0.292946	0.658213	0.500942
	H305	H	0.281326	0.645665	0.493651
	O306	O	0.122112	-0.124971	1.083419
	H307	H	0.121432	-0.105839	1.075969
	H308	H	0.135534	-0.122034	1.076492
	O309	O	1.179960	0.053759	-0.161745
	H310	H	1.178532	0.068094	-0.173104
	H311	H	1.189556	0.054203	-0.144003
	O312	O	0.799213	-0.120651	0.184600
	H313	H	0.806260	-0.123268	0.185912
	H314	H	0.808526	-0.126863	0.188814
	O315	O	0.274967	0.289301	0.516229
	H316	H	0.256050	0.272431	0.539698
	H317	H	0.270343	0.286178	0.549608
	O318	O	0.026039	-0.061211	0.149298
	H319	H	0.015737	-0.068480	0.146017
	H320	H	0.020183	-0.047823	0.157284
	O321	O	0.499930	0.546332	0.565885
	H322	H	0.507985	0.527611	0.569908
	H323	H	0.488967	0.545497	0.572165
	O324	O	1.053304	0.196472	0.958159
	H325	H	1.052033	0.204523	0.965412
	H326	H	1.057238	0.201109	0.954941
	O327	O	0.304352	0.604947	0.296735
	H328	H	0.295594	0.598302	0.285238
	H329	H	0.321366	0.620145	0.286745
	O330	O	-0.217602	1.044905	0.846122
	H331	H	-0.220289	1.042100	0.835023
	H332	H	-0.217205	1.031696	0.843205
	O333	O	0.040540	1.059499	-0.033939
	H334	H	0.044784	1.056995	-0.041322
	H335	H	0.030891	1.061367	-0.034162
	O336	O	1.141377	1.099179	0.106617
	H337	H	1.122284	1.101304	0.113557
	H338	H	1.144442	1.112110	0.115043
	O339	O	-0.613625	1.688945	1.387859
	H340	H	-0.606045	1.693635	1.392048
	H341	H	-0.604466	1.694947	1.412663
	O342	O	0.493193	0.650987	0.694236
	H343	H	0.493853	0.661430	0.703984
	H344	H	0.510505	0.644970	0.690783
	O345	O	-0.490916	-0.625811	1.694833
	H346	H	-0.479961	-0.636882	1.697760
	H347	H	-0.478574	-0.637493	1.671590
	O348	O	0.527152	0.333205	0.582981
	H349	H	0.547116	0.328775	0.565789
	H350	H	0.515858	0.344307	0.557709
	O351	O	0.979217	0.839050	-0.104925
	H352	H	0.983403	0.857251	-0.095674
	H353	H	0.956028	0.839138	-0.109633
	O354	O	0.880365	0.870760	0.912352
	H355	H	0.886347	0.870294	0.914106
	H356	H	0.880176	0.876076	0.915544
	O357	O	0.066237	0.036536	0.126591
	H358	H	0.060344	0.024012	0.138957
	H359	H	0.057523	0.028622	0.133857
	O360	O	0.802823	0.141726	-0.186963
	H361	H	0.811534	0.137869	-0.195251
	H362	H	0.785440	0.140041	-0.198082
	O363	O	1.410191	-0.362289	0.373298
	H364	H	1.412817	-0.352919	0.351088
	H365	H	1.392392	-0.355915	0.369765
	O366	O	0.503835	0.294878	1.374755
	H367	H	0.487395	0.297981	1.376581
	H368	H	0.488944	0.277894	1.359390
	O369	O	1.150429	-0.132165	1.000643
	H370	H	1.149019	-0.132184	0.981404
	H371	H	1.157246	-0.143146	1.009836
	O372	O	0.425149	0.527433	0.626829
	H373	H	0.439235	0.534351	0.619874
	H374	H	0.428562	0.540976	0.628745
	O375	O	0.020960	0.048702	1.001251
	H376	H	0.020068	0.059294	1.003076
	H377	H	0.027493	0.027049	1.008420
	O378	O	0.388269	0.407893	0.395907
	H379	H	0.387921	0.397851	0.397949
	H380	H	0.367981	0.406207	0.407658
	O381	O	-0.169833	0.948593	0.014651
	H382	H	-0.174444	0.950892	0.015691
	H383	H	-0.178146	0.936754	0.007790
	O384	O	0.630517	0.311001	0.292992
	H385	H	0.650824	0.311026	0.272821
	H386	H	0.601936	0.301169	0.283606
	O387	O	0.687666	0.598023	0.636892
	H388	H	0.696620	0.601572	0.624792
	H389	H	0.691967	0.581297	0.639748
	O390	O	0.446839	0.540142	0.351514
	H391	H	0.443822	0.537875	0.366535
	H392	H	0.444015	0.552609	0.343552
	O393	O	0.830106	-0.001697	1.137282
	H394	H	0.824965	-0.003999	1.137297
	H395	H	0.817102	0.007968	1.136172
	O396	O	1.184701	-0.142795	-0.109731
	H397	H	1.178230	-0.142731	-0.124056
	H398	H	1.186750	-0.138250	-0.123216
	O399	O	0.299284	0.499599	0.682499
	H400	H	0.292297	0.512516	0.690713
	H401	H	0.308767	0.508367	0.676345
	O402	O	1.096391	1.119823	0.118016
	H403	H	1.105958	1.131312	0.110611
	H404	H	1.099191	1.105858	0.138117
	O405	O	0.555488	0.517844	0.373941
	H406	H	0.550137	0.515041	0.354155
	H407	H	0.550362	0.525721	0.378592
	O408	O	0.306847	0.328740	0.672566
	H409	H	0.350740	0.329057	0.684343
	H410	H	0.308106	0.368326	0.682362
	O411	O	0.943516	1.223680	0.800325
	H412	H	0.954076	1.233399	0.790304
	H413	H	0.929949	1.231509	0.795532
	O414	O	0.490246	0.618401	0.414596
	H415	H	0.479018	0.619654	0.414672
	H416	H	0.483176	0.619473	0.429195
	O417	O	0.016262	1.048072	0.961892
	H418	H	0.017399	1.038155	0.971015
	H419	H	0.007778	1.057105	0.963476
	O420	O	-0.026125	0.818190	1.190655
	H421	H	-0.024205	0.806583	1.189654
	H422	H	-0.008337	0.820815	1.194589
	O423	O	0.053176	1.115694	-0.025954
	H424	H	0.056720	1.121121	-0.036313
	H425	H	0.063700	1.119562	-0.017047
	O426	O	0.311425	0.522273	0.490492
	H427	H	0.307331	0.511190	0.496815
	H428	H	0.317999	0.515321	0.499286
	O429	O	0.695205	0.649037	0.631975
	H430	H	0.700091	0.624008	0.633162
	H431	H	0.709481	0.653911	0.639495
	O432	O	0.414644	0.515761	0.385880
	H433	H	0.393406	0.502924	0.385680
	H434	H	0.424143	0.507769	0.384341
	O435	O	-0.098168	0.026067	-0.027914
	H436	H	-0.101012	0.031677	-0.037225
	H437	H	-0.111770	0.016613	-0.018742
	O438	O	-0.063088	0.876279	0.947834
	H439	H	-0.052744	0.862960	0.938107
	H440	H	-0.054090	0.869557	0.959791
	O441	O	0.865886	0.190703	1.119054
	H442	H	0.862637	0.180543	1.100823
	H443	H	0.874908	0.195473	1.106538
