data_Molecule from HDF5

_cell_length_a		16.501812
_cell_length_b		16.410070
_cell_length_c		16.342281
_cell_angle_alpha	89.906214
_cell_angle_beta	90.173415
_cell_angle_gamma	89.787979
_symmetry_space_group_name_H-M	'P 1'
_symmetry_Int_Tables_number		1

loop_
	_symmetry_equiv_pos_as_xyz
	x,y,z

loop_
	_atom_site_label
	_atom_site_type_symbol
	_atom_site_fract_x
	_atom_site_fract_y
	_atom_site_fract_z
	H0	H	0.396611	0.848245	0.714395
	H1	H	0.606702	0.165224	0.713581
	H2	H	0.609262	0.848601	0.271764
	H3	H	0.394493	0.163507	0.268358
	H4	H	0.725417	0.399265	0.835119
	H5	H	0.726689	0.616435	0.148832
	H6	H	0.277623	0.616408	0.834600
	H7	H	0.282422	0.401844	0.151349
	H8	H	0.843232	0.731916	0.383876
	H9	H	0.157751	0.730457	0.599590
	H10	H	0.843177	0.286114	0.598926
	H11	H	0.159213	0.286091	0.387391
	H12	H	0.843397	0.403959	0.714226
	H13	H	0.159010	0.613165	0.713752
	H14	H	0.843186	0.614287	0.268507
	H15	H	0.160185	0.403784	0.272567
	H16	H	0.394962	0.729190	0.832992
	H17	H	0.609469	0.729306	0.150804
	H18	H	0.609384	0.284998	0.834069
	H19	H	0.396881	0.285463	0.150309
	H20	H	0.726301	0.850734	0.385764
	H21	H	0.724756	0.164962	0.602179
	H22	H	0.277431	0.849802	0.601940
	H23	H	0.278905	0.164193	0.384385
	H24	H	0.896721	0.348806	0.212205
	H25	H	0.105021	0.667147	0.213407
	H26	H	0.105211	0.350666	0.773387
	H27	H	0.892080	0.666218	0.768199
	H28	H	0.225206	0.897935	0.334852
	H29	H	0.224794	0.114498	0.648807
	H30	H	0.776588	0.117314	0.334706
	H31	H	0.777807	0.899505	0.649933
	H32	H	0.345407	0.230164	0.885460
	H33	H	0.658583	0.232367	0.102358
	H34	H	0.345763	0.785204	0.097924
	H35	H	0.658535	0.780791	0.882545
	H36	H	0.345933	0.900033	0.214683
	H37	H	0.658566	0.116377	0.219358
	H38	H	0.343661	0.111414	0.771816
	H39	H	0.659274	0.898441	0.767817
	H40	H	0.895239	0.229154	0.332211
	H41	H	0.107070	0.228457	0.650155
	H42	H	0.105854	0.786472	0.333137
	H43	H	0.893399	0.784112	0.650245
	H44	H	0.220981	0.350580	0.890076
	H45	H	0.226073	0.665791	0.102546
	H46	H	0.779505	0.350944	0.100183
	H47	H	0.774209	0.663958	0.880505
	H48	H	0.413368	0.119238	0.578650
	H49	H	0.594046	0.891045	0.585237
	H50	H	0.595514	0.122608	0.404281
	H51	H	0.413535	0.895247	0.408417
	H52	H	0.586342	0.416540	0.105622
	H53	H	0.587176	0.596421	0.879129
	H54	H	0.416540	0.595171	0.103957
	H55	H	0.415380	0.419506	0.879194
	H56	H	0.112913	0.595365	0.402395
	H57	H	0.886627	0.599715	0.583602
	H58	H	0.112768	0.419568	0.582182
	H59	H	0.890068	0.421254	0.406272
	H60	H	0.114551	0.417343	0.583202
	H61	H	0.890312	0.598518	0.572304
	H62	H	0.113597	0.598275	0.403405
	H63	H	0.887253	0.421558	0.396509
	H64	H	0.413710	0.599853	0.106924
	H65	H	0.591586	0.591449	0.878905
	H66	H	0.594605	0.419629	0.106713
	H67	H	0.410422	0.415704	0.875865
	H68	H	0.583979	0.119727	0.400064
	H69	H	0.582424	0.897879	0.578986
	H70	H	0.410473	0.119809	0.579621
	H71	H	0.409294	0.891231	0.402415
	H72	H	0.911622	0.620149	0.074600
	H73	H	0.100924	0.392927	0.080379
	H74	H	0.092507	0.622762	0.906192
	H75	H	0.920490	0.397859	0.903776
	H76	H	0.089472	0.914766	0.606966
	H77	H	0.087770	0.099830	0.376969
	H78	H	0.911925	0.098123	0.606912
	H79	H	0.916841	0.918938	0.379891
	H80	H	0.615740	0.096668	0.902070
	H81	H	0.391868	0.090212	0.083258
	H82	H	0.614211	0.917113	0.076777
	H83	H	0.389434	0.922570	0.897146
	H84	H	0.613723	0.922848	0.079855
	H85	H	0.389254	0.100848	0.080472
	H86	H	0.615127	0.096520	0.904387
	H87	H	0.388150	0.911385	0.903535
	H88	H	0.912265	0.094684	0.604736
	H89	H	0.093415	0.094239	0.376486
	H90	H	0.094967	0.922784	0.605612
	H91	H	0.910064	0.920839	0.378284
	H92	H	0.089982	0.624551	0.902535
	H93	H	0.090467	0.393691	0.088661
	H94	H	0.911278	0.622387	0.081961
	H95	H	0.910628	0.396497	0.910861
	H96	H	0.412900	0.120000	0.581442
	H97	H	0.594895	0.895202	0.571097
	H98	H	0.587490	0.117842	0.412062
	H99	H	0.417172	0.893292	0.401083
	H100	H	0.588496	0.424538	0.103005
	H101	H	0.585472	0.590298	0.882014
	H102	H	0.411288	0.594226	0.106536
	H103	H	0.408919	0.422328	0.878087
	H104	H	0.112486	0.596219	0.405340
	H105	H	0.891166	0.589810	0.579892
	H106	H	0.113495	0.416982	0.581097
	H107	H	0.886699	0.413409	0.402589
	H108	H	0.917649	0.620096	0.078957
	H109	H	0.089264	0.398106	0.076422
	H110	H	0.087765	0.622394	0.905468
	H111	H	0.910543	0.392882	0.899009
	H112	H	0.085018	0.922587	0.602980
	H113	H	0.086186	0.092376	0.379514
	H114	H	0.915018	0.096854	0.604923
	H115	H	0.914494	0.925513	0.381981
	H116	H	0.615837	0.094888	0.903398
	H117	H	0.393691	0.094457	0.072910
	H118	H	0.616302	0.918219	0.083079
	H119	H	0.393330	0.921599	0.909631
	C120	C	0.379941	0.015106	0.613247
	C121	C	0.623278	0.998814	0.613345
	C122	C	0.622943	0.016076	0.371963
	C123	C	0.380200	0.997634	0.370437
	C124	C	0.623324	0.386384	0.001155
	C125	C	0.623076	0.627845	0.983506
	C126	C	0.380301	0.629421	0.000814
	C127	C	0.380847	0.386627	0.983150
	C128	C	0.009265	0.630039	0.370154
	C129	C	0.992849	0.629534	0.612801
	C130	C	0.009331	0.386027	0.614246
	C131	C	0.992709	0.386612	0.370155
	C132	C	0.880796	0.516325	0.112011
	C133	C	0.124819	0.499543	0.114807
	C134	C	0.122463	0.518133	0.872431
	C135	C	0.879596	0.499830	0.870432
	C136	C	0.122909	0.885868	0.500904
	C137	C	0.122453	0.128654	0.482228
	C138	C	0.879397	0.130066	0.500762
	C139	C	0.880214	0.887654	0.483985
	C140	C	0.511208	0.128571	0.870689
	C141	C	0.494413	0.128743	0.113806
	C142	C	0.511253	0.885967	0.113197
	C143	C	0.493619	0.884447	0.869510
	C144	C	0.378035	0.896034	0.674461
	C145	C	0.625300	0.117558	0.674251
	C146	C	0.626749	0.896599	0.311493
	C147	C	0.376639	0.116405	0.308959
	C148	C	0.684681	0.382170	0.882140
	C149	C	0.685781	0.633185	0.101789
	C150	C	0.318225	0.633773	0.882090
	C151	C	0.322107	0.384210	0.103349
	C152	C	0.890843	0.691685	0.365827
	C153	C	0.110939	0.689924	0.616549
	C154	C	0.890612	0.326436	0.616576
	C155	C	0.111818	0.326423	0.368901
	C156	C	0.890923	0.384664	0.674663
	C157	C	0.111219	0.631888	0.674105
	C158	C	0.890597	0.632872	0.308597
	C159	C	0.112282	0.384967	0.311629
	C160	C	0.376877	0.690011	0.881284
	C161	C	0.627564	0.689763	0.102522
	C162	C	0.627040	0.325104	0.881865
	C163	C	0.378884	0.325812	0.102797
	C164	C	0.685393	0.897633	0.368141
	C165	C	0.684118	0.117362	0.618518
	C166	C	0.318642	0.896878	0.618284
	C167	C	0.319287	0.116483	0.366797
	C168	C	0.878769	0.396990	0.172715
	C169	C	0.125225	0.619071	0.174673
	C170	C	0.123706	0.398404	0.813356
	C171	C	0.874407	0.618175	0.807974
	C172	C	0.184240	0.881308	0.382215
	C173	C	0.183837	0.131988	0.601420
	C174	C	0.817501	0.134058	0.381884
	C175	C	0.818707	0.882422	0.602745
	C176	C	0.392462	0.189397	0.867592
	C177	C	0.611681	0.191246	0.119265
	C178	C	0.393127	0.825189	0.116161
	C179	C	0.611564	0.821731	0.865079
	C180	C	0.393235	0.882533	0.174340
	C181	C	0.611587	0.133423	0.177696
	C182	C	0.391811	0.130232	0.810824
	C183	C	0.611792	0.880674	0.807959
	C184	C	0.876746	0.189922	0.380666
	C185	C	0.125161	0.188671	0.602116
	C186	C	0.124828	0.825631	0.381318
	C187	C	0.876413	0.825055	0.602984
	C188	C	0.181593	0.398386	0.870979
	C189	C	0.185369	0.618391	0.119312
	C190	C	0.820258	0.397846	0.116706
	C191	C	0.815869	0.617283	0.864518
	C192	C	0.405135	0.097951	0.587199
	C193	C	0.597828	0.916164	0.586195
	C194	C	0.596572	0.098587	0.397942
	C195	C	0.405950	0.914752	0.396544
	C196	C	0.597399	0.412721	0.083589
	C197	C	0.595806	0.600463	0.901325
	C198	C	0.406406	0.603689	0.084175
	C199	C	0.404810	0.411884	0.899530
	C200	C	0.091454	0.604232	0.396418
	C201	C	0.910718	0.603317	0.586249
	C202	C	0.092105	0.410995	0.589130
	C203	C	0.909691	0.411518	0.394581
	C204	C	0.905892	0.599218	0.085794
	C205	C	0.100623	0.416725	0.089162
	C206	C	0.097297	0.601637	0.897608
	C207	C	0.906175	0.417258	0.897095
	C208	C	0.097213	0.912347	0.583679
	C209	C	0.096646	0.102862	0.399201
	C210	C	0.905531	0.103874	0.583873
	C211	C	0.906142	0.914274	0.401608
	C212	C	0.593654	0.103288	0.895985
	C213	C	0.412835	0.102741	0.086729
	C214	C	0.593220	0.911947	0.087261
	C215	C	0.411706	0.910836	0.895920
	Zn216	Zn	0.502334	0.007035	0.741316
	Zn217	Zn	0.502600	0.006694	0.242953
	Zn218	Zn	0.751980	0.507253	-0.008054
	Zn219	Zn	0.252594	0.508617	-0.007519
	Zn220	Zn	0.000481	0.758706	0.492011
	Zn221	Zn	0.000685	0.257473	0.491646
	Zn222	Zn	0.000937	0.509441	0.743198
	Zn223	Zn	0.000917	0.508036	0.241205
	Zn224	Zn	0.502554	0.756502	-0.008101
	Zn225	Zn	0.502558	0.258464	-0.008045
	Zn226	Zn	0.751699	0.008435	0.493120
	Zn227	Zn	0.251059	0.006832	0.491634
	N228	N	0.415410	0.970661	0.671391
	N229	N	0.588227	0.042770	0.671083
	N230	N	0.588756	0.971331	0.313754
	N231	N	0.413788	0.041413	0.311030
	N232	N	0.682653	0.419506	0.957299
	N233	N	0.683243	0.595574	0.026804
	N234	N	0.320181	0.597024	0.957739
	N235	N	0.323184	0.421409	0.028044
	N236	N	0.965585	0.690127	0.403260
	N237	N	0.036275	0.688601	0.579311
	N238	N	0.965457	0.327091	0.579842
	N239	N	0.036455	0.327233	0.404458
	N240	N	0.965846	0.421040	0.673428
	N241	N	0.036471	0.595134	0.671830
	N242	N	0.965067	0.595203	0.311160
	N243	N	0.037285	0.421581	0.312338
	N244	N	0.414622	0.687452	0.956302
	N245	N	0.588931	0.686485	0.027990
	N246	N	0.589664	0.327550	0.956729
	N247	N	0.414600	0.326959	0.026862
	N248	N	0.683158	0.972831	0.405041
	N249	N	0.682907	0.042255	0.581313
	N250	N	0.319752	0.971913	0.580841
	N251	N	0.321049	0.041271	0.403948
	N252	N	0.915782	0.471833	0.170052
	N253	N	0.088522	0.544168	0.172336
	N254	N	0.087827	0.474107	0.813956
	N255	N	0.913383	0.544199	0.811649
	N256	N	0.183557	0.917623	0.457937
	N257	N	0.182395	0.095433	0.525916
	N258	N	0.818744	0.097748	0.457853
	N259	N	0.820888	0.920689	0.527963
	N260	N	0.467665	0.188821	0.903685
	N261	N	0.537874	0.188588	0.080220
	N262	N	0.467547	0.827013	0.078865
	N263	N	0.536979	0.823758	0.902451
	N264	N	0.467734	0.919545	0.172615
	N265	N	0.537615	0.095223	0.174486
	N266	N	0.466660	0.093182	0.812348
	N267	N	0.537521	0.918755	0.810551
	N268	N	0.914261	0.187612	0.455719
	N269	N	0.087682	0.186972	0.526853
	N270	N	0.087634	0.828199	0.456343
	N271	N	0.913977	0.828146	0.528091
	N272	N	0.180926	0.474008	0.906933
	N273	N	0.185550	0.542910	0.083040
	N274	N	0.821318	0.473066	0.079769
	N275	N	0.819051	0.542474	0.902682
	O276	O	0.672608	0.409182	0.470945
	H277	H	0.685732	0.398438	0.454632
	H278	H	0.673766	0.411284	0.443098
	O279	O	1.108307	-0.198461	0.788526
	H280	H	1.100279	-0.226946	0.760706
	H281	H	1.139198	-0.186093	0.812864
	O282	O	0.708762	0.572039	0.482713
	H283	H	0.715340	0.594259	0.485028
	H284	H	0.703473	0.553611	0.471110
	O285	O	0.518347	0.590065	0.627392
	H286	H	0.542175	0.590334	0.608487
	H287	H	0.527376	0.599516	0.646362
	O288	O	0.818557	0.913896	0.011245
	H289	H	0.826683	0.905445	0.016716
	H290	H	0.812541	0.899906	0.016496
	O291	O	0.682407	0.685983	0.664964
	H292	H	0.685669	0.681392	0.644698
	H293	H	0.673064	0.681403	0.650750
	O294	O	0.201213	0.210129	1.007850
	H295	H	0.211547	0.217426	1.004834
	H296	H	0.211344	0.189389	1.011844
	O297	O	0.386660	0.330873	0.381814
	H298	H	0.385352	0.329816	0.393004
	H299	H	0.372781	0.329645	0.400980
	O300	O	0.549774	0.526655	0.479377
	H301	H	0.564116	0.514625	0.474977
	H302	H	0.554244	0.549356	0.488352
	O303	O	0.614354	0.366376	0.628973
	H304	H	0.618464	0.397528	0.633481
	H305	H	0.629715	0.350220	0.626959
	O306	O	0.290084	0.533960	0.282987
	H307	H	0.286427	0.512125	0.284428
	H308	H	0.283221	0.521931	0.263586
	O309	O	0.648067	0.529653	0.354942
	H310	H	0.624994	0.532721	0.346422
	H311	H	0.639633	0.524725	0.356214
	O312	O	0.012773	0.962458	1.196839
	H313	H	0.024870	0.977263	1.204995
	H314	H	0.008601	0.965190	1.202102
	O315	O	-0.005308	0.799128	0.990913
	H316	H	-0.012876	0.818613	0.993457
	H317	H	-0.004942	0.797691	0.996828
	O318	O	1.212639	0.032233	0.203959
	H319	H	1.232926	0.023107	0.203653
	H320	H	1.226222	0.041843	0.207234
	O321	O	0.458974	-0.681215	-0.549322
	H322	H	0.460342	-0.687223	-0.526634
	H323	H	0.452601	-0.682162	-0.520648
	O324	O	0.589425	0.374408	0.601046
	H325	H	0.586738	0.359889	0.608704
	H326	H	0.616121	0.366935	0.611640
	O327	O	0.060444	0.198373	0.859162
	H328	H	0.039999	0.193910	0.878104
	H329	H	0.055252	0.180385	0.879128
	O330	O	-0.020842	1.220261	-0.218799
	H331	H	-0.011298	1.239398	-0.203398
	H332	H	-0.027668	1.230686	-0.226382
	O333	O	0.366432	0.518160	0.706865
	H334	H	0.379193	0.526819	0.712398
	H335	H	0.360033	0.529903	0.704786
	O336	O	-0.179233	-0.169139	0.172047
	H337	H	-0.163812	-0.168822	0.158078
	H338	H	-0.150839	-0.182210	0.163536
	O339	O	-0.189647	1.056445	1.037740
	H340	H	-0.184764	1.062443	1.036465
	H341	H	-0.196235	1.053672	1.049858
	O342	O	0.195947	0.905794	0.794696
	H343	H	0.203683	0.916570	0.788056
	H344	H	0.204527	0.905012	0.806061
	O345	O	1.210347	0.797849	-0.028452
	H346	H	1.201834	0.794025	-0.021188
	H347	H	1.223541	0.787389	-0.020854
	O348	O	0.561530	0.400888	0.295568
	H349	H	0.536806	0.403861	0.302828
	H350	H	0.553150	0.400390	0.287936
	O351	O	0.031705	1.225740	1.199958
	H352	H	0.046564	1.229042	1.191580
	H353	H	0.041336	1.246903	1.223598
	O354	O	-0.048860	0.954107	-0.227051
	H355	H	-0.041872	0.945829	-0.227294
	H356	H	-0.055948	0.957626	-0.232194
	O357	O	0.047103	0.013439	0.969413
	H358	H	0.036678	-0.004228	0.980988
	H359	H	0.024562	0.034069	0.976508
	O360	O	0.473515	0.292105	0.702749
	H361	H	0.478251	0.285124	0.720118
	H362	H	0.459359	0.284997	0.716287
	O363	O	0.016785	-0.182365	1.188497
	H364	H	0.023682	-0.186626	1.195019
	H365	H	0.044140	-0.171584	1.196384
	O366	O	0.288592	0.720794	0.472916
	H367	H	0.302792	0.728899	0.477868
	H368	H	0.276134	0.738319	0.467547
	O369	O	0.550310	0.620328	0.401025
	H370	H	0.557650	0.604674	0.397179
	H371	H	0.554238	0.627102	0.420323
	O372	O	0.976671	-0.199701	0.848985
	H373	H	0.982789	-0.194224	0.848006
	H374	H	0.986438	-0.206054	0.827967
	O375	O	0.394487	0.363034	0.528845
	H376	H	0.408988	0.361868	0.536982
	H377	H	0.391404	0.370473	0.542166
	O378	O	0.465769	0.699810	0.384860
	H379	H	0.455342	0.702829	0.416777
	H380	H	0.462892	0.670610	0.372689
	O381	O	0.475861	0.620015	0.552393
	H382	H	0.480095	0.602990	0.545252
	H383	H	0.485022	0.630881	0.568248
	O384	O	0.480465	0.483400	0.316876
	H385	H	0.478807	0.491216	0.323204
	H386	H	0.479992	0.486699	0.322252
	O387	O	0.046320	0.164118	0.887180
	H388	H	0.053156	0.166986	0.907691
	H389	H	0.027752	0.175156	0.895093
	O390	O	-0.017243	0.094321	-0.018058
	H391	H	-0.022897	0.098881	-0.017699
	H392	H	-0.031086	0.100002	0.001385
	O393	O	1.018463	1.172246	1.129672
	H394	H	1.018176	1.155471	1.126279
	H395	H	1.022850	1.177316	1.109717
	O396	O	0.608490	-0.437058	0.453243
	H397	H	0.602817	-0.454495	0.437018
	H398	H	0.609469	-0.458062	0.446727
	O399	O	1.130640	0.033845	0.783759
	H400	H	1.124192	0.039590	0.764598
	H401	H	1.118666	0.033695	0.791260
	O402	O	1.212822	1.065005	0.934595
	H403	H	1.205845	1.045615	0.907639
	H404	H	1.190521	1.062610	0.934624
	O405	O	0.794063	1.029053	-0.220597
	H406	H	0.785509	1.019436	-0.240351
	H407	H	0.780588	1.013697	-0.208198
	O408	O	0.783064	0.186162	-0.011888
	H409	H	0.779692	0.180343	-0.032259
	H410	H	0.765792	0.191337	-0.014043
	O411	O	1.291517	1.301178	0.214258
	H412	H	1.286175	1.301533	0.212767
	H413	H	1.286957	1.296429	0.221093
	O414	O	0.286544	0.356676	0.499971
	H415	H	0.299042	0.372112	0.533938
	H416	H	0.260283	0.336770	0.511075
	O417	O	0.782092	0.890471	0.956207
	H418	H	0.770018	0.860674	0.968820
	H419	H	0.792329	0.905029	0.972670
	O420	O	-0.219430	-0.004102	0.190274
	H421	H	-0.242256	-0.006883	0.224677
	H422	H	-0.210754	-0.037561	0.183735
	O423	O	0.300753	0.577845	0.385411
	H424	H	0.306583	0.564416	0.403840
	H425	H	0.304580	0.552184	0.372194
	O426	O	0.696015	0.316522	0.406397
	H427	H	0.674235	0.311061	0.388485
	H428	H	0.701810	0.318643	0.404853
	O429	O	0.338452	0.562260	0.573754
	H430	H	0.338358	0.556939	0.556971
	H431	H	0.348591	0.573864	0.571987
	O432	O	0.812853	0.193184	0.806622
	H433	H	0.819044	0.172447	0.813020
	H434	H	0.834814	0.177503	0.803666
	O435	O	0.473560	0.721238	0.330046
	H436	H	0.456409	0.728283	0.321841
	H437	H	0.471853	0.731300	0.335308
	O438	O	0.142353	-0.052072	0.057014
	H439	H	0.134971	-0.047289	0.045933
	H440	H	0.133126	-0.043393	0.071668
	O441	O	1.140312	-0.147541	0.081400
	H442	H	1.146729	-0.153776	0.064736
	H443	H	1.125582	-0.141847	0.071232
	O444	O	-0.011674	1.021454	1.199528
	H445	H	-0.005591	1.035863	1.208710
	H446	H	-0.021050	1.020889	1.190440
	O447	O	0.664786	0.501598	0.693933
	H448	H	0.670759	0.494534	0.685765
	H449	H	0.672390	0.517355	0.705553
	O450	O	0.301235	0.388915	0.689969
	H451	H	0.302473	0.426171	0.702734
	H452	H	0.275201	0.385128	0.690281
	O453	O	0.574190	0.682832	0.512604
	H454	H	0.580366	0.677817	0.508213
	H455	H	0.553331	0.690258	0.507096
