data_Molecule from HDF5

_cell_length_a		16.029979
_cell_length_b		16.327257
_cell_length_c		16.316222
_cell_angle_alpha	90.705676
_cell_angle_beta	90.506463
_cell_angle_gamma	90.222873
_symmetry_space_group_name_H-M	'P 1'
_symmetry_Int_Tables_number		1

loop_
	_symmetry_equiv_pos_as_xyz
	x,y,z

loop_
	_atom_site_label
	_atom_site_type_symbol
	_atom_site_fract_x
	_atom_site_fract_y
	_atom_site_fract_z
	H0	H	0.394389	0.831921	0.705765
	H1	H	0.599556	0.155896	0.715976
	H2	H	0.593817	0.832977	0.275126
	H3	H	0.391118	0.156334	0.276244
	H4	H	0.706161	0.397923	0.830551
	H5	H	0.708223	0.594666	0.159393
	H6	H	0.277805	0.592374	0.831123
	H7	H	0.281911	0.401202	0.158953
	H8	H	0.830426	0.707491	0.393185
	H9	H	0.159215	0.714165	0.596876
	H10	H	0.831248	0.282110	0.591434
	H11	H	0.161450	0.282466	0.394183
	H12	H	0.830654	0.397966	0.706952
	H13	H	0.159424	0.601955	0.714058
	H14	H	0.831444	0.596160	0.279778
	H15	H	0.160972	0.397782	0.280724
	H16	H	0.393501	0.709070	0.830491
	H17	H	0.598533	0.717526	0.156107
	H18	H	0.596159	0.274728	0.833734
	H19	H	0.390259	0.278247	0.156052
	H20	H	0.707601	0.831969	0.394674
	H21	H	0.708543	0.159072	0.593924
	H22	H	0.281340	0.830902	0.586701
	H23	H	0.281802	0.159217	0.398395
	H24	H	0.892888	0.335321	0.210387
	H25	H	0.100565	0.658391	0.216282
	H26	H	0.098892	0.337809	0.773845
	H27	H	0.890980	0.659281	0.777829
	H28	H	0.203888	0.897712	0.329130
	H29	H	0.211147	0.095856	0.657389
	H30	H	0.777788	0.091642	0.330302
	H31	H	0.780615	0.898880	0.657545
	H32	H	0.329550	0.209867	0.891773
	H33	H	0.658616	0.214212	0.101044
	H34	H	0.329787	0.782278	0.089682
	H35	H	0.659861	0.780411	0.893491
	H36	H	0.329326	0.894011	0.203627
	H37	H	0.658416	0.097478	0.213077
	H38	H	0.329894	0.093331	0.777448
	H39	H	0.660008	0.894226	0.779268
	H40	H	0.891824	0.212002	0.331142
	H41	H	0.101985	0.217548	0.655412
	H42	H	0.094401	0.776174	0.332372
	H43	H	0.890339	0.777515	0.654912
	H44	H	0.206517	0.333318	0.895535
	H45	H	0.212014	0.660345	0.096205
	H46	H	0.777842	0.334772	0.093235
	H47	H	0.779968	0.661094	0.898696
	H48	H	0.404366	0.109317	0.580449
	H49	H	0.576042	0.881094	0.588900
	H50	H	0.589053	0.113676	0.398202
	H51	H	0.399096	0.876617	0.390852
	H52	H	0.587295	0.401600	0.111926
	H53	H	0.570139	0.588624	0.883501
	H54	H	0.406329	0.601565	0.112494
	H55	H	0.394556	0.400747	0.876501
	H56	H	0.117449	0.588318	0.396874
	H57	H	0.873138	0.596314	0.587386
	H58	H	0.112855	0.404220	0.580788
	H59	H	0.877372	0.408165	0.398026
	H60	H	0.111566	0.414610	0.585271
	H61	H	0.880836	0.585261	0.578160
	H62	H	0.115470	0.594830	0.411895
	H63	H	0.875190	0.398726	0.399150
	H64	H	0.396689	0.587490	0.111373
	H65	H	0.592589	0.601663	0.871950
	H66	H	0.588494	0.407983	0.111095
	H67	H	0.405281	0.407263	0.881479
	H68	H	0.577670	0.109281	0.401958
	H69	H	0.590432	0.881121	0.576423
	H70	H	0.397024	0.114274	0.592426
	H71	H	0.405037	0.879793	0.398267
	H72	H	0.904958	0.611423	0.084780
	H73	H	0.085899	0.378988	0.097274
	H74	H	0.083245	0.611274	0.909740
	H75	H	0.907752	0.384580	0.903193
	H76	H	0.081676	0.907074	0.607846
	H77	H	0.081159	0.101957	0.375896
	H78	H	0.904296	0.092771	0.610615
	H79	H	0.906558	0.897600	0.378897
	H80	H	0.609958	0.086847	0.916322
	H81	H	0.374413	0.088295	0.089011
	H82	H	0.614838	0.912953	0.095218
	H83	H	0.377780	0.906894	0.899115
	H84	H	0.616239	0.896168	0.085948
	H85	H	0.377291	0.089746	0.080780
	H86	H	0.610158	0.076133	0.902137
	H87	H	0.373908	0.897934	0.893779
	H88	H	0.904515	0.088615	0.608113
	H89	H	0.098911	0.087165	0.373998
	H90	H	0.087293	0.899006	0.612340
	H91	H	0.896799	0.899229	0.376412
	H92	H	0.091155	0.614899	0.905225
	H93	H	0.079115	0.385292	0.083199
	H94	H	0.897536	0.615962	0.090970
	H95	H	0.897536	0.381801	0.902677
	H96	H	0.411866	0.110581	0.593484
	H97	H	0.593544	0.874198	0.594165
	H98	H	0.587178	0.109311	0.409832
	H99	H	0.394736	0.877584	0.401117
	H100	H	0.582658	0.405498	0.109659
	H101	H	0.594150	0.575150	0.880098
	H102	H	0.413474	0.586915	0.106549
	H103	H	0.406451	0.394124	0.877748
	H104	H	0.111323	0.580122	0.408320
	H105	H	0.876332	0.582164	0.592925
	H106	H	0.115689	0.406512	0.591737
	H107	H	0.879492	0.404045	0.406206
	H108	H	0.908021	0.613186	0.094705
	H109	H	0.094847	0.379611	0.082781
	H110	H	0.082584	0.614002	0.900898
	H111	H	0.903614	0.380511	0.894654
	H112	H	0.091832	0.908791	0.610320
	H113	H	0.077884	0.079858	0.382018
	H114	H	0.908586	0.091606	0.609193
	H115	H	0.902588	0.906360	0.380031
	H116	H	0.615631	0.093097	0.901314
	H117	H	0.377848	0.082388	0.084186
	H118	H	0.608999	0.911198	0.076038
	H119	H	0.376408	0.898474	0.904020
	C120	C	0.374223	0.003539	0.615057
	C121	C	0.617243	0.986242	0.617085
	C122	C	0.614697	0.003513	0.372706
	C123	C	0.371241	0.986279	0.370008
	C124	C	0.615813	0.374448	0.003290
	C125	C	0.616389	0.619046	0.985877
	C126	C	0.374184	0.618543	0.002487
	C127	C	0.372671	0.373707	0.986544
	C128	C	0.005163	0.616113	0.375242
	C129	C	0.985762	0.619070	0.616992
	C130	C	0.004702	0.377707	0.614899
	C131	C	0.986700	0.374765	0.372071
	C132	C	0.873785	0.505897	0.117493
	C133	C	0.117785	0.488693	0.118012
	C134	C	0.115782	0.506405	0.874094
	C135	C	0.872647	0.489507	0.872463
	C136	C	0.115525	0.874589	0.502193
	C137	C	0.117627	0.119402	0.484880
	C138	C	0.873961	0.118561	0.502100
	C139	C	0.871945	0.872786	0.485414
	C140	C	0.503059	0.114627	0.874825
	C141	C	0.485360	0.117278	0.116662
	C142	C	0.503573	0.876210	0.112998
	C143	C	0.485675	0.872525	0.870554
	C144	C	0.374596	0.880671	0.668461
	C145	C	0.617901	0.107777	0.676032
	C146	C	0.614097	0.881491	0.314484
	C147	C	0.372248	0.108287	0.315001
	C148	C	0.670086	0.376141	0.880344
	C149	C	0.671812	0.616734	0.109708
	C150	C	0.316443	0.613897	0.879716
	C151	C	0.318148	0.378819	0.109499
	C152	C	0.879993	0.670442	0.374704
	C153	C	0.110063	0.676275	0.616636
	C154	C	0.880451	0.320709	0.612136
	C155	C	0.111656	0.320044	0.374385
	C156	C	0.880270	0.377815	0.669948
	C157	C	0.110161	0.620204	0.674714
	C158	C	0.880769	0.615208	0.317710
	C159	C	0.111404	0.377114	0.317826
	C160	C	0.374029	0.671849	0.879408
	C161	C	0.617159	0.677682	0.107974
	C162	C	0.615005	0.315161	0.881749
	C163	C	0.372376	0.317721	0.108107
	C164	C	0.670315	0.881045	0.374297
	C165	C	0.672403	0.109423	0.615456
	C166	C	0.318658	0.880144	0.608927
	C167	C	0.318027	0.109859	0.375827
	C168	C	0.873629	0.383724	0.172361
	C169	C	0.118928	0.610324	0.176825
	C170	C	0.116502	0.385259	0.814478
	C171	C	0.872155	0.611107	0.816642
	C172	C	0.168313	0.876643	0.378899
	C173	C	0.173958	0.116960	0.608096
	C174	C	0.815951	0.113786	0.379308
	C175	C	0.817319	0.877378	0.608411
	C176	C	0.378916	0.171304	0.873161
	C177	C	0.608865	0.175707	0.119182
	C178	C	0.379076	0.820010	0.109777
	C179	C	0.610200	0.817679	0.873127
	C180	C	0.378850	0.875965	0.166559
	C181	C	0.609148	0.117486	0.174984
	C182	C	0.379159	0.113207	0.816204
	C183	C	0.610277	0.874108	0.816159
	C184	C	0.872527	0.173594	0.379650
	C185	C	0.119509	0.177566	0.607152
	C186	C	0.113718	0.816198	0.380402
	C187	C	0.871754	0.816564	0.606802
	C188	C	0.170302	0.383175	0.874962
	C189	C	0.174349	0.611287	0.116896
	C190	C	0.816471	0.383408	0.113935
	C191	C	0.816749	0.611998	0.876853
	C192	C	0.397455	0.089145	0.594850
	C193	C	0.593620	0.900893	0.593440
	C194	C	0.591324	0.088696	0.396330
	C195	C	0.393184	0.900372	0.390399
	C196	C	0.593017	0.398086	0.088785
	C197	C	0.592701	0.595315	0.900704
	C198	C	0.398251	0.598037	0.087854
	C199	C	0.395238	0.394608	0.900908
	C200	C	0.092180	0.594196	0.398802
	C201	C	0.899320	0.594930	0.593215
	C202	C	0.091150	0.401607	0.592561
	C203	C	0.900015	0.397067	0.394291
	C204	C	0.896895	0.591338	0.096455
	C205	C	0.093578	0.403487	0.094665
	C206	C	0.092401	0.591501	0.898169
	C207	C	0.896138	0.404343	0.893949
	C208	C	0.093259	0.897995	0.587898
	C209	C	0.093092	0.096512	0.399469
	C210	C	0.898695	0.097382	0.586959
	C211	C	0.895060	0.894601	0.400471
	C212	C	0.589428	0.091991	0.899519
	C213	C	0.398856	0.093664	0.091645
	C214	C	0.590773	0.899836	0.091888
	C215	C	0.398430	0.894790	0.892333
	Zn216	Zn	0.495438	-0.006108	0.745106
	Zn217	Zn	0.493499	-0.005011	0.242088
	Zn218	Zn	0.744673	0.496925	-0.004913
	Zn219	Zn	0.244605	0.496711	-0.005225
	Zn220	Zn	-0.005677	0.744198	0.493612
	Zn221	Zn	-0.003703	0.248296	0.493907
	Zn222	Zn	-0.004522	0.498367	0.744315
	Zn223	Zn	-0.004331	0.497388	0.247081
	Zn224	Zn	0.494659	0.748573	-0.006565
	Zn225	Zn	0.493982	0.243874	-0.004561
	Zn226	Zn	0.744575	-0.004140	0.494291
	Zn227	Zn	0.244398	-0.004230	0.493552
	N228	N	0.408331	0.958176	0.672682
	N229	N	0.584452	0.030129	0.677061
	N230	N	0.580205	0.958714	0.313378
	N231	N	0.404454	0.030210	0.310949
	N232	N	0.670696	0.412113	0.957049
	N233	N	0.671377	0.580895	0.032970
	N234	N	0.316246	0.581619	0.957156
	N235	N	0.318103	0.412699	0.032634
	N236	N	0.958253	0.671182	0.410001
	N237	N	0.031711	0.675794	0.581619
	N238	N	0.958757	0.320565	0.578749
	N239	N	0.033029	0.318274	0.407307
	N240	N	0.958560	0.412698	0.671622
	N241	N	0.031763	0.585469	0.675200
	N242	N	0.959553	0.582148	0.318053
	N243	N	0.032694	0.410366	0.316199
	N244	N	0.409116	0.674854	0.956655
	N245	N	0.583811	0.679434	0.029896
	N246	N	0.582362	0.313719	0.959578
	N247	N	0.405432	0.314291	0.030645
	N248	N	0.670440	0.957917	0.409874
	N249	N	0.672353	0.032818	0.579714
	N250	N	0.318151	0.957622	0.576611
	N251	N	0.317189	0.033012	0.409142
	N252	N	0.908452	0.460912	0.174773
	N253	N	0.084280	0.533047	0.177587
	N254	N	0.083414	0.462905	0.813729
	N255	N	0.906234	0.533953	0.813792
	N256	N	0.169228	0.912554	0.455704
	N257	N	0.173209	0.081627	0.531164
	N258	N	0.816629	0.080401	0.456453
	N259	N	0.817298	0.911569	0.531967
	N260	N	0.456907	0.172234	0.909124
	N261	N	0.530777	0.175548	0.083483
	N262	N	0.457757	0.820325	0.077130
	N263	N	0.531480	0.816469	0.905976
	N264	N	0.457431	0.910409	0.168719
	N265	N	0.531137	0.082133	0.173768
	N266	N	0.457378	0.078785	0.817158
	N267	N	0.531631	0.907409	0.814479
	N268	N	0.907916	0.176760	0.456710
	N269	N	0.085317	0.179328	0.529514
	N270	N	0.081584	0.814766	0.458258
	N271	N	0.905169	0.813643	0.529434
	N272	N	0.169867	0.459475	0.911461
	N273	N	0.173846	0.534658	0.081159
	N274	N	0.816435	0.460312	0.080498
	N275	N	0.816902	0.535150	0.910728
	O276	O	0.968449	-0.106991	1.097977
	H277	H	0.965165	-0.101200	1.108218
	H278	H	0.960149	-0.110913	1.109701
	O279	O	0.377799	0.475023	0.504636
	H280	H	0.378343	0.464342	0.502472
	H281	H	0.359861	0.468742	0.517879
	O282	O	0.641275	0.476684	0.430930
	H283	H	0.634820	0.481362	0.441039
	H284	H	0.650641	0.467380	0.431398
	O285	O	0.560643	0.444010	0.576924
	H286	H	0.564614	0.455667	0.576739
	H287	H	0.547792	0.442302	0.574107
	O288	O	0.388545	0.506373	0.477791
	H289	H	0.390925	0.508131	0.463958
	H290	H	0.375994	0.499641	0.489798
	O291	O	0.135223	0.077647	0.936679
	H292	H	0.134625	0.069523	0.937486
	H293	H	0.137036	0.091796	0.935212
	O294	O	0.973368	1.159088	-0.035436
	H295	H	0.969230	1.143612	-0.048421
	H296	H	0.965059	1.168045	-0.046252
	O297	O	1.024819	1.043292	-0.128633
	H298	H	1.017148	1.047319	-0.131764
	H299	H	1.032348	1.035725	-0.124458
	O300	O	0.483789	0.510353	0.451521
	H301	H	0.485652	0.516740	0.463832
	H302	H	0.488878	0.502882	0.435525
	O303	O	0.482116	0.506630	0.446131
	H304	H	0.479088	0.503470	0.448381
	H305	H	0.478142	0.502319	0.441970
	O306	O	0.587798	0.499741	0.577719
	H307	H	0.584703	0.501087	0.582700
	H308	H	0.599577	0.493670	0.564362
	O309	O	0.458335	0.458020	0.511996
	H310	H	0.452749	0.456186	0.503706
	H311	H	0.467123	0.457836	0.519141
	O312	O	1.458374	1.498263	1.464071
	H313	H	1.464125	1.503424	1.455318
	H314	H	1.457488	1.505459	1.452717
	O315	O	0.962660	0.999046	0.026941
	H316	H	0.950482	0.985611	0.024201
	H317	H	0.958753	1.018474	0.011190
	O318	O	0.026300	1.076019	1.044370
	H319	H	0.034722	1.092780	1.053121
	H320	H	0.023571	1.073458	1.034874
	O321	O	0.408535	0.514358	0.557669
	H322	H	0.425415	0.517894	0.570632
	H323	H	0.403886	0.513033	0.544842
	O324	O	-0.044910	1.073249	0.918911
	H325	H	-0.045509	1.072863	0.918435
	H326	H	-0.033473	1.081704	0.918270
	O327	O	0.060726	1.078103	0.998547
	H328	H	0.057030	1.076293	0.996939
	H329	H	0.064237	1.074347	0.992378
	O330	O	-0.081700	-0.084510	0.015729
	H331	H	-0.075558	-0.083086	0.016872
	H332	H	-0.089890	-0.082868	0.008996
	O333	O	0.498700	0.413461	0.519787
	H334	H	0.492573	0.402397	0.501225
	H335	H	0.500051	0.410793	0.521762
	O336	O	-0.044139	-0.055401	0.127884
	H337	H	-0.051060	-0.052931	0.127031
	H338	H	-0.063712	-0.057957	0.120649
	O339	O	0.041535	0.098795	0.067615
	H340	H	0.035892	0.102329	0.067969
	H341	H	0.029303	0.103299	0.072182
	O342	O	0.574612	0.540000	0.452961
	H343	H	0.577919	0.545184	0.449103
	H344	H	0.573431	0.549887	0.441677
	O345	O	-0.051848	1.089518	1.116278
	H346	H	-0.050976	1.098961	1.096139
	H347	H	-0.045397	1.095596	1.119271
	O348	O	0.490069	0.350451	0.444278
	H349	H	0.485447	0.345406	0.450684
	H350	H	0.499708	0.344374	0.445667
	O351	O	0.973007	0.062318	-0.026995
	H352	H	0.982519	0.070887	-0.034688
	H353	H	0.984194	0.066338	-0.029601
	O354	O	0.167964	0.845792	-0.094605
	H355	H	0.164851	0.848070	-0.097128
	H356	H	0.179477	0.853854	-0.087547
	O357	O	0.597721	0.525531	0.400383
	H358	H	0.593034	0.513853	0.397463
	H359	H	0.600166	0.533863	0.400660
	O360	O	1.066427	0.021101	1.149244
	H361	H	1.053679	0.046441	1.150024
	H362	H	1.082821	0.014440	1.159095
	O363	O	0.544225	0.641338	0.557504
	H364	H	0.526845	0.646844	0.556205
	H365	H	0.542086	0.648965	0.544963
	O366	O	0.531882	0.421493	0.557363
	H367	H	0.512852	0.418353	0.563291
	H368	H	0.533909	0.435164	0.556775
	O369	O	0.880543	0.046118	0.007079
	H370	H	0.875100	0.058915	-0.002060
	H371	H	0.880067	0.038911	0.003163
	O372	O	0.571229	0.611745	0.612982
	H373	H	0.594457	0.619336	0.629457
	H374	H	0.565876	0.624206	0.612969
	O375	O	0.875944	-0.031268	0.903272
	H376	H	0.868021	-0.023709	0.902601
	H377	H	0.876944	-0.044295	0.913629
	O378	O	0.027039	0.856613	-0.184017
	H379	H	0.033133	0.848788	-0.187036
	H380	H	0.030592	0.844879	-0.189206
	O381	O	-0.064029	0.810911	1.049528
	H382	H	-0.064062	0.805189	1.054809
	H383	H	-0.062818	0.813293	1.045926
	O384	O	0.879188	1.026719	-0.017356
	H385	H	0.876174	1.020941	-0.019748
	H386	H	0.873460	1.025663	-0.018539
	O387	O	0.949574	0.071853	0.907806
	H388	H	0.945155	0.071954	0.909998
	H389	H	0.955116	0.079644	0.911644
	O390	O	1.077322	1.022750	-0.012917
	H391	H	1.086814	1.008357	-0.002382
	H392	H	1.089454	1.020942	-0.015187
	O393	O	0.500009	0.386279	0.494664
	H394	H	0.506542	0.383022	0.500752
	H395	H	0.509868	0.396193	0.509043
