data_Molecule from HDF5

_cell_length_a		16.534657
_cell_length_b		16.312648
_cell_length_c		16.407330
_cell_angle_alpha	89.956755
_cell_angle_beta	89.822603
_cell_angle_gamma	89.936483
_symmetry_space_group_name_H-M	'P 1'
_symmetry_Int_Tables_number		1

loop_
	_symmetry_equiv_pos_as_xyz
	x,y,z

loop_
	_atom_site_label
	_atom_site_type_symbol
	_atom_site_fract_x
	_atom_site_fract_y
	_atom_site_fract_z
	H0	H	0.391406	0.845910	0.728019
	H1	H	0.608645	0.161167	0.723151
	H2	H	0.608595	0.845459	0.280178
	H3	H	0.395216	0.162954	0.279399
	H4	H	0.726375	0.396092	0.843733
	H5	H	0.725782	0.613867	0.155731
	H6	H	0.275805	0.614756	0.845783
	H7	H	0.277609	0.391995	0.158456
	H8	H	0.846466	0.724326	0.398962
	H9	H	0.158812	0.729575	0.612153
	H10	H	0.846511	0.280896	0.610283
	H11	H	0.160058	0.278065	0.394212
	H12	H	0.848673	0.393901	0.729527
	H13	H	0.158595	0.615602	0.729934
	H14	H	0.845967	0.607360	0.281611
	H15	H	0.156651	0.387403	0.271674
	H16	H	0.391705	0.729599	0.845430
	H17	H	0.605245	0.725119	0.158186
	H18	H	0.606452	0.282651	0.842344
	H19	H	0.396440	0.279603	0.160029
	H20	H	0.726478	0.846869	0.394929
	H21	H	0.724765	0.161144	0.608993
	H22	H	0.274331	0.847095	0.614473
	H23	H	0.276435	0.160582	0.391712
	H24	H	0.895865	0.343711	0.223911
	H25	H	0.107173	0.661224	0.223427
	H26	H	0.111087	0.345109	0.779148
	H27	H	0.898209	0.662716	0.782181
	H28	H	0.227451	0.892976	0.345736
	H29	H	0.229281	0.115021	0.658072
	H30	H	0.781875	0.110162	0.344498
	H31	H	0.778002	0.894323	0.659501
	H32	H	0.345367	0.227509	0.893562
	H33	H	0.660997	0.220919	0.102225
	H34	H	0.343441	0.780027	0.110809
	H35	H	0.658175	0.779521	0.894941
	H36	H	0.346043	0.893061	0.230582
	H37	H	0.659927	0.107356	0.221035
	H38	H	0.346303	0.112314	0.775832
	H39	H	0.656649	0.892135	0.775961
	H40	H	0.898829	0.224052	0.344103
	H41	H	0.108753	0.225617	0.661199
	H42	H	0.108588	0.780745	0.344134
	H43	H	0.896190	0.780210	0.661244
	H44	H	0.228632	0.346400	0.891032
	H45	H	0.225360	0.660816	0.111397
	H46	H	0.776888	0.345540	0.110548
	H47	H	0.781870	0.662866	0.896452
	H48	H	0.417562	0.114818	0.590677
	H49	H	0.598554	0.886227	0.589437
	H50	H	0.589140	0.116289	0.416698
	H51	H	0.413791	0.892213	0.420042
	H52	H	0.593477	0.411388	0.116029
	H53	H	0.591112	0.590972	0.886085
	H54	H	0.415219	0.584924	0.111302
	H55	H	0.408501	0.416363	0.886593
	H56	H	0.115876	0.589582	0.413558
	H57	H	0.889893	0.595001	0.594387
	H58	H	0.118259	0.410938	0.593449
	H59	H	0.893622	0.416693	0.417972
	H60	H	0.112334	0.415208	0.584319
	H61	H	0.894453	0.590688	0.586656
	H62	H	0.115275	0.589335	0.413482
	H63	H	0.891662	0.417383	0.410051
	H64	H	0.415929	0.594619	0.114795
	H65	H	0.590386	0.588903	0.887922
	H66	H	0.593049	0.418522	0.114369
	H67	H	0.415683	0.423053	0.892609
	H68	H	0.599694	0.120763	0.414295
	H69	H	0.584370	0.889355	0.593674
	H70	H	0.417582	0.112571	0.583042
	H71	H	0.415191	0.890962	0.415316
	H72	H	0.916782	0.615547	0.090024
	H73	H	0.089513	0.390225	0.087187
	H74	H	0.092808	0.617274	0.915399
	H75	H	0.910767	0.387248	0.912096
	H76	H	0.089832	0.925348	0.611592
	H77	H	0.088948	0.094287	0.389484
	H78	H	0.912372	0.100588	0.619987
	H79	H	0.914526	0.919324	0.390902
	H80	H	0.613447	0.093532	0.915421
	H81	H	0.388740	0.090598	0.091497
	H82	H	0.614288	0.909995	0.091455
	H83	H	0.391445	0.918974	0.918604
	H84	H	0.611160	0.916573	0.087179
	H85	H	0.389734	0.091361	0.090563
	H86	H	0.612308	0.086681	0.910875
	H87	H	0.390650	0.920712	0.912816
	H88	H	0.904318	0.085470	0.617461
	H89	H	0.094597	0.086238	0.390139
	H90	H	0.082211	0.914807	0.613057
	H91	H	0.917595	0.911819	0.389629
	H92	H	0.087055	0.615258	0.914694
	H93	H	0.087393	0.390540	0.087224
	H94	H	0.909696	0.616718	0.086788
	H95	H	0.919025	0.391409	0.913698
	H96	H	0.411398	0.116339	0.586984
	H97	H	0.589016	0.892808	0.580115
	H98	H	0.591173	0.120599	0.406037
	H99	H	0.418429	0.893213	0.418340
	H100	H	0.587591	0.413650	0.114431
	H101	H	0.588583	0.590787	0.887951
	H102	H	0.407794	0.589626	0.115913
	H103	H	0.419005	0.412775	0.889030
	H104	H	0.115435	0.589713	0.413011
	H105	H	0.892906	0.585292	0.594864
	H106	H	0.114012	0.421860	0.593392
	H107	H	0.889894	0.410311	0.414157
	H108	H	0.911175	0.618491	0.094221
	H109	H	0.088432	0.390276	0.084775
	H110	H	0.089644	0.614791	0.920440
	H111	H	0.912521	0.391243	0.920545
	H112	H	0.094774	0.914283	0.617559
	H113	H	0.085013	0.086060	0.393591
	H114	H	0.920677	0.087571	0.612505
	H115	H	0.910053	0.913575	0.388135
	H116	H	0.616306	0.093588	0.907890
	H117	H	0.390308	0.090365	0.090978
	H118	H	0.612677	0.917554	0.095516
	H119	H	0.389281	0.915617	0.914509
	C120	C	0.380542	0.011573	0.622671
	C121	C	0.623295	0.993996	0.621717
	C122	C	0.625186	0.013691	0.380204
	C123	C	0.381720	0.995983	0.382419
	C124	C	0.623910	0.382092	0.009651
	C125	C	0.622016	0.624134	0.991462
	C126	C	0.379355	0.624795	0.010469
	C127	C	0.381051	0.382140	0.993340
	C128	C	0.011558	0.622708	0.381730
	C129	C	0.995147	0.625105	0.625416
	C130	C	0.012002	0.382045	0.624487
	C131	C	0.994664	0.380150	0.379795
	C132	C	0.879463	0.512132	0.123867
	C133	C	0.122608	0.494239	0.122141
	C134	C	0.124537	0.511848	0.881462
	C135	C	0.882093	0.494957	0.881798
	C136	C	0.123823	0.882415	0.510815
	C137	C	0.123993	0.124154	0.494519
	C138	C	0.881252	0.124711	0.511829
	C139	C	0.880769	0.881308	0.494001
	C140	C	0.510834	0.125607	0.877917
	C141	C	0.493700	0.123546	0.122228
	C142	C	0.509687	0.880592	0.126059
	C143	C	0.493348	0.882821	0.880565
	C144	C	0.374769	0.893355	0.686667
	C145	C	0.625981	0.113509	0.682825
	C146	C	0.627164	0.893534	0.320128
	C147	C	0.377914	0.115124	0.320185
	C148	C	0.685308	0.378557	0.890778
	C149	C	0.683914	0.629828	0.109153
	C150	C	0.316894	0.630792	0.892831
	C151	C	0.318813	0.376033	0.111617
	C152	C	0.893384	0.683707	0.380223
	C153	C	0.112385	0.688300	0.629461
	C154	C	0.894126	0.320489	0.628318
	C155	C	0.112453	0.317879	0.376009
	C156	C	0.895102	0.377218	0.687641
	C157	C	0.112208	0.631146	0.688068
	C158	C	0.893195	0.625520	0.321998
	C159	C	0.110706	0.372637	0.314788
	C160	C	0.374614	0.688285	0.892494
	C161	C	0.623830	0.685321	0.110413
	C162	C	0.625784	0.322229	0.890064
	C163	C	0.377712	0.319501	0.111981
	C164	C	0.685786	0.894030	0.377025
	C165	C	0.684218	0.113492	0.626185
	C166	C	0.316223	0.893991	0.630149
	C167	C	0.318465	0.114038	0.376019
	C168	C	0.876948	0.392137	0.184557
	C169	C	0.125630	0.613585	0.183729
	C170	C	0.128562	0.392944	0.819269
	C171	C	0.879731	0.614837	0.821592
	C172	C	0.186174	0.876562	0.392828
	C173	C	0.187187	0.130317	0.611930
	C174	C	0.821951	0.127924	0.392361
	C175	C	0.818930	0.877065	0.612427
	C176	C	0.393028	0.187404	0.874941
	C177	C	0.613066	0.182399	0.121997
	C178	C	0.391403	0.819866	0.129453
	C179	C	0.610846	0.820164	0.876936
	C180	C	0.392760	0.876229	0.189372
	C181	C	0.612694	0.125787	0.181139
	C182	C	0.393373	0.129887	0.816139
	C183	C	0.610145	0.876084	0.817345
	C184	C	0.880225	0.184792	0.392142
	C185	C	0.127431	0.185849	0.613217
	C186	C	0.127130	0.820414	0.392228
	C187	C	0.877813	0.820180	0.613105
	C188	C	0.187478	0.393429	0.875194
	C189	C	0.184353	0.613145	0.127473
	C190	C	0.817628	0.393189	0.128127
	C191	C	0.821808	0.614925	0.878521
	C192	C	0.407869	0.093310	0.594699
	C193	C	0.597926	0.911188	0.595366
	C194	C	0.600492	0.097319	0.405174
	C195	C	0.408267	0.913677	0.409828
	C196	C	0.598736	0.407384	0.092937
	C197	C	0.596996	0.597863	0.908856
	C198	C	0.405494	0.597621	0.092552
	C199	C	0.406959	0.409457	0.910973
	C200	C	0.093884	0.596978	0.406411
	C201	C	0.913714	0.598103	0.599271
	C202	C	0.093672	0.408446	0.597957
	C203	C	0.913004	0.407168	0.406338
	C204	C	0.905224	0.595254	0.097838
	C205	C	0.095984	0.411898	0.094618
	C206	C	0.097524	0.594300	0.908888
	C207	C	0.906925	0.411734	0.907880
	C208	C	0.096803	0.910204	0.592670
	C209	C	0.097397	0.096732	0.412682
	C210	C	0.905366	0.098717	0.594930
	C211	C	0.906625	0.907428	0.411187
	C212	C	0.592600	0.098808	0.903972
	C213	C	0.411251	0.098231	0.098052
	C214	C	0.591466	0.907006	0.098978
	C215	C	0.411730	0.910505	0.907591
	Zn216	Zn	0.502326	0.002352	0.749813
	Zn217	Zn	0.502293	0.004555	0.253528
	Zn218	Zn	0.752256	0.503564	0.000603
	Zn219	Zn	0.251673	0.502671	0.002296
	Zn220	Zn	0.003451	0.753334	0.502946
	Zn221	Zn	0.003241	0.252443	0.503116
	Zn222	Zn	0.003548	0.503739	0.754016
	Zn223	Zn	0.002733	0.501967	0.250776
	Zn224	Zn	0.500353	0.753393	0.001283
	Zn225	Zn	0.502201	0.253548	0.001212
	Zn226	Zn	0.752932	0.003426	0.502530
	Zn227	Zn	0.252371	0.003315	0.502028
	N228	N	0.414191	0.967321	0.681992
	N229	N	0.588790	0.038267	0.680216
	N230	N	0.590005	0.968785	0.322179
	N231	N	0.416655	0.040659	0.324256
	N232	N	0.684321	0.414798	0.966391
	N233	N	0.682675	0.592464	0.034308
	N234	N	0.319661	0.591913	0.967252
	N235	N	0.320561	0.413995	0.036836
	N236	N	0.967983	0.681836	0.416767
	N237	N	0.038807	0.684626	0.591018
	N238	N	0.967876	0.323390	0.589715
	N239	N	0.039183	0.322419	0.415649
	N240	N	0.969374	0.414749	0.685495
	N241	N	0.038442	0.592395	0.685439
	N242	N	0.967727	0.588224	0.322708
	N243	N	0.036466	0.410478	0.316765
	N244	N	0.412547	0.684875	0.966663
	N245	N	0.585741	0.681829	0.036286
	N246	N	0.588590	0.324099	0.964951
	N247	N	0.415566	0.323061	0.037313
	N248	N	0.684599	0.969814	0.413586
	N249	N	0.682418	0.038451	0.588553
	N250	N	0.319502	0.968517	0.591159
	N251	N	0.320775	0.038953	0.414046
	N252	N	0.914749	0.467114	0.181991
	N253	N	0.088192	0.538405	0.180750
	N254	N	0.090239	0.467718	0.823130
	N255	N	0.916453	0.539213	0.823379
	N256	N	0.184453	0.914038	0.467769
	N257	N	0.185107	0.092695	0.536868
	N258	N	0.822184	0.091470	0.467857
	N259	N	0.820657	0.914201	0.537264
	N260	N	0.467039	0.184975	0.912500
	N261	N	0.537963	0.181293	0.086219
	N262	N	0.465217	0.822344	0.090837
	N263	N	0.536963	0.824230	0.915503
	N264	N	0.467685	0.912919	0.187694
	N265	N	0.537551	0.090044	0.181581
	N266	N	0.467855	0.092384	0.817764
	N267	N	0.536107	0.914410	0.819754
	N268	N	0.916249	0.183026	0.467648
	N269	N	0.088865	0.182116	0.539240
	N270	N	0.089167	0.823754	0.466826
	N271	N	0.915577	0.822623	0.538344
	N272	N	0.185204	0.468555	0.912837
	N273	N	0.182476	0.537784	0.089936
	N274	N	0.819057	0.468881	0.091353
	N275	N	0.822937	0.539180	0.914972
	O276	O	0.280570	0.519484	0.284496
	H277	H	0.249834	0.518693	0.259527
	H278	H	0.280980	0.535282	0.302580
	O279	O	1.218113	0.218743	1.020034
	H280	H	1.246209	0.218489	1.013282
	H281	H	1.233167	0.212758	1.029438
	O282	O	0.379350	0.309690	0.476429
	H283	H	0.373286	0.300014	0.457037
	H284	H	0.377413	0.314839	0.473038
	O285	O	0.540823	0.699373	0.606885
	H286	H	0.505389	0.710578	0.620455
	H287	H	0.555271	0.683750	0.624074
	O288	O	0.790307	0.787058	0.216978
	H289	H	0.782630	0.778150	0.215531
	H290	H	0.792145	0.770837	0.226888
	O291	O	0.562192	0.383254	0.644910
	H292	H	0.538709	0.384599	0.637496
	H293	H	0.548508	0.370654	0.647922
	O294	O	0.180426	-0.177435	0.829144
	H295	H	0.136873	-0.180006	0.822363
	H296	H	0.180600	-0.136039	0.815454
	O297	O	0.617941	0.528522	0.283625
	H298	H	0.626487	0.540499	0.264810
	H299	H	0.584165	0.532969	0.285668
	O300	O	0.723265	0.517560	0.483394
	H301	H	0.699462	0.508929	0.481392
	H302	H	0.726003	0.499052	0.455010
	O303	O	0.641582	0.399094	0.603297
	H304	H	0.633740	0.400203	0.595812
	H305	H	0.622188	0.406060	0.587671
	O306	O	0.361432	0.444649	0.368104
	H307	H	0.365251	0.442905	0.359869
	H308	H	0.342878	0.463699	0.358524
	O309	O	0.720154	0.460756	0.392003
	H310	H	0.731505	0.464601	0.375057
	H311	H	0.694341	0.467947	0.389519
	O312	O	-0.025724	0.797415	1.172512
	H313	H	-0.028997	0.815618	1.165212
	H314	H	-0.029310	0.778989	1.185286
	O315	O	0.477688	0.718076	0.288602
	H316	H	0.487296	0.746983	0.275579
	H317	H	0.495401	0.736805	0.311342
	O318	O	1.186943	-0.000266	0.208381
	H319	H	1.177644	0.033961	0.207949
	H320	H	1.190208	-0.003062	0.228455
	O321	O	0.076960	0.146776	-0.081028
	H322	H	0.082094	0.137161	-0.081932
	H323	H	0.087950	0.161421	-0.075187
	O324	O	0.699662	0.307493	0.389265
	H325	H	0.681930	0.303324	0.402359
	H326	H	0.717536	0.309953	0.377459
	O327	O	0.319788	0.327726	0.681533
	H328	H	0.311119	0.317249	0.627385
	H329	H	0.332786	0.353259	0.692829
	O330	O	0.033836	1.065112	-0.079125
	H331	H	0.018989	1.043412	-0.065673
	H332	H	0.024057	1.078625	-0.070713
	O333	O	0.278788	0.370765	0.475717
	H334	H	0.262102	0.371777	0.493709
	H335	H	0.270395	0.379338	0.467866
	O336	O	0.040260	0.028495	-0.007887
	H337	H	0.054769	0.031792	0.016730
	H338	H	0.029951	0.018232	0.001511
	O339	O	0.212944	0.794418	0.988584
	H340	H	0.203344	0.799478	0.940950
	H341	H	0.237256	0.764834	0.981885
	O342	O	0.001635	0.806302	1.037324
	H343	H	0.019822	0.814573	1.050453
	H344	H	0.012105	0.797459	1.012207
	O345	O	0.878142	1.007858	-0.024050
	H346	H	0.875753	1.000771	-0.018171
	H347	H	0.904487	0.991347	-0.013060
	O348	O	0.320003	0.677840	0.326628
	H349	H	0.310620	0.657952	0.343691
	H350	H	0.372181	0.691234	0.311750
	O351	O	-0.028486	0.887395	0.800646
	H352	H	-0.056084	0.902680	0.807576
	H353	H	-0.036613	0.895762	0.806703
	O354	O	-0.119152	1.186341	-0.185045
	H355	H	-0.101720	1.170873	-0.180128
	H356	H	-0.090507	1.191991	-0.194531
	O357	O	-0.009184	0.130311	0.795088
	H358	H	-0.015515	0.143019	0.778243
	H359	H	0.002363	0.128326	0.826918
	O360	O	0.514077	0.420983	0.525180
	H361	H	0.520049	0.431609	0.506981
	H362	H	0.512456	0.426601	0.523862
	O363	O	-0.202943	-0.189413	1.005635
	H364	H	-0.211757	-0.205700	1.020893
	H365	H	-0.184999	-0.188478	0.995117
	O366	O	0.490995	0.294710	0.374841
	H367	H	0.498615	0.287049	0.352207
	H368	H	0.501038	0.295460	0.389186
	O369	O	0.378390	0.629416	0.625996
	H370	H	0.376932	0.644780	0.621504
	H371	H	0.376400	0.632000	0.646039
	O372	O	1.003915	0.002738	1.214906
	H373	H	1.000703	0.013855	1.214622
	H374	H	0.999691	0.005609	1.216584
	O375	O	0.281667	0.487623	0.717239
	H376	H	0.269129	0.464279	0.736202
	H377	H	0.290078	0.501569	0.736038
	O378	O	0.499880	0.641726	0.625909
	H379	H	0.503521	0.657719	0.644830
	H380	H	0.518229	0.628023	0.623746
	O381	O	0.522292	0.381833	0.598093
	H382	H	0.514769	0.382319	0.582091
	H383	H	0.517295	0.364628	0.622354
	O384	O	0.704547	0.302260	0.410974
	H385	H	0.711217	0.285923	0.422886
	H386	H	0.717380	0.330866	0.408569
	O387	O	-0.176369	-0.047502	0.806892
	H388	H	-0.195335	-0.033412	0.817083
	H389	H	-0.193234	-0.042853	0.819337
	O390	O	0.181242	0.177382	0.181030
	H391	H	0.135654	0.180013	0.191003
	H392	H	0.182690	0.176123	0.148351
	O393	O	1.207416	1.007497	0.829163
	H394	H	1.180511	1.025426	0.837437
	H395	H	1.226187	1.011935	0.810422
	O396	O	0.820787	0.074160	-0.062499
	H397	H	0.809933	0.089000	-0.079414
	H398	H	0.833224	0.062636	-0.084499
	O399	O	0.850147	0.196811	1.077731
	H400	H	0.855580	0.187573	1.053232
	H401	H	0.828563	0.186516	1.058889
	O402	O	0.936901	1.145198	1.060217
	H403	H	0.930372	1.135649	1.069418
	H404	H	0.949946	1.157486	1.060181
	O405	O	0.955768	0.855638	-0.115088
	H406	H	0.959696	0.848639	-0.129182
	H407	H	0.949733	0.881843	-0.110601
	O408	O	1.034293	0.062582	0.117033
	H409	H	1.046031	0.081133	0.127001
	H410	H	1.024117	0.058442	0.116131
	O411	O	0.802324	0.933308	0.184424
	H412	H	0.783759	0.946140	0.181155
	H413	H	0.790559	0.898540	0.186704
	O414	O	0.478272	0.375253	0.297479
	H415	H	0.482224	0.381683	0.303904
	H416	H	0.485219	0.354197	0.281964
	O417	O	0.461384	0.395157	0.711227
	H418	H	0.445290	0.379065	0.734957
	H419	H	0.431153	0.403192	0.706064
	O420	O	0.149773	-0.100746	0.059365
	H421	H	0.158005	-0.099244	0.096313
	H422	H	0.161586	-0.128397	0.055279
	O423	O	0.718178	0.527067	0.713899
	H424	H	0.745935	0.529345	0.733352
	H425	H	0.705449	0.501145	0.703434
	O426	O	0.700214	0.654360	0.348982
	H427	H	0.692469	0.636908	0.350803
	H428	H	0.683745	0.633077	0.365714
	O429	O	0.286262	0.719223	0.485271
	H430	H	0.294435	0.699673	0.470256
	H431	H	0.248972	0.748729	0.482152
	O432	O	0.536857	0.507827	0.500196
	H433	H	0.517801	0.486028	0.504681
	H434	H	0.536071	0.510315	0.500780
	O435	O	0.647601	0.715514	0.490437
	H436	H	0.648799	0.675691	0.483197
	H437	H	0.675347	0.733639	0.499094
	O438	O	-0.044078	0.136810	0.163201
	H439	H	-0.056544	0.139770	0.157736
	H440	H	-0.056040	0.144772	0.162929
	O441	O	1.220747	0.042841	0.014072
	H442	H	1.215010	0.018468	0.011527
	H443	H	1.215140	0.014537	0.022126
	O444	O	-0.199149	1.133251	0.920690
	H445	H	-0.216082	1.153866	0.916382
	H446	H	-0.197533	1.133088	0.904732
	O447	O	0.512549	0.723559	0.488167
	H448	H	0.498915	0.717757	0.497623
	H449	H	0.512806	0.720441	0.487170
	O450	O	0.678755	0.690083	0.613033
	H451	H	0.689908	0.653550	0.631709
	H452	H	0.697659	0.691219	0.580961
	O453	O	0.370769	0.554775	0.646723
	H454	H	0.387309	0.534566	0.670438
	H455	H	0.386464	0.591108	0.645595
