data_Molecule from HDF5

_cell_length_a		16.233272
_cell_length_b		16.315047
_cell_length_c		16.183470
_cell_angle_alpha	89.784151
_cell_angle_beta	89.363176
_cell_angle_gamma	90.172915
_symmetry_space_group_name_H-M	'P 1'
_symmetry_Int_Tables_number		1

loop_
	_symmetry_equiv_pos_as_xyz
	x,y,z

loop_
	_atom_site_label
	_atom_site_type_symbol
	_atom_site_fract_x
	_atom_site_fract_y
	_atom_site_fract_z
	H0	H	0.394995	0.837033	0.713998
	H1	H	0.598671	0.161759	0.708459
	H2	H	0.597774	0.836160	0.278800
	H3	H	0.398136	0.160945	0.280241
	H4	H	0.719009	0.394277	0.835018
	H5	H	0.711490	0.597408	0.160455
	H6	H	0.284107	0.599953	0.833750
	H7	H	0.280557	0.397658	0.160740
	H8	H	0.838179	0.716362	0.392002
	H9	H	0.162807	0.713687	0.593270
	H10	H	0.837187	0.276093	0.602228
	H11	H	0.161969	0.279662	0.391675
	H12	H	0.837086	0.392091	0.717268
	H13	H	0.161934	0.599887	0.711131
	H14	H	0.834359	0.592747	0.285661
	H15	H	0.162763	0.400240	0.279689
	H16	H	0.394757	0.717164	0.834850
	H17	H	0.599432	0.716483	0.158632
	H18	H	0.601396	0.283285	0.832542
	H19	H	0.395521	0.281262	0.160498
	H20	H	0.716487	0.836899	0.390876
	H21	H	0.715511	0.160128	0.594038
	H22	H	0.281253	0.835544	0.599635
	H23	H	0.282344	0.159798	0.395981
	H24	H	0.897916	0.334952	0.213840
	H25	H	0.097964	0.660439	0.208777
	H26	H	0.102262	0.335939	0.777694
	H27	H	0.898617	0.658903	0.779168
	H28	H	0.217564	0.897512	0.333026
	H29	H	0.211764	0.095703	0.660831
	H30	H	0.788199	0.098008	0.331884
	H31	H	0.778347	0.893133	0.657207
	H32	H	0.334517	0.214198	0.897068
	H33	H	0.662236	0.214298	0.094362
	H34	H	0.335073	0.781140	0.099347
	H35	H	0.659806	0.780507	0.891807
	H36	H	0.334648	0.899243	0.213196
	H37	H	0.662901	0.098347	0.208110
	H38	H	0.334117	0.098613	0.780901
	H39	H	0.661110	0.900103	0.778681
	H40	H	0.898730	0.214105	0.333592
	H41	H	0.100853	0.214436	0.658715
	H42	H	0.102384	0.783968	0.331518
	H43	H	0.896773	0.779133	0.658046
	H44	H	0.216410	0.335903	0.894499
	H45	H	0.212013	0.660348	0.093878
	H46	H	0.778470	0.335844	0.102737
	H47	H	0.783230	0.658899	0.895981
	H48	H	0.404080	0.116134	0.591201
	H49	H	0.590006	0.883856	0.581841
	H50	H	0.596695	0.114830	0.403606
	H51	H	0.407356	0.882700	0.406703
	H52	H	0.582930	0.399695	0.112824
	H53	H	0.596367	0.585142	0.879303
	H54	H	0.397822	0.588167	0.115451
	H55	H	0.415168	0.393502	0.878490
	H56	H	0.114289	0.589192	0.408085
	H57	H	0.882661	0.584886	0.592111
	H58	H	0.113282	0.409094	0.584424
	H59	H	0.883280	0.407454	0.402725
	H60	H	0.115054	0.405575	0.587903
	H61	H	0.881618	0.593060	0.585895
	H62	H	0.117492	0.585931	0.394193
	H63	H	0.881211	0.399420	0.406807
	H64	H	0.409574	0.583408	0.110796
	H65	H	0.584679	0.585591	0.883111
	H66	H	0.593502	0.405429	0.115423
	H67	H	0.392674	0.408045	0.875962
	H68	H	0.594016	0.116577	0.397543
	H69	H	0.591055	0.880714	0.589768
	H70	H	0.408993	0.112780	0.587149
	H71	H	0.407382	0.882178	0.404868
	H72	H	0.898361	0.616730	0.094042
	H73	H	0.080906	0.382053	0.094121
	H74	H	0.089428	0.612131	0.905098
	H75	H	0.914765	0.384719	0.910300
	H76	H	0.100724	0.903514	0.616784
	H77	H	0.091762	0.088820	0.379868
	H78	H	0.910526	0.088515	0.612318
	H79	H	0.917073	0.902400	0.380015
	H80	H	0.613932	0.087359	0.901475
	H81	H	0.380294	0.088077	0.098845
	H82	H	0.614396	0.901936	0.080736
	H83	H	0.380571	0.900889	0.908038
	H84	H	0.612617	0.912330	0.084160
	H85	H	0.380653	0.099571	0.085255
	H86	H	0.615925	0.093671	0.897671
	H87	H	0.383357	0.911310	0.909991
	H88	H	0.903078	0.089547	0.614923
	H89	H	0.091852	0.088522	0.379326
	H90	H	0.083238	0.914891	0.608241
	H91	H	0.903189	0.900855	0.374566
	H92	H	0.094759	0.613893	0.904533
	H93	H	0.090260	0.383089	0.078586
	H94	H	0.912041	0.612518	0.093363
	H95	H	0.904136	0.381712	0.911937
	H96	H	0.402264	0.114475	0.584471
	H97	H	0.583590	0.883406	0.587974
	H98	H	0.589689	0.113490	0.402663
	H99	H	0.408382	0.882749	0.405308
	H100	H	0.583555	0.411109	0.110670
	H101	H	0.589942	0.595373	0.878500
	H102	H	0.408508	0.596347	0.114365
	H103	H	0.415212	0.418289	0.886081
	H104	H	0.119711	0.599881	0.399583
	H105	H	0.886208	0.584554	0.582211
	H106	H	0.114496	0.403964	0.582028
	H107	H	0.884234	0.406149	0.411443
	H108	H	0.903695	0.611611	0.081677
	H109	H	0.098495	0.377259	0.093380
	H110	H	0.091570	0.614272	0.899677
	H111	H	0.908220	0.379555	0.901758
	H112	H	0.080681	0.893000	0.612947
	H113	H	0.091768	0.088235	0.379291
	H114	H	0.905976	0.082473	0.611678
	H115	H	0.907134	0.913774	0.380926
	H116	H	0.614152	0.093650	0.904697
	H117	H	0.385185	0.083285	0.082592
	H118	H	0.616795	0.904355	0.091714
	H119	H	0.379649	0.907415	0.899987
	C120	C	0.375270	0.007043	0.618149
	C121	C	0.618874	0.989991	0.615474
	C122	C	0.621971	0.007527	0.371926
	C123	C	0.377715	0.989812	0.375631
	C124	C	0.619303	0.375866	0.005628
	C125	C	0.619290	0.618878	0.987958
	C126	C	0.376794	0.619222	0.005569
	C127	C	0.376354	0.376299	0.988249
	C128	C	0.008891	0.620095	0.372512
	C129	C	0.991259	0.618054	0.615699
	C130	C	0.007182	0.374596	0.617484
	C131	C	0.990769	0.375455	0.375457
	C132	C	0.875145	0.506135	0.120018
	C133	C	0.119178	0.488716	0.116973
	C134	C	0.121974	0.506489	0.872842
	C135	C	0.878352	0.488625	0.876310
	C136	C	0.120178	0.875446	0.504715
	C137	C	0.120507	0.117822	0.487841
	C138	C	0.877971	0.117855	0.504728
	C139	C	0.877284	0.874822	0.486272
	C140	C	0.506396	0.120480	0.873278
	C141	C	0.490112	0.120132	0.117546
	C142	C	0.506760	0.876515	0.116989
	C143	C	0.488821	0.876638	0.874214
	C144	C	0.375857	0.885186	0.675531
	C145	C	0.618163	0.112783	0.670755
	C146	C	0.619000	0.884740	0.316436
	C147	C	0.378771	0.112058	0.318927
	C148	C	0.679039	0.376038	0.883294
	C149	C	0.674442	0.617997	0.111189
	C150	C	0.321545	0.618966	0.882792
	C151	C	0.318852	0.377268	0.111691
	C152	C	0.886162	0.676434	0.374011
	C153	C	0.113908	0.675263	0.613508
	C154	C	0.885522	0.315439	0.620499
	C155	C	0.113471	0.319145	0.373995
	C156	C	0.885551	0.373397	0.677826
	C157	C	0.113460	0.618456	0.672085
	C158	C	0.884355	0.615508	0.320650
	C159	C	0.113645	0.378750	0.317894
	C160	C	0.376880	0.677518	0.883298
	C161	C	0.618370	0.676843	0.110314
	C162	C	0.620634	0.320196	0.882020
	C163	C	0.376099	0.319263	0.111355
	C164	C	0.677922	0.885359	0.372139
	C165	C	0.676393	0.111936	0.613699
	C166	C	0.318795	0.884690	0.618765
	C167	C	0.320844	0.111528	0.376420
	C168	C	0.877034	0.383907	0.176383
	C169	C	0.117662	0.611555	0.171514
	C170	C	0.121555	0.384427	0.816113
	C171	C	0.879029	0.610405	0.818127
	C172	C	0.178687	0.877547	0.381727
	C173	C	0.174899	0.116253	0.611285
	C174	C	0.824478	0.117664	0.381377
	C175	C	0.818212	0.874316	0.608662
	C176	C	0.383506	0.176197	0.876329
	C177	C	0.613176	0.176105	0.114705
	C178	C	0.383907	0.819735	0.118288
	C179	C	0.611299	0.819447	0.872915
	C180	C	0.383756	0.878527	0.174815
	C181	C	0.613525	0.118023	0.171244
	C182	C	0.383230	0.118662	0.818522
	C183	C	0.611844	0.879034	0.816699
	C184	C	0.879626	0.175857	0.382406
	C185	C	0.119517	0.175017	0.610236
	C186	C	0.120917	0.821133	0.380802
	C187	C	0.876853	0.817439	0.609103
	C188	C	0.178290	0.384410	0.874258
	C189	C	0.174400	0.611475	0.114337
	C190	C	0.817637	0.384270	0.121066
	C191	C	0.821743	0.610469	0.876462
	C192	C	0.398316	0.092428	0.594489
	C193	C	0.595296	0.904940	0.593209
	C194	C	0.599941	0.092613	0.394591
	C195	C	0.400846	0.904511	0.398673
	C196	C	0.594127	0.398911	0.090987
	C197	C	0.596946	0.595391	0.902603
	C198	C	0.399066	0.595962	0.091313
	C199	C	0.400548	0.399676	0.902253
	C200	C	0.094877	0.598133	0.394143
	C201	C	0.905774	0.594381	0.593167
	C202	C	0.092159	0.398964	0.592028
	C203	C	0.905229	0.397699	0.399842
	C204	C	0.898071	0.591629	0.096363
	C205	C	0.096447	0.402972	0.095018
	C206	C	0.098704	0.591321	0.896081
	C207	C	0.902117	0.403991	0.900766
	C208	C	0.095505	0.897412	0.590391
	C209	C	0.098225	0.095187	0.401886
	C210	C	0.900211	0.093737	0.590879
	C211	C	0.901851	0.898688	0.400811
	C212	C	0.592238	0.098071	0.894920
	C213	C	0.404247	0.097074	0.095427
	C214	C	0.592452	0.899336	0.092484
	C215	C	0.403340	0.899669	0.898976
	Zn216	Zn	0.497219	-0.001268	0.745007
	Zn217	Zn	0.498970	-0.001560	0.245266
	Zn218	Zn	0.747691	0.496674	-0.002558
	Zn219	Zn	0.248104	0.498016	-0.003153
	Zn220	Zn	-0.000352	0.747413	0.494328
	Zn221	Zn	-0.001012	0.245792	0.496389
	Zn222	Zn	-0.000656	0.497208	0.745409
	Zn223	Zn	-0.001311	0.497659	0.246091
	Zn224	Zn	0.497722	0.747695	-0.003702
	Zn225	Zn	0.498329	0.248182	-0.003990
	Zn226	Zn	0.749690	-0.001977	0.494862
	Zn227	Zn	0.248256	-0.003102	0.497055
	N228	N	0.410281	0.962161	0.675342
	N229	N	0.582889	0.035884	0.671955
	N230	N	0.585163	0.961669	0.315784
	N231	N	0.413437	0.035225	0.318222
	N232	N	0.678238	0.409984	0.961029
	N233	N	0.675089	0.582550	0.034302
	N234	N	0.321331	0.583149	0.959844
	N235	N	0.318985	0.412024	0.034126
	N236	N	0.964554	0.679687	0.405238
	N237	N	0.036698	0.675170	0.579240
	N238	N	0.962219	0.315962	0.583913
	N239	N	0.035987	0.317017	0.409121
	N240	N	0.962331	0.409509	0.676052
	N241	N	0.036272	0.583586	0.673516
	N242	N	0.961690	0.581023	0.319619
	N243	N	0.036400	0.413152	0.318725
	N244	N	0.410649	0.677927	0.960635
	N245	N	0.584988	0.677749	0.032516
	N246	N	0.583992	0.320020	0.958945
	N247	N	0.410964	0.318463	0.033531
	N248	N	0.680205	0.962599	0.405780
	N249	N	0.677007	0.034638	0.580164
	N250	N	0.318372	0.961633	0.583815
	N251	N	0.320285	0.034524	0.411038
	N252	N	0.911830	0.460768	0.176086
	N253	N	0.083754	0.534243	0.172984
	N254	N	0.087312	0.461243	0.815094
	N255	N	0.913512	0.533713	0.818084
	N256	N	0.178186	0.910888	0.459749
	N257	N	0.175861	0.081533	0.533939
	N258	N	0.823367	0.082404	0.458665
	N259	N	0.818258	0.909231	0.531243
	N260	N	0.461143	0.177776	0.909294
	N261	N	0.535206	0.177719	0.082407
	N262	N	0.461449	0.818518	0.083040
	N263	N	0.533656	0.817773	0.907799
	N264	N	0.461206	0.912949	0.174214
	N265	N	0.535756	0.083945	0.173202
	N266	N	0.460758	0.084877	0.816502
	N267	N	0.534511	0.913432	0.817213
	N268	N	0.912335	0.176055	0.460399
	N269	N	0.086550	0.176242	0.532444
	N270	N	0.085354	0.819624	0.458211
	N271	N	0.912710	0.817553	0.531929
	N272	N	0.179103	0.461440	0.908508
	N273	N	0.175388	0.534040	0.081245
	N274	N	0.816250	0.461449	0.086660
	N275	N	0.821158	0.533651	0.911813
	O276	O	0.020798	0.055932	-0.155078
	H277	H	0.003925	0.062063	-0.156586
	H278	H	0.000185	0.059019	-0.156624
	O279	O	0.513781	0.576385	0.400823
	H280	H	0.513213	0.566186	0.411665
	H281	H	0.504931	0.579233	0.401461
	O282	O	1.012849	0.006767	-0.058497
	H283	H	1.007070	0.005568	-0.047234
	H284	H	1.017300	0.014624	-0.060091
	O285	O	-0.133248	0.883251	-0.031794
	H286	H	-0.132328	0.892680	-0.019016
	H287	H	-0.137895	0.877465	-0.025592
	O288	O	0.339409	0.499259	0.616143
	H289	H	0.341138	0.485380	0.597164
	H290	H	0.325129	0.487740	0.610570
	O291	O	0.614197	0.576364	0.452265
	H292	H	0.615563	0.591680	0.453269
	H293	H	0.608071	0.576193	0.455764
	O294	O	0.920794	1.099404	0.956478
	H295	H	0.900949	1.090460	0.952924
	H296	H	0.929975	1.091017	0.968444
	O297	O	-0.017988	-0.031328	0.056417
	H298	H	-0.017555	-0.036665	0.058816
	H299	H	-0.020449	-0.039115	0.056502
	O300	O	0.683595	0.479528	0.450173
	H301	H	0.691768	0.492260	0.474666
	H302	H	0.670691	0.493010	0.449367
	O303	O	0.110685	0.951274	0.856995
	H304	H	0.118019	0.961778	0.844354
	H305	H	0.093992	0.951542	0.852989
	O306	O	0.628284	0.586933	0.663837
	H307	H	0.629352	0.583496	0.682915
	H308	H	0.620093	0.587705	0.665872
	O309	O	1.009045	-0.095160	0.064948
	H310	H	1.021018	-0.095374	0.054052
	H311	H	1.007150	-0.093711	0.075999
	O312	O	-0.063793	-0.104765	0.931549
	H313	H	-0.052725	-0.112548	0.936469
	H314	H	-0.069002	-0.103045	0.929125
	O315	O	0.368454	0.383469	0.635202
	H316	H	0.387916	0.369110	0.622003
	H317	H	0.354629	0.364235	0.658884
	O318	O	0.538285	0.497889	0.446874
	H319	H	0.539288	0.503329	0.438948
	H320	H	0.530817	0.495888	0.466057
	O321	O	0.381671	0.429765	0.485989
	H322	H	0.361325	0.437373	0.478296
	H323	H	0.398994	0.447125	0.495931
	O324	O	0.578087	0.496605	0.446801
	H325	H	0.575397	0.497960	0.451707
	H326	H	0.583926	0.502166	0.450141
	O327	O	0.083080	0.862703	0.975918
	H328	H	0.083672	0.858613	0.975470
	H329	H	0.084842	0.852911	0.979126
	O330	O	0.553343	0.468270	0.533255
	H331	H	0.538086	0.486011	0.531924
	H332	H	0.568038	0.480264	0.522478
	O333	O	0.055849	1.063165	0.927325
	H334	H	0.053866	1.056141	0.917391
	H335	H	0.045895	1.067419	0.918867
	O336	O	0.925710	1.151077	0.981390
	H337	H	0.916743	1.148385	0.981679
	H338	H	0.909394	1.138261	0.992007
	O339	O	0.539808	0.375571	0.363721
	H340	H	0.544239	0.369954	0.358708
	H341	H	0.552544	0.369850	0.361923
	O342	O	1.064404	0.128834	0.059524
	H343	H	1.063419	0.124393	0.049136
	H344	H	1.065195	0.138156	0.048624
	O345	O	0.473941	0.551466	0.521345
	H346	H	0.461126	0.535736	0.536041
	H347	H	0.475635	0.536121	0.518972
	O348	O	0.967777	0.945257	1.012967
	H349	H	0.969464	0.940199	1.024507
	H350	H	0.956432	0.932520	1.019077
	O351	O	0.894204	1.130466	-0.041634
	H352	H	0.882360	1.125069	-0.047468
	H353	H	0.889047	1.137578	-0.043070
	O354	O	0.326099	0.353357	0.671552
	H355	H	0.327831	0.343708	0.664529
	H356	H	0.333725	0.334223	0.669681
	O357	O	0.517187	0.520614	0.420790
	H358	H	0.537939	0.529236	0.416984
	H359	H	0.511568	0.531202	0.431777
	O360	O	-0.028265	-0.077068	0.083438
	H361	H	-0.030539	-0.083127	0.084848
	H362	H	-0.022601	-0.082434	0.081241
	O363	O	0.530914	0.523344	0.524872
	H364	H	0.535479	0.515488	0.533836
	H365	H	0.530284	0.532705	0.524321
	O366	O	0.487225	0.345812	0.496375
	H367	H	0.494359	0.340958	0.493412
	H368	H	0.484281	0.354422	0.486197
	O369	O	0.348569	0.631554	0.452820
	H370	H	0.354185	0.616090	0.433371
	H371	H	0.327956	0.628634	0.455739
	O372	O	0.599185	0.355459	0.385350
	H373	H	0.612467	0.355990	0.366822
	H374	H	0.604940	0.363334	0.404029
	O375	O	0.640781	0.696223	0.655680
	H376	H	0.628375	0.696557	0.656095
	H377	H	0.618647	0.706157	0.645937
	O378	O	0.518971	0.564891	0.614052
	H379	H	0.500481	0.579788	0.629051
	H380	H	0.503684	0.541644	0.605944
	O381	O	0.474952	0.560011	0.527443
	H382	H	0.474916	0.554413	0.539318
	H383	H	0.471634	0.545397	0.520431
	O384	O	0.056640	0.907453	0.035780
	H385	H	0.061113	0.915443	0.048153
	H386	H	0.061270	0.920228	0.021642
	O387	O	1.094358	0.147242	1.143712
	H388	H	1.077601	0.151228	1.143371
	H389	H	1.093022	0.155276	1.148803
	O390	O	-0.130845	0.974123	0.062892
	H391	H	-0.126545	0.969969	0.075934
	H392	H	-0.122051	0.961967	0.060364
	O393	O	0.889926	0.867842	0.030912
	H394	H	0.872939	0.865339	0.056755
	H395	H	0.905507	0.865787	0.032469
	O396	O	0.419656	0.617756	0.409275
	H397	H	0.432143	0.612184	0.412014
	H398	H	0.414802	0.615861	0.401633
	O399	O	0.184409	0.942592	1.058217
	H400	H	0.194712	0.954844	1.042738
	H401	H	0.197795	0.952227	1.064349
	O402	O	0.924033	1.058135	1.048154
	H403	H	0.924949	1.056820	1.047175
	H404	H	0.928724	1.041671	1.049403
	O405	O	0.559550	0.475829	0.536107
	H406	H	0.562411	0.482029	0.537016
	H407	H	0.548414	0.486469	0.541115
