data_Molecule from HDF5

_cell_length_a		16.252284
_cell_length_b		16.337699
_cell_length_c		16.388835
_cell_angle_alpha	90.112955
_cell_angle_beta	89.775176
_cell_angle_gamma	89.882443
_symmetry_space_group_name_H-M	'P 1'
_symmetry_Int_Tables_number		1

loop_
	_symmetry_equiv_pos_as_xyz
	x,y,z

loop_
	_atom_site_label
	_atom_site_type_symbol
	_atom_site_fract_x
	_atom_site_fract_y
	_atom_site_fract_z
	H0	H	0.395743	0.825608	0.714050
	H1	H	0.607713	0.144300	0.716273
	H2	H	0.608025	0.824873	0.271878
	H3	H	0.398952	0.145790	0.276027
	H4	H	0.718763	0.382802	0.833311
	H5	H	0.715258	0.587975	0.155064
	H6	H	0.280771	0.589167	0.832301
	H7	H	0.279663	0.384224	0.152923
	H8	H	0.840057	0.708656	0.389990
	H9	H	0.162686	0.704659	0.596179
	H10	H	0.839764	0.265877	0.598239
	H11	H	0.162140	0.268609	0.387751
	H12	H	0.837945	0.383326	0.712518
	H13	H	0.160295	0.591928	0.713850
	H14	H	0.837089	0.591124	0.276625
	H15	H	0.159614	0.382339	0.271302
	H16	H	0.393240	0.706774	0.833625
	H17	H	0.601878	0.706407	0.153993
	H18	H	0.606804	0.263939	0.834219
	H19	H	0.396711	0.267600	0.153362
	H20	H	0.723761	0.825238	0.388744
	H21	H	0.720182	0.146583	0.596832
	H22	H	0.282883	0.824692	0.594617
	H23	H	0.285505	0.147701	0.392173
	H24	H	0.893731	0.325786	0.214330
	H25	H	0.100871	0.648400	0.213244
	H26	H	0.102236	0.327649	0.773476
	H27	H	0.892641	0.647455	0.773611
	H28	H	0.220176	0.884676	0.330576
	H29	H	0.218705	0.086789	0.653846
	H30	H	0.783931	0.088777	0.332921
	H31	H	0.780608	0.880801	0.653034
	H32	H	0.339678	0.203194	0.890984
	H33	H	0.661964	0.204450	0.095842
	H34	H	0.336711	0.769351	0.097010
	H35	H	0.660032	0.764143	0.889970
	H36	H	0.338632	0.882178	0.214667
	H37	H	0.663107	0.086720	0.210631
	H38	H	0.341525	0.089391	0.774374
	H39	H	0.661404	0.877206	0.772493
	H40	H	0.897068	0.206529	0.333100
	H41	H	0.105155	0.206329	0.652304
	H42	H	0.107196	0.765684	0.333068
	H43	H	0.896066	0.766473	0.652920
	H44	H	0.217375	0.326099	0.890421
	H45	H	0.217720	0.648560	0.096514
	H46	H	0.781927	0.324693	0.095062
	H47	H	0.781105	0.648627	0.893930
	H48	H	0.419259	0.100377	0.593036
	H49	H	0.594357	0.869846	0.585295
	H50	H	0.588068	0.096912	0.405226
	H51	H	0.407800	0.868741	0.403833
	H52	H	0.586410	0.399894	0.104957
	H53	H	0.581078	0.573099	0.883684
	H54	H	0.411561	0.581742	0.107427
	H55	H	0.404304	0.391474	0.875525
	H56	H	0.112459	0.566577	0.397239
	H57	H	0.886373	0.578396	0.579227
	H58	H	0.117073	0.390516	0.582155
	H59	H	0.885978	0.396141	0.407771
	H60	H	0.111643	0.402032	0.578011
	H61	H	0.885932	0.573670	0.584725
	H62	H	0.119508	0.583927	0.398162
	H63	H	0.885604	0.399616	0.404540
	H64	H	0.402922	0.576789	0.108842
	H65	H	0.589443	0.582174	0.877714
	H66	H	0.585171	0.390419	0.108383
	H67	H	0.408572	0.398892	0.878948
	H68	H	0.596774	0.100656	0.404836
	H69	H	0.584937	0.873121	0.582861
	H70	H	0.414883	0.096045	0.575018
	H71	H	0.414188	0.869762	0.399341
	H72	H	0.905335	0.601860	0.084691
	H73	H	0.092576	0.372081	0.084949
	H74	H	0.084941	0.598892	0.907918
	H75	H	0.917677	0.373189	0.895557
	H76	H	0.096200	0.892817	0.609029
	H77	H	0.090201	0.073614	0.380295
	H78	H	0.922393	0.068798	0.601040
	H79	H	0.917147	0.894631	0.379519
	H80	H	0.614761	0.073464	0.907849
	H81	H	0.383019	0.075846	0.094070
	H82	H	0.615389	0.898542	0.089594
	H83	H	0.384965	0.894006	0.906008
	H84	H	0.616240	0.887538	0.081133
	H85	H	0.383970	0.084040	0.081829
	H86	H	0.616283	0.072021	0.902025
	H87	H	0.387295	0.900610	0.905427
	H88	H	0.915534	0.090229	0.610158
	H89	H	0.091538	0.084763	0.376565
	H90	H	0.093844	0.901124	0.605985
	H91	H	0.911133	0.897075	0.378417
	H92	H	0.094161	0.604040	0.903907
	H93	H	0.084956	0.373438	0.085810
	H94	H	0.907809	0.601572	0.089095
	H95	H	0.911584	0.375955	0.911880
	H96	H	0.401525	0.104271	0.586519
	H97	H	0.592166	0.873355	0.576330
	H98	H	0.591147	0.100707	0.396876
	H99	H	0.413980	0.872037	0.406391
	H100	H	0.594134	0.394592	0.109793
	H101	H	0.593943	0.569096	0.880830
	H102	H	0.410642	0.571909	0.104387
	H103	H	0.412817	0.391317	0.878824
	H104	H	0.111293	0.576642	0.412908
	H105	H	0.883432	0.581017	0.585226
	H106	H	0.115560	0.400715	0.590254
	H107	H	0.883230	0.395537	0.403786
	H108	H	0.910106	0.600129	0.085143
	H109	H	0.088413	0.374514	0.079150
	H110	H	0.085104	0.603714	0.897770
	H111	H	0.901221	0.368616	0.899769
	H112	H	0.088098	0.893696	0.605778
	H113	H	0.100491	0.076478	0.375406
	H114	H	0.899557	0.072473	0.609593
	H115	H	0.916262	0.900710	0.381577
	H116	H	0.617902	0.077653	0.904785
	H117	H	0.388912	0.069704	0.081779
	H118	H	0.611331	0.899647	0.076337
	H119	H	0.383992	0.897086	0.899685
	C120	C	0.379757	-0.005821	0.615907
	C121	C	0.622993	0.977120	0.614496
	C122	C	0.624306	-0.006427	0.371002
	C123	C	0.381293	0.976942	0.372896
	C124	C	0.621395	0.363280	0.002218
	C125	C	0.619351	0.606863	0.986265
	C126	C	0.377117	0.608048	0.001386
	C127	C	0.378107	0.364201	0.984358
	C128	C	0.008055	0.608158	0.372359
	C129	C	0.991623	0.608742	0.614625
	C130	C	0.008206	0.365915	0.614726
	C131	C	0.991638	0.365898	0.372763
	C132	C	0.876945	0.494719	0.116531
	C133	C	0.119907	0.479232	0.114882
	C134	C	0.119694	0.495854	0.872142
	C135	C	0.877601	0.478444	0.871842
	C136	C	0.124478	0.864357	0.500976
	C137	C	0.124313	0.108693	0.483791
	C138	C	0.880250	0.108550	0.501584
	C139	C	0.881849	0.866006	0.485259
	C140	C	0.510194	0.106054	0.873150
	C141	C	0.492312	0.107137	0.115738
	C142	C	0.507786	0.864307	0.114766
	C143	C	0.491592	0.864022	0.871926
	C144	C	0.377939	0.873512	0.674068
	C145	C	0.625619	0.096776	0.675579
	C146	C	0.626035	0.873066	0.311716
	C147	C	0.380572	0.098066	0.315034
	C148	C	0.680326	0.363192	0.881705
	C149	C	0.677247	0.607707	0.106704
	C150	C	0.319348	0.608621	0.880468
	C151	C	0.319286	0.364536	0.104856
	C152	C	0.887567	0.668210	0.371666
	C153	C	0.113663	0.666375	0.615334
	C154	C	0.887774	0.305683	0.616765
	C155	C	0.113341	0.307719	0.370094
	C156	C	0.886646	0.364559	0.673521
	C157	C	0.112657	0.610034	0.673705
	C158	C	0.886172	0.609481	0.315389
	C159	C	0.111968	0.363992	0.311659
	C160	C	0.375562	0.667136	0.881213
	C161	C	0.620356	0.666511	0.106156
	C162	C	0.624348	0.303981	0.882028
	C163	C	0.377463	0.306591	0.105238
	C164	C	0.683778	0.873049	0.369999
	C165	C	0.681379	0.098150	0.615927
	C166	C	0.321292	0.873314	0.614992
	C167	C	0.324190	0.098956	0.372941
	C168	C	0.875403	0.373852	0.174993
	C169	C	0.120133	0.600161	0.173912
	C170	C	0.121319	0.375334	0.812804
	C171	C	0.874451	0.599191	0.812980
	C172	C	0.182030	0.864542	0.379546
	C173	C	0.180436	0.107320	0.605254
	C174	C	0.821975	0.108577	0.381277
	C175	C	0.820963	0.863347	0.605171
	C176	C	0.388472	0.164323	0.872161
	C177	C	0.613806	0.165254	0.115292
	C178	C	0.385685	0.807406	0.115938
	C179	C	0.612304	0.803757	0.870976
	C180	C	0.386585	0.863724	0.174378
	C181	C	0.614519	0.106375	0.171898
	C182	C	0.389354	0.107768	0.813995
	C183	C	0.612825	0.860186	0.812466
	C184	C	0.878562	0.167292	0.381309
	C185	C	0.123824	0.166578	0.604587
	C186	C	0.125632	0.805451	0.380740
	C187	C	0.878551	0.806290	0.605272
	C188	C	0.178186	0.374579	0.871506
	C189	C	0.178570	0.600136	0.115996
	C190	C	0.819885	0.373185	0.115494
	C191	C	0.819213	0.599956	0.873159
	C192	C	0.404764	0.078289	0.592055
	C193	C	0.597855	0.893763	0.588770
	C194	C	0.599167	0.077586	0.395370
	C195	C	0.405049	0.892457	0.396484
	C196	C	0.595907	0.387825	0.086051
	C197	C	0.595061	0.581971	0.902439
	C198	C	0.401325	0.583879	0.085108
	C199	C	0.401824	0.387215	0.899814
	C200	C	0.092536	0.583003	0.396003
	C201	C	0.907266	0.584776	0.590157
	C202	C	0.092700	0.390690	0.590519
	C203	C	0.907010	0.390122	0.398131
	C204	C	0.900772	0.579111	0.093215
	C205	C	0.095699	0.395259	0.090384
	C206	C	0.095092	0.580164	0.896406
	C207	C	0.902828	0.394588	0.895444
	C208	C	0.099929	0.888744	0.584952
	C209	C	0.100896	0.085129	0.399270
	C210	C	0.905080	0.084135	0.585357
	C211	C	0.907294	0.890406	0.401734
	C212	C	0.594335	0.081419	0.897683
	C213	C	0.407388	0.083464	0.092497
	C214	C	0.592189	0.888341	0.089711
	C215	C	0.407314	0.889827	0.896482
	Zn216	Zn	0.501850	-0.015207	0.744190
	Zn217	Zn	0.500324	-0.015129	0.243502
	Zn218	Zn	0.749479	0.485996	-0.005864
	Zn219	Zn	0.248681	0.487397	-0.007363
	Zn220	Zn	0.001765	0.736898	0.493696
	Zn221	Zn	0.001532	0.237220	0.492916
	Zn222	Zn	-0.000965	0.488333	0.742963
	Zn223	Zn	-0.002001	0.486274	0.244223
	Zn224	Zn	0.498086	0.736570	-0.006490
	Zn225	Zn	0.500355	0.234998	-0.006389
	Zn226	Zn	0.752194	-0.013847	0.493639
	Zn227	Zn	0.252636	-0.013709	0.491957
	N228	N	0.413471	0.949917	0.674916
	N229	N	0.590145	0.020413	0.674909
	N230	N	0.589889	0.949172	0.312043
	N231	N	0.415566	0.021438	0.315089
	N232	N	0.678409	0.399581	0.957445
	N233	N	0.676543	0.571150	0.031147
	N234	N	0.320161	0.572644	0.956076
	N235	N	0.319344	0.399608	0.028687
	N236	N	0.964448	0.667623	0.406386
	N237	N	0.037385	0.665685	0.579249
	N238	N	0.964378	0.306417	0.580965
	N239	N	0.037427	0.308793	0.407335
	N240	N	0.962611	0.401329	0.672307
	N241	N	0.035824	0.575283	0.673654
	N242	N	0.962393	0.572979	0.315469
	N243	N	0.035187	0.399270	0.313008
	N244	N	0.410731	0.667074	0.957388
	N245	N	0.585240	0.666232	0.030095
	N246	N	0.588406	0.303909	0.958051
	N247	N	0.412988	0.306087	0.029067
	N248	N	0.682927	0.949031	0.405921
	N249	N	0.680252	0.022582	0.579015
	N250	N	0.322231	0.949540	0.579764
	N251	N	0.324511	0.022682	0.408191
	N252	N	0.909797	0.450621	0.175953
	N253	N	0.084568	0.523823	0.173549
	N254	N	0.085699	0.451618	0.813189
	N255	N	0.910216	0.522858	0.812214
	N256	N	0.181410	0.900456	0.455460
	N257	N	0.180861	0.072006	0.529142
	N258	N	0.822638	0.073100	0.457302
	N259	N	0.823092	0.900073	0.529675
	N260	N	0.464584	0.163311	0.908435
	N261	N	0.536680	0.165680	0.081104
	N262	N	0.461914	0.807785	0.079319
	N263	N	0.535862	0.805887	0.907007
	N264	N	0.463676	0.898199	0.173983
	N265	N	0.537912	0.071138	0.172523
	N266	N	0.466028	0.072407	0.814288
	N267	N	0.536842	0.897098	0.813252
	N268	N	0.913975	0.167420	0.457223
	N269	N	0.090020	0.167744	0.527775
	N270	N	0.090262	0.805522	0.457063
	N271	N	0.915800	0.807753	0.529902
	N272	N	0.177290	0.450701	0.907450
	N273	N	0.178642	0.524111	0.080126
	N274	N	0.820616	0.449294	0.080010
	N275	N	0.820877	0.523995	0.909223
	O276	O	0.559266	0.451758	0.325976
	H277	H	0.555526	0.446505	0.332834
	H278	H	0.552674	0.444523	0.324511
	O279	O	0.400017	0.338264	0.671673
	H280	H	0.404065	0.340788	0.657022
	H281	H	0.392181	0.335084	0.684320
	O282	O	0.596012	0.509974	0.672374
	H283	H	0.599501	0.510154	0.671252
	H284	H	0.615281	0.503080	0.683666
	O285	O	1.124613	0.012505	0.093784
	H286	H	1.115626	0.012147	0.102254
	H287	H	1.130005	0.004437	0.087192
	O288	O	0.149828	0.160046	1.070404
	H289	H	0.155891	0.141017	1.084631
	H290	H	0.136859	0.153841	1.079530
	O291	O	0.629058	0.376755	0.593989
	H292	H	0.606443	0.362263	0.587434
	H293	H	0.632587	0.368153	0.590383
	O294	O	0.528715	0.566705	0.612320
	H295	H	0.530980	0.572143	0.603727
	H296	H	0.533076	0.548976	0.613355
	O297	O	1.198781	0.915223	0.824398
	H298	H	1.216498	0.924457	0.797129
	H299	H	1.191389	0.937630	0.827592
	O300	O	-0.000136	-0.138258	-0.100004
	H301	H	0.013772	-0.151043	-0.110445
	H302	H	0.005233	-0.140351	-0.096088
	O303	O	0.578787	0.534471	0.374521
	H304	H	0.581360	0.540043	0.381530
	H305	H	0.564476	0.523331	0.379054
	O306	O	0.835471	-0.051591	-0.165503
	H307	H	0.820105	-0.045573	-0.181608
	H308	H	0.847287	-0.031776	-0.161976
	O309	O	-0.095867	0.145368	0.994550
	H310	H	-0.091399	0.155116	0.979749
	H311	H	-0.086029	0.137794	1.010582
	O312	O	0.943138	1.146295	-0.154946
	H313	H	0.950815	1.140876	-0.141987
	H314	H	0.951434	1.150558	-0.166402
	O315	O	0.291669	0.168880	0.110110
	H316	H	0.283810	0.163836	0.121148
	H317	H	0.288899	0.171396	0.118648
	O318	O	0.464268	0.357608	0.601292
	H319	H	0.454320	0.355697	0.609371
	H320	H	0.461005	0.366520	0.598725
	O321	O	0.932449	-0.109668	0.936405
	H322	H	0.942060	-0.110762	0.923914
	H323	H	0.937154	-0.105128	0.929882
	O324	O	0.103530	0.074757	0.829352
	H325	H	0.113662	0.087452	0.826098
	H326	H	0.101763	0.074662	0.855726
	O327	O	0.315494	0.362112	0.574635
	H328	H	0.309765	0.378500	0.560070
	H329	H	0.322298	0.384872	0.563729
	O330	O	0.414848	0.606173	0.478110
	H331	H	0.424784	0.612193	0.477348
	H332	H	0.415368	0.613904	0.466793
	O333	O	0.503335	1.400075	0.468653
	H334	H	0.500911	1.418291	0.465743
	H335	H	0.485950	1.402654	0.470461
	O336	O	0.345097	0.658737	0.480448
	H337	H	0.357167	0.660268	0.492640
	H338	H	0.354216	0.667028	0.480225
	O339	O	1.109835	0.023834	1.154309
	H340	H	1.102761	0.008605	1.157930
	H341	H	1.108492	0.012502	1.157568
	O342	O	-0.171014	1.086646	0.829061
	H343	H	-0.180938	1.088985	0.834049
	H344	H	-0.145032	1.104364	0.827803
	O345	O	0.196048	1.125555	1.005320
	H346	H	0.186329	1.124140	1.007497
	H347	H	0.214246	1.132414	1.014934
	O348	O	0.466526	0.494416	0.641536
	H349	H	0.467606	0.474159	0.653428
	H350	H	0.460851	0.503731	0.657495
	O351	O	-0.077237	0.026529	-0.003714
	H352	H	-0.079211	0.034195	-0.007243
	H353	H	-0.075423	0.021772	-0.014923
	O354	O	0.993427	1.068578	0.199396
	H355	H	0.976214	1.067193	0.196819
	H356	H	0.994200	1.069530	0.204916
	O357	O	0.528352	1.391615	0.415200
	H358	H	0.549386	1.380279	0.405051
	H359	H	0.527994	1.400999	0.410458
	O360	O	0.649901	0.425084	0.338060
	H361	H	0.640055	0.406422	0.336484
	H362	H	0.661023	0.422483	0.327548
	O363	O	0.603769	0.431042	0.436981
	H364	H	0.591053	0.428012	0.441198
	H365	H	0.592025	0.419381	0.429399
	O366	O	1.319577	1.523111	0.378073
	H367	H	1.321357	1.531432	0.386784
	H368	H	1.302144	1.515037	0.371330
	O369	O	0.581495	0.675777	0.585341
	H370	H	0.573523	0.672365	0.595255
	H371	H	0.595491	0.667180	0.585569
	O372	O	0.414142	0.649367	0.300208
	H373	H	0.414753	0.665293	0.301218
	H374	H	0.410339	0.661950	0.302783
	O375	O	0.626835	0.610825	0.479687
	H376	H	0.641569	0.614335	0.475310
	H377	H	0.616628	0.594057	0.479466
	O378	O	0.340127	0.516273	0.533509
	H379	H	0.343186	0.514393	0.544440
	H380	H	0.345004	0.524262	0.525916
	O381	O	0.318159	0.334315	0.479605
	H382	H	0.321359	0.325875	0.469269
	H383	H	0.302690	0.354743	0.467249
	O384	O	0.136494	0.885274	1.080667
	H385	H	0.131918	0.895387	1.081394
	H386	H	0.129003	0.861199	1.080146
	O387	O	1.094179	0.936874	-0.090048
	H388	H	1.093276	0.947217	-0.102818
	H389	H	1.092977	0.953348	-0.077162
	O390	O	0.606283	0.510874	0.364875
	H391	H	0.601115	0.501454	0.341551
	H392	H	0.628798	0.510725	0.366215
	O393	O	1.505381	0.376749	1.360788
	H394	H	1.514250	0.386384	1.357414
	H395	H	1.512622	0.374959	1.361718
	O396	O	-0.045908	0.923924	0.821102
	H397	H	-0.067135	0.926433	0.816891
	H398	H	-0.040362	0.905591	0.820933
	O399	O	0.691076	0.592267	0.624519
	H400	H	0.709330	0.579806	0.622635
	H401	H	0.694733	0.579165	0.607246
	O402	O	0.917632	-0.146676	1.132935
	H403	H	0.912961	-0.144735	1.115799
	H404	H	0.913125	-0.143034	1.123125
	O405	O	-0.090370	-0.093475	0.078859
	H406	H	-0.097810	-0.084786	0.079079
	H407	H	-0.091266	-0.092029	0.082853
	O408	O	0.557281	1.506310	1.481241
	H409	H	0.573087	1.517416	1.481572
	H410	H	0.546452	1.508558	1.479350
	O411	O	1.010805	0.844614	0.119765
	H412	H	0.996771	0.828843	0.113733
	H413	H	1.000972	0.826725	0.117634
	O414	O	-0.169994	-0.010342	1.036059
	H415	H	-0.167461	-0.016500	1.028324
	H416	H	-0.169712	-0.024199	1.044425
	O417	O	0.470417	0.399150	0.583043
	H418	H	0.474875	0.390682	0.590428
	H419	H	0.457876	0.397186	0.577461
	O420	O	-0.156158	1.129432	0.051952
	H421	H	-0.152994	1.147638	0.038860
	H422	H	-0.167111	1.109520	0.052184
	O423	O	0.844681	-0.082408	0.144436
	H424	H	0.820176	-0.076286	0.161474
	H425	H	0.844288	-0.094694	0.120924
	O426	O	0.190147	-0.206750	0.894052
	H427	H	0.183433	-0.204000	0.895358
	H428	H	0.205689	-0.197928	0.880183
	O429	O	0.023541	1.046598	-0.006783
	H430	H	0.021731	1.049975	-0.006487
	H431	H	0.029720	1.049369	-0.010480
