data_Molecule from HDF5

_cell_length_a		16.084226
_cell_length_b		16.253083
_cell_length_c		16.310263
_cell_angle_alpha	90.315770
_cell_angle_beta	90.009215
_cell_angle_gamma	90.177055
_symmetry_space_group_name_H-M	'P 1'
_symmetry_Int_Tables_number		1

loop_
	_symmetry_equiv_pos_as_xyz
	x,y,z

loop_
	_atom_site_label
	_atom_site_type_symbol
	_atom_site_fract_x
	_atom_site_fract_y
	_atom_site_fract_z
	H0	H	0.399694	0.832010	0.712961
	H1	H	0.601325	0.159879	0.715537
	H2	H	0.600965	0.832629	0.281580
	H3	H	0.400636	0.159188	0.283911
	H4	H	0.712550	0.398213	0.833845
	H5	H	0.711801	0.593342	0.162562
	H6	H	0.286514	0.592454	0.834016
	H7	H	0.285929	0.400087	0.162410
	H8	H	0.834209	0.708918	0.401252
	H9	H	0.165240	0.710898	0.596633
	H10	H	0.835295	0.283693	0.595262
	H11	H	0.166110	0.284349	0.399340
	H12	H	0.834534	0.398010	0.709925
	H13	H	0.164419	0.598692	0.714254
	H14	H	0.833613	0.594874	0.286408
	H15	H	0.164302	0.397913	0.282637
	H16	H	0.398525	0.711394	0.834947
	H17	H	0.599427	0.713306	0.161129
	H18	H	0.598729	0.279957	0.835744
	H19	H	0.399714	0.282459	0.162543
	H20	H	0.711081	0.830333	0.403376
	H21	H	0.712605	0.160660	0.596202
	H22	H	0.287071	0.831416	0.593402
	H23	H	0.289742	0.160809	0.403401
	H24	H	0.897138	0.333232	0.212258
	H25	H	0.099924	0.660874	0.214488
	H26	H	0.100179	0.333711	0.781179
	H27	H	0.899737	0.660583	0.783542
	H28	H	0.213841	0.898220	0.334633
	H29	H	0.212565	0.093075	0.662879
	H30	H	0.786044	0.092387	0.334983
	H31	H	0.788266	0.900549	0.663578
	H32	H	0.334318	0.207130	0.902425
	H33	H	0.665488	0.210614	0.097720
	H34	H	0.334401	0.784035	0.094867
	H35	H	0.665520	0.783819	0.901252
	H36	H	0.334816	0.897110	0.211884
	H37	H	0.665532	0.096800	0.213080
	H38	H	0.335565	0.094326	0.785242
	H39	H	0.665803	0.896768	0.785364
	H40	H	0.900548	0.210583	0.334833
	H41	H	0.100168	0.213671	0.660810
	H42	H	0.100708	0.779675	0.335359
	H43	H	0.900812	0.782173	0.661905
	H44	H	0.211271	0.331873	0.901392
	H45	H	0.213754	0.661435	0.095933
	H46	H	0.787407	0.332504	0.092397
	H47	H	0.788791	0.661951	0.903538
	H48	H	0.399972	0.114715	0.592123
	H49	H	0.588066	0.879745	0.594396
	H50	H	0.587096	0.109329	0.411979
	H51	H	0.411172	0.880532	0.407219
	H52	H	0.592802	0.403106	0.114782
	H53	H	0.588777	0.593066	0.881805
	H54	H	0.416058	0.588532	0.111472
	H55	H	0.406917	0.396103	0.879949
	H56	H	0.115306	0.582743	0.409538
	H57	H	0.877652	0.601558	0.592301
	H58	H	0.120352	0.406695	0.595283
	H59	H	0.878521	0.402564	0.394911
	H60	H	0.120459	0.401316	0.590569
	H61	H	0.886822	0.584490	0.580047
	H62	H	0.119586	0.587725	0.398924
	H63	H	0.880335	0.394928	0.410735
	H64	H	0.405723	0.600200	0.117989
	H65	H	0.597597	0.592500	0.878776
	H66	H	0.594334	0.402127	0.115429
	H67	H	0.403133	0.402476	0.881705
	H68	H	0.601574	0.114875	0.407735
	H69	H	0.596575	0.879332	0.588724
	H70	H	0.410631	0.114793	0.602994
	H71	H	0.403606	0.877219	0.404646
	H72	H	0.902010	0.615214	0.091923
	H73	H	0.094788	0.380340	0.086053
	H74	H	0.089067	0.614021	0.900784
	H75	H	0.894901	0.374846	0.898493
	H76	H	0.086743	0.894632	0.616141
	H77	H	0.095986	0.092235	0.381395
	H78	H	0.916493	0.088012	0.611873
	H79	H	0.914136	0.905429	0.385036
	H80	H	0.619829	0.092140	0.906711
	H81	H	0.384241	0.081680	0.091157
	H82	H	0.619351	0.904197	0.091867
	H83	H	0.381268	0.903844	0.903903
	H84	H	0.618932	0.903261	0.089413
	H85	H	0.379094	0.090531	0.098337
	H86	H	0.618102	0.087109	0.909101
	H87	H	0.381134	0.902075	0.904764
	H88	H	0.906863	0.100340	0.617734
	H89	H	0.094737	0.089099	0.380849
	H90	H	0.103289	0.904681	0.617555
	H91	H	0.907128	0.891600	0.379194
	H92	H	0.089781	0.611844	0.910033
	H93	H	0.094592	0.377971	0.096258
	H94	H	0.907426	0.615531	0.099111
	H95	H	0.915980	0.379565	0.893481
	H96	H	0.413689	0.110027	0.588752
	H97	H	0.596453	0.876037	0.597486
	H98	H	0.589921	0.114346	0.397695
	H99	H	0.409385	0.877590	0.398708
	H100	H	0.594230	0.403902	0.115511
	H101	H	0.593780	0.585125	0.882656
	H102	H	0.400085	0.585374	0.114994
	H103	H	0.410296	0.402058	0.884043
	H104	H	0.118981	0.594634	0.408926
	H105	H	0.880082	0.581380	0.602042
	H106	H	0.116981	0.407354	0.588611
	H107	H	0.885217	0.411720	0.408442
	H108	H	0.910838	0.613033	0.091060
	H109	H	0.085747	0.381901	0.091850
	H110	H	0.096856	0.615298	0.905114
	H111	H	0.908692	0.383352	0.913789
	H112	H	0.087831	0.913129	0.610541
	H113	H	0.092288	0.091737	0.381040
	H114	H	0.900161	0.085254	0.615644
	H115	H	0.898024	0.905340	0.380471
	H116	H	0.619005	0.087197	0.903396
	H117	H	0.382323	0.092797	0.086847
	H118	H	0.617751	0.906528	0.090212
	H119	H	0.381388	0.903834	0.905615
	C120	C	0.378839	0.004528	0.621292
	C121	C	0.622371	0.987514	0.621720
	C122	C	0.621452	0.004145	0.377280
	C123	C	0.379463	0.987177	0.376420
	C124	C	0.621953	0.374365	0.007016
	C125	C	0.621851	0.618830	0.989292
	C126	C	0.378315	0.618488	0.006296
	C127	C	0.377653	0.373249	0.990335
	C128	C	0.008308	0.617190	0.377549
	C129	C	0.990915	0.618507	0.620377
	C130	C	0.009382	0.376555	0.618823
	C131	C	0.991098	0.374952	0.376108
	C132	C	0.878089	0.505658	0.120336
	C133	C	0.120986	0.488388	0.119996
	C134	C	0.120785	0.505536	0.876483
	C135	C	0.878290	0.488389	0.875487
	C136	C	0.121683	0.874853	0.506898
	C137	C	0.122648	0.119037	0.489271
	C138	C	0.878623	0.118744	0.507006
	C139	C	0.878048	0.873589	0.490227
	C140	C	0.509512	0.116640	0.878294
	C141	C	0.491270	0.117490	0.120589
	C142	C	0.509131	0.875767	0.119307
	C143	C	0.490917	0.874441	0.876552
	C144	C	0.380300	0.880984	0.675041
	C145	C	0.620339	0.110939	0.676882
	C146	C	0.619966	0.881051	0.321002
	C147	C	0.381132	0.110538	0.322082
	C148	C	0.675894	0.377240	0.883314
	C149	C	0.675194	0.615063	0.113205
	C150	C	0.324074	0.613493	0.882911
	C151	C	0.323342	0.378481	0.113453
	C152	C	0.883612	0.671638	0.380923
	C153	C	0.115564	0.674006	0.617940
	C154	C	0.884807	0.321040	0.615997
	C155	C	0.116280	0.321342	0.378911
	C156	C	0.884328	0.377867	0.673033
	C157	C	0.115243	0.617964	0.676069
	C158	C	0.883376	0.614940	0.323639
	C159	C	0.115352	0.377471	0.320772
	C160	C	0.379770	0.672845	0.883565
	C161	C	0.619313	0.674482	0.112540
	C162	C	0.619385	0.318335	0.884125
	C163	C	0.379675	0.319591	0.113461
	C164	C	0.675043	0.880107	0.381302
	C165	C	0.676010	0.111361	0.617868
	C166	C	0.324391	0.880528	0.615512
	C167	C	0.326017	0.111126	0.381411
	C168	C	0.878792	0.382144	0.174084
	C169	C	0.119572	0.611912	0.175805
	C170	C	0.119383	0.382257	0.820173
	C171	C	0.880431	0.611739	0.821467
	C172	C	0.176498	0.877541	0.383674
	C173	C	0.176675	0.115505	0.613357
	C174	C	0.823907	0.113973	0.383610
	C175	C	0.824799	0.878716	0.614238
	C176	C	0.384246	0.170663	0.881231
	C177	C	0.616173	0.172814	0.117968
	C178	C	0.384013	0.821236	0.115734
	C179	C	0.616010	0.820454	0.880067
	C180	C	0.384211	0.877420	0.173992
	C181	C	0.616154	0.116092	0.175206
	C182	C	0.384744	0.114352	0.823424
	C183	C	0.616190	0.876905	0.822689
	C184	C	0.880731	0.172790	0.383961
	C185	C	0.120790	0.175081	0.612511
	C186	C	0.120330	0.818306	0.384112
	C187	C	0.880686	0.819801	0.613253
	C188	C	0.174583	0.381282	0.879904
	C189	C	0.176195	0.612367	0.116971
	C190	C	0.823708	0.381831	0.114664
	C191	C	0.825230	0.612515	0.881243
	C192	C	0.401406	0.090763	0.600589
	C193	C	0.600233	0.900771	0.599988
	C194	C	0.599411	0.090515	0.399354
	C195	C	0.401412	0.900776	0.397296
	C196	C	0.600044	0.396190	0.092936
	C197	C	0.599922	0.596642	0.903517
	C198	C	0.400604	0.597509	0.092647
	C199	C	0.400023	0.393977	0.904040
	C200	C	0.095467	0.594947	0.399350
	C201	C	0.904067	0.595815	0.598093
	C202	C	0.096641	0.398657	0.597611
	C203	C	0.904011	0.396498	0.398335
	C204	C	0.900397	0.592458	0.100099
	C205	C	0.098395	0.402411	0.097845
	C206	C	0.098612	0.591540	0.898826
	C207	C	0.899994	0.401624	0.895845
	C208	C	0.099055	0.897502	0.592517
	C209	C	0.100858	0.097262	0.403438
	C210	C	0.900966	0.097383	0.592821
	C211	C	0.900009	0.894562	0.403942
	C212	C	0.596403	0.095163	0.899962
	C213	C	0.404466	0.095049	0.098558
	C214	C	0.596311	0.898175	0.097199
	C215	C	0.403671	0.896663	0.898297
	Zn216	Zn	0.500818	-0.004228	0.749908
	Zn217	Zn	0.500446	-0.003830	0.247679
	Zn218	Zn	0.750656	0.496657	-0.002212
	Zn219	Zn	0.249874	0.496583	-0.002058
	Zn220	Zn	0.000027	0.745408	0.498417
	Zn221	Zn	0.000806	0.248107	0.498166
	Zn222	Zn	-0.000324	0.497161	0.746768
	Zn223	Zn	-0.001077	0.496819	0.248964
	Zn224	Zn	0.499566	0.747643	-0.002224
	Zn225	Zn	0.500021	0.244634	-0.000596
	Zn226	Zn	0.750033	-0.004078	0.499278
	Zn227	Zn	0.251253	-0.003439	0.498417
	N228	N	0.413706	0.959054	0.678510
	N229	N	0.587661	0.032572	0.679174
	N230	N	0.587591	0.959310	0.318384
	N231	N	0.413703	0.032447	0.318949
	N232	N	0.677716	0.411296	0.960733
	N233	N	0.677028	0.581170	0.035777
	N234	N	0.323189	0.580404	0.960447
	N235	N	0.322065	0.411025	0.035870
	N236	N	0.962425	0.672965	0.413839
	N237	N	0.037294	0.674302	0.583859
	N238	N	0.963499	0.320142	0.583046
	N239	N	0.037752	0.319678	0.412546
	N240	N	0.962914	0.411762	0.675006
	N241	N	0.036708	0.584137	0.677612
	N242	N	0.962017	0.581760	0.321328
	N243	N	0.036420	0.409810	0.318498
	N244	N	0.412797	0.675906	0.961427
	N245	N	0.586972	0.677207	0.034568
	N246	N	0.586547	0.316366	0.961933
	N247	N	0.412984	0.316308	0.035694
	N248	N	0.675805	0.957656	0.415979
	N249	N	0.677442	0.033488	0.584297
	N250	N	0.323397	0.958357	0.582912
	N251	N	0.325006	0.033485	0.414682
	N252	N	0.911767	0.460320	0.177735
	N253	N	0.086241	0.533838	0.178052
	N254	N	0.086365	0.460304	0.818082
	N255	N	0.912871	0.533488	0.818015
	N256	N	0.177536	0.912092	0.460887
	N257	N	0.177987	0.081263	0.535937
	N258	N	0.822507	0.080971	0.461086
	N259	N	0.823011	0.911546	0.536520
	N260	N	0.462737	0.172270	0.914892
	N261	N	0.537558	0.173772	0.084606
	N262	N	0.462495	0.820193	0.082540
	N263	N	0.537185	0.818836	0.912739
	N264	N	0.463058	0.910807	0.176097
	N265	N	0.537625	0.082479	0.177049
	N266	N	0.463455	0.081668	0.821303
	N267	N	0.537351	0.909816	0.820399
	N268	N	0.914261	0.175656	0.461618
	N269	N	0.087802	0.177294	0.534752
	N270	N	0.087088	0.816466	0.461775
	N271	N	0.912799	0.816456	0.535157
	N272	N	0.175434	0.458719	0.914379
	N273	N	0.177291	0.534644	0.083095
	N274	N	0.823350	0.459657	0.081825
	N275	N	0.823630	0.534608	0.913805
	O276	O	1.057934	1.022467	-0.037156
	H277	H	1.056627	1.021864	-0.035826
	H278	H	1.063629	1.018833	-0.034178
	O279	O	0.039976	0.107178	0.042909
	H280	H	0.050613	0.112482	0.047794
	H281	H	0.046711	0.105069	0.040349
	O282	O	-0.038483	0.020212	1.049285
	H283	H	-0.034995	0.022414	1.044659
	H284	H	-0.039042	0.018650	1.046629
	O285	O	0.534556	0.522342	0.512483
	H286	H	0.538467	0.525501	0.506418
	H287	H	0.540342	0.521849	0.509618
	O288	O	0.513909	0.561442	0.490574
	H289	H	0.506168	0.560238	0.495337
	H290	H	0.509874	0.562820	0.492365
	O291	O	0.514838	0.498608	0.503779
	H292	H	0.505303	0.501790	0.513517
	H293	H	0.519995	0.487666	0.504771
	O294	O	0.056480	0.082432	0.026033
	H295	H	0.045408	0.083371	0.028672
	H296	H	0.053290	0.077595	0.025229
	O297	O	0.460896	0.453015	0.524404
	H298	H	0.458964	0.446192	0.533752
	H299	H	0.463591	0.442767	0.523503
	O300	O	-0.013383	0.975738	1.002772
	H301	H	-0.021522	0.980476	1.001543
	H302	H	-0.015377	0.977907	0.994537
	O303	O	0.565339	0.475343	0.522644
	H304	H	0.568860	0.477028	0.510842
	H305	H	0.560871	0.483285	0.525228
	O306	O	-0.037415	0.050644	0.987809
	H307	H	-0.042395	0.054962	0.988381
	H308	H	-0.036101	0.043072	0.990397
	O309	O	1.019088	0.985809	1.027639
	H310	H	1.024530	0.987723	1.029181
	H311	H	1.016558	0.976758	1.031921
	O312	O	0.480648	0.461808	0.496567
	H313	H	0.490911	0.455490	0.490531
	H314	H	0.485435	0.471069	0.498119
	O315	O	0.511461	0.467195	0.488168
	H316	H	0.509611	0.463453	0.487309
	H317	H	0.509603	0.465285	0.495763
	O318	O	-0.021185	0.977146	0.021131
	H319	H	-0.029045	0.977636	0.025685
	H320	H	-0.012053	0.971407	0.024840
	O321	O	1.000953	1.025409	0.024338
	H322	H	0.998831	1.034652	0.030092
	H323	H	1.011637	1.022527	0.028623
