data_Molecule from HDF5

_cell_length_a		16.394688
_cell_length_b		16.169575
_cell_length_c		16.444748
_cell_angle_alpha	90.004047
_cell_angle_beta	89.810689
_cell_angle_gamma	89.800314
_symmetry_space_group_name_H-M	'P 1'
_symmetry_Int_Tables_number		1

loop_
	_symmetry_equiv_pos_as_xyz
	x,y,z

loop_
	_atom_site_label
	_atom_site_type_symbol
	_atom_site_fract_x
	_atom_site_fract_y
	_atom_site_fract_z
	H0	H	0.401924	0.824391	0.722548
	H1	H	0.612037	0.144540	0.723765
	H2	H	0.610709	0.823453	0.284081
	H3	H	0.401309	0.145657	0.286306
	H4	H	0.728923	0.379137	0.848469
	H5	H	0.723250	0.588740	0.166844
	H6	H	0.283471	0.590266	0.848397
	H7	H	0.286624	0.381938	0.167131
	H8	H	0.844825	0.700519	0.407046
	H9	H	0.167889	0.697701	0.603434
	H10	H	0.844693	0.266123	0.607453
	H11	H	0.167031	0.265579	0.404251
	H12	H	0.846069	0.379033	0.726635
	H13	H	0.165844	0.585602	0.723654
	H14	H	0.846194	0.588311	0.287383
	H15	H	0.165937	0.379560	0.285347
	H16	H	0.402848	0.701822	0.845565
	H17	H	0.603674	0.702837	0.167104
	H18	H	0.608757	0.266478	0.845661
	H19	H	0.404478	0.266002	0.167035
	H20	H	0.726321	0.822954	0.398284
	H21	H	0.723919	0.145250	0.606815
	H22	H	0.290346	0.822905	0.605072
	H23	H	0.285006	0.144870	0.398749
	H24	H	0.901020	0.323663	0.227712
	H25	H	0.110618	0.644723	0.226026
	H26	H	0.113924	0.323335	0.784587
	H27	H	0.901667	0.646418	0.788605
	H28	H	0.228733	0.878091	0.346009
	H29	H	0.230419	0.091730	0.661834
	H30	H	0.783600	0.092547	0.346554
	H31	H	0.781047	0.875288	0.662079
	H32	H	0.346086	0.202776	0.903361
	H33	H	0.664614	0.205129	0.110491
	H34	H	0.343060	0.770472	0.106114
	H35	H	0.665076	0.761562	0.900815
	H36	H	0.348284	0.878885	0.227600
	H37	H	0.661751	0.095640	0.230036
	H38	H	0.347240	0.088949	0.784191
	H39	H	0.664598	0.874054	0.780325
	H40	H	0.902378	0.206120	0.345622
	H41	H	0.111328	0.205201	0.663464
	H42	H	0.109906	0.763871	0.345230
	H43	H	0.905412	0.767642	0.666572
	H44	H	0.228706	0.324129	0.900513
	H45	H	0.220423	0.647172	0.108972
	H46	H	0.783992	0.324040	0.115336
	H47	H	0.786764	0.646578	0.904687
	H48	H	0.419057	0.099970	0.591003
	H49	H	0.600433	0.868173	0.587681
	H50	H	0.593118	0.099554	0.414898
	H51	H	0.421763	0.867262	0.405294
	H52	H	0.592234	0.396180	0.118891
	H53	H	0.598598	0.569931	0.893027
	H54	H	0.419064	0.569587	0.116051
	H55	H	0.407418	0.396164	0.890874
	H56	H	0.118839	0.572077	0.421737
	H57	H	0.890502	0.569060	0.603307
	H58	H	0.122304	0.390347	0.599330
	H59	H	0.891886	0.396542	0.415439
	H60	H	0.117073	0.395170	0.589449
	H61	H	0.887328	0.582119	0.602521
	H62	H	0.119786	0.565500	0.409099
	H63	H	0.893016	0.396905	0.416296
	H64	H	0.414222	0.586946	0.124020
	H65	H	0.592842	0.570554	0.894607
	H66	H	0.595063	0.393134	0.120515
	H67	H	0.418339	0.401845	0.896304
	H68	H	0.593933	0.098518	0.417409
	H69	H	0.594127	0.865735	0.599545
	H70	H	0.414166	0.102265	0.592723
	H71	H	0.423559	0.872634	0.421510
	H72	H	0.917174	0.598612	0.092834
	H73	H	0.093022	0.370480	0.092395
	H74	H	0.092381	0.598798	0.915800
	H75	H	0.913176	0.368331	0.919825
	H76	H	0.091916	0.899330	0.614328
	H77	H	0.102476	0.068509	0.390877
	H78	H	0.915317	0.075174	0.618146
	H79	H	0.909734	0.894050	0.388609
	H80	H	0.619847	0.069377	0.913909
	H81	H	0.390014	0.075638	0.096029
	H82	H	0.621549	0.883789	0.087835
	H83	H	0.393886	0.899369	0.914592
	H84	H	0.614851	0.905192	0.087953
	H85	H	0.393475	0.072410	0.091545
	H86	H	0.621090	0.073250	0.910661
	H87	H	0.389573	0.895245	0.905918
	H88	H	0.912612	0.071453	0.618225
	H89	H	0.090264	0.068762	0.394921
	H90	H	0.096956	0.883521	0.620742
	H91	H	0.918577	0.899453	0.393964
	H92	H	0.095310	0.599514	0.916744
	H93	H	0.096741	0.367708	0.094628
	H94	H	0.910017	0.601289	0.096662
	H95	H	0.917755	0.367533	0.912494
	H96	H	0.419170	0.101660	0.596323
	H97	H	0.588472	0.872026	0.588980
	H98	H	0.595931	0.100110	0.416232
	H99	H	0.408728	0.866378	0.416576
	H100	H	0.596078	0.397209	0.119809
	H101	H	0.596082	0.574975	0.893047
	H102	H	0.401559	0.572066	0.124330
	H103	H	0.419192	0.388897	0.891665
	H104	H	0.124037	0.579655	0.410391
	H105	H	0.892313	0.575662	0.591651
	H106	H	0.118077	0.401582	0.599591
	H107	H	0.892591	0.397280	0.415563
	H108	H	0.917734	0.600449	0.100758
	H109	H	0.092773	0.368480	0.096780
	H110	H	0.094216	0.600504	0.914442
	H111	H	0.921112	0.371128	0.919937
	H112	H	0.108600	0.897460	0.621540
	H113	H	0.095296	0.079595	0.389568
	H114	H	0.916656	0.071238	0.616035
	H115	H	0.919334	0.888404	0.391388
	H116	H	0.620651	0.074484	0.915469
	H117	H	0.392361	0.069378	0.096963
	H118	H	0.623177	0.895824	0.106258
	H119	H	0.390766	0.889482	0.914020
	C120	C	0.386149	-0.005883	0.624488
	C121	C	0.626836	0.974822	0.624549
	C122	C	0.626960	-0.006944	0.383088
	C123	C	0.385641	0.975430	0.383103
	C124	C	0.627777	0.362636	0.015055
	C125	C	0.625965	0.605001	0.998579
	C126	C	0.381746	0.607115	0.015672
	C127	C	0.383687	0.363611	0.998563
	C128	C	0.014937	0.604483	0.383981
	C129	C	0.996883	0.605432	0.627828
	C130	C	0.013794	0.362606	0.627948
	C131	C	0.997911	0.363899	0.384129
	C132	C	0.883775	0.493331	0.128719
	C133	C	0.125083	0.475973	0.126068
	C134	C	0.127488	0.493295	0.883947
	C135	C	0.885155	0.475892	0.886442
	C136	C	0.129986	0.861670	0.513663
	C137	C	0.128272	0.105318	0.496151
	C138	C	0.883820	0.105686	0.512854
	C139	C	0.884514	0.862522	0.496760
	C140	C	0.514973	0.104684	0.882896
	C141	C	0.496608	0.105633	0.126676
	C142	C	0.513971	0.863916	0.125838
	C143	C	0.497069	0.861330	0.880660
	C144	C	0.384068	0.872603	0.683169
	C145	C	0.629331	0.096207	0.683976
	C146	C	0.629317	0.871837	0.323408
	C147	C	0.383115	0.097120	0.325080
	C148	C	0.688565	0.360765	0.895704
	C149	C	0.683767	0.607232	0.118961
	C150	C	0.323339	0.608275	0.895747
	C151	C	0.325757	0.362954	0.119031
	C152	C	0.893267	0.662374	0.386185
	C153	C	0.119024	0.660591	0.624992
	C154	C	0.893224	0.304462	0.627651
	C155	C	0.118788	0.304677	0.384088
	C156	C	0.893875	0.360679	0.687018
	C157	C	0.118043	0.604514	0.684418
	C158	C	0.893970	0.606594	0.326761
	C159	C	0.118231	0.361232	0.325031
	C160	C	0.383094	0.663792	0.894449
	C161	C	0.624532	0.664147	0.119154
	C162	C	0.628835	0.304537	0.894260
	C163	C	0.384486	0.305264	0.118961
	C164	C	0.686838	0.871580	0.380329
	C165	C	0.685255	0.096785	0.625892
	C166	C	0.328778	0.871646	0.624532
	C167	C	0.325510	0.096924	0.381269
	C168	C	0.882082	0.371910	0.188533
	C169	C	0.127410	0.597054	0.185721
	C170	C	0.131008	0.371874	0.824511
	C171	C	0.882948	0.597679	0.827687
	C172	C	0.188655	0.859726	0.393540
	C173	C	0.189308	0.109078	0.614901
	C174	C	0.823888	0.109667	0.393770
	C175	C	0.822693	0.858699	0.615291
	C176	C	0.394394	0.163995	0.883154
	C177	C	0.616467	0.165891	0.128804
	C178	C	0.392360	0.807668	0.125940
	C179	C	0.617105	0.801180	0.880737
	C180	C	0.394792	0.861824	0.186397
	C181	C	0.615104	0.111056	0.188339
	C182	C	0.394894	0.107347	0.823940
	C183	C	0.616797	0.857216	0.820823
	C184	C	0.883244	0.166108	0.393155
	C185	C	0.129898	0.165609	0.615670
	C186	C	0.129746	0.802701	0.393349
	C187	C	0.884654	0.804729	0.617477
	C188	C	0.188666	0.372252	0.881929
	C189	C	0.182639	0.598208	0.127568
	C190	C	0.823985	0.372344	0.132402
	C191	C	0.825954	0.597869	0.885773
	C192	C	0.410478	0.079208	0.600360
	C193	C	0.601767	0.890382	0.599283
	C194	C	0.601510	0.077633	0.408735
	C195	C	0.410737	0.890579	0.407540
	C196	C	0.602012	0.387867	0.098084
	C197	C	0.602540	0.579468	0.915298
	C198	C	0.404913	0.583175	0.099708
	C199	C	0.407841	0.388501	0.914555
	C200	C	0.098956	0.579664	0.407082
	C201	C	0.912182	0.582433	0.605640
	C202	C	0.097527	0.388038	0.603205
	C203	C	0.914301	0.389513	0.408678
	C204	C	0.908205	0.577934	0.103902
	C205	C	0.101099	0.391109	0.101516
	C206	C	0.101481	0.577683	0.908597
	C207	C	0.910154	0.391043	0.910700
	C208	C	0.106152	0.886377	0.597222
	C209	C	0.103113	0.079781	0.413438
	C210	C	0.907904	0.079872	0.595779
	C211	C	0.908836	0.887079	0.413159
	C212	C	0.598731	0.079507	0.906396
	C213	C	0.413628	0.079802	0.101973
	C214	C	0.597939	0.887873	0.101296
	C215	C	0.413279	0.887229	0.904621
	Zn216	Zn	0.506754	-0.015520	0.752488
	Zn217	Zn	0.506044	-0.014984	0.255142
	Zn218	Zn	0.756922	0.484394	0.007745
	Zn219	Zn	0.253134	0.484947	0.007983
	Zn220	Zn	0.006797	0.733618	0.505357
	Zn221	Zn	0.006036	0.234741	0.505074
	Zn222	Zn	0.005117	0.483995	0.756782
	Zn223	Zn	0.006283	0.484343	0.254401
	Zn224	Zn	0.504303	0.735088	0.005944
	Zn225	Zn	0.505757	0.233754	0.005529
	Zn226	Zn	0.754605	-0.016169	0.503929
	Zn227	Zn	0.258519	-0.015636	0.503951
	N228	N	0.419194	0.949758	0.683177
	N229	N	0.594125	0.019184	0.683400
	N230	N	0.593141	0.948603	0.324918
	N231	N	0.419996	0.020635	0.326151
	N232	N	0.688474	0.395420	0.972039
	N233	N	0.684986	0.571321	0.043179
	N234	N	0.322078	0.573756	0.972260
	N235	N	0.325050	0.398327	0.042910
	N236	N	0.969373	0.661414	0.420909
	N237	N	0.042777	0.661264	0.590631
	N238	N	0.969195	0.305284	0.591994
	N239	N	0.043091	0.306198	0.419962
	N240	N	0.970024	0.395857	0.687228
	N241	N	0.040921	0.571339	0.686626
	N242	N	0.970596	0.571715	0.325031
	N243	N	0.041907	0.397016	0.324770
	N244	N	0.418453	0.663211	0.969984
	N245	N	0.589253	0.662945	0.043403
	N246	N	0.591987	0.305452	0.969451
	N247	N	0.419461	0.305372	0.042819
	N248	N	0.685589	0.948168	0.416545
	N249	N	0.683971	0.020190	0.589742
	N250	N	0.329942	0.948425	0.588889
	N251	N	0.326914	0.020090	0.416617
	N252	N	0.918739	0.448145	0.186322
	N253	N	0.092137	0.520238	0.184644
	N254	N	0.093445	0.447862	0.825936
	N255	N	0.919118	0.520830	0.828114
	N256	N	0.188913	0.895622	0.469252
	N257	N	0.188434	0.072338	0.539679
	N258	N	0.824015	0.072802	0.469092
	N259	N	0.822519	0.894052	0.539203
	N260	N	0.470019	0.162613	0.919048
	N261	N	0.541998	0.162615	0.090959
	N262	N	0.467493	0.808894	0.088822
	N263	N	0.541603	0.803477	0.917160
	N264	N	0.471516	0.896095	0.186615
	N265	N	0.539724	0.074054	0.187212
	N266	N	0.471003	0.071611	0.823452
	N267	N	0.540866	0.893828	0.820627
	N268	N	0.919932	0.163952	0.468092
	N269	N	0.092620	0.163532	0.540952
	N270	N	0.093602	0.803799	0.468995
	N271	N	0.922359	0.806936	0.542692
	N272	N	0.186600	0.448733	0.918426
	N273	N	0.181092	0.521725	0.091031
	N274	N	0.824973	0.448752	0.095780
	N275	N	0.827363	0.521165	0.921822
	O276	O	0.577012	0.497638	0.357874
	H277	H	0.578345	0.494190	0.370635
	H278	H	0.580647	0.494737	0.361929
	O279	O	0.594642	0.558648	0.543365
	H280	H	0.592019	0.556839	0.543871
	H281	H	0.600025	0.540478	0.536600
	O282	O	0.471043	0.555508	0.479012
	H283	H	0.464210	0.564647	0.481303
	H284	H	0.477719	0.574123	0.476968
	O285	O	1.009694	0.022996	0.084850
	H286	H	1.023400	0.010703	0.092394
	H287	H	1.002463	-0.005114	0.077796
	O288	O	-0.128492	-0.189604	1.092647
	H289	H	-0.127913	-0.196564	1.061280
	H290	H	-0.132067	-0.178943	1.080707
	O291	O	0.611812	0.414260	0.403957
	H292	H	0.613484	0.416894	0.420360
	H293	H	0.616442	0.397811	0.408920
	O294	O	0.418905	0.482764	0.629947
	H295	H	0.427750	0.492515	0.638166
	H296	H	0.414731	0.475544	0.638743
	O297	O	1.204513	0.780107	0.935333
	H298	H	1.217291	0.776483	0.932273
	H299	H	1.218634	0.770721	0.917060
	O300	O	-0.212790	-0.035304	0.218332
	H301	H	-0.217434	-0.044261	0.216900
	H302	H	-0.221763	-0.042030	0.243060
	O303	O	0.580821	0.427598	0.625662
	H304	H	0.580867	0.419008	0.627621
	H305	H	0.575301	0.409906	0.635338
	O306	O	0.888490	0.027062	0.119467
	H307	H	0.878586	0.035562	0.119493
	H308	H	0.874219	0.029355	0.132452
	O309	O	0.108795	0.155085	0.935073
	H310	H	0.118609	0.158937	0.942664
	H311	H	0.106075	0.144451	0.945201
	O312	O	1.021345	1.106583	-0.026055
	H313	H	1.011463	1.112939	-0.037299
	H314	H	1.014015	1.098085	-0.031942
	O315	O	-0.201477	0.084868	-0.199936
	H316	H	-0.190160	0.101890	-0.181243
	H317	H	-0.215240	0.091456	-0.207585
	O318	O	0.362344	0.370692	0.626806
	H319	H	0.348596	0.372625	0.634228
	H320	H	0.356860	0.383834	0.619478
	O321	O	0.997759	0.026850	0.970931
	H322	H	1.000323	0.051641	0.980782
	H323	H	0.992872	0.027798	0.961685
	O324	O	0.089229	0.110454	1.018543
	H325	H	0.070855	0.112228	1.033262
	H326	H	0.093641	0.099960	1.022500
	O327	O	0.157140	0.016597	0.136931
	H328	H	0.167743	0.022126	0.137551
	H329	H	0.151204	0.022486	0.141264
	O330	O	0.068797	-0.079251	0.139812
	H331	H	0.066103	-0.072564	0.122958
	H332	H	0.072155	-0.094562	0.136542
	O333	O	0.390269	1.331421	0.629070
	H334	H	0.389436	1.350806	0.625438
	H335	H	0.372063	1.329676	0.615306
	O336	O	0.564171	0.670541	0.705992
	H337	H	0.579507	0.680602	0.712956
	H338	H	0.584165	0.670154	0.715808
	O339	O	1.126529	0.162123	1.116403
	H340	H	1.114181	0.153647	1.142178
	H341	H	1.133797	0.180701	1.122165
	O342	O	0.651246	1.355903	0.411347
	H343	H	0.650141	1.360274	0.407580
	H344	H	0.659483	1.342867	0.421956
	O345	O	-0.028979	0.786263	0.962706
	H346	H	-0.027028	0.776291	0.949693
	H347	H	-0.013477	0.789093	0.975700
	O348	O	0.360237	0.592703	0.658166
	H349	H	0.373036	0.614201	0.649698
	H350	H	0.377167	0.586654	0.657592
	O351	O	0.203520	-0.163547	-0.195267
	H352	H	0.180277	-0.169503	-0.190973
	H353	H	0.194470	-0.152845	-0.206292
	O354	O	0.839811	1.120849	-0.025458
	H355	H	0.819658	1.141047	-0.036305
	H356	H	0.840561	1.100520	-0.022455
	O357	O	0.870748	1.889896	0.201170
	H358	H	0.869355	1.904805	0.184137
	H359	H	0.894416	1.880608	0.203091
	O360	O	0.316223	0.393709	0.515763
	H361	H	0.307930	0.404858	0.521093
	H362	H	0.313076	0.393816	0.505643
	O363	O	-0.173820	1.005667	0.937609
	H364	H	-0.171908	1.006675	0.936310
	H365	H	-0.176140	1.010412	0.955258
	O366	O	1.377136	1.597905	0.396095
	H367	H	1.373281	1.600963	0.394742
	H368	H	1.387845	1.607193	0.394595
	O369	O	0.537629	0.492174	0.521880
	H370	H	0.515849	0.471319	0.517490
	H371	H	0.533331	0.498503	0.509258
	O372	O	0.539443	0.546009	0.389482
	H373	H	0.535245	0.543011	0.390007
	H374	H	0.547033	0.565374	0.386855
	O375	O	0.469370	0.512513	0.504365
	H376	H	0.469197	0.504525	0.513021
	H377	H	0.471299	0.518975	0.510607
	O378	O	0.592044	0.428421	-0.463716
	H379	H	0.577252	0.422220	-0.455869
	H380	H	0.589489	0.426798	-0.476205
	O381	O	0.433772	0.584102	0.573945
	H382	H	0.430306	0.584318	0.586742
	H383	H	0.418681	0.578876	0.576788
	O384	O	0.144014	0.883585	1.143047
	H385	H	0.135159	0.890876	1.147283
	H386	H	0.135721	0.873070	1.148209
	O387	O	1.132444	1.001208	-0.059508
	H388	H	1.130762	0.993848	-0.084513
	H389	H	1.144096	1.008084	-0.050633
	O390	O	0.623769	0.401609	0.572931
	H391	H	0.623681	0.388888	0.561016
	H392	H	0.605112	0.386723	0.588825
	O393	O	1.474461	0.488816	1.386991
	H394	H	1.482994	0.492849	1.388620
	H395	H	1.488390	0.490511	1.383216
	O396	O	-0.009301	1.107012	1.080106
	H397	H	-0.020520	1.096745	1.077665
	H398	H	-0.012841	1.110346	1.095584
	O399	O	0.490726	0.293083	0.703409
	H400	H	0.460816	0.290712	0.705100
	H401	H	0.471337	0.277604	0.713830
	O402	O	1.127877	-0.128632	0.969621
	H403	H	1.137504	-0.134919	0.972428
	H404	H	1.130088	-0.133380	0.969847
	O405	O	-0.031063	-0.185393	0.181873
	H406	H	-0.035956	-0.219805	0.204849
	H407	H	-0.053259	-0.182489	0.162821
	O408	O	0.425844	1.563284	1.420769
	H409	H	0.427380	1.576310	1.419995
	H410	H	0.427340	1.558682	1.415041
	O411	O	0.814994	1.168007	-0.092719
	H412	H	0.845502	1.169929	-0.076374
	H413	H	0.813244	1.187410	-0.088437
	O414	O	-0.040557	0.016418	0.856480
	H415	H	-0.027129	0.021457	0.850143
	H416	H	-0.049403	0.023150	0.857203
	O417	O	0.533534	0.561131	0.368481
	H418	H	0.540562	0.554992	0.370546
	H419	H	0.544993	0.560911	0.369919
	O420	O	0.012365	0.873533	-0.143226
	H421	H	0.001887	0.858334	-0.150956
	H422	H	0.000716	0.891970	-0.153363
	O423	O	0.978823	0.198597	-0.212886
	H424	H	0.986797	0.186675	-0.203276
	H425	H	0.982229	0.231194	-0.238173
	O426	O	0.190236	0.033851	0.818557
	H427	H	0.192388	0.034228	0.812166
	H428	H	0.181506	0.024031	0.837591
	O429	O	-0.072950	0.858314	0.008757
	H430	H	-0.068033	0.884448	0.001614
	H431	H	-0.085209	0.860989	-0.000971
