data_Molecule from HDF5

_cell_length_a		16.236079
_cell_length_b		16.221284
_cell_length_c		16.232219
_cell_angle_alpha	89.919402
_cell_angle_beta	90.173515
_cell_angle_gamma	90.058168
_symmetry_space_group_name_H-M	'P 1'
_symmetry_Int_Tables_number		1

loop_
	_symmetry_equiv_pos_as_xyz
	x,y,z

loop_
	_atom_site_label
	_atom_site_type_symbol
	_atom_site_fract_x
	_atom_site_fract_y
	_atom_site_fract_z
	H0	H	0.395686	0.839877	0.715873
	H1	H	0.591982	0.168412	0.716326
	H2	H	0.591336	0.839941	0.289499
	H3	H	0.395329	0.168589	0.288573
	H4	H	0.705460	0.406478	0.836998
	H5	H	0.707886	0.602187	0.166569
	H6	H	0.278990	0.601532	0.838221
	H7	H	0.279504	0.404933	0.166727
	H8	H	0.828675	0.717466	0.402459
	H9	H	0.156890	0.717020	0.600390
	H10	H	0.829061	0.288890	0.600156
	H11	H	0.158414	0.291238	0.407110
	H12	H	0.829323	0.403995	0.716195
	H13	H	0.157768	0.602102	0.716248
	H14	H	0.829180	0.600974	0.287556
	H15	H	0.158283	0.405652	0.289703
	H16	H	0.394372	0.717379	0.838144
	H17	H	0.591871	0.716715	0.167031
	H18	H	0.590610	0.289827	0.838298
	H19	H	0.396067	0.290413	0.167224
	H20	H	0.706527	0.839389	0.405047
	H21	H	0.706795	0.168305	0.600606
	H22	H	0.280113	0.839301	0.600290
	H23	H	0.279722	0.168463	0.403271
	H24	H	0.896235	0.339374	0.214468
	H25	H	0.092254	0.667268	0.217303
	H26	H	0.091212	0.339043	0.789523
	H27	H	0.895937	0.667571	0.787598
	H28	H	0.206084	0.906607	0.337802
	H29	H	0.207455	0.101172	0.666433
	H30	H	0.779300	0.101196	0.338071
	H31	H	0.779119	0.904296	0.667026
	H32	H	0.329042	0.217466	0.903792
	H33	H	0.657235	0.218280	0.101680
	H34	H	0.328897	0.789631	0.100401
	H35	H	0.657861	0.791806	0.905881
	H36	H	0.328773	0.905078	0.216704
	H37	H	0.657079	0.102000	0.217377
	H38	H	0.329101	0.102364	0.787807
	H39	H	0.657793	0.907635	0.790934
	H40	H	0.896318	0.216217	0.337691
	H41	H	0.090793	0.215591	0.667285
	H42	H	0.089832	0.791070	0.337227
	H43	H	0.895623	0.788654	0.666277
	H44	H	0.206369	0.339119	0.905505
	H45	H	0.207871	0.668066	0.101514
	H46	H	0.779118	0.339970	0.099943
	H47	H	0.780346	0.667890	0.902876
	H48	H	0.401037	0.122042	0.598696
	H49	H	0.597456	0.884112	0.591055
	H50	H	0.585511	0.124109	0.401007
	H51	H	0.398398	0.885861	0.407445
	H52	H	0.580863	0.412561	0.117078
	H53	H	0.582774	0.600093	0.885275
	H54	H	0.402734	0.593954	0.118462
	H55	H	0.395651	0.418652	0.886602
	H56	H	0.110697	0.591643	0.402882
	H57	H	0.876142	0.594693	0.594958
	H58	H	0.109455	0.408858	0.592599
	H59	H	0.879722	0.422910	0.407677
	H60	H	0.110429	0.414176	0.598753
	H61	H	0.874941	0.596936	0.596153
	H62	H	0.112856	0.605135	0.409384
	H63	H	0.871315	0.403240	0.396926
	H64	H	0.402243	0.599546	0.120257
	H65	H	0.589678	0.600665	0.882906
	H66	H	0.589471	0.406228	0.121589
	H67	H	0.407855	0.409558	0.887788
	H68	H	0.579028	0.117352	0.414767
	H69	H	0.585705	0.883464	0.609403
	H70	H	0.401263	0.120253	0.593932
	H71	H	0.401397	0.887343	0.409676
	H72	H	0.904209	0.621963	0.101930
	H73	H	0.082022	0.387910	0.095719
	H74	H	0.088197	0.623508	0.900456
	H75	H	0.890856	0.385450	0.916341
	H76	H	0.088294	0.909847	0.619873
	H77	H	0.085947	0.105732	0.382654
	H78	H	0.905592	0.100233	0.619847
	H79	H	0.896689	0.909925	0.384323
	H80	H	0.609921	0.092946	0.907996
	H81	H	0.370686	0.105891	0.104235
	H82	H	0.604818	0.921299	0.088583
	H83	H	0.376089	0.910792	0.910065
	H84	H	0.613269	0.913615	0.111233
	H85	H	0.377380	0.101988	0.082856
	H86	H	0.612397	0.101557	0.905698
	H87	H	0.375320	0.911443	0.907023
	H88	H	0.894427	0.100365	0.622717
	H89	H	0.093523	0.096349	0.382863
	H90	H	0.087223	0.911177	0.619530
	H91	H	0.899819	0.912830	0.386057
	H92	H	0.078911	0.618225	0.910395
	H93	H	0.090553	0.386055	0.091919
	H94	H	0.904505	0.618825	0.089372
	H95	H	0.897438	0.382136	0.897254
	H96	H	0.396966	0.122371	0.595443
	H97	H	0.576873	0.891642	0.590486
	H98	H	0.594957	0.122715	0.414539
	H99	H	0.397845	0.886801	0.411541
	H100	H	0.591068	0.417184	0.118898
	H101	H	0.587756	0.594315	0.886055
	H102	H	0.397876	0.596146	0.120514
	H103	H	0.394569	0.404348	0.882279
	H104	H	0.106902	0.593779	0.417555
	H105	H	0.876192	0.597139	0.593844
	H106	H	0.112683	0.406386	0.599620
	H107	H	0.877495	0.402758	0.420089
	H108	H	0.893853	0.623606	0.093740
	H109	H	0.088216	0.384042	0.101024
	H110	H	0.092461	0.621706	0.914228
	H111	H	0.909957	0.390104	0.911493
	H112	H	0.086660	0.909619	0.618809
	H113	H	0.082196	0.094094	0.386904
	H114	H	0.898908	0.090252	0.618502
	H115	H	0.901403	0.908896	0.385201
	H116	H	0.609939	0.100221	0.914751
	H117	H	0.377910	0.084636	0.098723
	H118	H	0.612982	0.897354	0.091705
	H119	H	0.374752	0.908273	0.907450
	C120	C	0.371692	0.012790	0.623893
	C121	C	0.615328	0.995278	0.625028
	C122	C	0.614385	0.012507	0.381955
	C123	C	0.371238	0.995131	0.380812
	C124	C	0.614910	0.383003	0.010534
	C125	C	0.615594	0.626360	0.993546
	C126	C	0.371884	0.624953	0.011271
	C127	C	0.371359	0.382358	0.993891
	C128	C	0.001534	0.625079	0.380772
	C129	C	0.984298	0.624686	0.623595
	C130	C	0.001944	0.381386	0.624312
	C131	C	0.985127	0.382040	0.380852
	C132	C	0.872193	0.512832	0.123286
	C133	C	0.115608	0.494616	0.124827
	C134	C	0.114607	0.512180	0.880662
	C135	C	0.871698	0.494882	0.880115
	C136	C	0.114869	0.882180	0.510756
	C137	C	0.115152	0.125663	0.493473
	C138	C	0.871487	0.125120	0.511243
	C139	C	0.871434	0.882099	0.494052
	C140	C	0.501944	0.125771	0.880983
	C141	C	0.484366	0.125629	0.123944
	C142	C	0.501442	0.882207	0.125014
	C143	C	0.484368	0.882525	0.880975
	C144	C	0.374556	0.888832	0.678650
	C145	C	0.612241	0.119230	0.678776
	C146	C	0.611961	0.888912	0.326818
	C147	C	0.374319	0.119322	0.325863
	C148	C	0.668393	0.385978	0.886504
	C149	C	0.670678	0.623214	0.117126
	C150	C	0.316623	0.622290	0.887336
	C151	C	0.317272	0.384703	0.117733
	C152	C	0.877812	0.679657	0.382397
	C153	C	0.108136	0.679226	0.620803
	C154	C	0.877946	0.326941	0.620668
	C155	C	0.109176	0.328409	0.385314
	C156	C	0.878194	0.384087	0.678261
	C157	C	0.108587	0.621882	0.678221
	C158	C	0.878021	0.621904	0.325223
	C159	C	0.109146	0.385481	0.327450
	C160	C	0.374008	0.679998	0.887352
	C161	C	0.612804	0.680226	0.117316
	C162	C	0.611574	0.327606	0.887252
	C163	C	0.374838	0.327494	0.117834
	C164	C	0.669176	0.888667	0.384487
	C165	C	0.669647	0.119060	0.621669
	C166	C	0.317264	0.888693	0.621072
	C167	C	0.317206	0.119321	0.383208
	C168	C	0.875109	0.388520	0.177184
	C169	C	0.112857	0.618542	0.179405
	C170	C	0.111761	0.388252	0.826868
	C171	C	0.875257	0.618679	0.825289
	C172	C	0.168425	0.885659	0.386639
	C173	C	0.169408	0.121678	0.617600
	C174	C	0.817213	0.121849	0.387160
	C175	C	0.816890	0.884259	0.617860
	C176	C	0.378062	0.179721	0.883450
	C177	C	0.608073	0.180283	0.121628
	C178	C	0.377889	0.827496	0.121232
	C179	C	0.608601	0.828840	0.884899
	C180	C	0.377642	0.884908	0.178958
	C181	C	0.608124	0.122495	0.178889
	C182	C	0.378194	0.122592	0.825795
	C183	C	0.608632	0.886206	0.827549
	C184	C	0.874773	0.179456	0.387066
	C185	C	0.111999	0.179065	0.617777
	C186	C	0.110793	0.828089	0.386675
	C187	C	0.874493	0.826823	0.617622
	C188	C	0.169222	0.388260	0.884139
	C189	C	0.170180	0.618861	0.121896
	C190	C	0.817048	0.388922	0.120374
	C191	C	0.817505	0.618779	0.882265
	C192	C	0.393314	0.099225	0.602386
	C193	C	0.593201	0.908615	0.603295
	C194	C	0.592902	0.098957	0.403557
	C195	C	0.392997	0.908956	0.402861
	C196	C	0.593431	0.405335	0.096981
	C197	C	0.593265	0.604814	0.907006
	C198	C	0.394332	0.603025	0.097444
	C199	C	0.392898	0.404440	0.907800
	C200	C	0.087859	0.603196	0.403246
	C201	C	0.898049	0.602709	0.601570
	C202	C	0.088459	0.403152	0.603145
	C203	C	0.898450	0.403388	0.401944
	C204	C	0.894341	0.599145	0.101452
	C205	C	0.093516	0.408363	0.102802
	C206	C	0.093019	0.598811	0.902147
	C207	C	0.892992	0.408180	0.902085
	C208	C	0.093696	0.903894	0.597156
	C209	C	0.093569	0.105000	0.406691
	C210	C	0.893430	0.103434	0.597975
	C211	C	0.892758	0.904132	0.407700
	C212	C	0.588444	0.104469	0.902831
	C213	C	0.397597	0.103791	0.101891
	C214	C	0.588035	0.904197	0.103561
	C215	C	0.397824	0.903757	0.901824
	Zn216	Zn	0.493410	0.003905	0.752462
	Zn217	Zn	0.493000	0.004277	0.253387
	Zn218	Zn	0.743521	0.504287	0.001855
	Zn219	Zn	0.242950	0.503722	0.002636
	Zn220	Zn	-0.007318	0.753353	0.502214
	Zn221	Zn	-0.006491	0.253613	0.502384
	Zn222	Zn	-0.006641	0.503176	0.752139
	Zn223	Zn	-0.006851	0.503589	0.252299
	Zn224	Zn	0.493154	0.754155	0.002380
	Zn225	Zn	0.493002	0.254178	0.002711
	Zn226	Zn	0.742885	0.003730	0.503123
	Zn227	Zn	0.243138	0.004200	0.502268
	N228	N	0.407884	0.966852	0.680519
	N229	N	0.578972	0.041147	0.680765
	N230	N	0.578358	0.966807	0.325171
	N231	N	0.407461	0.041274	0.324404
	N232	N	0.670489	0.419597	0.964337
	N233	N	0.672450	0.590378	0.038954
	N234	N	0.315181	0.588823	0.965284
	N235	N	0.314832	0.418140	0.039893
	N236	N	0.955582	0.681868	0.415936
	N237	N	0.030150	0.681037	0.587358
	N238	N	0.955971	0.325129	0.587921
	N239	N	0.031018	0.326031	0.417780
	N240	N	0.956029	0.417602	0.680266
	N241	N	0.030630	0.588626	0.680148
	N242	N	0.956033	0.588646	0.324219
	N243	N	0.030895	0.418133	0.324650
	N244	N	0.407637	0.681756	0.965352
	N245	N	0.579105	0.682235	0.039454
	N246	N	0.578614	0.325997	0.965255
	N247	N	0.407898	0.325913	0.039895
	N248	N	0.670486	0.966337	0.418266
	N249	N	0.671550	0.040925	0.588825
	N250	N	0.315290	0.966777	0.587943
	N251	N	0.315126	0.041298	0.416660
	N252	N	0.908888	0.466262	0.179021
	N253	N	0.079776	0.540455	0.181412
	N254	N	0.078858	0.466413	0.824325
	N255	N	0.908012	0.540490	0.823696
	N256	N	0.171319	0.918276	0.464688
	N257	N	0.171617	0.089453	0.539211
	N258	N	0.814920	0.089094	0.465399
	N259	N	0.814813	0.917753	0.539879
	N260	N	0.455880	0.181856	0.917187
	N261	N	0.530025	0.182254	0.088323
	N262	N	0.455895	0.825731	0.088465
	N263	N	0.530493	0.826514	0.917389
	N264	N	0.455557	0.918280	0.181456
	N265	N	0.530009	0.089224	0.180387
	N266	N	0.456300	0.089711	0.824075
	N267	N	0.530493	0.919035	0.824991
	N268	N	0.908178	0.181290	0.465183
	N269	N	0.078898	0.181635	0.539801
	N270	N	0.077927	0.826012	0.464763
	N271	N	0.907759	0.825406	0.539817
	N272	N	0.170823	0.466379	0.917202
	N273	N	0.171984	0.540866	0.088581
	N274	N	0.815149	0.467094	0.087658
	N275	N	0.815298	0.540834	0.915615
	O276	O	0.493818	-0.469603	0.508652
	H277	H	0.495787	-0.462179	0.511653
	H278	H	0.497018	-0.470210	0.512456
	O279	O	0.410673	0.553054	0.445759
	H280	H	0.414709	0.553695	0.447211
	H281	H	0.408070	0.550207	0.439913
	O282	O	0.514581	0.475881	0.482890
	H283	H	0.516899	0.475337	0.487595
	H284	H	0.510487	0.472545	0.478342
	O285	O	0.459849	0.515060	0.508844
	H286	H	0.466559	0.513427	0.512301
	H287	H	0.455159	0.519600	0.506480
	O288	O	0.476018	0.526341	0.522187
	H289	H	0.473613	0.522741	0.522558
	H290	H	0.479606	0.536718	0.531160
	O291	O	0.458830	0.500087	0.527612
	H292	H	0.447738	0.499494	0.527379
	H293	H	0.456297	0.499562	0.527704
	O294	O	0.441094	0.593250	0.461095
	H295	H	0.432631	0.587506	0.456050
	H296	H	0.442644	0.589009	0.459807
	O297	O	1.435041	0.540311	0.466091
	H298	H	1.442744	0.543859	0.464550
	H299	H	1.434455	0.543760	0.457472
