data_Molecule from HDF5

_cell_length_a		16.237416
_cell_length_b		16.344184
_cell_length_c		16.165124
_cell_angle_alpha	90.014612
_cell_angle_beta	89.920477
_cell_angle_gamma	90.007897
_symmetry_space_group_name_H-M	'P 1'
_symmetry_Int_Tables_number		1

loop_
	_symmetry_equiv_pos_as_xyz
	x,y,z

loop_
	_atom_site_label
	_atom_site_type_symbol
	_atom_site_fract_x
	_atom_site_fract_y
	_atom_site_fract_z
	H0	H	0.402122	0.836670	0.714274
	H1	H	0.598112	0.163227	0.714537
	H2	H	0.598161	0.836663	0.285933
	H3	H	0.403228	0.163985	0.286459
	H4	H	0.712110	0.403251	0.834712
	H5	H	0.713252	0.598950	0.164332
	H6	H	0.287242	0.596659	0.835070
	H7	H	0.286996	0.403329	0.164808
	H8	H	0.836878	0.715827	0.398985
	H9	H	0.163484	0.714218	0.598930
	H10	H	0.836353	0.285323	0.599675
	H11	H	0.163788	0.284140	0.399663
	H12	H	0.835542	0.403541	0.712761
	H13	H	0.165105	0.595323	0.711619
	H14	H	0.835271	0.595621	0.287932
	H15	H	0.164797	0.403274	0.286855
	H16	H	0.399660	0.714936	0.836025
	H17	H	0.598609	0.714301	0.164098
	H18	H	0.599133	0.285582	0.836083
	H19	H	0.399914	0.285876	0.164082
	H20	H	0.715299	0.836697	0.401521
	H21	H	0.716163	0.162935	0.599267
	H22	H	0.285211	0.836950	0.598686
	H23	H	0.284956	0.162798	0.401190
	H24	H	0.901419	0.337208	0.215044
	H25	H	0.097457	0.663441	0.213881
	H26	H	0.097565	0.336282	0.784943
	H27	H	0.903772	0.663944	0.786942
	H28	H	0.213283	0.902635	0.335213
	H29	H	0.211807	0.096222	0.665604
	H30	H	0.788638	0.095789	0.334894
	H31	H	0.786501	0.902039	0.664936
	H32	H	0.336641	0.215415	0.900318
	H33	H	0.662875	0.216347	0.100460
	H34	H	0.336513	0.785035	0.099824
	H35	H	0.663249	0.784949	0.899451
	H36	H	0.335140	0.904395	0.212555
	H37	H	0.665031	0.096305	0.211477
	H38	H	0.335026	0.096034	0.787923
	H39	H	0.664663	0.904103	0.787796
	H40	H	0.899909	0.214530	0.336102
	H41	H	0.100525	0.215569	0.664292
	H42	H	0.100323	0.785413	0.335339
	H43	H	0.900953	0.785529	0.663925
	H44	H	0.214749	0.336807	0.902226
	H45	H	0.214268	0.663319	0.097522
	H46	H	0.784237	0.336994	0.099258
	H47	H	0.784781	0.663121	0.901030
	H48	H	0.399472	0.116254	0.587886
	H49	H	0.593292	0.885786	0.585784
	H50	H	0.606834	0.119097	0.409748
	H51	H	0.407696	0.886774	0.415492
	H52	H	0.594146	0.408508	0.118127
	H53	H	0.586502	0.585610	0.886397
	H54	H	0.406821	0.595374	0.118335
	H55	H	0.404315	0.406562	0.881549
	H56	H	0.115406	0.589922	0.410738
	H57	H	0.884979	0.594895	0.584515
	H58	H	0.118503	0.404283	0.595097
	H59	H	0.885757	0.409762	0.412488
	H60	H	0.117313	0.404729	0.589568
	H61	H	0.883365	0.586332	0.597536
	H62	H	0.118732	0.593039	0.401799
	H63	H	0.881364	0.408238	0.401064
	H64	H	0.405548	0.592275	0.118319
	H65	H	0.588722	0.603658	0.880585
	H66	H	0.590139	0.408095	0.116943
	H67	H	0.409139	0.408353	0.882987
	H68	H	0.591255	0.119317	0.395459
	H69	H	0.599813	0.881126	0.596559
	H70	H	0.404597	0.118681	0.601155
	H71	H	0.397718	0.880568	0.403662
	H72	H	0.909073	0.614703	0.089973
	H73	H	0.089045	0.386576	0.088004
	H74	H	0.098444	0.618975	0.901551
	H75	H	0.909060	0.381700	0.897049
	H76	H	0.097870	0.902319	0.620481
	H77	H	0.088377	0.098975	0.382541
	H78	H	0.912117	0.090561	0.615752
	H79	H	0.909255	0.904337	0.382214
	H80	H	0.618500	0.094475	0.902564
	H81	H	0.381605	0.097943	0.095329
	H82	H	0.621190	0.900801	0.099988
	H83	H	0.384917	0.911143	0.909946
	H84	H	0.615721	0.901315	0.082537
	H85	H	0.383371	0.094055	0.088637
	H86	H	0.617080	0.098182	0.911382
	H87	H	0.380904	0.906505	0.901967
	H88	H	0.909208	0.099107	0.619839
	H89	H	0.099503	0.093397	0.380342
	H90	H	0.092720	0.912232	0.616070
	H91	H	0.905181	0.906859	0.381447
	H92	H	0.088164	0.614824	0.904253
	H93	H	0.100295	0.382188	0.091615
	H94	H	0.901831	0.616859	0.092127
	H95	H	0.911776	0.387479	0.913929
	H96	H	0.413719	0.113897	0.591330
	H97	H	0.587603	0.884617	0.597793
	H98	H	0.587456	0.111534	0.415143
	H99	H	0.413830	0.884196	0.400269
	H100	H	0.592120	0.404644	0.118892
	H101	H	0.603097	0.591599	0.878830
	H102	H	0.408502	0.592353	0.117136
	H103	H	0.408942	0.403184	0.881713
	H104	H	0.118243	0.599025	0.409555
	H105	H	0.878838	0.602160	0.597836
	H106	H	0.116824	0.408849	0.593003
	H107	H	0.881905	0.399179	0.409492
	H108	H	0.907775	0.616890	0.098071
	H109	H	0.090309	0.382835	0.100020
	H110	H	0.095989	0.615000	0.911933
	H111	H	0.895834	0.381443	0.908537
	H112	H	0.086295	0.902302	0.616825
	H113	H	0.089528	0.086720	0.385657
	H114	H	0.903055	0.091633	0.619032
	H115	H	0.909830	0.909402	0.383167
	H116	H	0.614905	0.089133	0.909403
	H117	H	0.383656	0.089958	0.095682
	H118	H	0.614275	0.915986	0.092965
	H119	H	0.382051	0.901599	0.910605
	C120	C	0.377590	0.008454	0.621931
	C121	C	0.622407	0.991577	0.622116
	C122	C	0.623147	0.008388	0.378073
	C123	C	0.378346	0.991890	0.378367
	C124	C	0.620594	0.378904	0.008749
	C125	C	0.620979	0.621575	0.991056
	C126	C	0.378725	0.621222	0.008650
	C127	C	0.378718	0.378238	0.991126
	C128	C	0.008545	0.621984	0.378795
	C129	C	0.991387	0.622027	0.621453
	C130	C	0.008375	0.378352	0.620990
	C131	C	0.991764	0.377517	0.378467
	C132	C	0.877334	0.508557	0.122166
	C133	C	0.121768	0.491382	0.121779
	C134	C	0.122158	0.508170	0.877553
	C135	C	0.877823	0.491688	0.878287
	C136	C	0.121330	0.878088	0.508697
	C137	C	0.120830	0.121289	0.491597
	C138	C	0.879289	0.121507	0.509127
	C139	C	0.879366	0.878472	0.491274
	C140	C	0.508331	0.121879	0.879120
	C141	C	0.491259	0.122071	0.121471
	C142	C	0.508572	0.878302	0.120920
	C143	C	0.491274	0.878081	0.878403
	C144	C	0.380805	0.885592	0.677098
	C145	C	0.619083	0.114561	0.676775
	C146	C	0.619745	0.885595	0.323309
	C147	C	0.382036	0.115160	0.324139
	C148	C	0.675029	0.382127	0.884333
	C149	C	0.675539	0.618801	0.115152
	C150	C	0.324580	0.617578	0.884263
	C151	C	0.323920	0.381674	0.115530
	C152	C	0.885349	0.676911	0.380315
	C153	C	0.114978	0.676075	0.618581
	C154	C	0.885058	0.323752	0.619118
	C155	C	0.115072	0.322472	0.380036
	C156	C	0.884611	0.382443	0.675350
	C157	C	0.115725	0.617237	0.674824
	C158	C	0.884584	0.617529	0.324789
	C159	C	0.115543	0.381376	0.323983
	C160	C	0.380685	0.675968	0.884719
	C161	C	0.618729	0.676493	0.114833
	C162	C	0.618995	0.323715	0.884890
	C163	C	0.379916	0.323352	0.114906
	C164	C	0.677630	0.885495	0.380890
	C165	C	0.677622	0.114189	0.619501
	C166	C	0.322854	0.885566	0.619597
	C167	C	0.323136	0.114476	0.381100
	C168	C	0.880771	0.385607	0.177057
	C169	C	0.118503	0.614851	0.176281
	C170	C	0.118566	0.385015	0.822982
	C171	C	0.881823	0.614835	0.823989
	C172	C	0.176192	0.881466	0.384442
	C173	C	0.174744	0.117390	0.616263
	C174	C	0.825198	0.117454	0.384324
	C175	C	0.824328	0.881457	0.615603
	C176	C	0.385249	0.176964	0.880484
	C177	C	0.614552	0.177541	0.119862
	C178	C	0.385156	0.823167	0.119676
	C179	C	0.614383	0.823365	0.880228
	C180	C	0.384598	0.882361	0.175703
	C181	C	0.615524	0.118034	0.175197
	C182	C	0.384596	0.118001	0.824524
	C183	C	0.615337	0.882275	0.824265
	C184	C	0.880449	0.176429	0.385105
	C185	C	0.119093	0.176468	0.615526
	C186	C	0.119974	0.823529	0.384469
	C187	C	0.881152	0.823722	0.615278
	C188	C	0.176793	0.385110	0.880837
	C189	C	0.176326	0.614747	0.118646
	C190	C	0.822583	0.385677	0.119393
	C191	C	0.823018	0.614571	0.881009
	C192	C	0.399400	0.094047	0.599967
	C193	C	0.600164	0.905836	0.599833
	C194	C	0.601591	0.094487	0.400186
	C195	C	0.399946	0.905942	0.400012
	C196	C	0.598616	0.400665	0.095587
	C197	C	0.599261	0.599971	0.904131
	C198	C	0.400576	0.599720	0.095471
	C199	C	0.400785	0.399912	0.904558
	C200	C	0.095132	0.600431	0.400731
	C201	C	0.904675	0.600718	0.599654
	C202	C	0.095115	0.399769	0.598988
	C203	C	0.905422	0.399357	0.400947
	C204	C	0.899723	0.594089	0.100092
	C205	C	0.099711	0.406026	0.099762
	C206	C	0.100661	0.593940	0.899380
	C207	C	0.899398	0.405647	0.900130
	C208	C	0.099145	0.899445	0.595384
	C209	C	0.098947	0.099421	0.405068
	C210	C	0.901475	0.099985	0.595855
	C211	C	0.901775	0.900403	0.404806
	C212	C	0.594614	0.100374	0.901283
	C213	C	0.405073	0.100403	0.099694
	C214	C	0.594830	0.899760	0.098459
	C215	C	0.404844	0.899786	0.900723
	Zn216	Zn	0.500020	0.000042	0.750752
	Zn217	Zn	0.500424	0.000379	0.249718
	Zn218	Zn	0.748619	0.500198	0.000149
	Zn219	Zn	0.250879	0.499972	0.000021
	Zn220	Zn	0.000007	0.750448	0.499348
	Zn221	Zn	-0.000158	0.249647	0.499783
	Zn222	Zn	0.000010	0.499998	0.748697
	Zn223	Zn	0.000120	0.500192	0.250868
	Zn224	Zn	0.499669	0.749416	-0.000166
	Zn225	Zn	0.499845	0.250647	0.000232
	Zn226	Zn	0.751816	0.000078	0.500196
	Zn227	Zn	0.248519	-0.000261	0.500309
	N228	N	0.414438	0.962812	0.678524
	N229	N	0.585410	0.037209	0.678585
	N230	N	0.586504	0.962960	0.321622
	N231	N	0.415582	0.037927	0.322282
	N232	N	0.676068	0.415763	0.962361
	N233	N	0.676723	0.585267	0.037122
	N234	N	0.323253	0.584040	0.962238
	N235	N	0.322906	0.415108	0.037532
	N236	N	0.963570	0.679800	0.412919
	N237	N	0.036714	0.679198	0.586185
	N238	N	0.963275	0.321055	0.586162
	N239	N	0.037056	0.320147	0.413216
	N240	N	0.962420	0.415582	0.676366
	N241	N	0.037797	0.584324	0.676424
	N242	N	0.962142	0.583952	0.324068
	N243	N	0.037896	0.415058	0.322827
	N244	N	0.413489	0.678318	0.962994
	N245	N	0.585616	0.678325	0.036576
	N246	N	0.585859	0.321651	0.963211
	N247	N	0.413498	0.321327	0.036633
	N248	N	0.679747	0.962965	0.414297
	N249	N	0.679469	0.036850	0.586222
	N250	N	0.320865	0.962836	0.585969
	N251	N	0.320800	0.036924	0.414107
	N252	N	0.914060	0.462965	0.179005
	N253	N	0.085243	0.537469	0.178374
	N254	N	0.085406	0.462422	0.821056
	N255	N	0.915157	0.537371	0.822151
	N256	N	0.177246	0.914665	0.462568
	N257	N	0.176090	0.083855	0.538237
	N258	N	0.824348	0.083913	0.462357
	N259	N	0.822999	0.914622	0.537624
	N260	N	0.463042	0.179001	0.913957
	N261	N	0.536291	0.180272	0.087309
	N262	N	0.463090	0.820681	0.086347
	N263	N	0.536081	0.820536	0.912980
	N264	N	0.462313	0.915947	0.176768
	N265	N	0.538199	0.083973	0.176010
	N266	N	0.462067	0.084204	0.823537
	N267	N	0.537739	0.915714	0.823181
	N268	N	0.913276	0.179093	0.463564
	N269	N	0.086348	0.179035	0.537047
	N270	N	0.086574	0.821206	0.462718
	N271	N	0.914795	0.821869	0.537112
	N272	N	0.179126	0.462554	0.914089
	N273	N	0.178605	0.537163	0.085533
	N274	N	0.820289	0.463114	0.086204
	N275	N	0.820647	0.537016	0.914026
