data_Molecule from HDF5

_cell_length_a		16.230966
_cell_length_b		16.213304
_cell_length_c		16.245510
_cell_angle_alpha	90.138335
_cell_angle_beta	89.928977
_cell_angle_gamma	89.856255
_symmetry_space_group_name_H-M	'P 1'
_symmetry_Int_Tables_number		1

loop_
	_symmetry_equiv_pos_as_xyz
	x,y,z

loop_
	_atom_site_label
	_atom_site_type_symbol
	_atom_site_fract_x
	_atom_site_fract_y
	_atom_site_fract_z
	H0	H	0.397931	0.837831	0.714847
	H1	H	0.593492	0.166602	0.714805
	H2	H	0.595904	0.838215	0.285049
	H3	H	0.397190	0.166621	0.288098
	H4	H	0.710012	0.401567	0.836522
	H5	H	0.707863	0.599491	0.164896
	H6	H	0.280758	0.600525	0.835583
	H7	H	0.279870	0.404601	0.163970
	H8	H	0.832309	0.716671	0.401296
	H9	H	0.159501	0.715835	0.599168
	H10	H	0.830926	0.288982	0.596688
	H11	H	0.159999	0.287954	0.402409
	H12	H	0.830837	0.403911	0.713625
	H13	H	0.159070	0.601144	0.714689
	H14	H	0.831151	0.600136	0.287373
	H15	H	0.159894	0.402081	0.285639
	H16	H	0.396297	0.716599	0.836034
	H17	H	0.594106	0.716818	0.164432
	H18	H	0.593505	0.287106	0.836849
	H19	H	0.395872	0.288692	0.164594
	H20	H	0.709423	0.837124	0.402708
	H21	H	0.708643	0.166203	0.599032
	H22	H	0.282621	0.837363	0.599062
	H23	H	0.280781	0.166347	0.402945
	H24	H	0.897305	0.337498	0.213023
	H25	H	0.092599	0.666159	0.215462
	H26	H	0.094628	0.338026	0.784563
	H27	H	0.895257	0.666548	0.786082
	H28	H	0.210635	0.901882	0.336679
	H29	H	0.209324	0.101297	0.664527
	H30	H	0.780201	0.100154	0.337142
	H31	H	0.782020	0.903774	0.664933
	H32	H	0.331111	0.214280	0.904718
	H33	H	0.658768	0.216616	0.100187
	H34	H	0.331471	0.788329	0.099419
	H35	H	0.659078	0.787546	0.901397
	H36	H	0.331768	0.902560	0.216524
	H37	H	0.659555	0.101326	0.215175
	H38	H	0.331711	0.101371	0.787245
	H39	H	0.659471	0.902830	0.786803
	H40	H	0.897927	0.214153	0.335360
	H41	H	0.093299	0.216472	0.664294
	H42	H	0.095038	0.786837	0.336863
	H43	H	0.897653	0.787589	0.664262
	H44	H	0.208006	0.337379	0.901790
	H45	H	0.207528	0.667105	0.098207
	H46	H	0.782893	0.337187	0.096717
	H47	H	0.780584	0.666952	0.902372
	H48	H	0.398954	0.121184	0.597737
	H49	H	0.585409	0.886501	0.592631
	H50	H	0.593067	0.120290	0.407842
	H51	H	0.397120	0.882566	0.407147
	H52	H	0.589766	0.412330	0.117479
	H53	H	0.597213	0.596457	0.880085
	H54	H	0.409805	0.601061	0.115611
	H55	H	0.386196	0.408378	0.878774
	H56	H	0.113346	0.596099	0.408437
	H57	H	0.876036	0.594044	0.601340
	H58	H	0.107215	0.420533	0.588534
	H59	H	0.875591	0.404078	0.402960
	H60	H	0.116601	0.407049	0.604543
	H61	H	0.877264	0.602371	0.588440
	H62	H	0.111545	0.592104	0.409313
	H63	H	0.879262	0.406478	0.411729
	H64	H	0.392906	0.599703	0.120412
	H65	H	0.585375	0.584834	0.886909
	H66	H	0.585469	0.408267	0.117829
	H67	H	0.408303	0.421536	0.889185
	H68	H	0.585243	0.119705	0.404903
	H69	H	0.592051	0.883419	0.592384
	H70	H	0.405558	0.119502	0.596637
	H71	H	0.408419	0.884831	0.402611
	H72	H	0.905652	0.614793	0.084446
	H73	H	0.095076	0.381306	0.094806
	H74	H	0.085929	0.620076	0.903840
	H75	H	0.897451	0.383662	0.906112
	H76	H	0.081704	0.896400	0.619299
	H77	H	0.088185	0.107254	0.379244
	H78	H	0.913799	0.105208	0.617010
	H79	H	0.907557	0.898468	0.381763
	H80	H	0.611873	0.093896	0.913334
	H81	H	0.379185	0.089473	0.097485
	H82	H	0.613728	0.903977	0.093295
	H83	H	0.373028	0.911706	0.890742
	H84	H	0.609725	0.912054	0.087252
	H85	H	0.375882	0.100414	0.098561
	H86	H	0.613155	0.090374	0.903048
	H87	H	0.375247	0.893879	0.914209
	H88	H	0.888972	0.102496	0.623235
	H89	H	0.101432	0.088570	0.381745
	H90	H	0.102114	0.909266	0.621602
	H91	H	0.890710	0.909666	0.380379
	H92	H	0.085513	0.618318	0.909321
	H93	H	0.081704	0.385161	0.098128
	H94	H	0.889803	0.623566	0.094218
	H95	H	0.904531	0.384572	0.901854
	H96	H	0.401457	0.118668	0.590778
	H97	H	0.587961	0.883447	0.598539
	H98	H	0.586500	0.117366	0.412809
	H99	H	0.405786	0.887743	0.414417
	H100	H	0.590668	0.405991	0.119471
	H101	H	0.580111	0.601511	0.883810
	H102	H	0.401121	0.585229	0.113911
	H103	H	0.409764	0.394828	0.881416
	H104	H	0.113112	0.592457	0.405279
	H105	H	0.882155	0.588065	0.589063
	H106	H	0.114023	0.399030	0.584763
	H107	H	0.878929	0.413543	0.403869
	H108	H	0.907117	0.620335	0.103223
	H109	H	0.087118	0.387530	0.084985
	H110	H	0.090444	0.620405	0.906771
	H111	H	0.904858	0.386967	0.910196
	H112	H	0.082219	0.920349	0.613191
	H113	H	0.079299	0.087756	0.387700
	H114	H	0.902408	0.082109	0.613552
	H115	H	0.907388	0.917571	0.387198
	H116	H	0.615689	0.100986	0.904838
	H117	H	0.379344	0.096305	0.088766
	H118	H	0.612660	0.914127	0.097768
	H119	H	0.384129	0.922187	0.916300
	C120	C	0.373882	0.010990	0.623025
	C121	C	0.617215	0.993258	0.622922
	C122	C	0.617019	0.010522	0.379885
	C123	C	0.374442	0.993424	0.379783
	C124	C	0.617033	0.380022	0.009577
	C125	C	0.616226	0.623343	0.992111
	C126	C	0.372872	0.623923	0.008266
	C127	C	0.372923	0.380281	0.991509
	C128	C	0.004384	0.622793	0.379254
	C129	C	0.986713	0.623795	0.621636
	C130	C	0.003871	0.380350	0.620989
	C131	C	0.986926	0.379689	0.378018
	C132	C	0.872904	0.510848	0.121917
	C133	C	0.116233	0.493257	0.121601
	C134	C	0.116164	0.510730	0.878147
	C135	C	0.873053	0.493968	0.878126
	C136	C	0.117562	0.879749	0.509387
	C137	C	0.117237	0.123221	0.491958
	C138	C	0.873809	0.123853	0.509263
	C139	C	0.874274	0.880295	0.492002
	C140	C	0.504415	0.123302	0.879756
	C141	C	0.486619	0.124041	0.123231
	C142	C	0.503890	0.881094	0.122295
	C143	C	0.486641	0.880615	0.878879
	C144	C	0.376962	0.886926	0.677724
	C145	C	0.614363	0.117191	0.677535
	C146	C	0.615196	0.886786	0.323937
	C147	C	0.376483	0.117427	0.325309
	C148	C	0.672024	0.381984	0.885664
	C149	C	0.670860	0.620834	0.115529
	C150	C	0.318288	0.621209	0.884705
	C151	C	0.317568	0.383386	0.115100
	C152	C	0.880930	0.678400	0.381451
	C153	C	0.110519	0.678399	0.619186
	C154	C	0.880177	0.326259	0.617753
	C155	C	0.110748	0.325179	0.381115
	C156	C	0.880080	0.383295	0.675771
	C157	C	0.110152	0.621539	0.676884
	C158	C	0.880385	0.620713	0.324763
	C159	C	0.110560	0.382002	0.323148
	C160	C	0.375837	0.678821	0.884819
	C161	C	0.613854	0.678937	0.115373
	C162	C	0.614117	0.324933	0.885895
	C163	C	0.375398	0.325931	0.115297
	C164	C	0.671938	0.886322	0.382145
	C165	C	0.671694	0.117016	0.619982
	C166	C	0.319777	0.886727	0.620169
	C167	C	0.318857	0.117301	0.382726
	C168	C	0.876644	0.386530	0.175620
	C169	C	0.113550	0.617358	0.177211
	C170	C	0.114266	0.387143	0.822852
	C171	C	0.875086	0.617557	0.823656
	C172	C	0.173110	0.881691	0.386075
	C173	C	0.171553	0.121413	0.615559
	C174	C	0.818775	0.120451	0.385671
	C175	C	0.819909	0.883365	0.615929
	C176	C	0.380247	0.177554	0.883544
	C177	C	0.610010	0.179081	0.120715
	C178	C	0.380435	0.826154	0.119730
	C179	C	0.610081	0.825503	0.881578
	C180	C	0.380482	0.883181	0.177860
	C181	C	0.610302	0.121828	0.177882
	C182	C	0.380567	0.121306	0.825247
	C183	C	0.610352	0.882895	0.824529
	C184	C	0.877010	0.177300	0.384873
	C185	C	0.113790	0.178386	0.615420
	C186	C	0.115422	0.824622	0.385985
	C187	C	0.877108	0.825490	0.615478
	C188	C	0.171027	0.386801	0.880714
	C189	C	0.170647	0.617577	0.119018
	C190	C	0.819830	0.386377	0.117780
	C191	C	0.817825	0.617666	0.881347
	C192	C	0.395479	0.097425	0.601508
	C193	C	0.595084	0.906632	0.600865
	C194	C	0.594852	0.096728	0.402092
	C195	C	0.397070	0.907399	0.401598
	C196	C	0.595130	0.402363	0.095884
	C197	C	0.593997	0.601007	0.905792
	C198	C	0.394785	0.601880	0.094481
	C199	C	0.394943	0.401821	0.905375
	C200	C	0.090479	0.600170	0.401311
	C201	C	0.900701	0.601447	0.599390
	C202	C	0.090437	0.402371	0.599144
	C203	C	0.900306	0.401635	0.399749
	C204	C	0.894427	0.597188	0.100413
	C205	C	0.094420	0.407046	0.099241
	C206	C	0.094016	0.597447	0.900254
	C207	C	0.895534	0.407356	0.899751
	C208	C	0.095257	0.902201	0.595892
	C209	C	0.095925	0.101136	0.405354
	C210	C	0.895315	0.102795	0.595600
	C211	C	0.895724	0.902075	0.405464
	C212	C	0.591008	0.101473	0.900852
	C213	C	0.400458	0.101779	0.101356
	C214	C	0.589956	0.903551	0.099587
	C215	C	0.399800	0.902721	0.900656
	Zn216	Zn	0.495671	0.002388	0.750934
	Zn217	Zn	0.495966	0.002212	0.251117
	Zn218	Zn	0.744747	0.502231	0.000299
	Zn219	Zn	0.244388	0.502414	-0.000547
	Zn220	Zn	-0.004317	0.751759	0.500207
	Zn221	Zn	-0.004309	0.251562	0.499571
	Zn222	Zn	-0.004984	0.502480	0.749967
	Zn223	Zn	-0.005007	0.501999	0.250478
	Zn224	Zn	0.495026	0.752624	0.000104
	Zn225	Zn	0.495518	0.251328	0.001023
	Zn226	Zn	0.745458	0.001696	0.501337
	Zn227	Zn	0.245522	0.001768	0.501338
	N228	N	0.410131	0.965096	0.679547
	N229	N	0.581166	0.039285	0.679427
	N230	N	0.581736	0.964919	0.322506
	N231	N	0.410320	0.039513	0.323330
	N232	N	0.674010	0.415376	0.963571
	N233	N	0.672159	0.586956	0.037932
	N234	N	0.316447	0.587785	0.962439
	N235	N	0.315939	0.416497	0.037217
	N236	N	0.958844	0.679878	0.414550
	N237	N	0.032717	0.680116	0.585733
	N238	N	0.958220	0.324362	0.584489
	N239	N	0.032934	0.323748	0.414665
	N240	N	0.958036	0.416378	0.677879
	N241	N	0.032202	0.588325	0.678489
	N242	N	0.958151	0.586669	0.323265
	N243	N	0.032477	0.415218	0.321196
	N244	N	0.409272	0.680599	0.962707
	N245	N	0.580500	0.680516	0.037449
	N246	N	0.580773	0.323301	0.963954
	N247	N	0.409204	0.323826	0.037556
	N248	N	0.673332	0.964100	0.416291
	N249	N	0.673370	0.038779	0.586785
	N250	N	0.317671	0.964670	0.586917
	N251	N	0.317613	0.039326	0.415927
	N252	N	0.908901	0.464913	0.178651
	N253	N	0.080453	0.539188	0.178849
	N254	N	0.080793	0.465262	0.821343
	N255	N	0.908618	0.539440	0.821398
	N256	N	0.174500	0.915409	0.463983
	N257	N	0.173577	0.087718	0.537794
	N258	N	0.816607	0.088048	0.463869
	N259	N	0.817963	0.916684	0.538166
	N260	N	0.458206	0.178820	0.916746
	N261	N	0.532256	0.180491	0.087351
	N262	N	0.458123	0.824726	0.085747
	N263	N	0.531999	0.824025	0.914542
	N264	N	0.458449	0.916313	0.179678
	N265	N	0.532571	0.088247	0.179566
	N266	N	0.458687	0.088251	0.822769
	N267	N	0.532366	0.916453	0.822773
	N268	N	0.910575	0.179438	0.462632
	N269	N	0.080790	0.179669	0.537278
	N270	N	0.081507	0.823574	0.463611
	N271	N	0.910136	0.823681	0.537406
	N272	N	0.172070	0.464619	0.914560
	N273	N	0.172310	0.539732	0.085033
	N274	N	0.817371	0.464472	0.085123
	N275	N	0.816588	0.539669	0.914495
	O276	O	0.538255	0.498146	0.519655
	H277	H	0.541967	0.497218	0.519464
	H278	H	0.532095	0.496015	0.520264
	O279	O	-0.025236	0.010516	0.028610
	H280	H	-0.025646	0.011198	0.031394
	H281	H	-0.023590	0.008219	0.033646
	O282	O	0.538409	0.411035	0.460575
	H283	H	0.547981	0.410594	0.455714
	H284	H	0.531260	0.406895	0.462190
	O285	O	0.444104	0.523694	0.459202
	H286	H	0.436985	0.526857	0.463081
	H287	H	0.450972	0.529355	0.451133
	O288	O	0.946814	0.041082	0.026840
	H289	H	0.943597	0.045843	0.029849
	H290	H	0.951272	0.041918	0.027300
	O291	O	-0.450761	0.480929	-0.549625
	H292	H	-0.444294	0.479715	-0.538750
	H293	H	-0.463155	0.480572	-0.548220
	O294	O	0.533899	0.462901	0.430292
	H295	H	0.530538	0.467377	0.428475
	H296	H	0.538303	0.460100	0.434548
	O297	O	0.470523	1.507033	0.515846
	H298	H	0.470485	1.511672	0.509421
	H299	H	0.471047	1.511432	0.521002
	O300	O	1.480555	0.535864	0.515139
	H301	H	1.487523	0.532040	0.510241
	H302	H	1.484233	0.544302	0.502450
	O303	O	0.536428	0.484589	0.493293
	H304	H	0.538340	0.483158	0.499286
	H305	H	0.538311	0.481217	0.494498
	O306	O	0.535940	0.565385	1.512194
	H307	H	0.545416	0.562515	1.508512
	H308	H	0.531016	0.580281	1.511567
	O309	O	0.527380	0.549053	0.464060
	H310	H	0.526992	0.546656	0.468898
	H311	H	0.520629	0.539602	0.463171
