data_Molecule from HDF5

_cell_length_a		16.201106
_cell_length_b		16.218357
_cell_length_c		16.150844
_cell_angle_alpha	89.877782
_cell_angle_beta	89.814521
_cell_angle_gamma	89.836966
_symmetry_space_group_name_H-M	'P 1'
_symmetry_Int_Tables_number		1

loop_
	_symmetry_equiv_pos_as_xyz
	x,y,z

loop_
	_atom_site_label
	_atom_site_type_symbol
	_atom_site_fract_x
	_atom_site_fract_y
	_atom_site_fract_z
	H0	H	0.404025	0.837934	0.713664
	H1	H	0.601305	0.165954	0.711803
	H2	H	0.601846	0.837242	0.283499
	H3	H	0.403758	0.165903	0.284810
	H4	H	0.718318	0.402011	0.834389
	H5	H	0.716326	0.600497	0.163436
	H6	H	0.289222	0.602867	0.834016
	H7	H	0.288454	0.404420	0.162326
	H8	H	0.837745	0.716183	0.399542
	H9	H	0.165687	0.716238	0.597609
	H10	H	0.837324	0.286702	0.598468
	H11	H	0.166454	0.285066	0.396289
	H12	H	0.838294	0.402662	0.714142
	H13	H	0.167562	0.598528	0.708782
	H14	H	0.837719	0.600101	0.285377
	H15	H	0.166944	0.402512	0.283413
	H16	H	0.403612	0.716496	0.834037
	H17	H	0.601395	0.715637	0.163051
	H18	H	0.602354	0.288115	0.833983
	H19	H	0.403057	0.288930	0.163539
	H20	H	0.717479	0.837134	0.398624
	H21	H	0.715545	0.165215	0.596276
	H22	H	0.288948	0.837158	0.598124
	H23	H	0.286906	0.164438	0.397211
	H24	H	0.904250	0.337430	0.212386
	H25	H	0.100001	0.666297	0.211467
	H26	H	0.102820	0.337259	0.784194
	H27	H	0.904443	0.666351	0.784277
	H28	H	0.218395	0.900864	0.333426
	H29	H	0.214333	0.098492	0.663043
	H30	H	0.788775	0.099680	0.333119
	H31	H	0.786287	0.901792	0.663044
	H32	H	0.338037	0.218479	0.898581
	H33	H	0.666169	0.216901	0.097568
	H34	H	0.337851	0.787975	0.098343
	H35	H	0.665904	0.786197	0.897168
	H36	H	0.337368	0.903778	0.212274
	H37	H	0.666751	0.099209	0.210063
	H38	H	0.337466	0.101818	0.784494
	H39	H	0.666658	0.904020	0.784972
	H40	H	0.901747	0.216764	0.333578
	H41	H	0.099893	0.213698	0.662702
	H42	H	0.100658	0.787734	0.332663
	H43	H	0.903352	0.788174	0.663986
	H44	H	0.217863	0.338551	0.899558
	H45	H	0.215308	0.666897	0.096108
	H46	H	0.787236	0.337657	0.099424
	H47	H	0.787571	0.665439	0.898074
	H48	H	0.400887	0.121691	0.591533
	H49	H	0.597117	0.886493	0.578881
	H50	H	0.596638	0.118399	0.403961
	H51	H	0.406438	0.883015	0.408459
	H52	H	0.579527	0.409219	0.111967
	H53	H	0.590825	0.591086	0.883060
	H54	H	0.411482	0.603426	0.118822
	H55	H	0.403419	0.411993	0.877651
	H56	H	0.120677	0.599425	0.407343
	H57	H	0.887182	0.591028	0.585139
	H58	H	0.118286	0.404121	0.582182
	H59	H	0.885412	0.404619	0.411123
	H60	H	0.118871	0.414329	0.592535
	H61	H	0.883024	0.590774	0.597371
	H62	H	0.118082	0.589941	0.408115
	H63	H	0.887533	0.414369	0.406580
	H64	H	0.399865	0.592726	0.118886
	H65	H	0.595249	0.600513	0.878233
	H66	H	0.601166	0.394821	0.122979
	H67	H	0.415597	0.414357	0.883135
	H68	H	0.595389	0.120156	0.403857
	H69	H	0.604133	0.879164	0.599694
	H70	H	0.411687	0.120374	0.597148
	H71	H	0.409406	0.882213	0.402023
	H72	H	0.911832	0.618463	0.092016
	H73	H	0.092165	0.389497	0.077398
	H74	H	0.095943	0.619256	0.905936
	H75	H	0.907766	0.383130	0.904390
	H76	H	0.093138	0.904570	0.616760
	H77	H	0.095120	0.088980	0.381502
	H78	H	0.910912	0.093247	0.615514
	H79	H	0.911177	0.911631	0.381737
	H80	H	0.623426	0.103378	0.899971
	H81	H	0.387945	0.092785	0.084062
	H82	H	0.625855	0.900057	0.101963
	H83	H	0.382572	0.909495	0.899920
	H84	H	0.617387	0.901484	0.077555
	H85	H	0.383335	0.090716	0.098391
	H86	H	0.616951	0.096004	0.913684
	H87	H	0.383468	0.903430	0.909815
	H88	H	0.906822	0.096353	0.617035
	H89	H	0.091557	0.095750	0.379660
	H90	H	0.099265	0.906718	0.617814
	H91	H	0.910829	0.904897	0.380417
	H92	H	0.098765	0.621866	0.902034
	H93	H	0.110712	0.379647	0.093625
	H94	H	0.908632	0.618492	0.088411
	H95	H	0.914829	0.384562	0.904300
	H96	H	0.410412	0.116712	0.585144
	H97	H	0.582832	0.886221	0.596465
	H98	H	0.595302	0.118959	0.404929
	H99	H	0.413760	0.884971	0.407355
	H100	H	0.604283	0.422308	0.115726
	H101	H	0.600291	0.591472	0.880184
	H102	H	0.413632	0.588949	0.113772
	H103	H	0.412378	0.402960	0.878182
	H104	H	0.121901	0.593714	0.399712
	H105	H	0.882854	0.601569	0.591163
	H106	H	0.122993	0.400266	0.595320
	H107	H	0.881934	0.406702	0.399950
	H108	H	0.907029	0.620974	0.092199
	H109	H	0.087169	0.383913	0.102179
	H110	H	0.093936	0.619234	0.901667
	H111	H	0.910729	0.385619	0.910370
	H112	H	0.094267	0.910583	0.614496
	H113	H	0.098402	0.094665	0.378164
	H114	H	0.906367	0.091436	0.615815
	H115	H	0.906404	0.909426	0.379328
	H116	H	0.618817	0.086436	0.899846
	H117	H	0.380907	0.104692	0.091082
	H118	H	0.616341	0.922255	0.091920
	H119	H	0.386481	0.914330	0.909800
	C120	C	0.379764	0.010976	0.620725
	C121	C	0.623572	0.992464	0.619873
	C122	C	0.624419	0.010325	0.375751
	C123	C	0.380956	0.992189	0.376962
	C124	C	0.624107	0.380156	0.007605
	C125	C	0.624129	0.622860	0.989699
	C126	C	0.380409	0.623816	0.007880
	C127	C	0.381318	0.381454	0.989137
	C128	C	0.011379	0.623142	0.376585
	C129	C	0.993328	0.622910	0.619311
	C130	C	0.011205	0.378376	0.620174
	C131	C	0.993671	0.379558	0.376537
	C132	C	0.880764	0.510466	0.119902
	C133	C	0.124630	0.493197	0.119803
	C134	C	0.124950	0.511035	0.875495
	C135	C	0.881701	0.492924	0.876730
	C136	C	0.124354	0.879013	0.506779
	C137	C	0.123249	0.121445	0.489144
	C138	C	0.880126	0.122602	0.506849
	C139	C	0.880444	0.879703	0.489782
	C140	C	0.510734	0.124139	0.876220
	C141	C	0.493090	0.123825	0.119318
	C142	C	0.511039	0.879690	0.119708
	C143	C	0.493146	0.880495	0.876961
	C144	C	0.383309	0.886867	0.675632
	C145	C	0.620973	0.116553	0.674141
	C146	C	0.622147	0.886392	0.321150
	C147	C	0.382957	0.116322	0.321767
	C148	C	0.680319	0.382061	0.883666
	C149	C	0.678750	0.620809	0.113997
	C150	C	0.326001	0.622543	0.883484
	C151	C	0.326349	0.384254	0.113467
	C152	C	0.887175	0.678606	0.379061
	C153	C	0.117126	0.677808	0.616914
	C154	C	0.886910	0.324286	0.618128
	C155	C	0.117392	0.323418	0.377083
	C156	C	0.887333	0.381788	0.675919
	C157	C	0.117953	0.619404	0.672241
	C158	C	0.887042	0.621028	0.322205
	C159	C	0.117660	0.381815	0.320873
	C160	C	0.383060	0.678890	0.883279
	C161	C	0.621683	0.678165	0.113854
	C162	C	0.622663	0.325353	0.883421
	C163	C	0.383150	0.326746	0.113879
	C164	C	0.679415	0.886239	0.378744
	C165	C	0.677968	0.116316	0.616842
	C166	C	0.326090	0.886812	0.618525
	C167	C	0.325135	0.115734	0.378096
	C168	C	0.883868	0.386573	0.174987
	C169	C	0.121037	0.617146	0.174254
	C170	C	0.122866	0.386991	0.821493
	C171	C	0.884031	0.616889	0.821679
	C172	C	0.179951	0.881496	0.382553
	C173	C	0.177193	0.118871	0.613619
	C174	C	0.826090	0.120205	0.382479
	C175	C	0.824563	0.881741	0.613873
	C176	C	0.386823	0.180128	0.878390
	C177	C	0.617045	0.178794	0.117043
	C178	C	0.386849	0.825667	0.117868
	C179	C	0.616940	0.824813	0.878268
	C180	C	0.386727	0.883369	0.174637
	C181	C	0.617280	0.120483	0.173461
	C182	C	0.386802	0.122117	0.821776
	C183	C	0.617259	0.883006	0.821822
	C184	C	0.882582	0.177895	0.382655
	C185	C	0.120506	0.176383	0.613403
	C186	C	0.121604	0.824817	0.382228
	C187	C	0.882517	0.825034	0.614215
	C188	C	0.180539	0.387590	0.878371
	C189	C	0.178313	0.617458	0.116942
	C190	C	0.825565	0.386691	0.118544
	C191	C	0.826071	0.616553	0.878691
	C192	C	0.401456	0.097160	0.598088
	C193	C	0.601400	0.906280	0.597970
	C194	C	0.602353	0.096635	0.397636
	C195	C	0.403399	0.905844	0.399276
	C196	C	0.601684	0.402259	0.094606
	C197	C	0.602069	0.600782	0.902942
	C198	C	0.401974	0.601669	0.094482
	C199	C	0.403874	0.403262	0.902061
	C200	C	0.097604	0.600799	0.398522
	C201	C	0.906901	0.600938	0.597500
	C202	C	0.097646	0.399947	0.596947
	C203	C	0.907257	0.401966	0.399329
	C204	C	0.902516	0.596939	0.097440
	C205	C	0.103139	0.406721	0.097605
	C206	C	0.102733	0.597686	0.896858
	C207	C	0.904330	0.406497	0.899634
	C208	C	0.102119	0.900788	0.593927
	C209	C	0.101312	0.099710	0.402087
	C210	C	0.901704	0.100247	0.593788
	C211	C	0.902920	0.902046	0.402975
	C212	C	0.597334	0.102009	0.898156
	C213	C	0.406572	0.102328	0.097662
	C214	C	0.597489	0.901311	0.097070
	C215	C	0.406547	0.902687	0.899698
	Zn216	Zn	0.501916	0.002148	0.748322
	Zn217	Zn	0.501992	0.001677	0.247752
	Zn218	Zn	0.752558	0.501537	-0.001443
	Zn219	Zn	0.253017	0.502925	-0.002216
	Zn220	Zn	0.002092	0.751058	0.498315
	Zn221	Zn	0.002212	0.250109	0.497640
	Zn222	Zn	0.002958	0.501762	0.747694
	Zn223	Zn	0.002563	0.501844	0.248380
	Zn224	Zn	0.502089	0.751246	-0.001522
	Zn225	Zn	0.502015	0.252613	-0.001880
	Zn226	Zn	0.751939	0.001088	0.498285
	Zn227	Zn	0.252364	0.001237	0.497917
	N228	N	0.416012	0.964932	0.677202
	N229	N	0.587805	0.038347	0.676197
	N230	N	0.588430	0.964305	0.319403
	N231	N	0.416949	0.038489	0.320813
	N232	N	0.681264	0.415539	0.961963
	N233	N	0.680418	0.587267	0.035853
	N234	N	0.324194	0.588992	0.961778
	N235	N	0.325223	0.417512	0.034917
	N236	N	0.965567	0.680355	0.411860
	N237	N	0.038674	0.680032	0.584586
	N238	N	0.965057	0.321974	0.584184
	N239	N	0.039400	0.322004	0.411136
	N240	N	0.965559	0.414596	0.677481
	N241	N	0.039889	0.585887	0.673980
	N242	N	0.964995	0.587312	0.320462
	N243	N	0.039780	0.416225	0.320470
	N244	N	0.416238	0.680065	0.961576
	N245	N	0.588297	0.679645	0.035456
	N246	N	0.588434	0.324077	0.961574
	N247	N	0.416732	0.325017	0.035439
	N248	N	0.680958	0.964406	0.411846
	N249	N	0.679763	0.038260	0.583899
	N250	N	0.323533	0.964972	0.585105
	N251	N	0.323814	0.037662	0.411789
	N252	N	0.917307	0.464547	0.176069
	N253	N	0.088401	0.538816	0.176378
	N254	N	0.089098	0.465071	0.819397
	N255	N	0.917885	0.538966	0.820392
	N256	N	0.181825	0.914190	0.461216
	N257	N	0.179088	0.085622	0.535234
	N258	N	0.824326	0.086576	0.460833
	N259	N	0.823269	0.915135	0.535532
	N260	N	0.464937	0.181541	0.911528
	N261	N	0.538723	0.181118	0.084364
	N262	N	0.465152	0.823046	0.084499
	N263	N	0.538811	0.823189	0.911952
	N264	N	0.464911	0.916186	0.175874
	N265	N	0.539105	0.087221	0.175318
	N266	N	0.464689	0.088108	0.820331
	N267	N	0.539299	0.917295	0.821185
	N268	N	0.915240	0.179679	0.461219
	N269	N	0.087485	0.178029	0.535001
	N270	N	0.087663	0.823337	0.460558
	N271	N	0.916607	0.823806	0.535908
	N272	N	0.181811	0.465716	0.911386
	N273	N	0.180436	0.539509	0.083479
	N274	N	0.823796	0.464765	0.084903
	N275	N	0.824518	0.538450	0.912225
	O276	O	0.950118	1.025087	-0.034400
	H277	H	0.950910	1.022176	-0.023946
	H278	H	0.967951	1.027833	-0.037734
	O279	O	0.015750	-0.049588	1.001716
	H280	H	0.008628	-0.039707	1.003653
	H281	H	0.003840	-0.048785	0.990096
	O282	O	-0.015848	-0.006340	0.024508
	H283	H	-0.024214	-0.004618	0.034365
	H284	H	-0.019459	-0.014148	0.028222
	O285	O	0.428716	0.484048	0.454388
	H286	H	0.417998	0.477752	0.462403
	H287	H	0.426304	0.492291	0.459163
	O288	O	0.011957	-0.068689	0.044992
	H289	H	0.018354	-0.062188	0.038214
	H290	H	0.004842	-0.073216	0.054947
	O291	O	0.027798	1.029233	-0.082116
	H292	H	0.025603	1.027090	-0.069651
	H293	H	0.023716	1.028767	-0.092159
	O294	O	-0.066444	0.975533	-0.035575
	H295	H	-0.061436	0.979209	-0.036197
	H296	H	-0.069020	0.974400	-0.035309
	O297	O	0.486886	0.529822	0.504744
	H298	H	0.487104	0.533177	0.501130
	H299	H	0.489390	0.527200	0.505630
	O300	O	0.518734	0.449919	0.494032
	H301	H	0.513929	0.450722	0.495477
	H302	H	0.518749	0.454475	0.497904
	O303	O	0.984487	-0.029876	1.024402
	H304	H	0.990998	-0.033003	1.017203
	H305	H	0.984788	-0.031875	1.029677
	O306	O	0.009220	0.967674	0.958450
	H307	H	0.017168	0.982557	0.956786
	H308	H	0.006278	0.960029	0.953100
	O309	O	-0.065955	1.036739	1.001318
	H310	H	-0.071620	1.029467	1.006003
	H311	H	-0.066857	1.034872	0.996406
	O312	O	-0.032292	0.037703	0.989936
	H313	H	-0.014233	0.038177	0.982181
	H314	H	-0.035599	0.045585	0.984211
	O315	O	0.476296	0.510932	0.474155
	H316	H	0.470861	0.509306	0.460845
	H317	H	0.479988	0.517237	0.468025
	O318	O	0.557100	-0.473562	0.499642
	H319	H	0.553288	-0.480534	0.506696
	H320	H	0.562140	-0.480037	0.496454
	O321	O	0.511383	0.474229	0.487657
	H322	H	0.513359	0.479369	0.493482
	H323	H	0.507662	0.479644	0.484863
	O324	O	0.985959	0.004107	0.995696
	H325	H	0.980784	0.002978	0.991711
	H326	H	0.983013	0.010563	0.990227
	O327	O	0.932863	1.008484	0.999338
	H328	H	0.937075	1.003830	1.005213
	H329	H	0.930166	1.014856	0.998109
	O330	O	0.478276	0.460943	0.536033
	H331	H	0.483347	0.465328	0.535021
	H332	H	0.488086	0.456228	0.535291
	O333	O	0.577824	0.553382	0.527759
	H334	H	0.582250	0.545509	0.517321
	H335	H	0.575436	0.554490	0.530119
	O336	O	0.446969	0.525508	0.485488
	H337	H	0.446994	0.527556	0.486602
	H338	H	0.452173	0.527022	0.486983
	O339	O	0.551725	0.470936	0.465555
	H340	H	0.548377	0.470373	0.460838
	H341	H	0.549601	0.474630	0.463695
	O342	O	0.455922	0.457482	0.537700
	H343	H	0.452021	0.450040	0.544841
	H344	H	0.460107	0.455427	0.532242
	O345	O	0.446346	0.545164	0.520838
	H346	H	0.436054	0.554076	0.527498
	H347	H	0.453966	0.552629	0.513604
