data_Molecule from HDF5

_cell_length_a		16.156064
_cell_length_b		16.245631
_cell_length_c		16.157857
_cell_angle_alpha	89.793830
_cell_angle_beta	89.650207
_cell_angle_gamma	90.014626
_symmetry_space_group_name_H-M	'P 1'
_symmetry_Int_Tables_number		1

loop_
	_symmetry_equiv_pos_as_xyz
	x,y,z

loop_
	_atom_site_label
	_atom_site_type_symbol
	_atom_site_fract_x
	_atom_site_fract_y
	_atom_site_fract_z
	H0	H	0.395939	0.844472	0.724583
	H1	H	0.592173	0.173316	0.721749
	H2	H	0.593697	0.844107	0.296854
	H3	H	0.396490	0.173345	0.295197
	H4	H	0.710541	0.413686	0.843249
	H5	H	0.708822	0.605721	0.174624
	H6	H	0.284739	0.608864	0.844661
	H7	H	0.281846	0.410064	0.174270
	H8	H	0.829667	0.724417	0.409836
	H9	H	0.160190	0.724036	0.604833
	H10	H	0.830758	0.295323	0.612660
	H11	H	0.159659	0.295316	0.409029
	H12	H	0.831265	0.413240	0.724904
	H13	H	0.161285	0.608779	0.719699
	H14	H	0.830200	0.606767	0.295979
	H15	H	0.160637	0.412137	0.296183
	H16	H	0.400223	0.723970	0.844934
	H17	H	0.596034	0.723627	0.174651
	H18	H	0.598788	0.295562	0.843949
	H19	H	0.394256	0.293597	0.172855
	H20	H	0.710343	0.844958	0.411695
	H21	H	0.707925	0.173084	0.608033
	H22	H	0.279498	0.845290	0.610450
	H23	H	0.282628	0.173639	0.412121
	H24	H	0.896241	0.345171	0.225603
	H25	H	0.094980	0.673874	0.221535
	H26	H	0.096080	0.345517	0.794245
	H27	H	0.900600	0.674832	0.798337
	H28	H	0.209470	0.912932	0.344577
	H29	H	0.207270	0.107468	0.675118
	H30	H	0.781653	0.108831	0.345267
	H31	H	0.783146	0.912091	0.675617
	H32	H	0.331956	0.226637	0.908470
	H33	H	0.661540	0.222389	0.105433
	H34	H	0.331990	0.792998	0.111698
	H35	H	0.660879	0.796485	0.909468
	H36	H	0.330258	0.910241	0.224240
	H37	H	0.660532	0.107930	0.223344
	H38	H	0.329441	0.106192	0.797959
	H39	H	0.660919	0.912281	0.796328
	H40	H	0.896306	0.224873	0.345168
	H41	H	0.092658	0.224136	0.675023
	H42	H	0.095545	0.796901	0.344380
	H43	H	0.894011	0.794368	0.673596
	H44	H	0.211716	0.345137	0.910521
	H45	H	0.209635	0.673490	0.105406
	H46	H	0.782396	0.344282	0.109172
	H47	H	0.783740	0.673244	0.910782
	H48	H	0.395768	0.128636	0.604070
	H49	H	0.581707	0.894447	0.601034
	H50	H	0.591078	0.126870	0.416534
	H51	H	0.408687	0.892270	0.412489
	H52	H	0.591257	0.413462	0.127911
	H53	H	0.596041	0.604429	0.890297
	H54	H	0.405284	0.592306	0.123985
	H55	H	0.406915	0.424853	0.893564
	H56	H	0.115528	0.601052	0.405712
	H57	H	0.878199	0.599829	0.603618
	H58	H	0.115587	0.408493	0.601023
	H59	H	0.876219	0.413471	0.420478
	H60	H	0.111400	0.419468	0.594382
	H61	H	0.876432	0.604759	0.606094
	H62	H	0.115837	0.615027	0.416937
	H63	H	0.879132	0.420590	0.419622
	H64	H	0.409700	0.608608	0.128365
	H65	H	0.588646	0.600961	0.892598
	H66	H	0.589151	0.417226	0.126164
	H67	H	0.409902	0.412396	0.891452
	H68	H	0.585868	0.126731	0.413476
	H69	H	0.594506	0.889723	0.598945
	H70	H	0.404431	0.127027	0.607828
	H71	H	0.400130	0.893630	0.424894
	H72	H	0.912029	0.622753	0.099218
	H73	H	0.084945	0.393262	0.102383
	H74	H	0.092552	0.626833	0.916127
	H75	H	0.901490	0.390244	0.914806
	H76	H	0.081720	0.911002	0.627876
	H77	H	0.080206	0.099458	0.395938
	H78	H	0.902938	0.101507	0.627516
	H79	H	0.909500	0.911932	0.391210
	H80	H	0.615927	0.107585	0.913006
	H81	H	0.375340	0.113858	0.102063
	H82	H	0.614129	0.915877	0.102941
	H83	H	0.372775	0.900916	0.917075
	H84	H	0.613210	0.916801	0.102007
	H85	H	0.382480	0.097249	0.091969
	H86	H	0.611673	0.102354	0.919869
	H87	H	0.382006	0.920557	0.929654
	H88	H	0.901483	0.107645	0.629389
	H89	H	0.089195	0.113337	0.389913
	H90	H	0.091256	0.913598	0.629764
	H91	H	0.894353	0.914276	0.388239
	H92	H	0.093157	0.628999	0.911725
	H93	H	0.092020	0.391947	0.098655
	H94	H	0.894609	0.626403	0.095520
	H95	H	0.905457	0.391288	0.914973
	H96	H	0.402642	0.125235	0.599441
	H97	H	0.589243	0.888409	0.611127
	H98	H	0.586836	0.124501	0.418948
	H99	H	0.394474	0.888186	0.413013
	H100	H	0.586765	0.413692	0.127223
	H101	H	0.589106	0.608770	0.890571
	H102	H	0.394128	0.602820	0.131518
	H103	H	0.398561	0.416588	0.888904
	H104	H	0.108468	0.598641	0.423242
	H105	H	0.877014	0.605037	0.600323
	H106	H	0.114330	0.420735	0.607449
	H107	H	0.875405	0.417090	0.413191
	H108	H	0.901134	0.629675	0.112675
	H109	H	0.090974	0.390201	0.106682
	H110	H	0.089990	0.626540	0.913967
	H111	H	0.904322	0.392325	0.918108
	H112	H	0.085457	0.921409	0.626146
	H113	H	0.096004	0.097164	0.391223
	H114	H	0.895923	0.102864	0.629151
	H115	H	0.902606	0.926000	0.393827
	H116	H	0.613699	0.098363	0.911907
	H117	H	0.376978	0.095496	0.111840
	H118	H	0.614876	0.916535	0.103689
	H119	H	0.376223	0.923230	0.906292
	C120	C	0.372546	0.017866	0.632570
	C121	C	0.616456	0.999709	0.631596
	C122	C	0.616928	0.017576	0.388120
	C123	C	0.373014	1.000147	0.388111
	C124	C	0.617938	0.387557	0.017356
	C125	C	0.618927	0.631806	1.000844
	C126	C	0.375490	0.630804	0.018801
	C127	C	0.375348	0.388435	1.000037
	C128	C	0.003925	0.632416	0.386940
	C129	C	0.986722	0.631577	0.630151
	C130	C	0.004497	0.388471	0.631084
	C131	C	0.986263	0.388616	0.388792
	C132	C	0.873958	0.517466	0.131394
	C133	C	0.117730	0.500623	0.130534
	C134	C	0.120051	0.518741	0.886041
	C135	C	0.875828	0.500648	0.888221
	C136	C	0.115838	0.888021	0.518507
	C137	C	0.116048	0.131374	0.501482
	C138	C	0.872347	0.132542	0.519404
	C139	C	0.873355	0.888373	0.500534
	C140	C	0.504527	0.131384	0.887045
	C141	C	0.487114	0.130910	0.130655
	C142	C	0.504860	0.887424	0.131841
	C143	C	0.486805	0.887509	0.888822
	C144	C	0.375280	0.893782	0.687259
	C145	C	0.612885	0.123943	0.685206
	C146	C	0.614620	0.893549	0.333984
	C147	C	0.376180	0.124123	0.333169
	C148	C	0.673538	0.391608	0.893068
	C149	C	0.672327	0.627345	0.125290
	C150	C	0.321882	0.628956	0.893960
	C151	C	0.319413	0.389955	0.124679
	C152	C	0.879390	0.686844	0.389536
	C153	C	0.110962	0.686313	0.625828
	C154	C	0.880271	0.333390	0.631419
	C155	C	0.110574	0.333360	0.389734
	C156	C	0.880294	0.392146	0.687137
	C157	C	0.111580	0.628732	0.682938
	C158	C	0.879550	0.628410	0.332886
	C159	C	0.111076	0.391572	0.333788
	C160	C	0.379330	0.686221	0.894277
	C161	C	0.615997	0.685842	0.125367
	C162	C	0.617502	0.333168	0.893517
	C163	C	0.375426	0.331921	0.123826
	C164	C	0.672537	0.894021	0.390956
	C165	C	0.670356	0.123867	0.628358
	C166	C	0.317459	0.894281	0.630417
	C167	C	0.319635	0.124417	0.391352
	C168	C	0.876620	0.394001	0.187093
	C169	C	0.115144	0.624480	0.184352
	C170	C	0.116903	0.394535	0.831841
	C171	C	0.879279	0.625209	0.834617
	C172	C	0.171750	0.891963	0.393957
	C173	C	0.169914	0.128038	0.625934
	C174	C	0.818813	0.129396	0.394722
	C175	C	0.819311	0.891207	0.625691
	C176	C	0.380602	0.187462	0.889188
	C177	C	0.611916	0.185278	0.127134
	C178	C	0.381033	0.831179	0.130576
	C179	C	0.611456	0.833912	0.890315
	C180	C	0.380061	0.889600	0.186604
	C181	C	0.611445	0.128273	0.185588
	C182	C	0.379422	0.127921	0.833933
	C183	C	0.611321	0.891404	0.833680
	C184	C	0.875632	0.187505	0.394759
	C185	C	0.113263	0.186293	0.625698
	C186	C	0.114750	0.834547	0.393687
	C187	C	0.874797	0.832888	0.624847
	C188	C	0.174164	0.394359	0.889721
	C189	C	0.172171	0.624481	0.126415
	C190	C	0.819564	0.393678	0.129483
	C191	C	0.821554	0.624356	0.890906
	C192	C	0.394539	0.104367	0.610317
	C193	C	0.594793	0.913166	0.610068
	C194	C	0.594688	0.103710	0.409831
	C195	C	0.394790	0.913594	0.410129
	C196	C	0.595617	0.408592	0.104603
	C197	C	0.597682	0.610899	0.913712
	C198	C	0.396695	0.608060	0.105499
	C199	C	0.398407	0.411230	0.913573
	C200	C	0.090838	0.611156	0.408653
	C201	C	0.899422	0.609612	0.609424
	C202	C	0.091446	0.409853	0.607679
	C203	C	0.899500	0.410453	0.411232
	C204	C	0.896099	0.603923	0.109156
	C205	C	0.095785	0.414223	0.109104
	C206	C	0.098338	0.605022	0.907498
	C207	C	0.897414	0.413838	0.909617
	C208	C	0.093025	0.909233	0.605430
	C209	C	0.094843	0.109798	0.414751
	C210	C	0.893598	0.110676	0.606198
	C211	C	0.895655	0.910683	0.413511
	C212	C	0.591165	0.109494	0.908477
	C213	C	0.400829	0.108762	0.108438
	C214	C	0.591660	0.909801	0.109632
	C215	C	0.399447	0.908578	0.911246
	Zn216	Zn	0.494834	0.008674	0.760067
	Zn217	Zn	0.495205	0.009028	0.259815
	Zn218	Zn	0.746589	0.508759	0.008872
	Zn219	Zn	0.247408	0.509362	0.008982
	Zn220	Zn	-0.005637	0.760458	0.509079
	Zn221	Zn	-0.005438	0.260294	0.509545
	Zn222	Zn	-0.003442	0.510053	0.759209
	Zn223	Zn	-0.004268	0.509317	0.259782
	Zn224	Zn	0.496716	0.759293	0.010220
	Zn225	Zn	0.496108	0.259758	0.008434
	Zn226	Zn	0.745148	0.009448	0.510219
	Zn227	Zn	0.244438	0.009333	0.510234
	N228	N	0.408408	0.971729	0.689023
	N229	N	0.580240	0.045636	0.687462
	N230	N	0.580928	0.971323	0.331961
	N231	N	0.408457	0.045690	0.330978
	N232	N	0.673742	0.424998	0.971269
	N233	N	0.674537	0.594529	0.046751
	N234	N	0.319296	0.595194	0.972222
	N235	N	0.319059	0.424341	0.046500
	N236	N	0.957758	0.689437	0.422353
	N237	N	0.032205	0.688115	0.593775
	N238	N	0.958531	0.331046	0.597179
	N239	N	0.031961	0.331559	0.423371
	N240	N	0.958547	0.425632	0.687069
	N241	N	0.033270	0.595295	0.685539
	N242	N	0.957883	0.595191	0.331224
	N243	N	0.032867	0.425057	0.332921
	N244	N	0.411962	0.687256	0.972815
	N245	N	0.583832	0.688934	0.046835
	N246	N	0.583788	0.330626	0.971797
	N247	N	0.409523	0.330859	0.045529
	N248	N	0.674225	0.972151	0.423951
	N249	N	0.672778	0.045708	0.595716
	N250	N	0.315671	0.972507	0.597045
	N251	N	0.317377	0.046360	0.424640
	N252	N	0.909624	0.472099	0.188341
	N253	N	0.081914	0.546416	0.187028
	N254	N	0.084343	0.472919	0.828924
	N255	N	0.912229	0.547107	0.832768
	N256	N	0.172642	0.924464	0.472610
	N257	N	0.171833	0.094688	0.547724
	N258	N	0.816497	0.096123	0.473210
	N259	N	0.818393	0.925274	0.547451
	N260	N	0.459214	0.189705	0.921430
	N261	N	0.533679	0.187216	0.093861
	N262	N	0.459653	0.829751	0.097116
	N263	N	0.532972	0.831516	0.923933
	N264	N	0.458027	0.923733	0.187787
	N265	N	0.533069	0.095035	0.187869
	N266	N	0.457296	0.093558	0.832584
	N267	N	0.532641	0.923996	0.832548
	N268	N	0.908248	0.189476	0.473283
	N269	N	0.080092	0.188350	0.547417
	N270	N	0.080658	0.832103	0.472020
	N271	N	0.907464	0.830799	0.545987
	N272	N	0.176433	0.472502	0.922468
	N273	N	0.174043	0.546470	0.093930
	N274	N	0.817753	0.471508	0.095384
	N275	N	0.819266	0.545948	0.923673
	O276	O	0.047312	0.006325	0.001233
	H277	H	0.051068	0.010673	0.005386
	H278	H	0.050633	0.008444	-0.004605
	O279	O	0.451340	0.478859	0.480589
	H280	H	0.466867	0.484595	0.482483
	H281	H	0.444395	0.475368	0.475747
	O282	O	0.506269	0.505803	0.552513
	H283	H	0.502641	0.497183	0.553466
	H284	H	0.495576	0.505292	0.565611
	O285	O	0.947372	0.031954	0.989780
	H286	H	0.959151	0.032534	0.994045
	H287	H	0.946000	0.026446	0.992199
	O288	O	1.028080	0.017920	0.042713
	H289	H	1.034780	0.029135	0.037754
	H290	H	1.031480	0.013258	0.057107
	O291	O	0.548549	0.517257	0.565921
	H292	H	0.533690	0.508710	0.572122
	H293	H	0.551202	0.522278	0.572806
	O294	O	0.910930	0.014813	1.048706
	H295	H	0.902694	0.006457	1.051861
	H296	H	0.912919	0.006235	1.050615
	O297	O	0.004925	-0.043763	0.074519
	H298	H	-0.002468	-0.048533	0.077824
	H299	H	0.003572	-0.052526	0.063744
	O300	O	0.389555	0.488386	0.567913
	H301	H	0.390026	0.484087	0.584263
	H302	H	0.388115	0.500633	0.564001
	O303	O	0.441998	0.428261	0.557437
	H304	H	0.439643	0.416591	0.565079
	H305	H	0.450142	0.424995	0.560960
	O306	O	1.028249	0.059703	-0.036328
	H307	H	1.021322	0.050685	-0.038420
	H308	H	1.032828	0.070711	-0.030660
	O309	O	-0.034987	0.031446	0.963601
	H310	H	-0.025532	0.030113	0.962586
	H311	H	-0.030885	0.038977	0.953194
	O312	O	1.472965	0.504079	0.537833
	H313	H	1.469216	0.508818	0.530402
	H314	H	1.474523	0.502892	0.533376
	O315	O	1.080970	0.000928	0.032528
	H316	H	1.080736	0.010148	0.042795
	H317	H	1.072375	0.008015	0.030603
	O318	O	0.592240	0.496849	0.472778
	H319	H	0.594477	0.487871	0.460528
	H320	H	0.604936	0.496032	0.474815
	O321	O	0.070132	1.044145	1.148299
	H322	H	0.065685	1.052443	1.155117
	H323	H	0.059755	1.027614	1.150586
	O324	O	0.940884	0.988267	0.087731
	H325	H	0.930604	0.973601	0.092441
	H326	H	0.932534	0.982240	0.085152
	O327	O	0.545061	0.598157	0.558678
	H328	H	0.548145	0.597073	0.554511
	H329	H	0.542322	0.592035	0.552073
	O330	O	1.062650	0.899732	0.013980
	H331	H	1.068956	0.888169	0.010332
	H332	H	1.066526	0.901759	0.019973
	O333	O	0.436069	0.457090	0.528478
	H334	H	0.441487	0.469424	0.537501
	H335	H	0.442120	0.464336	0.522686
	O336	O	0.460386	0.446948	0.513461
	H337	H	0.460491	0.434363	0.525798
	H338	H	0.461926	0.440884	0.513157
	O339	O	0.598287	0.461048	-0.511847
	H340	H	0.592930	0.472828	-0.514753
	H341	H	0.595311	0.456765	-0.527578
	O342	O	0.541224	0.444045	0.519294
	H343	H	0.530615	0.443676	0.520919
	H344	H	0.549124	0.446746	0.515740
	O345	O	0.517562	0.485189	0.375882
	H346	H	0.510759	0.480734	0.383640
	H347	H	0.517901	0.484177	0.375146
	O348	O	-0.084585	0.080059	0.015093
	H349	H	-0.082603	0.089975	0.017853
	H350	H	-0.087061	0.075604	0.006671
	O351	O	0.053365	0.913422	0.958225
	H352	H	0.056846	0.911239	0.948339
	H353	H	0.061924	0.907299	0.952925
	O354	O	0.481555	0.488456	0.509562
	H355	H	0.484940	0.489106	0.498696
	H356	H	0.474671	0.482718	0.517679
	O357	O	-0.031337	1.031384	0.938294
	H358	H	-0.027611	1.030345	0.944599
	H359	H	-0.032965	1.041500	0.943109
