data_Molecule from HDF5

_cell_length_a		16.306340
_cell_length_b		16.155608
_cell_length_c		16.066834
_cell_angle_alpha	89.632078
_cell_angle_beta	89.026835
_cell_angle_gamma	89.751688
_symmetry_space_group_name_H-M	'P 1'
_symmetry_Int_Tables_number		1

loop_
	_symmetry_equiv_pos_as_xyz
	x,y,z

loop_
	_atom_site_label
	_atom_site_type_symbol
	_atom_site_fract_x
	_atom_site_fract_y
	_atom_site_fract_z
	H0	H	0.399229	0.840603	0.725160
	H1	H	0.593259	0.170865	0.716642
	H2	H	0.599896	0.839120	0.294846
	H3	H	0.403777	0.169889	0.296162
	H4	H	0.720280	0.402529	0.845103
	H5	H	0.708725	0.602002	0.174347
	H6	H	0.288630	0.606037	0.842126
	H7	H	0.281043	0.402520	0.172404
	H8	H	0.834912	0.722804	0.411195
	H9	H	0.162544	0.719068	0.601815
	H10	H	0.835663	0.291024	0.612622
	H11	H	0.161462	0.289935	0.404433
	H12	H	0.836785	0.406574	0.728864
	H13	H	0.163819	0.602831	0.716838
	H14	H	0.833269	0.605275	0.297639
	H15	H	0.162148	0.408891	0.290927
	H16	H	0.403335	0.719814	0.842618
	H17	H	0.593913	0.716429	0.173672
	H18	H	0.599751	0.294355	0.841890
	H19	H	0.399157	0.291856	0.173621
	H20	H	0.717710	0.841157	0.406453
	H21	H	0.712567	0.168926	0.607357
	H22	H	0.282941	0.839990	0.612403
	H23	H	0.282833	0.167607	0.405690
	H24	H	0.899588	0.341199	0.224733
	H25	H	0.090771	0.672295	0.214786
	H26	H	0.101661	0.340731	0.792584
	H27	H	0.904030	0.671588	0.796836
	H28	H	0.217698	0.903931	0.344115
	H29	H	0.211432	0.104178	0.672922
	H30	H	0.787808	0.106462	0.342041
	H31	H	0.780784	0.903732	0.671940
	H32	H	0.335760	0.223181	0.909457
	H33	H	0.662193	0.217851	0.102981
	H34	H	0.335991	0.789852	0.110797
	H35	H	0.662420	0.788218	0.904530
	H36	H	0.336650	0.904239	0.227062
	H37	H	0.663904	0.099279	0.215558
	H38	H	0.334269	0.104256	0.796379
	H39	H	0.663006	0.907806	0.789831
	H40	H	0.902377	0.221166	0.342584
	H41	H	0.093475	0.216901	0.674626
	H42	H	0.099040	0.795809	0.341836
	H43	H	0.897809	0.792226	0.673062
	H44	H	0.217135	0.340901	0.906485
	H45	H	0.213465	0.669616	0.107679
	H46	H	0.783159	0.341673	0.113429
	H47	H	0.782983	0.668044	0.907213
	H48	H	0.397113	0.122055	0.590349
	H49	H	0.588049	0.890177	0.591087
	H50	H	0.598651	0.124764	0.412209
	H51	H	0.407204	0.885776	0.418829
	H52	H	0.587380	0.407066	0.127746
	H53	H	0.579156	0.587683	0.896625
	H54	H	0.408701	0.596894	0.126400
	H55	H	0.410659	0.401047	0.885707
	H56	H	0.115630	0.601360	0.409779
	H57	H	0.884183	0.593724	0.603170
	H58	H	0.113178	0.405900	0.583095
	H59	H	0.884635	0.413929	0.427029
	H60	H	0.113789	0.425637	0.601662
	H61	H	0.879515	0.602324	0.608017
	H62	H	0.115770	0.600978	0.409703
	H63	H	0.882048	0.419951	0.413109
	H64	H	0.399244	0.600587	0.129991
	H65	H	0.593787	0.613505	0.883730
	H66	H	0.594562	0.410663	0.128255
	H67	H	0.397675	0.419746	0.886387
	H68	H	0.591955	0.123924	0.408277
	H69	H	0.599922	0.884062	0.598543
	H70	H	0.397542	0.127025	0.608697
	H71	H	0.407611	0.886632	0.418228
	H72	H	0.903866	0.624235	0.100810
	H73	H	0.093617	0.389710	0.087388
	H74	H	0.094081	0.623793	0.913028
	H75	H	0.905523	0.386060	0.918888
	H76	H	0.092929	0.909127	0.628808
	H77	H	0.093816	0.098411	0.388759
	H78	H	0.910594	0.096053	0.624593
	H79	H	0.911529	0.908923	0.387779
	H80	H	0.613217	0.092326	0.913457
	H81	H	0.381349	0.105762	0.096069
	H82	H	0.618972	0.916183	0.111711
	H83	H	0.385130	0.916480	0.921596
	H84	H	0.620278	0.894547	0.097308
	H85	H	0.385058	0.090483	0.100118
	H86	H	0.617815	0.100556	0.900966
	H87	H	0.381438	0.913401	0.911605
	H88	H	0.899055	0.105445	0.629998
	H89	H	0.094695	0.096322	0.390641
	H90	H	0.090762	0.914309	0.627193
	H91	H	0.900776	0.913930	0.385614
	H92	H	0.095081	0.623529	0.913199
	H93	H	0.100891	0.383860	0.106164
	H94	H	0.901181	0.623578	0.099753
	H95	H	0.912250	0.387221	0.915302
	H96	H	0.413057	0.120324	0.600413
	H97	H	0.586745	0.885951	0.605615
	H98	H	0.592373	0.121504	0.415570
	H99	H	0.407996	0.886508	0.418618
	H100	H	0.588249	0.414265	0.125746
	H101	H	0.608406	0.585168	0.888206
	H102	H	0.399619	0.590342	0.126081
	H103	H	0.419448	0.420393	0.893742
	H104	H	0.115152	0.601324	0.409580
	H105	H	0.883309	0.602489	0.598199
	H106	H	0.121620	0.400374	0.608484
	H107	H	0.878170	0.405729	0.415404
	H108	H	0.900239	0.624871	0.102336
	H109	H	0.080308	0.388627	0.104149
	H110	H	0.094358	0.623641	0.913232
	H111	H	0.910464	0.390081	0.924000
	H112	H	0.087155	0.910480	0.627456
	H113	H	0.092108	0.096928	0.389683
	H114	H	0.896139	0.089437	0.626665
	H115	H	0.909925	0.920408	0.390709
	H116	H	0.616617	0.106912	0.915744
	H117	H	0.378707	0.099828	0.111221
	H118	H	0.611215	0.916346	0.087199
	H119	H	0.380725	0.906700	0.920487
	C120	C	0.374694	0.014095	0.630641
	C121	C	0.618900	0.995909	0.626771
	C122	C	0.623083	0.013713	0.384076
	C123	C	0.378950	0.995279	0.388212
	C124	C	0.621208	0.382231	0.017890
	C125	C	0.619946	0.624199	0.999258
	C126	C	0.377108	0.626106	0.017400
	C127	C	0.378405	0.383999	0.998675
	C128	C	0.007095	0.629749	0.384075
	C129	C	0.990604	0.627442	0.629281
	C130	C	0.008193	0.383045	0.630061
	C131	C	0.989822	0.384347	0.386576
	C132	C	0.874402	0.515114	0.131391
	C133	C	0.118629	0.497091	0.127180
	C134	C	0.124085	0.514512	0.884171
	C135	C	0.880029	0.496444	0.888841
	C136	C	0.120450	0.883712	0.517604
	C137	C	0.120193	0.125981	0.499162
	C138	C	0.876587	0.126620	0.516915
	C139	C	0.877262	0.884635	0.497973
	C140	C	0.507562	0.128730	0.883959
	C141	C	0.490286	0.126016	0.128591
	C142	C	0.508537	0.881230	0.130120
	C143	C	0.490388	0.883116	0.886085
	C144	C	0.378328	0.889695	0.686958
	C145	C	0.614347	0.121166	0.680263
	C146	C	0.620731	0.889215	0.330825
	C147	C	0.382373	0.119927	0.332979
	C148	C	0.680696	0.383351	0.894070
	C149	C	0.672369	0.622284	0.124461
	C150	C	0.325294	0.625497	0.891806
	C151	C	0.320680	0.384346	0.123210
	C152	C	0.883742	0.685003	0.389870
	C153	C	0.113876	0.681823	0.623692
	C154	C	0.884717	0.328507	0.631420
	C155	C	0.112633	0.328517	0.385585
	C156	C	0.885457	0.385988	0.689321
	C157	C	0.114235	0.624244	0.681086
	C158	C	0.882885	0.626557	0.333258
	C159	C	0.112919	0.387879	0.329026
	C160	C	0.382290	0.682188	0.892111
	C161	C	0.615141	0.678912	0.124150
	C162	C	0.620631	0.329657	0.892338
	C163	C	0.379253	0.328924	0.123961
	C164	C	0.679460	0.890234	0.386477
	C165	C	0.673747	0.120279	0.625713
	C166	C	0.320377	0.889624	0.631005
	C167	C	0.322416	0.118849	0.387908
	C168	C	0.878306	0.390756	0.187699
	C169	C	0.113090	0.622278	0.179621
	C170	C	0.121699	0.390099	0.830161
	C171	C	0.882959	0.621337	0.833646
	C172	C	0.178541	0.885199	0.393436
	C173	C	0.173801	0.124056	0.623719
	C174	C	0.824411	0.125958	0.391704
	C175	C	0.819504	0.884731	0.622499
	C176	C	0.384360	0.184621	0.888584
	C177	C	0.613421	0.180200	0.123953
	C178	C	0.385278	0.826899	0.130210
	C179	C	0.613705	0.826799	0.885062
	C180	C	0.385547	0.883967	0.188157
	C181	C	0.614257	0.121245	0.180090
	C182	C	0.383678	0.125692	0.832141
	C183	C	0.613961	0.886623	0.828597
	C184	C	0.881499	0.182947	0.391968
	C185	C	0.115338	0.180381	0.624422
	C186	C	0.119645	0.831193	0.392175
	C187	C	0.877775	0.829252	0.623133
	C188	C	0.179795	0.390446	0.886312
	C189	C	0.174035	0.620905	0.125894
	C190	C	0.820564	0.390873	0.132141
	C191	C	0.822666	0.619901	0.888484
	C192	C	0.396160	0.100562	0.606975
	C193	C	0.597742	0.909242	0.605076
	C194	C	0.600864	0.100968	0.405627
	C195	C	0.401200	0.908575	0.411648
	C196	C	0.596993	0.404077	0.104827
	C197	C	0.599786	0.601937	0.912243
	C198	C	0.396828	0.603036	0.104838
	C199	C	0.402323	0.406822	0.911332
	C200	C	0.093324	0.607663	0.403734
	C201	C	0.904652	0.605832	0.609027
	C202	C	0.094080	0.404418	0.605065
	C203	C	0.903752	0.406784	0.411249
	C204	C	0.895374	0.601807	0.107835
	C205	C	0.097738	0.410004	0.105539
	C206	C	0.101466	0.601196	0.906427
	C207	C	0.902704	0.410036	0.912521
	C208	C	0.096877	0.904912	0.605163
	C209	C	0.099522	0.103987	0.412061
	C210	C	0.896254	0.103795	0.604402
	C211	C	0.900711	0.907544	0.410621
	C212	C	0.593523	0.106458	0.903903
	C213	C	0.403976	0.104777	0.108314
	C214	C	0.594675	0.902708	0.106012
	C215	C	0.404643	0.905504	0.910804
	Zn216	Zn	0.497860	0.005457	0.755967
	Zn217	Zn	0.499910	0.004113	0.258052
	Zn218	Zn	0.748829	0.504024	0.009446
	Zn219	Zn	0.249909	0.505268	0.007121
	Zn220	Zn	-0.000977	0.757531	0.507389
	Zn221	Zn	-0.001639	0.254126	0.508403
	Zn222	Zn	0.000919	0.505715	0.758551
	Zn223	Zn	-0.002715	0.506652	0.256656
	Zn224	Zn	0.499295	0.752860	0.008100
	Zn225	Zn	0.498733	0.256239	0.007336
	Zn226	Zn	0.749342	0.005634	0.507344
	Zn227	Zn	0.248022	0.003692	0.508954
	N228	N	0.411399	0.967888	0.686922
	N229	N	0.580794	0.042876	0.681145
	N230	N	0.586292	0.967165	0.329324
	N231	N	0.416965	0.041981	0.333178
	N232	N	0.680976	0.415535	0.973244
	N233	N	0.675475	0.588895	0.045849
	N234	N	0.321696	0.591522	0.970631
	N235	N	0.320196	0.417895	0.044182
	N236	N	0.962021	0.687356	0.420583
	N237	N	0.036054	0.684151	0.592100
	N238	N	0.962208	0.326107	0.595578
	N239	N	0.034916	0.326319	0.420636
	N240	N	0.963106	0.419100	0.688607
	N241	N	0.036777	0.591060	0.684564
	N242	N	0.960505	0.592919	0.329609
	N243	N	0.035289	0.421939	0.329621
	N244	N	0.413623	0.682740	0.971223
	N245	N	0.583189	0.680277	0.045329
	N246	N	0.584442	0.328586	0.970183
	N247	N	0.414492	0.328747	0.045377
	N248	N	0.680960	0.968940	0.418778
	N249	N	0.676600	0.041765	0.593331
	N250	N	0.317998	0.967978	0.596653
	N251	N	0.320401	0.040319	0.421710
	N252	N	0.911416	0.469050	0.187283
	N253	N	0.079313	0.544174	0.180504
	N254	N	0.087881	0.468234	0.828510
	N255	N	0.917840	0.543547	0.833724
	N256	N	0.178992	0.917181	0.472621
	N257	N	0.176909	0.090982	0.544976
	N258	N	0.821509	0.091592	0.470314
	N259	N	0.819138	0.918445	0.543608
	N260	N	0.462196	0.186797	0.919875
	N261	N	0.535324	0.183232	0.092764
	N262	N	0.462728	0.825102	0.094810
	N263	N	0.536105	0.824646	0.920147
	N264	N	0.463363	0.916935	0.188297
	N265	N	0.536655	0.088193	0.183082
	N266	N	0.461130	0.091533	0.829114
	N267	N	0.536324	0.920915	0.829031
	N268	N	0.913194	0.183695	0.470877
	N269	N	0.082487	0.181576	0.546016
	N270	N	0.083934	0.830059	0.470526
	N271	N	0.913228	0.829074	0.544691
	N272	N	0.181372	0.468997	0.919186
	N273	N	0.177482	0.542105	0.093976
	N274	N	0.817934	0.469182	0.097984
	N275	N	0.820715	0.541212	0.922246
	O276	O	0.006412	-0.028532	0.000626
	H277	H	-0.008192	-0.025079	-0.011549
	H278	H	0.018513	-0.025370	0.000662
	O279	O	0.587870	0.478677	0.523981
	H280	H	0.592674	0.469292	0.520014
	H281	H	0.583209	0.475398	0.521383
	O282	O	0.429979	0.487679	0.518928
	H283	H	0.433905	0.492802	0.518852
	H284	H	0.434700	0.482930	0.519141
	O285	O	1.124282	0.039400	1.046458
	H286	H	1.133632	0.042080	1.050638
	H287	H	1.122258	0.045771	1.040335
	O288	O	0.979804	-0.019192	-0.011788
	H289	H	0.981901	-0.017951	-0.010638
	H290	H	0.975513	-0.025267	-0.008441
	O291	O	0.613503	0.489527	0.391967
	H292	H	0.598080	0.500356	0.384034
	H293	H	0.619760	0.487294	0.396571
	O294	O	0.899889	0.020757	1.073306
	H295	H	0.899459	0.014818	1.084501
	H296	H	0.905034	0.017357	1.079056
	O297	O	0.059194	0.052386	0.085707
	H298	H	0.068543	0.062423	0.076936
	H299	H	0.055581	0.048954	0.075542
	O300	O	0.431871	0.409488	0.441781
	H301	H	0.431285	0.399210	0.450077
	H302	H	0.436424	0.406401	0.439229
	O303	O	0.508827	0.541476	0.531653
	H304	H	0.516648	0.541187	0.525118
	H305	H	0.508222	0.530298	0.514938
	O306	O	1.080119	-0.093532	-0.042050
	H307	H	1.070824	-0.096473	-0.041757
	H308	H	1.080650	-0.097087	-0.050522
	O309	O	-0.059723	-0.021744	0.943346
	H310	H	-0.067537	-0.013769	0.934773
	H311	H	-0.060738	-0.024083	0.956136
	O312	O	1.485234	0.607522	0.592045
	H313	H	1.494484	0.604353	0.583552
	H314	H	1.489903	0.608645	0.588405
	O315	O	0.438421	0.435417	0.517555
	H316	H	0.444626	0.427097	0.525797
	H317	H	0.434074	0.441668	0.525153
	O318	O	0.439213	0.479524	0.619502
	H319	H	0.435812	0.470214	0.626113
	H320	H	0.438439	0.497552	0.621601
	O321	O	-0.061754	0.990676	0.986816
	H322	H	-0.053509	0.984854	0.991590
	H323	H	-0.065210	0.991038	0.984895
	O324	O	1.026732	0.970269	0.041156
	H325	H	1.034057	0.972455	0.038627
	H326	H	1.026844	0.977576	0.032996
	O327	O	0.495165	0.507392	0.487384
	H328	H	0.485494	0.510636	0.482870
	H329	H	0.501254	0.505969	0.494880
	O330	O	0.937372	1.063443	0.027894
	H331	H	0.935943	1.071353	0.029169
	H332	H	0.947229	1.059498	0.031626
	O333	O	0.503765	0.452054	0.495953
	H334	H	0.504499	0.461175	0.480458
	H335	H	0.506072	0.451560	0.497053
	O336	O	0.498403	0.466224	0.571214
	H337	H	0.483186	0.453542	0.578171
	H338	H	0.512785	0.463304	0.556269
	O339	O	0.475980	0.561918	-0.506456
	H340	H	0.472654	0.562453	-0.502383
	H341	H	0.482086	0.555241	-0.497998
	O342	O	0.472027	0.545653	0.482185
	H343	H	0.460797	0.552912	0.482754
	H344	H	0.466131	0.547013	0.484980
	O345	O	0.525041	0.449457	0.435552
	H346	H	0.515947	0.451676	0.437605
	H347	H	0.539007	0.449298	0.436507
	O348	O	0.101093	0.019680	-0.002104
	H349	H	0.101595	0.016871	-0.007556
	H350	H	0.103979	0.022641	-0.008788
	O351	O	-0.102354	1.033192	1.036605
	H352	H	-0.100549	1.036209	1.038463
	H353	H	-0.109894	1.031428	1.043864
	O354	O	0.552621	0.591310	0.539321
	H355	H	0.533259	0.595746	0.540062
	H356	H	0.567639	0.601927	0.539233
	O357	O	0.056974	1.010581	0.949191
	H358	H	0.050314	1.003835	0.954084
	H359	H	0.045246	1.002443	0.951101
