data_Molecule from HDF5

_cell_length_a		16.306288
_cell_length_b		16.265023
_cell_length_c		16.079481
_cell_angle_alpha	89.830595
_cell_angle_beta	90.000150
_cell_angle_gamma	89.298472
_symmetry_space_group_name_H-M	'P 1'
_symmetry_Int_Tables_number		1

loop_
	_symmetry_equiv_pos_as_xyz
	x,y,z

loop_
	_atom_site_label
	_atom_site_type_symbol
	_atom_site_fract_x
	_atom_site_fract_y
	_atom_site_fract_z
	H0	H	0.399219	0.839560	0.716528
	H1	H	0.592379	0.167322	0.715754
	H2	H	0.594939	0.838502	0.289128
	H3	H	0.394500	0.166523	0.286055
	H4	H	0.711474	0.397915	0.837014
	H5	H	0.706837	0.599822	0.166054
	H6	H	0.278420	0.605902	0.836832
	H7	H	0.279008	0.402440	0.165488
	H8	H	0.833546	0.724569	0.396980
	H9	H	0.158563	0.717850	0.601549
	H10	H	0.833445	0.287085	0.602450
	H11	H	0.157922	0.284689	0.397507
	H12	H	0.831633	0.404803	0.716385
	H13	H	0.158411	0.599234	0.716302
	H14	H	0.830843	0.604035	0.286190
	H15	H	0.158734	0.404937	0.286620
	H16	H	0.391069	0.721089	0.837505
	H17	H	0.592063	0.713248	0.166521
	H18	H	0.594872	0.286797	0.836408
	H19	H	0.395648	0.288367	0.167078
	H20	H	0.716254	0.841923	0.398385
	H21	H	0.710532	0.166598	0.601958
	H22	H	0.280658	0.839956	0.603767
	H23	H	0.274690	0.164127	0.396170
	H24	H	0.898958	0.338681	0.216543
	H25	H	0.089661	0.667194	0.213286
	H26	H	0.094008	0.338833	0.787241
	H27	H	0.891721	0.666136	0.785874
	H28	H	0.212750	0.901836	0.336267
	H29	H	0.209995	0.101890	0.665005
	H30	H	0.779313	0.106495	0.335468
	H31	H	0.783594	0.905095	0.665310
	H32	H	0.333483	0.223684	0.897865
	H33	H	0.657604	0.216735	0.103158
	H34	H	0.331733	0.787550	0.103466
	H35	H	0.657129	0.781732	0.900109
	H36	H	0.332508	0.904659	0.218926
	H37	H	0.659494	0.096678	0.213632
	H38	H	0.331631	0.103806	0.785965
	H39	H	0.658682	0.901024	0.786635
	H40	H	0.896577	0.218962	0.334482
	H41	H	0.096432	0.216932	0.664610
	H42	H	0.096816	0.788101	0.334878
	H43	H	0.896981	0.790002	0.664487
	H44	H	0.215215	0.341208	0.897444
	H45	H	0.210530	0.665152	0.103589
	H46	H	0.780868	0.338311	0.102961
	H47	H	0.773823	0.664124	0.898771
	H48	H	0.399640	0.119005	0.590126
	H49	H	0.595238	0.886278	0.589177
	H50	H	0.581982	0.122343	0.396697
	H51	H	0.394281	0.883237	0.411902
	H52	H	0.590686	0.398242	0.123712
	H53	H	0.589354	0.592445	0.880753
	H54	H	0.394817	0.596714	0.122310
	H55	H	0.396387	0.414549	0.881765
	H56	H	0.113531	0.607027	0.411398
	H57	H	0.879510	0.598777	0.591143
	H58	H	0.111354	0.406139	0.589803
	H59	H	0.880316	0.416900	0.406898
	H60	H	0.109710	0.412376	0.590909
	H61	H	0.878820	0.597486	0.591180
	H62	H	0.106776	0.587058	0.413784
	H63	H	0.876544	0.407038	0.405445
	H64	H	0.401213	0.587418	0.117103
	H65	H	0.582188	0.587851	0.884859
	H66	H	0.595171	0.416313	0.118918
	H67	H	0.409409	0.418396	0.887349
	H68	H	0.582241	0.116444	0.417756
	H69	H	0.592268	0.885022	0.597814
	H70	H	0.401602	0.120525	0.592733
	H71	H	0.409032	0.884808	0.401005
	H72	H	0.900274	0.619778	0.098288
	H73	H	0.084379	0.388946	0.087625
	H74	H	0.079681	0.617743	0.909503
	H75	H	0.911123	0.389603	0.912490
	H76	H	0.092020	0.909677	0.619451
	H77	H	0.083992	0.092541	0.383906
	H78	H	0.905988	0.096010	0.617029
	H79	H	0.900560	0.919193	0.381937
	H80	H	0.609714	0.095533	0.914450
	H81	H	0.377829	0.098937	0.094948
	H82	H	0.613155	0.909445	0.101226
	H83	H	0.379607	0.913394	0.910023
	H84	H	0.613983	0.896582	0.092966
	H85	H	0.379275	0.097105	0.090743
	H86	H	0.610137	0.089307	0.907025
	H87	H	0.379205	0.911506	0.910225
	H88	H	0.901823	0.099047	0.619579
	H89	H	0.086422	0.095799	0.381218
	H90	H	0.086988	0.913628	0.617099
	H91	H	0.912157	0.915155	0.384588
	H92	H	0.088464	0.618987	0.913887
	H93	H	0.093365	0.385494	0.089915
	H94	H	0.900731	0.616580	0.087895
	H95	H	0.895901	0.384985	0.915215
	H96	H	0.403085	0.118063	0.591160
	H97	H	0.586437	0.889183	0.591376
	H98	H	0.599251	0.123473	0.408252
	H99	H	0.410555	0.890416	0.417938
	H100	H	0.577914	0.410571	0.115904
	H101	H	0.580860	0.597274	0.883057
	H102	H	0.407191	0.598937	0.119825
	H103	H	0.407176	0.405034	0.882261
	H104	H	0.114830	0.593189	0.395269
	H105	H	0.879142	0.598327	0.592282
	H106	H	0.112769	0.408692	0.596275
	H107	H	0.880390	0.410319	0.415349
	H108	H	0.891892	0.620141	0.091300
	H109	H	0.087148	0.385986	0.096433
	H110	H	0.087671	0.621604	0.905479
	H111	H	0.901964	0.382965	0.900160
	H112	H	0.086586	0.907991	0.618096
	H113	H	0.087987	0.091606	0.383119
	H114	H	0.901063	0.093362	0.617645
	H115	H	0.904113	0.907997	0.379130
	H116	H	0.613346	0.099215	0.905634
	H117	H	0.378924	0.094227	0.094174
	H118	H	0.607804	0.909559	0.087103
	H119	H	0.379663	0.912806	0.911628
	C120	C	0.373815	0.011287	0.621787
	C121	C	0.618561	0.994931	0.622554
	C122	C	0.617790	0.012291	0.378561
	C123	C	0.373820	0.993969	0.379403
	C124	C	0.617077	0.379015	0.010256
	C125	C	0.613355	0.620965	0.992489
	C126	C	0.371467	0.624957	0.010526
	C127	C	0.374398	0.382267	0.992714
	C128	C	0.003905	0.626100	0.377254
	C129	C	0.986835	0.625630	0.621855
	C130	C	0.003728	0.381164	0.622401
	C131	C	0.986689	0.381534	0.378896
	C132	C	0.871232	0.510855	0.122430
	C133	C	0.116123	0.494481	0.121195
	C134	C	0.116333	0.511828	0.879306
	C135	C	0.871687	0.493605	0.879182
	C136	C	0.117965	0.880792	0.509035
	C137	C	0.116378	0.123090	0.491476
	C138	C	0.873573	0.126078	0.508890
	C139	C	0.875958	0.884478	0.490815
	C140	C	0.503629	0.125250	0.879000
	C141	C	0.486689	0.123856	0.122318
	C142	C	0.503580	0.878915	0.123847
	C143	C	0.486676	0.880791	0.880198
	C144	C	0.377557	0.888479	0.678751
	C145	C	0.613818	0.118211	0.678176
	C146	C	0.616331	0.888482	0.324753
	C147	C	0.374660	0.117161	0.323292
	C148	C	0.673447	0.379308	0.886304
	C149	C	0.668888	0.619344	0.116574
	C150	C	0.315961	0.625003	0.886417
	C151	C	0.317574	0.382696	0.116393
	C152	C	0.881807	0.685074	0.377754
	C153	C	0.109673	0.679706	0.621029
	C154	C	0.881582	0.325660	0.621981
	C155	C	0.109311	0.324002	0.379107
	C156	C	0.880783	0.384238	0.678542
	C157	C	0.109497	0.620853	0.678419
	C158	C	0.880394	0.624617	0.322967
	C159	C	0.109795	0.383727	0.323590
	C160	C	0.372130	0.682474	0.886792
	C161	C	0.611680	0.675839	0.117028
	C162	C	0.615411	0.323710	0.886008
	C163	C	0.375620	0.325925	0.117104
	C164	C	0.676186	0.889934	0.379623
	C165	C	0.672806	0.117878	0.621551
	C166	C	0.318692	0.888774	0.622592
	C167	C	0.314868	0.115965	0.378190
	C168	C	0.876969	0.387521	0.178552
	C169	C	0.111665	0.617963	0.176365
	C170	C	0.115316	0.388257	0.823835
	C171	C	0.872217	0.616772	0.823399
	C172	C	0.174513	0.881897	0.385398
	C173	C	0.172323	0.121658	0.615568
	C174	C	0.817736	0.125723	0.384673
	C175	C	0.820836	0.885415	0.615635
	C176	C	0.381707	0.183850	0.879182
	C177	C	0.609271	0.178165	0.121483
	C178	C	0.380793	0.825045	0.123307
	C179	C	0.608757	0.821532	0.880807
	C180	C	0.380948	0.883416	0.180477
	C181	C	0.610148	0.118792	0.176834
	C182	C	0.380581	0.124314	0.823483
	C183	C	0.609589	0.881319	0.824509
	C184	C	0.876013	0.181739	0.384315
	C185	C	0.115905	0.179136	0.615354
	C186	C	0.116755	0.825389	0.384637
	C187	C	0.877161	0.828255	0.615370
	C188	C	0.175449	0.389520	0.878738
	C189	C	0.171643	0.617001	0.121683
	C190	C	0.818137	0.387375	0.122173
	C191	C	0.813272	0.615750	0.879596
	C192	C	0.395417	0.096884	0.598265
	C193	C	0.597536	0.909070	0.599577
	C194	C	0.594614	0.098406	0.400944
	C195	C	0.397720	0.908226	0.403446
	C196	C	0.594569	0.401500	0.096961
	C197	C	0.590837	0.598963	0.905425
	C198	C	0.394304	0.601226	0.097153
	C199	C	0.397520	0.405673	0.906278
	C200	C	0.089630	0.602592	0.400169
	C201	C	0.901356	0.604535	0.598316
	C202	C	0.088984	0.402749	0.599151
	C203	C	0.901192	0.404685	0.402329
	C204	C	0.891617	0.596645	0.099273
	C205	C	0.094547	0.409136	0.098088
	C206	C	0.092392	0.597012	0.902637
	C207	C	0.895992	0.407843	0.902418
	C208	C	0.094890	0.903569	0.595737
	C209	C	0.093034	0.100116	0.405061
	C210	C	0.896286	0.102961	0.595546
	C211	C	0.898741	0.907491	0.404424
	C212	C	0.588980	0.101434	0.902176
	C213	C	0.400914	0.103155	0.099827
	C214	C	0.589352	0.899216	0.100777
	C215	C	0.401672	0.905365	0.903779
	Zn216	Zn	0.495435	0.003216	0.750754
	Zn217	Zn	0.495682	0.002659	0.251484
	Zn218	Zn	0.742717	0.501030	0.000695
	Zn219	Zn	0.245690	0.503598	0.000744
	Zn220	Zn	-0.004331	0.755195	0.499707
	Zn221	Zn	-0.004042	0.252208	0.500297
	Zn222	Zn	-0.005652	0.503038	0.751170
	Zn223	Zn	-0.005285	0.503203	0.250214
	Zn224	Zn	0.493796	0.750249	0.001695
	Zn225	Zn	0.495248	0.253504	0.001598
	Zn226	Zn	0.746598	0.004194	0.499982
	Zn227	Zn	0.244850	0.002320	0.500710
	N228	N	0.411120	0.965660	0.678417
	N229	N	0.580847	0.040777	0.679059
	N230	N	0.580970	0.965636	0.323975
	N231	N	0.410671	0.040156	0.323869
	N232	N	0.674637	0.413109	0.964696
	N233	N	0.669950	0.585776	0.038128
	N234	N	0.315177	0.590500	0.964599
	N235	N	0.316759	0.417008	0.038089
	N236	N	0.959554	0.685976	0.410821
	N237	N	0.032371	0.682676	0.586547
	N238	N	0.959006	0.323283	0.587915
	N239	N	0.031684	0.322605	0.412986
	N240	N	0.957624	0.418084	0.678962
	N241	N	0.032163	0.587991	0.679027
	N242	N	0.957302	0.588877	0.322445
	N243	N	0.032684	0.418788	0.323447
	N244	N	0.405659	0.682914	0.965238
	N245	N	0.577735	0.677057	0.038675
	N246	N	0.581126	0.323421	0.963953
	N247	N	0.410246	0.325694	0.038997
	N248	N	0.677325	0.968129	0.412251
	N249	N	0.675730	0.040244	0.587734
	N250	N	0.316368	0.966005	0.587773
	N251	N	0.314328	0.038331	0.412427
	N252	N	0.909101	0.465320	0.179051
	N253	N	0.077843	0.540961	0.176326
	N254	N	0.079160	0.465048	0.824046
	N255	N	0.908147	0.539645	0.822990
	N256	N	0.175486	0.915285	0.463776
	N257	N	0.172747	0.087577	0.537319
	N258	N	0.816101	0.091874	0.463173
	N259	N	0.819932	0.919779	0.537275
	N260	N	0.459182	0.184437	0.913087
	N261	N	0.531518	0.181389	0.088268
	N262	N	0.457933	0.822137	0.088818
	N263	N	0.531249	0.820956	0.914694
	N264	N	0.458365	0.916148	0.180978
	N265	N	0.532951	0.085647	0.177520
	N266	N	0.457413	0.088586	0.823190
	N267	N	0.532767	0.917341	0.824066
	N268	N	0.910004	0.182092	0.462649
	N269	N	0.081699	0.180046	0.537255
	N270	N	0.082217	0.824652	0.462754
	N271	N	0.910750	0.827313	0.536970
	N272	N	0.176396	0.467394	0.912393
	N273	N	0.174620	0.539378	0.087927
	N274	N	0.814637	0.464984	0.087808
	N275	N	0.812949	0.538109	0.913314
	O276	O	0.901707	-0.016320	0.940954
	H277	H	0.901253	-0.010960	0.951244
	H278	H	0.901350	-0.009074	0.955492
	O279	O	0.612715	0.438518	0.533337
	H280	H	0.608893	0.446076	0.530861
	H281	H	0.621281	0.433000	0.531810
	O282	O	0.584144	0.567592	0.452562
	H283	H	0.579166	0.573939	0.449814
	H284	H	0.584041	0.565168	0.446971
	O285	O	0.386068	0.449263	0.465145
	H286	H	0.385399	0.447816	0.460302
	H287	H	0.387242	0.462053	0.467194
	O288	O	0.501643	0.447485	0.570739
	H289	H	0.498976	0.437268	0.565637
	H290	H	0.490839	0.437925	0.564178
	O291	O	-0.023345	0.036010	1.047572
	H292	H	-0.031093	0.030682	1.052878
	H293	H	-0.028845	0.037392	1.047897
	O294	O	1.008609	0.957370	0.070935
	H295	H	0.998687	0.964278	0.057118
	H296	H	1.015962	0.970685	0.076605
	O297	O	0.849943	0.937253	0.047944
	H298	H	0.850862	0.946368	0.036993
	H299	H	0.848667	0.929414	0.045966
	O300	O	0.447191	0.581935	0.352072
	H301	H	0.446790	0.571070	0.359700
	H302	H	0.455239	0.575253	0.342017
	O303	O	0.381312	0.494549	0.539362
	H304	H	0.368357	0.492398	0.537717
	H305	H	0.385287	0.495627	0.545017
	O306	O	0.497769	0.467735	0.445402
	H307	H	0.489604	0.457579	0.438143
	H308	H	0.512698	0.466435	0.437573
	O309	O	0.459768	0.591974	0.499089
	H310	H	0.461294	0.594480	0.501941
	H311	H	0.468915	0.586330	0.489965
	O312	O	1.101155	0.980938	0.939130
	H313	H	1.111717	0.971555	0.932720
	H314	H	1.101812	0.992410	0.957176
	O315	O	0.879668	1.143169	-0.137788
	H316	H	0.893125	1.152749	-0.139968
	H317	H	0.881776	1.138211	-0.152537
	O318	O	0.481873	0.477190	0.545757
	H319	H	0.487490	0.473593	0.548413
	H320	H	0.491626	0.480731	0.546693
	O321	O	0.418356	0.550840	0.429177
	H322	H	0.428113	0.555251	0.442461
	H323	H	0.404955	0.540929	0.422999
	O324	O	0.070333	0.965145	0.888446
	H325	H	0.073523	0.978042	0.887022
	H326	H	0.079212	0.957907	0.900388
	O327	O	-0.164345	1.044900	1.004601
	H328	H	-0.165533	1.042337	0.982794
	H329	H	-0.181721	1.044412	1.004464
	O330	O	0.100063	0.068802	-0.110810
	H331	H	0.103994	0.073047	-0.113704
	H332	H	0.106954	0.060545	-0.101277
	O333	O	0.478472	0.474528	0.647829
	H334	H	0.489812	0.460208	0.651627
	H335	H	0.471459	0.486195	0.656485
	O336	O	0.121777	0.023883	0.143789
	H337	H	0.114312	0.025272	0.147913
	H338	H	0.102177	0.022271	0.141266
	O339	O	0.035499	-0.088354	0.035437
	H340	H	0.008807	-0.103821	0.032730
	H341	H	0.042236	-0.096958	0.021545
	O342	O	0.419163	0.437126	0.477715
	H343	H	0.413152	0.432896	0.477722
	H344	H	0.425518	0.431480	0.465025
	O345	O	-0.044256	1.057670	1.038509
	H346	H	-0.040080	1.059372	1.034681
	H347	H	-0.048423	1.059680	1.034198
	O348	O	0.459370	0.403026	0.495598
	H349	H	0.453839	0.408013	0.489748
	H350	H	0.471727	0.403529	0.490590
	O351	O	0.477655	0.392894	0.579802
	H352	H	0.485852	0.388405	0.579263
	H353	H	0.476587	0.394686	0.592298
	O354	O	0.117217	0.939277	0.006149
	H355	H	0.122626	0.935688	-0.002360
	H356	H	0.111943	0.941517	0.004319
	O357	O	0.557180	0.529131	0.624035
	H358	H	0.553947	0.518023	0.615681
	H359	H	0.556309	0.532838	0.630043
	O360	O	1.051110	-0.075140	0.943861
	H361	H	1.061892	-0.072421	0.936728
	H362	H	1.060832	-0.071343	0.946731
	O363	O	0.496742	0.564854	0.553118
	H364	H	0.485458	0.571062	0.558797
	H365	H	0.500132	0.571776	0.537556
	O366	O	0.528247	0.496265	0.345707
	H367	H	0.545043	0.491789	0.336168
	H368	H	0.521886	0.507939	0.341597
	O369	O	0.976956	0.033764	0.073087
	H370	H	0.964440	0.032792	0.075418
	H371	H	0.976556	0.028076	0.080697
	O372	O	0.651214	0.546552	0.526778
	H373	H	0.640724	0.540458	0.530712
	H374	H	0.661167	0.548474	0.533586
	O375	O	0.930720	0.011133	0.969264
	H376	H	0.929396	0.005806	0.969748
	H377	H	0.926924	0.014806	0.965875
	O378	O	0.112321	1.107234	-0.063817
	H379	H	0.118293	1.117187	-0.059335
	H380	H	0.116396	1.097504	-0.055206
	O381	O	0.548681	0.461257	0.453993
	H382	H	0.545021	0.463995	0.475309
	H383	H	0.532122	0.462144	0.463766
	O384	O	0.981856	1.073593	0.154832
	H385	H	0.973435	1.061658	0.160454
	H386	H	0.988655	1.073257	0.150988
	O387	O	1.036391	-0.090047	0.931297
	H388	H	1.038199	-0.093737	0.925164
	H389	H	1.037057	-0.095875	0.935417
	O390	O	0.966375	0.864902	-0.011820
	H391	H	0.973330	0.857560	-0.016422
	H392	H	0.964558	0.857705	0.004438
	O393	O	0.510777	0.619856	0.482776
	H394	H	0.504854	0.630827	0.489606
	H395	H	0.505091	0.628258	0.484659
