data_Molecule from HDF5

_cell_length_a		16.157296
_cell_length_b		16.354721
_cell_length_c		16.222353
_cell_angle_alpha	89.917093
_cell_angle_beta	89.858136
_cell_angle_gamma	89.899836
_symmetry_space_group_name_H-M	'P 1'
_symmetry_Int_Tables_number		1

loop_
	_symmetry_equiv_pos_as_xyz
	x,y,z

loop_
	_atom_site_label
	_atom_site_type_symbol
	_atom_site_fract_x
	_atom_site_fract_y
	_atom_site_fract_z
	H0	H	0.402316	0.836049	0.721255
	H1	H	0.597592	0.163363	0.721469
	H2	H	0.597241	0.835619	0.293274
	H3	H	0.401824	0.162617	0.293173
	H4	H	0.713767	0.402476	0.842885
	H5	H	0.709865	0.594164	0.173448
	H6	H	0.287975	0.595314	0.842779
	H7	H	0.286535	0.402298	0.172151
	H8	H	0.834582	0.714441	0.409282
	H9	H	0.163912	0.713377	0.605526
	H10	H	0.834323	0.286461	0.607127
	H11	H	0.164083	0.285928	0.408902
	H12	H	0.834408	0.403933	0.721612
	H13	H	0.165819	0.594835	0.717652
	H14	H	0.833755	0.596213	0.295627
	H15	H	0.164728	0.403299	0.295211
	H16	H	0.399244	0.714106	0.843781
	H17	H	0.597719	0.713624	0.171387
	H18	H	0.600276	0.284112	0.843074
	H19	H	0.400744	0.284347	0.170597
	H20	H	0.714663	0.836130	0.408972
	H21	H	0.711290	0.164008	0.602546
	H22	H	0.286122	0.836452	0.604545
	H23	H	0.286429	0.163375	0.410229
	H24	H	0.900112	0.336995	0.223685
	H25	H	0.096364	0.663387	0.221530
	H26	H	0.099854	0.337481	0.792552
	H27	H	0.901701	0.663644	0.793342
	H28	H	0.211153	0.904196	0.341692
	H29	H	0.211380	0.095091	0.672717
	H30	H	0.787491	0.096673	0.342455
	H31	H	0.785408	0.902520	0.671561
	H32	H	0.334787	0.215092	0.906552
	H33	H	0.663587	0.213539	0.105735
	H34	H	0.334127	0.784227	0.107877
	H35	H	0.663502	0.784497	0.908377
	H36	H	0.333525	0.902678	0.220421
	H37	H	0.664608	0.095604	0.218494
	H38	H	0.333266	0.095050	0.795971
	H39	H	0.665207	0.902438	0.794987
	H40	H	0.898895	0.216375	0.343703
	H41	H	0.097700	0.213882	0.672181
	H42	H	0.098508	0.785081	0.343386
	H43	H	0.899084	0.784689	0.671717
	H44	H	0.213587	0.337243	0.909730
	H45	H	0.212063	0.663529	0.104274
	H46	H	0.786849	0.335993	0.105321
	H47	H	0.785333	0.663887	0.910384
	H48	H	0.410065	0.117483	0.609686
	H49	H	0.593361	0.882703	0.604321
	H50	H	0.599571	0.120408	0.403804
	H51	H	0.415251	0.886457	0.416305
	H52	H	0.581865	0.401308	0.122505
	H53	H	0.590640	0.596967	0.889788
	H54	H	0.407938	0.594430	0.125357
	H55	H	0.401620	0.406463	0.887774
	H56	H	0.119998	0.603852	0.416547
	H57	H	0.887326	0.579655	0.594745
	H58	H	0.115983	0.400570	0.590968
	H59	H	0.884851	0.408418	0.426430
	H60	H	0.114258	0.416593	0.600077
	H61	H	0.877040	0.593715	0.615713
	H62	H	0.112705	0.587568	0.422045
	H63	H	0.881513	0.415570	0.408575
	H64	H	0.404301	0.593985	0.125993
	H65	H	0.597354	0.591280	0.889702
	H66	H	0.599778	0.396741	0.129464
	H67	H	0.409129	0.408999	0.891459
	H68	H	0.582172	0.112533	0.410507
	H69	H	0.591364	0.884747	0.600200
	H70	H	0.408900	0.113765	0.593517
	H71	H	0.397697	0.882748	0.420945
	H72	H	0.899853	0.618446	0.104870
	H73	H	0.100040	0.381820	0.098829
	H74	H	0.096403	0.616078	0.920987
	H75	H	0.906500	0.384976	0.918905
	H76	H	0.088967	0.909336	0.622715
	H77	H	0.083842	0.098378	0.391663
	H78	H	0.913476	0.089424	0.621717
	H79	H	0.909275	0.912193	0.392584
	H80	H	0.616528	0.095169	0.918678
	H81	H	0.383600	0.082060	0.102919
	H82	H	0.615302	0.902721	0.092530
	H83	H	0.377104	0.897468	0.910833
	H84	H	0.614742	0.911451	0.100389
	H85	H	0.376831	0.099583	0.105972
	H86	H	0.615383	0.087807	0.914367
	H87	H	0.384499	0.905561	0.924449
	H88	H	0.906647	0.102347	0.626973
	H89	H	0.099402	0.098893	0.387141
	H90	H	0.090236	0.900183	0.624658
	H91	H	0.912590	0.902130	0.391214
	H92	H	0.099442	0.620560	0.906430
	H93	H	0.090433	0.382297	0.109977
	H94	H	0.909753	0.616249	0.105565
	H95	H	0.904633	0.382867	0.911761
	H96	H	0.395324	0.118263	0.601712
	H97	H	0.595969	0.882718	0.600278
	H98	H	0.598424	0.113733	0.422345
	H99	H	0.403700	0.879945	0.403763
	H100	H	0.595682	0.414641	0.122672
	H101	H	0.589397	0.589069	0.891847
	H102	H	0.405555	0.590896	0.124205
	H103	H	0.408430	0.401660	0.888747
	H104	H	0.119391	0.589306	0.404066
	H105	H	0.880581	0.605460	0.591083
	H106	H	0.121355	0.401386	0.608550
	H107	H	0.878133	0.396701	0.412770
	H108	H	0.905045	0.614727	0.096046
	H109	H	0.086294	0.387108	0.096486
	H110	H	0.085089	0.615487	0.910600
	H111	H	0.911715	0.385342	0.912577
	H112	H	0.097145	0.906857	0.625886
	H113	H	0.093187	0.085414	0.392117
	H114	H	0.898415	0.088571	0.625514
	H115	H	0.902241	0.905063	0.388454
	H116	H	0.618289	0.094335	0.910022
	H117	H	0.383788	0.095304	0.088550
	H118	H	0.618756	0.900826	0.103248
	H119	H	0.382097	0.913898	0.909023
	C120	C	0.377636	0.008184	0.629121
	C121	C	0.621006	0.991678	0.629132
	C122	C	0.621753	0.007679	0.384247
	C123	C	0.377493	0.991037	0.385352
	C124	C	0.621068	0.376753	0.015723
	C125	C	0.620241	0.620298	0.999399
	C126	C	0.377756	0.620890	0.016460
	C127	C	0.378002	0.377890	0.998118
	C128	C	0.008297	0.621607	0.386163
	C129	C	0.990888	0.620795	0.628334
	C130	C	0.008065	0.378136	0.629314
	C131	C	0.990818	0.378527	0.386773
	C132	C	0.877116	0.508185	0.130225
	C133	C	0.120919	0.491584	0.129803
	C134	C	0.121816	0.508903	0.885234
	C135	C	0.878454	0.492105	0.886116
	C136	C	0.120639	0.877940	0.515604
	C137	C	0.120472	0.121535	0.499185
	C138	C	0.878003	0.121706	0.515748
	C139	C	0.878582	0.878296	0.499113
	C140	C	0.507585	0.120773	0.885982
	C141	C	0.490782	0.120154	0.127296
	C142	C	0.507191	0.877099	0.128304
	C143	C	0.490490	0.877439	0.885861
	C144	C	0.381012	0.885039	0.683657
	C145	C	0.617723	0.114823	0.683092
	C146	C	0.618445	0.884478	0.330467
	C147	C	0.380626	0.114129	0.330924
	C148	C	0.676532	0.380754	0.892071
	C149	C	0.673336	0.615824	0.123913
	C150	C	0.324696	0.616791	0.891915
	C151	C	0.323733	0.381182	0.122615
	C152	C	0.883490	0.676193	0.389033
	C153	C	0.115097	0.675541	0.625891
	C154	C	0.883713	0.323775	0.627938
	C155	C	0.114917	0.323883	0.388921
	C156	C	0.883828	0.382217	0.684434
	C157	C	0.115916	0.616907	0.681616
	C158	C	0.883228	0.618047	0.332394
	C159	C	0.115365	0.382658	0.332818
	C160	C	0.380103	0.675652	0.892405
	C161	C	0.617674	0.675117	0.122711
	C162	C	0.619428	0.322463	0.892068
	C163	C	0.380244	0.322678	0.121975
	C164	C	0.676579	0.884654	0.388038
	C165	C	0.674363	0.115128	0.624232
	C166	C	0.323547	0.885103	0.625526
	C167	C	0.323406	0.114316	0.388745
	C168	C	0.880100	0.385600	0.185492
	C169	C	0.117620	0.614805	0.184021
	C170	C	0.119707	0.386161	0.830226
	C171	C	0.880725	0.615048	0.831375
	C172	C	0.174734	0.882318	0.391366
	C173	C	0.174471	0.117034	0.623387
	C174	C	0.823974	0.118512	0.391782
	C175	C	0.823289	0.881457	0.622854
	C176	C	0.383651	0.176389	0.887318
	C177	C	0.614668	0.175248	0.125511
	C178	C	0.383133	0.822364	0.127067
	C179	C	0.614496	0.822400	0.888043
	C180	C	0.382994	0.880715	0.183427
	C181	C	0.614977	0.116711	0.181728
	C182	C	0.382885	0.116805	0.832360
	C183	C	0.615199	0.880937	0.831580
	C184	C	0.879675	0.177580	0.392487
	C185	C	0.117993	0.175725	0.623214
	C186	C	0.118634	0.822978	0.392018
	C187	C	0.879720	0.822897	0.622680
	C188	C	0.175656	0.385744	0.889097
	C189	C	0.174712	0.614800	0.125331
	C190	C	0.823636	0.384864	0.126665
	C191	C	0.823314	0.615096	0.889630
	C192	C	0.398729	0.094318	0.607893
	C193	C	0.599862	0.905601	0.607868
	C194	C	0.599915	0.093546	0.405878
	C195	C	0.399196	0.905203	0.407187
	C196	C	0.598896	0.397893	0.102571
	C197	C	0.598763	0.598821	0.912680
	C198	C	0.399548	0.599455	0.102845
	C199	C	0.399790	0.399425	0.911708
	C200	C	0.094869	0.599986	0.407600
	C201	C	0.904256	0.599286	0.607015
	C202	C	0.094875	0.399576	0.606332
	C203	C	0.903887	0.400461	0.409197
	C204	C	0.898583	0.594256	0.108497
	C205	C	0.098860	0.405860	0.108342
	C206	C	0.100145	0.595061	0.906367
	C207	C	0.900957	0.406587	0.907857
	C208	C	0.098527	0.899193	0.602219
	C209	C	0.098663	0.100527	0.412602
	C210	C	0.899728	0.099778	0.602364
	C211	C	0.901255	0.900085	0.413012
	C212	C	0.594375	0.098994	0.907910
	C213	C	0.403806	0.098682	0.105526
	C214	C	0.593716	0.898766	0.105549
	C215	C	0.403754	0.899118	0.908162
	Zn216	Zn	0.499021	-0.000225	0.758046
	Zn217	Zn	0.499065	-0.000862	0.255972
	Zn218	Zn	0.749104	0.499277	0.008281
	Zn219	Zn	0.249929	0.499800	0.007287
	Zn220	Zn	-0.000479	0.749038	0.507600
	Zn221	Zn	-0.001050	0.250267	0.507797
	Zn222	Zn	0.000325	0.500380	0.756634
	Zn223	Zn	-0.001100	0.500094	0.258816
	Zn224	Zn	0.498397	0.748964	0.007081
	Zn225	Zn	0.498870	0.248990	0.006589
	Zn226	Zn	0.750030	-0.000156	0.506932
	Zn227	Zn	0.248851	-0.000046	0.507180
	N228	N	0.413688	0.962761	0.686034
	N229	N	0.585558	0.037048	0.686498
	N230	N	0.585299	0.961892	0.327952
	N231	N	0.413411	0.036537	0.328394
	N232	N	0.677686	0.413825	0.970027
	N233	N	0.674821	0.582251	0.046121
	N234	N	0.323141	0.583429	0.969757
	N235	N	0.322425	0.415065	0.044897
	N236	N	0.962029	0.678622	0.421650
	N237	N	0.036511	0.677993	0.593398
	N238	N	0.962089	0.321143	0.594373
	N239	N	0.036400	0.321475	0.422068
	N240	N	0.962163	0.415055	0.685479
	N241	N	0.037791	0.583588	0.683313
	N242	N	0.961488	0.584710	0.330587
	N243	N	0.037013	0.415609	0.331268
	N244	N	0.412542	0.678085	0.970792
	N245	N	0.585505	0.677923	0.044262
	N246	N	0.585908	0.320006	0.970246
	N247	N	0.413281	0.320571	0.043774
	N248	N	0.678850	0.962371	0.420716
	N249	N	0.676484	0.037618	0.591281
	N250	N	0.321343	0.962479	0.592388
	N251	N	0.321760	0.036975	0.422225
	N252	N	0.912378	0.463387	0.187995
	N253	N	0.084711	0.537339	0.186765
	N254	N	0.086771	0.463743	0.827787
	N255	N	0.914447	0.537818	0.829200
	N256	N	0.175861	0.915834	0.469055
	N257	N	0.176117	0.084041	0.545302
	N258	N	0.822811	0.084623	0.469483
	N259	N	0.822348	0.915322	0.545256
	N260	N	0.462342	0.179067	0.919820
	N261	N	0.536409	0.177585	0.092435
	N262	N	0.461473	0.819954	0.093490
	N263	N	0.535932	0.820245	0.920934
	N264	N	0.461043	0.914131	0.184295
	N265	N	0.536887	0.083167	0.182831
	N266	N	0.460896	0.083072	0.831364
	N267	N	0.537038	0.914798	0.830224
	N268	N	0.912526	0.179665	0.470743
	N269	N	0.085154	0.178762	0.545068
	N270	N	0.085826	0.820069	0.470367
	N271	N	0.913458	0.820871	0.544687
	N272	N	0.177239	0.463066	0.922305
	N273	N	0.176786	0.537203	0.092391
	N274	N	0.821644	0.462104	0.093190
	N275	N	0.821572	0.537546	0.922953
	O276	O	0.897517	0.006988	1.023571
	H277	H	0.904425	0.010616	1.019736
	H278	H	0.892330	0.015227	1.018698
	O279	O	0.893697	-0.010586	-0.004518
	H280	H	0.897511	-0.011417	0.002189
	H281	H	0.882142	-0.011256	0.000589
	O282	O	0.916831	1.021504	-0.004591
	H283	H	0.923956	1.023481	0.001332
	H284	H	0.912412	1.018578	-0.016527
	O285	O	-0.092893	0.992937	0.012340
	H286	H	-0.100244	0.987395	0.016127
	H287	H	-0.093231	0.993755	0.010224
