data_Molecule from HDF5

_cell_length_a		16.176586
_cell_length_b		16.135098
_cell_length_c		16.276748
_cell_angle_alpha	90.501043
_cell_angle_beta	90.332494
_cell_angle_gamma	89.904524
_symmetry_space_group_name_H-M	'P 1'
_symmetry_Int_Tables_number		1

loop_
	_symmetry_equiv_pos_as_xyz
	x,y,z

loop_
	_atom_site_label
	_atom_site_type_symbol
	_atom_site_fract_x
	_atom_site_fract_y
	_atom_site_fract_z
	H0	H	0.401657	0.834596	0.711779
	H1	H	0.601384	0.163163	0.716256
	H2	H	0.601845	0.835842	0.280821
	H3	H	0.399718	0.164766	0.287264
	H4	H	0.710369	0.399905	0.833915
	H5	H	0.715387	0.600620	0.161337
	H6	H	0.282514	0.598886	0.834852
	H7	H	0.284397	0.402626	0.161619
	H8	H	0.835505	0.711669	0.400038
	H9	H	0.165329	0.711516	0.597952
	H10	H	0.835080	0.287707	0.592887
	H11	H	0.164218	0.285420	0.400290
	H12	H	0.835324	0.399332	0.711505
	H13	H	0.162411	0.603618	0.718463
	H14	H	0.835593	0.598910	0.283471
	H15	H	0.162081	0.394990	0.282246
	H16	H	0.398282	0.714024	0.834459
	H17	H	0.599761	0.717854	0.161453
	H18	H	0.597430	0.282398	0.836196
	H19	H	0.401000	0.287539	0.162854
	H20	H	0.714206	0.833968	0.400422
	H21	H	0.714708	0.164150	0.601066
	H22	H	0.287241	0.834228	0.597090
	H23	H	0.284970	0.164051	0.401288
	H24	H	0.899067	0.334023	0.209036
	H25	H	0.098945	0.662783	0.215934
	H26	H	0.099474	0.336509	0.781977
	H27	H	0.897878	0.663829	0.784237
	H28	H	0.215723	0.897067	0.335428
	H29	H	0.214345	0.097427	0.663314
	H30	H	0.783355	0.097189	0.336487
	H31	H	0.789637	0.903116	0.664410
	H32	H	0.334462	0.211198	0.902835
	H33	H	0.665251	0.214461	0.098600
	H34	H	0.334181	0.789552	0.095385
	H35	H	0.663676	0.785490	0.901092
	H36	H	0.335790	0.902451	0.212537
	H37	H	0.663541	0.104199	0.218492
	H38	H	0.337229	0.100626	0.782460
	H39	H	0.665344	0.898376	0.786165
	H40	H	0.901316	0.210091	0.334107
	H41	H	0.100199	0.217030	0.662062
	H42	H	0.099464	0.782407	0.334409
	H43	H	0.903299	0.784397	0.662953
	H44	H	0.212474	0.334952	0.898816
	H45	H	0.212427	0.664760	0.099389
	H46	H	0.786473	0.333879	0.093424
	H47	H	0.784130	0.664054	0.899637
	H48	H	0.406113	0.116852	0.589181
	H49	H	0.596120	0.882048	0.585607
	H50	H	0.587038	0.113112	0.418246
	H51	H	0.400888	0.879499	0.404920
	H52	H	0.584557	0.401040	0.115651
	H53	H	0.594772	0.595683	0.879262
	H54	H	0.411378	0.599675	0.114762
	H55	H	0.404205	0.409258	0.882451
	H56	H	0.120850	0.595510	0.403093
	H57	H	0.883940	0.597814	0.578991
	H58	H	0.118479	0.404457	0.588871
	H59	H	0.882282	0.412477	0.401033
	H60	H	0.114477	0.413642	0.587204
	H61	H	0.885531	0.580375	0.594046
	H62	H	0.115420	0.588352	0.412808
	H63	H	0.878586	0.401382	0.395865
	H64	H	0.400262	0.597267	0.117805
	H65	H	0.591376	0.587505	0.882651
	H66	H	0.604188	0.406563	0.120439
	H67	H	0.408562	0.404821	0.881321
	H68	H	0.603724	0.120138	0.409470
	H69	H	0.601754	0.877743	0.597123
	H70	H	0.406005	0.119082	0.596886
	H71	H	0.413413	0.881051	0.398698
	H72	H	0.909208	0.617246	0.093943
	H73	H	0.085152	0.383661	0.091803
	H74	H	0.091031	0.617214	0.912614
	H75	H	0.895311	0.380761	0.910886
	H76	H	0.095013	0.909590	0.614486
	H77	H	0.093911	0.087935	0.382226
	H78	H	0.913289	0.092450	0.614434
	H79	H	0.904462	0.896673	0.379392
	H80	H	0.615297	0.091360	0.918053
	H81	H	0.383620	0.092878	0.090100
	H82	H	0.615410	0.917179	0.092499
	H83	H	0.384719	0.909586	0.911511
	H84	H	0.619915	0.904767	0.096957
	H85	H	0.382152	0.091081	0.097792
	H86	H	0.616747	0.082404	0.901340
	H87	H	0.382091	0.915212	0.897000
	H88	H	0.908275	0.100681	0.618433
	H89	H	0.089865	0.092114	0.382778
	H90	H	0.092637	0.904295	0.614801
	H91	H	0.901511	0.911080	0.382403
	H92	H	0.093089	0.619745	0.905557
	H93	H	0.094779	0.382057	0.082270
	H94	H	0.907963	0.616156	0.089070
	H95	H	0.903907	0.376491	0.890598
	H96	H	0.412437	0.116243	0.593186
	H97	H	0.588233	0.880598	0.596787
	H98	H	0.586828	0.118169	0.399335
	H99	H	0.412687	0.884745	0.411804
	H100	H	0.590498	0.420474	0.111402
	H101	H	0.585860	0.595307	0.881340
	H102	H	0.407393	0.589092	0.113349
	H103	H	0.402937	0.404054	0.880267
	H104	H	0.116556	0.583818	0.401520
	H105	H	0.877707	0.599663	0.600480
	H106	H	0.117725	0.411470	0.595890
	H107	H	0.880980	0.401442	0.407963
	H108	H	0.904335	0.618203	0.092308
	H109	H	0.097718	0.377524	0.095577
	H110	H	0.086588	0.617893	0.905753
	H111	H	0.917756	0.385375	0.906294
	H112	H	0.097363	0.905225	0.616332
	H113	H	0.095344	0.093066	0.381567
	H114	H	0.903028	0.092013	0.617786
	H115	H	0.914714	0.906312	0.385765
	H116	H	0.622184	0.100816	0.903526
	H117	H	0.380261	0.098662	0.095455
	H118	H	0.616362	0.906913	0.084851
	H119	H	0.378444	0.899981	0.900191
	C120	C	0.379780	0.008182	0.620549
	C121	C	0.623332	0.989730	0.622296
	C122	C	0.622109	0.008118	0.378677
	C123	C	0.379278	0.990983	0.377740
	C124	C	0.620680	0.378846	0.007479
	C125	C	0.620575	0.622361	0.989242
	C126	C	0.376618	0.622878	0.007071
	C127	C	0.376904	0.378544	0.989699
	C128	C	0.008512	0.618573	0.376818
	C129	C	0.991002	0.621745	0.621027
	C130	C	0.008310	0.380048	0.618602
	C131	C	0.989676	0.376113	0.374495
	C132	C	0.878172	0.507999	0.118816
	C133	C	0.121254	0.490075	0.120290
	C134	C	0.120195	0.509427	0.877419
	C135	C	0.876668	0.490344	0.875312
	C136	C	0.123432	0.876202	0.506932
	C137	C	0.122018	0.121005	0.490403
	C138	C	0.878652	0.121727	0.508268
	C139	C	0.879312	0.877157	0.491014
	C140	C	0.508933	0.120248	0.878581
	C141	C	0.490949	0.123561	0.123001
	C142	C	0.508364	0.880885	0.119701
	C143	C	0.490661	0.877999	0.875734
	C144	C	0.381718	0.883966	0.674600
	C145	C	0.621273	0.113984	0.678256
	C146	C	0.621193	0.884490	0.320646
	C147	C	0.379873	0.115230	0.324173
	C148	C	0.674048	0.379790	0.883482
	C149	C	0.677201	0.621098	0.112366
	C150	C	0.320587	0.619210	0.883897
	C151	C	0.322160	0.381741	0.113041
	C152	C	0.884824	0.674510	0.379087
	C153	C	0.115375	0.675682	0.619107
	C154	C	0.884318	0.324768	0.614604
	C155	C	0.114312	0.321719	0.378602
	C156	C	0.884665	0.380477	0.673374
	C157	C	0.113837	0.621744	0.678863
	C158	C	0.884894	0.618116	0.321190
	C159	C	0.113258	0.376483	0.319902
	C160	C	0.378120	0.676746	0.883603
	C161	C	0.619592	0.679161	0.112656
	C162	C	0.617882	0.321292	0.884541
	C163	C	0.379949	0.324486	0.113442
	C164	C	0.677051	0.883729	0.380050
	C165	C	0.677875	0.114357	0.620997
	C166	C	0.324731	0.883721	0.617460
	C167	C	0.322581	0.114859	0.380841
	C168	C	0.879726	0.383408	0.171720
	C169	C	0.119275	0.613848	0.177439
	C170	C	0.119228	0.385565	0.820527
	C171	C	0.878223	0.614445	0.821488
	C172	C	0.178289	0.877460	0.384154
	C173	C	0.177260	0.118987	0.613945
	C174	C	0.822145	0.117579	0.384981
	C175	C	0.826217	0.881189	0.615085
	C176	C	0.384236	0.174508	0.881506
	C177	C	0.615504	0.177576	0.119795
	C178	C	0.383739	0.826648	0.116299
	C179	C	0.614752	0.822810	0.880030
	C180	C	0.384461	0.882713	0.174491
	C181	C	0.614713	0.122626	0.179130
	C182	C	0.385662	0.119233	0.821859
	C183	C	0.615308	0.879027	0.822509
	C184	C	0.880959	0.173810	0.383689
	C185	C	0.120353	0.178247	0.613186
	C186	C	0.120581	0.819795	0.383849
	C187	C	0.882857	0.822525	0.614299
	C188	C	0.175130	0.384781	0.878797
	C189	C	0.175852	0.614737	0.119432
	C190	C	0.823483	0.383442	0.114393
	C191	C	0.821436	0.614631	0.878767
	C192	C	0.401629	0.094800	0.599237
	C193	C	0.601677	0.902831	0.599803
	C194	C	0.599225	0.094757	0.402028
	C195	C	0.402169	0.904198	0.398924
	C196	C	0.599185	0.402404	0.093564
	C197	C	0.597331	0.599670	0.903501
	C198	C	0.399663	0.601727	0.092977
	C199	C	0.398871	0.399661	0.903773
	C200	C	0.095023	0.595885	0.399255
	C201	C	0.904757	0.599336	0.597913
	C202	C	0.094580	0.403142	0.597018
	C203	C	0.903041	0.398368	0.395458
	C204	C	0.900599	0.594604	0.098068
	C205	C	0.099064	0.403487	0.096814
	C206	C	0.097235	0.595968	0.900983
	C207	C	0.899005	0.403321	0.896442
	C208	C	0.101449	0.899399	0.593088
	C209	C	0.099667	0.097843	0.404420
	C210	C	0.901398	0.101292	0.594362
	C211	C	0.900470	0.898349	0.404939
	C212	C	0.595653	0.098104	0.901223
	C213	C	0.404347	0.100988	0.100996
	C214	C	0.594794	0.902967	0.097815
	C215	C	0.404176	0.901278	0.896600
	Zn216	Zn	0.501206	-0.000894	0.748775
	Zn217	Zn	0.500083	0.000373	0.249671
	Zn218	Zn	0.749417	0.499389	-0.002617
	Zn219	Zn	0.248265	0.499970	-0.002083
	Zn220	Zn	0.001092	0.747663	0.498458
	Zn221	Zn	-0.000273	0.250574	0.497519
	Zn222	Zn	-0.000941	0.500093	0.748670
	Zn223	Zn	-0.001307	0.497619	0.247470
	Zn224	Zn	0.498388	0.751682	-0.001632
	Zn225	Zn	0.499650	0.249578	-0.000232
	Zn226	Zn	0.750247	-0.000741	0.500877
	Zn227	Zn	0.251993	-0.001320	0.498843
	N228	N	0.415354	0.962206	0.676607
	N229	N	0.588208	0.035503	0.679321
	N230	N	0.587620	0.963061	0.319668
	N231	N	0.414218	0.037155	0.321980
	N232	N	0.675843	0.414922	0.960881
	N233	N	0.678033	0.586786	0.034790
	N234	N	0.319540	0.586497	0.961699
	N235	N	0.320146	0.414604	0.035320
	N236	N	0.962780	0.674838	0.413303
	N237	N	0.037953	0.675688	0.583602
	N238	N	0.962273	0.324216	0.581195
	N239	N	0.036549	0.321301	0.411839
	N240	N	0.962787	0.414138	0.675988
	N241	N	0.035416	0.588960	0.680198
	N242	N	0.962919	0.584082	0.319636
	N243	N	0.034752	0.409696	0.317139
	N244	N	0.412408	0.679270	0.961240
	N245	N	0.584898	0.680107	0.035162
	N246	N	0.585533	0.320491	0.962620
	N247	N	0.413336	0.322345	0.035782
	N248	N	0.677604	0.961668	0.415279
	N249	N	0.679086	0.036131	0.586775
	N250	N	0.323400	0.961837	0.584289
	N251	N	0.322214	0.036416	0.413471
	N252	N	0.913266	0.461744	0.174448
	N253	N	0.086105	0.535428	0.178231
	N254	N	0.085611	0.463912	0.819602
	N255	N	0.911688	0.536036	0.819079
	N256	N	0.180305	0.911637	0.461740
	N257	N	0.178426	0.083959	0.536598
	N258	N	0.820641	0.085812	0.463322
	N259	N	0.823860	0.914367	0.537523
	N260	N	0.461912	0.175244	0.916065
	N261	N	0.537589	0.178392	0.085719
	N262	N	0.461839	0.825272	0.082950
	N263	N	0.536351	0.821838	0.912333
	N264	N	0.462894	0.915608	0.176755
	N265	N	0.536187	0.089639	0.181404
	N266	N	0.464218	0.086350	0.819952
	N267	N	0.536977	0.912398	0.819479
	N268	N	0.915473	0.176578	0.461195
	N269	N	0.087116	0.179743	0.535122
	N270	N	0.087375	0.818879	0.461402
	N271	N	0.915259	0.819728	0.536263
	N272	N	0.175793	0.463007	0.913367
	N273	N	0.177161	0.536706	0.084591
	N274	N	0.822239	0.461938	0.082034
	N275	N	0.820370	0.536400	0.911414
	O276	O	0.013664	0.035224	0.002895
	H277	H	0.017778	0.039763	0.001300
	H278	H	0.006112	0.031881	0.001374
	O279	O	0.363759	0.490471	0.431889
	H280	H	0.371958	0.475387	0.425255
	H281	H	0.351908	0.493165	0.434708
	O282	O	0.553181	0.572124	0.494327
	H283	H	0.558463	0.571823	0.491808
	H284	H	0.546626	0.580300	0.481348
	O285	O	-0.028111	0.993447	0.972870
	H286	H	-0.027951	0.983776	0.972174
	H287	H	-0.026591	0.987003	0.971048
	O288	O	0.431853	0.487123	0.482251
	H289	H	0.436186	0.488571	0.491290
	H290	H	0.432305	0.478173	0.489031
	O291	O	0.909149	0.989366	1.013513
	H292	H	0.908258	0.982645	1.024091
	H293	H	0.906072	0.979896	1.015850
	O294	O	0.595670	1.450031	0.395234
	H295	H	0.591700	1.458274	0.390440
	H296	H	0.599533	1.464951	0.405147
	O297	O	1.074550	-0.000943	0.943586
	H298	H	1.068949	-0.000666	0.941061
	H299	H	1.056702	0.006062	0.949800
	O300	O	0.374794	0.526981	0.461775
	H301	H	0.380398	0.535124	0.456648
	H302	H	0.371895	0.530478	0.469073
	O303	O	0.955711	-0.005584	-0.044060
	H304	H	0.953923	-0.002886	-0.044698
	H305	H	0.947445	-0.006906	-0.039506
	O306	O	0.001483	0.929921	1.024730
	H307	H	0.013662	0.922154	1.012078
	H308	H	-0.002208	0.936759	1.029354
	O309	O	0.534575	0.446407	0.469414
	H310	H	0.542034	0.446781	0.453918
	H311	H	0.527313	0.448403	0.476310
	O312	O	1.040440	0.016136	1.046750
	H313	H	1.050254	0.017747	1.049445
	H314	H	1.041404	0.016975	1.054903
	O315	O	0.508777	0.501712	0.544489
	H316	H	0.517406	0.504527	0.551381
	H317	H	0.508810	0.503883	0.547931
	O318	O	0.544353	0.509151	0.484391
	H319	H	0.544887	0.506328	0.481237
	H320	H	0.549111	0.516249	0.482380
	O321	O	1.098358	0.998937	1.021397
	H322	H	1.103948	0.989595	1.019568
	H323	H	1.103243	1.000480	1.012251
	O324	O	0.536290	0.584774	0.527591
	H325	H	0.552805	0.585081	0.525529
	H326	H	0.525519	0.594442	0.535957
	O327	O	0.544128	0.554412	0.616924
	H328	H	0.546145	0.556338	0.622263
	H329	H	0.543234	0.556684	0.629281
	O330	O	1.023359	-0.135177	1.039980
	H331	H	1.037309	-0.130267	1.036159
	H332	H	1.031546	-0.145759	1.030299
	O333	O	0.974971	1.015862	0.046489
	H334	H	0.970542	1.019979	0.045660
	H335	H	0.981285	1.027572	0.052041
	O336	O	0.477131	0.542507	0.564096
	H337	H	0.480509	0.542572	0.561178
	H338	H	0.476287	0.542681	0.559266
	O339	O	0.524309	0.510403	0.406375
	H340	H	0.523533	0.493267	0.409274
	H341	H	0.533263	0.505072	0.394244
	O342	O	-0.084452	0.924403	0.007829
	H343	H	-0.091190	0.924165	0.019545
	H344	H	-0.078728	0.918128	0.012597
	O345	O	0.065600	-0.020874	-0.015932
	H346	H	0.067705	-0.019802	-0.022406
	H347	H	0.068346	-0.016030	-0.018462
	O348	O	0.527717	0.394802	0.555277
	H349	H	0.535357	0.399662	0.548077
	H350	H	0.528367	0.403452	0.558803
	O351	O	0.412253	0.457073	0.490805
	H352	H	0.408322	0.457464	0.488150
	H353	H	0.410767	0.454724	0.502555
	O354	O	0.550491	0.518210	0.466554
	H355	H	0.541776	0.505716	0.460574
	H356	H	0.540415	0.512255	0.460803
	O357	O	0.436946	0.568622	0.475313
	H358	H	0.420937	0.569003	0.491455
	H359	H	0.436591	0.562077	0.469095
	O360	O	-0.093289	-0.051519	0.061018
	H361	H	-0.072964	-0.058241	0.061021
	H362	H	-0.107235	-0.051021	0.068047
	O363	O	0.595920	0.574933	0.545788
	H364	H	0.595184	0.568218	0.543658
	H365	H	0.596811	0.575012	0.539355
	O366	O	0.085284	0.034166	1.026108
	H367	H	0.086929	0.039633	1.034390
	H368	H	0.078740	0.036013	1.012287
	O369	O	0.454374	0.478981	0.508536
	H370	H	0.449819	0.477850	0.506398
	H371	H	0.457279	0.484461	0.517848
