data_Molecule from HDF5

_cell_length_a		16.467716
_cell_length_b		16.581606
_cell_length_c		16.513329
_cell_angle_alpha	89.903591
_cell_angle_beta	89.879476
_cell_angle_gamma	89.853912
_symmetry_space_group_name_H-M	'P 1'
_symmetry_Int_Tables_number		1

loop_
	_symmetry_equiv_pos_as_xyz
	x,y,z

loop_
	_atom_site_label
	_atom_site_type_symbol
	_atom_site_fract_x
	_atom_site_fract_y
	_atom_site_fract_z
	H0	H	0.424102	0.861626	0.708218
	H1	H	0.632318	0.175771	0.709897
	H2	H	0.634886	0.862263	0.264878
	H3	H	0.423205	0.176031	0.267480
	H4	H	0.747363	0.416659	0.831383
	H5	H	0.747233	0.625636	0.146066
	H6	H	0.301937	0.627073	0.833184
	H7	H	0.306510	0.415625	0.146773
	H8	H	0.867501	0.741090	0.382837
	H9	H	0.183101	0.739925	0.593065
	H10	H	0.868937	0.298614	0.593941
	H11	H	0.182105	0.297946	0.382896
	H12	H	0.868819	0.415660	0.709877
	H13	H	0.183449	0.624364	0.709440
	H14	H	0.866991	0.624637	0.268018
	H15	H	0.183212	0.415899	0.268327
	H16	H	0.418349	0.744162	0.833005
	H17	H	0.630340	0.740746	0.146358
	H18	H	0.632728	0.298405	0.832122
	H19	H	0.421490	0.297716	0.144747
	H20	H	0.749849	0.862167	0.382163
	H21	H	0.747519	0.176556	0.590762
	H22	H	0.306265	0.862284	0.593275
	H23	H	0.304363	0.175461	0.382738
	H24	H	0.923397	0.361990	0.208400
	H25	H	0.129884	0.676737	0.209753
	H26	H	0.129273	0.362631	0.769391
	H27	H	0.921964	0.677846	0.768986
	H28	H	0.246625	0.915699	0.330302
	H29	H	0.244717	0.120613	0.646698
	H30	H	0.808271	0.123204	0.329530
	H31	H	0.807329	0.916901	0.646843
	H32	H	0.370683	0.242511	0.881057
	H33	H	0.684410	0.239380	0.091534
	H34	H	0.367871	0.800652	0.091910
	H35	H	0.684544	0.798890	0.885256
	H36	H	0.369675	0.913667	0.210631
	H37	H	0.684709	0.122650	0.207314
	H38	H	0.369710	0.123098	0.768059
	H39	H	0.687103	0.917610	0.771608
	H40	H	0.921340	0.241726	0.331617
	H41	H	0.129957	0.238971	0.645658
	H42	H	0.130554	0.799652	0.329975
	H43	H	0.922734	0.799788	0.646806
	H44	H	0.246195	0.362214	0.885830
	H45	H	0.246934	0.676449	0.093395
	H46	H	0.807259	0.361906	0.091073
	H47	H	0.806196	0.678099	0.887108
	H48	H	0.443658	0.128550	0.577175
	H49	H	0.621477	0.905696	0.578631
	H50	H	0.617661	0.130667	0.398244
	H51	H	0.438046	0.907508	0.401686
	H52	H	0.615745	0.428476	0.102294
	H53	H	0.618663	0.605240	0.876825
	H54	H	0.441776	0.616802	0.101486
	H55	H	0.434934	0.433115	0.875402
	H56	H	0.139536	0.612910	0.398941
	H57	H	0.915460	0.603338	0.574664
	H58	H	0.140622	0.425521	0.578510
	H59	H	0.911752	0.428716	0.400443
	H60	H	0.138044	0.430831	0.573615
	H61	H	0.910615	0.608947	0.585024
	H62	H	0.136880	0.607467	0.401219
	H63	H	0.913228	0.432067	0.401862
	H64	H	0.428283	0.608748	0.103410
	H65	H	0.609574	0.607301	0.878817
	H66	H	0.615745	0.429064	0.101761
	H67	H	0.440229	0.432720	0.877725
	H68	H	0.616891	0.131437	0.396038
	H69	H	0.613505	0.906968	0.582139
	H70	H	0.432113	0.131207	0.572593
	H71	H	0.437164	0.906952	0.398251
	H72	H	0.929272	0.634550	0.079213
	H73	H	0.112959	0.409086	0.074819
	H74	H	0.114194	0.631826	0.899182
	H75	H	0.938985	0.410256	0.902711
	H76	H	0.116591	0.922307	0.603592
	H77	H	0.120707	0.111876	0.373027
	H78	H	0.938922	0.104949	0.598150
	H79	H	0.939694	0.934436	0.377236
	H80	H	0.639544	0.105588	0.894841
	H81	H	0.417064	0.103961	0.072446
	H82	H	0.635821	0.928394	0.066628
	H83	H	0.413363	0.931751	0.897989
	H84	H	0.637557	0.938305	0.080280
	H85	H	0.412797	0.106374	0.083181
	H86	H	0.641865	0.114022	0.898436
	H87	H	0.412950	0.929785	0.898281
	H88	H	0.940492	0.111384	0.600778
	H89	H	0.116152	0.102966	0.377053
	H90	H	0.120988	0.932334	0.601281
	H91	H	0.941336	0.925847	0.375559
	H92	H	0.112753	0.631391	0.901282
	H93	H	0.122057	0.406327	0.078480
	H94	H	0.942051	0.632433	0.084677
	H95	H	0.931845	0.406586	0.899507
	H96	H	0.434696	0.134024	0.584512
	H97	H	0.614826	0.909415	0.574101
	H98	H	0.615231	0.130438	0.397563
	H99	H	0.440207	0.908272	0.398793
	H100	H	0.615030	0.428705	0.101408
	H101	H	0.615437	0.613949	0.875512
	H102	H	0.441198	0.601935	0.097194
	H103	H	0.437782	0.428151	0.874971
	H104	H	0.139157	0.607812	0.395198
	H105	H	0.912301	0.615823	0.574259
	H106	H	0.139440	0.432667	0.580920
	H107	H	0.912387	0.431473	0.398004
	H108	H	0.938866	0.628490	0.071057
	H109	H	0.114010	0.405855	0.084428
	H110	H	0.115305	0.631009	0.900849
	H111	H	0.939522	0.406889	0.894692
	H112	H	0.109824	0.929710	0.598372
	H113	H	0.109827	0.112110	0.376214
	H114	H	0.934030	0.108613	0.601889
	H115	H	0.933500	0.929066	0.374465
	H116	H	0.638812	0.107731	0.903830
	H117	H	0.412216	0.114394	0.074484
	H118	H	0.643443	0.922400	0.080695
	H119	H	0.413964	0.930522	0.899684
	C120	C	0.405591	0.027495	0.609814
	C121	C	0.648548	1.011015	0.609429
	C122	C	0.649231	0.027180	0.365320
	C123	C	0.405727	1.010679	0.367081
	C124	C	0.647836	0.398104	-0.002475
	C125	C	0.646574	0.640818	0.980865
	C126	C	0.403841	0.642035	-0.002544
	C127	C	0.405823	0.398887	0.979991
	C128	C	0.034020	0.641268	0.366613
	C129	C	1.017437	0.640544	0.609306
	C130	C	0.034735	0.398521	0.609727
	C131	C	1.016643	0.398694	0.367996
	C132	C	0.904865	0.527940	0.109956
	C133	C	0.147775	0.511009	0.110928
	C134	C	0.146757	0.528106	0.868261
	C135	C	0.904266	0.511706	0.867062
	C136	C	0.147592	0.897039	0.496677
	C137	C	0.147064	0.140205	0.479918
	C138	C	0.905456	0.140942	0.496631
	C139	C	0.905625	0.898060	0.480056
	C140	C	0.536039	0.141137	0.866684
	C141	C	0.518562	0.139545	0.108238
	C142	C	0.534774	0.898199	0.108830
	C143	C	0.518151	0.898412	0.867221
	C144	C	0.404741	0.909092	0.669029
	C145	C	0.650555	0.129118	0.669124
	C146	C	0.652490	0.909434	0.305137
	C147	C	0.404153	0.128875	0.307342
	C148	C	0.707832	0.397440	0.878845
	C149	C	0.706882	0.643501	0.099056
	C150	C	0.342498	0.645225	0.879829
	C151	C	0.345970	0.396826	0.098863
	C152	C	0.915007	0.701429	0.364426
	C153	C	0.135888	0.700288	0.611427
	C154	C	0.916178	0.338720	0.612323
	C155	C	0.135304	0.338497	0.365121
	C156	C	0.915900	0.396989	0.669730
	C157	C	0.135822	0.642777	0.669307
	C158	C	0.914606	0.643329	0.307455
	C159	C	0.135775	0.397065	0.308211
	C160	C	0.400053	0.703514	0.879893
	C161	C	0.648739	0.700950	0.098926
	C162	C	0.651000	0.338524	0.879134
	C163	C	0.403135	0.338055	0.097869
	C164	C	0.709814	0.909329	0.363590
	C165	C	0.707869	0.129489	0.610207
	C166	C	0.346402	0.909300	0.611439
	C167	C	0.345183	0.128651	0.364658
	C168	C	0.904429	0.409150	0.168453
	C169	C	0.148756	0.629410	0.170043
	C170	C	0.148368	0.409771	0.809050
	C171	C	0.902775	0.630437	0.808425
	C172	C	0.207078	0.896553	0.377829
	C173	C	0.205670	0.140464	0.598883
	C174	C	0.846907	0.142393	0.377497
	C175	C	0.846630	0.897691	0.599221
	C176	C	0.417803	0.201845	0.863423
	C177	C	0.637246	0.199138	0.110098
	C178	C	0.415476	0.839623	0.111152
	C179	C	0.637269	0.838860	0.866195
	C180	C	0.416572	0.895749	0.170142
	C181	C	0.637340	0.141198	0.167532
	C182	C	0.417320	0.142774	0.807010
	C183	C	0.638666	0.897953	0.809871
	C184	C	0.903268	0.201225	0.378528
	C185	C	0.148585	0.199135	0.598529
	C186	C	0.149338	0.838769	0.377639
	C187	C	0.904163	0.839416	0.599138
	C188	C	0.206212	0.409574	0.867080
	C189	C	0.207060	0.629243	0.112173
	C190	C	0.846761	0.409045	0.110248
	C191	C	0.845337	0.630583	0.867184
	C192	C	0.429946	0.109868	0.585125
	C193	C	0.623812	0.928929	0.585176
	C194	C	0.623953	0.109291	0.390231
	C195	C	0.431030	0.929047	0.392327
	C196	C	0.622777	0.421964	0.080264
	C197	C	0.621795	0.615921	0.898450
	C198	C	0.429641	0.616575	0.079326
	C199	C	0.430628	0.424193	0.897504
	C200	C	0.116740	0.616504	0.391232
	C201	C	0.934610	0.616202	0.584843
	C202	C	0.117590	0.422838	0.584893
	C203	C	0.934051	0.423590	0.392838
	C204	C	0.929445	0.610380	0.085242
	C205	C	0.123322	0.428475	0.086414
	C206	C	0.121450	0.610161	0.893109
	C207	C	0.929453	0.429280	0.891885
	C208	C	0.122888	0.921158	0.579643
	C209	C	0.122527	0.115972	0.397120
	C210	C	0.930596	0.115560	0.578907
	C211	C	0.930873	0.922744	0.397306
	C212	C	0.618800	0.116249	0.891781
	C213	C	0.435673	0.115272	0.083589
	C214	C	0.617486	0.922569	0.083138
	C215	C	0.435132	0.923394	0.891684
	Zn216	Zn	0.527399	0.019162	0.738872
	Zn217	Zn	0.526931	0.018515	0.237272
	Zn218	Zn	0.775654	0.520055	-0.010654
	Zn219	Zn	0.276433	0.519862	-0.010909
	Zn220	Zn	0.026133	0.768855	0.487981
	Zn221	Zn	0.026171	0.269696	0.488712
	Zn222	Zn	0.025866	0.520104	0.738210
	Zn223	Zn	0.025396	0.519693	0.239456
	Zn224	Zn	0.525877	0.770044	-0.011422
	Zn225	Zn	0.526713	0.269412	-0.012005
	Zn226	Zn	0.777258	0.019514	0.487400
	Zn227	Zn	0.276417	0.018739	0.488419
	N228	N	0.440928	0.983603	0.668176
	N229	N	0.614654	0.054464	0.668912
	N230	N	0.615644	0.983834	0.305989
	N231	N	0.441165	0.054618	0.308660
	N232	N	0.706143	0.433609	0.953531
	N233	N	0.705671	0.606633	0.024726
	N234	N	0.344871	0.607763	0.953908
	N235	N	0.347402	0.433821	0.024399
	N236	N	0.990213	0.700320	0.400558
	N237	N	0.061147	0.699102	0.574952
	N238	N	0.991152	0.339287	0.575952
	N239	N	0.060257	0.339293	0.401530
	N240	N	0.990783	0.433343	0.668305
	N241	N	0.061019	0.606462	0.668219
	N242	N	0.989557	0.606870	0.308377
	N243	N	0.060946	0.433584	0.309826
	N244	N	0.437450	0.701744	0.954031
	N245	N	0.611878	0.699365	0.024411
	N246	N	0.614637	0.338656	0.953946
	N247	N	0.439368	0.338981	0.022840
	N248	N	0.708219	0.983680	0.400164
	N249	N	0.706719	0.055118	0.573843
	N250	N	0.346654	0.983964	0.575346
	N251	N	0.346112	0.054259	0.401107
	N252	N	0.939515	0.484202	0.168604
	N253	N	0.112839	0.554679	0.169536
	N254	N	0.112240	0.484603	0.809384
	N255	N	0.938403	0.555434	0.808170
	N256	N	0.206393	0.931949	0.453095
	N257	N	0.204988	0.104634	0.523982
	N258	N	0.847951	0.105548	0.452127
	N259	N	0.847289	0.933287	0.523978
	N260	N	0.492635	0.200756	0.899846
	N261	N	0.562154	0.198336	0.074093
	N262	N	0.489964	0.841036	0.073921
	N263	N	0.561193	0.838460	0.900445
	N264	N	0.491957	0.931218	0.169093
	N265	N	0.562638	0.104644	0.166482
	N266	N	0.491884	0.105762	0.808805
	N267	N	0.563273	0.933905	0.810063
	N268	N	0.938615	0.200586	0.453708
	N269	N	0.113137	0.199259	0.523357
	N270	N	0.113219	0.838909	0.452487
	N271	N	0.939563	0.839210	0.523813
	N272	N	0.205555	0.484204	0.903060
	N273	N	0.206564	0.554540	0.076278
	N274	N	0.846697	0.484087	0.074902
	N275	N	0.845912	0.555596	0.902601
	O276	O	0.732902	0.315174	0.281228
	H277	H	0.749665	0.304041	0.288678
	H278	H	0.681231	0.310608	0.279949
	O279	O	-0.056483	-0.173195	0.908690
	H280	H	-0.045784	-0.179251	0.898431
	H281	H	-0.033648	-0.167301	0.904315
	O282	O	0.739181	0.392517	0.503750
	H283	H	0.739149	0.408084	0.505966
	H284	H	0.755544	0.387659	0.497772
	O285	O	0.659130	0.403246	0.398040
	H286	H	0.653638	0.397032	0.377338
	H287	H	0.663586	0.393868	0.394194
	O288	O	1.003264	-0.195941	1.197868
	H289	H	0.973206	-0.199864	1.193630
	H290	H	0.994104	-0.207155	1.215785
	O291	O	0.211124	1.206140	-0.198138
	H292	H	0.198902	1.189369	-0.173425
	H293	H	0.190916	1.196028	-0.187423
	O294	O	0.195437	-0.014853	0.002341
	H295	H	0.204986	-0.014460	0.027263
	H296	H	0.183904	-0.025122	0.005563
	O297	O	0.396051	0.661933	1.608379
	H298	H	0.372719	0.656641	1.596958
	H299	H	0.406943	0.646675	1.586964
	O300	O	0.116878	-0.096741	0.184972
	H301	H	0.099462	-0.086959	0.183956
	H302	H	0.094769	-0.103827	0.186090
	O303	O	0.018550	0.045123	0.063173
	H304	H	0.018644	0.021749	0.062305
	H305	H	0.017576	0.043905	0.075065
	O306	O	0.824806	-0.014765	-0.102366
	H307	H	0.835876	-0.005388	-0.107712
	H308	H	0.827184	-0.009384	-0.099298
	O309	O	0.558442	0.667567	0.341513
	H310	H	0.567231	0.668238	0.362530
	H311	H	0.564211	0.673077	0.343609
	O312	O	0.465810	0.465416	0.456512
	H313	H	0.462030	0.459517	0.445780
	H314	H	0.463695	0.462711	0.459804
	O315	O	0.241890	0.835364	0.202798
	H316	H	0.235043	0.860140	0.188920
	H317	H	0.241112	0.842641	0.205071
	O318	O	0.313698	0.379017	-0.297712
	H319	H	0.305192	0.378722	-0.311239
	H320	H	0.292823	0.352917	-0.277327
	O321	O	0.621130	0.581228	0.454842
	H322	H	0.631961	0.598892	0.458378
	H323	H	0.607494	0.576281	0.440934
	O324	O	1.504074	-0.536304	0.350445
	H325	H	1.494412	-0.540475	0.360975
	H326	H	1.498885	-0.526987	0.347021
	O327	O	0.490717	0.414050	0.533005
	H328	H	0.491445	0.409916	0.537616
	H329	H	0.498836	0.414197	0.520554
	O330	O	-0.046260	1.220245	0.043440
	H331	H	-0.056693	1.216731	0.021138
	H332	H	-0.042238	1.224083	0.024789
	O333	O	0.233532	-0.020148	0.779642
	H334	H	0.235665	0.001433	0.779539
	H335	H	0.238550	0.000700	0.779125
	O336	O	0.537061	0.665240	0.410282
	H337	H	0.557875	0.669578	0.409012
	H338	H	0.526860	0.664095	0.420272
	O339	O	0.684672	0.470109	0.500827
	H340	H	0.695459	0.476509	0.505946
	H341	H	0.669172	0.477341	0.496044
	O342	O	-0.066851	0.981950	-0.218028
	H343	H	-0.047597	0.963263	-0.220333
	H344	H	-0.052993	0.976346	-0.215572
	O345	O	1.236190	1.079431	-0.072257
	H346	H	1.238736	1.089898	-0.049171
	H347	H	1.242390	1.073175	-0.049560
	O348	O	0.403616	0.633697	0.435928
	H349	H	0.416774	0.637003	0.438768
	H350	H	0.394617	0.647821	0.450581
	O351	O	-0.273495	-0.278303	0.687236
	H352	H	-0.292553	-0.305772	0.691055
	H353	H	-0.291129	-0.256897	0.707301
	O354	O	0.938617	-0.002554	0.999900
	H355	H	0.940234	-0.001359	0.997580
	H356	H	0.934001	-0.002990	1.001770
	O357	O	0.063220	0.229897	1.201031
	H358	H	0.038756	0.228360	1.195197
	H359	H	0.045065	0.236672	1.208331
	O360	O	-0.268238	0.298569	0.693786
	H361	H	-0.287175	0.321136	0.680108
	H362	H	-0.287157	0.301246	0.676524
	O363	O	0.507861	0.304736	0.705282
	H364	H	0.498291	0.283720	0.727251
	H365	H	0.494958	0.311664	0.696625
	O366	O	1.307239	0.299232	0.517562
	H367	H	1.300905	0.296270	0.517887
	H368	H	1.290930	0.295430	0.521699
	O369	O	-0.306650	-0.446192	0.474509
	H370	H	-0.315053	-0.434420	0.472867
	H371	H	-0.306476	-0.447327	0.471813
	O372	O	-0.114137	1.193622	0.912179
	H373	H	-0.128692	1.202761	0.899907
	H374	H	-0.126100	1.205909	0.894049
	O375	O	0.873891	0.174141	0.186170
	H376	H	0.874702	0.173003	0.192511
	H377	H	0.880077	0.176679	0.161657
	O378	O	0.564561	0.665529	0.360639
	H379	H	0.576687	0.669307	0.379765
	H380	H	0.578293	0.676910	0.356370
	O381	O	-0.254836	0.485576	-0.731161
	H382	H	-0.254955	0.460220	-0.737792
	H383	H	-0.234520	0.475695	-0.749076
	O384	O	0.560668	0.738267	0.707121
	H385	H	0.553213	0.752450	0.741576
	H386	H	0.533245	0.710221	0.712396
	O387	O	0.403119	0.441686	0.694713
	H388	H	0.404692	0.421076	0.680629
	H389	H	0.387095	0.427678	0.703072
	O390	O	-0.006802	1.226885	0.782412
	H391	H	-0.038217	1.238172	0.775829
	H392	H	-0.023322	1.239888	0.778287
	O393	O	1.338497	0.332905	0.306461
	H394	H	1.360094	0.348913	0.323464
	H395	H	1.356985	0.347506	0.326555
	O396	O	-0.170231	-0.176278	0.010533
	H397	H	-0.146349	-0.183627	0.006271
	H398	H	-0.180835	-0.172164	-0.002784
	O399	O	0.076375	0.796684	1.034504
	H400	H	0.075313	0.799523	1.041092
	H401	H	0.073451	0.795082	1.035773
	O402	O	1.243898	0.051528	1.201978
	H403	H	1.260500	0.076641	1.215919
	H404	H	1.242192	0.072200	1.212000
	O405	O	0.748053	0.744032	0.520655
	H406	H	0.756298	0.750289	0.546968
	H407	H	0.766706	0.761983	0.538246
	O408	O	1.079320	1.231388	0.971815
	H409	H	1.085361	1.232449	0.979427
	H410	H	1.086534	1.233598	0.965358
	O411	O	0.315401	0.692697	0.561056
	H412	H	0.303701	0.711478	0.552186
	H413	H	0.313391	0.704397	0.551007
	O414	O	-0.016231	0.044474	0.132114
	H415	H	-0.026424	0.064487	0.129804
	H416	H	-0.003856	0.055178	0.132643
	O417	O	0.743850	0.558008	0.706282
	H418	H	0.759480	0.573337	0.725876
	H419	H	0.745093	0.551388	0.706773
	O420	O	0.863558	0.209039	0.827693
	H421	H	0.848116	0.186787	0.811666
	H422	H	0.842757	0.209096	0.802364
	O423	O	1.320893	1.582561	0.340490
	H424	H	1.308413	1.574131	0.321510
	H425	H	1.336735	1.598295	0.335670
	O426	O	0.058004	1.052559	0.772026
	H427	H	0.057338	1.056662	0.785310
	H428	H	0.053778	1.063913	0.766885
	O429	O	0.563509	0.319613	0.490994
	H430	H	0.557792	0.326261	0.505213
	H431	H	0.580026	0.322674	0.496820
	O432	O	1.232382	0.222039	1.190332
	H433	H	1.211730	0.240698	1.209074
	H434	H	1.223061	0.237613	1.210975
	O435	O	0.351655	0.530329	0.507711
	H436	H	0.340536	0.544497	0.498329
	H437	H	0.348509	0.536666	0.516184
	O438	O	0.357581	0.647217	0.367232
	H439	H	0.358912	0.660009	0.361790
	H440	H	0.342746	0.663858	0.357663
	O441	O	0.545155	0.444317	0.652137
	H442	H	0.546421	0.446017	0.655485
	H443	H	0.544986	0.443443	0.642124
	O444	O	1.221918	-0.182398	-0.208989
	H445	H	1.240279	-0.195655	-0.193735
	H446	H	1.228585	-0.131172	-0.216778
	O447	O	0.582012	-0.371007	1.466769
	H448	H	0.590781	-0.355168	1.475613
	H449	H	0.594223	-0.363899	1.470001
	O450	O	0.421996	0.498896	0.297916
	H451	H	0.406964	0.504982	0.289533
	H452	H	0.430415	0.511312	0.303375
	O453	O	0.320801	0.581363	0.698230
	H454	H	0.319316	0.570515	0.694301
	H455	H	0.324551	0.565857	0.698944
	O456	O	-0.160456	0.826240	1.172870
	H457	H	-0.180558	0.831681	1.179307
	H458	H	-0.157841	0.831905	1.140343
	O459	O	0.839520	1.042141	0.807048
	H460	H	0.842847	1.029979	0.808207
	H461	H	0.842955	1.022405	0.793416
	O462	O	0.539435	0.305943	0.346728
	H463	H	0.535428	0.305165	0.339477
	H464	H	0.531903	0.316857	0.366674
	O465	O	0.819851	-0.010145	1.199654
	H466	H	0.799404	-0.020946	1.205036
	H467	H	0.809805	0.002156	1.198512
	O468	O	-0.759387	0.221612	0.011030
	H469	H	-0.752826	0.238008	0.026209
	H470	H	-0.751441	0.227452	0.045670
	O471	O	-0.103177	0.030795	0.995923
	H472	H	-0.109650	0.052166	0.999804
	H473	H	-0.096764	0.030449	0.991121
	O474	O	1.055151	0.804140	-0.221712
	H475	H	1.071136	0.782225	-0.242872
	H476	H	1.088026	0.806515	-0.221101
	O477	O	0.230978	0.806776	0.960805
	H478	H	0.241896	0.794442	0.959161
	H479	H	0.235607	0.805349	0.958777
