data_Molecule from HDF5

_cell_length_a		16.267853
_cell_length_b		16.297813
_cell_length_c		16.497945
_cell_angle_alpha	89.993289
_cell_angle_beta	90.057057
_cell_angle_gamma	89.960469
_symmetry_space_group_name_H-M	'P 1'
_symmetry_Int_Tables_number		1

loop_
	_symmetry_equiv_pos_as_xyz
	x,y,z

loop_
	_atom_site_label
	_atom_site_type_symbol
	_atom_site_fract_x
	_atom_site_fract_y
	_atom_site_fract_z
	H0	H	0.400447	0.829366	0.722038
	H1	H	0.610238	0.148645	0.723423
	H2	H	0.612025	0.830055	0.281477
	H3	H	0.398238	0.149130	0.280351
	H4	H	0.726473	0.387158	0.841992
	H5	H	0.728720	0.594657	0.160300
	H6	H	0.287602	0.591922	0.843039
	H7	H	0.285465	0.384122	0.160169
	H8	H	0.843171	0.706640	0.400507
	H9	H	0.166052	0.709077	0.604907
	H10	H	0.842492	0.273356	0.604492
	H11	H	0.165984	0.269431	0.400744
	H12	H	0.846077	0.384736	0.723817
	H13	H	0.166285	0.594535	0.721583
	H14	H	0.846302	0.596499	0.280036
	H15	H	0.165989	0.382613	0.282935
	H16	H	0.403385	0.708572	0.843123
	H17	H	0.612555	0.710671	0.160698
	H18	H	0.612000	0.268135	0.842644
	H19	H	0.401738	0.267708	0.159587
	H20	H	0.723141	0.828222	0.401686
	H21	H	0.720786	0.150951	0.603837
	H22	H	0.289867	0.826947	0.602110
	H23	H	0.285118	0.150429	0.398679
	H24	H	0.897518	0.331785	0.225611
	H25	H	0.114370	0.647882	0.224790
	H26	H	0.117851	0.331472	0.777686
	H27	H	0.898672	0.648129	0.778250
	H28	H	0.226296	0.884258	0.344120
	H29	H	0.227916	0.094953	0.661278
	H30	H	0.781324	0.097067	0.346594
	H31	H	0.783336	0.884092	0.661743
	H32	H	0.345940	0.210880	0.896924
	H33	H	0.665755	0.211289	0.107096
	H34	H	0.345721	0.769728	0.105768
	H35	H	0.666817	0.770644	0.899040
	H36	H	0.346780	0.883200	0.223823
	H37	H	0.663278	0.100438	0.227653
	H38	H	0.345560	0.096158	0.781760
	H39	H	0.663230	0.879602	0.778314
	H40	H	0.897245	0.212626	0.345987
	H41	H	0.112196	0.212256	0.660996
	H42	H	0.110630	0.766992	0.344438
	H43	H	0.898634	0.766096	0.660457
	H44	H	0.227189	0.328841	0.898851
	H45	H	0.225028	0.650025	0.104383
	H46	H	0.785930	0.330731	0.105428
	H47	H	0.784172	0.649339	0.894247
	H48	H	0.412570	0.104556	0.590368
	H49	H	0.601231	0.871103	0.592184
	H50	H	0.589519	0.104556	0.409843
	H51	H	0.410066	0.872509	0.411080
	H52	H	0.595268	0.396018	0.114642
	H53	H	0.601570	0.580644	0.887095
	H54	H	0.418779	0.577861	0.114729
	H55	H	0.418237	0.401710	0.889503
	H56	H	0.121234	0.579815	0.410262
	H57	H	0.889369	0.579160	0.596381
	H58	H	0.116390	0.405584	0.583966
	H59	H	0.893707	0.405389	0.416723
	H60	H	0.121023	0.404760	0.598070
	H61	H	0.891091	0.579307	0.587423
	H62	H	0.119537	0.580098	0.415394
	H63	H	0.889656	0.404777	0.407978
	H64	H	0.417650	0.582775	0.115691
	H65	H	0.593447	0.576186	0.891281
	H66	H	0.600202	0.404723	0.114120
	H67	H	0.417840	0.397926	0.888238
	H68	H	0.590198	0.101730	0.416773
	H69	H	0.588275	0.873038	0.599776
	H70	H	0.415804	0.106283	0.597437
	H71	H	0.420920	0.874728	0.406497
	H72	H	0.911754	0.606555	0.091563
	H73	H	0.096124	0.374135	0.091174
	H74	H	0.088832	0.601558	0.910374
	H75	H	0.918760	0.374863	0.908993
	H76	H	0.097574	0.903542	0.614292
	H77	H	0.093957	0.077739	0.391276
	H78	H	0.910092	0.079393	0.618422
	H79	H	0.916896	0.900423	0.391087
	H80	H	0.620316	0.078785	0.914044
	H81	H	0.393050	0.079420	0.086057
	H82	H	0.618869	0.904681	0.090228
	H83	H	0.387218	0.897020	0.904112
	H84	H	0.622274	0.901715	0.097232
	H85	H	0.393559	0.072525	0.091735
	H86	H	0.619123	0.074364	0.913147
	H87	H	0.390947	0.894226	0.920260
	H88	H	0.916918	0.076548	0.615386
	H89	H	0.093023	0.079335	0.390640
	H90	H	0.091413	0.898530	0.614676
	H91	H	0.914771	0.898459	0.390410
	H92	H	0.097854	0.602601	0.918090
	H93	H	0.095048	0.374265	0.095038
	H94	H	0.922699	0.605299	0.097912
	H95	H	0.922470	0.378609	0.913967
	H96	H	0.419985	0.103199	0.592424
	H97	H	0.589967	0.878262	0.585517
	H98	H	0.595656	0.104990	0.413844
	H99	H	0.418289	0.877716	0.417539
	H100	H	0.590071	0.403857	0.110925
	H101	H	0.592645	0.585642	0.887511
	H102	H	0.413362	0.579383	0.117500
	H103	H	0.415253	0.400508	0.887733
	H104	H	0.119084	0.575551	0.413034
	H105	H	0.892233	0.572076	0.592190
	H106	H	0.123018	0.392721	0.589689
	H107	H	0.889688	0.396576	0.414045
	H108	H	0.922424	0.601469	0.086298
	H109	H	0.092361	0.375645	0.092345
	H110	H	0.099138	0.606591	0.906973
	H111	H	0.916066	0.376485	0.915137
	H112	H	0.098422	0.896527	0.617909
	H113	H	0.094659	0.078733	0.390447
	H114	H	0.916256	0.083746	0.617756
	H115	H	0.913742	0.901327	0.390853
	H116	H	0.620874	0.077113	0.910102
	H117	H	0.389537	0.079993	0.094283
	H118	H	0.621295	0.896610	0.090413
	H119	H	0.394273	0.909954	0.913859
	C120	C	0.384041	-0.001778	0.623746
	C121	C	0.625193	0.980302	0.624034
	C122	C	0.625453	-0.002042	0.381675
	C123	C	0.384291	0.981177	0.380678
	C124	C	0.627716	0.368759	0.009149
	C125	C	0.628955	0.612582	0.993555
	C126	C	0.384930	0.611203	0.010966
	C127	C	0.384821	0.367775	0.993092
	C128	C	0.014117	0.610450	0.381303
	C129	C	0.996840	0.609878	0.623187
	C130	C	0.014016	0.369093	0.623232
	C131	C	0.996784	0.368854	0.381436
	C132	C	0.885399	0.499070	0.123600
	C133	C	0.127394	0.480219	0.124172
	C134	C	0.128587	0.498028	0.879830
	C135	C	0.886250	0.481829	0.880537
	C136	C	0.127481	0.867160	0.511007
	C137	C	0.126971	0.111168	0.495022
	C138	C	0.882248	0.112031	0.512463
	C139	C	0.882598	0.867400	0.494808
	C140	C	0.514129	0.109942	0.880730
	C141	C	0.497469	0.111035	0.123536
	C142	C	0.515118	0.868681	0.123943
	C143	C	0.496755	0.868226	0.880993
	C144	C	0.382105	0.877022	0.682084
	C145	C	0.627637	0.100874	0.683253
	C146	C	0.629408	0.877976	0.321553
	C147	C	0.380970	0.101545	0.320857
	C148	C	0.687268	0.367631	0.889595
	C149	C	0.689059	0.613948	0.112652
	C150	C	0.326124	0.611761	0.891122
	C151	C	0.325204	0.365556	0.112482
	C152	C	0.892260	0.668806	0.380597
	C153	C	0.117752	0.669933	0.624246
	C154	C	0.891949	0.311161	0.624369
	C155	C	0.117460	0.308728	0.381090
	C156	C	0.893533	0.366948	0.683393
	C157	C	0.118048	0.612668	0.681954
	C158	C	0.893664	0.613398	0.321145
	C159	C	0.117707	0.365514	0.322619
	C160	C	0.384330	0.669448	0.890955
	C161	C	0.631137	0.671750	0.112838
	C162	C	0.630420	0.308329	0.890207
	C163	C	0.383331	0.307781	0.112222
	C164	C	0.684685	0.877058	0.381454
	C165	C	0.682848	0.102145	0.623718
	C166	C	0.327138	0.876083	0.622311
	C167	C	0.324581	0.102021	0.379693
	C168	C	0.880591	0.379528	0.184623
	C169	C	0.131224	0.600240	0.184445
	C170	C	0.133544	0.378611	0.818951
	C171	C	0.881865	0.600996	0.819012
	C172	C	0.186776	0.865550	0.391554
	C173	C	0.187883	0.113411	0.613622
	C174	C	0.821442	0.114685	0.393661
	C175	C	0.822791	0.865107	0.614044
	C176	C	0.393893	0.170825	0.878847
	C177	C	0.617467	0.171771	0.125838
	C178	C	0.394218	0.809032	0.125093
	C179	C	0.617904	0.809263	0.879967
	C180	C	0.394495	0.865781	0.183648
	C181	C	0.616274	0.116311	0.185644
	C182	C	0.393904	0.113914	0.821142
	C183	C	0.616269	0.863678	0.819614
	C184	C	0.879517	0.172222	0.393596
	C185	C	0.130127	0.171820	0.613755
	C186	C	0.129080	0.807224	0.392060
	C187	C	0.880394	0.806623	0.613575
	C188	C	0.188567	0.377391	0.879042
	C189	C	0.186501	0.601440	0.124541
	C190	C	0.824822	0.378913	0.124860
	C191	C	0.824768	0.601605	0.877009
	C192	C	0.408816	0.082571	0.600152
	C193	C	0.600389	0.896050	0.599753
	C194	C	0.599314	0.081847	0.406374
	C195	C	0.409234	0.896964	0.404779
	C196	C	0.602461	0.394312	0.091631
	C197	C	0.603487	0.587914	0.910377
	C198	C	0.409614	0.586902	0.094328
	C199	C	0.409658	0.392959	0.910170
	C200	C	0.098142	0.585662	0.405774
	C201	C	0.912997	0.584270	0.598995
	C202	C	0.098061	0.393894	0.598164
	C203	C	0.912921	0.394841	0.405697
	C204	C	0.911573	0.582741	0.098879
	C205	C	0.101935	0.396453	0.099659
	C206	C	0.102564	0.581653	0.904784
	C207	C	0.911787	0.398233	0.905700
	C208	C	0.102861	0.892163	0.593904
	C209	C	0.101316	0.085757	0.412202
	C210	C	0.907308	0.087034	0.595446
	C211	C	0.907738	0.892758	0.412406
	C212	C	0.598178	0.084200	0.905409
	C213	C	0.413812	0.084917	0.098008
	C214	C	0.599075	0.893861	0.099722
	C215	C	0.412877	0.893343	0.905741
	Zn216	Zn	0.504660	-0.011078	0.752226
	Zn217	Zn	0.505743	-0.010160	0.252443
	Zn218	Zn	0.757244	0.490229	0.000813
	Zn219	Zn	0.255534	0.489444	0.002192
	Zn220	Zn	0.004431	0.738564	0.502403
	Zn221	Zn	0.004898	0.240363	0.503647
	Zn222	Zn	0.006840	0.489402	0.752025
	Zn223	Zn	0.006220	0.490103	0.252491
	Zn224	Zn	0.506430	0.740787	0.002235
	Zn225	Zn	0.506502	0.238510	0.001199
	Zn226	Zn	0.753669	-0.010428	0.503852
	Zn227	Zn	0.256680	-0.010573	0.502271
	N228	N	0.416663	0.953855	0.683132
	N229	N	0.592505	0.024019	0.683626
	N230	N	0.593629	0.954413	0.321362
	N231	N	0.417255	0.025277	0.321378
	N232	N	0.686007	0.404232	0.964589
	N233	N	0.687959	0.578028	0.037349
	N234	N	0.326391	0.576280	0.966746
	N235	N	0.325877	0.402128	0.037428
	N236	N	0.968085	0.666845	0.417617
	N237	N	0.041570	0.668336	0.588374
	N238	N	0.967959	0.312367	0.587734
	N239	N	0.041167	0.310457	0.416811
	N240	N	0.970515	0.401767	0.683067
	N241	N	0.041900	0.576268	0.681558
	N242	N	0.970363	0.578145	0.321204
	N243	N	0.041564	0.401981	0.322565
	N244	N	0.419956	0.669436	0.966685
	N245	N	0.594672	0.671128	0.037595
	N246	N	0.594203	0.308895	0.965519
	N247	N	0.419480	0.309107	0.037068
	N248	N	0.682605	0.952902	0.417781
	N249	N	0.681320	0.026217	0.587650
	N250	N	0.328114	0.952515	0.586791
	N251	N	0.326563	0.026180	0.416118
	N252	N	0.917537	0.455240	0.183840
	N253	N	0.095164	0.523916	0.184377
	N254	N	0.096902	0.454667	0.819388
	N255	N	0.919892	0.525705	0.821482
	N256	N	0.186201	0.902128	0.466655
	N257	N	0.185692	0.076192	0.538889
	N258	N	0.823043	0.077808	0.468505
	N259	N	0.823857	0.902196	0.539278
	N260	N	0.469701	0.168153	0.915525
	N261	N	0.542597	0.168279	0.087618
	N262	N	0.470047	0.810616	0.088749
	N263	N	0.542776	0.812194	0.917647
	N264	N	0.470859	0.901902	0.183239
	N265	N	0.540727	0.078972	0.184073
	N266	N	0.469653	0.076533	0.822133
	N267	N	0.539943	0.899961	0.820255
	N268	N	0.916600	0.170847	0.468442
	N269	N	0.092698	0.170483	0.538883
	N270	N	0.093156	0.808005	0.467282
	N271	N	0.916982	0.808079	0.538614
	N272	N	0.185439	0.452564	0.916380
	N273	N	0.184237	0.525785	0.087732
	N274	N	0.827704	0.454353	0.087584
	N275	N	0.827696	0.526688	0.914938
	O276	O	0.340426	0.535605	0.291664
	H277	H	0.325636	0.549946	0.293957
	H278	H	0.328179	0.542664	0.276376
	O279	O	0.428515	0.358292	0.478520
	H280	H	0.423674	0.359848	0.480509
	H281	H	0.427842	0.364980	0.465011
	O282	O	0.601166	0.360945	0.456603
	H283	H	0.588237	0.363127	0.463095
	H284	H	0.608087	0.372387	0.456489
	O285	O	0.825941	-0.014876	0.217678
	H286	H	0.813167	-0.032977	0.235750
	H287	H	0.822897	-0.034909	0.220704
	O288	O	-0.201631	-0.019902	0.863552
	H289	H	-0.209058	-0.022571	0.901601
	H290	H	-0.220840	-0.035170	0.860855
	O291	O	0.354673	0.368406	0.556642
	H292	H	0.365770	0.359793	0.576760
	H293	H	0.343855	0.346020	0.552376
	O294	O	0.428577	0.599173	0.461225
	H295	H	0.434932	0.588197	0.460933
	H296	H	0.430422	0.610925	0.451554
	O297	O	1.171596	0.957528	0.800717
	H298	H	1.169830	0.977529	0.784819
	H299	H	1.169165	0.973141	0.802892
	O300	O	-0.034632	-0.033253	0.140935
	H301	H	-0.033695	-0.037826	0.124862
	H302	H	-0.016495	-0.048808	0.131943
	O303	O	0.341692	0.630725	0.434550
	H304	H	0.332490	0.637257	0.439683
	H305	H	0.345508	0.625111	0.443516
	O306	O	1.071296	0.108147	0.200759
	H307	H	1.089572	0.070799	0.199796
	H308	H	1.057269	0.101624	0.178442
	O309	O	0.178469	-0.200984	0.866263
	H310	H	0.166082	-0.210448	0.858320
	H311	H	0.186633	-0.173774	0.863278
	O312	O	1.018183	0.842680	0.209445
	H313	H	1.018578	0.821002	0.226534
	H314	H	1.026374	0.858580	0.193268
	O315	O	0.002036	0.207719	0.005804
	H316	H	0.000486	0.214510	0.017461
	H317	H	0.004075	0.213240	-0.006046
	O318	O	0.610368	0.507595	0.339322
	H319	H	0.600001	0.488928	0.333073
	H320	H	0.603222	0.504262	0.333661
	O321	O	0.990773	-0.028110	1.053149
	H322	H	0.991905	-0.022309	1.056772
	H323	H	1.007086	-0.028931	1.067172
	O324	O	-0.014781	0.205237	0.786377
	H325	H	-0.065989	0.194517	0.795153
	H326	H	-0.022411	0.235701	0.755867
	O327	O	0.109292	0.025544	-0.184668
	H328	H	0.092891	0.039222	-0.175754
	H329	H	0.096082	0.032039	-0.193420
	O330	O	0.200535	0.185571	0.104480
	H331	H	0.172598	0.178384	0.097522
	H332	H	0.213266	0.205903	0.085499
	O333	O	0.608881	1.636012	0.549393
	H334	H	0.601866	1.636782	0.525635
	H335	H	0.601270	1.618591	0.545186
	O336	O	0.343914	0.374731	0.619148
	H337	H	0.359815	0.373758	0.625659
	H338	H	0.341786	0.379133	0.625615
	O339	O	0.795801	-0.013313	0.992408
	H340	H	0.801252	-0.022919	1.011275
	H341	H	0.794407	0.002299	1.018942
	O342	O	0.589593	1.414936	0.467123
	H343	H	0.588536	1.419538	0.471031
	H344	H	0.581203	1.432788	0.460457
	O345	O	-0.178149	0.848657	1.189260
	H346	H	-0.148115	0.829155	1.181210
	H347	H	-0.183878	0.836729	1.170683
	O348	O	0.572327	0.462038	0.472261
	H349	H	0.566717	0.470122	0.460552
	H350	H	0.578990	0.456045	0.457598
	O351	O	0.205750	0.003916	0.204472
	H352	H	0.189309	0.019324	0.211291
	H353	H	0.225848	0.000012	0.206441
	O354	O	0.826461	1.174163	-0.167745
	H355	H	0.814342	1.161389	-0.143492
	H356	H	0.817985	1.143661	-0.153750
	O357	O	0.620247	1.423455	0.456464
	H358	H	0.628899	1.423826	0.446749
	H359	H	0.613674	1.421631	0.447470
	O360	O	0.485266	0.592072	0.653329
	H361	H	0.485724	0.599527	0.659505
	H362	H	0.502307	0.584900	0.649758
	O363	O	0.067194	0.831823	0.791594
	H364	H	0.069583	0.815700	0.785761
	H365	H	0.061785	0.851341	0.781742
	O366	O	1.646959	1.339481	0.390596
	H367	H	1.649490	1.331447	0.385097
	H368	H	1.660589	1.335060	0.381254
	O369	O	0.397176	0.403659	0.577552
	H370	H	0.388725	0.386538	0.573688
	H371	H	0.399077	0.406582	0.573294
	O372	O	0.543522	0.419556	0.601779
	H373	H	0.549659	0.400049	0.580506
	H374	H	0.549091	0.422564	0.620677
	O375	O	0.542363	0.524322	0.525813
	H376	H	0.538218	0.530389	0.529174
	H377	H	0.540095	0.523790	0.528751
	O378	O	0.807872	0.164168	-0.000072
	H379	H	0.809145	0.160403	0.018739
	H380	H	0.810413	0.172782	0.010777
	O381	O	0.448323	0.592854	0.490555
	H382	H	0.445674	0.601694	0.486240
	H383	H	0.449421	0.599023	0.484529
	O384	O	0.200608	0.989490	0.965619
	H385	H	0.208671	0.982862	0.968675
	H386	H	0.187309	1.001497	0.950805
	O387	O	0.988294	1.143464	-0.006531
	H388	H	0.977889	1.143680	-0.002367
	H389	H	0.983353	1.147841	-0.008347
	O390	O	0.515435	0.388894	0.333961
	H391	H	0.499416	0.384953	0.335272
	H392	H	0.527707	0.380498	0.328178
	O393	O	1.596487	0.523338	1.575332
	H394	H	1.590574	0.514678	1.579543
	H395	H	1.591842	0.528447	1.570039
	O396	O	0.085890	1.007481	0.954162
	H397	H	0.082843	1.022803	0.956882
	H398	H	0.081095	1.000300	0.952212
	O399	O	0.540223	0.645970	0.555555
	H400	H	0.550846	0.657101	0.568879
	H401	H	0.528720	0.657109	0.550018
	O402	O	0.999555	-0.185807	0.934254
	H403	H	1.026031	-0.191477	0.933124
	H404	H	1.010151	-0.171956	0.935812
	O405	O	0.075364	0.056640	-0.010043
	H406	H	0.073993	0.083515	-0.012770
	H407	H	0.067220	0.052079	-0.015570
	O408	O	0.400425	1.616579	1.327809
	H409	H	0.416704	1.628883	1.338601
	H410	H	0.393804	1.610492	1.337962
	O411	O	1.026286	1.204056	0.216142
	H412	H	1.022055	1.190223	0.229764
	H413	H	1.043063	1.219371	0.237303
	O414	O	-0.052294	-0.130392	0.970303
	H415	H	-0.038157	-0.135287	0.969081
	H416	H	-0.043401	-0.129826	0.957346
	O417	O	0.440339	0.539066	0.598814
	H418	H	0.447532	0.535171	0.601599
	H419	H	0.436353	0.528855	0.597950
	O420	O	-0.106175	0.974469	-0.139446
	H421	H	-0.120053	0.976104	-0.149133
	H422	H	-0.106586	0.967740	-0.110750
	O423	O	1.110787	-0.197010	0.101975
	H424	H	1.126971	-0.185837	0.089657
	H425	H	1.113346	-0.188540	0.086286
	O426	O	0.130281	-0.177327	1.068251
	H427	H	0.137902	-0.191851	1.063867
	H428	H	0.135799	-0.178163	1.054636
	O429	O	-0.200523	0.784843	0.063017
	H430	H	-0.181689	0.778376	0.033204
	H431	H	-0.209481	0.757648	0.065910
