data_Molecule from HDF5

_cell_length_a		16.146332
_cell_length_b		16.349782
_cell_length_c		16.186345
_cell_angle_alpha	89.973469
_cell_angle_beta	89.746768
_cell_angle_gamma	90.081801
_symmetry_space_group_name_H-M	'P 1'
_symmetry_Int_Tables_number		1

loop_
	_symmetry_equiv_pos_as_xyz
	x,y,z

loop_
	_atom_site_label
	_atom_site_type_symbol
	_atom_site_fract_x
	_atom_site_fract_y
	_atom_site_fract_z
	H0	H	0.400439	0.837627	0.717741
	H1	H	0.597399	0.164384	0.716140
	H2	H	0.599193	0.837698	0.286923
	H3	H	0.401506	0.164564	0.287381
	H4	H	0.711353	0.405763	0.837331
	H5	H	0.709799	0.596726	0.168595
	H6	H	0.288669	0.597573	0.836554
	H7	H	0.285115	0.404864	0.168267
	H8	H	0.835144	0.716511	0.403232
	H9	H	0.164312	0.714350	0.600111
	H10	H	0.834966	0.285900	0.603490
	H11	H	0.163617	0.286725	0.401619
	H12	H	0.833554	0.404309	0.715011
	H13	H	0.164338	0.598528	0.714580
	H14	H	0.833028	0.597342	0.291815
	H15	H	0.164455	0.404691	0.289487
	H16	H	0.400799	0.717223	0.838930
	H17	H	0.598550	0.716126	0.166771
	H18	H	0.599444	0.287681	0.838463
	H19	H	0.397135	0.285257	0.167447
	H20	H	0.714335	0.837684	0.403848
	H21	H	0.712676	0.164506	0.599212
	H22	H	0.284342	0.837032	0.601087
	H23	H	0.285999	0.165257	0.405054
	H24	H	0.899355	0.337718	0.218454
	H25	H	0.095618	0.665431	0.215366
	H26	H	0.097000	0.337400	0.787503
	H27	H	0.901767	0.664333	0.790638
	H28	H	0.212089	0.906430	0.336879
	H29	H	0.212460	0.098733	0.668135
	H30	H	0.789034	0.097041	0.336718
	H31	H	0.787331	0.905429	0.667497
	H32	H	0.334852	0.215956	0.903250
	H33	H	0.663755	0.216992	0.101396
	H34	H	0.335079	0.786505	0.103090
	H35	H	0.664271	0.787099	0.902462
	H36	H	0.334356	0.904612	0.215583
	H37	H	0.665381	0.098902	0.213406
	H38	H	0.334682	0.098749	0.788795
	H39	H	0.665510	0.904866	0.790416
	H40	H	0.900600	0.216445	0.338512
	H41	H	0.099275	0.216750	0.666688
	H42	H	0.101068	0.786518	0.338670
	H43	H	0.900093	0.787466	0.666254
	H44	H	0.213765	0.337319	0.904271
	H45	H	0.212530	0.665130	0.099871
	H46	H	0.784021	0.337058	0.100917
	H47	H	0.786868	0.664573	0.907774
	H48	H	0.405111	0.116363	0.594737
	H49	H	0.593106	0.884743	0.594519
	H50	H	0.594126	0.119406	0.400370
	H51	H	0.408024	0.880684	0.391183
	H52	H	0.596123	0.409338	0.121987
	H53	H	0.601709	0.589704	0.883762
	H54	H	0.406879	0.603273	0.122143
	H55	H	0.412214	0.406009	0.887439
	H56	H	0.115299	0.588285	0.408239
	H57	H	0.888809	0.579604	0.585294
	H58	H	0.115173	0.411788	0.590237
	H59	H	0.884255	0.400644	0.427819
	H60	H	0.117587	0.409666	0.599062
	H61	H	0.876088	0.592861	0.616606
	H62	H	0.119458	0.599318	0.404724
	H63	H	0.884248	0.424313	0.406845
	H64	H	0.398192	0.591119	0.121587
	H65	H	0.583625	0.592622	0.888853
	H66	H	0.586224	0.412024	0.117827
	H67	H	0.404062	0.403076	0.883020
	H68	H	0.587055	0.114056	0.410688
	H69	H	0.594980	0.882839	0.597392
	H70	H	0.406289	0.117287	0.596880
	H71	H	0.420928	0.892637	0.417605
	H72	H	0.911716	0.616596	0.101227
	H73	H	0.089656	0.388908	0.084120
	H74	H	0.089517	0.615935	0.909769
	H75	H	0.908057	0.385235	0.910298
	H76	H	0.095847	0.903489	0.622354
	H77	H	0.087949	0.094045	0.387089
	H78	H	0.904102	0.092812	0.621003
	H79	H	0.903109	0.915485	0.385080
	H80	H	0.615084	0.086156	0.908533
	H81	H	0.383497	0.091833	0.090807
	H82	H	0.617791	0.911537	0.099877
	H83	H	0.385139	0.910905	0.920478
	H84	H	0.619788	0.900575	0.094918
	H85	H	0.380886	0.092106	0.099744
	H86	H	0.621474	0.099943	0.901590
	H87	H	0.381767	0.914953	0.903606
	H88	H	0.908544	0.094772	0.619374
	H89	H	0.093741	0.098010	0.384284
	H90	H	0.093134	0.913191	0.619591
	H91	H	0.917787	0.905337	0.386433
	H92	H	0.098959	0.617918	0.909837
	H93	H	0.102834	0.381426	0.099819
	H94	H	0.902380	0.615851	0.089393
	H95	H	0.899848	0.382586	0.910680
	H96	H	0.408048	0.116134	0.596141
	H97	H	0.591708	0.884668	0.598111
	H98	H	0.600428	0.118104	0.412236
	H99	H	0.390912	0.883053	0.417887
	H100	H	0.587836	0.402327	0.120829
	H101	H	0.593319	0.605760	0.881864
	H102	H	0.412997	0.590513	0.117240
	H103	H	0.404250	0.411690	0.886407
	H104	H	0.116097	0.596572	0.416056
	H105	H	0.878178	0.613828	0.587621
	H106	H	0.117949	0.403224	0.593275
	H107	H	0.873438	0.395485	0.397875
	H108	H	0.897400	0.620831	0.102489
	H109	H	0.082651	0.385578	0.103933
	H110	H	0.093131	0.618766	0.901726
	H111	H	0.903724	0.382522	0.903325
	H112	H	0.085647	0.904837	0.619005
	H113	H	0.094956	0.090751	0.386472
	H114	H	0.905169	0.097986	0.621477
	H115	H	0.902658	0.898797	0.379944
	H116	H	0.615836	0.100287	0.918288
	H117	H	0.380873	0.099716	0.094508
	H118	H	0.614977	0.910236	0.087558
	H119	H	0.378339	0.899314	0.909133
	C120	C	0.377415	0.009023	0.624984
	C121	C	0.621295	0.992157	0.624120
	C122	C	0.622061	0.009399	0.379603
	C123	C	0.377843	0.993029	0.380281
	C124	C	0.619545	0.380165	0.011176
	C125	C	0.620574	0.623488	0.993980
	C126	C	0.378356	0.623173	0.011348
	C127	C	0.377631	0.379120	0.994778
	C128	C	0.007692	0.622685	0.381731
	C129	C	0.990297	0.623164	0.623973
	C130	C	0.007645	0.380325	0.623267
	C131	C	0.990343	0.379587	0.381310
	C132	C	0.875819	0.509424	0.125285
	C133	C	0.120096	0.493093	0.124312
	C134	C	0.121918	0.509390	0.879079
	C135	C	0.876683	0.491981	0.881120
	C136	C	0.120894	0.879807	0.511217
	C137	C	0.121227	0.122962	0.494669
	C138	C	0.877939	0.122756	0.511326
	C139	C	0.878630	0.879392	0.493153
	C140	C	0.508271	0.123588	0.880777
	C141	C	0.490849	0.123000	0.123585
	C142	C	0.508322	0.879427	0.123651
	C143	C	0.491289	0.880195	0.881925
	C144	C	0.379600	0.886228	0.679936
	C145	C	0.617928	0.115530	0.678506
	C146	C	0.619642	0.886513	0.324670
	C147	C	0.380797	0.115821	0.325437
	C148	C	0.674383	0.384332	0.886739
	C149	C	0.673538	0.618712	0.118773
	C150	C	0.324826	0.619254	0.886385
	C151	C	0.322346	0.383089	0.119098
	C152	C	0.883552	0.677400	0.384052
	C153	C	0.115011	0.676940	0.620643
	C154	C	0.883738	0.324612	0.622526
	C155	C	0.114632	0.325075	0.382406
	C156	C	0.883017	0.383584	0.677687
	C157	C	0.114847	0.619394	0.677663
	C158	C	0.882637	0.618543	0.328585
	C159	C	0.114816	0.383770	0.326676
	C160	C	0.380702	0.678422	0.887390
	C161	C	0.618092	0.677816	0.117958
	C162	C	0.618724	0.325613	0.887311
	C163	C	0.378298	0.323620	0.118402
	C164	C	0.676634	0.886415	0.383117
	C165	C	0.675184	0.115643	0.620268
	C166	C	0.322316	0.885839	0.621800
	C167	C	0.323226	0.116157	0.383907
	C168	C	0.878728	0.386424	0.180241
	C169	C	0.116753	0.616450	0.178238
	C170	C	0.118448	0.386256	0.825053
	C171	C	0.880984	0.615379	0.827704
	C172	C	0.175522	0.884129	0.386553
	C173	C	0.175372	0.119617	0.618715
	C174	C	0.825203	0.118692	0.386293
	C175	C	0.824321	0.884034	0.617926
	C176	C	0.384077	0.177892	0.883404
	C177	C	0.614903	0.178430	0.121383
	C178	C	0.384258	0.824342	0.122720
	C179	C	0.615377	0.825628	0.883567
	C180	C	0.383862	0.883202	0.178451
	C181	C	0.615662	0.119894	0.177196
	C182	C	0.383886	0.119651	0.826626
	C183	C	0.616053	0.883975	0.827703
	C184	C	0.880797	0.177709	0.387103
	C185	C	0.119343	0.178462	0.617937
	C186	C	0.120102	0.824885	0.387427
	C187	C	0.880196	0.825236	0.617390
	C188	C	0.176136	0.386106	0.883329
	C189	C	0.174679	0.616348	0.120630
	C190	C	0.821530	0.386004	0.121803
	C191	C	0.823524	0.615662	0.885756
	C192	C	0.399921	0.094382	0.602568
	C193	C	0.599524	0.906272	0.602990
	C194	C	0.600184	0.095201	0.401344
	C195	C	0.400040	0.907524	0.402287
	C196	C	0.596806	0.401599	0.097822
	C197	C	0.599143	0.602344	0.907272
	C198	C	0.399674	0.601482	0.097822
	C199	C	0.400263	0.400596	0.908093
	C200	C	0.094529	0.601080	0.403339
	C201	C	0.903366	0.601983	0.602567
	C202	C	0.094467	0.401877	0.600797
	C203	C	0.903297	0.400578	0.404072
	C204	C	0.897401	0.595468	0.103848
	C205	C	0.097996	0.407416	0.102515
	C206	C	0.100395	0.595328	0.900800
	C207	C	0.897565	0.405739	0.902031
	C208	C	0.098143	0.900886	0.597774
	C209	C	0.098894	0.100907	0.408315
	C210	C	0.899552	0.101485	0.598083
	C211	C	0.901122	0.900429	0.406303
	C212	C	0.595157	0.101855	0.902906
	C213	C	0.404114	0.101032	0.101616
	C214	C	0.595135	0.901137	0.100804
	C215	C	0.404243	0.901898	0.904507
	Zn216	Zn	0.499795	0.000203	0.753557
	Zn217	Zn	0.500271	0.001456	0.250581
	Zn218	Zn	0.747338	0.500917	0.002816
	Zn219	Zn	0.249622	0.501726	0.002795
	Zn220	Zn	-0.000460	0.751123	0.502315
	Zn221	Zn	-0.000901	0.251439	0.502834
	Zn222	Zn	-0.001251	0.501090	0.751412
	Zn223	Zn	-0.001812	0.501145	0.253929
	Zn224	Zn	0.499510	0.751926	0.002373
	Zn225	Zn	0.499609	0.251137	0.003047
	Zn226	Zn	0.750417	0.001249	0.501906
	Zn227	Zn	0.249087	0.001002	0.503310
	N228	N	0.413191	0.963526	0.681947
	N229	N	0.584846	0.037838	0.680808
	N230	N	0.586242	0.963905	0.322452
	N231	N	0.414102	0.038445	0.323161
	N232	N	0.674866	0.417712	0.964752
	N233	N	0.675197	0.585476	0.040838
	N234	N	0.323168	0.585492	0.964510
	N235	N	0.321737	0.416745	0.041260
	N236	N	0.962269	0.680105	0.416272
	N237	N	0.036511	0.679554	0.588010
	N238	N	0.962272	0.322397	0.589219
	N239	N	0.036221	0.322488	0.415898
	N240	N	0.961032	0.417543	0.678229
	N241	N	0.036384	0.586586	0.679749
	N242	N	0.960803	0.585038	0.327075
	N243	N	0.036403	0.416869	0.325931
	N244	N	0.413095	0.680976	0.965767
	N245	N	0.585826	0.680815	0.039379
	N246	N	0.585366	0.323057	0.965696
	N247	N	0.411839	0.321027	0.040044
	N248	N	0.678369	0.963901	0.416206
	N249	N	0.677629	0.038158	0.587372
	N250	N	0.320713	0.963276	0.588351
	N251	N	0.321393	0.038786	0.417335
	N252	N	0.911675	0.463869	0.182706
	N253	N	0.083500	0.538829	0.180774
	N254	N	0.085578	0.463774	0.822284
	N255	N	0.913379	0.537592	0.824794
	N256	N	0.176028	0.917664	0.464398
	N257	N	0.176847	0.086049	0.540862
	N258	N	0.823470	0.085141	0.464310
	N259	N	0.823220	0.916913	0.539541
	N260	N	0.462512	0.180436	0.916084
	N261	N	0.536356	0.180546	0.089041
	N262	N	0.462811	0.822121	0.089361
	N263	N	0.536732	0.823220	0.916460
	N264	N	0.461942	0.916868	0.178940
	N265	N	0.537492	0.086159	0.178698
	N266	N	0.462142	0.086417	0.824952
	N267	N	0.537782	0.917293	0.826720
	N268	N	0.912775	0.180527	0.465781
	N269	N	0.086196	0.180661	0.539803
	N270	N	0.086980	0.821853	0.465927
	N271	N	0.913282	0.822336	0.538973
	N272	N	0.178434	0.463845	0.916190
	N273	N	0.176941	0.538848	0.087803
	N274	N	0.819400	0.463604	0.088504
	N275	N	0.820966	0.538005	0.918321
	O276	O	0.479307	0.429916	0.424401
	H277	H	0.476053	0.435148	0.432853
	H278	H	0.481116	0.424441	0.412001
	O279	O	0.083653	-0.008825	0.016477
	H280	H	0.093366	-0.011868	0.020775
	H281	H	0.093588	-0.007031	0.010402
	O282	O	0.486945	0.455893	0.434222
	H283	H	0.490958	0.452041	0.435193
	H284	H	0.487821	0.460119	0.426668
	O285	O	0.426931	0.455348	0.527331
	H286	H	0.430701	0.445633	0.519501
	H287	H	0.429047	0.447371	0.525075
	O288	O	1.054655	-0.011022	0.032641
	H289	H	1.057357	-0.015073	0.034366
	H290	H	1.054269	-0.022152	0.042496
	O291	O	-0.540012	0.465327	-0.430336
	H292	H	-0.543201	0.464855	-0.423673
	H293	H	-0.554071	0.472024	-0.423127
	O294	O	0.512351	0.483445	0.510619
	H295	H	0.506843	0.493644	0.509266
	H296	H	0.506806	0.476577	0.511223
	O297	O	0.424841	1.497628	0.525941
	H298	H	0.416723	1.501621	0.527328
	H299	H	0.425971	1.498131	0.523246
	O300	O	1.498004	0.465029	0.499782
	H301	H	1.507274	0.464359	0.505094
	H302	H	1.496476	0.452264	0.494662
	O303	O	0.475924	0.485646	0.495635
	H304	H	0.479053	0.495368	0.487399
	H305	H	0.482822	0.477944	0.496250
	O306	O	0.048252	0.993417	1.008853
	H307	H	0.046154	0.990330	1.012208
	H308	H	0.052651	0.996509	1.002869
	O309	O	0.518232	0.472550	0.523951
	H310	H	0.519650	0.467468	0.534248
	H311	H	0.513975	0.476620	0.526742
