data_Molecule from HDF5

_cell_length_a		16.246090
_cell_length_b		16.329049
_cell_length_c		16.156890
_cell_angle_alpha	89.975227
_cell_angle_beta	89.992329
_cell_angle_gamma	90.022119
_symmetry_space_group_name_H-M	'P 1'
_symmetry_Int_Tables_number		1

loop_
	_symmetry_equiv_pos_as_xyz
	x,y,z

loop_
	_atom_site_label
	_atom_site_type_symbol
	_atom_site_fract_x
	_atom_site_fract_y
	_atom_site_fract_z
	H0	H	0.403511	0.835538	0.712165
	H1	H	0.597733	0.163824	0.713681
	H2	H	0.596599	0.836472	0.285549
	H3	H	0.404146	0.164445	0.286952
	H4	H	0.713018	0.402862	0.834850
	H5	H	0.711506	0.596254	0.165501
	H6	H	0.286864	0.597068	0.834693
	H7	H	0.287721	0.403226	0.165932
	H8	H	0.836139	0.714877	0.400497
	H9	H	0.163731	0.714494	0.599228
	H10	H	0.836222	0.285228	0.599157
	H11	H	0.164633	0.285681	0.402162
	H12	H	0.834867	0.403653	0.712962
	H13	H	0.164923	0.595850	0.712452
	H14	H	0.835164	0.595989	0.288132
	H15	H	0.164956	0.403754	0.287609
	H16	H	0.401719	0.713385	0.834856
	H17	H	0.597719	0.713494	0.164809
	H18	H	0.597597	0.287185	0.834953
	H19	H	0.401499	0.285747	0.164520
	H20	H	0.715017	0.836719	0.400614
	H21	H	0.715400	0.163448	0.597938
	H22	H	0.285252	0.836853	0.598042
	H23	H	0.286230	0.163506	0.402166
	H24	H	0.901874	0.336351	0.214370
	H25	H	0.096071	0.664399	0.214002
	H26	H	0.096454	0.336262	0.786867
	H27	H	0.903934	0.664352	0.786556
	H28	H	0.211808	0.903515	0.334330
	H29	H	0.213108	0.097372	0.665325
	H30	H	0.787560	0.097382	0.334622
	H31	H	0.787243	0.903403	0.664902
	H32	H	0.336087	0.214273	0.900974
	H33	H	0.663726	0.214697	0.098758
	H34	H	0.336674	0.784654	0.099639
	H35	H	0.662969	0.784933	0.900257
	H36	H	0.334912	0.904482	0.211382
	H37	H	0.664576	0.095994	0.211436
	H38	H	0.334748	0.095841	0.787401
	H39	H	0.664670	0.903123	0.786965
	H40	H	0.901163	0.215412	0.336168
	H41	H	0.098512	0.212410	0.664930
	H42	H	0.098945	0.785809	0.335574
	H43	H	0.902470	0.786960	0.664719
	H44	H	0.213814	0.336266	0.903117
	H45	H	0.214851	0.663233	0.099547
	H46	H	0.785513	0.336471	0.098007
	H47	H	0.785853	0.663966	0.901815
	H48	H	0.406206	0.115415	0.589867
	H49	H	0.588420	0.885345	0.591995
	H50	H	0.605921	0.119957	0.406129
	H51	H	0.396060	0.879667	0.403385
	H52	H	0.600486	0.403413	0.121729
	H53	H	0.590139	0.589390	0.884319
	H54	H	0.412477	0.592699	0.116457
	H55	H	0.406022	0.406572	0.882044
	H56	H	0.117811	0.587485	0.396609
	H57	H	0.879516	0.597744	0.601321
	H58	H	0.121377	0.393034	0.595256
	H59	H	0.883999	0.408448	0.406949
	H60	H	0.112947	0.408958	0.582106
	H61	H	0.883208	0.599970	0.586038
	H62	H	0.120966	0.606506	0.406556
	H63	H	0.881999	0.403848	0.407740
	H64	H	0.406280	0.598120	0.118960
	H65	H	0.591371	0.598368	0.881082
	H66	H	0.591760	0.414981	0.114799
	H67	H	0.407061	0.406895	0.882187
	H68	H	0.588380	0.117151	0.395912
	H69	H	0.597074	0.884563	0.588136
	H70	H	0.402602	0.118377	0.594814
	H71	H	0.412280	0.883363	0.398683
	H72	H	0.898537	0.618760	0.091216
	H73	H	0.094396	0.382226	0.098213
	H74	H	0.094293	0.617552	0.900810
	H75	H	0.902409	0.384502	0.912664
	H76	H	0.084689	0.907637	0.614736
	H77	H	0.081262	0.099380	0.384102
	H78	H	0.903751	0.094955	0.619335
	H79	H	0.916241	0.912403	0.387202
	H80	H	0.617646	0.095142	0.907608
	H81	H	0.386139	0.084951	0.089253
	H82	H	0.619801	0.909835	0.105712
	H83	H	0.381848	0.910858	0.899521
	H84	H	0.619962	0.893023	0.088880
	H85	H	0.379009	0.096349	0.102047
	H86	H	0.616485	0.093175	0.906311
	H87	H	0.380061	0.897282	0.906066
	H88	H	0.907112	0.089102	0.617606
	H89	H	0.103120	0.100485	0.376842
	H90	H	0.095325	0.898829	0.621472
	H91	H	0.909322	0.895323	0.378854
	H92	H	0.089332	0.614611	0.909177
	H93	H	0.091721	0.385104	0.092618
	H94	H	0.907395	0.617959	0.101776
	H95	H	0.902861	0.381978	0.901939
	H96	H	0.408669	0.116371	0.596002
	H97	H	0.595694	0.882120	0.597317
	H98	H	0.589135	0.112260	0.415953
	H99	H	0.406698	0.886311	0.414720
	H100	H	0.585272	0.400454	0.117091
	H101	H	0.599041	0.591839	0.880136
	H102	H	0.404451	0.589506	0.117339
	H103	H	0.406353	0.405327	0.882138
	H104	H	0.112810	0.589615	0.418317
	H105	H	0.885326	0.585519	0.592827
	H106	H	0.117958	0.413435	0.604238
	H107	H	0.884499	0.406413	0.411563
	H108	H	0.911225	0.613633	0.089346
	H109	H	0.098459	0.382979	0.093013
	H110	H	0.098951	0.618128	0.909797
	H111	H	0.911904	0.385044	0.906911
	H112	H	0.098560	0.912541	0.617312
	H113	H	0.094639	0.081232	0.385478
	H114	H	0.910627	0.094849	0.617372
	H115	H	0.897365	0.910802	0.380035
	H116	H	0.617209	0.094765	0.905321
	H117	H	0.382807	0.102053	0.085112
	H118	H	0.612212	0.914571	0.083314
	H119	H	0.385379	0.908808	0.914017
	C120	C	0.377769	0.008466	0.621490
	C121	C	0.622168	0.991889	0.621470
	C122	C	0.622223	0.008329	0.377672
	C123	C	0.377585	0.991516	0.377395
	C124	C	0.620827	0.378782	0.008668
	C125	C	0.621186	0.621257	0.991027
	C126	C	0.379108	0.621300	0.008349
	C127	C	0.378418	0.378488	0.991652
	C128	C	0.008194	0.622098	0.378651
	C129	C	0.991367	0.621932	0.621460
	C130	C	0.008777	0.377455	0.622200
	C131	C	0.992100	0.377941	0.379583
	C132	C	0.877530	0.508633	0.122602
	C133	C	0.121932	0.491844	0.122353
	C134	C	0.121930	0.508526	0.878694
	C135	C	0.877782	0.492046	0.878627
	C136	C	0.121155	0.878484	0.508390
	C137	C	0.121479	0.121507	0.491315
	C138	C	0.879028	0.121307	0.508833
	C139	C	0.878945	0.878489	0.491347
	C140	C	0.508340	0.121976	0.877998
	C141	C	0.491225	0.121850	0.120495
	C142	C	0.508766	0.878063	0.121204
	C143	C	0.491211	0.877960	0.877816
	C144	C	0.382153	0.884747	0.675352
	C145	C	0.618686	0.114960	0.675948
	C146	C	0.617771	0.885138	0.323315
	C147	C	0.382267	0.115211	0.323814
	C148	C	0.675596	0.381781	0.884199
	C149	C	0.675098	0.617985	0.115914
	C150	C	0.324136	0.618361	0.884148
	C151	C	0.324999	0.382456	0.116569
	C152	C	0.884907	0.676579	0.380780
	C153	C	0.115112	0.676181	0.618982
	C154	C	0.885063	0.322852	0.619600
	C155	C	0.115660	0.323552	0.381595
	C156	C	0.884413	0.381855	0.675950
	C157	C	0.115711	0.617372	0.675160
	C158	C	0.884336	0.617756	0.324768
	C159	C	0.115739	0.381941	0.324649
	C160	C	0.381383	0.675899	0.884008
	C161	C	0.618678	0.676170	0.115323
	C162	C	0.618021	0.324685	0.884064
	C163	C	0.381640	0.324247	0.115746
	C164	C	0.676607	0.885289	0.380417
	C165	C	0.677182	0.114881	0.618561
	C166	C	0.323443	0.885215	0.618685
	C167	C	0.323881	0.114999	0.381325
	C168	C	0.880959	0.385182	0.176608
	C169	C	0.117498	0.615299	0.176691
	C170	C	0.117948	0.385080	0.824482
	C171	C	0.882332	0.615376	0.824411
	C172	C	0.175408	0.881869	0.384202
	C173	C	0.175680	0.118161	0.615792
	C174	C	0.825055	0.118222	0.383993
	C175	C	0.824681	0.882322	0.615706
	C176	C	0.384844	0.176430	0.880627
	C177	C	0.615105	0.176523	0.118697
	C178	C	0.385253	0.823215	0.118914
	C179	C	0.614591	0.823365	0.880308
	C180	C	0.384385	0.882455	0.174803
	C181	C	0.615506	0.117654	0.174540
	C182	C	0.384271	0.117739	0.824093
	C183	C	0.615138	0.882044	0.823980
	C184	C	0.881115	0.177060	0.385104
	C185	C	0.118560	0.175022	0.615937
	C186	C	0.118994	0.823692	0.384635
	C187	C	0.881639	0.824433	0.615699
	C188	C	0.176275	0.385266	0.881959
	C189	C	0.176507	0.614884	0.119983
	C190	C	0.822774	0.385603	0.119280
	C191	C	0.823688	0.615270	0.881472
	C192	C	0.399376	0.094541	0.599762
	C193	C	0.600375	0.906069	0.599210
	C194	C	0.600872	0.094375	0.399455
	C195	C	0.398728	0.905386	0.399211
	C196	C	0.598919	0.400004	0.095390
	C197	C	0.599836	0.599736	0.904319
	C198	C	0.401220	0.599693	0.095158
	C199	C	0.399987	0.400051	0.904515
	C200	C	0.094963	0.600798	0.400609
	C201	C	0.904918	0.600739	0.599693
	C202	C	0.095054	0.398742	0.600435
	C203	C	0.905834	0.399779	0.402025
	C204	C	0.899220	0.594562	0.100698
	C205	C	0.101119	0.405662	0.100889
	C206	C	0.100542	0.594644	0.900145
	C207	C	0.899535	0.406048	0.900643
	C208	C	0.099286	0.899967	0.595544
	C209	C	0.099621	0.100161	0.404605
	C210	C	0.900819	0.099433	0.595567
	C211	C	0.900997	0.899809	0.404389
	C212	C	0.594875	0.100696	0.899904
	C213	C	0.405042	0.100709	0.098678
	C214	C	0.595069	0.899411	0.099268
	C215	C	0.404605	0.899404	0.899921
	Zn216	Zn	0.499615	-0.000274	0.749904
	Zn217	Zn	0.499826	0.000018	0.248702
	Zn218	Zn	0.749029	0.500204	0.000144
	Zn219	Zn	0.250814	0.499847	0.000492
	Zn220	Zn	0.000058	0.750392	0.499860
	Zn221	Zn	0.000681	0.249120	0.500476
	Zn222	Zn	-0.000055	0.500259	0.749696
	Zn223	Zn	-0.000281	0.499984	0.251300
	Zn224	Zn	0.499925	0.749472	-0.000178
	Zn225	Zn	0.500169	0.250229	-0.000094
	Zn226	Zn	0.751505	0.000074	0.499564
	Zn227	Zn	0.248721	0.000071	0.500096
	N228	N	0.415187	0.962266	0.677068
	N229	N	0.585254	0.037576	0.677766
	N230	N	0.584597	0.962559	0.321703
	N231	N	0.415173	0.037711	0.321539
	N232	N	0.677338	0.414897	0.962459
	N233	N	0.676696	0.584616	0.037762
	N234	N	0.322925	0.584920	0.962242
	N235	N	0.322950	0.415398	0.038157
	N236	N	0.962927	0.679122	0.413663
	N237	N	0.036961	0.678935	0.586308
	N238	N	0.963135	0.320147	0.586829
	N239	N	0.037749	0.321047	0.414924
	N240	N	0.962279	0.415033	0.677876
	N241	N	0.037796	0.584189	0.676963
	N242	N	0.962258	0.584617	0.323396
	N243	N	0.037940	0.415241	0.323437
	N244	N	0.414692	0.677858	0.962330
	N245	N	0.585615	0.678137	0.036912
	N246	N	0.584817	0.322605	0.962404
	N247	N	0.413967	0.321599	0.037117
	N248	N	0.679290	0.962883	0.413498
	N249	N	0.679139	0.037431	0.585193
	N250	N	0.320551	0.963037	0.585988
	N251	N	0.320816	0.037062	0.413844
	N252	N	0.914447	0.462513	0.178714
	N253	N	0.084063	0.537799	0.178095
	N254	N	0.084885	0.462633	0.822361
	N255	N	0.915373	0.537749	0.822574
	N256	N	0.176536	0.915467	0.462202
	N257	N	0.177550	0.085294	0.537459
	N258	N	0.823581	0.084458	0.461932
	N259	N	0.823054	0.915040	0.537298
	N260	N	0.463121	0.179107	0.913198
	N261	N	0.537183	0.179264	0.085830
	N262	N	0.463496	0.820398	0.086355
	N263	N	0.536472	0.820518	0.912883
	N264	N	0.461975	0.915918	0.176133
	N265	N	0.537721	0.084394	0.176028
	N266	N	0.461960	0.084495	0.822507
	N267	N	0.537364	0.915319	0.822583
	N268	N	0.914050	0.178896	0.463592
	N269	N	0.085583	0.177186	0.537662
	N270	N	0.086056	0.821572	0.463053
	N271	N	0.914946	0.822197	0.537401
	N272	N	0.178631	0.462836	0.914920
	N273	N	0.179294	0.537351	0.086987
	N274	N	0.820893	0.463285	0.086227
	N275	N	0.821048	0.537692	0.914493
