data_Molecule from HDF5

_cell_length_a		16.354319
_cell_length_b		16.128932
_cell_length_c		16.222408
_cell_angle_alpha	89.947506
_cell_angle_beta	89.689726
_cell_angle_gamma	90.111126
_symmetry_space_group_name_H-M	'P 1'
_symmetry_Int_Tables_number		1

loop_
	_symmetry_equiv_pos_as_xyz
	x,y,z

loop_
	_atom_site_label
	_atom_site_type_symbol
	_atom_site_fract_x
	_atom_site_fract_y
	_atom_site_fract_z
	H0	H	0.407037	0.843597	0.715662
	H1	H	0.603881	0.173519	0.714311
	H2	H	0.605223	0.843472	0.288498
	H3	H	0.410839	0.174600	0.290464
	H4	H	0.724086	0.407175	0.839013
	H5	H	0.720970	0.608661	0.165950
	H6	H	0.293003	0.609072	0.838390
	H7	H	0.289483	0.407844	0.164881
	H8	H	0.842324	0.722132	0.406387
	H9	H	0.169704	0.723738	0.598590
	H10	H	0.842514	0.294225	0.602159
	H11	H	0.169647	0.295041	0.403477
	H12	H	0.843947	0.410314	0.718940
	H13	H	0.169663	0.608377	0.716252
	H14	H	0.844017	0.608840	0.286779
	H15	H	0.169511	0.410168	0.285900
	H16	H	0.411586	0.721188	0.837737
	H17	H	0.603104	0.722045	0.166672
	H18	H	0.603361	0.297658	0.836315
	H19	H	0.409173	0.296904	0.167020
	H20	H	0.721259	0.844539	0.402284
	H21	H	0.719579	0.173222	0.601040
	H22	H	0.290111	0.844780	0.602581
	H23	H	0.293395	0.173864	0.402588
	H24	H	0.908660	0.343728	0.216743
	H25	H	0.104157	0.674592	0.212663
	H26	H	0.105130	0.343826	0.788347
	H27	H	0.910596	0.674100	0.790350
	H28	H	0.222413	0.909187	0.338813
	H29	H	0.221478	0.109686	0.665845
	H30	H	0.791151	0.109675	0.338811
	H31	H	0.789091	0.908980	0.665833
	H32	H	0.342575	0.222183	0.905848
	H33	H	0.670127	0.223251	0.098201
	H34	H	0.343183	0.793868	0.101577
	H35	H	0.670296	0.795407	0.903695
	H36	H	0.344063	0.908660	0.219201
	H37	H	0.670160	0.107518	0.214774
	H38	H	0.343429	0.107595	0.787333
	H39	H	0.669745	0.910545	0.785518
	H40	H	0.910328	0.221908	0.337199
	H41	H	0.100331	0.220903	0.667837
	H42	H	0.102790	0.798049	0.336886
	H43	H	0.907784	0.796423	0.666924
	H44	H	0.221131	0.344198	0.902741
	H45	H	0.222034	0.672771	0.101968
	H46	H	0.791151	0.343643	0.103654
	H47	H	0.792920	0.672784	0.903412
	H48	H	0.411506	0.126698	0.592630
	H49	H	0.600685	0.888360	0.597208
	H50	H	0.605263	0.130720	0.401499
	H51	H	0.414453	0.891955	0.412167
	H52	H	0.605083	0.424300	0.118326
	H53	H	0.594848	0.607030	0.884811
	H54	H	0.414450	0.605237	0.120897
	H55	H	0.414874	0.422329	0.886628
	H56	H	0.121972	0.596256	0.402574
	H57	H	0.890084	0.605861	0.593585
	H58	H	0.122150	0.420297	0.596780
	H59	H	0.890427	0.415192	0.410413
	H60	H	0.123890	0.411589	0.596955
	H61	H	0.892158	0.597459	0.595816
	H62	H	0.125918	0.610983	0.402980
	H63	H	0.891128	0.417989	0.409467
	H64	H	0.407843	0.598122	0.120520
	H65	H	0.610090	0.603692	0.881895
	H66	H	0.590193	0.417541	0.115728
	H67	H	0.417455	0.411064	0.884138
	H68	H	0.592963	0.124882	0.406729
	H69	H	0.593134	0.891887	0.593870
	H70	H	0.412333	0.127524	0.596654
	H71	H	0.413318	0.891269	0.411275
	H72	H	0.920937	0.623388	0.094843
	H73	H	0.106931	0.387727	0.096456
	H74	H	0.104005	0.626925	0.910657
	H75	H	0.903189	0.387496	0.910952
	H76	H	0.100462	0.915451	0.619917
	H77	H	0.107557	0.101207	0.383715
	H78	H	0.911213	0.107899	0.621826
	H79	H	0.913986	0.919063	0.385629
	H80	H	0.622632	0.103538	0.907586
	H81	H	0.390644	0.103262	0.095177
	H82	H	0.624358	0.918396	0.103322
	H83	H	0.389067	0.908773	0.909810
	H84	H	0.624212	0.906826	0.092978
	H85	H	0.390916	0.099492	0.095713
	H86	H	0.622474	0.101316	0.906496
	H87	H	0.393239	0.918714	0.913262
	H88	H	0.905936	0.097482	0.620345
	H89	H	0.098735	0.096945	0.386788
	H90	H	0.099595	0.920798	0.619044
	H91	H	0.913458	0.914577	0.385140
	H92	H	0.099813	0.627791	0.905894
	H93	H	0.092270	0.390083	0.100066
	H94	H	0.909575	0.624989	0.087182
	H95	H	0.920044	0.389554	0.899974
	H96	H	0.415543	0.126515	0.594349
	H97	H	0.601242	0.891099	0.588962
	H98	H	0.604054	0.126031	0.414883
	H99	H	0.414661	0.891169	0.410554
	H100	H	0.602636	0.408279	0.122815
	H101	H	0.600120	0.592282	0.887276
	H102	H	0.416353	0.596151	0.117150
	H103	H	0.406678	0.415599	0.882356
	H104	H	0.119858	0.603678	0.415910
	H105	H	0.888678	0.603117	0.602050
	H106	H	0.120845	0.415742	0.589123
	H107	H	0.890133	0.416172	0.407560
	H108	H	0.909648	0.629669	0.100030
	H109	H	0.097686	0.393645	0.086617
	H110	H	0.098445	0.625713	0.911096
	H111	H	0.919758	0.394797	0.920081
	H112	H	0.094836	0.916805	0.618454
	H113	H	0.098314	0.107367	0.384602
	H114	H	0.916524	0.098128	0.616138
	H115	H	0.910663	0.917979	0.384591
	H116	H	0.623874	0.103382	0.904720
	H117	H	0.390068	0.101499	0.099083
	H118	H	0.619195	0.921224	0.089670
	H119	H	0.389769	0.917960	0.902135
	C120	C	0.384023	0.017878	0.623817
	C121	C	0.626575	1.000009	0.622131
	C122	C	0.628598	0.017844	0.379772
	C123	C	0.385849	1.000482	0.381914
	C124	C	0.627849	0.387714	0.010361
	C125	C	0.629028	0.630192	0.993409
	C126	C	0.385460	0.629480	0.011133
	C127	C	0.384325	0.387172	0.992942
	C128	C	0.015039	0.632321	0.379281
	C129	C	0.998122	0.631024	0.624383
	C130	C	0.014662	0.387141	0.623895
	C131	C	0.998046	0.387511	0.380142
	C132	C	0.884487	0.517206	0.123815
	C133	C	0.127797	0.499953	0.122814
	C134	C	0.128917	0.517667	0.880613
	C135	C	0.886283	0.499798	0.881652
	C136	C	0.127343	0.888759	0.510742
	C137	C	0.128463	0.130811	0.493708
	C138	C	0.883971	0.130460	0.510657
	C139	C	0.883758	0.887723	0.493592
	C140	C	0.514693	0.130793	0.879253
	C141	C	0.498392	0.130544	0.123994
	C142	C	0.514898	0.886496	0.124342
	C143	C	0.498591	0.887075	0.879396
	C144	C	0.386428	0.893323	0.678696
	C145	C	0.623933	0.124297	0.676640
	C146	C	0.625684	0.893067	0.325724
	C147	C	0.389351	0.124868	0.327032
	C148	C	0.684657	0.388598	0.887248
	C149	C	0.683480	0.628722	0.116790
	C150	C	0.331037	0.628263	0.887438
	C151	C	0.328286	0.388214	0.116249
	C152	C	0.891469	0.685452	0.384357
	C153	C	0.120906	0.686172	0.620278
	C154	C	0.891394	0.332347	0.622064
	C155	C	0.120825	0.332432	0.382547
	C156	C	0.892086	0.389654	0.680346
	C157	C	0.121050	0.628574	0.678377
	C158	C	0.892380	0.629281	0.324988
	C159	C	0.120894	0.390013	0.324452
	C160	C	0.389881	0.684141	0.886950
	C161	C	0.624444	0.684694	0.117266
	C162	C	0.624609	0.334185	0.885921
	C163	C	0.387679	0.333147	0.117320
	C164	C	0.683563	0.893635	0.382124
	C165	C	0.681699	0.124042	0.620560
	C166	C	0.328444	0.893695	0.622313
	C167	C	0.331133	0.124545	0.383159
	C168	C	0.887807	0.392808	0.178839
	C169	C	0.124604	0.624629	0.176311
	C170	C	0.126194	0.393249	0.825675
	C171	C	0.889626	0.624597	0.827419
	C172	C	0.183753	0.889886	0.387510
	C173	C	0.182898	0.129056	0.617322
	C174	C	0.829472	0.129032	0.387315
	C175	C	0.827718	0.889328	0.616923
	C176	C	0.391462	0.185034	0.884125
	C177	C	0.621361	0.185322	0.119367
	C178	C	0.391880	0.831716	0.121644
	C179	C	0.621395	0.832282	0.882078
	C180	C	0.392376	0.888736	0.180134
	C181	C	0.621260	0.127786	0.177459
	C182	C	0.391718	0.127832	0.825498
	C183	C	0.621010	0.889593	0.823495
	C184	C	0.888575	0.184996	0.386604
	C185	C	0.122906	0.184355	0.618239
	C186	C	0.124385	0.834458	0.386562
	C187	C	0.886693	0.833335	0.617561
	C188	C	0.183452	0.393331	0.882671
	C189	C	0.183325	0.623858	0.121128
	C190	C	0.829360	0.393012	0.122905
	C191	C	0.831019	0.623827	0.883326
	C192	C	0.406448	0.104529	0.601344
	C193	C	0.604681	0.913052	0.599929
	C194	C	0.606980	0.104780	0.401381
	C195	C	0.407719	0.913899	0.404634
	C196	C	0.605670	0.410018	0.096562
	C197	C	0.607889	0.607746	0.906906
	C198	C	0.406654	0.606555	0.097212
	C199	C	0.406634	0.409508	0.906780
	C200	C	0.100472	0.610230	0.400833
	C201	C	0.912300	0.608741	0.603356
	C202	C	0.100036	0.409390	0.601028
	C203	C	0.912708	0.409968	0.402501
	C204	C	0.906673	0.603778	0.100824
	C205	C	0.105661	0.412793	0.100896
	C206	C	0.107230	0.604354	0.902646
	C207	C	0.907941	0.412908	0.903728
	C208	C	0.105022	0.911254	0.596973
	C209	C	0.107581	0.108503	0.407370
	C210	C	0.904998	0.107837	0.597146
	C211	C	0.906315	0.910356	0.407330
	C212	C	0.600791	0.109215	0.900058
	C213	C	0.412602	0.108116	0.102688
	C214	C	0.600518	0.908919	0.101804
	C215	C	0.412822	0.908720	0.901899
	Zn216	Zn	0.506348	0.008803	0.750498
	Zn217	Zn	0.506856	0.008530	0.253225
	Zn218	Zn	0.757319	0.508268	0.002323
	Zn219	Zn	0.256105	0.508599	0.002226
	Zn220	Zn	0.005836	0.760483	0.502054
	Zn221	Zn	0.005717	0.258331	0.502325
	Zn222	Zn	0.007204	0.509034	0.753231
	Zn223	Zn	0.006478	0.509420	0.250526
	Zn224	Zn	0.506633	0.758157	0.002055
	Zn225	Zn	0.506318	0.259562	0.001544
	Zn226	Zn	0.755115	0.009231	0.501901
	Zn227	Zn	0.256933	0.009101	0.502442
	N228	N	0.420538	0.971424	0.679359
	N229	N	0.590571	0.046063	0.677730
	N230	N	0.592239	0.971205	0.324123
	N231	N	0.422953	0.046845	0.326366
	N232	N	0.686634	0.421478	0.965553
	N233	N	0.686591	0.595786	0.038661
	N234	N	0.328180	0.594834	0.965599
	N235	N	0.326054	0.421103	0.038137
	N236	N	0.968721	0.687564	0.417274
	N237	N	0.043596	0.687697	0.587418
	N238	N	0.968464	0.330810	0.587535
	N239	N	0.043602	0.330740	0.416527
	N240	N	0.969607	0.422987	0.681707
	N241	N	0.043577	0.595119	0.681171
	N242	N	0.970121	0.596844	0.321678
	N243	N	0.043627	0.423672	0.322853
	N244	N	0.422917	0.685144	0.964694
	N245	N	0.591194	0.685556	0.039531
	N246	N	0.589996	0.333441	0.963352
	N247	N	0.421742	0.332110	0.039519
	N248	N	0.685619	0.972276	0.414833
	N249	N	0.683274	0.045750	0.587069
	N250	N	0.326594	0.972161	0.588989
	N251	N	0.328863	0.046188	0.416771
	N252	N	0.921470	0.470991	0.179391
	N253	N	0.090545	0.546526	0.177213
	N254	N	0.092803	0.471491	0.824272
	N255	N	0.923199	0.546482	0.826262
	N256	N	0.185650	0.922988	0.465717
	N257	N	0.186685	0.096661	0.538976
	N258	N	0.826461	0.095938	0.465536
	N259	N	0.825783	0.922466	0.538724
	N260	N	0.468996	0.186931	0.916908
	N261	N	0.543913	0.187085	0.086780
	N262	N	0.469139	0.830203	0.087665
	N263	N	0.544338	0.830920	0.916439
	N264	N	0.469856	0.921994	0.182031
	N265	N	0.543759	0.094271	0.180293
	N266	N	0.469163	0.095031	0.822477
	N267	N	0.543487	0.922881	0.821955
	N268	N	0.921740	0.185807	0.464318
	N269	N	0.089951	0.185610	0.540484
	N270	N	0.090018	0.833656	0.464089
	N271	N	0.920784	0.832393	0.539894
	N272	N	0.185308	0.471692	0.916066
	N273	N	0.185136	0.545299	0.088380
	N274	N	0.827374	0.471392	0.089206
	N275	N	0.828883	0.545294	0.916412
	O276	O	0.511759	0.509108	0.514295
	H277	H	0.517358	0.507936	0.519930
	H278	H	0.504725	0.504349	0.505942
	O279	O	-0.002753	-0.051583	0.015928
	H280	H	-0.003100	-0.058850	0.019798
	H281	H	-0.000206	-0.051823	0.013910
	O282	O	0.505183	0.519407	0.507613
	H283	H	0.503930	0.506558	0.510178
	H284	H	0.506310	0.521250	0.506913
	O285	O	0.481347	0.445333	0.458826
	H286	H	0.478111	0.438702	0.461727
	H287	H	0.486925	0.448173	0.460735
	O288	O	1.005394	-0.056992	0.028638
	H289	H	1.011876	-0.065876	0.028890
	H290	H	1.001372	-0.056714	0.031212
	O291	O	-0.505859	0.431813	-0.471854
	H292	H	-0.498484	0.432489	-0.467588
	H293	H	-0.507034	0.425638	-0.474291
	O294	O	0.474739	0.482787	0.530248
	H295	H	0.478863	0.493514	0.532756
	H296	H	0.475051	0.488553	0.527269
	O297	O	-0.015568	0.921587	0.019219
	H298	H	-0.013995	0.920376	0.019170
	H299	H	-0.020550	0.922551	0.025448
	O300	O	0.990199	-0.046557	1.050598
	H301	H	0.989762	-0.043502	1.035821
	H302	H	0.980620	-0.048488	1.054507
	O303	O	0.466365	0.454480	0.500021
	H304	H	0.469780	0.447301	0.497872
	H305	H	0.454617	0.457425	0.497002
	O306	O	0.021419	0.942668	1.026345
	H307	H	0.022453	0.943486	1.024937
	H308	H	0.027684	0.940031	1.032839
	O309	O	0.451759	0.464392	0.470352
	H310	H	0.447689	0.466087	0.470938
	H311	H	0.443592	0.465205	0.481473
