data_Molecule from HDF5

_cell_length_a		16.385567
_cell_length_b		16.253319
_cell_length_c		16.404597
_cell_angle_alpha	90.113902
_cell_angle_beta	89.867389
_cell_angle_gamma	89.794627
_symmetry_space_group_name_H-M	'P 1'
_symmetry_Int_Tables_number		1

loop_
	_symmetry_equiv_pos_as_xyz
	x,y,z

loop_
	_atom_site_label
	_atom_site_type_symbol
	_atom_site_fract_x
	_atom_site_fract_y
	_atom_site_fract_z
	H0	H	0.400578	0.824212	0.724257
	H1	H	0.605567	0.146103	0.724320
	H2	H	0.606633	0.823552	0.286985
	H3	H	0.398418	0.146720	0.285395
	H4	H	0.722296	0.383431	0.845647
	H5	H	0.722440	0.589674	0.166674
	H6	H	0.281985	0.589719	0.847733
	H7	H	0.284503	0.381228	0.166724
	H8	H	0.844976	0.705257	0.404054
	H9	H	0.164300	0.702352	0.609095
	H10	H	0.842255	0.268889	0.606773
	H11	H	0.165016	0.265909	0.405158
	H12	H	0.844254	0.380984	0.726832
	H13	H	0.164530	0.586376	0.724994
	H14	H	0.844163	0.588702	0.287687
	H15	H	0.162111	0.374629	0.283424
	H16	H	0.401699	0.701849	0.844870
	H17	H	0.604156	0.703853	0.166635
	H18	H	0.605171	0.268219	0.844497
	H19	H	0.401652	0.266298	0.165741
	H20	H	0.723779	0.824503	0.401451
	H21	H	0.719230	0.147614	0.606686
	H22	H	0.285488	0.824425	0.608470
	H23	H	0.283587	0.146984	0.402632
	H24	H	0.897351	0.322851	0.227832
	H25	H	0.107274	0.643495	0.228470
	H26	H	0.112143	0.323356	0.785436
	H27	H	0.901213	0.645182	0.787533
	H28	H	0.228942	0.875460	0.348435
	H29	H	0.226290	0.093749	0.663502
	H30	H	0.780238	0.094886	0.347365
	H31	H	0.781533	0.881300	0.664611
	H32	H	0.344403	0.206117	0.901764
	H33	H	0.664637	0.202306	0.106721
	H34	H	0.343904	0.767087	0.108929
	H35	H	0.662495	0.763570	0.899183
	H36	H	0.346026	0.877248	0.228948
	H37	H	0.662689	0.090921	0.226566
	H38	H	0.344500	0.091578	0.784314
	H39	H	0.662021	0.878131	0.781634
	H40	H	0.899343	0.205885	0.345851
	H41	H	0.105757	0.203603	0.665901
	H42	H	0.112025	0.760359	0.348247
	H43	H	0.900644	0.767047	0.666799
	H44	H	0.226779	0.324440	0.901826
	H45	H	0.222988	0.645000	0.113389
	H46	H	0.781713	0.323769	0.112939
	H47	H	0.784890	0.645607	0.903492
	H48	H	0.411268	0.100073	0.590776
	H49	H	0.591685	0.873508	0.584597
	H50	H	0.593184	0.101746	0.412438
	H51	H	0.419016	0.866006	0.397224
	H52	H	0.592783	0.396940	0.119781
	H53	H	0.596030	0.574129	0.892589
	H54	H	0.410203	0.574153	0.120808
	H55	H	0.419677	0.398492	0.894074
	H56	H	0.116232	0.570466	0.419208
	H57	H	0.892523	0.574701	0.589206
	H58	H	0.116347	0.399113	0.596702
	H59	H	0.888487	0.393315	0.412867
	H60	H	0.121498	0.391152	0.602036
	H61	H	0.890408	0.567498	0.603530
	H62	H	0.117912	0.568493	0.415118
	H63	H	0.890411	0.392978	0.420366
	H64	H	0.416182	0.575737	0.119354
	H65	H	0.595107	0.572923	0.892665
	H66	H	0.592670	0.393446	0.120192
	H67	H	0.413918	0.391383	0.890609
	H68	H	0.589940	0.099648	0.415589
	H69	H	0.601773	0.866749	0.595818
	H70	H	0.411491	0.102277	0.598671
	H71	H	0.432056	0.880618	0.426409
	H72	H	0.916082	0.596458	0.097028
	H73	H	0.094608	0.368728	0.096082
	H74	H	0.088860	0.595757	0.917907
	H75	H	0.914739	0.368556	0.914828
	H76	H	0.104186	0.895343	0.622681
	H77	H	0.088773	0.072841	0.394087
	H78	H	0.913008	0.078012	0.620218
	H79	H	0.918672	0.902349	0.396136
	H80	H	0.617282	0.076708	0.918647
	H81	H	0.388979	0.077524	0.095651
	H82	H	0.617497	0.896245	0.095203
	H83	H	0.386985	0.891695	0.911859
	H84	H	0.617740	0.895202	0.094186
	H85	H	0.390851	0.075012	0.092695
	H86	H	0.616307	0.068074	0.913160
	H87	H	0.391601	0.895241	0.920057
	H88	H	0.907875	0.074036	0.620308
	H89	H	0.094986	0.077152	0.390082
	H90	H	0.089296	0.905314	0.614489
	H91	H	0.918933	0.888750	0.392112
	H92	H	0.097088	0.600057	0.919602
	H93	H	0.089922	0.370845	0.094100
	H94	H	0.912234	0.597790	0.096219
	H95	H	0.916255	0.369559	0.917457
	H96	H	0.418607	0.099278	0.594547
	H97	H	0.586352	0.870737	0.599988
	H98	H	0.594835	0.100180	0.417055
	H99	H	0.398900	0.868317	0.426173
	H100	H	0.595581	0.395630	0.120537
	H101	H	0.594226	0.574264	0.892732
	H102	H	0.412563	0.580200	0.121798
	H103	H	0.410232	0.400303	0.892441
	H104	H	0.118354	0.572932	0.416503
	H105	H	0.885518	0.582506	0.601233
	H106	H	0.118773	0.389768	0.591849
	H107	H	0.890655	0.399904	0.416078
	H108	H	0.913865	0.599434	0.100112
	H109	H	0.094695	0.370522	0.090813
	H110	H	0.093378	0.600723	0.911172
	H111	H	0.913184	0.368790	0.917550
	H112	H	0.087148	0.886217	0.620486
	H113	H	0.095905	0.069299	0.392398
	H114	H	0.913522	0.072911	0.617486
	H115	H	0.906851	0.896404	0.390961
	H116	H	0.620376	0.076283	0.909193
	H117	H	0.390111	0.073368	0.096729
	H118	H	0.617522	0.896843	0.093733
	H119	H	0.390262	0.901089	0.912106
	C120	C	0.382563	-0.005905	0.626164
	C121	C	0.623955	0.976835	0.625300
	C122	C	0.624996	-0.005859	0.383392
	C123	C	0.383036	0.977414	0.384331
	C124	C	0.624898	0.364290	0.014405
	C125	C	0.625887	0.606845	0.997989
	C126	C	0.381568	0.607354	0.014941
	C127	C	0.383254	0.364821	0.997939
	C128	C	0.012272	0.604011	0.385891
	C129	C	0.995506	0.605691	0.628403
	C130	C	0.012938	0.362356	0.628211
	C131	C	0.995249	0.362313	0.384871
	C132	C	0.881698	0.491800	0.129369
	C133	C	0.124495	0.475622	0.127172
	C134	C	0.126291	0.492791	0.884387
	C135	C	0.883650	0.475821	0.885804
	C136	C	0.126479	0.862394	0.514644
	C137	C	0.124812	0.105729	0.497323
	C138	C	0.880908	0.107319	0.513609
	C139	C	0.882729	0.864224	0.498087
	C140	C	0.512674	0.106481	0.882999
	C141	C	0.495260	0.106878	0.126570
	C142	C	0.512199	0.864542	0.126170
	C143	C	0.495072	0.863673	0.882864
	C144	C	0.381768	0.872521	0.684852
	C145	C	0.624352	0.098044	0.684294
	C146	C	0.625764	0.872307	0.325734
	C147	C	0.380264	0.098568	0.325104
	C148	C	0.683151	0.364067	0.893558
	C149	C	0.683258	0.608274	0.118611
	C150	C	0.322253	0.608308	0.895160
	C151	C	0.323982	0.362716	0.118348
	C152	C	0.892592	0.664902	0.385085
	C153	C	0.116465	0.663105	0.628152
	C154	C	0.891057	0.306326	0.627271
	C155	C	0.116311	0.303791	0.384990
	C156	C	0.892166	0.362082	0.687019
	C157	C	0.116416	0.605761	0.686085
	C158	C	0.892156	0.606898	0.327173
	C159	C	0.114985	0.358069	0.324448
	C160	C	0.381546	0.664213	0.893692
	C161	C	0.624430	0.665128	0.118560
	C162	C	0.624864	0.306789	0.892968
	C163	C	0.382440	0.305442	0.118057
	C164	C	0.684092	0.872705	0.382756
	C165	C	0.681244	0.098679	0.626032
	C166	C	0.324609	0.872612	0.627031
	C167	C	0.322812	0.098529	0.383137
	C168	C	0.879062	0.371296	0.188285
	C169	C	0.126088	0.595659	0.188435
	C170	C	0.129617	0.372033	0.824913
	C171	C	0.882127	0.596972	0.827125
	C172	C	0.187916	0.858231	0.395696
	C173	C	0.185386	0.109975	0.616430
	C174	C	0.821173	0.111053	0.394488
	C175	C	0.822267	0.862792	0.617480
	C176	C	0.392190	0.166546	0.882382
	C177	C	0.616111	0.164570	0.126711
	C178	C	0.392058	0.805535	0.127731
	C179	C	0.614779	0.803158	0.880620
	C180	C	0.393103	0.860664	0.187637
	C181	C	0.615150	0.108692	0.186107
	C182	C	0.392354	0.109513	0.823933
	C183	C	0.614457	0.860089	0.821946
	C184	C	0.880331	0.166847	0.393986
	C185	C	0.125348	0.164860	0.617781
	C186	C	0.129636	0.800786	0.395574
	C187	C	0.881316	0.805745	0.618362
	C188	C	0.186989	0.372520	0.882845
	C189	C	0.183609	0.596673	0.130829
	C190	C	0.821199	0.371877	0.131184
	C191	C	0.824529	0.597163	0.885032
	C192	C	0.406809	0.078554	0.601783
	C193	C	0.600246	0.892123	0.600582
	C194	C	0.600007	0.078682	0.407846
	C195	C	0.409095	0.893409	0.409183
	C196	C	0.600639	0.388255	0.098340
	C197	C	0.602174	0.581337	0.914372
	C198	C	0.405840	0.583559	0.098785
	C199	C	0.407596	0.389716	0.914212
	C200	C	0.095758	0.578287	0.410044
	C201	C	0.911424	0.581878	0.604880
	C202	C	0.096868	0.386355	0.604044
	C203	C	0.911679	0.388141	0.409249
	C204	C	0.906934	0.576088	0.104922
	C205	C	0.099883	0.391957	0.101199
	C206	C	0.100563	0.576980	0.909090
	C207	C	0.907869	0.391122	0.909808
	C208	C	0.100918	0.888192	0.597452
	C209	C	0.100284	0.080260	0.414091
	C210	C	0.904691	0.082182	0.597535
	C211	C	0.907579	0.888567	0.414636
	C212	C	0.596246	0.081070	0.906865
	C213	C	0.411674	0.082414	0.102249
	C214	C	0.595706	0.889340	0.101545
	C215	C	0.411517	0.888740	0.907414
	Zn216	Zn	0.503082	-0.014860	0.754248
	Zn217	Zn	0.503602	-0.014535	0.255057
	Zn218	Zn	0.754716	0.484334	0.007016
	Zn219	Zn	0.253432	0.485264	0.007012
	Zn220	Zn	0.004365	0.734006	0.507324
	Zn221	Zn	0.003333	0.234303	0.506001
	Zn222	Zn	0.004800	0.484228	0.756448
	Zn223	Zn	0.003995	0.482471	0.255984
	Zn224	Zn	0.503578	0.735650	0.005353
	Zn225	Zn	0.503926	0.234930	0.005044
	Zn226	Zn	0.752965	-0.014174	0.505023
	Zn227	Zn	0.254289	-0.014333	0.505745
	N228	N	0.416845	0.949187	0.684502
	N229	N	0.589835	0.021083	0.684177
	N230	N	0.590007	0.948944	0.325972
	N231	N	0.416776	0.022279	0.325661
	N232	N	0.683525	0.398902	0.970050
	N233	N	0.684227	0.572710	0.042486
	N234	N	0.321883	0.573916	0.971624
	N235	N	0.324328	0.398876	0.042710
	N236	N	0.968330	0.663380	0.420600
	N237	N	0.040240	0.663314	0.593243
	N238	N	0.967012	0.306299	0.591558
	N239	N	0.040843	0.306223	0.421675
	N240	N	0.969059	0.395630	0.688192
	N241	N	0.040207	0.570788	0.686365
	N242	N	0.967657	0.569684	0.327458
	N243	N	0.038714	0.393581	0.324158
	N244	N	0.417651	0.663899	0.969180
	N245	N	0.589806	0.664554	0.042340
	N246	N	0.589425	0.306961	0.969040
	N247	N	0.418614	0.306709	0.042371
	N248	N	0.683902	0.949684	0.417593
	N249	N	0.680843	0.022286	0.589833
	N250	N	0.324820	0.949176	0.591620
	N251	N	0.324320	0.022131	0.419101
	N252	N	0.915883	0.447090	0.187435
	N253	N	0.089998	0.519598	0.186187
	N254	N	0.092523	0.447947	0.825758
	N255	N	0.918168	0.520370	0.827260
	N256	N	0.186208	0.895799	0.470620
	N257	N	0.185105	0.073798	0.540628
	N258	N	0.821517	0.074657	0.469975
	N259	N	0.822825	0.898309	0.541540
	N260	N	0.467857	0.164871	0.918330
	N261	N	0.540618	0.163477	0.090406
	N262	N	0.466911	0.807978	0.089985
	N263	N	0.539559	0.805126	0.917592
	N264	N	0.468748	0.896932	0.186682
	N265	N	0.538942	0.073643	0.186342
	N266	N	0.468189	0.072989	0.823938
	N267	N	0.538959	0.897020	0.823206
	N268	N	0.916949	0.164394	0.469227
	N269	N	0.088273	0.162431	0.542865
	N270	N	0.091974	0.803311	0.470589
	N271	N	0.918255	0.806489	0.543057
	N272	N	0.184899	0.448713	0.919357
	N273	N	0.182552	0.521115	0.093157
	N274	N	0.822876	0.448053	0.095169
	N275	N	0.825416	0.520843	0.920777
	O276	O	0.349343	0.419768	0.595325
	H277	H	0.350722	0.419743	0.578035
	H278	H	0.348479	0.420561	0.606276
	O279	O	0.571402	0.355663	0.487822
	H280	H	0.564031	0.355863	0.481850
	H281	H	0.567096	0.355722	0.502845
	O282	O	0.543388	0.565938	0.515718
	H283	H	0.547593	0.562790	0.510743
	H284	H	0.555061	0.556788	0.522267
	O285	O	1.082112	-0.135189	-0.077452
	H286	H	1.077244	-0.139364	-0.069503
	H287	H	1.075307	-0.136661	-0.092539
	O288	O	-0.191046	-0.205797	1.164889
	H289	H	-0.194986	-0.191339	1.164651
	H290	H	-0.168894	-0.216731	1.171159
	O291	O	0.572953	0.568227	0.626905
	H292	H	0.570328	0.566047	0.633118
	H293	H	0.588043	0.574211	0.613245
	O294	O	0.593423	0.419198	0.386138
	H295	H	0.598627	0.422075	0.386645
	H296	H	0.599270	0.405904	0.391258
	O297	O	1.212534	0.826015	1.024309
	H298	H	1.190848	0.815405	1.038014
	H299	H	1.231803	0.799844	1.019875
	O300	O	-0.196954	-0.057737	0.209739
	H301	H	-0.191006	-0.050144	0.217385
	H302	H	-0.196764	-0.075188	0.219312
	O303	O	0.528548	0.462219	0.362487
	H304	H	0.543326	0.455742	0.360553
	H305	H	0.511506	0.451255	0.356959
	O306	O	1.013667	0.167612	0.206001
	H307	H	1.007509	0.184349	0.222260
	H308	H	0.981331	0.164615	0.196166
	O309	O	0.069959	0.185262	0.927597
	H310	H	0.069224	0.167870	0.948177
	H311	H	0.071682	0.177528	0.948364
	O312	O	0.910227	1.150604	0.066702
	H313	H	0.889477	1.138146	0.053822
	H314	H	0.892939	1.146087	0.048477
	O315	O	-0.202574	0.079145	-0.115726
	H316	H	-0.222810	0.080498	-0.116021
	H317	H	-0.203068	0.068757	-0.118150
	O318	O	0.380056	0.481825	0.595870
	H319	H	0.390566	0.490032	0.592177
	H320	H	0.384859	0.476233	0.592108
	O321	O	0.912013	-0.105990	0.856895
	H322	H	0.924553	-0.081219	0.843218
	H323	H	0.906007	-0.091330	0.877112
	O324	O	-0.032648	0.022618	1.070672
	H325	H	-0.037119	0.013324	1.064388
	H326	H	-0.023228	0.023642	1.046578
	O327	O	-0.178357	-0.023447	0.043232
	H328	H	-0.157573	-0.042905	0.047644
	H329	H	-0.192992	-0.035353	0.073046
	O330	O	0.172540	-0.018636	0.220621
	H331	H	0.199892	-0.018147	0.241366
	H332	H	0.171917	0.001041	0.203100
	O333	O	0.512968	1.439270	0.526687
	H334	H	0.504537	1.443723	0.518966
	H335	H	0.523915	1.432030	0.529826
	O336	O	0.601389	0.635704	0.592653
	H337	H	0.598841	0.624769	0.582880
	H338	H	0.601844	0.624175	0.590259
	O339	O	1.200820	0.086031	0.953196
	H340	H	1.201018	0.067624	0.958569
	H341	H	1.205199	0.079390	0.939562
	O342	O	0.613888	1.479475	0.625974
	H343	H	0.606550	1.474472	0.631208
	H344	H	0.624487	1.492268	0.639712
	O345	O	-0.056998	0.813448	0.970565
	H346	H	-0.066654	0.807579	0.999982
	H347	H	-0.053491	0.814967	0.960636
	O348	O	0.625453	0.544279	0.438252
	H349	H	0.631903	0.530432	0.437808
	H350	H	0.639477	0.540357	0.436024
	O351	O	0.193301	-0.201901	-0.186258
	H352	H	0.205330	-0.210663	-0.160939
	H353	H	0.145745	-0.210390	-0.188184
	O354	O	0.888406	1.165391	0.009171
	H355	H	0.871769	1.178408	0.017083
	H356	H	0.886633	1.166789	-0.019257
	O357	O	1.021857	1.961035	0.223350
	H358	H	1.030622	1.991531	0.224416
	H359	H	1.037423	1.964005	0.219763
	O360	O	0.616006	0.620389	0.593122
	H361	H	0.615770	0.629231	0.603070
	H362	H	0.614190	0.625683	0.599024
	O363	O	-0.204338	0.968223	0.867616
	H364	H	-0.208674	0.972050	0.879036
	H365	H	-0.192171	0.949963	0.882207
	O366	O	1.395810	1.616597	0.411067
	H367	H	1.412030	1.602797	0.405868
	H368	H	1.389827	1.621719	0.436056
	O369	O	0.595112	0.312727	0.582217
	H370	H	0.588427	0.308190	0.593708
	H371	H	0.585241	0.303868	0.586841
	O372	O	0.355553	0.566549	0.521750
	H373	H	0.361740	0.566588	0.531499
	H374	H	0.358712	0.572202	0.524902
	O375	O	0.335032	0.421676	0.475109
	H376	H	0.339290	0.423392	0.465331
	H377	H	0.339100	0.427704	0.463750
	O378	O	0.595269	0.516226	-0.328501
	H379	H	0.588989	0.511146	-0.324660
	H380	H	0.605894	0.520120	-0.321135
	O381	O	0.588283	0.423963	0.425906
	H382	H	0.577350	0.420632	0.419665
	H383	H	0.590527	0.420670	0.424222
	O384	O	0.190867	1.115775	1.200526
	H385	H	0.190378	1.108352	1.209724
	H386	H	0.176744	1.141623	1.181677
	O387	O	1.207909	1.056244	0.013576
	H388	H	1.218033	1.062159	0.024782
	H389	H	1.206638	1.030510	0.023156
	O390	O	0.475583	0.558104	0.433711
	H391	H	0.475498	0.551380	0.442639
	H392	H	0.477917	0.561151	0.431892
	O393	O	1.494686	0.512201	1.428618
	H394	H	1.487795	0.506152	1.428688
	H395	H	1.490207	0.512460	1.428886
	O396	O	0.107466	1.187766	0.981199
	H397	H	0.100376	1.214743	0.968748
	H398	H	0.110547	1.178588	0.971892
	O399	O	0.449249	0.336899	0.588426
	H400	H	0.449791	0.338571	0.601156
	H401	H	0.425675	0.342656	0.580788
	O402	O	1.145548	-0.129936	1.029997
	H403	H	1.158249	-0.138837	1.041915
	H404	H	1.142358	-0.132584	1.009244
	O405	O	-0.022970	-0.219685	0.212718
	H406	H	-0.015264	-0.205585	0.231767
	H407	H	-0.009187	-0.217140	0.229521
	O408	O	0.520683	1.568492	1.367803
	H409	H	0.533324	1.575943	1.382100
	H410	H	0.498664	1.564453	1.374408
	O411	O	0.826950	1.171569	-0.165858
	H412	H	0.855167	1.162615	-0.171649
	H413	H	0.825410	1.146421	-0.170897
	O414	O	0.035431	0.012830	0.853655
	H415	H	0.062994	0.030410	0.843126
	H416	H	0.042728	0.029368	0.849334
	O417	O	0.383349	0.412332	0.501382
	H418	H	0.377436	0.423440	0.500467
	H419	H	0.373507	0.421990	0.502567
	O420	O	0.025180	0.797543	-0.193250
	H421	H	0.012973	0.792877	-0.205145
	H422	H	0.008616	0.810376	-0.192532
	O423	O	0.994804	0.079537	-0.124314
	H424	H	0.989094	0.108730	-0.130609
	H425	H	1.007888	0.087744	-0.104275
	O426	O	0.161303	-0.089256	0.837844
	H427	H	0.185495	-0.096789	0.809568
	H428	H	0.159942	-0.123011	0.847685
	O429	O	-0.203207	0.803500	0.015294
	H430	H	-0.197032	0.790807	0.029673
	H431	H	-0.211933	0.792205	0.031412
