data_Molecule from HDF5

_cell_length_a		16.293417
_cell_length_b		16.218636
_cell_length_c		16.245149
_cell_angle_alpha	89.989683
_cell_angle_beta	89.947910
_cell_angle_gamma	90.214295
_symmetry_space_group_name_H-M	'P 1'
_symmetry_Int_Tables_number		1

loop_
	_symmetry_equiv_pos_as_xyz
	x,y,z

loop_
	_atom_site_label
	_atom_site_type_symbol
	_atom_site_fract_x
	_atom_site_fract_y
	_atom_site_fract_z
	H0	H	0.398405	0.834881	0.714983
	H1	H	0.594080	0.164323	0.713798
	H2	H	0.594064	0.835197	0.287601
	H3	H	0.400116	0.163889	0.287735
	H4	H	0.711417	0.400853	0.836650
	H5	H	0.711229	0.597370	0.165111
	H6	H	0.282994	0.598768	0.836305
	H7	H	0.281612	0.399664	0.164015
	H8	H	0.833352	0.713074	0.401666
	H9	H	0.160961	0.714275	0.598780
	H10	H	0.834217	0.283805	0.598154
	H11	H	0.161637	0.286630	0.400965
	H12	H	0.833618	0.399619	0.714534
	H13	H	0.160264	0.599973	0.716049
	H14	H	0.833148	0.596263	0.286308
	H15	H	0.160867	0.402636	0.285826
	H16	H	0.401021	0.713067	0.836938
	H17	H	0.595455	0.712586	0.165624
	H18	H	0.593435	0.286449	0.836277
	H19	H	0.399398	0.285658	0.164778
	H20	H	0.710749	0.835535	0.401905
	H21	H	0.712620	0.163373	0.600444
	H22	H	0.281246	0.835624	0.599950
	H23	H	0.284426	0.164195	0.402926
	H24	H	0.898940	0.334383	0.213121
	H25	H	0.094936	0.663470	0.213278
	H26	H	0.094104	0.335010	0.786276
	H27	H	0.899879	0.664066	0.786568
	H28	H	0.212290	0.901057	0.336685
	H29	H	0.210380	0.098504	0.665148
	H30	H	0.782418	0.098634	0.337023
	H31	H	0.782700	0.899827	0.664482
	H32	H	0.332496	0.212563	0.903793
	H33	H	0.660184	0.214985	0.099875
	H34	H	0.333553	0.783586	0.100641
	H35	H	0.661023	0.787334	0.904213
	H36	H	0.333834	0.899129	0.216855
	H37	H	0.660825	0.097427	0.214732
	H38	H	0.332785	0.096749	0.787408
	H39	H	0.660700	0.901823	0.786388
	H40	H	0.900402	0.213342	0.336233
	H41	H	0.095687	0.214287	0.663998
	H42	H	0.094483	0.786232	0.336353
	H43	H	0.897995	0.784293	0.664667
	H44	H	0.211251	0.335322	0.900471
	H45	H	0.211164	0.663787	0.097476
	H46	H	0.782139	0.335538	0.099131
	H47	H	0.784430	0.664707	0.902444
	H48	H	0.399533	0.116077	0.587690
	H49	H	0.593818	0.879276	0.601809
	H50	H	0.588996	0.114838	0.412251
	H51	H	0.409777	0.887682	0.418297
	H52	H	0.580344	0.398650	0.116960
	H53	H	0.596075	0.587067	0.884121
	H54	H	0.409153	0.586600	0.114627
	H55	H	0.403830	0.403774	0.882809
	H56	H	0.115359	0.600785	0.410430
	H57	H	0.882079	0.584821	0.595712
	H58	H	0.115245	0.403803	0.594168
	H59	H	0.882330	0.407407	0.410158
	H60	H	0.113206	0.407926	0.589212
	H61	H	0.877310	0.596015	0.598923
	H62	H	0.110127	0.586631	0.411558
	H63	H	0.879412	0.406308	0.402011
	H64	H	0.404772	0.598408	0.119435
	H65	H	0.583751	0.592190	0.886576
	H66	H	0.601345	0.402388	0.122193
	H67	H	0.400673	0.407484	0.882319
	H68	H	0.594477	0.117570	0.408758
	H69	H	0.580618	0.884771	0.594399
	H70	H	0.400050	0.120464	0.600833
	H71	H	0.391281	0.879651	0.410673
	H72	H	0.907054	0.614888	0.091029
	H73	H	0.089302	0.383106	0.090213
	H74	H	0.099907	0.621748	0.900856
	H75	H	0.905198	0.382403	0.904186
	H76	H	0.099519	0.907342	0.620103
	H77	H	0.086218	0.094328	0.384459
	H78	H	0.906162	0.095807	0.617673
	H79	H	0.904606	0.914280	0.386489
	H80	H	0.611472	0.090649	0.910153
	H81	H	0.379272	0.091777	0.100095
	H82	H	0.612286	0.911946	0.095780
	H83	H	0.380675	0.909398	0.905433
	H84	H	0.616075	0.903010	0.100246
	H85	H	0.380214	0.096416	0.091240
	H86	H	0.614790	0.093170	0.902319
	H87	H	0.378570	0.901662	0.906350
	H88	H	0.900538	0.092056	0.617903
	H89	H	0.095212	0.097385	0.380550
	H90	H	0.085389	0.914487	0.613499
	H91	H	0.910587	0.900028	0.383080
	H92	H	0.079735	0.614168	0.902907
	H93	H	0.092665	0.381128	0.093343
	H94	H	0.899049	0.618257	0.092461
	H95	H	0.904128	0.383876	0.910652
	H96	H	0.411108	0.115135	0.594747
	H97	H	0.595048	0.883249	0.586145
	H98	H	0.588511	0.116758	0.405897
	H99	H	0.408222	0.881073	0.397741
	H100	H	0.589654	0.417924	0.114032
	H101	H	0.593686	0.600690	0.881153
	H102	H	0.396274	0.587580	0.118028
	H103	H	0.405207	0.407380	0.884706
	H104	H	0.116274	0.591862	0.398383
	H105	H	0.881916	0.593991	0.586698
	H106	H	0.113640	0.410228	0.595437
	H107	H	0.879726	0.401025	0.407734
	H108	H	0.905109	0.617819	0.098408
	H109	H	0.087890	0.381566	0.095450
	H110	H	0.093471	0.613491	0.919629
	H111	H	0.899575	0.381546	0.907406
	H112	H	0.085470	0.898207	0.618701
	H113	H	0.094124	0.087840	0.384377
	H114	H	0.906528	0.088927	0.616372
	H115	H	0.895354	0.903029	0.380394
	H116	H	0.614841	0.098707	0.908613
	H117	H	0.382165	0.086989	0.091921
	H118	H	0.612895	0.903228	0.089767
	H119	H	0.381371	0.905836	0.912722
	C120	C	0.375017	0.008135	0.622762
	C121	C	0.618495	0.991046	0.622346
	C122	C	0.618323	0.007951	0.380070
	C123	C	0.375479	0.991257	0.380132
	C124	C	0.618197	0.378379	0.009268
	C125	C	0.619160	0.621386	0.992572
	C126	C	0.375698	0.620282	0.009193
	C127	C	0.375079	0.377635	0.991692
	C128	C	0.005525	0.620841	0.378455
	C129	C	0.988651	0.621138	0.622462
	C130	C	0.005878	0.378022	0.621743
	C131	C	0.989016	0.377578	0.378226
	C132	C	0.875554	0.507730	0.121896
	C133	C	0.118479	0.490694	0.121241
	C134	C	0.118546	0.507800	0.878928
	C135	C	0.875414	0.491671	0.878846
	C136	C	0.118427	0.878309	0.509118
	C137	C	0.119753	0.121791	0.491816
	C138	C	0.876268	0.120755	0.508738
	C139	C	0.874957	0.877102	0.492052
	C140	C	0.505144	0.121483	0.879297
	C141	C	0.488505	0.120824	0.122796
	C142	C	0.505411	0.877145	0.123782
	C143	C	0.488594	0.877852	0.879553
	C144	C	0.377963	0.884062	0.677148
	C145	C	0.615614	0.115008	0.676729
	C146	C	0.615159	0.884332	0.325066
	C147	C	0.379232	0.114827	0.325058
	C148	C	0.673040	0.380930	0.885300
	C149	C	0.673890	0.618309	0.116095
	C150	C	0.320728	0.618809	0.885367
	C151	C	0.319876	0.379647	0.115294
	C152	C	0.882043	0.674883	0.381421
	C153	C	0.112055	0.676207	0.619233
	C154	C	0.882914	0.321972	0.618928
	C155	C	0.112576	0.324106	0.380823
	C156	C	0.882661	0.379574	0.676620
	C157	C	0.111644	0.619662	0.677740
	C158	C	0.882047	0.616940	0.324042
	C159	C	0.112196	0.381173	0.323231
	C160	C	0.379186	0.675652	0.885670
	C161	C	0.616186	0.675484	0.116308
	C162	C	0.614709	0.323958	0.885147
	C163	C	0.378329	0.323133	0.115716
	C164	C	0.673326	0.884615	0.381560
	C165	C	0.674452	0.114490	0.620388
	C166	C	0.319377	0.884561	0.620553
	C167	C	0.321657	0.115105	0.382326
	C168	C	0.878539	0.383729	0.175705
	C169	C	0.116193	0.614508	0.176019
	C170	C	0.115063	0.383936	0.823703
	C171	C	0.879414	0.615192	0.824500
	C172	C	0.173627	0.880822	0.385475
	C173	C	0.173434	0.119141	0.615856
	C174	C	0.820984	0.118744	0.385591
	C175	C	0.820425	0.879459	0.615512
	C176	C	0.381563	0.175372	0.882732
	C177	C	0.611786	0.176215	0.119961
	C178	C	0.382295	0.821547	0.121157
	C179	C	0.612062	0.824400	0.882999
	C180	C	0.382426	0.879120	0.178728
	C181	C	0.611779	0.118356	0.177486
	C182	C	0.381627	0.117919	0.825130
	C183	C	0.611778	0.881552	0.824611
	C184	C	0.879573	0.175494	0.385166
	C185	C	0.116361	0.176400	0.615414
	C186	C	0.115515	0.823718	0.385307
	C187	C	0.877624	0.822001	0.615618
	C188	C	0.173475	0.384179	0.880414
	C189	C	0.173214	0.614849	0.117814
	C190	C	0.820195	0.384270	0.119261
	C191	C	0.821963	0.615588	0.882027
	C192	C	0.397057	0.094900	0.600823
	C193	C	0.596375	0.904531	0.600552
	C194	C	0.596885	0.094179	0.402302
	C195	C	0.396679	0.904893	0.402377
	C196	C	0.596750	0.400006	0.095476
	C197	C	0.597580	0.599843	0.906262
	C198	C	0.397121	0.597587	0.095287
	C199	C	0.396884	0.399631	0.905491
	C200	C	0.091684	0.599390	0.400218
	C201	C	0.902681	0.598456	0.600377
	C202	C	0.091772	0.400595	0.599414
	C203	C	0.902977	0.398664	0.399994
	C204	C	0.897529	0.594610	0.100366
	C205	C	0.096455	0.404299	0.099440
	C206	C	0.097298	0.594020	0.901258
	C207	C	0.896621	0.404825	0.901080
	C208	C	0.096511	0.900321	0.595117
	C209	C	0.098332	0.099696	0.405460
	C210	C	0.898025	0.098694	0.595045
	C211	C	0.896980	0.899247	0.405597
	C212	C	0.591297	0.100437	0.900660
	C213	C	0.402609	0.098309	0.100983
	C214	C	0.591438	0.899338	0.101741
	C215	C	0.402396	0.899312	0.901627
	Zn216	Zn	0.496606	-0.000389	0.750967
	Zn217	Zn	0.496977	-0.000616	0.251808
	Zn218	Zn	0.747256	0.499870	0.000567
	Zn219	Zn	0.247041	0.499052	0.000080
	Zn220	Zn	-0.003190	0.749376	0.500397
	Zn221	Zn	-0.002012	0.249321	0.500070
	Zn222	Zn	-0.002792	0.499825	0.750373
	Zn223	Zn	-0.002684	0.498810	0.250202
	Zn224	Zn	0.497155	0.749308	0.001705
	Zn225	Zn	0.496826	0.249451	0.000899
	Zn226	Zn	0.747267	-0.000765	0.501050
	Zn227	Zn	0.247037	0.000113	0.501060
	N228	N	0.411653	0.962063	0.678744
	N229	N	0.581568	0.037226	0.678151
	N230	N	0.581582	0.961985	0.323998
	N231	N	0.412021	0.036786	0.323606
	N232	N	0.675562	0.413873	0.963437
	N233	N	0.675824	0.585325	0.038195
	N234	N	0.318507	0.585181	0.963247
	N235	N	0.317731	0.412832	0.037313
	N236	N	0.959730	0.677296	0.414568
	N237	N	0.034510	0.677341	0.585644
	N238	N	0.960498	0.320982	0.585468
	N239	N	0.035041	0.321717	0.414417
	N240	N	0.960237	0.413644	0.678551
	N241	N	0.033972	0.586137	0.679616
	N242	N	0.959906	0.584028	0.322077
	N243	N	0.034453	0.413707	0.321540
	N244	N	0.412684	0.676602	0.963381
	N245	N	0.582731	0.677436	0.038524
	N246	N	0.581480	0.322175	0.963022
	N247	N	0.411905	0.321798	0.037906
	N248	N	0.675314	0.962449	0.415247
	N249	N	0.676447	0.036301	0.587407
	N250	N	0.317687	0.962723	0.587493
	N251	N	0.319382	0.037308	0.416056
	N252	N	0.912272	0.461666	0.177508
	N253	N	0.082779	0.536572	0.178048
	N254	N	0.081882	0.461907	0.822456
	N255	N	0.911932	0.537075	0.822656
	N256	N	0.175578	0.914045	0.463458
	N257	N	0.175728	0.085911	0.537926
	N258	N	0.819092	0.085247	0.463360
	N259	N	0.818698	0.913070	0.537700
	N260	N	0.459267	0.177576	0.915918
	N261	N	0.534261	0.177826	0.086537
	N262	N	0.459994	0.820360	0.087713
	N263	N	0.534515	0.822303	0.916625
	N264	N	0.459918	0.912850	0.180581
	N265	N	0.534217	0.084635	0.179283
	N266	N	0.459371	0.085116	0.822872
	N267	N	0.533830	0.913914	0.822366
	N268	N	0.913301	0.176784	0.462805
	N269	N	0.083609	0.178211	0.537442
	N270	N	0.081745	0.822110	0.462936
	N271	N	0.910959	0.820596	0.537776
	N272	N	0.175695	0.462000	0.914004
	N273	N	0.174864	0.536751	0.084583
	N274	N	0.818136	0.462540	0.086542
	N275	N	0.819174	0.537406	0.914964
	O276	O	1.007848	0.005581	0.971139
	H277	H	1.010161	0.000500	0.971543
	H278	H	1.007993	0.005981	0.970301
	O279	O	0.480803	0.528529	0.510308
	H280	H	0.482587	0.529335	0.507361
	H281	H	0.479313	0.527286	0.516010
	O282	O	0.990638	0.992305	-0.012994
	H283	H	0.990875	0.995418	-0.015442
	H284	H	0.992018	0.989479	-0.013319
	O285	O	0.470592	0.507941	0.569279
	H286	H	0.469688	0.505459	0.570480
	H287	H	0.464826	0.509526	0.574831
