data_Molecule from HDF5

_cell_length_a		16.273208
_cell_length_b		16.354514
_cell_length_c		16.053950
_cell_angle_alpha	89.806818
_cell_angle_beta	90.029317
_cell_angle_gamma	90.002572
_symmetry_space_group_name_H-M	'P 1'
_symmetry_Int_Tables_number		1

loop_
	_symmetry_equiv_pos_as_xyz
	x,y,z

loop_
	_atom_site_label
	_atom_site_type_symbol
	_atom_site_fract_x
	_atom_site_fract_y
	_atom_site_fract_z
	H0	H	0.394684	0.841944	0.715216
	H1	H	0.587795	0.169791	0.712275
	H2	H	0.588336	0.841103	0.288476
	H3	H	0.395931	0.169215	0.287419
	H4	H	0.705204	0.407196	0.836798
	H5	H	0.703700	0.602515	0.167638
	H6	H	0.279164	0.602884	0.835451
	H7	H	0.278070	0.407126	0.167020
	H8	H	0.828236	0.721828	0.399987
	H9	H	0.154830	0.720125	0.601749
	H10	H	0.827956	0.287940	0.604262
	H11	H	0.153991	0.288427	0.399534
	H12	H	0.826418	0.409455	0.714132
	H13	H	0.156160	0.597958	0.711826
	H14	H	0.826570	0.601201	0.289108
	H15	H	0.156612	0.410542	0.289984
	H16	H	0.391304	0.719967	0.836071
	H17	H	0.591247	0.719568	0.165958
	H18	H	0.590276	0.294128	0.835135
	H19	H	0.392308	0.291280	0.166711
	H20	H	0.707224	0.842721	0.401960
	H21	H	0.707928	0.167675	0.600452
	H22	H	0.275550	0.842824	0.602013
	H23	H	0.275655	0.167727	0.400045
	H24	H	0.894817	0.341954	0.215898
	H25	H	0.087383	0.669664	0.212834
	H26	H	0.086727	0.341431	0.790556
	H27	H	0.895133	0.669992	0.787868
	H28	H	0.203361	0.909073	0.334786
	H29	H	0.204168	0.102024	0.666618
	H30	H	0.779080	0.104064	0.334941
	H31	H	0.777966	0.906562	0.666699
	H32	H	0.328703	0.223094	0.899242
	H33	H	0.655816	0.221086	0.101025
	H34	H	0.329147	0.788116	0.104128
	H35	H	0.654097	0.789170	0.900051
	H36	H	0.326790	0.911547	0.211675
	H37	H	0.657168	0.099389	0.210645
	H38	H	0.326434	0.101343	0.788901
	H39	H	0.656026	0.911621	0.790281
	H40	H	0.891908	0.220775	0.336547
	H41	H	0.090497	0.217973	0.666664
	H42	H	0.089216	0.793733	0.335103
	H43	H	0.893709	0.792030	0.665838
	H44	H	0.207337	0.343458	0.901656
	H45	H	0.207316	0.668189	0.100844
	H46	H	0.775697	0.342428	0.102136
	H47	H	0.774624	0.667978	0.901179
	H48	H	0.394074	0.120379	0.586798
	H49	H	0.576466	0.892576	0.590800
	H50	H	0.584953	0.120075	0.413644
	H51	H	0.385183	0.885598	0.406914
	H52	H	0.588399	0.421721	0.118647
	H53	H	0.576928	0.601726	0.883830
	H54	H	0.399572	0.601060	0.120863
	H55	H	0.407203	0.416592	0.886262
	H56	H	0.113905	0.609516	0.399551
	H57	H	0.876920	0.595231	0.586037
	H58	H	0.110274	0.410553	0.600966
	H59	H	0.872262	0.408116	0.405987
	H60	H	0.107543	0.403633	0.589841
	H61	H	0.872416	0.596172	0.601384
	H62	H	0.106404	0.604920	0.420099
	H63	H	0.876069	0.410377	0.416094
	H64	H	0.395168	0.595086	0.120360
	H65	H	0.588662	0.601516	0.880199
	H66	H	0.572693	0.410604	0.117137
	H67	H	0.398431	0.404032	0.879809
	H68	H	0.593122	0.124260	0.404153
	H69	H	0.593188	0.888351	0.588190
	H70	H	0.392809	0.125404	0.598386
	H71	H	0.403147	0.886998	0.397805
	H72	H	0.895128	0.625176	0.101923
	H73	H	0.090946	0.389243	0.089205
	H74	H	0.091784	0.626176	0.899491
	H75	H	0.884701	0.387865	0.914187
	H76	H	0.096573	0.915649	0.622441
	H77	H	0.084240	0.096390	0.383051
	H78	H	0.895004	0.095059	0.620246
	H79	H	0.892071	0.913023	0.379651
	H80	H	0.610017	0.099874	0.902457
	H81	H	0.376125	0.101981	0.085207
	H82	H	0.607410	0.909399	0.089854
	H83	H	0.376306	0.911225	0.916040
	H84	H	0.608598	0.913221	0.094685
	H85	H	0.375529	0.094139	0.095125
	H86	H	0.610033	0.106728	0.908527
	H87	H	0.375170	0.916911	0.905750
	H88	H	0.902035	0.093988	0.618066
	H89	H	0.081137	0.098432	0.382447
	H90	H	0.075451	0.919040	0.614391
	H91	H	0.901457	0.918048	0.383780
	H92	H	0.076095	0.620583	0.904946
	H93	H	0.088736	0.386039	0.102581
	H94	H	0.902871	0.618491	0.092060
	H95	H	0.898303	0.386077	0.896381
	H96	H	0.403639	0.120104	0.594775
	H97	H	0.586395	0.886546	0.604133
	H98	H	0.580779	0.121994	0.400818
	H99	H	0.401305	0.893122	0.417848
	H100	H	0.588817	0.403331	0.124810
	H101	H	0.583249	0.591264	0.885336
	H102	H	0.402650	0.595011	0.118461
	H103	H	0.391112	0.419089	0.882006
	H104	H	0.106889	0.588698	0.404215
	H105	H	0.872078	0.608656	0.592218
	H106	H	0.105440	0.416028	0.590153
	H107	H	0.876414	0.417741	0.408484
	H108	H	0.889953	0.622450	0.089113
	H109	H	0.077981	0.391361	0.094362
	H110	H	0.089636	0.620711	0.916155
	H111	H	0.906567	0.394089	0.915725
	H112	H	0.081302	0.899374	0.622642
	H113	H	0.084355	0.100022	0.381493
	H114	H	0.900284	0.101030	0.620687
	H115	H	0.901472	0.907170	0.381083
	H116	H	0.606644	0.098368	0.911144
	H117	H	0.372885	0.106755	0.096964
	H118	H	0.610511	0.908003	0.094844
	H119	H	0.371827	0.905708	0.906835
	C120	C	0.369058	0.013984	0.622351
	C121	C	0.613737	0.996933	0.622730
	C122	C	0.613691	0.013888	0.378554
	C123	C	0.368974	0.996537	0.378544
	C124	C	0.611904	0.384682	0.010199
	C125	C	0.611825	0.626037	0.992769
	C126	C	0.370540	0.626176	0.010251
	C127	C	0.370148	0.384485	0.992133
	C128	C	0.000114	0.628058	0.379573
	C129	C	0.982638	0.626827	0.622052
	C130	C	-0.000807	0.382599	0.623106
	C131	C	0.983124	0.383952	0.380801
	C132	C	0.868379	0.513926	0.123440
	C133	C	0.113713	0.496984	0.123350
	C134	C	0.113287	0.514205	0.879450
	C135	C	0.868796	0.497386	0.879635
	C136	C	0.112099	0.884242	0.509784
	C137	C	0.112104	0.126182	0.492188
	C138	C	0.870456	0.126279	0.510108
	C139	C	0.870519	0.884515	0.491670
	C140	C	0.500125	0.128969	0.878814
	C141	C	0.483511	0.128033	0.121648
	C142	C	0.500265	0.882869	0.122298
	C143	C	0.482723	0.883800	0.880281
	C144	C	0.373431	0.890650	0.677143
	C145	C	0.609785	0.120434	0.676247
	C146	C	0.609445	0.890268	0.325285
	C147	C	0.373390	0.119871	0.323682
	C148	C	0.666943	0.387406	0.885677
	C149	C	0.666649	0.623168	0.117676
	C150	C	0.316178	0.623556	0.885064
	C151	C	0.315457	0.386470	0.117410
	C152	C	0.876801	0.683070	0.380733
	C153	C	0.106042	0.681378	0.620810
	C154	C	0.876481	0.327065	0.622668
	C155	C	0.105662	0.327869	0.381227
	C156	C	0.875779	0.387101	0.677625
	C157	C	0.106758	0.621006	0.675617
	C158	C	0.875815	0.623124	0.325862
	C159	C	0.107110	0.388652	0.326676
	C160	C	0.372128	0.681641	0.885452
	C161	C	0.610678	0.681248	0.117024
	C162	C	0.609912	0.331050	0.884972
	C163	C	0.372333	0.329112	0.117083
	C164	C	0.668505	0.890862	0.381686
	C165	C	0.669499	0.119362	0.620751
	C166	C	0.314222	0.891121	0.621101
	C167	C	0.314059	0.119347	0.379998
	C168	C	0.872903	0.390591	0.178590
	C169	C	0.109492	0.620343	0.176848
	C170	C	0.108561	0.390528	0.826894
	C171	C	0.872906	0.620778	0.824799
	C172	C	0.166407	0.887677	0.384373
	C173	C	0.167147	0.122992	0.617050
	C174	C	0.815814	0.124700	0.385165
	C175	C	0.815883	0.886680	0.616902
	C176	C	0.377005	0.183895	0.880569
	C177	C	0.606940	0.182568	0.119965
	C178	C	0.377355	0.827523	0.122055
	C179	C	0.605688	0.828364	0.881429
	C180	C	0.376135	0.888660	0.175652
	C181	C	0.607780	0.122213	0.174763
	C182	C	0.375949	0.123710	0.825425
	C183	C	0.606811	0.889055	0.826702
	C184	C	0.872116	0.182230	0.385695
	C185	C	0.110239	0.180167	0.617215
	C186	C	0.109833	0.830395	0.384689
	C187	C	0.873039	0.829586	0.616576
	C188	C	0.168527	0.391538	0.882118
	C189	C	0.168686	0.619820	0.120850
	C190	C	0.813648	0.391048	0.122258
	C191	C	0.813335	0.619849	0.881228
	C192	C	0.390204	0.099580	0.599847
	C193	C	0.591837	0.911320	0.600907
	C194	C	0.592739	0.099875	0.399807
	C195	C	0.390263	0.910862	0.401004
	C196	C	0.589842	0.405701	0.097594
	C197	C	0.589602	0.604437	0.905603
	C198	C	0.392633	0.603598	0.097363
	C199	C	0.392273	0.406751	0.905217
	C200	C	0.086465	0.607244	0.401316
	C201	C	0.896226	0.606207	0.599719
	C202	C	0.085566	0.403785	0.600326
	C203	C	0.897008	0.405628	0.403526
	C204	C	0.889598	0.599805	0.100984
	C205	C	0.092333	0.411032	0.101690
	C206	C	0.092370	0.600262	0.900683
	C207	C	0.890144	0.411586	0.902102
	C208	C	0.090703	0.905062	0.597250
	C209	C	0.089766	0.104554	0.404824
	C210	C	0.892581	0.103431	0.597273
	C211	C	0.891995	0.906445	0.404111
	C212	C	0.586750	0.107757	0.900720
	C213	C	0.397027	0.107016	0.099271
	C214	C	0.586511	0.903886	0.099827
	C215	C	0.396536	0.905040	0.902788
	Zn216	Zn	0.491204	0.006107	0.751227
	Zn217	Zn	0.492181	0.005457	0.249834
	Zn218	Zn	0.739401	0.505396	0.001564
	Zn219	Zn	0.242188	0.505872	0.001194
	Zn220	Zn	-0.008206	0.756492	0.500770
	Zn221	Zn	-0.008976	0.253952	0.501861
	Zn222	Zn	-0.008829	0.504972	0.750899
	Zn223	Zn	-0.008539	0.505930	0.251837
	Zn224	Zn	0.491138	0.753977	0.001370
	Zn225	Zn	0.491794	0.257592	0.000922
	Zn226	Zn	0.742787	0.005515	0.500348
	Zn227	Zn	0.239821	0.005095	0.500294
	N228	N	0.406943	0.967843	0.678139
	N229	N	0.575646	0.043389	0.677482
	N230	N	0.575913	0.967661	0.323339
	N231	N	0.407116	0.042669	0.322778
	N232	N	0.668237	0.420072	0.964555
	N233	N	0.667338	0.589374	0.039313
	N234	N	0.315223	0.589709	0.963587
	N235	N	0.314088	0.420669	0.038875
	N236	N	0.954980	0.686205	0.413353
	N237	N	0.027782	0.685284	0.588287
	N238	N	0.954390	0.324465	0.589314
	N239	N	0.027583	0.324856	0.414126
	N240	N	0.953119	0.420920	0.677986
	N241	N	0.029072	0.587771	0.676430
	N242	N	0.953292	0.589486	0.324997
	N243	N	0.029904	0.422925	0.326213
	N244	N	0.405345	0.683205	0.964257
	N245	N	0.577200	0.682989	0.038359
	N246	N	0.576227	0.329305	0.963522
	N247	N	0.405774	0.327878	0.038343
	N248	N	0.671192	0.968530	0.414076
	N249	N	0.671972	0.041851	0.587871
	N250	N	0.311392	0.968698	0.587563
	N251	N	0.311097	0.041799	0.413304
	N252	N	0.906252	0.467981	0.179504
	N253	N	0.076017	0.543098	0.178391
	N254	N	0.075147	0.467695	0.825110
	N255	N	0.906580	0.543496	0.823416
	N256	N	0.168119	0.920461	0.463122
	N257	N	0.168426	0.090020	0.538257
	N258	N	0.814870	0.090298	0.463414
	N259	N	0.813947	0.920010	0.538169
	N260	N	0.455282	0.187180	0.913004
	N261	N	0.528587	0.186413	0.087682
	N262	N	0.455572	0.823894	0.089602
	N263	N	0.527435	0.824995	0.914038
	N264	N	0.453520	0.922156	0.176064
	N265	N	0.530040	0.089044	0.175855
	N266	N	0.453496	0.090396	0.824061
	N267	N	0.529358	0.922686	0.825744
	N268	N	0.905316	0.183277	0.464483
	N269	N	0.076775	0.182219	0.538500
	N270	N	0.076801	0.828253	0.463573
	N271	N	0.906302	0.828165	0.537897
	N272	N	0.171446	0.469374	0.914423
	N273	N	0.171486	0.542094	0.088363
	N274	N	0.810943	0.468504	0.088672
	N275	N	0.810889	0.542304	0.914466
	O276	O	0.435302	-0.502427	0.492982
	H277	H	0.431920	-0.499153	0.489891
	H278	H	0.436719	-0.506700	0.494706
	O279	O	0.503528	0.513933	0.509324
	H280	H	0.504281	0.511328	0.506047
	H281	H	0.499175	0.519224	0.504353
	O282	O	0.505616	0.492270	0.521044
	H283	H	0.506558	0.487351	0.524532
	H284	H	0.507721	0.486464	0.523588
	O285	O	0.500750	0.477922	0.524299
	H286	H	0.505057	0.476947	0.523494
	H287	H	0.501336	0.477069	0.523832
	O288	O	0.496718	0.492169	0.474539
	H289	H	0.498146	0.488028	0.470765
	H290	H	0.487561	0.491756	0.470215
	O291	O	0.513189	0.500147	0.506195
	H292	H	0.524423	0.501160	0.510231
	H293	H	0.511418	0.506074	0.515453
	O294	O	0.507653	0.530657	0.563071
	H295	H	0.501802	0.532117	0.563517
	H296	H	0.508928	0.542122	0.569641
	O297	O	1.516174	0.477687	0.542605
	H298	H	1.520891	0.476441	0.549027
	H299	H	1.514158	0.479254	0.541727
