data_Molecule from HDF5

_cell_length_a		16.267005
_cell_length_b		16.231024
_cell_length_c		16.243830
_cell_angle_alpha	89.824575
_cell_angle_beta	90.129676
_cell_angle_gamma	90.029844
_symmetry_space_group_name_H-M	'P 1'
_symmetry_Int_Tables_number		1

loop_
	_symmetry_equiv_pos_as_xyz
	x,y,z

loop_
	_atom_site_label
	_atom_site_type_symbol
	_atom_site_fract_x
	_atom_site_fract_y
	_atom_site_fract_z
	H0	H	0.399974	0.833900	0.712747
	H1	H	0.595248	0.163599	0.713550
	H2	H	0.594995	0.834341	0.287346
	H3	H	0.399243	0.163234	0.285823
	H4	H	0.710428	0.401746	0.835939
	H5	H	0.710514	0.595828	0.164523
	H6	H	0.282655	0.596897	0.836089
	H7	H	0.284026	0.400924	0.164356
	H8	H	0.834031	0.714367	0.401679
	H9	H	0.162137	0.712064	0.599228
	H10	H	0.832845	0.285885	0.597770
	H11	H	0.161794	0.287103	0.403902
	H12	H	0.832917	0.401680	0.713673
	H13	H	0.161272	0.596414	0.715535
	H14	H	0.833873	0.599212	0.284684
	H15	H	0.160804	0.402135	0.287206
	H16	H	0.398619	0.712709	0.835931
	H17	H	0.594523	0.712035	0.165332
	H18	H	0.593730	0.286384	0.836002
	H19	H	0.399371	0.284883	0.164861
	H20	H	0.711105	0.834379	0.401797
	H21	H	0.711432	0.163258	0.597211
	H22	H	0.283803	0.834162	0.597473
	H23	H	0.284399	0.163407	0.401980
	H24	H	0.899584	0.335100	0.213993
	H25	H	0.094806	0.663405	0.213511
	H26	H	0.094209	0.334284	0.787787
	H27	H	0.899161	0.664091	0.786140
	H28	H	0.210026	0.902859	0.335746
	H29	H	0.212361	0.097187	0.664597
	H30	H	0.782948	0.098207	0.335983
	H31	H	0.782993	0.899554	0.664547
	H32	H	0.333085	0.213290	0.901354
	H33	H	0.661583	0.211929	0.098229
	H34	H	0.332621	0.785303	0.098294
	H35	H	0.661297	0.787206	0.904642
	H36	H	0.332652	0.900945	0.213738
	H37	H	0.661061	0.095731	0.214249
	H38	H	0.332765	0.096570	0.785838
	H39	H	0.660960	0.901702	0.787538
	H40	H	0.899653	0.213533	0.335812
	H41	H	0.094589	0.211743	0.664953
	H42	H	0.095027	0.786142	0.335858
	H43	H	0.900599	0.785181	0.664691
	H44	H	0.209992	0.334343	0.903015
	H45	H	0.212278	0.662841	0.099511
	H46	H	0.782863	0.334964	0.098866
	H47	H	0.783163	0.664009	0.901876
	H48	H	0.408920	0.113749	0.589907
	H49	H	0.587830	0.880222	0.600977
	H50	H	0.593543	0.118417	0.402513
	H51	H	0.403552	0.879139	0.401059
	H52	H	0.579780	0.404766	0.114771
	H53	H	0.596639	0.590880	0.881825
	H54	H	0.404142	0.589440	0.116614
	H55	H	0.394705	0.405111	0.880698
	H56	H	0.115300	0.600303	0.409531
	H57	H	0.881826	0.579548	0.601858
	H58	H	0.116328	0.399367	0.596283
	H59	H	0.878522	0.401997	0.405376
	H60	H	0.112160	0.405744	0.590173
	H61	H	0.875216	0.605974	0.599128
	H62	H	0.111131	0.587710	0.411706
	H63	H	0.881955	0.406426	0.411061
	H64	H	0.406055	0.594385	0.117347
	H65	H	0.584732	0.589393	0.885597
	H66	H	0.595805	0.395606	0.121467
	H67	H	0.406790	0.414334	0.886979
	H68	H	0.584438	0.114186	0.406478
	H69	H	0.586411	0.884883	0.588760
	H70	H	0.398146	0.117182	0.590257
	H71	H	0.407119	0.883150	0.409263
	H72	H	0.908075	0.616348	0.096772
	H73	H	0.089424	0.384624	0.086591
	H74	H	0.089380	0.618292	0.900698
	H75	H	0.895010	0.381144	0.911315
	H76	H	0.092569	0.906810	0.616937
	H77	H	0.089280	0.104715	0.380643
	H78	H	0.901792	0.097382	0.618899
	H79	H	0.912742	0.902513	0.384682
	H80	H	0.614057	0.098171	0.910851
	H81	H	0.384833	0.088727	0.080276
	H82	H	0.613073	0.908573	0.094999
	H83	H	0.378955	0.908256	0.905534
	H84	H	0.615044	0.903854	0.096966
	H85	H	0.380192	0.082390	0.101456
	H86	H	0.611258	0.086563	0.908634
	H87	H	0.378344	0.903632	0.903107
	H88	H	0.899927	0.088856	0.617039
	H89	H	0.101131	0.090053	0.381644
	H90	H	0.088528	0.907166	0.616793
	H91	H	0.897362	0.901723	0.379962
	H92	H	0.083875	0.612678	0.911084
	H93	H	0.099026	0.378510	0.097219
	H94	H	0.904208	0.614670	0.086651
	H95	H	0.904261	0.379784	0.898368
	H96	H	0.404656	0.117466	0.598998
	H97	H	0.598547	0.880031	0.593010
	H98	H	0.593252	0.114953	0.413119
	H99	H	0.397782	0.880752	0.408775
	H100	H	0.596680	0.414540	0.116523
	H101	H	0.589109	0.600305	0.881406
	H102	H	0.401276	0.593767	0.118751
	H103	H	0.409518	0.398650	0.882524
	H104	H	0.116191	0.591526	0.399440
	H105	H	0.885191	0.591713	0.577761
	H106	H	0.114878	0.408601	0.599968
	H107	H	0.879984	0.409565	0.403369
	H108	H	0.897402	0.618579	0.094270
	H109	H	0.084087	0.381551	0.100890
	H110	H	0.096324	0.616831	0.911460
	H111	H	0.909686	0.385590	0.912211
	H112	H	0.090598	0.903860	0.617778
	H113	H	0.083087	0.087557	0.386666
	H114	H	0.908621	0.091702	0.616034
	H115	H	0.903196	0.915169	0.386090
	H116	H	0.616340	0.093852	0.899964
	H117	H	0.376244	0.103883	0.095906
	H118	H	0.613079	0.903644	0.091892
	H119	H	0.379381	0.903209	0.908622
	C120	C	0.376144	0.007476	0.621149
	C121	C	0.619252	0.990553	0.622064
	C122	C	0.618730	0.007192	0.379121
	C123	C	0.375305	0.990051	0.378374
	C124	C	0.618647	0.377606	0.008760
	C125	C	0.618066	0.620828	0.991869
	C126	C	0.375596	0.620339	0.008857
	C127	C	0.375665	0.377269	0.991761
	C128	C	0.005904	0.621549	0.378480
	C129	C	0.989072	0.620396	0.621906
	C130	C	0.005714	0.376962	0.622750
	C131	C	0.988537	0.378131	0.378956
	C132	C	0.875417	0.508097	0.121399
	C133	C	0.119039	0.490387	0.122520
	C134	C	0.118147	0.507122	0.879439
	C135	C	0.874954	0.491011	0.878964
	C136	C	0.118753	0.877946	0.508734
	C137	C	0.119090	0.121000	0.492063
	C138	C	0.875536	0.121093	0.508458
	C139	C	0.876173	0.877639	0.492126
	C140	C	0.505363	0.120928	0.878096
	C141	C	0.488985	0.119852	0.121190
	C142	C	0.504950	0.877183	0.122337
	C143	C	0.488062	0.877248	0.878457
	C144	C	0.379129	0.883219	0.675568
	C145	C	0.616117	0.114339	0.676305
	C146	C	0.615358	0.883406	0.324982
	C147	C	0.378893	0.114178	0.323946
	C148	C	0.672752	0.381148	0.884954
	C149	C	0.672984	0.617355	0.115623
	C150	C	0.320638	0.617391	0.884988
	C151	C	0.321404	0.379964	0.115488
	C152	C	0.882605	0.676141	0.381357
	C153	C	0.112999	0.674648	0.619544
	C154	C	0.881954	0.322898	0.619200
	C155	C	0.112617	0.324218	0.383161
	C156	C	0.881802	0.380668	0.676435
	C157	C	0.112659	0.617153	0.677344
	C158	C	0.882526	0.618938	0.323395
	C159	C	0.112216	0.381360	0.325076
	C160	C	0.378363	0.674874	0.884848
	C161	C	0.615202	0.674789	0.115927
	C162	C	0.614993	0.323724	0.885005
	C163	C	0.378910	0.322695	0.115682
	C164	C	0.673112	0.883460	0.381898
	C165	C	0.673734	0.114275	0.618685
	C166	C	0.321555	0.883291	0.618260
	C167	C	0.321355	0.114121	0.381016
	C168	C	0.878731	0.384095	0.176161
	C169	C	0.115373	0.614393	0.176192
	C170	C	0.114817	0.383404	0.825397
	C171	C	0.878138	0.614896	0.823696
	C172	C	0.172763	0.881463	0.384764
	C173	C	0.173897	0.117354	0.615678
	C174	C	0.821050	0.118373	0.384789
	C175	C	0.821204	0.880029	0.615714
	C176	C	0.381939	0.175516	0.880977
	C177	C	0.612532	0.174164	0.118515
	C178	C	0.381599	0.822878	0.119006
	C179	C	0.611963	0.823929	0.882768
	C180	C	0.381744	0.880108	0.176657
	C181	C	0.612084	0.116907	0.176512
	C182	C	0.381838	0.117856	0.823293
	C183	C	0.611771	0.881134	0.824967
	C184	C	0.878870	0.175799	0.384847
	C185	C	0.115298	0.173962	0.616208
	C186	C	0.115486	0.823797	0.384783
	C187	C	0.879123	0.822669	0.615706
	C188	C	0.172791	0.383512	0.882323
	C189	C	0.174085	0.613894	0.119872
	C190	C	0.820469	0.384240	0.119320
	C191	C	0.820499	0.614931	0.881018
	C192	C	0.397546	0.093745	0.599336
	C193	C	0.597397	0.904232	0.600648
	C194	C	0.596940	0.093558	0.400888
	C195	C	0.396442	0.903293	0.400069
	C196	C	0.597226	0.398909	0.095295
	C197	C	0.596599	0.599753	0.905284
	C198	C	0.397214	0.598884	0.095328
	C199	C	0.397168	0.399428	0.905680
	C200	C	0.091951	0.599731	0.400491
	C201	C	0.903055	0.598724	0.599710
	C202	C	0.092264	0.398141	0.601787
	C203	C	0.902312	0.399677	0.400140
	C204	C	0.897049	0.594213	0.099208
	C205	C	0.097378	0.403892	0.101181
	C206	C	0.096343	0.593619	0.901344
	C207	C	0.896628	0.404587	0.900842
	C208	C	0.096858	0.899367	0.594889
	C209	C	0.097648	0.100255	0.405300
	C210	C	0.897098	0.099006	0.595122
	C211	C	0.897881	0.900022	0.405914
	C212	C	0.591578	0.099212	0.899972
	C213	C	0.402619	0.098208	0.099018
	C214	C	0.591554	0.898964	0.100863
	C215	C	0.401269	0.898724	0.899438
	Zn216	Zn	0.496868	-0.001084	0.750076
	Zn217	Zn	0.496706	-0.001356	0.250977
	Zn218	Zn	0.746780	0.499413	-0.000033
	Zn219	Zn	0.246869	0.498610	0.000251
	Zn220	Zn	-0.002230	0.749390	0.500461
	Zn221	Zn	-0.002749	0.249373	0.500841
	Zn222	Zn	-0.003059	0.498929	0.750596
	Zn223	Zn	-0.002824	0.499394	0.250188
	Zn224	Zn	0.496682	0.749683	0.000389
	Zn225	Zn	0.497021	0.249276	0.000400
	Zn226	Zn	0.747502	-0.001212	0.499993
	Zn227	Zn	0.247337	-0.000945	0.500004
	N228	N	0.412309	0.961236	0.677661
	N229	N	0.583008	0.036338	0.678620
	N230	N	0.581914	0.961280	0.323169
	N231	N	0.411677	0.035980	0.322146
	N232	N	0.675201	0.413761	0.963157
	N233	N	0.674778	0.584623	0.037686
	N234	N	0.318763	0.584189	0.963050
	N235	N	0.319262	0.413304	0.037686
	N236	N	0.960304	0.677877	0.414789
	N237	N	0.035275	0.676847	0.585708
	N238	N	0.959905	0.320769	0.586417
	N239	N	0.034778	0.322314	0.416262
	N240	N	0.959666	0.413546	0.678856
	N241	N	0.034669	0.584068	0.678717
	N242	N	0.960203	0.585629	0.321443
	N243	N	0.034401	0.414155	0.322489
	N244	N	0.411588	0.677039	0.962759
	N245	N	0.581723	0.677160	0.037884
	N246	N	0.582040	0.321395	0.962883
	N247	N	0.411818	0.320729	0.037695
	N248	N	0.675051	0.961287	0.415171
	N249	N	0.675736	0.036433	0.585580
	N250	N	0.319458	0.961420	0.585100
	N251	N	0.319025	0.036061	0.414228
	N252	N	0.912211	0.461986	0.177657
	N253	N	0.081956	0.536540	0.177895
	N254	N	0.081591	0.461346	0.823435
	N255	N	0.911403	0.536852	0.822268
	N256	N	0.174866	0.914272	0.462537
	N257	N	0.176296	0.085190	0.537275
	N258	N	0.818848	0.085144	0.462763
	N259	N	0.819002	0.913227	0.537599
	N260	N	0.459904	0.177861	0.914044
	N261	N	0.534785	0.176181	0.084904
	N262	N	0.459453	0.820921	0.086176
	N263	N	0.533946	0.821631	0.915331
	N264	N	0.459621	0.913103	0.178949
	N265	N	0.534325	0.083724	0.178103
	N266	N	0.459609	0.084805	0.821401
	N267	N	0.533704	0.913599	0.822313
	N268	N	0.912049	0.177444	0.462799
	N269	N	0.082127	0.176488	0.538357
	N270	N	0.082632	0.821383	0.462950
	N271	N	0.912391	0.821104	0.538126
	N272	N	0.174982	0.461565	0.915064
	N273	N	0.176468	0.535926	0.087037
	N274	N	0.818151	0.462190	0.085976
	N275	N	0.818384	0.537032	0.914524
	O276	O	0.980579	0.069962	0.959306
	H277	H	0.978998	0.069837	0.960216
	H278	H	0.980273	0.075403	0.951908
	O279	O	0.519451	0.470831	0.565329
	H280	H	0.517967	0.468623	0.569446
	H281	H	0.518676	0.471297	0.561930
	O282	O	0.943632	1.070378	-0.018233
	H283	H	0.940732	1.073873	-0.018677
	H284	H	0.942268	1.072019	-0.022713
	O285	O	0.507611	0.473386	0.587893
	H286	H	0.501240	0.471388	0.588362
	H287	H	0.508429	0.473559	0.591955
