data_Molecule from HDF5

_cell_length_a		16.062744
_cell_length_b		16.430102
_cell_length_c		16.449530
_cell_angle_alpha	90.092192
_cell_angle_beta	89.701447
_cell_angle_gamma	89.708792
_symmetry_space_group_name_H-M	'P 1'
_symmetry_Int_Tables_number		1

loop_
	_symmetry_equiv_pos_as_xyz
	x,y,z

loop_
	_atom_site_label
	_atom_site_type_symbol
	_atom_site_fract_x
	_atom_site_fract_y
	_atom_site_fract_z
	H0	H	0.387896	0.830099	0.715859
	H1	H	0.604588	0.144608	0.712542
	H2	H	0.607988	0.830095	0.264473
	H3	H	0.388538	0.146062	0.270999
	H4	H	0.716199	0.384164	0.830903
	H5	H	0.715952	0.589051	0.150578
	H6	H	0.281840	0.586746	0.829716
	H7	H	0.279045	0.387829	0.152318
	H8	H	0.835694	0.705023	0.383814
	H9	H	0.160693	0.702163	0.592218
	H10	H	0.833607	0.270518	0.590888
	H11	H	0.159081	0.263677	0.383613
	H12	H	0.835481	0.380374	0.709405
	H13	H	0.160599	0.586602	0.706670
	H14	H	0.835853	0.587867	0.271509
	H15	H	0.160211	0.378179	0.269137
	H16	H	0.389947	0.709979	0.833377
	H17	H	0.604086	0.709790	0.149356
	H18	H	0.607516	0.261726	0.834863
	H19	H	0.387801	0.264853	0.150022
	H20	H	0.717085	0.825940	0.386448
	H21	H	0.714331	0.146948	0.590205
	H22	H	0.279078	0.826161	0.593251
	H23	H	0.279533	0.147821	0.393716
	H24	H	0.889466	0.327723	0.212361
	H25	H	0.105215	0.642183	0.212888
	H26	H	0.107758	0.326195	0.767343
	H27	H	0.889761	0.643105	0.766059
	H28	H	0.217878	0.883964	0.329305
	H29	H	0.209872	0.083889	0.652051
	H30	H	0.780920	0.084788	0.329224
	H31	H	0.778139	0.884421	0.650308
	H32	H	0.334620	0.205424	0.891328
	H33	H	0.659280	0.205409	0.095988
	H34	H	0.333399	0.770388	0.096837
	H35	H	0.658027	0.765211	0.884558
	H36	H	0.334296	0.884963	0.210276
	H37	H	0.660078	0.089825	0.208315
	H38	H	0.334536	0.092514	0.774346
	H39	H	0.658195	0.879002	0.769044
	H40	H	0.888063	0.208264	0.332316
	H41	H	0.104347	0.209325	0.646594
	H42	H	0.105913	0.763488	0.329956
	H43	H	0.890934	0.763005	0.648393
	H44	H	0.215873	0.324661	0.892153
	H45	H	0.211509	0.648146	0.090454
	H46	H	0.778512	0.325941	0.091986
	H47	H	0.778688	0.646073	0.888211
	H48	H	0.406335	0.099636	0.577672
	H49	H	0.583798	0.872765	0.583388
	H50	H	0.590269	0.100790	0.404838
	H51	H	0.417596	0.877804	0.406542
	H52	H	0.587239	0.395528	0.105911
	H53	H	0.583012	0.580868	0.877363
	H54	H	0.411134	0.574475	0.102774
	H55	H	0.409917	0.402972	0.880180
	H56	H	0.113718	0.575128	0.404935
	H57	H	0.883091	0.570056	0.577367
	H58	H	0.113993	0.393807	0.576004
	H59	H	0.881261	0.403720	0.393011
	H60	H	0.113205	0.396834	0.575971
	H61	H	0.880065	0.573941	0.581014
	H62	H	0.112583	0.567637	0.398415
	H63	H	0.877642	0.387440	0.398766
	H64	H	0.409143	0.589238	0.107427
	H65	H	0.588968	0.576549	0.876657
	H66	H	0.585382	0.398503	0.104520
	H67	H	0.416468	0.391318	0.878874
	H68	H	0.587821	0.102486	0.393048
	H69	H	0.583079	0.874239	0.578833
	H70	H	0.399822	0.103602	0.586788
	H71	H	0.400362	0.870701	0.403021
	H72	H	0.912041	0.597310	0.078992
	H73	H	0.084487	0.376161	0.069098
	H74	H	0.084684	0.599019	0.896043
	H75	H	0.907924	0.371083	0.898461
	H76	H	0.090922	0.893280	0.604959
	H77	H	0.086277	0.074809	0.375585
	H78	H	0.900585	0.075082	0.605920
	H79	H	0.909411	0.892206	0.375598
	H80	H	0.614445	0.073229	0.898492
	H81	H	0.380198	0.072924	0.087924
	H82	H	0.611745	0.899911	0.075682
	H83	H	0.379814	0.897857	0.901729
	H84	H	0.613376	0.899473	0.081285
	H85	H	0.376991	0.084645	0.081948
	H86	H	0.614865	0.078560	0.902516
	H87	H	0.381558	0.900098	0.906704
	H88	H	0.911950	0.073459	0.601210
	H89	H	0.086095	0.074905	0.376071
	H90	H	0.082786	0.896269	0.601129
	H91	H	0.907549	0.893894	0.375887
	H92	H	0.088052	0.599567	0.897908
	H93	H	0.097603	0.367489	0.082035
	H94	H	0.904649	0.600629	0.079350
	H95	H	0.911781	0.372255	0.897130
	H96	H	0.411252	0.101045	0.587627
	H97	H	0.587233	0.872436	0.579892
	H98	H	0.579823	0.097605	0.400075
	H99	H	0.413514	0.870792	0.389732
	H100	H	0.583868	0.394471	0.104529
	H101	H	0.582831	0.574534	0.879534
	H102	H	0.396379	0.579098	0.108230
	H103	H	0.403360	0.392583	0.875096
	H104	H	0.117359	0.576040	0.395229
	H105	H	0.881756	0.575609	0.575357
	H106	H	0.114874	0.395836	0.579151
	H107	H	0.884905	0.399293	0.409879
	H108	H	0.909912	0.600199	0.085537
	H109	H	0.078815	0.371547	0.087859
	H110	H	0.087289	0.600631	0.893608
	H111	H	0.910805	0.372236	0.900581
	H112	H	0.083909	0.887676	0.603687
	H113	H	0.085606	0.075115	0.376263
	H114	H	0.909185	0.084198	0.605212
	H115	H	0.910025	0.894601	0.376574
	H116	H	0.612682	0.072684	0.904511
	H117	H	0.382606	0.074591	0.075050
	H118	H	0.614230	0.894827	0.077855
	H119	H	0.381456	0.902312	0.901836
	C120	C	0.374203	-0.003999	0.614573
	C121	C	0.617838	0.978228	0.611815
	C122	C	0.619301	-0.004620	0.367220
	C123	C	0.377034	0.978376	0.369716
	C124	C	0.619355	0.364251	0.000215
	C125	C	0.617988	0.608969	0.982735
	C126	C	0.374481	0.610736	0.000322
	C127	C	0.376880	0.365540	0.983543
	C128	C	0.007269	0.605242	0.368037
	C129	C	0.989176	0.604771	0.609670
	C130	C	0.006807	0.364043	0.609426
	C131	C	0.988353	0.363525	0.367970
	C132	C	0.876110	0.494311	0.112130
	C133	C	0.118600	0.476887	0.111047
	C134	C	0.120019	0.493948	0.866391
	C135	C	0.876648	0.477250	0.867674
	C136	C	0.120067	0.861496	0.498199
	C137	C	0.117362	0.106441	0.481478
	C138	C	0.875625	0.107600	0.498559
	C139	C	0.875785	0.862388	0.481125
	C140	C	0.506504	0.107607	0.871217
	C141	C	0.487806	0.108214	0.112438
	C142	C	0.505560	0.867078	0.111143
	C143	C	0.487778	0.866460	0.870231
	C144	C	0.371183	0.876819	0.674784
	C145	C	0.621279	0.097259	0.671646
	C146	C	0.624110	0.876641	0.305962
	C147	C	0.372704	0.098721	0.311701
	C148	C	0.678382	0.363964	0.879804
	C149	C	0.677502	0.609233	0.102369
	C150	C	0.318682	0.608223	0.878765
	C151	C	0.317548	0.366994	0.104061
	C152	C	0.884655	0.664985	0.366159
	C153	C	0.111704	0.663194	0.610842
	C154	C	0.883109	0.307707	0.610248
	C155	C	0.110388	0.303203	0.365329
	C156	C	0.884176	0.362325	0.669361
	C157	C	0.111787	0.605762	0.667950
	C158	C	0.884514	0.606995	0.310053
	C159	C	0.111158	0.360577	0.308661
	C160	C	0.372519	0.669571	0.880482
	C161	C	0.621403	0.669355	0.101769
	C162	C	0.623923	0.302975	0.881757
	C163	C	0.372090	0.305942	0.102919
	C164	C	0.678833	0.874797	0.366612
	C165	C	0.676012	0.098561	0.610714
	C166	C	0.316926	0.874990	0.613773
	C167	C	0.317662	0.099339	0.372178
	C168	C	0.872389	0.374924	0.171768
	C169	C	0.121487	0.595967	0.171624
	C170	C	0.124115	0.373935	0.807895
	C171	C	0.872737	0.596064	0.807203
	C172	C	0.179244	0.863168	0.377520
	C173	C	0.173403	0.104983	0.602755
	C174	C	0.818327	0.105915	0.377811
	C175	C	0.816930	0.863586	0.602034
	C176	C	0.383754	0.166909	0.871391
	C177	C	0.610725	0.166234	0.113851
	C178	C	0.382623	0.809307	0.113953
	C179	C	0.609423	0.805176	0.866927
	C180	C	0.383131	0.866081	0.171106
	C181	C	0.610953	0.108958	0.170098
	C182	C	0.383615	0.110304	0.813576
	C183	C	0.609460	0.861981	0.809394
	C184	C	0.872101	0.167214	0.379509
	C185	C	0.120384	0.167235	0.600097
	C186	C	0.123376	0.803126	0.378084
	C187	C	0.872991	0.803127	0.600883
	C188	C	0.178350	0.372962	0.869736
	C189	C	0.174675	0.598699	0.110603
	C190	C	0.816857	0.374107	0.112062
	C191	C	0.817162	0.597489	0.867790
	C192	C	0.398695	0.079592	0.590892
	C193	C	0.592153	0.894728	0.587661
	C194	C	0.593397	0.078714	0.392046
	C195	C	0.403058	0.894796	0.392833
	C196	C	0.593106	0.389021	0.083360
	C197	C	0.592249	0.584412	0.899358
	C198	C	0.398610	0.587863	0.084190
	C199	C	0.402506	0.388916	0.899981
	C200	C	0.092334	0.580133	0.392462
	C201	C	0.903968	0.580160	0.584949
	C202	C	0.091825	0.388426	0.584508
	C203	C	0.903373	0.389261	0.393032
	C204	C	0.901512	0.577660	0.088146
	C205	C	0.093862	0.393649	0.086657
	C206	C	0.094223	0.577809	0.889264
	C207	C	0.902670	0.393698	0.891795
	C208	C	0.093598	0.885303	0.581672
	C209	C	0.092954	0.082155	0.397667
	C210	C	0.900118	0.084308	0.582377
	C211	C	0.901463	0.886475	0.397843
	C212	C	0.591846	0.082295	0.894973
	C213	C	0.402263	0.084376	0.088555
	C214	C	0.590786	0.891156	0.085820
	C215	C	0.402960	0.892622	0.896021
	Zn216	Zn	0.496765	-0.012605	0.742625
	Zn217	Zn	0.496764	-0.012492	0.239031
	Zn218	Zn	0.747627	0.486659	-0.009370
	Zn219	Zn	0.247522	0.486958	-0.009290
	Zn220	Zn	-0.002023	0.732223	0.488626
	Zn221	Zn	-0.003312	0.236760	0.489290
	Zn222	Zn	-0.002107	0.483952	0.737070
	Zn223	Zn	-0.001229	0.484560	0.240735
	Zn224	Zn	0.496179	0.739147	-0.008505
	Zn225	Zn	0.497549	0.234952	-0.007520
	Zn226	Zn	0.746973	-0.013854	0.490064
	Zn227	Zn	0.247129	-0.014246	0.490660
	N228	N	0.406216	0.952985	0.675392
	N229	N	0.586033	0.021279	0.672507
	N230	N	0.587800	0.952552	0.306211
	N231	N	0.408959	0.022692	0.310121
	N232	N	0.675588	0.401487	0.954546
	N233	N	0.675296	0.572442	0.027374
	N234	N	0.319317	0.572727	0.954312
	N235	N	0.320609	0.403635	0.028995
	N236	N	0.962092	0.664217	0.401306
	N237	N	0.034343	0.662743	0.575433
	N238	N	0.960359	0.308466	0.573857
	N239	N	0.033098	0.304765	0.401253
	N240	N	0.961948	0.396584	0.669166
	N241	N	0.034438	0.570377	0.667344
	N242	N	0.961688	0.570487	0.311131
	N243	N	0.033962	0.397180	0.309886
	N244	N	0.406196	0.671420	0.957120
	N245	N	0.585105	0.669339	0.026108
	N246	N	0.587902	0.303008	0.957676
	N247	N	0.408693	0.305242	0.027194
	N248	N	0.676052	0.949713	0.404035
	N249	N	0.673949	0.023279	0.574152
	N250	N	0.318639	0.949952	0.577031
	N251	N	0.320267	0.023653	0.407639
	N252	N	0.908599	0.450657	0.172161
	N253	N	0.087243	0.519360	0.172233
	N254	N	0.088588	0.450266	0.805809
	N255	N	0.909156	0.520175	0.807057
	N256	N	0.177465	0.898650	0.453262
	N257	N	0.171436	0.067616	0.527859
	N258	N	0.820558	0.069309	0.452897
	N259	N	0.818386	0.899522	0.526568
	N260	N	0.461312	0.165464	0.906453
	N261	N	0.533143	0.166029	0.078952
	N262	N	0.459704	0.809716	0.077374
	N263	N	0.532546	0.807885	0.904098
	N264	N	0.460587	0.901247	0.169540
	N265	N	0.533463	0.073672	0.169340
	N266	N	0.460911	0.073973	0.813401
	N267	N	0.532647	0.899187	0.811194
	N268	N	0.906978	0.168449	0.455556
	N269	N	0.086185	0.168047	0.523664
	N270	N	0.087160	0.802178	0.454041
	N271	N	0.908704	0.802089	0.524735
	N272	N	0.176196	0.448723	0.905226
	N273	N	0.173066	0.523734	0.073381
	N274	N	0.819128	0.449281	0.075815
	N275	N	0.819769	0.522542	0.904652
	O276	O	0.624677	0.545751	0.478227
	H277	H	0.613150	0.532922	0.471440
	H278	H	0.626032	0.524332	0.484826
	O279	O	0.540972	0.388995	0.444284
	H280	H	0.556650	0.381671	0.432520
	H281	H	0.537121	0.389275	0.438931
	O282	O	0.480934	0.452857	0.355541
	H283	H	0.474094	0.459641	0.362805
	H284	H	0.475190	0.451581	0.351304
	O285	O	1.026320	-0.071368	0.007352
	H286	H	1.012802	-0.065364	0.001934
	H287	H	1.015411	-0.079149	0.025791
	O288	O	-0.134701	-0.106351	1.091204
	H289	H	-0.149151	-0.126536	1.099800
	H290	H	-0.137704	-0.098118	1.080730
	O291	O	0.698078	0.656146	0.492056
	H292	H	0.687969	0.648041	0.528343
	H293	H	0.727154	0.684747	0.499738
	O294	O	0.562602	0.432056	0.654586
	H295	H	0.547415	0.422019	0.659910
	H296	H	0.560061	0.426723	0.653380
	O297	O	0.994661	1.123707	0.912919
	H298	H	0.990941	1.132617	0.900426
	H299	H	0.995970	1.126367	0.916277
	O300	O	0.110950	0.127973	-0.161590
	H301	H	0.095997	0.117121	-0.173899
	H302	H	0.097213	0.128104	-0.160203
	O303	O	0.673327	0.662948	0.679805
	H304	H	0.661925	0.656857	0.683820
	H305	H	0.661368	0.644579	0.689845
	O306	O	0.876768	-0.174010	-0.060700
	H307	H	0.892278	-0.175683	-0.056995
	H308	H	0.882976	-0.180220	-0.034239
	O309	O	-0.190578	-0.009726	0.978901
	H310	H	-0.186186	-0.008707	0.994146
	H311	H	-0.199427	-0.013652	0.985993
	O312	O	0.931076	0.921776	-0.191118
	H313	H	0.928132	0.915614	-0.186219
	H314	H	0.923617	0.925771	-0.192454
	O315	O	0.505610	0.282142	0.302686
	H316	H	0.541575	0.279947	0.307541
	H317	H	0.499412	0.266435	0.287375
	O318	O	0.354770	0.622479	0.459416
	H319	H	0.364861	0.624497	0.445221
	H320	H	0.367753	0.610784	0.471422
	O321	O	1.059705	-0.070222	0.795606
	H322	H	1.062346	-0.042072	0.808563
	H323	H	1.068405	-0.079040	0.810017
	O324	O	0.189498	-0.188941	0.973124
	H325	H	0.204980	-0.212896	0.959805
	H326	H	0.182574	-0.195937	0.972435
	O327	O	0.671656	0.374164	0.509293
	H328	H	0.660381	0.372536	0.524343
	H329	H	0.672031	0.353309	0.506763
	O330	O	0.476255	0.501531	0.556130
	H331	H	0.479282	0.494842	0.541171
	H332	H	0.479626	0.502514	0.551351
	O333	O	0.773982	1.295867	0.788602
	H334	H	0.774060	1.298723	0.781136
	H335	H	0.770924	1.299848	0.821378
	O336	O	0.677895	0.320026	0.310559
	H337	H	0.674633	0.325588	0.313496
	H338	H	0.691581	0.347457	0.314798
	O339	O	1.065122	-0.143675	1.081028
	H340	H	1.070274	-0.141013	1.088456
	H341	H	1.070103	-0.155751	1.088335
	O342	O	-0.178174	0.840697	1.121184
	H343	H	-0.189451	0.844358	1.100548
	H344	H	-0.164579	0.846325	1.123745
	O345	O	0.166288	1.010005	0.856285
	H346	H	0.164889	1.011256	0.851837
	H347	H	0.146784	1.015774	0.865663
	O348	O	0.322902	0.656631	0.442702
	H349	H	0.344390	0.651718	0.429441
	H350	H	0.303061	0.672976	0.454028
	O351	O	0.019093	0.197144	0.205749
	H352	H	0.068189	0.187467	0.191832
	H353	H	0.023157	0.229301	0.240883
	O354	O	1.174994	1.169477	0.148792
	H355	H	1.180853	1.156887	0.123253
	H356	H	1.194004	1.153325	0.139325
	O357	O	0.420794	1.298370	0.517607
	H358	H	0.420062	1.307055	0.511794
	H359	H	0.421347	1.301529	0.515640
	O360	O	0.380644	0.418475	0.576984
	H361	H	0.380246	0.421403	0.583594
	H362	H	0.381262	0.420309	0.579478
	O363	O	0.537539	0.497393	0.505944
	H364	H	0.532298	0.507938	0.496539
	H365	H	0.547069	0.494458	0.503641
	O366	O	1.316325	1.486271	0.459666
	H367	H	1.310304	1.485294	0.457062
	H368	H	1.320058	1.486988	0.469149
	O369	O	0.634067	0.454058	0.286913
	H370	H	0.631141	0.465701	0.295581
	H371	H	0.643391	0.457416	0.269789
	O372	O	0.477610	0.418486	0.564226
	H373	H	0.471969	0.409075	0.571737
	H374	H	0.468993	0.406864	0.555933
	O375	O	0.386177	0.500750	0.602237
	H376	H	0.386197	0.511444	0.597074
	H377	H	0.377299	0.502089	0.611864
	O378	O	0.477294	0.455184	0.486783
	H379	H	0.489485	0.457837	0.490142
	H380	H	0.479024	0.468043	0.473705
	O381	O	0.330145	0.484109	0.380539
	H382	H	0.317239	0.490291	0.361041
	H383	H	0.346303	0.487911	0.386759
	O384	O	0.049485	0.980705	1.148965
	H385	H	0.036681	0.982991	1.155138
	H386	H	0.046090	0.978229	1.140532
	O387	O	1.155624	0.954373	0.151860
	H388	H	1.136790	0.938764	0.160262
	H389	H	1.176815	0.940176	0.142377
	O390	O	0.430731	0.701870	0.310640
	H391	H	0.434000	0.727390	0.286225
	H392	H	0.443005	0.705088	0.324340
	O393	O	1.550366	0.694111	1.644710
	H394	H	1.539865	0.694549	1.623229
	H395	H	1.561483	0.720405	1.657654
	O396	O	-0.108471	1.131530	1.102533
	H397	H	-0.094732	1.135647	1.110377
	H398	H	-0.094826	1.131504	1.097775
	O399	O	0.586051	0.641758	0.425040
	H400	H	0.595353	0.637331	0.445492
	H401	H	0.588575	0.635328	0.442018
	O402	O	0.854571	0.046534	0.865213
	H403	H	0.835689	0.044294	0.862916
	H404	H	0.849256	0.044112	0.878749
	O405	O	0.036756	-0.086986	0.130716
	H406	H	0.018411	-0.080423	0.145597
	H407	H	0.019775	-0.095562	0.130439
	O408	O	0.393912	1.292706	1.679409
	H409	H	0.386915	1.283362	1.676281
	H410	H	0.376250	1.304047	1.678457
	O411	O	1.057029	1.007950	0.018167
	H412	H	1.066659	0.991184	0.008146
	H413	H	1.053440	1.014139	0.016580
	O414	O	-0.047110	-0.141863	0.890644
	H415	H	-0.050368	-0.141069	0.899541
	H416	H	-0.045433	-0.154500	0.886773
	O417	O	0.466800	0.508603	0.593421
	H418	H	0.462540	0.512831	0.584512
	H419	H	0.454851	0.517001	0.606830
	O420	O	-0.060385	1.067423	0.029229
	H421	H	-0.073656	1.065597	0.034587
	H422	H	-0.064253	1.072978	0.013108
	O423	O	1.099307	-0.201573	-0.204599
	H424	H	1.116456	-0.192455	-0.223504
	H425	H	1.088217	-0.208093	-0.214857
	O426	O	-0.072696	0.165483	0.838808
	H427	H	-0.067588	0.173762	0.830665
	H428	H	-0.091377	0.170746	0.852325
	O429	O	-0.058237	0.923166	-0.020791
	H430	H	-0.051907	0.937469	-0.019429
	H431	H	-0.049702	0.929344	-0.037627
