data_Molecule from HDF5

_cell_length_a		16.135654
_cell_length_b		16.175814
_cell_length_c		16.319903
_cell_angle_alpha	89.985454
_cell_angle_beta	90.649023
_cell_angle_gamma	89.586552
_symmetry_space_group_name_H-M	'P 1'
_symmetry_Int_Tables_number		1

loop_
	_symmetry_equiv_pos_as_xyz
	x,y,z

loop_
	_atom_site_label
	_atom_site_type_symbol
	_atom_site_fract_x
	_atom_site_fract_y
	_atom_site_fract_z
	H0	H	0.402417	0.833841	0.709782
	H1	H	0.603175	0.160829	0.714656
	H2	H	0.604936	0.834280	0.280923
	H3	H	0.397659	0.160798	0.277272
	H4	H	0.711354	0.397145	0.830408
	H5	H	0.717141	0.593962	0.157369
	H6	H	0.283645	0.594657	0.832352
	H7	H	0.285448	0.395838	0.157940
	H8	H	0.837989	0.715171	0.392705
	H9	H	0.166779	0.707067	0.596239
	H10	H	0.835601	0.285749	0.590849
	H11	H	0.165783	0.280961	0.399025
	H12	H	0.835354	0.398103	0.706326
	H13	H	0.163729	0.598149	0.713347
	H14	H	0.837412	0.601716	0.276138
	H15	H	0.164410	0.392610	0.279122
	H16	H	0.393081	0.715086	0.835122
	H17	H	0.601222	0.708313	0.159146
	H18	H	0.598502	0.278451	0.832884
	H19	H	0.403645	0.280690	0.159350
	H20	H	0.715529	0.833462	0.400330
	H21	H	0.714114	0.163280	0.594889
	H22	H	0.291380	0.832808	0.593496
	H23	H	0.283796	0.161064	0.395778
	H24	H	0.899215	0.334111	0.211080
	H25	H	0.102894	0.660092	0.212367
	H26	H	0.098213	0.332163	0.781921
	H27	H	0.897017	0.661611	0.778814
	H28	H	0.215986	0.897480	0.332858
	H29	H	0.218625	0.097758	0.658802
	H30	H	0.782544	0.098819	0.333575
	H31	H	0.790214	0.899026	0.659659
	H32	H	0.335447	0.210386	0.895126
	H33	H	0.664691	0.208074	0.096245
	H34	H	0.335268	0.783083	0.095021
	H35	H	0.664518	0.779005	0.901165
	H36	H	0.337873	0.894826	0.213188
	H37	H	0.664781	0.096306	0.210628
	H38	H	0.336789	0.099264	0.777369
	H39	H	0.665064	0.893863	0.783656
	H40	H	0.896784	0.214537	0.333420
	H41	H	0.102560	0.212582	0.658102
	H42	H	0.103990	0.779202	0.333961
	H43	H	0.906591	0.781719	0.658457
	H44	H	0.213263	0.331749	0.898360
	H45	H	0.214918	0.660544	0.094112
	H46	H	0.791603	0.330283	0.088378
	H47	H	0.780717	0.659919	0.893410
	H48	H	0.404562	0.114668	0.579455
	H49	H	0.605613	0.876522	0.592426
	H50	H	0.586677	0.117907	0.389788
	H51	H	0.420979	0.881305	0.396745
	H52	H	0.591550	0.408228	0.107751
	H53	H	0.581288	0.589710	0.880967
	H54	H	0.412927	0.596411	0.114537
	H55	H	0.413025	0.396971	0.879419
	H56	H	0.123162	0.586111	0.391897
	H57	H	0.885987	0.588331	0.579094
	H58	H	0.116963	0.405365	0.586621
	H59	H	0.883460	0.412657	0.396950
	H60	H	0.119142	0.407323	0.593123
	H61	H	0.881899	0.587023	0.592094
	H62	H	0.119012	0.596463	0.410813
	H63	H	0.880977	0.402052	0.398250
	H64	H	0.398891	0.589366	0.115093
	H65	H	0.591810	0.593026	0.876883
	H66	H	0.591087	0.392302	0.113092
	H67	H	0.398877	0.400308	0.875787
	H68	H	0.582922	0.110850	0.411094
	H69	H	0.588900	0.879702	0.596567
	H70	H	0.405862	0.119390	0.595950
	H71	H	0.410981	0.884212	0.414293
	H72	H	0.913117	0.612924	0.086084
	H73	H	0.085237	0.379969	0.091578
	H74	H	0.095239	0.617291	0.897249
	H75	H	0.914982	0.382651	0.900236
	H76	H	0.095266	0.897035	0.613708
	H77	H	0.100645	0.096217	0.374304
	H78	H	0.905658	0.096863	0.615571
	H79	H	0.908332	0.899810	0.378186
	H80	H	0.621570	0.086850	0.896462
	H81	H	0.387339	0.074833	0.080834
	H82	H	0.615073	0.912424	0.089328
	H83	H	0.379325	0.898262	0.899108
	H84	H	0.621813	0.898260	0.097142
	H85	H	0.377167	0.088804	0.102484
	H86	H	0.619225	0.094938	0.909738
	H87	H	0.385429	0.908126	0.911021
	H88	H	0.905681	0.086825	0.611771
	H89	H	0.093524	0.077577	0.383164
	H90	H	0.103710	0.904452	0.614478
	H91	H	0.903869	0.909320	0.378457
	H92	H	0.083837	0.613377	0.900074
	H93	H	0.091823	0.381211	0.079157
	H94	H	0.905415	0.613514	0.080243
	H95	H	0.899965	0.377283	0.904430
	H96	H	0.419860	0.112418	0.587858
	H97	H	0.594564	0.883749	0.581414
	H98	H	0.604066	0.118687	0.405250
	H99	H	0.401679	0.875680	0.398600
	H100	H	0.605610	0.401981	0.114476
	H101	H	0.591086	0.582721	0.879694
	H102	H	0.411410	0.581147	0.109224
	H103	H	0.407408	0.410341	0.882030
	H104	H	0.113282	0.575433	0.408996
	H105	H	0.880098	0.598513	0.586140
	H106	H	0.119747	0.401320	0.589707
	H107	H	0.886116	0.407592	0.407284
	H108	H	0.904745	0.616159	0.089400
	H109	H	0.098993	0.376348	0.090352
	H110	H	0.091894	0.612910	0.908221
	H111	H	0.904322	0.375596	0.889130
	H112	H	0.092857	0.907189	0.609632
	H113	H	0.080266	0.094076	0.381200
	H114	H	0.915132	0.092449	0.610918
	H115	H	0.913757	0.908943	0.382171
	H116	H	0.614750	0.078677	0.907866
	H117	H	0.380652	0.101080	0.078449
	H118	H	0.616314	0.897255	0.081472
	H119	H	0.383391	0.913645	0.895724
	C120	C	0.381449	0.006400	0.616075
	C121	C	0.624688	0.988817	0.619311
	C122	C	0.621703	0.006976	0.374724
	C123	C	0.379774	0.988189	0.372906
	C124	C	0.622833	0.372536	0.003566
	C125	C	0.619752	0.616789	0.986759
	C126	C	0.376761	0.618434	0.005082
	C127	C	0.378334	0.373722	0.986927
	C128	C	0.010084	0.617977	0.373381
	C129	C	0.991590	0.618511	0.615904
	C130	C	0.009357	0.376341	0.616435
	C131	C	0.992042	0.375973	0.372982
	C132	C	0.879382	0.505506	0.114173
	C133	C	0.121702	0.487802	0.116841
	C134	C	0.120133	0.505735	0.873751
	C135	C	0.876616	0.487393	0.870170
	C136	C	0.125196	0.874398	0.504631
	C137	C	0.122352	0.118717	0.487223
	C138	C	0.878255	0.120909	0.504910
	C139	C	0.880747	0.876376	0.487207
	C140	C	0.509597	0.117135	0.874481
	C141	C	0.491265	0.116912	0.116637
	C142	C	0.509400	0.874363	0.118340
	C143	C	0.491248	0.874999	0.874595
	C144	C	0.382845	0.882858	0.671897
	C145	C	0.622836	0.111963	0.676044
	C146	C	0.623073	0.883319	0.319286
	C147	C	0.378935	0.111795	0.316034
	C148	C	0.675135	0.376126	0.879977
	C149	C	0.678347	0.614199	0.108898
	C150	C	0.320605	0.615947	0.881748
	C151	C	0.323359	0.375772	0.109548
	C152	C	0.886740	0.676511	0.373505
	C153	C	0.116573	0.671268	0.615664
	C154	C	0.885183	0.322195	0.612085
	C155	C	0.116155	0.318620	0.377214
	C156	C	0.885063	0.378297	0.669645
	C157	C	0.114973	0.616991	0.674225
	C158	C	0.886528	0.620053	0.315311
	C159	C	0.115641	0.374588	0.317886
	C160	C	0.375151	0.675659	0.883201
	C161	C	0.620551	0.671219	0.109813
	C162	C	0.618999	0.317017	0.881198
	C163	C	0.382266	0.318665	0.110217
	C164	C	0.678266	0.882906	0.378594
	C165	C	0.678209	0.113255	0.616457
	C166	C	0.327540	0.882266	0.613628
	C167	C	0.322187	0.112029	0.374679
	C168	C	0.880284	0.382679	0.171721
	C169	C	0.121748	0.610942	0.173700
	C170	C	0.118648	0.381397	0.819305
	C171	C	0.876988	0.611795	0.815775
	C172	C	0.179491	0.876671	0.381990
	C173	C	0.180314	0.117566	0.609665
	C174	C	0.821284	0.118671	0.382026
	C175	C	0.827262	0.878607	0.610435
	C176	C	0.384923	0.173017	0.875393
	C177	C	0.615277	0.171151	0.115604
	C178	C	0.384996	0.820154	0.115900
	C179	C	0.615185	0.817442	0.879490
	C180	C	0.386361	0.875870	0.174551
	C181	C	0.615054	0.115616	0.172994
	C182	C	0.385760	0.117698	0.816866
	C183	C	0.615509	0.874845	0.821085
	C184	C	0.878204	0.176157	0.381859
	C185	C	0.122299	0.174675	0.609743
	C186	C	0.123548	0.817946	0.382384
	C187	C	0.885104	0.820203	0.609934
	C188	C	0.175474	0.381082	0.877472
	C189	C	0.177633	0.611353	0.115000
	C190	C	0.826603	0.380600	0.110745
	C191	C	0.819224	0.611022	0.872751
	C192	C	0.403622	0.093055	0.594168
	C193	C	0.602714	0.902388	0.596809
	C194	C	0.598070	0.093357	0.395910
	C195	C	0.403971	0.902660	0.396321
	C196	C	0.602129	0.394363	0.089510
	C197	C	0.595148	0.595009	0.901233
	C198	C	0.400675	0.595586	0.090681
	C199	C	0.399846	0.395929	0.901241
	C200	C	0.096096	0.593256	0.397033
	C201	C	0.904935	0.597478	0.592566
	C202	C	0.096196	0.397982	0.595737
	C203	C	0.905778	0.400137	0.394563
	C204	C	0.901381	0.591683	0.091783
	C205	C	0.098647	0.401663	0.093905
	C206	C	0.097312	0.592024	0.895535
	C207	C	0.899597	0.400912	0.891385
	C208	C	0.103622	0.896342	0.590368
	C209	C	0.098335	0.095895	0.401674
	C210	C	0.902094	0.098731	0.590530
	C211	C	0.902161	0.899197	0.401632
	C212	C	0.596016	0.093573	0.897881
	C213	C	0.404150	0.094771	0.093818
	C214	C	0.595584	0.896161	0.095966
	C215	C	0.405150	0.899333	0.895671
	Zn216	Zn	0.501003	-0.002749	0.745440
	Zn217	Zn	0.501359	-0.002862	0.244923
	Zn218	Zn	0.750085	0.496044	-0.006574
	Zn219	Zn	0.249285	0.496382	-0.004991
	Zn220	Zn	0.003294	0.745825	0.495420
	Zn221	Zn	0.000424	0.247697	0.495828
	Zn222	Zn	-0.000450	0.497651	0.743498
	Zn223	Zn	0.000730	0.497081	0.244471
	Zn224	Zn	0.498352	0.746004	-0.002989
	Zn225	Zn	0.500200	0.243442	-0.003958
	Zn226	Zn	0.750657	-0.001199	0.495943
	Zn227	Zn	0.252510	-0.002928	0.495867
	N228	N	0.415625	0.961157	0.673399
	N229	N	0.590233	0.033374	0.677988
	N230	N	0.588523	0.961319	0.316641
	N231	N	0.414278	0.033923	0.314880
	N232	N	0.677661	0.409916	0.957159
	N233	N	0.677856	0.581025	0.031321
	N234	N	0.321154	0.581117	0.958722
	N235	N	0.320688	0.409287	0.031910
	N236	N	0.964664	0.675436	0.408686
	N237	N	0.038889	0.672591	0.580021
	N238	N	0.963612	0.320692	0.579738
	N239	N	0.038269	0.319638	0.411055
	N240	N	0.963260	0.411415	0.672413
	N241	N	0.036114	0.585096	0.674708
	N242	N	0.964127	0.584430	0.315059
	N243	N	0.037473	0.409346	0.315021
	N244	N	0.409420	0.677136	0.960728
	N245	N	0.584363	0.672681	0.032969
	N246	N	0.587275	0.314414	0.959129
	N247	N	0.415489	0.317107	0.033016
	N248	N	0.677397	0.960750	0.412473
	N249	N	0.679602	0.035620	0.582134
	N250	N	0.326281	0.960234	0.579642
	N251	N	0.322315	0.034481	0.409150
	N252	N	0.912586	0.461351	0.173997
	N253	N	0.087680	0.533057	0.174803
	N254	N	0.084842	0.459771	0.816833
	N255	N	0.912018	0.534015	0.813947
	N256	N	0.180463	0.911183	0.458906
	N257	N	0.180276	0.083417	0.532528
	N258	N	0.821281	0.084968	0.459328
	N259	N	0.824407	0.912762	0.533126
	N260	N	0.462907	0.172771	0.910718
	N261	N	0.536991	0.172271	0.081386
	N262	N	0.462413	0.819030	0.081519
	N263	N	0.536802	0.817211	0.911807
	N264	N	0.464759	0.908653	0.176316
	N265	N	0.536660	0.082728	0.173658
	N266	N	0.464223	0.083888	0.815951
	N267	N	0.537429	0.909651	0.817629
	N268	N	0.913010	0.177870	0.459323
	N269	N	0.087011	0.175792	0.532498
	N270	N	0.090633	0.816159	0.459785
	N271	N	0.917525	0.818455	0.532338
	N272	N	0.176551	0.459328	0.910567
	N273	N	0.178093	0.533591	0.080524
	N274	N	0.825505	0.458008	0.075927
	N275	N	0.818829	0.532800	0.906038
	O276	O	1.036415	0.072138	1.113162
	H277	H	1.035605	0.073700	1.107088
	H278	H	1.035621	0.068265	1.120266
	O279	O	0.646203	0.457169	0.411236
	H280	H	0.643567	0.456196	0.406351
	H281	H	0.648797	0.465633	0.416119
	O282	O	0.460354	0.370476	0.418359
	H283	H	0.453475	0.367873	0.402362
	H284	H	0.461875	0.376628	0.429721
	O285	O	0.427737	0.545025	0.479146
	H286	H	0.415528	0.544211	0.484049
	H287	H	0.421764	0.553028	0.478694
	O288	O	0.485326	0.533277	0.542104
	H289	H	0.483166	0.534725	0.547823
	H290	H	0.481813	0.536088	0.547397
	O291	O	-0.011419	-0.067075	0.855779
	H292	H	-0.007097	-0.075008	0.847702
	H293	H	-0.010853	-0.067522	0.836518
	O294	O	0.919750	1.034313	-0.040542
	H295	H	0.916529	1.031999	-0.038328
	H296	H	0.919930	1.037486	-0.034637
	O297	O	1.136833	0.883479	-0.067138
	H298	H	1.133209	0.882590	-0.066269
	H299	H	1.138851	0.888701	-0.071917
	O300	O	0.448425	0.512700	0.367604
	H301	H	0.448944	0.508678	0.350412
	H302	H	0.440802	0.505557	0.364456
	O303	O	0.541905	0.587758	0.568117
	H304	H	0.543009	0.579949	0.567083
	H305	H	0.536007	0.588260	0.547713
	O306	O	0.450383	0.571933	0.590435
	H307	H	0.467249	0.578401	0.585379
	H308	H	0.452508	0.572864	0.606018
	O309	O	0.577340	0.476299	0.497147
	H310	H	0.575069	0.485486	0.483654
	H311	H	0.576938	0.474861	0.491627
	O312	O	1.588117	1.602730	1.430799
	H313	H	1.594021	1.599586	1.431100
	H314	H	1.577563	1.596861	1.434313
	O315	O	1.059278	0.874901	-0.015608
	H316	H	1.056817	0.862698	-0.009118
	H317	H	1.052939	0.878819	-0.020752
	O318	O	0.155487	1.111734	1.013024
	H319	H	0.172155	1.112377	1.017524
	H320	H	0.146350	1.104152	1.020200
	O321	O	0.620869	0.485224	0.509994
	H322	H	0.617721	0.504704	0.500828
	H323	H	0.622226	0.472476	0.489625
	O324	O	0.045865	1.039071	0.962547
	H325	H	0.042168	1.044388	0.951288
	H326	H	0.056461	1.062647	0.961759
	O327	O	-0.064789	0.949834	0.917425
	H328	H	-0.064358	0.945384	0.931667
	H329	H	-0.060705	0.954625	0.917003
	O330	O	-0.050953	0.074418	0.150952
	H331	H	-0.060059	0.065458	0.149344
	H332	H	-0.048877	0.079311	0.158138
	O333	O	0.343454	0.443599	0.467583
	H334	H	0.344283	0.450124	0.477343
	H335	H	0.339654	0.458704	0.456864
	O336	O	-0.565078	-0.661398	0.592905
	H337	H	-0.573926	-0.662123	0.604943
	H338	H	-0.553678	-0.663580	0.596296
	O339	O	-0.083700	-0.013397	-0.008961
	H340	H	-0.097003	-0.017617	-0.010692
	H341	H	-0.091739	-0.001946	0.003382
	O342	O	0.539087	0.569499	0.546133
	H343	H	0.539359	0.569259	0.537615
	H344	H	0.525375	0.561942	0.550566
	O345	O	0.091354	0.903524	0.883776
	H346	H	0.096577	0.899290	0.883342
	H347	H	0.104286	0.887525	0.879357
	O348	O	0.532290	0.368463	0.536883
	H349	H	0.545779	0.373453	0.542845
	H350	H	0.532105	0.371529	0.537546
	O351	O	0.514076	0.524700	-0.492393
	H352	H	0.524098	0.538326	-0.503432
	H353	H	0.507664	0.514059	-0.498251
	O354	O	-0.038721	0.938751	0.019038
	H355	H	-0.039419	0.945031	0.002708
	H356	H	-0.037190	0.931718	0.023428
	O357	O	0.569426	0.538231	0.630474
	H358	H	0.577403	0.546399	0.636433
	H359	H	0.581111	0.548819	0.640415
	O360	O	0.949604	0.041000	1.075072
	H361	H	0.958374	0.045982	1.072560
	H362	H	0.952780	0.037699	1.081770
	O363	O	0.473041	0.467075	0.415915
	H364	H	0.482077	0.471377	0.421446
	H365	H	0.469831	0.464806	0.421565
	O366	O	0.679932	0.481471	0.448218
	H367	H	0.680990	0.482049	0.459316
	H368	H	0.686300	0.486931	0.446034
	O369	O	0.984117	0.105075	0.048204
	H370	H	0.975586	0.106563	0.034898
	H371	H	0.986230	0.112309	0.040589
	O372	O	0.358181	0.606207	0.331793
	H373	H	0.372884	0.598836	0.329648
	H374	H	0.351736	0.591040	0.343254
	O375	O	0.989921	-0.030647	0.997425
	H376	H	0.995275	-0.025062	0.994165
	H377	H	0.996411	-0.032510	1.008051
	O378	O	0.058632	1.091195	-0.113111
	H379	H	0.058761	1.103642	-0.112016
	H380	H	0.059217	1.092251	-0.108159
	O381	O	-0.082413	0.970602	0.950753
	H382	H	-0.082140	0.987421	0.941809
	H383	H	-0.085847	0.980690	0.951920
	O384	O	0.842616	1.010374	-0.010436
	H385	H	0.843939	1.020075	-0.016486
	H386	H	0.840745	1.017694	-0.003539
	O387	O	1.068983	-0.005160	1.121699
	H388	H	1.081737	-0.004488	1.129198
	H389	H	1.069784	0.002815	1.110753
	O390	O	0.961374	0.872601	0.071617
	H391	H	0.956151	0.854343	0.077821
	H392	H	0.959933	0.865173	0.069281
	O393	O	0.407436	0.552076	0.537243
	H394	H	0.423433	0.549856	0.550852
	H395	H	0.408408	0.558419	0.525261
