data_Molecule from HDF5

_cell_length_a		16.060198
_cell_length_b		16.254009
_cell_length_c		16.275893
_cell_angle_alpha	90.099099
_cell_angle_beta	90.166040
_cell_angle_gamma	90.312582
_symmetry_space_group_name_H-M	'P 1'
_symmetry_Int_Tables_number		1

loop_
	_symmetry_equiv_pos_as_xyz
	x,y,z

loop_
	_atom_site_label
	_atom_site_type_symbol
	_atom_site_fract_x
	_atom_site_fract_y
	_atom_site_fract_z
	H0	H	0.401389	0.835611	0.716810
	H1	H	0.605392	0.161794	0.717264
	H2	H	0.603055	0.837119	0.283367
	H3	H	0.401818	0.162709	0.285342
	H4	H	0.713841	0.403102	0.835350
	H5	H	0.719090	0.598449	0.164683
	H6	H	0.289686	0.595168	0.835445
	H7	H	0.289707	0.402100	0.165094
	H8	H	0.837944	0.711318	0.400367
	H9	H	0.168810	0.714039	0.598785
	H10	H	0.838492	0.284444	0.598200
	H11	H	0.168965	0.286634	0.400868
	H12	H	0.837756	0.399292	0.712457
	H13	H	0.168468	0.599793	0.714245
	H14	H	0.838276	0.596926	0.286416
	H15	H	0.168456	0.400645	0.287059
	H16	H	0.401604	0.715009	0.837106
	H17	H	0.605096	0.716848	0.164212
	H18	H	0.601966	0.284085	0.837526
	H19	H	0.401636	0.282832	0.163852
	H20	H	0.713216	0.833744	0.404437
	H21	H	0.717729	0.163120	0.598573
	H22	H	0.287661	0.835093	0.599356
	H23	H	0.291418	0.164568	0.405158
	H24	H	0.901572	0.335307	0.214924
	H25	H	0.106535	0.662296	0.216658
	H26	H	0.102982	0.336522	0.783139
	H27	H	0.902766	0.662807	0.783214
	H28	H	0.215646	0.902800	0.336377
	H29	H	0.216509	0.096968	0.665319
	H30	H	0.790162	0.095199	0.336044
	H31	H	0.791844	0.903087	0.665841
	H32	H	0.337205	0.210371	0.902486
	H33	H	0.669025	0.214444	0.100072
	H34	H	0.337200	0.783024	0.101141
	H35	H	0.668286	0.786524	0.903107
	H36	H	0.336984	0.899716	0.215929
	H37	H	0.668492	0.100933	0.216360
	H38	H	0.338530	0.097943	0.785674
	H39	H	0.668319	0.899865	0.788417
	H40	H	0.902366	0.214324	0.336704
	H41	H	0.105084	0.216724	0.663025
	H42	H	0.101192	0.786094	0.336848
	H43	H	0.901956	0.782548	0.663086
	H44	H	0.212914	0.333674	0.903330
	H45	H	0.218119	0.662876	0.097777
	H46	H	0.790144	0.334163	0.095068
	H47	H	0.789759	0.663987	0.901665
	H48	H	0.415152	0.113234	0.590472
	H49	H	0.604936	0.879122	0.591695
	H50	H	0.597752	0.115557	0.411732
	H51	H	0.403323	0.879182	0.404708
	H52	H	0.588644	0.400808	0.117813
	H53	H	0.605566	0.592663	0.881344
	H54	H	0.407423	0.581123	0.115146
	H55	H	0.409162	0.405111	0.883547
	H56	H	0.125933	0.593533	0.398099
	H57	H	0.884665	0.593712	0.588506
	H58	H	0.121597	0.407508	0.587469
	H59	H	0.882153	0.401806	0.403235
	H60	H	0.121017	0.413141	0.594184
	H61	H	0.885337	0.586825	0.592162
	H62	H	0.123694	0.602397	0.412522
	H63	H	0.885727	0.404841	0.412795
	H64	H	0.422670	0.595280	0.114506
	H65	H	0.589687	0.586150	0.887574
	H66	H	0.604974	0.403732	0.121295
	H67	H	0.410573	0.402427	0.882295
	H68	H	0.598533	0.117779	0.405362
	H69	H	0.595994	0.877883	0.605929
	H70	H	0.407132	0.118003	0.595132
	H71	H	0.417612	0.883178	0.402650
	H72	H	0.913700	0.613330	0.084931
	H73	H	0.098624	0.381053	0.091755
	H74	H	0.091027	0.617401	0.900257
	H75	H	0.903991	0.378346	0.896527
	H76	H	0.085623	0.914151	0.612915
	H77	H	0.099635	0.098031	0.381336
	H78	H	0.917481	0.101055	0.618054
	H79	H	0.913799	0.903897	0.383560
	H80	H	0.622975	0.099996	0.911619
	H81	H	0.387440	0.085960	0.089726
	H82	H	0.624401	0.909088	0.105109
	H83	H	0.386703	0.915483	0.909854
	H84	H	0.621083	0.899318	0.087914
	H85	H	0.382637	0.090632	0.101146
	H86	H	0.619802	0.087091	0.912957
	H87	H	0.381108	0.904055	0.899034
	H88	H	0.902503	0.093208	0.620167
	H89	H	0.099303	0.088857	0.383256
	H90	H	0.092714	0.893465	0.620884
	H91	H	0.905732	0.899241	0.380837
	H92	H	0.092567	0.613467	0.913334
	H93	H	0.094801	0.380177	0.099316
	H94	H	0.903814	0.619477	0.097383
	H95	H	0.918589	0.384747	0.903993
	H96	H	0.415383	0.116268	0.599467
	H97	H	0.588519	0.883935	0.591542
	H98	H	0.592931	0.115602	0.407278
	H99	H	0.410485	0.885072	0.414981
	H100	H	0.594458	0.415984	0.114318
	H101	H	0.590564	0.603872	0.882918
	H102	H	0.404110	0.599752	0.120905
	H103	H	0.407475	0.403341	0.882335
	H104	H	0.119594	0.586007	0.411747
	H105	H	0.882601	0.593002	0.596121
	H106	H	0.124233	0.405667	0.594654
	H107	H	0.885205	0.411360	0.405445
	H108	H	0.919325	0.615679	0.100730
	H109	H	0.090133	0.382677	0.093481
	H110	H	0.104065	0.618181	0.906177
	H111	H	0.904388	0.383238	0.912843
	H112	H	0.108166	0.911378	0.621011
	H113	H	0.091183	0.093613	0.384722
	H114	H	0.915964	0.084299	0.613610
	H115	H	0.905014	0.908199	0.383807
	H116	H	0.624232	0.091974	0.901314
	H117	H	0.383600	0.098617	0.090357
	H118	H	0.615346	0.917900	0.088126
	H119	H	0.384062	0.899258	0.914880
	C120	C	0.382346	0.007668	0.623329
	C121	C	0.625679	0.989508	0.623855
	C122	C	0.624441	0.007957	0.379298
	C123	C	0.381452	0.990956	0.379355
	C124	C	0.623913	0.378187	0.009269
	C125	C	0.625593	0.623064	0.992147
	C126	C	0.381927	0.620386	0.008520
	C127	C	0.380729	0.376056	0.991389
	C128	C	0.012696	0.620819	0.378889
	C129	C	0.993904	0.620726	0.621296
	C130	C	0.012658	0.378713	0.620612
	C131	C	0.994362	0.377981	0.378725
	C132	C	0.882344	0.507508	0.121852
	C133	C	0.124863	0.489916	0.122940
	C134	C	0.124274	0.507711	0.878219
	C135	C	0.880535	0.490694	0.876908
	C136	C	0.123906	0.878300	0.509627
	C137	C	0.125563	0.121874	0.491842
	C138	C	0.882359	0.120815	0.508935
	C139	C	0.880179	0.876126	0.491241
	C140	C	0.512200	0.120148	0.879860
	C141	C	0.494391	0.121049	0.122579
	C142	C	0.511217	0.878585	0.122743
	C143	C	0.493643	0.878055	0.880192
	C144	C	0.382469	0.884376	0.678365
	C145	C	0.624501	0.112933	0.679002
	C146	C	0.622337	0.885078	0.322943
	C147	C	0.382737	0.114224	0.324062
	C148	C	0.677501	0.381767	0.884968
	C149	C	0.681589	0.619593	0.115486
	C150	C	0.326804	0.616428	0.884893
	C151	C	0.326269	0.380186	0.115585
	C152	C	0.887666	0.674203	0.380702
	C153	C	0.118943	0.676796	0.619391
	C154	C	0.887848	0.322636	0.618273
	C155	C	0.119156	0.323730	0.380572
	C156	C	0.887594	0.379965	0.675008
	C157	C	0.118971	0.619938	0.676804
	C158	C	0.888047	0.617707	0.323513
	C159	C	0.119013	0.380566	0.324065
	C160	C	0.382574	0.676121	0.885602
	C161	C	0.624633	0.678295	0.115279
	C162	C	0.621938	0.322506	0.886015
	C163	C	0.381967	0.321068	0.115026
	C164	C	0.677300	0.883503	0.382832
	C165	C	0.680788	0.113578	0.620146
	C166	C	0.326127	0.884030	0.619653
	C167	C	0.327683	0.115075	0.383513
	C168	C	0.882748	0.384238	0.176726
	C169	C	0.124940	0.613172	0.178340
	C170	C	0.121907	0.384703	0.822376
	C171	C	0.882572	0.613991	0.821517
	C172	C	0.178404	0.881868	0.385703
	C173	C	0.179848	0.118799	0.615848
	C174	C	0.827169	0.116750	0.385158
	C175	C	0.827701	0.881018	0.616027
	C176	C	0.387200	0.173876	0.882118
	C177	C	0.619350	0.176817	0.120325
	C178	C	0.386395	0.821964	0.120949
	C179	C	0.618671	0.823610	0.882771
	C180	C	0.386304	0.879659	0.177959
	C181	C	0.619169	0.120092	0.177910
	C182	C	0.387894	0.117881	0.823881
	C183	C	0.618606	0.879812	0.825775
	C184	C	0.883414	0.175625	0.385391
	C185	C	0.124237	0.178113	0.614636
	C186	C	0.121782	0.823662	0.386051
	C187	C	0.882345	0.820990	0.614640
	C188	C	0.177019	0.383389	0.881915
	C189	C	0.180437	0.613724	0.119042
	C190	C	0.827295	0.383606	0.116965
	C191	C	0.827001	0.614932	0.880794
	C192	C	0.405693	0.093621	0.601480
	C193	C	0.603118	0.902694	0.602623
	C194	C	0.602689	0.094145	0.401512
	C195	C	0.403816	0.904851	0.400994
	C196	C	0.602334	0.400156	0.095463
	C197	C	0.602133	0.600843	0.905997
	C198	C	0.404640	0.598557	0.094560
	C199	C	0.402574	0.397318	0.905257
	C200	C	0.100507	0.599802	0.400936
	C201	C	0.906733	0.597820	0.599012
	C202	C	0.099699	0.401987	0.598621
	C203	C	0.906893	0.399531	0.400714
	C204	C	0.905378	0.593897	0.100570
	C205	C	0.101441	0.403610	0.101165
	C206	C	0.102485	0.593993	0.900179
	C207	C	0.902494	0.404477	0.898181
	C208	C	0.101915	0.899957	0.595916
	C209	C	0.103192	0.100018	0.405297
	C210	C	0.905246	0.099219	0.594880
	C211	C	0.901614	0.897431	0.405073
	C212	C	0.599732	0.099128	0.902060
	C213	C	0.406972	0.098386	0.100290
	C214	C	0.597845	0.901974	0.100500
	C215	C	0.406607	0.899845	0.901751
	Zn216	Zn	0.503741	-0.001662	0.752329
	Zn217	Zn	0.502727	0.000000	0.250922
	Zn218	Zn	0.753322	0.499912	0.000013
	Zn219	Zn	0.252324	0.498103	0.000072
	Zn220	Zn	0.002671	0.748242	0.500252
	Zn221	Zn	0.003639	0.250401	0.499681
	Zn222	Zn	0.003380	0.499306	0.748754
	Zn223	Zn	0.003481	0.499222	0.251952
	Zn224	Zn	0.502372	0.751128	0.000880
	Zn225	Zn	0.503175	0.248784	0.001114
	Zn226	Zn	0.752898	-0.001417	0.500810
	Zn227	Zn	0.253234	-0.000363	0.501374
	N228	N	0.416690	0.962224	0.680883
	N229	N	0.590966	0.034685	0.681453
	N230	N	0.590392	0.963488	0.320700
	N231	N	0.415418	0.035896	0.321237
	N232	N	0.678934	0.415760	0.962546
	N233	N	0.682106	0.585979	0.037829
	N234	N	0.326178	0.582651	0.962348
	N235	N	0.325154	0.413646	0.037841
	N236	N	0.966370	0.676364	0.414222
	N237	N	0.040078	0.677470	0.585842
	N238	N	0.966511	0.321767	0.585087
	N239	N	0.040471	0.321966	0.413988
	N240	N	0.966309	0.414084	0.676676
	N241	N	0.040257	0.585941	0.678349
	N242	N	0.967021	0.585282	0.322370
	N243	N	0.040377	0.413589	0.322671
	N244	N	0.416130	0.678722	0.963609
	N245	N	0.590801	0.680643	0.037519
	N246	N	0.589414	0.320250	0.964208
	N247	N	0.414794	0.318187	0.036937
	N248	N	0.678886	0.961084	0.417078
	N249	N	0.681383	0.035901	0.586606
	N250	N	0.326130	0.961632	0.586097
	N251	N	0.326582	0.037492	0.417036
	N252	N	0.916223	0.462415	0.179917
	N253	N	0.091152	0.535186	0.180897
	N254	N	0.089821	0.463084	0.819976
	N255	N	0.915577	0.536012	0.819068
	N256	N	0.180017	0.915330	0.463641
	N257	N	0.180748	0.084611	0.538526
	N258	N	0.826268	0.083315	0.462943
	N259	N	0.826205	0.914537	0.538342
	N260	N	0.465585	0.175362	0.916351
	N261	N	0.540627	0.177460	0.086611
	N262	N	0.464903	0.821247	0.087233
	N263	N	0.539944	0.822384	0.915991
	N264	N	0.464787	0.914174	0.179162
	N265	N	0.540385	0.086306	0.179641
	N266	N	0.466691	0.085008	0.822573
	N267	N	0.539921	0.912700	0.823704
	N268	N	0.917210	0.178114	0.463204
	N269	N	0.091116	0.179992	0.536333
	N270	N	0.088728	0.821179	0.463945
	N271	N	0.914039	0.817668	0.536201
	N272	N	0.178507	0.460937	0.915960
	N273	N	0.180706	0.535979	0.085367
	N274	N	0.826955	0.461320	0.083515
	N275	N	0.825196	0.537228	0.914257
	O276	O	0.980221	0.893168	-0.062763
	H277	H	0.980079	0.894191	-0.069158
	H278	H	0.984225	0.891237	-0.051807
	O279	O	0.010861	0.035525	1.033148
	H280	H	0.007303	0.039448	1.025012
	H281	H	0.020229	0.044967	1.030507
	O282	O	-0.036644	-0.010647	0.009281
	H283	H	-0.034094	-0.012886	0.006966
	H284	H	-0.033461	-0.007980	0.008063
	O285	O	0.468696	0.542739	0.545392
	H286	H	0.464853	0.536398	0.545052
	H287	H	0.470335	0.538672	0.553915
	O288	O	0.025606	-0.012099	0.034240
	H289	H	0.023759	-0.027449	0.038632
	H290	H	0.022126	-0.004996	0.033253
	O291	O	0.022722	1.012079	0.037970
	H292	H	0.030140	1.010665	0.031330
	H293	H	0.026705	1.012120	0.043136
	O294	O	0.024924	0.992801	-0.033900
	H295	H	0.014555	0.989600	-0.027557
	H296	H	0.024496	0.985119	-0.028834
	O297	O	0.518511	0.510046	0.470365
	H298	H	0.518119	0.507328	0.481163
	H299	H	0.528021	0.515241	0.476747
	O300	O	0.496066	0.510733	0.498018
	H301	H	0.500426	0.515225	0.486311
	H302	H	0.490894	0.515024	0.509502
	O303	O	1.028946	-0.051304	1.018598
	H304	H	1.038728	-0.051853	1.025406
	H305	H	1.032635	-0.047409	1.026651
	O306	O	0.930387	1.953771	1.055333
	H307	H	0.925898	1.956367	1.064810
	H308	H	0.919741	1.948211	1.047036
	O309	O	0.041594	0.977608	0.978842
	H310	H	0.036823	0.979750	0.976392
	H311	H	0.043320	0.972124	0.973361
	O312	O	0.055818	-0.079788	1.001965
	H313	H	0.060752	-0.087985	0.999332
	H314	H	0.064586	-0.072255	0.999739
	O315	O	0.446315	0.519731	0.451732
	H316	H	0.449460	0.524389	0.451539
	H317	H	0.446369	0.513341	0.452297
	O318	O	0.508471	-0.518464	0.471465
	H319	H	0.510488	-0.515182	0.467998
	H320	H	0.502330	-0.523434	0.473389
	O321	O	0.541866	0.498344	0.540268
	H322	H	0.539140	0.496378	0.536715
	H323	H	0.530381	0.502348	0.548861
	O324	O	0.965870	0.033936	0.977805
	H325	H	0.956639	0.032780	0.975179
	H326	H	0.955916	0.030074	0.976017
	O327	O	1.070304	1.008754	1.004809
	H328	H	1.078604	1.011373	1.008569
	H329	H	1.072347	1.006411	1.006998
	O330	O	0.491680	0.485768	0.606417
	H331	H	0.490652	0.480646	0.609693
	H332	H	0.492636	0.481183	0.605534
	O333	O	0.460358	0.488655	0.443887
	H334	H	0.458257	0.495492	0.438598
	H335	H	0.454808	0.488079	0.436558
	O336	O	0.450890	0.435140	0.531063
	H337	H	0.451089	0.438799	0.524889
	H338	H	0.443833	0.433937	0.518963
	O339	O	-0.919874	-0.011033	0.009106
	H340	H	-0.921414	0.002979	0.006908
	H341	H	-0.927512	-0.013146	0.020309
	O342	O	0.469321	0.610743	0.437964
	H343	H	0.474377	0.612670	0.444120
	H344	H	0.474678	0.612706	0.439036
	O345	O	0.504193	0.442176	0.444613
	H346	H	0.502076	0.453205	0.443209
	H347	H	0.505521	0.445597	0.448033
