data_Molecule from HDF5

_cell_length_a		16.527833
_cell_length_b		16.408794
_cell_length_c		16.626239
_cell_angle_alpha	89.970673
_cell_angle_beta	90.003125
_cell_angle_gamma	89.952374
_symmetry_space_group_name_H-M	'P 1'
_symmetry_Int_Tables_number		1

loop_
	_symmetry_equiv_pos_as_xyz
	x,y,z

loop_
	_atom_site_label
	_atom_site_type_symbol
	_atom_site_fract_x
	_atom_site_fract_y
	_atom_site_fract_z
	H0	H	0.406297	0.859831	0.713932
	H1	H	0.623489	0.171286	0.717725
	H2	H	0.616594	0.857265	0.271865
	H3	H	0.404704	0.173935	0.268294
	H4	H	0.732979	0.411670	0.836058
	H5	H	0.736309	0.623579	0.146939
	H6	H	0.288359	0.624070	0.837165
	H7	H	0.285495	0.405837	0.146668
	H8	H	0.855311	0.736433	0.386812
	H9	H	0.170511	0.734807	0.594522
	H10	H	0.855630	0.298215	0.591455
	H11	H	0.170068	0.292947	0.384720
	H12	H	0.858087	0.409083	0.711766
	H13	H	0.168273	0.621494	0.714095
	H14	H	0.856061	0.622907	0.268751
	H15	H	0.167756	0.404395	0.264579
	H16	H	0.407488	0.737954	0.835574
	H17	H	0.618434	0.739136	0.147668
	H18	H	0.615895	0.294729	0.836044
	H19	H	0.404447	0.292049	0.148383
	H20	H	0.731221	0.856484	0.388673
	H21	H	0.737375	0.171527	0.599954
	H22	H	0.292785	0.857936	0.595633
	H23	H	0.289841	0.174713	0.384636
	H24	H	0.903059	0.359083	0.214545
	H25	H	0.120078	0.670998	0.215488
	H26	H	0.120929	0.357016	0.768317
	H27	H	0.905788	0.670862	0.767975
	H28	H	0.237003	0.908359	0.336206
	H29	H	0.236577	0.123930	0.647220
	H30	H	0.789266	0.122126	0.335731
	H31	H	0.791119	0.910207	0.646493
	H32	H	0.354947	0.239894	0.886193
	H33	H	0.669504	0.235870	0.096269
	H34	H	0.353520	0.797144	0.094917
	H35	H	0.669025	0.796960	0.888057
	H36	H	0.354708	0.908922	0.214470
	H37	H	0.668369	0.121361	0.213768
	H38	H	0.356484	0.127126	0.766916
	H39	H	0.666908	0.910374	0.769218
	H40	H	0.907746	0.237123	0.334868
	H41	H	0.118435	0.238506	0.647422
	H42	H	0.118047	0.794008	0.334881
	H43	H	0.910991	0.796505	0.648149
	H44	H	0.237457	0.358959	0.883641
	H45	H	0.233256	0.672634	0.097151
	H46	H	0.789349	0.358603	0.097429
	H47	H	0.790338	0.671984	0.884992
	H48	H	0.428485	0.129150	0.579165
	H49	H	0.599571	0.904731	0.578988
	H50	H	0.603754	0.129519	0.404001
	H51	H	0.425226	0.906576	0.406587
	H52	H	0.601483	0.427274	0.104593
	H53	H	0.604387	0.608051	0.878571
	H54	H	0.422986	0.607491	0.104452
	H55	H	0.425576	0.432550	0.883892
	H56	H	0.124560	0.602933	0.402600
	H57	H	0.899166	0.602335	0.584569
	H58	H	0.126992	0.424685	0.576650
	H59	H	0.901401	0.424550	0.404030
	H60	H	0.124972	0.430776	0.579602
	H61	H	0.898610	0.608816	0.581019
	H62	H	0.123349	0.601067	0.403239
	H63	H	0.903372	0.430437	0.403442
	H64	H	0.420663	0.601545	0.102996
	H65	H	0.603016	0.601449	0.880909
	H66	H	0.602171	0.426964	0.104376
	H67	H	0.427974	0.425702	0.882419
	H68	H	0.599126	0.129501	0.399898
	H69	H	0.600811	0.902778	0.580225
	H70	H	0.422797	0.128460	0.576568
	H71	H	0.420566	0.901961	0.401705
	H72	H	0.917994	0.629412	0.077280
	H73	H	0.094229	0.405346	0.075775
	H74	H	0.097791	0.626620	0.901681
	H75	H	0.925036	0.402545	0.904225
	H76	H	0.107620	0.927894	0.604271
	H77	H	0.104619	0.107563	0.377531
	H78	H	0.922035	0.095297	0.599874
	H79	H	0.920410	0.928558	0.378655
	H80	H	0.619865	0.098875	0.907365
	H81	H	0.396722	0.105514	0.087323
	H82	H	0.626373	0.923705	0.084584
	H83	H	0.400740	0.932588	0.905281
	H84	H	0.623215	0.928091	0.079120
	H85	H	0.400225	0.107942	0.075148
	H86	H	0.624728	0.101423	0.897860
	H87	H	0.397648	0.929437	0.897983
	H88	H	0.931322	0.107317	0.601112
	H89	H	0.103077	0.096165	0.382369
	H90	H	0.099553	0.929529	0.600469
	H91	H	0.924439	0.925175	0.378726
	H92	H	0.099176	0.626739	0.903301
	H93	H	0.100759	0.402694	0.074998
	H94	H	0.926912	0.630262	0.086791
	H95	H	0.921584	0.400154	0.902340
	H96	H	0.423229	0.131276	0.582713
	H97	H	0.598762	0.903698	0.581141
	H98	H	0.598302	0.127261	0.405211
	H99	H	0.428034	0.904223	0.399077
	H100	H	0.602138	0.427596	0.104165
	H101	H	0.597680	0.606480	0.881163
	H102	H	0.427611	0.602655	0.101935
	H103	H	0.420600	0.427519	0.880564
	H104	H	0.124611	0.600437	0.401285
	H105	H	0.901132	0.603127	0.577870
	H106	H	0.128719	0.426078	0.583365
	H107	H	0.899730	0.427485	0.399014
	H108	H	0.929901	0.625028	0.075121
	H109	H	0.097289	0.401763	0.081266
	H110	H	0.099391	0.628162	0.901125
	H111	H	0.925574	0.401889	0.899863
	H112	H	0.101486	0.921653	0.603574
	H113	H	0.094111	0.103981	0.382242
	H114	H	0.916661	0.108527	0.605949
	H115	H	0.920067	0.923738	0.377297
	H116	H	0.624541	0.109051	0.905655
	H117	H	0.401969	0.095755	0.080254
	H118	H	0.623778	0.930860	0.086718
	H119	H	0.397887	0.923692	0.904671
	C120	C	0.392142	0.025182	0.611918
	C121	C	0.633737	1.007094	0.613521
	C122	C	0.632594	0.023975	0.371174
	C123	C	0.390787	1.008144	0.369754
	C124	C	0.633432	0.394722	0.000989
	C125	C	0.634554	0.638423	0.983112
	C126	C	0.390899	0.637236	0.000463
	C127	C	0.390213	0.394092	0.984411
	C128	C	0.020611	0.635265	0.370245
	C129	C	1.003722	0.636987	0.612960
	C130	C	0.023003	0.394330	0.611542
	C131	C	1.004576	0.393629	0.368566
	C132	C	0.890980	0.524288	0.112486
	C133	C	0.131957	0.506661	0.111436
	C134	C	0.133417	0.523388	0.869263
	C135	C	0.891545	0.506004	0.870006
	C136	C	0.135726	0.893426	0.500018
	C137	C	0.134274	0.136747	0.483143
	C138	C	0.890919	0.136839	0.499610
	C139	C	0.890800	0.893847	0.481914
	C140	C	0.520199	0.137968	0.870213
	C141	C	0.503464	0.136020	0.113130
	C142	C	0.520414	0.894766	0.114462
	C143	C	0.502510	0.895879	0.870742
	C144	C	0.388758	0.906706	0.673055
	C145	C	0.639697	0.124249	0.676247
	C146	C	0.634649	0.904757	0.311833
	C147	C	0.387009	0.126769	0.308824
	C148	C	0.692811	0.392732	0.882955
	C149	C	0.695720	0.641602	0.100141
	C150	C	0.329658	0.640977	0.883514
	C151	C	0.327227	0.389339	0.100490
	C152	C	0.902703	0.696541	0.368043
	C153	C	0.122645	0.695993	0.614167
	C154	C	0.903742	0.336018	0.611597
	C155	C	0.122519	0.332473	0.365786
	C156	C	0.904641	0.391641	0.671000
	C157	C	0.121703	0.639487	0.673381
	C158	C	0.902746	0.639714	0.309641
	C159	C	0.120968	0.388017	0.305831
	C160	C	0.388628	0.697975	0.882849
	C161	C	0.637145	0.699131	0.100491
	C162	C	0.634581	0.334822	0.883002
	C163	C	0.386351	0.332164	0.101245
	C164	C	0.691791	0.904322	0.369865
	C165	C	0.696475	0.124451	0.617664
	C166	C	0.332629	0.905708	0.613938
	C167	C	0.329746	0.127069	0.366683
	C168	C	0.886094	0.406217	0.173943
	C169	C	0.137134	0.624184	0.174085
	C170	C	0.138217	0.404833	0.808313
	C171	C	0.888074	0.624052	0.808863
	C172	C	0.196468	0.890628	0.382890
	C173	C	0.195571	0.141076	0.600521
	C174	C	0.830329	0.139730	0.382133
	C175	C	0.831801	0.892186	0.599914
	C176	C	0.402276	0.199677	0.867806
	C177	C	0.622000	0.196173	0.114884
	C178	C	0.401405	0.835910	0.114453
	C179	C	0.621294	0.836253	0.869253
	C180	C	0.401912	0.891873	0.173940
	C181	C	0.621545	0.139157	0.173311
	C182	C	0.403085	0.143656	0.808170
	C183	C	0.620340	0.892581	0.810075
	C184	C	0.889271	0.196865	0.381842
	C185	C	0.136906	0.198312	0.600550
	C186	C	0.137253	0.833547	0.382144
	C187	C	0.891150	0.835378	0.600507
	C188	C	0.196095	0.405676	0.865898
	C189	C	0.193401	0.625137	0.115172
	C190	C	0.829418	0.406128	0.115549
	C191	C	0.830769	0.624689	0.867055
	C192	C	0.417709	0.108022	0.586646
	C193	C	0.607088	0.925023	0.587339
	C194	C	0.607529	0.107152	0.395943
	C195	C	0.416930	0.925799	0.395277
	C196	C	0.609009	0.420071	0.082993
	C197	C	0.609034	0.612712	0.901570
	C198	C	0.416505	0.611431	0.081885
	C199	C	0.416976	0.421010	0.903377
	C200	C	0.102562	0.608961	0.395231
	C201	C	0.921181	0.611871	0.588189
	C202	C	0.105494	0.419704	0.586945
	C203	C	0.922796	0.420057	0.394700
	C204	C	0.917384	0.606688	0.086974
	C205	C	0.105142	0.424581	0.084873
	C206	C	0.106629	0.605620	0.894853
	C207	C	0.916803	0.423219	0.895004
	C208	C	0.110225	0.919091	0.581478
	C209	C	0.108097	0.110219	0.401967
	C210	C	0.916065	0.111338	0.581215
	C211	C	0.914793	0.918642	0.399601
	C212	C	0.601751	0.110981	0.896262
	C213	C	0.421032	0.110351	0.088095
	C214	C	0.602976	0.920357	0.090476
	C215	C	0.420276	0.921369	0.895410
	Zn216	Zn	0.511432	0.017251	0.741681
	Zn217	Zn	0.511922	0.016378	0.242848
	Zn218	Zn	0.763164	0.515719	-0.008508
	Zn219	Zn	0.260940	0.515589	-0.008391
	Zn220	Zn	0.012837	0.764742	0.490783
	Zn221	Zn	0.013437	0.265741	0.490832
	Zn222	Zn	0.012717	0.514518	0.740940
	Zn223	Zn	0.012092	0.515166	0.240517
	Zn224	Zn	0.512086	0.766932	-0.007711
	Zn225	Zn	0.511842	0.265240	-0.007060
	Zn226	Zn	0.761431	0.015457	0.490794
	Zn227	Zn	0.263835	0.016491	0.491475
	N228	N	0.424783	0.982092	0.672131
	N229	N	0.601033	0.050265	0.673589
	N230	N	0.598526	0.980119	0.312576
	N231	N	0.424377	0.052038	0.310823
	N232	N	0.692456	0.428905	0.957345
	N233	N	0.694206	0.604446	0.026002
	N234	N	0.330450	0.604102	0.957793
	N235	N	0.329320	0.426887	0.026598
	N236	N	0.977030	0.694062	0.404984
	N237	N	0.048289	0.694587	0.577476
	N238	N	0.978440	0.337389	0.575565
	N239	N	0.049025	0.335760	0.404210
	N240	N	0.979984	0.427046	0.671251
	N241	N	0.046592	0.603602	0.672930
	N242	N	0.977212	0.602505	0.310508
	N243	N	0.046393	0.425170	0.307484
	N244	N	0.425801	0.696062	0.956642
	N245	N	0.599981	0.697564	0.026679
	N246	N	0.598462	0.335914	0.957505
	N247	N	0.424681	0.335087	0.027978
	N248	N	0.690681	0.979626	0.406001
	N249	N	0.693003	0.050488	0.579251
	N250	N	0.334272	0.980588	0.577016
	N251	N	0.331837	0.052180	0.403869
	N252	N	0.924044	0.480672	0.171923
	N253	N	0.099825	0.549483	0.171993
	N254	N	0.100124	0.479375	0.810105
	N255	N	0.925021	0.549167	0.810248
	N256	N	0.195806	0.926888	0.457265
	N257	N	0.194097	0.103559	0.526661
	N258	N	0.830886	0.103288	0.456518
	N259	N	0.831469	0.927740	0.525080
	N260	N	0.476261	0.196462	0.905415
	N261	N	0.547493	0.194520	0.078296
	N262	N	0.476179	0.837436	0.078377
	N263	N	0.547100	0.838077	0.906368
	N264	N	0.477255	0.927477	0.174348
	N265	N	0.546805	0.102748	0.172425
	N266	N	0.477427	0.106141	0.809439
	N267	N	0.545401	0.928898	0.810771
	N268	N	0.926119	0.195465	0.455834
	N269	N	0.099647	0.195940	0.526632
	N270	N	0.100330	0.834915	0.456117
	N271	N	0.927064	0.836183	0.526076
	N272	N	0.193372	0.480419	0.902890
	N273	N	0.190213	0.550917	0.076907
	N274	N	0.832312	0.480625	0.078098
	N275	N	0.832676	0.550131	0.904249
	O276	O	0.796997	0.830774	0.003900
	H277	H	0.782810	0.828737	-0.006164
	H278	H	0.783598	0.831158	-0.009658
	O279	O	0.079020	-0.185634	1.139919
	H280	H	0.078529	-0.197491	1.148132
	H281	H	0.074156	-0.164825	1.149893
	O282	O	0.719644	0.724888	0.701628
	H283	H	0.715099	0.733860	0.700519
	H284	H	0.743471	0.749261	0.707522
	O285	O	0.431015	0.599970	0.692911
	H286	H	0.439307	0.597355	0.692393
	H287	H	0.446728	0.582502	0.694979
	O288	O	0.808628	0.129406	0.990299
	H289	H	0.821476	0.119909	0.990873
	H290	H	0.794552	0.152245	0.987255
	O291	O	0.381090	0.520758	0.537792
	H292	H	0.384053	0.511331	0.538393
	H293	H	0.370444	0.520062	0.550020
	O294	O	0.227946	0.235836	0.013302
	H295	H	0.229763	0.235015	0.019573
	H296	H	0.245528	0.251939	0.029550
	O297	O	0.481949	-0.274534	0.490297
	H298	H	0.486055	-0.288062	0.472915
	H299	H	0.508390	-0.278471	0.488865
	O300	O	-0.025604	0.089713	0.083901
	H301	H	-0.024180	0.091870	0.073848
	H302	H	-0.025998	0.080029	0.087879
	O303	O	0.234683	-0.007302	-0.229455
	H304	H	0.253246	-0.021012	-0.241081
	H305	H	0.245073	-0.031850	-0.231282
	O306	O	1.221670	0.046972	0.207042
	H307	H	1.229301	0.063694	0.211018
	H308	H	1.233053	0.037762	0.210050
	O309	O	0.543233	0.733233	0.711875
	H310	H	0.553873	0.732983	0.725578
	H311	H	0.554239	0.743180	0.722918
	O312	O	0.394797	0.496251	0.379470
	H313	H	0.380721	0.512800	0.379490
	H314	H	0.399139	0.506388	0.385941
	O315	O	0.298487	0.730238	0.454821
	H316	H	0.313495	0.737334	0.479183
	H317	H	0.284719	0.753352	0.468175
	O318	O	0.822448	0.828762	-0.199928
	H319	H	0.837340	0.848727	-0.179137
	H320	H	0.841708	0.848263	-0.182639
	O321	O	0.571256	0.296186	0.558014
	H322	H	0.566771	0.296684	0.589661
	H323	H	0.565959	0.318080	0.549209
	O324	O	1.044080	-0.194307	0.777247
	H325	H	1.032650	-0.210260	0.775373
	H326	H	1.030866	-0.196081	0.778419
	O327	O	0.322369	0.705061	0.295128
	H328	H	0.313103	0.709026	0.342305
	H329	H	0.312609	0.656165	0.290917
	O330	O	0.030191	1.225443	0.197574
	H331	H	0.012179	1.238737	0.183108
	H332	H	0.017562	1.233268	0.210134
	O333	O	0.623394	0.635490	0.388117
	H334	H	0.616780	0.634506	0.393404
	H335	H	0.618901	0.633424	0.377573
	O336	O	0.322982	0.327255	0.678496
	H337	H	0.341351	0.330870	0.665522
	H338	H	0.311212	0.329640	0.650811
	O339	O	0.541809	0.302629	0.275809
	H340	H	0.533741	0.299159	0.251964
	H341	H	0.567653	0.300452	0.278743
	O342	O	0.195239	0.863201	-0.028096
	H343	H	0.212698	0.853509	-0.036332
	H344	H	0.199455	0.863554	-0.050768
	O345	O	1.013228	0.838025	-0.006765
	H346	H	1.035076	0.830549	0.002209
	H347	H	1.010681	0.835383	0.011481
	O348	O	0.500373	0.524795	0.426473
	H349	H	0.503609	0.517611	0.439979
	H350	H	0.489477	0.548575	0.417414
	O351	O	-0.008610	-0.118591	1.154960
	H352	H	-0.001125	-0.118826	1.163576
	H353	H	-0.008621	-0.123664	1.155669
	O354	O	0.815754	-0.177707	1.191352
	H355	H	0.801674	-0.184515	1.167917
	H356	H	0.839486	-0.158400	1.193739
	O357	O	0.681611	0.511324	0.569467
	H358	H	0.687996	0.534584	0.559126
	H359	H	0.684182	0.508822	0.564264
	O360	O	-0.004917	0.020715	0.948034
	H361	H	-0.005804	0.007007	0.950113
	H362	H	0.004577	0.017618	0.936549
	O363	O	0.311451	0.454928	0.394041
	H364	H	0.314151	0.446866	0.408869
	H365	H	0.328890	0.458682	0.405599
	O366	O	1.092228	0.109219	0.781708
	H367	H	1.096133	0.101803	0.790938
	H368	H	1.113077	0.100809	0.790457
	O369	O	-0.197228	0.031506	0.782584
	H370	H	-0.190157	0.053350	0.769303
	H371	H	-0.202504	0.054319	0.773080
	O372	O	0.017359	1.159332	1.024623
	H373	H	0.012113	1.147559	1.009317
	H374	H	0.017443	1.164196	1.025712
	O375	O	1.115116	-0.091805	0.205780
	H376	H	1.099225	-0.092210	0.207348
	H377	H	1.131555	-0.088868	0.212569
	O378	O	0.294984	0.493492	0.712936
	H379	H	0.306792	0.475154	0.702740
	H380	H	0.266200	0.488984	0.743169
	O381	O	-0.178998	1.159035	0.003070
	H382	H	-0.178948	1.159682	-0.004689
	H383	H	-0.186835	1.171983	0.009489
	O384	O	0.297799	0.542681	0.273393
	H385	H	0.303388	0.515308	0.296474
	H386	H	0.268444	0.537729	0.252557
	O387	O	0.307142	0.305823	0.514970
	H388	H	0.319415	0.284767	0.497558
	H389	H	0.306208	0.307351	0.495019
	O390	O	0.176737	0.981682	0.985950
	H391	H	0.179365	0.983547	0.982989
	H392	H	0.179181	0.981384	0.986132
	O393	O	0.862582	0.192794	0.158980
	H394	H	0.855595	0.180351	0.164266
	H395	H	0.871199	0.181117	0.141183
	O396	O	0.195982	0.206085	0.177918
	H397	H	0.148778	0.209542	0.187353
	H398	H	0.199348	0.184582	0.161160
	O399	O	0.190699	0.841818	0.836221
	H400	H	0.218313	0.826708	0.825753
	H401	H	0.163524	0.820763	0.832955
	O402	O	0.976017	0.233710	0.769703
	H403	H	0.999274	0.230942	0.765547
	H404	H	0.991935	0.251003	0.758307
	O405	O	0.719715	0.535621	0.707387
	H406	H	0.729278	0.557734	0.701127
	H407	H	0.724453	0.564125	0.722364
	O408	O	1.198652	1.105678	0.922852
	H409	H	1.207910	1.113671	0.943487
	H410	H	1.198537	1.099185	0.920375
	O411	O	0.708740	0.313121	0.291257
	H412	H	0.714200	0.337409	0.309655
	H413	H	0.701744	0.304873	0.290670
	O414	O	0.028767	0.183321	-0.044545
	H415	H	0.023323	0.176171	-0.051879
	H416	H	0.034532	0.182122	-0.054138
	O417	O	0.545634	0.473360	0.705054
	H418	H	0.562546	0.478690	0.698038
	H419	H	0.543803	0.464947	0.709731
	O420	O	0.812932	-0.048344	0.978196
	H421	H	0.825221	-0.021125	0.992982
	H422	H	0.801506	-0.035484	0.957059
	O423	O	0.945167	0.795621	-0.043289
	H424	H	0.956526	0.794237	-0.014841
	H425	H	0.951856	0.788691	-0.032905
	O426	O	0.529898	0.613429	0.444147
	H427	H	0.536948	0.603965	0.445701
	H428	H	0.531095	0.628555	0.451134
	O429	O	0.483879	0.733918	0.268447
	H430	H	0.462059	0.755255	0.249094
	H431	H	0.451404	0.736243	0.263742
	O432	O	0.961394	-0.017720	0.770772
	H433	H	0.976500	-0.000388	0.771306
	H434	H	0.961852	-0.021067	0.765525
	O435	O	0.728002	0.516936	0.461886
	H436	H	0.726596	0.521203	0.447174
	H437	H	0.736299	0.494214	0.457255
	O438	O	0.720988	0.490499	0.281721
	H439	H	0.739160	0.489061	0.252671
	H440	H	0.692864	0.504544	0.276285
	O441	O	0.524123	0.539559	0.510562
	H442	H	0.529972	0.557192	0.520705
	H443	H	0.537109	0.535438	0.511064
	O444	O	0.471119	0.398445	0.349076
	H445	H	0.485632	0.392526	0.357403
	H446	H	0.485461	0.392027	0.337725
	O447	O	0.808534	0.221071	0.786788
	H448	H	0.858026	0.218700	0.781122
	H449	H	0.796484	0.238379	0.783963
	O450	O	0.724312	0.299383	0.461717
	H451	H	0.715388	0.289505	0.477549
	H452	H	0.732322	0.282476	0.460316
	O453	O	0.487475	0.362824	0.437605
	H454	H	0.495147	0.376581	0.445067
	H455	H	0.511739	0.364610	0.431523
	O456	O	-0.183137	1.001984	1.202781
	H457	H	-0.169539	0.990738	1.211898
	H458	H	-0.192739	0.998969	1.202963
	O459	O	0.294065	0.696309	0.675139
	H460	H	0.313523	0.681652	0.673987
	H461	H	0.298582	0.694619	0.657361
	O462	O	0.724379	0.730664	0.531487
	H463	H	0.738465	0.730899	0.514460
	H464	H	0.728892	0.741300	0.542587
	O465	O	0.700077	0.340959	0.675288
	H466	H	0.693865	0.344286	0.681281
	H467	H	0.695149	0.364844	0.663596
	O468	O	-0.400415	0.688355	0.406071
	H469	H	-0.381458	0.680879	0.415165
	H470	H	-0.418135	0.689346	0.384740
	O471	O	0.196347	-0.100299	0.993064
	H472	H	0.206722	-0.102699	1.002649
	H473	H	0.183815	-0.108588	0.989105
	O474	O	1.031902	1.074356	0.125017
	H475	H	1.031540	1.080726	0.109184
	H476	H	1.027805	1.079875	0.131347
	O477	O	0.485893	0.297184	0.706961
	H478	H	0.466944	0.286768	0.720548
	H479	H	0.488410	0.289283	0.715176
