data_Molecule from HDF5

_cell_length_a		16.438989
_cell_length_b		16.435065
_cell_length_c		16.408193
_cell_angle_alpha	89.977124
_cell_angle_beta	90.066448
_cell_angle_gamma	90.034414
_symmetry_space_group_name_H-M	'P 1'
_symmetry_Int_Tables_number		1

loop_
	_symmetry_equiv_pos_as_xyz
	x,y,z

loop_
	_atom_site_label
	_atom_site_type_symbol
	_atom_site_fract_x
	_atom_site_fract_y
	_atom_site_fract_z
	H0	H	0.394771	0.847092	0.727437
	H1	H	0.612600	0.160141	0.728206
	H2	H	0.608552	0.847752	0.278259
	H3	H	0.393150	0.162041	0.279400
	H4	H	0.724810	0.398244	0.845026
	H5	H	0.728212	0.615615	0.159116
	H6	H	0.277844	0.615609	0.844793
	H7	H	0.277237	0.396680	0.157363
	H8	H	0.846778	0.729355	0.392398
	H9	H	0.157034	0.732145	0.615959
	H10	H	0.846049	0.277377	0.613480
	H11	H	0.160587	0.281422	0.398825
	H12	H	0.845138	0.394042	0.727844
	H13	H	0.157163	0.615374	0.730170
	H14	H	0.846502	0.613436	0.276460
	H15	H	0.159258	0.394005	0.279318
	H16	H	0.394569	0.730237	0.845546
	H17	H	0.610526	0.728990	0.160803
	H18	H	0.610348	0.281214	0.844742
	H19	H	0.392744	0.280052	0.157293
	H20	H	0.726083	0.847577	0.392307
	H21	H	0.727514	0.161021	0.610811
	H22	H	0.277643	0.847432	0.613273
	H23	H	0.274957	0.159314	0.393282
	H24	H	0.896516	0.344309	0.222906
	H25	H	0.111021	0.660425	0.228536
	H26	H	0.108675	0.346662	0.780618
	H27	H	0.893640	0.661291	0.778229
	H28	H	0.227055	0.894505	0.345654
	H29	H	0.227398	0.111638	0.660179
	H30	H	0.781281	0.111237	0.344018
	H31	H	0.778954	0.896411	0.658639
	H32	H	0.344067	0.227544	0.892461
	H33	H	0.658852	0.229274	0.109859
	H34	H	0.346020	0.779445	0.113901
	H35	H	0.659216	0.780972	0.895387
	H36	H	0.343694	0.899159	0.225083
	H37	H	0.659573	0.113322	0.225268
	H38	H	0.346120	0.112717	0.775991
	H39	H	0.659436	0.896560	0.779553
	H40	H	0.896881	0.227202	0.344947
	H41	H	0.110153	0.225802	0.661686
	H42	H	0.113954	0.776602	0.346523
	H43	H	0.892452	0.778128	0.658379
	H44	H	0.225566	0.347854	0.894001
	H45	H	0.226826	0.661630	0.112134
	H46	H	0.777289	0.347459	0.110062
	H47	H	0.778199	0.662121	0.894185
	H48	H	0.419185	0.114277	0.589440
	H49	H	0.589234	0.890964	0.594585
	H50	H	0.585331	0.115815	0.413676
	H51	H	0.413283	0.892726	0.418226
	H52	H	0.588725	0.413406	0.115153
	H53	H	0.599848	0.588854	0.888456
	H54	H	0.417924	0.587611	0.112154
	H55	H	0.415512	0.420831	0.890009
	H56	H	0.112967	0.586857	0.418011
	H57	H	0.892276	0.587265	0.587543
	H58	H	0.113383	0.416195	0.589927
	H59	H	0.892282	0.419274	0.415340
	H60	H	0.114429	0.417678	0.593216
	H61	H	0.890864	0.589572	0.590134
	H62	H	0.114634	0.589533	0.414095
	H63	H	0.888072	0.414602	0.410089
	H64	H	0.417390	0.597316	0.115426
	H65	H	0.581183	0.587363	0.895531
	H66	H	0.592222	0.419998	0.115814
	H67	H	0.416314	0.414858	0.887947
	H68	H	0.594406	0.116574	0.419268
	H69	H	0.586563	0.895016	0.586606
	H70	H	0.414820	0.114906	0.585030
	H71	H	0.413912	0.890840	0.411078
	H72	H	0.914623	0.617055	0.090519
	H73	H	0.091017	0.391419	0.090782
	H74	H	0.088707	0.617845	0.913907
	H75	H	0.910481	0.393945	0.922609
	H76	H	0.083577	0.917174	0.612268
	H77	H	0.084527	0.090559	0.393198
	H78	H	0.914897	0.094138	0.616632
	H79	H	0.915923	0.916445	0.388790
	H80	H	0.617283	0.098386	0.913509
	H81	H	0.389837	0.091027	0.090061
	H82	H	0.612653	0.917102	0.085601
	H83	H	0.390145	0.919142	0.914252
	H84	H	0.612617	0.922557	0.091075
	H85	H	0.387569	0.094222	0.092524
	H86	H	0.611472	0.092802	0.921434
	H87	H	0.390226	0.916645	0.916494
	H88	H	0.910684	0.090467	0.616603
	H89	H	0.090030	0.094978	0.389876
	H90	H	0.090594	0.912308	0.616430
	H91	H	0.915387	0.916069	0.389629
	H92	H	0.085895	0.614731	0.917356
	H93	H	0.088565	0.392204	0.089374
	H94	H	0.916347	0.615537	0.090967
	H95	H	0.907748	0.389069	0.910858
	H96	H	0.413471	0.117392	0.590729
	H97	H	0.595088	0.891059	0.587528
	H98	H	0.594801	0.119980	0.409186
	H99	H	0.419772	0.893811	0.414547
	H100	H	0.585308	0.420005	0.112399
	H101	H	0.587553	0.604541	0.887210
	H102	H	0.409309	0.591247	0.116330
	H103	H	0.410906	0.417708	0.887008
	H104	H	0.113776	0.591601	0.418557
	H105	H	0.890752	0.591180	0.586552
	H106	H	0.115484	0.413632	0.592531
	H107	H	0.889467	0.411714	0.417635
	H108	H	0.915820	0.615749	0.089231
	H109	H	0.091161	0.392829	0.088059
	H110	H	0.090703	0.616869	0.918808
	H111	H	0.919900	0.393576	0.913229
	H112	H	0.092006	0.921331	0.613085
	H113	H	0.091779	0.087837	0.391434
	H114	H	0.916288	0.088956	0.613979
	H115	H	0.915624	0.916152	0.389785
	H116	H	0.614139	0.088075	0.911419
	H117	H	0.389583	0.094991	0.088316
	H118	H	0.615662	0.915530	0.092958
	H119	H	0.390536	0.919716	0.917337
	C120	C	0.381603	0.011993	0.623287
	C121	C	0.624773	0.995573	0.623971
	C122	C	0.624020	0.013309	0.380067
	C123	C	0.380771	0.996061	0.381049
	C124	C	0.622268	0.384555	0.010406
	C125	C	0.623629	0.627150	0.994532
	C126	C	0.380840	0.626863	0.010906
	C127	C	0.380534	0.383964	0.992235
	C128	C	0.010980	0.624465	0.381338
	C129	C	0.993522	0.625315	0.624203
	C130	C	0.010497	0.381845	0.625481
	C131	C	0.994104	0.381994	0.382081
	C132	C	0.881141	0.512250	0.124008
	C133	C	0.124294	0.495848	0.124140
	C134	C	0.122592	0.513146	0.881948
	C135	C	0.879497	0.495867	0.881236
	C136	C	0.123809	0.881702	0.510710
	C137	C	0.123279	0.124309	0.495597
	C138	C	0.881011	0.125400	0.511558
	C139	C	0.881346	0.882382	0.493100
	C140	C	0.510746	0.126751	0.880269
	C141	C	0.493028	0.127404	0.124144
	C142	C	0.510072	0.884609	0.124182
	C143	C	0.494158	0.884550	0.882516
	C144	C	0.377630	0.894352	0.686423
	C145	C	0.629533	0.113337	0.686756
	C146	C	0.626809	0.894929	0.318496
	C147	C	0.376019	0.114561	0.319938
	C148	C	0.684597	0.380441	0.892345
	C149	C	0.686555	0.631931	0.112396
	C150	C	0.318700	0.632056	0.892383
	C151	C	0.318277	0.379304	0.110293
	C152	C	0.893697	0.687941	0.375405
	C153	C	0.109952	0.690386	0.631700
	C154	C	0.893011	0.318769	0.630146
	C155	C	0.113034	0.321328	0.379865
	C156	C	0.892441	0.377459	0.687159
	C157	C	0.110176	0.631791	0.688723
	C158	C	0.893526	0.629897	0.317683
	C159	C	0.112448	0.377680	0.320584
	C160	C	0.376444	0.689762	0.892988
	C161	C	0.628021	0.688875	0.113072
	C162	C	0.627409	0.322058	0.892186
	C163	C	0.375888	0.321279	0.110397
	C164	C	0.685518	0.895153	0.375453
	C165	C	0.686781	0.113643	0.628262
	C166	C	0.319301	0.894252	0.629158
	C167	C	0.316898	0.112983	0.376422
	C168	C	0.877578	0.392940	0.183945
	C169	C	0.128493	0.613402	0.187391
	C170	C	0.126395	0.394490	0.820752
	C171	C	0.875874	0.614082	0.818889
	C172	C	0.186364	0.877063	0.392920
	C173	C	0.185982	0.128361	0.613283
	C174	C	0.821004	0.129058	0.391757
	C175	C	0.819233	0.878382	0.611405
	C176	C	0.391856	0.187324	0.875636
	C177	C	0.611498	0.188858	0.127508
	C178	C	0.392406	0.821480	0.129712
	C179	C	0.612110	0.821975	0.878318
	C180	C	0.391406	0.880864	0.185521
	C181	C	0.611788	0.130816	0.185067
	C182	C	0.393099	0.130442	0.817032
	C183	C	0.612170	0.879646	0.820313
	C184	C	0.878362	0.187108	0.392445
	C185	C	0.127665	0.185593	0.613946
	C186	C	0.129991	0.818222	0.393403
	C187	C	0.876251	0.819802	0.611322
	C188	C	0.184818	0.394871	0.877308
	C189	C	0.185989	0.614188	0.128940
	C190	C	0.818240	0.394452	0.127700
	C191	C	0.818484	0.614626	0.876815
	C192	C	0.408165	0.094111	0.596008
	C193	C	0.598032	0.913748	0.597222
	C194	C	0.598606	0.095788	0.406431
	C195	C	0.408043	0.913940	0.407112
	C196	C	0.595999	0.410396	0.092986
	C197	C	0.597125	0.601074	0.912026
	C198	C	0.407230	0.599829	0.093087
	C199	C	0.406760	0.410357	0.909840
	C200	C	0.092543	0.597190	0.409001
	C201	C	0.912323	0.597439	0.596059
	C202	C	0.092884	0.408249	0.599323
	C203	C	0.911719	0.407570	0.407429
	C204	C	0.907790	0.594525	0.097847
	C205	C	0.097930	0.413646	0.096985
	C206	C	0.095982	0.595140	0.908954
	C207	C	0.905279	0.413823	0.907818
	C208	C	0.096549	0.909183	0.592486
	C209	C	0.096535	0.098394	0.412935
	C210	C	0.906679	0.098856	0.593877
	C211	C	0.908014	0.908780	0.410869
	C212	C	0.592793	0.100668	0.907533
	C213	C	0.410595	0.101188	0.097833
	C214	C	0.592079	0.910775	0.097653
	C215	C	0.411902	0.911057	0.908486
	Zn216	Zn	0.502535	0.004108	0.752163
	Zn217	Zn	0.501753	0.005501	0.252406
	Zn218	Zn	0.751437	0.505446	0.002883
	Zn219	Zn	0.252290	0.505564	0.001208
	Zn220	Zn	0.002688	0.753734	0.502390
	Zn221	Zn	0.003087	0.253603	0.504049
	Zn222	Zn	0.001390	0.504327	0.753533
	Zn223	Zn	0.002388	0.502338	0.252733
	Zn224	Zn	0.502005	0.755456	0.003248
	Zn225	Zn	0.501814	0.255169	0.000869
	Zn226	Zn	0.752811	0.004199	0.501570
	Zn227	Zn	0.252280	0.003024	0.502942
	N228	N	0.415524	0.968910	0.683002
	N229	N	0.591753	0.038872	0.684331
	N230	N	0.589334	0.969527	0.321236
	N231	N	0.415205	0.040894	0.323034
	N232	N	0.681366	0.418661	0.966768
	N233	N	0.684213	0.594503	0.037525
	N234	N	0.321082	0.593890	0.966959
	N235	N	0.321250	0.417524	0.035907
	N236	N	0.967568	0.684666	0.414377
	N237	N	0.036314	0.686394	0.592134
	N238	N	0.967500	0.321524	0.592447
	N239	N	0.038415	0.323779	0.417305
	N240	N	0.966674	0.415910	0.684366
	N241	N	0.036676	0.592138	0.684329
	N242	N	0.967616	0.591099	0.321125
	N243	N	0.037435	0.414462	0.321623
	N244	N	0.414184	0.686831	0.967773
	N245	N	0.589495	0.685820	0.038763
	N246	N	0.589415	0.324482	0.966707
	N247	N	0.413821	0.323978	0.035839
	N248	N	0.683759	0.969777	0.413191
	N249	N	0.684005	0.039284	0.590011
	N250	N	0.321816	0.968307	0.590514
	N251	N	0.319690	0.038221	0.413735
	N252	N	0.915648	0.467242	0.182082
	N253	N	0.091019	0.538586	0.184691
	N254	N	0.088767	0.469084	0.823146
	N255	N	0.912833	0.539141	0.821277
	N256	N	0.182678	0.915983	0.466957
	N257	N	0.183394	0.091009	0.538429
	N258	N	0.822303	0.091674	0.466763
	N259	N	0.822050	0.916363	0.536754
	N260	N	0.466147	0.185211	0.914175
	N261	N	0.536505	0.187089	0.090491
	N262	N	0.467062	0.823671	0.092024
	N263	N	0.537561	0.824815	0.916219
	N264	N	0.465359	0.919583	0.182050
	N265	N	0.537004	0.093409	0.183112
	N266	N	0.467943	0.093435	0.819653
	N267	N	0.537991	0.917937	0.822987
	N268	N	0.914567	0.185431	0.468041
	N269	N	0.089409	0.183013	0.539623
	N270	N	0.091881	0.821117	0.467812
	N271	N	0.913975	0.821974	0.536740
	N272	N	0.182803	0.469934	0.914319
	N273	N	0.183722	0.539923	0.090546
	N274	N	0.820097	0.469869	0.091313
	N275	N	0.820239	0.540089	0.914589
	O276	O	0.284795	0.525489	0.278931
	H277	H	0.249596	0.526890	0.254248
	H278	H	0.285820	0.563008	0.291814
	O279	O	1.213505	0.218198	1.021097
	H280	H	1.210955	0.211390	1.065596
	H281	H	1.236785	0.246183	1.030312
	O282	O	0.307778	0.301690	0.511917
	H283	H	0.289491	0.292302	0.509296
	H284	H	0.346896	0.297783	0.491052
	O285	O	0.681673	0.683616	0.678909
	H286	H	0.637796	0.698356	0.683466
	H287	H	0.678498	0.676332	0.652718
	O288	O	0.828088	0.827334	0.179327
	H289	H	0.813857	0.848137	0.161154
	H290	H	0.846069	0.841127	0.184574
	O291	O	0.566595	0.448616	0.590645
	H292	H	0.578454	0.429211	0.588857
	H293	H	0.572385	0.463471	0.608959
	O294	O	0.177986	-0.175593	0.829824
	H295	H	0.133860	-0.174758	0.819915
	H296	H	0.181263	-0.132294	0.814237
	O297	O	0.722254	0.471635	0.379612
	H298	H	0.742228	0.475059	0.359346
	H299	H	0.697245	0.479090	0.387584
	O300	O	0.721441	0.525956	0.375356
	H301	H	0.738822	0.547313	0.362128
	H302	H	0.716682	0.497093	0.355669
	O303	O	0.538256	0.636609	0.492841
	H304	H	0.542886	0.648826	0.485221
	H305	H	0.516821	0.645929	0.521452
	O306	O	0.424601	0.487213	0.380730
	H307	H	0.417233	0.479725	0.379494
	H308	H	0.419921	0.508500	0.382877
	O309	O	0.718545	0.502609	0.525653
	H310	H	0.725870	0.519550	0.503745
	H311	H	0.697112	0.501714	0.547682
	O312	O	-0.008260	0.797430	1.211398
	H313	H	-0.014681	0.784726	1.206694
	H314	H	-0.018762	0.778160	1.212614
	O315	O	0.512976	0.652203	0.294227
	H316	H	0.522161	0.659079	0.290511
	H317	H	0.542622	0.654396	0.292326
	O318	O	1.076118	-0.040170	0.224006
	H319	H	1.057359	-0.059464	0.213631
	H320	H	1.061694	-0.053326	0.225921
	O321	O	0.202221	-0.017348	-0.202598
	H322	H	0.200884	0.005471	-0.184364
	H323	H	0.225001	-0.005509	-0.202973
	O324	O	0.678925	0.324821	0.322291
	H325	H	0.691584	0.311524	0.373767
	H326	H	0.649565	0.334898	0.312481
	O327	O	0.322167	0.328082	0.680395
	H328	H	0.312956	0.314518	0.633341
	H329	H	0.365149	0.324064	0.693488
	O330	O	-0.068043	1.036598	0.050095
	H331	H	-0.059136	1.023455	0.059707
	H332	H	-0.049746	1.041642	0.054609
	O333	O	0.270461	0.539578	0.531624
	H334	H	0.267935	0.542620	0.559333
	H335	H	0.277708	0.510877	0.523844
	O336	O	0.210116	-0.047365	0.053825
	H337	H	0.209166	-0.051627	0.074925
	H338	H	0.214757	-0.084151	0.054574
	O339	O	0.223429	0.785635	0.985554
	H340	H	0.206784	0.798667	0.933199
	H341	H	0.262266	0.748564	0.978350
	O342	O	0.062851	0.817743	1.056584
	H343	H	0.087971	0.809727	1.052056
	H344	H	0.055995	0.813752	1.049745
	O345	O	1.036122	1.047766	-0.201510
	H346	H	1.047580	1.044235	-0.197639
	H347	H	1.037137	1.058099	-0.189890
	O348	O	0.323962	0.678572	0.327874
	H349	H	0.360766	0.676843	0.314906
	H350	H	0.334895	0.681099	0.363065
	O351	O	-0.086835	0.905492	0.804669
	H352	H	-0.114668	0.927034	0.811680
	H353	H	-0.087238	0.929060	0.811272
	O354	O	-0.161074	1.185300	-0.175798
	H355	H	-0.151682	1.176111	-0.158930
	H356	H	-0.154512	1.166028	-0.179876
	O357	O	-0.001727	0.212099	0.803409
	H358	H	0.006341	0.198568	0.806534
	H359	H	-0.015101	0.229153	0.787792
	O360	O	0.559702	0.283467	0.573891
	H361	H	0.545968	0.292414	0.556249
	H362	H	0.580770	0.276894	0.548269
	O363	O	-0.200615	-0.200692	1.024178
	H364	H	-0.210420	-0.206927	1.040895
	H365	H	-0.192550	-0.219907	1.012353
	O366	O	0.455816	0.282767	0.445437
	H367	H	0.469639	0.306719	0.425625
	H368	H	0.470396	0.271082	0.421506
	O369	O	0.497070	0.615039	0.708429
	H370	H	0.504162	0.599367	0.697404
	H371	H	0.470311	0.599481	0.715112
	O372	O	0.801338	-0.012911	1.214151
	H373	H	0.778661	0.000310	1.215547
	H374	H	0.796119	-0.004577	1.214045
	O375	O	0.280631	0.483587	0.721638
	H376	H	0.290921	0.445028	0.701856
	H377	H	0.242024	0.476309	0.759629
	O378	O	0.380069	0.393907	0.317568
	H379	H	0.360373	0.412237	0.317166
	H380	H	0.389399	0.393415	0.336057
	O381	O	0.471342	0.292888	0.705724
	H382	H	0.489122	0.283879	0.691702
	H383	H	0.470165	0.262555	0.714096
	O384	O	0.719020	0.286050	0.482482
	H385	H	0.758798	0.254590	0.479751
	H386	H	0.725186	0.329168	0.508427
	O387	O	-0.205380	0.017741	0.798675
	H388	H	-0.233175	0.026804	0.786380
	H389	H	-0.212366	0.011859	0.829282
	O390	O	0.117162	0.202187	0.195276
	H391	H	0.102743	0.209249	0.204427
	H392	H	0.132493	0.182543	0.213472
	O393	O	1.215050	1.066613	0.941366
	H394	H	1.223593	1.094493	0.965097
	H395	H	1.215660	1.053378	0.973356
	O396	O	0.940637	-0.170006	-0.027480
	H397	H	0.941909	-0.175697	-0.043487
	H398	H	0.954743	-0.159039	-0.034824
	O399	O	0.996247	0.078167	1.086975
	H400	H	1.001629	0.071483	1.064276
	H401	H	0.976032	0.086420	1.084849
	O402	O	0.995297	1.178581	1.050800
	H403	H	1.014723	1.169286	1.041713
	H404	H	1.012480	1.194953	1.051419
	O405	O	1.014908	0.801125	-0.199312
	H406	H	1.007659	0.795256	-0.228344
	H407	H	0.991977	0.828167	-0.210103
	O408	O	0.993647	0.126758	0.074898
	H409	H	1.001202	0.126579	0.095342
	H410	H	1.002466	0.124130	0.058384
	O411	O	0.944630	1.075661	0.130313
	H412	H	0.931390	1.078349	0.126446
	H413	H	0.946356	1.059164	0.114537
	O414	O	0.521100	0.283940	0.283948
	H415	H	0.541079	0.266702	0.258287
	H416	H	0.508333	0.304471	0.264520
	O417	O	0.518620	0.486794	0.699859
	H418	H	0.497908	0.463394	0.705482
	H419	H	0.550967	0.474879	0.704243
	O420	O	-0.156142	0.140585	-0.017894
	H421	H	-0.146034	0.148480	-0.008425
	H422	H	-0.149455	0.144449	-0.016336
	O423	O	0.720099	0.526966	0.718786
	H424	H	0.738924	0.551451	0.737037
	H425	H	0.729896	0.540215	0.719099
	O426	O	0.428835	0.525508	0.492720
	H427	H	0.423493	0.531839	0.497268
	H428	H	0.426647	0.525787	0.496351
	O429	O	0.287946	0.718046	0.483724
	H430	H	0.280934	0.710867	0.468171
	H431	H	0.259731	0.722723	0.491441
	O432	O	0.646995	0.632110	0.476084
	H433	H	0.654287	0.613954	0.470600
	H434	H	0.659466	0.646388	0.479972
	O435	O	0.515610	0.563239	0.326192
	H436	H	0.514677	0.571672	0.334586
	H437	H	0.527966	0.563603	0.339227
	O438	O	-0.188405	-0.050950	-0.027299
	H439	H	-0.168653	-0.043192	-0.012234
	H440	H	-0.183632	-0.077204	-0.019147
	O441	O	1.205151	0.103288	0.207580
	H442	H	1.185877	0.070463	0.219425
	H443	H	1.229703	0.111140	0.244356
	O444	O	-0.064357	1.153911	0.984708
	H445	H	-0.053311	1.150917	0.968332
	H446	H	-0.049313	1.153494	0.977085
	O447	O	0.441313	0.676009	0.587799
	H448	H	0.419172	0.669846	0.582113
	H449	H	0.432616	0.667454	0.602266
	O450	O	0.617391	0.707307	0.424045
	H451	H	0.624788	0.706733	0.428927
	H452	H	0.632642	0.719163	0.437518
	O453	O	0.433428	0.674559	0.645952
	H454	H	0.411896	0.653144	0.656012
	H455	H	0.433613	0.690789	0.665029
