data_Molecule from HDF5

_cell_length_a		16.128778
_cell_length_b		16.288400
_cell_length_c		16.282846
_cell_angle_alpha	89.859667
_cell_angle_beta	90.040151
_cell_angle_gamma	89.899891
_symmetry_space_group_name_H-M	'P 1'
_symmetry_Int_Tables_number		1

loop_
	_symmetry_equiv_pos_as_xyz
	x,y,z

loop_
	_atom_site_label
	_atom_site_type_symbol
	_atom_site_fract_x
	_atom_site_fract_y
	_atom_site_fract_z
	H0	H	0.398370	0.838371	0.714857
	H1	H	0.596944	0.164972	0.715394
	H2	H	0.596858	0.837946	0.285220
	H3	H	0.397202	0.165006	0.283639
	H4	H	0.711204	0.406428	0.836200
	H5	H	0.711366	0.599587	0.165128
	H6	H	0.285873	0.599176	0.836148
	H7	H	0.285851	0.404185	0.164218
	H8	H	0.832673	0.717195	0.402062
	H9	H	0.162418	0.716271	0.599726
	H10	H	0.832455	0.289144	0.599664
	H11	H	0.161951	0.289211	0.403833
	H12	H	0.832434	0.405354	0.714067
	H13	H	0.163284	0.600881	0.713317
	H14	H	0.833351	0.603261	0.285672
	H15	H	0.162727	0.404764	0.289649
	H16	H	0.398111	0.717053	0.837429
	H17	H	0.596054	0.716124	0.164388
	H18	H	0.598460	0.286659	0.836913
	H19	H	0.398501	0.286128	0.162858
	H20	H	0.712730	0.838383	0.402468
	H21	H	0.709022	0.167140	0.596678
	H22	H	0.284652	0.837975	0.596380
	H23	H	0.285265	0.167413	0.403920
	H24	H	0.899883	0.339419	0.216624
	H25	H	0.098531	0.666279	0.216123
	H26	H	0.097502	0.338872	0.786024
	H27	H	0.898341	0.666235	0.784639
	H28	H	0.208522	0.907336	0.336049
	H29	H	0.211347	0.099992	0.664187
	H30	H	0.783627	0.100154	0.336148
	H31	H	0.784092	0.905581	0.664435
	H32	H	0.332754	0.215440	0.901774
	H33	H	0.661859	0.214192	0.098850
	H34	H	0.332256	0.788733	0.098111
	H35	H	0.662572	0.788380	0.902896
	H36	H	0.331163	0.904438	0.211554
	H37	H	0.661876	0.099564	0.213498
	H38	H	0.332591	0.101074	0.786241
	H39	H	0.662400	0.903022	0.786827
	H40	H	0.897216	0.218587	0.337247
	H41	H	0.095154	0.215686	0.664404
	H42	H	0.097378	0.788012	0.337641
	H43	H	0.897698	0.787583	0.664344
	H44	H	0.210730	0.337517	0.905236
	H45	H	0.211365	0.666791	0.096531
	H46	H	0.785795	0.338244	0.098085
	H47	H	0.785032	0.667463	0.903809
	H48	H	0.397868	0.119892	0.590969
	H49	H	0.586735	0.886764	0.589953
	H50	H	0.584533	0.117631	0.402905
	H51	H	0.404969	0.885764	0.405921
	H52	H	0.587617	0.414751	0.113973
	H53	H	0.603181	0.593284	0.881350
	H54	H	0.404935	0.588237	0.115770
	H55	H	0.400194	0.412476	0.882646
	H56	H	0.116692	0.595209	0.406651
	H57	H	0.877661	0.605294	0.591959
	H58	H	0.119293	0.408430	0.604641
	H59	H	0.879397	0.419267	0.403036
	H60	H	0.116798	0.399442	0.587661
	H61	H	0.883500	0.589754	0.585174
	H62	H	0.116090	0.597839	0.409426
	H63	H	0.875834	0.402569	0.404569
	H64	H	0.411673	0.600988	0.117507
	H65	H	0.582880	0.587164	0.889295
	H66	H	0.586038	0.399481	0.117355
	H67	H	0.410755	0.410522	0.885222
	H68	H	0.588438	0.117210	0.410690
	H69	H	0.595512	0.884932	0.591812
	H70	H	0.405633	0.119955	0.601179
	H71	H	0.401824	0.885438	0.407017
	H72	H	0.919815	0.617687	0.101763
	H73	H	0.095788	0.383809	0.100939
	H74	H	0.093442	0.619870	0.905993
	H75	H	0.911009	0.388377	0.908842
	H76	H	0.079590	0.908832	0.614607
	H77	H	0.087444	0.094735	0.384067
	H78	H	0.895418	0.097087	0.619803
	H79	H	0.911801	0.903857	0.383444
	H80	H	0.617137	0.098075	0.905904
	H81	H	0.375421	0.098982	0.098962
	H82	H	0.615161	0.908259	0.093165
	H83	H	0.377093	0.901185	0.905817
	H84	H	0.615442	0.908797	0.093040
	H85	H	0.380036	0.098524	0.086123
	H86	H	0.614451	0.093735	0.911881
	H87	H	0.382293	0.912244	0.915376
	H88	H	0.907782	0.089899	0.614489
	H89	H	0.089003	0.102785	0.382333
	H90	H	0.095638	0.899220	0.621876
	H91	H	0.897152	0.906114	0.381108
	H92	H	0.090949	0.619152	0.905695
	H93	H	0.085532	0.387635	0.097178
	H94	H	0.903932	0.614734	0.077677
	H95	H	0.900218	0.385158	0.909779
	H96	H	0.410059	0.116082	0.590415
	H97	H	0.589192	0.883789	0.598435
	H98	H	0.593358	0.119775	0.403845
	H99	H	0.403221	0.884455	0.404346
	H100	H	0.599873	0.407304	0.119959
	H101	H	0.585830	0.607173	0.881359
	H102	H	0.397407	0.599462	0.120638
	H103	H	0.403966	0.402261	0.880895
	H104	H	0.114556	0.594257	0.409993
	H105	H	0.878490	0.591308	0.602523
	H106	H	0.111466	0.418806	0.589667
	H107	H	0.882111	0.410981	0.417663
	H108	H	0.891482	0.625831	0.102064
	H109	H	0.094855	0.385944	0.089300
	H110	H	0.091046	0.619064	0.907843
	H111	H	0.905992	0.384255	0.900600
	H112	H	0.096535	0.918603	0.616898
	H113	H	0.094878	0.097120	0.381712
	H114	H	0.908549	0.104543	0.618038
	H115	H	0.906041	0.917353	0.386086
	H116	H	0.615321	0.090377	0.904879
	H117	H	0.380221	0.087633	0.093468
	H118	H	0.615344	0.908699	0.093865
	H119	H	0.379173	0.914745	0.900214
	C120	C	0.375711	0.010517	0.622048
	C121	C	0.618840	0.993843	0.621782
	C122	C	0.618456	0.010089	0.377830
	C123	C	0.375037	0.993557	0.377925
	C124	C	0.619965	0.379542	0.008952
	C125	C	0.619223	0.624300	0.992317
	C126	C	0.376417	0.624143	0.009265
	C127	C	0.376598	0.380045	0.991213
	C128	C	0.006587	0.624672	0.379477
	C129	C	0.989299	0.624000	0.621647
	C130	C	0.006477	0.381054	0.622234
	C131	C	0.988325	0.382166	0.380244
	C132	C	0.876743	0.511251	0.122730
	C133	C	0.120455	0.494379	0.123020
	C134	C	0.120075	0.510805	0.878537
	C135	C	0.876429	0.494116	0.878393
	C136	C	0.118839	0.880964	0.509385
	C137	C	0.118763	0.125293	0.491705
	C138	C	0.875093	0.125123	0.509175
	C139	C	0.875987	0.881015	0.491904
	C140	C	0.506163	0.122749	0.878950
	C141	C	0.487936	0.123071	0.121278
	C142	C	0.505883	0.880432	0.121356
	C143	C	0.488597	0.880419	0.878979
	C144	C	0.377853	0.887472	0.677181
	C145	C	0.616833	0.116511	0.677095
	C146	C	0.616692	0.886803	0.323399
	C147	C	0.377305	0.116677	0.322369
	C148	C	0.674536	0.383876	0.885259
	C149	C	0.673670	0.620394	0.116032
	C150	C	0.322159	0.620605	0.885531
	C151	C	0.322942	0.383357	0.115072
	C152	C	0.882145	0.679507	0.381579
	C153	C	0.113348	0.678527	0.619508
	C154	C	0.881775	0.326525	0.620043
	C155	C	0.112837	0.327174	0.383266
	C156	C	0.881809	0.384194	0.676860
	C157	C	0.113587	0.621391	0.676420
	C158	C	0.882778	0.623199	0.323458
	C159	C	0.113196	0.384446	0.326480
	C160	C	0.377938	0.679271	0.886109
	C161	C	0.616595	0.678579	0.115490
	C162	C	0.618054	0.324939	0.885590
	C163	C	0.378526	0.324452	0.114350
	C164	C	0.674193	0.887052	0.381703
	C165	C	0.672545	0.117490	0.617938
	C166	C	0.321333	0.887238	0.618188
	C167	C	0.321562	0.117799	0.382002
	C168	C	0.879456	0.388121	0.178053
	C169	C	0.118106	0.617590	0.177735
	C170	C	0.117694	0.387568	0.824129
	C171	C	0.878483	0.617612	0.823285
	C172	C	0.172278	0.885248	0.385331
	C173	C	0.173616	0.121177	0.615244
	C174	C	0.820625	0.121696	0.385328
	C175	C	0.821441	0.884155	0.615588
	C176	C	0.382046	0.177939	0.881157
	C177	C	0.612377	0.177070	0.119115
	C178	C	0.381450	0.826203	0.118578
	C179	C	0.613175	0.825622	0.882100
	C180	C	0.381151	0.883453	0.175156
	C181	C	0.612251	0.120330	0.176383
	C182	C	0.381934	0.120784	0.824020
	C183	C	0.613270	0.882800	0.824663
	C184	C	0.876903	0.180580	0.385941
	C185	C	0.116083	0.179063	0.615224
	C186	C	0.117098	0.825823	0.386338
	C187	C	0.877873	0.825459	0.615454
	C188	C	0.173799	0.386785	0.883404
	C189	C	0.174481	0.617948	0.118346
	C190	C	0.822748	0.387533	0.119406
	C191	C	0.822119	0.618033	0.882261
	C192	C	0.397988	0.096626	0.600647
	C193	C	0.596931	0.907561	0.599902
	C194	C	0.595642	0.095935	0.399412
	C195	C	0.396746	0.907567	0.399566
	C196	C	0.597853	0.400763	0.094727
	C197	C	0.597115	0.602409	0.906348
	C198	C	0.398294	0.602705	0.095613
	C199	C	0.398422	0.401869	0.905135
	C200	C	0.093403	0.602230	0.402167
	C201	C	0.902395	0.601970	0.599552
	C202	C	0.093277	0.402506	0.600414
	C203	C	0.901510	0.404541	0.401909
	C204	C	0.898471	0.597071	0.100384
	C205	C	0.098507	0.408088	0.102193
	C206	C	0.098246	0.597082	0.899965
	C207	C	0.898980	0.408157	0.900065
	C208	C	0.096926	0.902428	0.595624
	C209	C	0.096875	0.104447	0.405033
	C210	C	0.897138	0.103496	0.595220
	C211	C	0.898298	0.902599	0.405899
	C212	C	0.593172	0.100603	0.901095
	C213	C	0.400890	0.101342	0.099126
	C214	C	0.592836	0.902042	0.099770
	C215	C	0.401891	0.902785	0.900729
	Zn216	Zn	0.498005	0.001793	0.750978
	Zn217	Zn	0.496584	0.001513	0.248544
	Zn218	Zn	0.747857	0.502481	0.000771
	Zn219	Zn	0.248965	0.502230	0.000312
	Zn220	Zn	-0.002606	0.752390	0.500987
	Zn221	Zn	-0.003151	0.253946	0.500331
	Zn222	Zn	-0.001505	0.502951	0.749747
	Zn223	Zn	-0.001748	0.502956	0.251982
	Zn224	Zn	0.497140	0.752734	0.000593
	Zn225	Zn	0.497418	0.250977	-0.000116
	Zn226	Zn	0.747284	0.002817	0.500229
	Zn227	Zn	0.246690	0.002497	0.499980
	N228	N	0.411133	0.965198	0.679698
	N229	N	0.583982	0.038566	0.679483
	N230	N	0.582512	0.964278	0.321064
	N231	N	0.409951	0.038590	0.319728
	N232	N	0.675812	0.417187	0.962691
	N233	N	0.675547	0.587244	0.038309
	N234	N	0.321390	0.586692	0.962995
	N235	N	0.321674	0.417201	0.037664
	N236	N	0.960255	0.680641	0.415701
	N237	N	0.035011	0.680260	0.586242
	N238	N	0.960240	0.324476	0.586902
	N239	N	0.034295	0.325715	0.416085
	N240	N	0.960252	0.417458	0.678443
	N241	N	0.035288	0.587835	0.677650
	N242	N	0.961192	0.589887	0.321953
	N243	N	0.034819	0.418030	0.324606
	N244	N	0.411048	0.681516	0.964044
	N245	N	0.583547	0.680993	0.037656
	N246	N	0.585000	0.321885	0.963541
	N247	N	0.411590	0.322553	0.036396
	N248	N	0.675192	0.964602	0.414827
	N249	N	0.673853	0.040108	0.584298
	N250	N	0.319903	0.964829	0.584753
	N251	N	0.320113	0.040301	0.415879
	N252	N	0.912351	0.465955	0.180258
	N253	N	0.085603	0.539508	0.180862
	N254	N	0.085060	0.465621	0.821031
	N255	N	0.911649	0.539669	0.820784
	N256	N	0.173537	0.918630	0.462829
	N257	N	0.175284	0.088509	0.537316
	N258	N	0.819294	0.088278	0.462987
	N259	N	0.820187	0.918006	0.538199
	N260	N	0.460414	0.179274	0.914490
	N261	N	0.534087	0.178918	0.085542
	N262	N	0.460042	0.824116	0.086044
	N263	N	0.534655	0.824292	0.915219
	N264	N	0.459535	0.916707	0.176797
	N265	N	0.533724	0.087456	0.177962
	N266	N	0.460256	0.087214	0.822558
	N267	N	0.534868	0.916157	0.822543
	N268	N	0.910035	0.182959	0.463814
	N269	N	0.082751	0.181690	0.537368
	N270	N	0.084562	0.822952	0.464493
	N271	N	0.911145	0.823352	0.537392
	N272	N	0.175415	0.464543	0.916365
	N273	N	0.176001	0.540399	0.084900
	N274	N	0.820785	0.465091	0.085750
	N275	N	0.820524	0.540347	0.915669
	O276	O	0.483560	0.484703	0.503578
	H277	H	0.480672	0.487718	0.501268
	H278	H	0.492706	0.478694	0.505988
	O279	O	-0.092516	0.005733	0.021505
	H280	H	-0.095360	0.008712	0.020218
	H281	H	-0.094029	0.003352	0.019901
	O282	O	0.583317	0.479656	0.445971
	H283	H	0.581520	0.472113	0.444971
	H284	H	0.595041	0.479024	0.440573
	O285	O	0.511003	0.538570	0.503001
	H286	H	0.502933	0.528474	0.494086
	H287	H	0.518974	0.537353	0.497914
	O288	O	0.905594	0.008322	0.010066
	H289	H	0.899305	0.009406	0.010004
	H290	H	0.899615	0.008908	0.006645
	O291	O	-0.537908	0.482148	-0.488920
	H292	H	-0.534974	0.486341	-0.484510
	H293	H	-0.544058	0.477988	-0.483909
	O294	O	0.472364	0.469803	0.476463
	H295	H	0.475065	0.468909	0.473596
	H296	H	0.471765	0.470176	0.472022
	O297	O	0.519571	1.496090	0.491643
	H298	H	0.512581	1.501948	0.495626
	H299	H	0.527516	1.490170	0.483023
	O300	O	1.560988	0.536677	0.511035
	H301	H	1.559063	0.544915	0.501230
	H302	H	1.554131	0.543245	0.520877
	O303	O	0.450941	0.456779	0.511617
	H304	H	0.445624	0.458742	0.509177
	H305	H	0.459250	0.462730	0.504130
	O306	O	0.429809	0.499942	1.436551
	H307	H	0.424714	0.505700	1.434235
	H308	H	0.426634	0.500888	1.433859
	O309	O	0.439946	0.548375	0.470280
	H310	H	0.437764	0.546955	0.480547
	H311	H	0.447002	0.537295	0.474823
