data_Molecule from HDF5

_cell_length_a		16.312541
_cell_length_b		16.043563
_cell_length_c		16.271429
_cell_angle_alpha	90.020215
_cell_angle_beta	89.563998
_cell_angle_gamma	90.122086
_symmetry_space_group_name_H-M	'P 1'
_symmetry_Int_Tables_number		1

loop_
	_symmetry_equiv_pos_as_xyz
	x,y,z

loop_
	_atom_site_label
	_atom_site_type_symbol
	_atom_site_fract_x
	_atom_site_fract_y
	_atom_site_fract_z
	H0	H	0.397213	0.835961	0.712694
	H1	H	0.595235	0.167836	0.710720
	H2	H	0.595053	0.835978	0.283738
	H3	H	0.400503	0.168303	0.288099
	H4	H	0.712694	0.400986	0.835391
	H5	H	0.709962	0.603663	0.161631
	H6	H	0.280239	0.603642	0.834718
	H7	H	0.276880	0.400527	0.160588
	H8	H	0.831598	0.713135	0.403797
	H9	H	0.160351	0.712770	0.593160
	H10	H	0.831904	0.287341	0.595310
	H11	H	0.160301	0.288506	0.400420
	H12	H	0.832443	0.399321	0.715424
	H13	H	0.158282	0.601761	0.713232
	H14	H	0.830999	0.599573	0.285801
	H15	H	0.157398	0.399089	0.278719
	H16	H	0.400346	0.715216	0.833554
	H17	H	0.588241	0.713637	0.163976
	H18	H	0.593175	0.289479	0.833190
	H19	H	0.398300	0.290250	0.162849
	H20	H	0.710301	0.835209	0.398654
	H21	H	0.712068	0.166542	0.597637
	H22	H	0.280874	0.835807	0.599113
	H23	H	0.283785	0.167069	0.401468
	H24	H	0.893806	0.335107	0.211659
	H25	H	0.091301	0.667133	0.210244
	H26	H	0.093273	0.334934	0.785329
	H27	H	0.896685	0.666941	0.783839
	H28	H	0.214239	0.898606	0.335223
	H29	H	0.210639	0.102734	0.662182
	H30	H	0.783653	0.100030	0.334927
	H31	H	0.777651	0.897690	0.661025
	H32	H	0.332040	0.214575	0.902280
	H33	H	0.660466	0.215176	0.092726
	H34	H	0.330648	0.791205	0.096076
	H35	H	0.660067	0.789828	0.900825
	H36	H	0.333794	0.902605	0.216774
	H37	H	0.659338	0.103869	0.213455
	H38	H	0.333899	0.104287	0.782752
	H39	H	0.658166	0.900999	0.780298
	H40	H	0.902951	0.211938	0.333623
	H41	H	0.090868	0.213583	0.662744
	H42	H	0.092493	0.788439	0.333437
	H43	H	0.899619	0.788541	0.663748
	H44	H	0.210775	0.336672	0.896914
	H45	H	0.207167	0.667426	0.096205
	H46	H	0.778478	0.336832	0.097648
	H47	H	0.783801	0.668350	0.900415
	H48	H	0.406443	0.116897	0.584405
	H49	H	0.589813	0.882655	0.591805
	H50	H	0.598510	0.121850	0.406478
	H51	H	0.408108	0.883989	0.406713
	H52	H	0.590336	0.403307	0.117462
	H53	H	0.582151	0.596772	0.882375
	H54	H	0.386150	0.589239	0.116938
	H55	H	0.400939	0.414174	0.882044
	H56	H	0.107555	0.587810	0.412591
	H57	H	0.875458	0.611637	0.585211
	H58	H	0.113554	0.404153	0.591003
	H59	H	0.878281	0.405031	0.403794
	H60	H	0.110756	0.410597	0.588476
	H61	H	0.887438	0.577367	0.581007
	H62	H	0.112871	0.586513	0.391609
	H63	H	0.878881	0.406887	0.406161
	H64	H	0.408685	0.586383	0.110477
	H65	H	0.596239	0.599773	0.878870
	H66	H	0.592703	0.415915	0.114935
	H67	H	0.405874	0.407869	0.881273
	H68	H	0.586777	0.120360	0.399473
	H69	H	0.583884	0.883394	0.590822
	H70	H	0.395360	0.122317	0.590206
	H71	H	0.402627	0.883435	0.410451
	H72	H	0.903551	0.620316	0.094230
	H73	H	0.092953	0.381359	0.087940
	H74	H	0.094775	0.620394	0.910880
	H75	H	0.903645	0.379586	0.895468
	H76	H	0.088828	0.913128	0.612584
	H77	H	0.095693	0.097924	0.379546
	H78	H	0.888621	0.094657	0.620490
	H79	H	0.908287	0.896652	0.380127
	H80	H	0.613725	0.090220	0.897117
	H81	H	0.378775	0.098387	0.094104
	H82	H	0.613043	0.908713	0.093430
	H83	H	0.379840	0.913115	0.905656
	H84	H	0.613337	0.907886	0.090903
	H85	H	0.380363	0.092507	0.092315
	H86	H	0.615713	0.102036	0.902357
	H87	H	0.378007	0.909644	0.902226
	H88	H	0.905137	0.080998	0.611118
	H89	H	0.094991	0.087716	0.382571
	H90	H	0.086210	0.903299	0.615490
	H91	H	0.891184	0.907275	0.378505
	H92	H	0.088284	0.622102	0.896539
	H93	H	0.083461	0.381175	0.094260
	H94	H	0.901758	0.619764	0.089991
	H95	H	0.911456	0.387982	0.911695
	H96	H	0.406865	0.120793	0.597622
	H97	H	0.587855	0.884452	0.586905
	H98	H	0.587351	0.116226	0.412517
	H99	H	0.402478	0.881006	0.403775
	H100	H	0.579953	0.411482	0.112498
	H101	H	0.592626	0.586920	0.883340
	H102	H	0.401397	0.608753	0.119164
	H103	H	0.397731	0.406110	0.878785
	H104	H	0.115710	0.605624	0.402183
	H105	H	0.874935	0.588324	0.613059
	H106	H	0.113280	0.409730	0.595676
	H107	H	0.879098	0.407825	0.403881
	H108	H	0.898827	0.622112	0.094048
	H109	H	0.082850	0.385297	0.084221
	H110	H	0.079905	0.616577	0.909811
	H111	H	0.892492	0.381490	0.911501
	H112	H	0.095460	0.906038	0.617806
	H113	H	0.086461	0.093840	0.382645
	H114	H	0.909428	0.103562	0.616564
	H115	H	0.907590	0.916194	0.385245
	H116	H	0.610244	0.093010	0.909297
	H117	H	0.379022	0.093936	0.098594
	H118	H	0.611891	0.910845	0.091142
	H119	H	0.378865	0.907878	0.907257
	C120	C	0.374305	0.010653	0.620012
	C121	C	0.616615	0.992885	0.618538
	C122	C	0.619096	0.010138	0.376722
	C123	C	0.376171	0.992593	0.378548
	C124	C	0.616923	0.380842	0.006597
	C125	C	0.617229	0.623699	0.990213
	C126	C	0.372539	0.623668	0.006800
	C127	C	0.372727	0.380351	0.989253
	C128	C	0.003704	0.621716	0.375788
	C129	C	0.987369	0.621834	0.620304
	C130	C	0.004187	0.379058	0.620217
	C131	C	0.986983	0.378108	0.375533
	C132	C	0.872581	0.510606	0.120442
	C133	C	0.115042	0.492092	0.118175
	C134	C	0.116474	0.510239	0.876762
	C135	C	0.874438	0.493103	0.877287
	C136	C	0.118464	0.878637	0.506912
	C137	C	0.118960	0.122349	0.490002
	C138	C	0.874616	0.121841	0.507225
	C139	C	0.873879	0.877879	0.489940
	C140	C	0.504625	0.123990	0.875850
	C141	C	0.487522	0.124120	0.121257
	C142	C	0.504406	0.880944	0.120540
	C143	C	0.487254	0.880826	0.876185
	C144	C	0.376830	0.885359	0.675087
	C145	C	0.614985	0.118084	0.672881
	C146	C	0.615911	0.885487	0.321229
	C147	C	0.379620	0.118453	0.325063
	C148	C	0.673913	0.381331	0.883832
	C149	C	0.671499	0.622623	0.113145
	C150	C	0.318472	0.622503	0.883402
	C151	C	0.316242	0.381481	0.112196
	C152	C	0.880434	0.675947	0.381612
	C153	C	0.111023	0.676199	0.615145
	C154	C	0.880915	0.324108	0.616958
	C155	C	0.110901	0.324823	0.378819
	C156	C	0.881134	0.380129	0.676275
	C157	C	0.110092	0.620999	0.674968
	C158	C	0.880327	0.619657	0.322954
	C159	C	0.109413	0.379771	0.318347
	C160	C	0.377791	0.678544	0.882972
	C161	C	0.611119	0.677511	0.114246
	C162	C	0.614185	0.326270	0.882625
	C163	C	0.376461	0.326536	0.113331
	C164	C	0.672917	0.885040	0.378725
	C165	C	0.673189	0.117380	0.617052
	C166	C	0.319330	0.885260	0.618659
	C167	C	0.321463	0.117634	0.381265
	C168	C	0.873989	0.385083	0.174597
	C169	C	0.112156	0.617633	0.172898
	C170	C	0.114085	0.384932	0.822028
	C171	C	0.877118	0.617744	0.822317
	C172	C	0.175097	0.879670	0.383943
	C173	C	0.172749	0.121546	0.613208
	C174	C	0.821646	0.119366	0.383677
	C175	C	0.817077	0.878666	0.612762
	C176	C	0.381429	0.177924	0.880972
	C177	C	0.611108	0.179011	0.115780
	C178	C	0.380303	0.827351	0.117629
	C179	C	0.610719	0.826491	0.879355
	C180	C	0.381659	0.882539	0.177587
	C181	C	0.610814	0.123114	0.175422
	C182	C	0.382250	0.122917	0.821223
	C183	C	0.609790	0.881700	0.819452
	C184	C	0.880588	0.175438	0.383149
	C185	C	0.113206	0.176711	0.613719
	C186	C	0.114339	0.824984	0.382823
	C187	C	0.877481	0.824278	0.614110
	C188	C	0.172340	0.385778	0.877753
	C189	C	0.169621	0.617694	0.116179
	C190	C	0.816888	0.385811	0.117777
	C191	C	0.820541	0.618284	0.879900
	C192	C	0.396347	0.097424	0.597444
	C193	C	0.593840	0.905952	0.596240
	C194	C	0.597296	0.097272	0.399406
	C195	C	0.398061	0.905416	0.400388
	C196	C	0.594351	0.403446	0.092671
	C197	C	0.596579	0.601055	0.903777
	C198	C	0.392749	0.601388	0.093165
	C199	C	0.394975	0.402729	0.903149
	C200	C	0.089706	0.599718	0.396137
	C201	C	0.901543	0.599213	0.599264
	C202	C	0.090126	0.401738	0.598342
	C203	C	0.900973	0.400198	0.397997
	C204	C	0.894764	0.598014	0.099009
	C205	C	0.092954	0.405167	0.095466
	C206	C	0.093965	0.597299	0.898905
	C207	C	0.896061	0.405550	0.899789
	C208	C	0.096652	0.900884	0.593076
	C209	C	0.098437	0.099685	0.403857
	C210	C	0.895062	0.099673	0.593748
	C211	C	0.895883	0.900235	0.403560
	C212	C	0.591116	0.101711	0.896837
	C213	C	0.401694	0.101619	0.101156
	C214	C	0.590350	0.902813	0.098327
	C215	C	0.401243	0.903598	0.898502
	Zn216	Zn	0.495631	0.002345	0.747339
	Zn217	Zn	0.496721	0.002350	0.250002
	Zn218	Zn	0.746248	0.502270	-0.001621
	Zn219	Zn	0.243565	0.501883	-0.002378
	Zn220	Zn	-0.004375	0.750247	0.498570
	Zn221	Zn	-0.003554	0.250108	0.498245
	Zn222	Zn	-0.004425	0.501162	0.749290
	Zn223	Zn	-0.005622	0.500468	0.246594
	Zn224	Zn	0.495069	0.752413	-0.001871
	Zn225	Zn	0.495901	0.252278	-0.001779
	Zn226	Zn	0.746069	0.000445	0.498826
	Zn227	Zn	0.247317	0.000967	0.498847
	N228	N	0.410421	0.964244	0.676161
	N229	N	0.580412	0.039841	0.674120
	N230	N	0.582688	0.964182	0.320186
	N231	N	0.412997	0.039815	0.323344
	N232	N	0.675711	0.414699	0.961784
	N233	N	0.675331	0.589960	0.034967
	N234	N	0.315118	0.589299	0.961457
	N235	N	0.313797	0.414031	0.033958
	N236	N	0.958056	0.677470	0.413829
	N237	N	0.033807	0.676715	0.581644
	N238	N	0.958328	0.323271	0.582746
	N239	N	0.033725	0.323727	0.413658
	N240	N	0.958825	0.413755	0.678342
	N241	N	0.032230	0.587997	0.678201
	N242	N	0.958118	0.586818	0.319097
	N243	N	0.031331	0.412185	0.316238
	N244	N	0.410715	0.679442	0.960538
	N245	N	0.578132	0.678268	0.036571
	N246	N	0.579628	0.325854	0.960014
	N247	N	0.411004	0.325617	0.035873
	N248	N	0.675013	0.963681	0.412462
	N249	N	0.674373	0.038564	0.583910
	N250	N	0.317498	0.963887	0.585113
	N251	N	0.319169	0.038456	0.413670
	N252	N	0.907814	0.463813	0.176464
	N253	N	0.078920	0.538784	0.174399
	N254	N	0.079952	0.463345	0.821192
	N255	N	0.909838	0.538850	0.820688
	N256	N	0.177499	0.912621	0.462030
	N257	N	0.176324	0.088373	0.535237
	N258	N	0.818011	0.086655	0.461782
	N259	N	0.814866	0.911457	0.534585
	N260	N	0.458627	0.178477	0.914366
	N261	N	0.533831	0.179629	0.082654
	N262	N	0.457611	0.826169	0.082919
	N263	N	0.533342	0.825558	0.913639
	N264	N	0.459648	0.915094	0.179710
	N265	N	0.532909	0.090164	0.179366
	N266	N	0.460102	0.090206	0.817962
	N267	N	0.531929	0.914547	0.817233
	N268	N	0.912794	0.176802	0.461169
	N269	N	0.080522	0.177472	0.536051
	N270	N	0.079936	0.824112	0.460362
	N271	N	0.912163	0.823715	0.536735
	N272	N	0.174023	0.464622	0.910780
	N273	N	0.171534	0.538779	0.082877
	N274	N	0.815959	0.464654	0.084662
	N275	N	0.818838	0.539514	0.913568
	O276	O	0.463919	0.539892	0.462460
	H277	H	0.460900	0.546325	0.452611
	H278	H	0.458428	0.527072	0.464155
	O279	O	0.474209	0.495712	0.453613
	H280	H	0.474795	0.488836	0.450067
	H281	H	0.464323	0.492123	0.449446
	O282	O	0.548361	0.529628	0.485184
	H283	H	0.550401	0.535011	0.483126
	H284	H	0.559002	0.532664	0.489928
	O285	O	-0.013010	1.013696	0.970980
	H286	H	-0.006273	1.008131	0.970383
	H287	H	-0.020518	1.012224	0.972838
	O288	O	0.487382	0.540405	0.544471
	H289	H	0.487195	0.549178	0.548335
	H290	H	0.483747	0.536451	0.548984
	O291	O	0.104061	0.059700	1.035179
	H292	H	0.110582	0.068743	1.045740
	H293	H	0.097429	0.058872	1.029591
	O294	O	0.511927	0.555430	0.584386
	H295	H	0.513331	0.563752	0.572055
	H296	H	0.510204	0.551895	0.584594
	O297	O	0.427327	0.482390	0.508032
	H298	H	0.424558	0.486689	0.508313
	H299	H	0.422115	0.477444	0.495104
	O300	O	0.546059	0.507992	0.507670
	H301	H	0.549173	0.503871	0.511642
	H302	H	0.554376	0.505367	0.509963
	O303	O	0.596484	0.522034	0.469315
	H304	H	0.595360	0.529186	0.465543
	H305	H	0.598555	0.531255	0.477394
	O306	O	0.987338	-0.029172	1.013370
	H307	H	0.988359	-0.025962	1.015685
	H308	H	0.986710	-0.015011	1.005441
	O309	O	0.445155	0.521842	0.506989
	H310	H	0.442722	0.519873	0.505799
	H311	H	0.456052	0.524798	0.511846
	O312	O	0.529981	0.404135	0.460902
	H313	H	0.526864	0.399382	0.460636
	H314	H	0.534243	0.411403	0.456167
	O315	O	1.052261	0.057737	1.018268
	H316	H	1.047324	0.051459	1.022016
	H317	H	1.051616	0.043586	1.002900
	O318	O	-0.003541	0.030776	-0.007803
	H319	H	0.005871	0.030732	-0.002710
	H320	H	0.000691	0.029236	-0.007102
	O321	O	0.466468	0.504769	0.462512
	H322	H	0.468558	0.502099	0.455635
	H323	H	0.456412	0.502646	0.466992
	O324	O	1.025197	0.005293	0.004221
	H325	H	1.033307	0.013327	0.012689
	H326	H	1.027271	0.002995	0.010950
	O327	O	1.074606	1.006737	0.056611
	H328	H	1.076002	1.009851	0.062657
	H329	H	1.072613	1.010876	0.054003
	O330	O	0.530676	0.469185	0.474486
	H331	H	0.535434	0.465786	0.472931
	H332	H	0.529389	0.458018	0.479964
	O333	O	0.457531	0.446897	0.496556
	H334	H	0.466269	0.446866	0.501697
	H335	H	0.455386	0.453833	0.516537
