data_Molecule from HDF5

_cell_length_a		16.656123
_cell_length_b		16.631166
_cell_length_c		16.632819
_cell_angle_alpha	90.024838
_cell_angle_beta	90.058764
_cell_angle_gamma	90.097450
_symmetry_space_group_name_H-M	'P 1'
_symmetry_Int_Tables_number		1

loop_
	_symmetry_equiv_pos_as_xyz
	x,y,z

loop_
	_atom_site_label
	_atom_site_type_symbol
	_atom_site_fract_x
	_atom_site_fract_y
	_atom_site_fract_z
	H0	H	0.393729	0.834712	0.729631
	H1	H	0.602479	0.145572	0.732227
	H2	H	0.602557	0.837264	0.288371
	H3	H	0.389443	0.144398	0.285524
	H4	H	0.719578	0.384651	0.854649
	H5	H	0.722537	0.598935	0.161822
	H6	H	0.273479	0.599691	0.856026
	H7	H	0.274179	0.383642	0.162435
	H8	H	0.841525	0.711161	0.404270
	H9	H	0.153033	0.712345	0.612706
	H10	H	0.843557	0.269457	0.615024
	H11	H	0.151427	0.267573	0.402119
	H12	H	0.843093	0.386743	0.730621
	H13	H	0.151988	0.598132	0.731050
	H14	H	0.843421	0.597192	0.285914
	H15	H	0.151266	0.384960	0.286876
	H16	H	0.391612	0.713390	0.854821
	H17	H	0.605377	0.714355	0.162720
	H18	H	0.603594	0.268739	0.854630
	H19	H	0.390139	0.268785	0.162736
	H20	H	0.716148	0.834788	0.407415
	H21	H	0.720216	0.144619	0.617041
	H22	H	0.277373	0.835051	0.613506
	H23	H	0.275078	0.145388	0.402538
	H24	H	0.887841	0.337819	0.234532
	H25	H	0.104767	0.644581	0.231883
	H26	H	0.105478	0.337891	0.785052
	H27	H	0.892699	0.646688	0.787442
	H28	H	0.222157	0.883107	0.355874
	H29	H	0.221429	0.098720	0.663573
	H30	H	0.775139	0.096071	0.355709
	H31	H	0.775954	0.884418	0.665523
	H32	H	0.343932	0.215116	0.901785
	H33	H	0.650285	0.216753	0.118372
	H34	H	0.346719	0.765192	0.119341
	H35	H	0.651994	0.768942	0.903325
	H36	H	0.345366	0.882114	0.234014
	H37	H	0.651111	0.099654	0.233731
	H38	H	0.342698	0.097727	0.787223
	H39	H	0.651621	0.883721	0.787284
	H40	H	0.890093	0.213145	0.356030
	H41	H	0.104630	0.213280	0.664529
	H42	H	0.103246	0.770153	0.353777
	H43	H	0.892755	0.769067	0.664582
	H44	H	0.221674	0.338809	0.900201
	H45	H	0.224348	0.641030	0.120951
	H46	H	0.772505	0.337903	0.117675
	H47	H	0.775892	0.645827	0.902322
	H48	H	0.410012	0.102301	0.600953
	H49	H	0.585588	0.878437	0.599797
	H50	H	0.591024	0.104928	0.422858
	H51	H	0.408812	0.880149	0.422596
	H52	H	0.588577	0.401353	0.121981
	H53	H	0.587969	0.580393	0.896618
	H54	H	0.414514	0.573101	0.117044
	H55	H	0.408673	0.405205	0.897963
	H56	H	0.105598	0.573823	0.423476
	H57	H	0.886559	0.579664	0.599945
	H58	H	0.108212	0.405739	0.599441
	H59	H	0.886487	0.401154	0.421617
	H60	H	0.111056	0.400367	0.598297
	H61	H	0.886061	0.581488	0.597581
	H62	H	0.111324	0.580732	0.412908
	H63	H	0.887148	0.402277	0.423131
	H64	H	0.413702	0.582831	0.120004
	H65	H	0.586679	0.578964	0.898097
	H66	H	0.586788	0.408491	0.118787
	H67	H	0.411783	0.403942	0.898757
	H68	H	0.583940	0.103324	0.417713
	H69	H	0.585578	0.879417	0.598862
	H70	H	0.410625	0.101123	0.597491
	H71	H	0.410129	0.879802	0.421061
	H72	H	0.912158	0.601188	0.096481
	H73	H	0.081337	0.382084	0.093958
	H74	H	0.083881	0.600328	0.923055
	H75	H	0.905974	0.380009	0.923176
	H76	H	0.085174	0.906511	0.618744
	H77	H	0.084539	0.076225	0.399561
	H78	H	0.911784	0.076372	0.620093
	H79	H	0.902465	0.903963	0.397615
	H80	H	0.611323	0.083355	0.915517
	H81	H	0.386940	0.078830	0.097630
	H82	H	0.611234	0.901825	0.101418
	H83	H	0.387878	0.905248	0.921957
	H84	H	0.608824	0.901861	0.094472
	H85	H	0.388057	0.078864	0.096427
	H86	H	0.607120	0.083661	0.929187
	H87	H	0.386314	0.900946	0.920940
	H88	H	0.910196	0.081794	0.622389
	H89	H	0.084316	0.079397	0.399576
	H90	H	0.083357	0.898862	0.620508
	H91	H	0.909619	0.903862	0.400130
	H92	H	0.088675	0.602600	0.923087
	H93	H	0.089137	0.378148	0.095192
	H94	H	0.909561	0.601006	0.095581
	H95	H	0.908352	0.378516	0.916619
	H96	H	0.407601	0.103621	0.599159
	H97	H	0.586781	0.879202	0.599508
	H98	H	0.583886	0.100761	0.426206
	H99	H	0.410621	0.881035	0.422820
	H100	H	0.581163	0.402591	0.118759
	H101	H	0.585490	0.581040	0.897782
	H102	H	0.405699	0.576505	0.120718
	H103	H	0.409341	0.401829	0.897255
	H104	H	0.108841	0.587384	0.424638
	H105	H	0.886481	0.578889	0.597047
	H106	H	0.107959	0.402841	0.593581
	H107	H	0.887220	0.403259	0.421151
	H108	H	0.909711	0.601822	0.097999
	H109	H	0.083237	0.378509	0.101558
	H110	H	0.085066	0.603467	0.918901
	H111	H	0.912689	0.381493	0.921575
	H112	H	0.089977	0.901946	0.621785
	H113	H	0.086846	0.078040	0.398417
	H114	H	0.906236	0.077706	0.621359
	H115	H	0.906471	0.897369	0.396488
	H116	H	0.604606	0.071532	0.921631
	H117	H	0.387914	0.077921	0.097180
	H118	H	0.607926	0.908057	0.098289
	H119	H	0.388019	0.901977	0.925242
	C120	C	0.376940	-0.000626	0.630822
	C121	C	0.618808	0.981723	0.632285
	C122	C	0.618041	-0.000236	0.390035
	C123	C	0.376544	0.982363	0.388735
	C124	C	0.618204	0.370830	0.017345
	C125	C	0.619911	0.612956	0.999792
	C126	C	0.377200	0.611789	0.017518
	C127	C	0.376406	0.370189	0.999779
	C128	C	0.005903	0.612586	0.387549
	C129	C	0.989077	0.612890	0.630242
	C130	C	0.006840	0.370026	0.630541
	C131	C	0.988684	0.369503	0.388487
	C132	C	0.876627	0.499533	0.130322
	C133	C	0.118477	0.481350	0.130395
	C134	C	0.119386	0.500472	0.887718
	C135	C	0.876590	0.482741	0.887552
	C136	C	0.118646	0.870186	0.517671
	C137	C	0.118741	0.111725	0.501353
	C138	C	0.875992	0.111786	0.519156
	C139	C	0.874874	0.869178	0.501047
	C140	C	0.505925	0.112391	0.888666
	C141	C	0.489088	0.112978	0.130990
	C142	C	0.507885	0.869713	0.131520
	C143	C	0.489254	0.869725	0.888987
	C144	C	0.374976	0.881755	0.689981
	C145	C	0.620963	0.098937	0.692162
	C146	C	0.620314	0.883091	0.329344
	C147	C	0.372514	0.098284	0.326890
	C148	C	0.678903	0.367274	0.901042
	C149	C	0.681756	0.616781	0.115721
	C150	C	0.314664	0.616757	0.902204
	C151	C	0.314935	0.366234	0.116032
	C152	C	0.888750	0.671690	0.385550
	C153	C	0.106093	0.673051	0.632026
	C154	C	0.890003	0.309871	0.632954
	C155	C	0.105031	0.308398	0.384681
	C156	C	0.889811	0.368009	0.690453
	C157	C	0.105794	0.616129	0.690527
	C158	C	0.889408	0.615091	0.326676
	C159	C	0.105044	0.366694	0.327517
	C160	C	0.373411	0.673434	0.901677
	C161	C	0.623387	0.673686	0.116249
	C162	C	0.621269	0.309428	0.901159
	C163	C	0.372238	0.308651	0.116020
	C164	C	0.676582	0.882153	0.388457
	C165	C	0.679473	0.098486	0.635337
	C166	C	0.317401	0.881853	0.632083
	C167	C	0.315473	0.098725	0.384971
	C168	C	0.870994	0.384051	0.193307
	C169	C	0.122563	0.597484	0.191755
	C170	C	0.123266	0.384559	0.825666
	C171	C	0.874152	0.599721	0.827139
	C172	C	0.180586	0.866334	0.401811
	C173	C	0.180528	0.115819	0.617236
	C174	C	0.815030	0.114626	0.402608
	C175	C	0.815919	0.866546	0.618498
	C176	C	0.389967	0.173904	0.884539
	C177	C	0.604421	0.175358	0.135275
	C178	C	0.392385	0.806751	0.136220
	C179	C	0.605616	0.809170	0.885558
	C180	C	0.391864	0.864999	0.193126
	C181	C	0.604769	0.117276	0.192861
	C182	C	0.389547	0.115744	0.827322
	C183	C	0.605086	0.866659	0.827858
	C184	C	0.872333	0.172727	0.402530
	C185	C	0.122209	0.172798	0.617706
	C186	C	0.121593	0.809879	0.400826
	C187	C	0.873852	0.809072	0.618002
	C188	C	0.181009	0.384738	0.883202
	C189	C	0.181896	0.596101	0.136271
	C190	C	0.813620	0.384113	0.135213
	C191	C	0.816257	0.599326	0.884582
	C192	C	0.402015	0.081020	0.606157
	C193	C	0.593245	0.900229	0.606571
	C194	C	0.593308	0.081845	0.415123
	C195	C	0.402526	0.901450	0.414672
	C196	C	0.592689	0.396901	0.098751
	C197	C	0.593984	0.587335	0.918437
	C198	C	0.403755	0.585091	0.098252
	C199	C	0.402519	0.396221	0.919025
	C200	C	0.087356	0.587553	0.412973
	C201	C	0.907598	0.587295	0.605483
	C202	C	0.087910	0.395788	0.604683
	C203	C	0.907883	0.395057	0.414450
	C204	C	0.903159	0.580122	0.104135
	C205	C	0.091976	0.400582	0.104301
	C206	C	0.093245	0.581189	0.914143
	C207	C	0.901918	0.401388	0.913210
	C208	C	0.093201	0.895405	0.599133
	C209	C	0.092514	0.085500	0.420319
	C210	C	0.902121	0.085996	0.600254
	C211	C	0.899235	0.894691	0.419364
	C212	C	0.586698	0.086714	0.914577
	C213	C	0.408462	0.086034	0.104591
	C214	C	0.588382	0.896468	0.105563
	C215	C	0.408256	0.895346	0.915326
	Zn216	Zn	0.497240	-0.009122	0.760423
	Zn217	Zn	0.497939	-0.008510	0.260008
	Zn218	Zn	0.747994	0.491117	0.008609
	Zn219	Zn	0.247335	0.491288	0.009612
	Zn220	Zn	-0.002483	0.741270	0.508646
	Zn221	Zn	-0.002485	0.240147	0.509640
	Zn222	Zn	-0.001798	0.491796	0.759389
	Zn223	Zn	-0.002266	0.490811	0.259108
	Zn224	Zn	0.497949	0.741055	0.009879
	Zn225	Zn	0.497222	0.241483	0.009419
	Zn226	Zn	0.746844	-0.009027	0.510860
	Zn227	Zn	0.247805	-0.009258	0.509705
	N228	N	0.411079	0.955950	0.689553
	N229	N	0.584125	0.025122	0.690498
	N230	N	0.584656	0.957502	0.330073
	N231	N	0.410022	0.024899	0.329018
	N232	N	0.677125	0.404916	0.974504
	N233	N	0.679779	0.579599	0.042243
	N234	N	0.316894	0.578996	0.975423
	N235	N	0.316926	0.403683	0.042583
	N236	N	0.962249	0.670206	0.422703
	N237	N	0.032502	0.671084	0.595259
	N238	N	0.963745	0.311066	0.596286
	N239	N	0.031660	0.309784	0.421987
	N240	N	0.963621	0.404775	0.689103
	N241	N	0.032055	0.579194	0.689567
	N242	N	0.963276	0.578787	0.327946
	N243	N	0.031710	0.404072	0.329725
	N244	N	0.411548	0.670515	0.974578
	N245	N	0.585735	0.671529	0.043024
	N246	N	0.584350	0.311489	0.974729
	N247	N	0.409930	0.311064	0.042856
	N248	N	0.675287	0.955811	0.425482
	N249	N	0.678517	0.024403	0.599168
	N250	N	0.318117	0.956216	0.596304
	N251	N	0.317854	0.025609	0.422775
	N252	N	0.909420	0.456943	0.190608
	N253	N	0.083759	0.525013	0.188450
	N254	N	0.085718	0.457767	0.828192
	N255	N	0.910856	0.525941	0.828653
	N256	N	0.178913	0.903082	0.475617
	N257	N	0.178684	0.078490	0.543739
	N258	N	0.817093	0.077432	0.476224
	N259	N	0.816436	0.903218	0.544621
	N260	N	0.463307	0.172334	0.921714
	N261	N	0.531144	0.172890	0.097705
	N262	N	0.465412	0.809492	0.098335
	N263	N	0.532298	0.810883	0.923128
	N264	N	0.464651	0.903633	0.190376
	N265	N	0.531815	0.079346	0.190649
	N266	N	0.462834	0.078139	0.829553
	N267	N	0.531562	0.903498	0.829831
	N268	N	0.909606	0.171205	0.476085
	N269	N	0.084460	0.170403	0.544370
	N270	N	0.083809	0.811911	0.474127
	N271	N	0.909719	0.810319	0.543791
	N272	N	0.178802	0.457845	0.921175
	N273	N	0.179441	0.522818	0.098535
	N274	N	0.816905	0.456956	0.096710
	N275	N	0.817433	0.525493	0.921297
	O276	O	-0.230049	1.020696	-0.208159
	H277	H	-0.218550	1.029091	-0.198329
	H278	H	-0.256809	1.026113	-0.236971
	O279	O	0.281322	0.597925	0.365915
	H280	H	0.286898	0.582374	0.376609
	H281	H	0.258845	0.596080	0.345998
	O282	O	1.133435	0.147869	0.852691
	H283	H	1.148801	0.149694	0.844616
	H284	H	1.124540	0.133158	0.846032
	O285	O	0.494733	0.552018	0.682585
	H286	H	0.489036	0.550326	0.687972
	H287	H	0.503670	0.574588	0.689845
	O288	O	0.663511	0.685867	0.341750
	H289	H	0.650157	0.675487	0.348690
	H290	H	0.666728	0.686940	0.341959
	O291	O	0.544700	0.487949	0.351804
	H292	H	0.554679	0.484988	0.356847
	H293	H	0.546516	0.478371	0.352941
	O294	O	1.091085	0.084248	0.887071
	H295	H	1.086105	0.055761	0.883225
	H296	H	1.094360	0.087558	0.905553
	O297	O	0.690068	0.597024	0.448173
	H298	H	0.666162	0.603938	0.451656
	H299	H	0.689833	0.589281	0.453051
	O300	O	0.023065	0.190859	1.093655
	H301	H	0.012855	0.199431	1.109538
	H302	H	0.015761	0.170791	1.075755
	O303	O	0.482785	0.371879	0.679280
	H304	H	0.464436	0.376674	0.681107
	H305	H	0.475461	0.356165	0.683079
	O306	O	0.637118	0.504428	0.283380
	H307	H	0.670487	0.490613	0.272953
	H308	H	0.633226	0.510085	0.289698
	O309	O	0.531987	0.703654	0.718606
	H310	H	0.547520	0.703516	0.727463
	H311	H	0.538226	0.711591	0.732701
	O312	O	0.766594	0.766008	0.240731
	H313	H	0.775635	0.781050	0.210715
	H314	H	0.746701	0.761791	0.242926
	O315	O	0.804608	0.800618	0.817453
	H316	H	0.813387	0.797568	0.819517
	H317	H	0.812476	0.817115	0.845036
	O318	O	0.915906	0.773642	0.055744
	H319	H	0.931625	0.791452	0.065653
	H320	H	0.930245	0.776104	0.052807
	O321	O	0.011515	0.975745	1.149270
	H322	H	0.008600	0.956494	1.143529
	H323	H	0.021284	0.979339	1.145000
	O324	O	0.871528	0.906648	0.016395
	H325	H	0.853419	0.897338	0.034069
	H326	H	0.883352	0.918531	0.024168
	O327	O	-0.221108	-0.229198	1.036789
	H328	H	-0.222880	-0.242361	1.034741
	H329	H	-0.233301	-0.229193	1.034333
	O330	O	0.565326	0.328232	0.629030
	H331	H	0.575408	0.337564	0.643014
	H332	H	0.560461	0.322164	0.625178
	O333	O	0.718608	0.712707	0.549932
	H334	H	0.708710	0.713035	0.530083
	H335	H	0.735536	0.738037	0.548269
	O336	O	0.717458	0.519155	0.727485
	H337	H	0.730591	0.533939	0.744445
	H338	H	0.725992	0.537821	0.723466
	O339	O	1.218645	-0.142772	0.789464
	H340	H	1.196473	-0.148591	0.791384
	H341	H	1.243142	-0.164034	0.759536
	O342	O	-0.083237	-0.099880	-0.149458
	H343	H	-0.092628	-0.102296	-0.150438
	H344	H	-0.057463	-0.094961	-0.149716
	O345	O	0.219469	1.212947	1.027040
	H346	H	0.225214	1.220688	1.039695
	H347	H	0.222127	1.232258	1.029413
	O348	O	0.201744	0.182815	0.198297
	H349	H	0.202564	0.151974	0.202639
	H350	H	0.176822	0.177417	0.183833
	O351	O	1.096878	0.978636	-0.016944
	H352	H	1.102272	0.987367	-0.002538
	H353	H	1.089073	0.990562	-0.023282
	O354	O	0.012114	-0.004445	1.223506
	H355	H	0.001590	-0.003748	1.228115
	H356	H	0.003231	-0.027797	1.242600
	O357	O	0.713639	0.280339	0.486127
	H358	H	0.719042	0.280770	0.482316
	H359	H	0.723703	0.283017	0.485064
	O360	O	0.310625	0.678258	0.694859
	H361	H	0.324169	0.655511	0.676937
	H362	H	0.318394	0.680371	0.692055
	O363	O	-0.034605	0.213233	-0.210995
	H364	H	-0.024342	0.239954	-0.230599
	H365	H	-0.023224	0.207813	-0.194250
	O366	O	0.318176	0.702932	0.324752
	H367	H	0.334803	0.692254	0.336541
	H368	H	0.326578	0.674077	0.329441
	O369	O	0.974462	0.121988	0.033081
	H370	H	0.989592	0.115581	0.038267
	H371	H	0.969409	0.120977	0.039187
	O372	O	0.768773	0.947219	-0.043650
	H373	H	0.775433	0.964004	-0.063046
	H374	H	0.765740	0.949607	-0.037025
	O375	O	0.781119	-0.040133	0.226431
	H376	H	0.769106	-0.031432	0.219767
	H377	H	0.774583	-0.047348	0.234766
	O378	O	0.616532	0.287086	0.311516
	H379	H	0.629403	0.311938	0.328556
	H380	H	0.645084	0.261948	0.286637
	O381	O	0.039899	0.868100	1.167109
	H382	H	0.054436	0.853005	1.185139
	H383	H	0.047564	0.858964	1.169234
	O384	O	1.218787	0.049301	0.935241
	H385	H	1.221148	0.057665	0.917982
	H386	H	1.222682	0.061562	0.941558
	O387	O	1.149233	1.027252	-0.191095
	H388	H	1.150175	1.022161	-0.189350
	H389	H	1.168554	1.017637	-0.196352
	O390	O	0.492630	0.277007	0.515019
	H391	H	0.500424	0.272788	0.517006
	H392	H	0.495338	0.281700	0.512783
	O393	O	0.426201	0.474239	0.489614
	H394	H	0.435507	0.467712	0.500665
	H395	H	0.432571	0.483441	0.473584
	O396	O	0.295800	0.285969	0.715242
	H397	H	0.300025	0.281814	0.695722
	H398	H	0.304442	0.304138	0.705264
	O399	O	0.125837	-0.232052	0.921534
	H400	H	0.143897	-0.226304	0.934808
	H401	H	0.117808	-0.219448	0.914065
	O402	O	0.807882	0.180315	0.201298
	H403	H	0.824367	0.169864	0.177254
	H404	H	0.824874	0.152880	0.189618
	O405	O	0.785222	0.205318	0.853445
	H406	H	0.804294	0.190143	0.840606
	H407	H	0.779158	0.215588	0.833094
	O408	O	-0.175575	0.075475	0.023639
	H409	H	-0.171743	0.064856	0.013622
	H410	H	-0.183007	0.096914	0.002024
	O411	O	0.949995	1.098148	1.216753
	H412	H	0.976524	1.080999	1.209348
	H413	H	0.943121	1.081673	1.224329
	O414	O	0.318134	0.545313	0.602726
	H415	H	0.317419	0.530350	0.600324
	H416	H	0.308082	0.548702	0.597062
	O417	O	0.347164	0.712051	0.510369
	H418	H	0.347215	0.716205	0.524140
	H419	H	0.346742	0.713269	0.493008
	O420	O	0.381455	0.499484	0.376054
	H421	H	0.375276	0.496746	0.371140
	H422	H	0.381696	0.486642	0.361946
	O423	O	-0.035743	0.129012	1.017273
	H424	H	-0.027974	0.118580	1.038325
	H425	H	-0.047088	0.124824	1.021670
	O426	O	0.605415	0.269313	0.292475
	H427	H	0.617203	0.262533	0.290780
	H428	H	0.642283	0.254820	0.279229
	O429	O	1.214683	0.772448	1.033620
	H430	H	1.224796	0.759249	1.019131
	H431	H	1.215843	0.760059	1.021467
	O432	O	0.717012	0.461898	0.423218
	H433	H	0.706877	0.470667	0.434940
	H434	H	0.731383	0.452817	0.411791
	O435	O	0.193967	0.882809	0.014683
	H436	H	0.198851	0.881503	0.006609
	H437	H	0.182442	0.874633	0.007149
	O438	O	-0.204648	0.188012	-0.021380
	H439	H	-0.203620	0.203668	-0.037059
	H440	H	-0.198442	0.199787	-0.051588
	O441	O	0.032508	-0.222553	-0.210366
	H442	H	0.015811	-0.216659	-0.194905
	H443	H	0.036066	-0.239838	-0.228532
	O444	O	0.285373	0.286215	0.299547
	H445	H	0.283082	0.277744	0.288205
	H446	H	0.280542	0.280660	0.303355
	O447	O	-0.457874	1.542613	1.385781
	H448	H	-0.460080	1.535214	1.386458
	H449	H	-0.466038	1.538139	1.379229
	O450	O	-0.298555	0.694494	0.720126
	H451	H	-0.307397	0.697956	0.684878
	H452	H	-0.274856	0.708360	0.729835
	O453	O	0.551152	0.455826	0.594967
	H454	H	0.554369	0.474819	0.588823
	H455	H	0.538070	0.455963	0.606958
	O456	O	0.277639	0.272739	0.540584
	H457	H	0.259689	0.243176	0.541372
	H458	H	0.301006	0.268426	0.523384
	O459	O	1.117592	0.995400	0.117175
	H460	H	1.127634	0.981437	0.112630
	H461	H	1.099459	0.988703	0.112671
	O462	O	0.381848	0.375268	0.384849
	H463	H	0.389485	0.367270	0.385655
	H464	H	0.396762	0.365952	0.372610
	O465	O	0.460732	-0.343145	0.342501
	H466	H	0.461104	-0.339851	0.326883
	H467	H	0.467458	-0.357848	0.344846
	O468	O	0.267730	0.433737	0.457499
	H469	H	0.268719	0.435761	0.454818
	H470	H	0.272462	0.405696	0.464059
	O471	O	0.528605	0.630287	0.490240
	H472	H	0.528270	0.627095	0.486465
	H473	H	0.527317	0.615707	0.492626
	O474	O	-0.039926	0.849824	0.173544
	H475	H	-0.033092	0.839594	0.169840
	H476	H	-0.042828	0.843728	0.169638
	O477	O	0.448334	0.442463	1.471370
	H478	H	0.463121	0.448493	1.476315
	H479	H	0.462590	0.435492	1.477837
	O480	O	0.279149	0.459332	0.717284
	H481	H	0.280432	0.438297	0.713943
	H482	H	0.265411	0.464134	0.728466
	O483	O	0.618261	0.520725	0.492271
	H484	H	0.621265	0.525698	0.513141
	H485	H	0.597442	0.514630	0.490991
	O486	O	0.686785	0.306365	0.690589
	H487	H	0.683236	0.313089	0.686667
	H488	H	0.676033	0.321119	0.669492
	O489	O	1.203452	0.780636	0.213080
	H490	H	1.225330	0.768302	0.218134
	H491	H	1.218284	0.784581	0.225662
	O492	O	0.004992	0.012408	-0.224068
	H493	H	0.023287	0.002303	-0.225362
	H494	H	-0.012709	0.017455	-0.225972
	O495	O	0.217241	1.005912	1.222190
	H496	H	0.230734	0.996615	1.215539
	H497	H	0.232728	1.003634	1.224099
	O498	O	0.942430	1.042190	0.914946
	H499	H	0.939169	1.052473	0.905682
	H500	H	0.960390	1.055527	0.923169
	O501	O	0.463109	0.400290	0.722555
	H502	H	0.464046	0.410103	0.736965
	H503	H	0.476528	0.411737	0.731146
