data_Molecule from HDF5

_cell_length_a		16.320770
_cell_length_b		16.232334
_cell_length_c		16.157367
_cell_angle_alpha	90.112702
_cell_angle_beta	89.947269
_cell_angle_gamma	90.186823
_symmetry_space_group_name_H-M	'P 1'
_symmetry_Int_Tables_number		1

loop_
	_symmetry_equiv_pos_as_xyz
	x,y,z

loop_
	_atom_site_label
	_atom_site_type_symbol
	_atom_site_fract_x
	_atom_site_fract_y
	_atom_site_fract_z
	H0	H	0.398429	0.841960	0.715476
	H1	H	0.592596	0.170819	0.716417
	H2	H	0.591590	0.842680	0.291282
	H3	H	0.400972	0.172720	0.292125
	H4	H	0.709611	0.408694	0.839443
	H5	H	0.709529	0.605383	0.169717
	H6	H	0.282114	0.605727	0.840202
	H7	H	0.280980	0.407804	0.169503
	H8	H	0.832390	0.721603	0.406149
	H9	H	0.158464	0.724024	0.604959
	H10	H	0.832577	0.292030	0.602729
	H11	H	0.159286	0.292379	0.404873
	H12	H	0.831703	0.409595	0.717945
	H13	H	0.159720	0.605589	0.718502
	H14	H	0.832096	0.603290	0.292054
	H15	H	0.159894	0.409581	0.290978
	H16	H	0.401763	0.716780	0.838169
	H17	H	0.594882	0.720761	0.169530
	H18	H	0.594373	0.293663	0.838418
	H19	H	0.398364	0.292851	0.169532
	H20	H	0.710973	0.843513	0.402463
	H21	H	0.710012	0.171132	0.603112
	H22	H	0.279825	0.844142	0.603105
	H23	H	0.282626	0.172434	0.404903
	H24	H	0.898567	0.342173	0.217751
	H25	H	0.093865	0.671891	0.219072
	H26	H	0.092518	0.342941	0.790868
	H27	H	0.900249	0.672298	0.793063
	H28	H	0.210005	0.908720	0.339117
	H29	H	0.209677	0.106554	0.669040
	H30	H	0.782366	0.106169	0.339472
	H31	H	0.779919	0.907402	0.667849
	H32	H	0.332670	0.220926	0.905702
	H33	H	0.659669	0.222395	0.102709
	H34	H	0.333250	0.791536	0.102116
	H35	H	0.660275	0.792720	0.904940
	H36	H	0.332038	0.909381	0.217403
	H37	H	0.660126	0.105673	0.217670
	H38	H	0.331914	0.102102	0.791641
	H39	H	0.659779	0.909374	0.789293
	H40	H	0.900770	0.218390	0.339265
	H41	H	0.093133	0.220940	0.669522
	H42	H	0.094104	0.793462	0.340012
	H43	H	0.898980	0.795924	0.670049
	H44	H	0.210769	0.343275	0.905028
	H45	H	0.212174	0.670825	0.105609
	H46	H	0.781290	0.343140	0.104370
	H47	H	0.782062	0.670263	0.905727
	H48	H	0.402375	0.124827	0.597003
	H49	H	0.586575	0.888794	0.601659
	H50	H	0.592770	0.124424	0.416355
	H51	H	0.395230	0.887355	0.404943
	H52	H	0.589048	0.414877	0.121794
	H53	H	0.591984	0.606010	0.884090
	H54	H	0.403150	0.604693	0.123594
	H55	H	0.403520	0.411176	0.886631
	H56	H	0.108855	0.595777	0.418612
	H57	H	0.879647	0.598361	0.599074
	H58	H	0.113596	0.415069	0.603357
	H59	H	0.883456	0.419353	0.417718
	H60	H	0.112026	0.409998	0.595050
	H61	H	0.877085	0.603817	0.603018
	H62	H	0.113477	0.598212	0.404695
	H63	H	0.876975	0.414315	0.401998
	H64	H	0.399774	0.596464	0.122921
	H65	H	0.595886	0.594294	0.886512
	H66	H	0.590133	0.412963	0.122088
	H67	H	0.400021	0.415656	0.886692
	H68	H	0.593567	0.126126	0.407785
	H69	H	0.585756	0.891788	0.590187
	H70	H	0.400318	0.125634	0.597255
	H71	H	0.409971	0.892918	0.409060
	H72	H	0.904968	0.622910	0.094523
	H73	H	0.087303	0.388028	0.105893
	H74	H	0.091343	0.625029	0.912705
	H75	H	0.907442	0.390624	0.910496
	H76	H	0.087471	0.919721	0.620126
	H77	H	0.093065	0.101654	0.385815
	H78	H	0.904530	0.105906	0.623691
	H79	H	0.897646	0.907444	0.382608
	H80	H	0.609235	0.096392	0.918366
	H81	H	0.382200	0.097679	0.093756
	H82	H	0.612967	0.909873	0.094394
	H83	H	0.375856	0.901585	0.907615
	H84	H	0.611809	0.918905	0.096442
	H85	H	0.378883	0.098797	0.101172
	H86	H	0.613688	0.095558	0.901870
	H87	H	0.382902	0.913579	0.919035
	H88	H	0.895287	0.100573	0.624801
	H89	H	0.090413	0.098603	0.387107
	H90	H	0.086610	0.912882	0.622498
	H91	H	0.899077	0.922602	0.388205
	H92	H	0.089824	0.624511	0.912986
	H93	H	0.083587	0.392760	0.092287
	H94	H	0.897599	0.625658	0.097884
	H95	H	0.900461	0.391311	0.916554
	H96	H	0.402963	0.124960	0.599369
	H97	H	0.595730	0.887804	0.594306
	H98	H	0.585735	0.123968	0.411311
	H99	H	0.397580	0.891579	0.419479
	H100	H	0.590577	0.414968	0.121579
	H101	H	0.584106	0.597997	0.889377
	H102	H	0.408523	0.598101	0.120982
	H103	H	0.405157	0.416189	0.889057
	H104	H	0.114012	0.608610	0.414481
	H105	H	0.878899	0.604836	0.596346
	H106	H	0.110320	0.418874	0.595576
	H107	H	0.877295	0.402502	0.415100
	H108	H	0.904642	0.624738	0.103125
	H109	H	0.097607	0.388540	0.094209
	H110	H	0.090901	0.624313	0.914131
	H111	H	0.899248	0.387209	0.908117
	H112	H	0.092985	0.915984	0.623245
	H113	H	0.088771	0.102554	0.385402
	H114	H	0.903408	0.094950	0.620026
	H115	H	0.911638	0.912609	0.388960
	H116	H	0.615010	0.109778	0.910638
	H117	H	0.378848	0.104963	0.096141
	H118	H	0.614453	0.912527	0.103331
	H119	H	0.378844	0.917920	0.902024
	C120	C	0.373700	0.016060	0.625716
	C121	C	0.617398	0.998265	0.624417
	C122	C	0.618192	0.016093	0.382373
	C123	C	0.374044	0.999362	0.382602
	C124	C	0.617782	0.385631	0.012481
	C125	C	0.618752	0.628318	0.996038
	C126	C	0.375676	0.627890	0.013193
	C127	C	0.374584	0.385609	0.996402
	C128	C	0.004282	0.628957	0.383873
	C129	C	0.986940	0.630126	0.627429
	C130	C	0.004072	0.385837	0.626410
	C131	C	0.987416	0.384617	0.382643
	C132	C	0.874373	0.515679	0.126905
	C133	C	0.117988	0.498584	0.126824
	C134	C	0.118277	0.515894	0.883802
	C135	C	0.874699	0.498435	0.883189
	C136	C	0.117354	0.887031	0.512867
	C137	C	0.118075	0.129338	0.495700
	C138	C	0.874242	0.128317	0.513390
	C139	C	0.874524	0.886129	0.495608
	C140	C	0.504525	0.128593	0.882051
	C141	C	0.488033	0.129064	0.125487
	C142	C	0.504791	0.885497	0.125814
	C143	C	0.487494	0.883779	0.881553
	C144	C	0.377307	0.891629	0.678861
	C145	C	0.613696	0.121908	0.679170
	C146	C	0.613523	0.892000	0.327989
	C147	C	0.379259	0.123676	0.329189
	C148	C	0.672564	0.387918	0.888577
	C149	C	0.672632	0.626087	0.120362
	C150	C	0.320376	0.625400	0.889166
	C151	C	0.319313	0.387486	0.120439
	C152	C	0.881034	0.683537	0.386207
	C153	C	0.109976	0.685649	0.624967
	C154	C	0.881247	0.330233	0.623575
	C155	C	0.110631	0.330608	0.385200
	C156	C	0.880788	0.388662	0.680958
	C157	C	0.110516	0.626837	0.681604
	C158	C	0.880868	0.624662	0.329583
	C159	C	0.110957	0.388997	0.328540
	C160	C	0.379648	0.680819	0.888133
	C161	C	0.615405	0.683426	0.120084
	C162	C	0.614747	0.331088	0.888025
	C163	C	0.377203	0.330209	0.120244
	C164	C	0.672855	0.892478	0.383274
	C165	C	0.672031	0.121894	0.622697
	C166	C	0.318264	0.892773	0.623166
	C167	C	0.320277	0.123344	0.384997
	C168	C	0.877586	0.391462	0.180873
	C169	C	0.114795	0.622435	0.181496
	C170	C	0.114049	0.392106	0.828407
	C171	C	0.878765	0.622873	0.829763
	C172	C	0.172136	0.889016	0.388555
	C173	C	0.172209	0.127146	0.619932
	C174	C	0.820373	0.125955	0.388748
	C175	C	0.819113	0.888288	0.619562
	C176	C	0.381391	0.183205	0.885011
	C177	C	0.611143	0.184217	0.122842
	C178	C	0.381755	0.829883	0.122573
	C179	C	0.611165	0.830220	0.884504
	C180	C	0.381024	0.888362	0.179827
	C181	C	0.611228	0.126194	0.180182
	C182	C	0.380917	0.124321	0.828206
	C183	C	0.610992	0.888078	0.826909
	C184	C	0.878958	0.181894	0.388718
	C185	C	0.114567	0.184084	0.619998
	C186	C	0.114664	0.831766	0.388927
	C187	C	0.877688	0.832336	0.620339
	C188	C	0.172521	0.392192	0.885289
	C189	C	0.173708	0.621933	0.125321
	C190	C	0.819313	0.391897	0.124515
	C191	C	0.820156	0.621820	0.885773
	C192	C	0.395487	0.102722	0.604254
	C193	C	0.595620	0.911743	0.602101
	C194	C	0.596950	0.102568	0.405037
	C195	C	0.394702	0.912831	0.404543
	C196	C	0.596204	0.407637	0.099536
	C197	C	0.597251	0.605881	0.909090
	C198	C	0.397310	0.606254	0.099902
	C199	C	0.396566	0.407761	0.909767
	C200	C	0.089872	0.607420	0.406295
	C201	C	0.900844	0.608696	0.605865
	C202	C	0.089794	0.408142	0.604430
	C203	C	0.901447	0.405861	0.404864
	C204	C	0.896054	0.602016	0.105032
	C205	C	0.096025	0.412022	0.104047
	C206	C	0.096857	0.602361	0.906484
	C207	C	0.896109	0.412157	0.905232
	C208	C	0.095586	0.909595	0.599596
	C209	C	0.096936	0.107364	0.408597
	C210	C	0.894936	0.106794	0.600253
	C211	C	0.896357	0.907622	0.408981
	C212	C	0.590479	0.107058	0.903758
	C213	C	0.402099	0.107021	0.103530
	C214	C	0.590823	0.907346	0.104458
	C215	C	0.401437	0.904768	0.903237
	Zn216	Zn	0.496041	0.006365	0.752770
	Zn217	Zn	0.495941	0.007818	0.254914
	Zn218	Zn	0.746613	0.506629	0.005107
	Zn219	Zn	0.246747	0.507072	0.005205
	Zn220	Zn	-0.004013	0.758367	0.504764
	Zn221	Zn	-0.003813	0.256418	0.504403
	Zn222	Zn	-0.004188	0.507597	0.755865
	Zn223	Zn	-0.004087	0.506864	0.254912
	Zn224	Zn	0.496859	0.755871	0.004058
	Zn225	Zn	0.496323	0.257655	0.004010
	Zn226	Zn	0.746115	0.006927	0.503435
	Zn227	Zn	0.245688	0.008325	0.503679
	N228	N	0.411121	0.969451	0.680452
	N229	N	0.580439	0.043957	0.680244
	N230	N	0.580226	0.969750	0.327348
	N231	N	0.411948	0.045591	0.327611
	N232	N	0.674427	0.421395	0.966918
	N233	N	0.674707	0.592395	0.042106
	N234	N	0.318067	0.592928	0.967804
	N235	N	0.317596	0.421100	0.042479
	N236	N	0.958750	0.686330	0.419158
	N237	N	0.032332	0.687701	0.591909
	N238	N	0.958845	0.328322	0.590489
	N239	N	0.032966	0.327882	0.418231
	N240	N	0.958173	0.422610	0.682844
	N241	N	0.033050	0.593138	0.683160
	N242	N	0.958295	0.591438	0.327853
	N243	N	0.033245	0.421738	0.326892
	N244	N	0.413484	0.682317	0.966060
	N245	N	0.582571	0.684809	0.041761
	N246	N	0.581444	0.329619	0.966214
	N247	N	0.411032	0.329198	0.042075
	N248	N	0.676053	0.970841	0.416139
	N249	N	0.674423	0.043842	0.589413
	N250	N	0.315846	0.971103	0.590891
	N251	N	0.317256	0.045205	0.417793
	N252	N	0.911074	0.469400	0.182381
	N253	N	0.080840	0.544668	0.182424
	N254	N	0.081064	0.470180	0.827381
	N255	N	0.911976	0.545184	0.828297
	N256	N	0.173902	0.922626	0.466975
	N257	N	0.174890	0.094257	0.541401
	N258	N	0.817368	0.093300	0.467268
	N259	N	0.816687	0.920788	0.541034
	N260	N	0.459271	0.186008	0.917683
	N261	N	0.533651	0.186118	0.089551
	N262	N	0.459659	0.828049	0.089707
	N263	N	0.533496	0.827377	0.917524
	N264	N	0.458385	0.922095	0.182202
	N265	N	0.533693	0.092463	0.181801
	N266	N	0.458315	0.090947	0.826276
	N267	N	0.533221	0.920774	0.824822
	N268	N	0.911796	0.183656	0.467138
	N269	N	0.081687	0.185343	0.541698
	N270	N	0.081379	0.830364	0.467114
	N271	N	0.911583	0.831069	0.542281
	N272	N	0.175135	0.469981	0.918864
	N273	N	0.175719	0.543785	0.091971
	N274	N	0.817139	0.469927	0.091680
	N275	N	0.817504	0.543399	0.918324
	O276	O	0.455210	-0.411338	0.537527
	H277	H	0.449388	-0.406248	0.542042
	H278	H	0.454033	-0.413420	0.537623
	O279	O	0.503297	0.536739	0.533003
	H280	H	0.504826	0.525731	0.533806
	H281	H	0.510165	0.537325	0.532168
	O282	O	0.509252	0.502483	0.546049
	H283	H	0.506060	0.501511	0.539398
	H284	H	0.497124	0.494336	0.546953
	O285	O	0.427292	0.497421	0.491288
	H286	H	0.429830	0.501013	0.497201
	H287	H	0.419202	0.502610	0.493997
	O288	O	0.494194	0.560226	0.524010
	H289	H	0.494337	0.559154	0.528129
	H290	H	0.501953	0.558122	0.521828
	O291	O	0.448081	0.555590	0.508475
	H292	H	0.444122	0.556728	0.517862
	H293	H	0.447751	0.553330	0.507303
	O294	O	0.459294	0.504221	0.488575
	H295	H	0.467905	0.510832	0.490196
	H296	H	0.456695	0.506844	0.483728
	O297	O	0.951765	-0.020806	-0.005732
	H298	H	0.947721	-0.024162	-0.004919
	H299	H	0.951595	-0.022940	-0.009199
