data_Molecule from HDF5

_cell_length_a		16.544596
_cell_length_b		16.341588
_cell_length_c		16.376043
_cell_angle_alpha	89.860519
_cell_angle_beta	90.035975
_cell_angle_gamma	90.021042
_symmetry_space_group_name_H-M	'P 1'
_symmetry_Int_Tables_number		1

loop_
	_symmetry_equiv_pos_as_xyz
	x,y,z

loop_
	_atom_site_label
	_atom_site_type_symbol
	_atom_site_fract_x
	_atom_site_fract_y
	_atom_site_fract_z
	H0	H	0.399066	0.842177	0.721926
	H1	H	0.612275	0.159923	0.721399
	H2	H	0.608682	0.840061	0.282724
	H3	H	0.401689	0.160479	0.279524
	H4	H	0.729528	0.391839	0.842838
	H5	H	0.729624	0.610822	0.155637
	H6	H	0.279362	0.613271	0.843288
	H7	H	0.279981	0.392276	0.155584
	H8	H	0.847904	0.725429	0.392605
	H9	H	0.161655	0.723789	0.606134
	H10	H	0.847473	0.278927	0.605325
	H11	H	0.162980	0.281811	0.394990
	H12	H	0.848215	0.392370	0.723378
	H13	H	0.159921	0.608092	0.723890
	H14	H	0.847357	0.609300	0.276146
	H15	H	0.160124	0.394295	0.273835
	H16	H	0.397121	0.726251	0.843227
	H17	H	0.610270	0.721751	0.158663
	H18	H	0.612571	0.278773	0.841172
	H19	H	0.399600	0.279589	0.157597
	H20	H	0.729021	0.843408	0.393974
	H21	H	0.730586	0.158763	0.609962
	H22	H	0.279725	0.844299	0.609885
	H23	H	0.283389	0.159993	0.393421
	H24	H	0.896750	0.344487	0.222353
	H25	H	0.108915	0.661224	0.219569
	H26	H	0.110750	0.342655	0.778225
	H27	H	0.896326	0.659329	0.775248
	H28	H	0.227722	0.894586	0.341826
	H29	H	0.229786	0.110627	0.657810
	H30	H	0.782957	0.108898	0.343001
	H31	H	0.781187	0.890477	0.657568
	H32	H	0.347312	0.222871	0.894011
	H33	H	0.661742	0.224380	0.106374
	H34	H	0.347563	0.777858	0.107998
	H35	H	0.662157	0.777801	0.894978
	H36	H	0.347305	0.893589	0.223995
	H37	H	0.662967	0.105755	0.221513
	H38	H	0.348157	0.107965	0.775868
	H39	H	0.662461	0.892449	0.776142
	H40	H	0.903198	0.220142	0.339845
	H41	H	0.113455	0.224923	0.658026
	H42	H	0.111111	0.780107	0.341608
	H43	H	0.898563	0.777396	0.658077
	H44	H	0.231577	0.345953	0.887471
	H45	H	0.229641	0.658192	0.110035
	H46	H	0.780268	0.344710	0.108285
	H47	H	0.779758	0.658521	0.889000
	H48	H	0.418799	0.114490	0.590026
	H49	H	0.601289	0.888233	0.582379
	H50	H	0.598557	0.115288	0.415098
	H51	H	0.413603	0.887685	0.414935
	H52	H	0.589001	0.405911	0.114132
	H53	H	0.593547	0.591209	0.884024
	H54	H	0.409751	0.581892	0.113558
	H55	H	0.417347	0.411003	0.885495
	H56	H	0.116928	0.587942	0.404979
	H57	H	0.894312	0.582217	0.589088
	H58	H	0.117097	0.409633	0.584834
	H59	H	0.888496	0.407205	0.404487
	H60	H	0.115241	0.419530	0.588170
	H61	H	0.889338	0.593205	0.590159
	H62	H	0.117643	0.593691	0.411504
	H63	H	0.894126	0.409045	0.418244
	H64	H	0.422342	0.585478	0.109307
	H65	H	0.593516	0.584853	0.887106
	H66	H	0.601091	0.415031	0.115102
	H67	H	0.413617	0.416926	0.885935
	H68	H	0.595014	0.116655	0.406810
	H69	H	0.593801	0.885105	0.595831
	H70	H	0.420305	0.112814	0.584047
	H71	H	0.414474	0.886161	0.410675
	H72	H	0.914528	0.616257	0.086618
	H73	H	0.099529	0.388192	0.079600
	H74	H	0.087713	0.612583	0.912238
	H75	H	0.912506	0.387873	0.915442
	H76	H	0.089677	0.919952	0.609861
	H77	H	0.095759	0.087881	0.386968
	H78	H	0.927320	0.086918	0.609314
	H79	H	0.916824	0.917979	0.388663
	H80	H	0.615946	0.092460	0.915034
	H81	H	0.391533	0.088555	0.092467
	H82	H	0.618343	0.907372	0.090303
	H83	H	0.397825	0.923772	0.913697
	H84	H	0.615990	0.913292	0.089929
	H85	H	0.392741	0.092610	0.087726
	H86	H	0.615291	0.085366	0.912024
	H87	H	0.389913	0.911713	0.901748
	H88	H	0.915096	0.098143	0.617925
	H89	H	0.092932	0.092331	0.387393
	H90	H	0.089602	0.907154	0.614109
	H91	H	0.918779	0.914684	0.387823
	H92	H	0.094416	0.614364	0.916038
	H93	H	0.090851	0.386154	0.094160
	H94	H	0.916473	0.615131	0.085423
	H95	H	0.915806	0.386699	0.909934
	H96	H	0.414277	0.115239	0.585718
	H97	H	0.585841	0.892002	0.583643
	H98	H	0.590300	0.112013	0.413447
	H99	H	0.417344	0.887837	0.413160
	H100	H	0.588409	0.420842	0.108480
	H101	H	0.588149	0.588634	0.887622
	H102	H	0.414714	0.594845	0.116244
	H103	H	0.419771	0.416647	0.887528
	H104	H	0.114140	0.585751	0.412522
	H105	H	0.894593	0.590141	0.579500
	H106	H	0.119093	0.411900	0.594966
	H107	H	0.895055	0.420362	0.408227
	H108	H	0.914036	0.614884	0.084192
	H109	H	0.083019	0.393312	0.080751
	H110	H	0.092858	0.616626	0.908067
	H111	H	0.919003	0.390261	0.914469
	H112	H	0.100166	0.914507	0.614963
	H113	H	0.097905	0.092824	0.384631
	H114	H	0.910265	0.080639	0.612815
	H115	H	0.915219	0.915153	0.386342
	H116	H	0.619556	0.091014	0.907779
	H117	H	0.394954	0.086649	0.086868
	H118	H	0.618221	0.911509	0.095462
	H119	H	0.394273	0.906195	0.919589
	C120	C	0.384016	0.009700	0.620813
	C121	C	0.627280	0.992867	0.620915
	C122	C	0.626522	0.009549	0.379633
	C123	C	0.383114	0.992316	0.379273
	C124	C	0.626143	0.380402	0.008162
	C125	C	0.625325	0.621573	0.990812
	C126	C	0.382703	0.622273	0.009026
	C127	C	0.382995	0.380448	0.990346
	C128	C	0.013055	0.623167	0.376768
	C129	C	0.996494	0.621942	0.620319
	C130	C	0.013407	0.379423	0.622175
	C131	C	0.996005	0.380142	0.377222
	C132	C	0.881898	0.511031	0.119942
	C133	C	0.124333	0.493460	0.119015
	C134	C	0.125777	0.510471	0.877916
	C135	C	0.881905	0.492370	0.878043
	C136	C	0.126101	0.880980	0.508418
	C137	C	0.127985	0.124144	0.491229
	C138	C	0.884502	0.122155	0.508873
	C139	C	0.884143	0.881058	0.491670
	C140	C	0.513283	0.122922	0.878150
	C141	C	0.496855	0.122259	0.121720
	C142	C	0.513518	0.877849	0.123953
	C143	C	0.497363	0.879845	0.878660
	C144	C	0.381416	0.890042	0.682040
	C145	C	0.630708	0.112016	0.682042
	C146	C	0.627994	0.888791	0.321256
	C147	C	0.382465	0.112402	0.319035
	C148	C	0.687992	0.375694	0.889694
	C149	C	0.688297	0.627021	0.108807
	C150	C	0.320620	0.628873	0.890566
	C151	C	0.321242	0.375647	0.108697
	C152	C	0.895107	0.685025	0.374349
	C153	C	0.114332	0.683179	0.623909
	C154	C	0.895000	0.318691	0.624127
	C155	C	0.115046	0.320715	0.375501
	C156	C	0.894994	0.375390	0.682941
	C157	C	0.113567	0.625589	0.682774
	C158	C	0.894588	0.626885	0.316421
	C159	C	0.113421	0.376773	0.314921
	C160	C	0.379206	0.685376	0.890541
	C161	C	0.628551	0.682244	0.110417
	C162	C	0.629686	0.318987	0.889047
	C163	C	0.380744	0.319517	0.109847
	C164	C	0.687769	0.890431	0.376830
	C165	C	0.689726	0.111175	0.626353
	C166	C	0.321905	0.891220	0.626116
	C167	C	0.323625	0.112088	0.375577
	C168	C	0.878715	0.392100	0.181993
	C169	C	0.127590	0.612774	0.180285
	C170	C	0.128855	0.390981	0.817248
	C171	C	0.878887	0.611494	0.815845
	C172	C	0.187381	0.877384	0.389478
	C173	C	0.189439	0.128274	0.609963
	C174	C	0.823511	0.126164	0.389973
	C175	C	0.822292	0.874572	0.610256
	C176	C	0.394704	0.183334	0.875559
	C177	C	0.614806	0.183421	0.124254
	C178	C	0.394978	0.817590	0.126127
	C179	C	0.615054	0.817955	0.876251
	C180	C	0.395068	0.875435	0.184070
	C181	C	0.615266	0.124435	0.181887
	C182	C	0.395085	0.125627	0.817049
	C183	C	0.615067	0.875345	0.817094
	C184	C	0.883441	0.181498	0.388457
	C185	C	0.131058	0.185039	0.610318
	C186	C	0.129091	0.820307	0.388977
	C187	C	0.881003	0.818310	0.610723
	C188	C	0.189519	0.392843	0.871555
	C189	C	0.187597	0.611447	0.125242
	C190	C	0.820809	0.392015	0.124906
	C191	C	0.820282	0.611108	0.872287
	C192	C	0.410212	0.092583	0.594158
	C193	C	0.601021	0.910015	0.594639
	C194	C	0.601691	0.092826	0.404627
	C195	C	0.407759	0.909025	0.405360
	C196	C	0.600443	0.406403	0.090737
	C197	C	0.599204	0.595483	0.908095
	C198	C	0.408393	0.595144	0.091463
	C199	C	0.409425	0.407064	0.907766
	C200	C	0.095032	0.596776	0.402239
	C201	C	0.914119	0.595947	0.593804
	C202	C	0.095589	0.405981	0.596923
	C203	C	0.913888	0.405068	0.402960
	C204	C	0.907555	0.593866	0.093089
	C205	C	0.098336	0.410824	0.092404
	C206	C	0.099197	0.592950	0.904424
	C207	C	0.908078	0.409764	0.905421
	C208	C	0.100628	0.906524	0.591294
	C209	C	0.102977	0.098371	0.408052
	C210	C	0.910175	0.096247	0.591778
	C211	C	0.909686	0.908215	0.409414
	C212	C	0.595402	0.097038	0.903981
	C213	C	0.414561	0.096600	0.096385
	C214	C	0.596126	0.903235	0.098840
	C215	C	0.415541	0.906278	0.904373
	Zn216	Zn	0.505633	0.001337	0.748852
	Zn217	Zn	0.505513	0.000297	0.251597
	Zn218	Zn	0.754013	0.501425	-0.001047
	Zn219	Zn	0.253952	0.501803	-0.001036
	Zn220	Zn	0.004812	0.752094	0.499349
	Zn221	Zn	0.005381	0.250872	0.499948
	Zn222	Zn	0.003894	0.500990	0.750420
	Zn223	Zn	0.003184	0.501923	0.247361
	Zn224	Zn	0.504698	0.750097	0.000858
	Zn225	Zn	0.504948	0.252400	-0.000332
	Zn226	Zn	0.755498	0.001610	0.500633
	Zn227	Zn	0.254776	0.001703	0.500681
	N228	N	0.419552	0.964901	0.678679
	N229	N	0.592828	0.037131	0.679285
	N230	N	0.590752	0.963869	0.322646
	N231	N	0.418583	0.036721	0.320958
	N232	N	0.685976	0.413227	0.964731
	N233	N	0.686425	0.590064	0.033364
	N234	N	0.322548	0.590400	0.965234
	N235	N	0.322630	0.412718	0.033260
	N236	N	0.969909	0.683074	0.410962
	N237	N	0.040308	0.680800	0.585838
	N238	N	0.969584	0.320891	0.587308
	N239	N	0.041166	0.322658	0.413441
	N240	N	0.969810	0.412152	0.682172
	N241	N	0.039105	0.588403	0.680469
	N242	N	0.968764	0.589427	0.317715
	N243	N	0.038349	0.412734	0.315716
	N244	N	0.416782	0.681762	0.965262
	N245	N	0.590059	0.678956	0.036187
	N246	N	0.591639	0.322029	0.963567
	N247	N	0.418151	0.322243	0.035132
	N248	N	0.687222	0.966622	0.412174
	N249	N	0.687658	0.035976	0.589251
	N250	N	0.323373	0.966616	0.588944
	N251	N	0.323726	0.036365	0.412031
	N252	N	0.915913	0.467078	0.178783
	N253	N	0.089205	0.538258	0.176878
	N254	N	0.089859	0.465047	0.821034
	N255	N	0.916433	0.536594	0.819373
	N256	N	0.185791	0.914269	0.464833
	N257	N	0.187610	0.091233	0.534733
	N258	N	0.823881	0.090300	0.465861
	N259	N	0.824016	0.912919	0.535382
	N260	N	0.469264	0.182045	0.912701
	N261	N	0.540107	0.182505	0.087631
	N262	N	0.469703	0.818928	0.089305
	N263	N	0.540816	0.820688	0.913874
	N264	N	0.469843	0.911831	0.183034
	N265	N	0.540862	0.087266	0.180274
	N266	N	0.469928	0.089290	0.818436
	N267	N	0.540941	0.913037	0.818418
	N268	N	0.920586	0.179225	0.463525
	N269	N	0.093879	0.182864	0.535345
	N270	N	0.091946	0.822146	0.463867
	N271	N	0.918864	0.822009	0.536172
	N272	N	0.187643	0.468123	0.908689
	N273	N	0.185941	0.536106	0.088033
	N274	N	0.822657	0.467183	0.087074
	N275	N	0.821923	0.536001	0.910088
	O276	O	0.432301	0.441906	0.330693
	H277	H	0.437623	0.433290	0.338451
	H278	H	0.440737	0.448096	0.330928
	O279	O	1.216942	0.219719	1.025009
	H280	H	1.238291	0.241979	1.040158
	H281	H	1.212686	0.228140	1.037778
	O282	O	0.667933	0.305367	0.306894
	H283	H	0.670772	0.289568	0.300745
	H284	H	0.673907	0.357136	0.298864
	O285	O	0.436902	0.687481	0.533804
	H286	H	0.418077	0.666543	0.527993
	H287	H	0.435590	0.694708	0.546642
	O288	O	0.796015	1.016438	-0.100213
	H289	H	0.782593	1.006906	-0.109808
	H290	H	0.801112	1.005697	-0.079591
	O291	O	0.527323	0.713286	0.718275
	H292	H	0.553875	0.714361	0.722842
	H293	H	0.557266	0.731620	0.733768
	O294	O	-0.023571	0.216162	0.784728
	H295	H	0.000447	0.213967	0.789682
	H296	H	-0.014897	0.244820	0.772456
	O297	O	0.473121	0.301523	0.490958
	H298	H	0.471618	0.310341	0.496643
	H299	H	0.475251	0.298161	0.500734
	O300	O	0.634278	0.709176	0.497994
	H301	H	0.635400	0.695008	0.494529
	H302	H	0.620037	0.716906	0.508859
	O303	O	0.601767	0.318789	0.555648
	H304	H	0.594442	0.312987	0.575503
	H305	H	0.601750	0.312411	0.537144
	O306	O	0.309211	0.599012	0.313559
	H307	H	0.324538	0.606681	0.310397
	H308	H	0.306508	0.603388	0.316097
	O309	O	0.586170	0.463342	0.566932
	H310	H	0.580496	0.444994	0.560354
	H311	H	0.597381	0.475155	0.573926
	O312	O	-0.176444	0.821406	1.185253
	H313	H	-0.187986	0.810736	1.131655
	H314	H	-0.170748	0.840290	1.197614
	O315	O	0.025564	0.791331	0.787012
	H316	H	0.015939	0.789290	0.793309
	H317	H	0.040440	0.775324	0.775497
	O318	O	0.983473	-0.212757	0.210633
	H319	H	0.974005	-0.225394	0.221521
	H320	H	0.964388	-0.226219	0.215208
	O321	O	-0.005344	-0.203723	-0.019138
	H322	H	0.009742	-0.191813	-0.015527
	H323	H	0.026057	-0.210205	-0.026667
	O324	O	0.722336	0.557902	0.454455
	H325	H	0.714779	0.533193	0.472551
	H326	H	0.722276	0.564802	0.472029
	O327	O	0.326593	0.322733	0.684492
	H328	H	0.314531	0.365914	0.681539
	H329	H	0.313315	0.322801	0.644430
	O330	O	-0.180135	1.182591	-0.174037
	H331	H	-0.188892	1.150454	-0.165096
	H332	H	-0.127978	1.194402	-0.189608
	O333	O	0.315492	0.595305	0.301385
	H334	H	0.326973	0.602605	0.315708
	H335	H	0.321097	0.606039	0.287339
	O336	O	0.026326	0.216451	0.211580
	H337	H	0.040558	0.224285	0.194264
	H338	H	0.036310	0.245578	0.237264
	O339	O	0.072482	0.952366	1.203490
	H340	H	0.072461	0.949074	1.196808
	H341	H	0.051196	0.941074	1.205194
	O342	O	0.187358	0.812612	0.814120
	H343	H	0.193898	0.825915	0.842452
	H344	H	0.169000	0.834804	0.805498
	O345	O	0.857059	1.005373	0.212010
	H346	H	0.845702	1.007409	0.238220
	H347	H	0.888215	0.980650	0.207973
	O348	O	0.287702	0.610664	0.519178
	H349	H	0.283591	0.616267	0.521356
	H350	H	0.280940	0.609158	0.540684
	O351	O	-0.148218	0.968160	0.899861
	H352	H	-0.151528	0.962784	0.909144
	H353	H	-0.147593	0.990240	0.910511
	O354	O	-0.200532	1.212778	-0.013324
	H355	H	-0.191886	1.210731	-0.043186
	H356	H	-0.215300	1.228154	-0.013682
	O357	O	-0.119096	0.031710	0.869199
	H358	H	-0.133073	0.012933	0.856508
	H359	H	-0.122441	0.050094	0.880182
	O360	O	0.482534	0.282951	0.718115
	H361	H	0.477171	0.247384	0.752955
	H362	H	0.431253	0.294975	0.708292
	O363	O	0.219243	-0.215840	0.977653
	H364	H	0.248292	-0.245747	0.978425
	H365	H	0.222622	-0.190500	0.968852
	O366	O	0.708670	0.380530	0.548236
	H367	H	0.689811	0.379932	0.546366
	H368	H	0.724456	0.351072	0.539365
	O369	O	0.366112	0.716181	0.391719
	H370	H	0.379435	0.704250	0.372440
	H371	H	0.354180	0.745926	0.385034
	O372	O	0.950719	-0.003737	1.091465
	H373	H	0.962660	0.009280	1.093591
	H374	H	0.947043	0.001017	1.089394
	O375	O	0.304965	0.337865	0.518112
	H376	H	0.309687	0.328224	0.517010
	H377	H	0.300253	0.342754	0.503291
	O378	O	0.409325	0.598954	0.700417
	H379	H	0.415817	0.604080	0.686266
	H380	H	0.439242	0.628032	0.709537
	O381	O	0.511193	0.290852	0.310854
	H382	H	0.533363	0.287068	0.301278
	H383	H	0.525429	0.279517	0.318632
	O384	O	0.390639	0.483853	0.524438
	H385	H	0.386638	0.476679	0.535015
	H386	H	0.404558	0.484963	0.525219
	O387	O	0.150819	0.037890	0.910512
	H388	H	0.149551	0.048001	0.905784
	H389	H	0.145070	0.041817	0.905891
	O390	O	0.193048	0.199314	0.190451
	H391	H	0.215977	0.185957	0.209958
	H392	H	0.183570	0.179311	0.188233
	O393	O	1.217458	0.933567	1.013160
	H394	H	1.207779	0.939380	0.997799
	H395	H	1.221252	0.960051	1.007117
	O396	O	1.196780	-0.005569	-0.200455
	H397	H	1.175222	0.009086	-0.216492
	H398	H	1.206800	-0.002077	-0.204519
	O399	O	1.121068	0.073900	0.857598
	H400	H	1.095685	0.081293	0.854164
	H401	H	1.113232	0.086939	0.879974
	O402	O	0.880781	1.007940	1.089135
	H403	H	0.864790	1.018105	1.099569
	H404	H	0.884422	1.021842	1.080543
	O405	O	0.857551	1.132813	0.099050
	H406	H	0.857663	1.141183	0.099896
	H407	H	0.872380	1.120172	0.094395
	O408	O	0.799279	-0.203182	0.021479
	H409	H	0.805204	-0.184483	-0.004091
	H410	H	0.792340	-0.230624	0.011224
	O411	O	1.066708	1.208886	-0.066172
	H412	H	1.074989	1.200995	-0.060330
	H413	H	1.054186	1.207459	-0.034489
	O414	O	0.532023	0.530843	0.286966
	H415	H	0.521895	0.526563	0.291443
	H416	H	0.515641	0.534064	0.286267
	O417	O	0.683137	0.686698	0.677888
	H418	H	0.695939	0.640117	0.682135
	H419	H	0.697037	0.690881	0.638427
	O420	O	-0.039592	0.157759	0.028728
	H421	H	-0.040059	0.143137	0.041070
	H422	H	-0.052578	0.148192	0.025510
	O423	O	0.564876	0.471551	0.588689
	H424	H	0.554708	0.471535	0.586512
	H425	H	0.551556	0.454605	0.583519
	O426	O	0.721556	0.318098	0.423015
	H427	H	0.745681	0.298489	0.413986
	H428	H	0.692925	0.319919	0.406387
	O429	O	0.674260	0.533686	0.295405
	H430	H	0.661010	0.541616	0.296511
	H431	H	0.684045	0.538232	0.291924
	O432	O	0.594405	0.594498	0.539203
	H433	H	0.578064	0.588137	0.535007
	H434	H	0.614103	0.596574	0.537159
	O435	O	0.334141	0.499167	0.665448
	H436	H	0.336067	0.509561	0.679061
	H437	H	0.342450	0.508112	0.684728
	O438	O	0.018377	-0.189998	0.014968
	H439	H	0.036680	-0.190340	0.025068
	H440	H	0.021775	-0.191768	0.032596
	O441	O	1.223451	0.033819	0.218396
	H442	H	1.256550	0.028844	0.254070
	H443	H	1.202246	0.001133	0.205594
	O444	O	-0.019103	0.932855	0.890545
	H445	H	-0.023607	0.924473	0.893718
	H446	H	-0.017049	0.933212	0.887291
	O447	O	0.713902	0.522828	0.712098
	H448	H	0.693342	0.490367	0.706445
	H449	H	0.740546	0.518152	0.745848
	O450	O	0.523360	0.703325	0.366608
	H451	H	0.514560	0.719157	0.368857
	H452	H	0.523508	0.697490	0.381034
	O453	O	0.303062	0.354293	0.395295
	H454	H	0.307316	0.371486	0.404587
	H455	H	0.314388	0.369664	0.391834
