data_Molecule from HDF5

_cell_length_a		16.242293
_cell_length_b		16.237518
_cell_length_c		16.215036
_cell_angle_alpha	89.827345
_cell_angle_beta	89.943915
_cell_angle_gamma	89.870119
_symmetry_space_group_name_H-M	'P 1'
_symmetry_Int_Tables_number		1

loop_
	_symmetry_equiv_pos_as_xyz
	x,y,z

loop_
	_atom_site_label
	_atom_site_type_symbol
	_atom_site_fract_x
	_atom_site_fract_y
	_atom_site_fract_z
	H0	H	0.395947	0.839291	0.712863
	H1	H	0.593115	0.167456	0.710482
	H2	H	0.593156	0.838792	0.284445
	H3	H	0.395596	0.166905	0.282481
	H4	H	0.711096	0.403881	0.834094
	H5	H	0.708787	0.599826	0.163426
	H6	H	0.280684	0.602409	0.834477
	H7	H	0.282358	0.403957	0.163011
	H8	H	0.832232	0.719861	0.399651
	H9	H	0.159561	0.718806	0.597710
	H10	H	0.832036	0.290601	0.598706
	H11	H	0.160776	0.290030	0.401236
	H12	H	0.832482	0.405044	0.713852
	H13	H	0.159607	0.601975	0.712519
	H14	H	0.832576	0.602810	0.284597
	H15	H	0.161003	0.406061	0.286064
	H16	H	0.396573	0.718071	0.834275
	H17	H	0.593108	0.716247	0.163078
	H18	H	0.595186	0.290062	0.833802
	H19	H	0.398200	0.288498	0.161972
	H20	H	0.710814	0.839595	0.398864
	H21	H	0.708403	0.167541	0.596268
	H22	H	0.282538	0.838895	0.595761
	H23	H	0.280490	0.166884	0.398338
	H24	H	0.898351	0.339443	0.214181
	H25	H	0.094089	0.667819	0.210826
	H26	H	0.095876	0.340410	0.783985
	H27	H	0.898559	0.668170	0.785771
	H28	H	0.208502	0.906432	0.334710
	H29	H	0.210283	0.102005	0.662530
	H30	H	0.781009	0.104105	0.333778
	H31	H	0.780202	0.905254	0.662535
	H32	H	0.331982	0.219723	0.898561
	H33	H	0.659707	0.215242	0.095110
	H34	H	0.332155	0.789461	0.096780
	H35	H	0.659115	0.787300	0.897552
	H36	H	0.331632	0.904345	0.211622
	H37	H	0.657413	0.103515	0.213906
	H38	H	0.330750	0.101500	0.784983
	H39	H	0.659862	0.905206	0.783683
	H40	H	0.897038	0.219961	0.334632
	H41	H	0.092684	0.216261	0.663944
	H42	H	0.095342	0.790359	0.334837
	H43	H	0.897781	0.790197	0.663723
	H44	H	0.211005	0.339600	0.899758
	H45	H	0.209591	0.667301	0.096252
	H46	H	0.783936	0.338458	0.096483
	H47	H	0.781074	0.667472	0.899512
	H48	H	0.396038	0.122146	0.589531
	H49	H	0.579358	0.888947	0.589837
	H50	H	0.591265	0.121585	0.403455
	H51	H	0.401472	0.886084	0.406295
	H52	H	0.593642	0.406396	0.117440
	H53	H	0.590590	0.597063	0.880848
	H54	H	0.405000	0.589507	0.113525
	H55	H	0.403365	0.413287	0.881273
	H56	H	0.113033	0.601463	0.407543
	H57	H	0.879182	0.596901	0.590477
	H58	H	0.110950	0.410355	0.585977
	H59	H	0.879381	0.404224	0.413203
	H60	H	0.112455	0.415534	0.594476
	H61	H	0.878725	0.596936	0.593209
	H62	H	0.111969	0.593751	0.405519
	H63	H	0.883871	0.421718	0.410938
	H64	H	0.406267	0.602088	0.116128
	H65	H	0.588812	0.594168	0.881631
	H66	H	0.589065	0.413140	0.114587
	H67	H	0.404842	0.410484	0.880609
	H68	H	0.583450	0.119870	0.401534
	H69	H	0.594257	0.886284	0.583440
	H70	H	0.403978	0.121811	0.596984
	H71	H	0.400646	0.885494	0.404073
	H72	H	0.898572	0.621823	0.091164
	H73	H	0.092283	0.386401	0.085192
	H74	H	0.086428	0.617609	0.914730
	H75	H	0.905159	0.384246	0.897652
	H76	H	0.085956	0.906810	0.616877
	H77	H	0.087800	0.100141	0.380632
	H78	H	0.894212	0.104699	0.620510
	H79	H	0.909005	0.907610	0.381823
	H80	H	0.617147	0.102485	0.894250
	H81	H	0.377183	0.098988	0.089445
	H82	H	0.611255	0.910062	0.085215
	H83	H	0.378621	0.911295	0.906331
	H84	H	0.613223	0.915041	0.094614
	H85	H	0.378485	0.096388	0.087210
	H86	H	0.611432	0.102294	0.912116
	H87	H	0.378543	0.910816	0.903070
	H88	H	0.896926	0.086757	0.613503
	H89	H	0.090295	0.098106	0.380870
	H90	H	0.093271	0.910227	0.618767
	H91	H	0.897991	0.908742	0.378932
	H92	H	0.099098	0.623999	0.904215
	H93	H	0.093875	0.383698	0.097641
	H94	H	0.903348	0.621286	0.094920
	H95	H	0.909858	0.389677	0.911332
	H96	H	0.406172	0.118538	0.586445
	H97	H	0.591870	0.883279	0.599025
	H98	H	0.586266	0.118175	0.409862
	H99	H	0.402970	0.885398	0.404621
	H100	H	0.585968	0.406209	0.115942
	H101	H	0.587539	0.596976	0.881661
	H102	H	0.395625	0.596166	0.117906
	H103	H	0.401612	0.410452	0.880107
	H104	H	0.114987	0.599062	0.399945
	H105	H	0.877577	0.599439	0.592040
	H106	H	0.115479	0.405430	0.594331
	H107	H	0.876003	0.411825	0.396489
	H108	H	0.903584	0.619283	0.088678
	H109	H	0.081850	0.387341	0.093889
	H110	H	0.081865	0.621077	0.897939
	H111	H	0.895488	0.384722	0.909205
	H112	H	0.087327	0.914065	0.614915
	H113	H	0.086989	0.097164	0.381984
	H114	H	0.911943	0.099788	0.612961
	H115	H	0.903014	0.917736	0.384414
	H116	H	0.610337	0.086923	0.902206
	H117	H	0.377865	0.095351	0.090996
	H118	H	0.615766	0.904905	0.092927
	H119	H	0.377855	0.908582	0.904598
	C120	C	0.373694	0.011990	0.619502
	C121	C	0.616520	0.994984	0.618907
	C122	C	0.616650	0.011610	0.376016
	C123	C	0.373334	0.994061	0.376046
	C124	C	0.618345	0.380837	0.007089
	C125	C	0.616872	0.624346	0.990232
	C126	C	0.374007	0.624716	0.007041
	C127	C	0.374845	0.382213	0.989610
	C128	C	0.004664	0.626183	0.376641
	C129	C	0.987187	0.625397	0.619950
	C130	C	0.004943	0.382321	0.620687
	C131	C	0.987846	0.383232	0.377892
	C132	C	0.874320	0.511955	0.120639
	C133	C	0.117885	0.494568	0.120153
	C134	C	0.117864	0.512397	0.877075
	C135	C	0.874747	0.495106	0.877328
	C136	C	0.117048	0.882546	0.507662
	C137	C	0.116914	0.125918	0.489961
	C138	C	0.873022	0.126387	0.507294
	C139	C	0.874364	0.882673	0.490304
	C140	C	0.504458	0.125810	0.875105
	C141	C	0.486056	0.124854	0.118596
	C142	C	0.504649	0.881906	0.119227
	C143	C	0.486790	0.881320	0.875807
	C144	C	0.376206	0.888301	0.674628
	C145	C	0.613477	0.118314	0.673390
	C146	C	0.614202	0.888008	0.321708
	C147	C	0.375488	0.117782	0.320459
	C148	C	0.673357	0.383782	0.883253
	C149	C	0.671328	0.620923	0.114120
	C150	C	0.318932	0.622556	0.883455
	C151	C	0.319596	0.383456	0.113515
	C152	C	0.881189	0.681218	0.379656
	C153	C	0.110850	0.680250	0.617701
	C154	C	0.881016	0.328001	0.618737
	C155	C	0.111559	0.327500	0.380465
	C156	C	0.881319	0.384669	0.676413
	C157	C	0.110758	0.622501	0.674739
	C158	C	0.881311	0.623499	0.322328
	C159	C	0.111775	0.385203	0.323344
	C160	C	0.376578	0.679873	0.883483
	C161	C	0.613746	0.678400	0.113882
	C162	C	0.615638	0.327143	0.883035
	C163	C	0.377440	0.326448	0.113230
	C164	C	0.672784	0.888455	0.378521
	C165	C	0.670701	0.118494	0.616251
	C166	C	0.319460	0.888229	0.616731
	C167	C	0.318299	0.117871	0.378150
	C168	C	0.877622	0.388356	0.176150
	C169	C	0.114485	0.618611	0.173930
	C170	C	0.115743	0.388932	0.822100
	C171	C	0.877443	0.618900	0.822740
	C172	C	0.171459	0.885711	0.383863
	C173	C	0.172008	0.122672	0.613791
	C174	C	0.818498	0.124428	0.383137
	C175	C	0.819014	0.885118	0.613943
	C176	C	0.380757	0.181341	0.878144
	C177	C	0.610174	0.178939	0.116357
	C178	C	0.380949	0.826861	0.116871
	C179	C	0.610241	0.825862	0.877591
	C180	C	0.380743	0.883989	0.174092
	C181	C	0.609180	0.122766	0.174766
	C182	C	0.379935	0.122448	0.821842
	C183	C	0.610703	0.884369	0.821030
	C184	C	0.875982	0.182124	0.383519
	C185	C	0.113682	0.179247	0.614479
	C186	C	0.114919	0.827988	0.383905
	C187	C	0.876777	0.827611	0.614301
	C188	C	0.173224	0.388798	0.879331
	C189	C	0.171997	0.618341	0.117036
	C190	C	0.820476	0.387986	0.118073
	C191	C	0.819287	0.618593	0.879420
	C192	C	0.395477	0.098526	0.597560
	C193	C	0.594767	0.908484	0.597125
	C194	C	0.593801	0.097520	0.398221
	C195	C	0.395205	0.907991	0.398270
	C196	C	0.596201	0.402415	0.093650
	C197	C	0.595472	0.602521	0.903605
	C198	C	0.395809	0.602398	0.093625
	C199	C	0.396634	0.404789	0.903049
	C200	C	0.091116	0.604496	0.397975
	C201	C	0.900918	0.604036	0.598279
	C202	C	0.090825	0.404046	0.598155
	C203	C	0.901930	0.406066	0.400170
	C204	C	0.895477	0.598457	0.098312
	C205	C	0.096073	0.408136	0.098350
	C206	C	0.095690	0.598622	0.899016
	C207	C	0.897043	0.408611	0.899489
	C208	C	0.095358	0.904136	0.594568
	C209	C	0.094989	0.104793	0.403582
	C210	C	0.894717	0.103754	0.593317
	C211	C	0.896600	0.904784	0.404006
	C212	C	0.590601	0.103805	0.896412
	C213	C	0.400108	0.103192	0.096007
	C214	C	0.590979	0.903512	0.097290
	C215	C	0.400643	0.903551	0.897982
	Zn216	Zn	0.495052	0.003160	0.747668
	Zn217	Zn	0.494330	0.003063	0.247121
	Zn218	Zn	0.745931	0.502955	-0.001582
	Zn219	Zn	0.246078	0.502951	-0.001113
	Zn220	Zn	-0.003465	0.754331	0.498808
	Zn221	Zn	-0.004487	0.254350	0.499252
	Zn222	Zn	-0.004032	0.503700	0.748762
	Zn223	Zn	-0.003272	0.503893	0.248623
	Zn224	Zn	0.495945	0.753471	-0.001654
	Zn225	Zn	0.496401	0.253826	-0.002395
	Zn226	Zn	0.745291	0.003672	0.498086
	Zn227	Zn	0.245308	0.003365	0.498408
	N228	N	0.409206	0.966173	0.676433
	N229	N	0.580347	0.040190	0.675213
	N230	N	0.579829	0.965587	0.319987
	N231	N	0.409124	0.039969	0.319097
	N232	N	0.675224	0.416576	0.961380
	N233	N	0.673407	0.587862	0.036201
	N234	N	0.317167	0.588965	0.961470
	N235	N	0.318184	0.417430	0.035691
	N236	N	0.959054	0.682994	0.412910
	N237	N	0.033060	0.682256	0.584382
	N238	N	0.958600	0.326341	0.584796
	N239	N	0.033544	0.325937	0.413676
	N240	N	0.959019	0.418001	0.677622
	N241	N	0.032913	0.589332	0.676525
	N242	N	0.959141	0.590252	0.320201
	N243	N	0.034046	0.419044	0.321541
	N244	N	0.410161	0.681322	0.961316
	N245	N	0.580965	0.680821	0.035658
	N246	N	0.582252	0.325199	0.961065
	N247	N	0.411193	0.325451	0.035093
	N248	N	0.674351	0.966358	0.411520
	N249	N	0.672773	0.040627	0.583306
	N250	N	0.318009	0.966243	0.583042
	N251	N	0.316685	0.040083	0.411949
	N252	N	0.910194	0.466680	0.178016
	N253	N	0.081363	0.540686	0.175884
	N254	N	0.081948	0.466841	0.820627
	N255	N	0.911190	0.541135	0.821507
	N256	N	0.172793	0.918957	0.461761
	N257	N	0.174316	0.090249	0.535419
	N258	N	0.816463	0.090633	0.461001
	N259	N	0.817392	0.918387	0.535794
	N260	N	0.459006	0.183697	0.910498
	N261	N	0.532750	0.180372	0.082000
	N262	N	0.458826	0.825626	0.083400
	N263	N	0.532457	0.823995	0.910939
	N264	N	0.458483	0.917618	0.175605
	N265	N	0.531209	0.089802	0.176254
	N266	N	0.457656	0.088685	0.819676
	N267	N	0.532853	0.918256	0.819640
	N268	N	0.909123	0.183602	0.461588
	N269	N	0.080147	0.181366	0.536677
	N270	N	0.081688	0.826013	0.462022
	N271	N	0.910602	0.825998	0.536346
	N272	N	0.174517	0.466382	0.912966
	N273	N	0.174155	0.540227	0.084239
	N274	N	0.818094	0.465843	0.084391
	N275	N	0.817243	0.540402	0.912471
	O276	O	0.522677	0.558169	0.511300
	H277	H	0.526031	0.559793	0.517808
	H278	H	0.526112	0.557191	0.518095
	O279	O	-0.124161	-0.017990	0.057605
	H280	H	-0.131124	-0.021401	0.060502
	H281	H	-0.127825	-0.020794	0.060941
	O282	O	0.555599	0.490494	0.524204
	H283	H	0.556916	0.490894	0.527081
	H284	H	0.547629	0.499471	0.524603
	O285	O	0.562178	0.465106	0.519654
	H286	H	0.569343	0.460394	0.523249
	H287	H	0.561187	0.462949	0.516944
	O288	O	0.882725	-0.034931	0.087492
	H289	H	0.882099	-0.041770	0.087368
	H290	H	0.881151	-0.038049	0.091320
	O291	O	-0.441946	0.511704	-0.515809
	H292	H	-0.447947	0.515710	-0.514917
	H293	H	-0.443569	0.513443	-0.519199
	O294	O	0.469943	0.478370	0.489326
	H295	H	0.459931	0.479099	0.488076
	H296	H	0.468942	0.475545	0.477574
	O297	O	0.465822	1.528013	0.471257
	H298	H	0.465343	1.531683	0.479553
	H299	H	0.474365	1.532961	0.469392
	O300	O	1.517268	0.420816	0.464338
	H301	H	1.523240	0.425292	0.458129
	H302	H	1.517409	0.412612	0.462832
	O303	O	0.574027	0.503655	0.564309
	H304	H	0.578988	0.484648	0.571340
	H305	H	0.581692	0.512107	0.569612
	O306	O	0.499766	0.447284	1.504701
	H307	H	0.503555	0.445517	1.494265
	H308	H	0.497931	0.445233	1.501282
	O309	O	0.528681	0.476604	0.531364
	H310	H	0.526665	0.469433	0.545836
	H311	H	0.522804	0.479423	0.529303
