data_Molecule from HDF5

_cell_length_a		16.071335
_cell_length_b		16.585282
_cell_length_c		16.316430
_cell_angle_alpha	89.891670
_cell_angle_beta	90.109017
_cell_angle_gamma	89.907787
_symmetry_space_group_name_H-M	'P 1'
_symmetry_Int_Tables_number		1

loop_
	_symmetry_equiv_pos_as_xyz
	x,y,z

loop_
	_atom_site_label
	_atom_site_type_symbol
	_atom_site_fract_x
	_atom_site_fract_y
	_atom_site_fract_z
	H0	H	0.394043	0.827306	0.715283
	H1	H	0.606667	0.142415	0.713340
	H2	H	0.608261	0.828197	0.265152
	H3	H	0.387560	0.139578	0.265118
	H4	H	0.716504	0.386423	0.830372
	H5	H	0.718750	0.585431	0.153342
	H6	H	0.281579	0.586365	0.829913
	H7	H	0.283498	0.383989	0.153519
	H8	H	0.838796	0.703574	0.385425
	H9	H	0.159597	0.706049	0.603746
	H10	H	0.837990	0.264589	0.598133
	H11	H	0.160208	0.260219	0.384834
	H12	H	0.836431	0.382920	0.708722
	H13	H	0.162687	0.584118	0.708855
	H14	H	0.838743	0.587305	0.272410
	H15	H	0.162172	0.377525	0.272219
	H16	H	0.393780	0.706693	0.831230
	H17	H	0.613829	0.711365	0.148023
	H18	H	0.612865	0.260683	0.834578
	H19	H	0.389262	0.258953	0.148402
	H20	H	0.721645	0.826060	0.385561
	H21	H	0.719809	0.143771	0.592770
	H22	H	0.282799	0.823592	0.592959
	H23	H	0.276196	0.141056	0.386833
	H24	H	0.891915	0.327353	0.216241
	H25	H	0.108059	0.641559	0.216188
	H26	H	0.107322	0.327221	0.770825
	H27	H	0.894373	0.641239	0.768604
	H28	H	0.216126	0.882215	0.330028
	H29	H	0.213474	0.079303	0.655067
	H30	H	0.783363	0.084338	0.329331
	H31	H	0.783233	0.886031	0.653735
	H32	H	0.339861	0.207792	0.882877
	H33	H	0.661781	0.206445	0.099212
	H34	H	0.340726	0.762821	0.097401
	H35	H	0.661837	0.764372	0.882119
	H36	H	0.337155	0.880854	0.208184
	H37	H	0.660421	0.091807	0.214278
	H38	H	0.335927	0.085258	0.776050
	H39	H	0.663618	0.885231	0.773561
	H40	H	0.886704	0.210539	0.334369
	H41	H	0.108575	0.205146	0.650946
	H42	H	0.108953	0.758411	0.334624
	H43	H	0.890552	0.761751	0.650799
	H44	H	0.221240	0.326598	0.890342
	H45	H	0.219828	0.644051	0.094985
	H46	H	0.780311	0.325762	0.094310
	H47	H	0.781794	0.643897	0.889234
	H48	H	0.403133	0.099057	0.584018
	H49	H	0.585960	0.872078	0.586766
	H50	H	0.595050	0.097190	0.403719
	H51	H	0.414399	0.873579	0.401727
	H52	H	0.598585	0.392442	0.110594
	H53	H	0.586841	0.572154	0.878741
	H54	H	0.411436	0.576764	0.106546
	H55	H	0.413136	0.398320	0.878750
	H56	H	0.119751	0.576893	0.400655
	H57	H	0.885863	0.570229	0.576104
	H58	H	0.118041	0.389387	0.580251
	H59	H	0.880646	0.397182	0.391513
	H60	H	0.115221	0.394735	0.577483
	H61	H	0.881854	0.572414	0.583752
	H62	H	0.114152	0.575297	0.414993
	H63	H	0.883480	0.382608	0.413126
	H64	H	0.416454	0.574701	0.103510
	H65	H	0.585849	0.582183	0.876169
	H66	H	0.584273	0.403513	0.102066
	H67	H	0.416596	0.394594	0.878046
	H68	H	0.585180	0.097727	0.393934
	H69	H	0.587103	0.874758	0.578277
	H70	H	0.411102	0.097321	0.586364
	H71	H	0.406198	0.870370	0.401489
	H72	H	0.920233	0.592253	0.079163
	H73	H	0.087547	0.373347	0.082947
	H74	H	0.092945	0.600709	0.895088
	H75	H	0.904033	0.371227	0.903660
	H76	H	0.084939	0.876072	0.611294
	H77	H	0.089366	0.074203	0.376116
	H78	H	0.916597	0.071863	0.603380
	H79	H	0.915495	0.892510	0.378217
	H80	H	0.614231	0.067053	0.902803
	H81	H	0.389172	0.066228	0.071976
	H82	H	0.615173	0.901179	0.078025
	H83	H	0.386654	0.899723	0.906965
	H84	H	0.616269	0.896131	0.077315
	H85	H	0.382250	0.073182	0.083847
	H86	H	0.620604	0.077639	0.894977
	H87	H	0.382898	0.896121	0.897475
	H88	H	0.912774	0.081191	0.608080
	H89	H	0.083577	0.069206	0.380221
	H90	H	0.102920	0.898761	0.609419
	H91	H	0.913243	0.889763	0.377367
	H92	H	0.081990	0.596045	0.898357
	H93	H	0.092840	0.372304	0.080592
	H94	H	0.904629	0.596701	0.076678
	H95	H	0.910307	0.369037	0.893601
	H96	H	0.408812	0.095753	0.577861
	H97	H	0.593482	0.870552	0.583006
	H98	H	0.582532	0.091711	0.406249
	H99	H	0.411440	0.869399	0.394679
	H100	H	0.580633	0.384739	0.106870
	H101	H	0.594956	0.577725	0.874811
	H102	H	0.416121	0.579985	0.105829
	H103	H	0.411620	0.394037	0.876562
	H104	H	0.114088	0.563663	0.404760
	H105	H	0.882607	0.577561	0.577527
	H106	H	0.116018	0.394593	0.583671
	H107	H	0.891856	0.407705	0.412792
	H108	H	0.912035	0.599716	0.090637
	H109	H	0.091627	0.371271	0.085570
	H110	H	0.091780	0.596070	0.906486
	H111	H	0.916087	0.374210	0.903391
	H112	H	0.075126	0.900314	0.599298
	H113	H	0.081348	0.077093	0.378354
	H114	H	0.906183	0.072281	0.606603
	H115	H	0.911975	0.893402	0.377685
	H116	H	0.616495	0.080871	0.908701
	H117	H	0.384871	0.081687	0.070749
	H118	H	0.613749	0.898619	0.073312
	H119	H	0.383100	0.889202	0.905972
	C120	C	0.377430	-0.007522	0.614031
	C121	C	0.621288	0.977132	0.613211
	C122	C	0.621661	-0.007663	0.368005
	C123	C	0.376598	0.974824	0.367472
	C124	C	0.621330	0.363208	0.000754
	C125	C	0.622710	0.608040	0.982230
	C126	C	0.380530	0.607811	-0.000446
	C127	C	0.380378	0.363764	0.983115
	C128	C	0.009224	0.603739	0.373184
	C129	C	0.990435	0.604690	0.612573
	C130	C	0.008887	0.362098	0.612851
	C131	C	0.991366	0.362744	0.372211
	C132	C	0.879161	0.492330	0.114168
	C133	C	0.123054	0.476290	0.115125
	C134	C	0.121684	0.493111	0.869782
	C135	C	0.878048	0.476079	0.868922
	C136	C	0.120539	0.860439	0.500988
	C137	C	0.119324	0.104584	0.483657
	C138	C	0.878767	0.106333	0.500236
	C139	C	0.879369	0.861898	0.483343
	C140	C	0.509832	0.106994	0.870051
	C141	C	0.491518	0.106527	0.111114
	C142	C	0.508827	0.865087	0.109684
	C143	C	0.491653	0.864327	0.870308
	C144	C	0.376161	0.874016	0.674454
	C145	C	0.624154	0.095525	0.672561
	C146	C	0.625718	0.874819	0.306342
	C147	C	0.371438	0.092811	0.306321
	C148	C	0.679533	0.364869	0.879450
	C149	C	0.681171	0.606606	0.104140
	C150	C	0.320520	0.606850	0.878487
	C151	C	0.321476	0.363601	0.104333
	C152	C	0.887539	0.663816	0.368319
	C153	C	0.111820	0.664812	0.618266
	C154	C	0.886472	0.304039	0.615431
	C155	C	0.112209	0.300933	0.367569
	C156	C	0.885707	0.362962	0.670593
	C157	C	0.113242	0.604389	0.671147
	C158	C	0.887462	0.605984	0.312149
	C159	C	0.113321	0.359658	0.311814
	C160	C	0.376400	0.666742	0.878906
	C161	C	0.628802	0.669271	0.101390
	C162	C	0.627353	0.302705	0.881230
	C163	C	0.374238	0.301272	0.101790
	C164	C	0.682387	0.873768	0.366244
	C165	C	0.680530	0.096286	0.612453
	C166	C	0.320682	0.871974	0.613583
	C167	C	0.315541	0.093474	0.366724
	C168	C	0.875517	0.374069	0.174906
	C169	C	0.125772	0.594661	0.175614
	C170	C	0.124940	0.374479	0.810976
	C171	C	0.876445	0.594386	0.809039
	C172	C	0.178510	0.861389	0.379237
	C173	C	0.177131	0.101711	0.605606
	C174	C	0.820504	0.105349	0.378410
	C175	C	0.820724	0.864195	0.604662
	C176	C	0.387966	0.167079	0.866163
	C177	C	0.612861	0.166592	0.116348
	C178	C	0.388189	0.803497	0.113765
	C179	C	0.613702	0.804996	0.865728
	C180	C	0.386304	0.862633	0.168898
	C181	C	0.612139	0.109615	0.173916
	C182	C	0.386018	0.106420	0.812814
	C183	C	0.614559	0.865109	0.811716
	C184	C	0.872619	0.167805	0.381119
	C185	C	0.124132	0.163830	0.603558
	C186	C	0.124969	0.799822	0.381533
	C187	C	0.874126	0.802379	0.603332
	C188	C	0.181690	0.374133	0.870660
	C189	C	0.181636	0.596021	0.115388
	C190	C	0.819467	0.373196	0.114274
	C191	C	0.820312	0.595601	0.869156
	C192	C	0.400876	0.075651	0.589762
	C193	C	0.596164	0.893968	0.589527
	C194	C	0.595150	0.074157	0.393715
	C195	C	0.403100	0.892808	0.392169
	C196	C	0.595272	0.386651	0.084649
	C197	C	0.596705	0.584267	0.898335
	C198	C	0.407111	0.584063	0.083374
	C199	C	0.406343	0.388564	0.899494
	C200	C	0.093898	0.579093	0.399316
	C201	C	0.905564	0.580435	0.586659
	C202	C	0.094313	0.385998	0.587871
	C203	C	0.907357	0.388476	0.398311
	C204	C	0.904830	0.574617	0.089404
	C205	C	0.097838	0.393835	0.090345
	C206	C	0.096297	0.576085	0.893281
	C207	C	0.902984	0.393068	0.893315
	C208	C	0.094963	0.884628	0.584926
	C209	C	0.092675	0.080529	0.399849
	C210	C	0.904602	0.082105	0.584184
	C211	C	0.905823	0.885378	0.399455
	C212	C	0.595080	0.082494	0.894955
	C213	C	0.407263	0.081174	0.083588
	C214	C	0.593112	0.891156	0.083667
	C215	C	0.406303	0.888087	0.896016
	Zn216	Zn	0.499809	-0.014583	0.743499
	Zn217	Zn	0.499034	-0.015515	0.237952
	Zn218	Zn	0.749182	0.484637	-0.007930
	Zn219	Zn	0.251716	0.485851	-0.007837
	Zn220	Zn	-0.000169	0.732037	0.492954
	Zn221	Zn	-0.001012	0.234401	0.492150
	Zn222	Zn	0.000162	0.483634	0.738963
	Zn223	Zn	0.001252	0.484057	0.244731
	Zn224	Zn	0.501879	0.736908	-0.009868
	Zn225	Zn	0.500855	0.234353	-0.009374
	Zn226	Zn	0.751433	-0.015573	0.491205
	Zn227	Zn	0.248244	-0.017220	0.491766
	N228	N	0.410572	0.949769	0.674678
	N229	N	0.587864	0.020513	0.672845
	N230	N	0.588625	0.949510	0.307281
	N231	N	0.408646	0.018160	0.306606
	N232	N	0.675679	0.401937	0.954709
	N233	N	0.677318	0.569120	0.029118
	N234	N	0.323010	0.570954	0.954527
	N235	N	0.325107	0.401830	0.029463
	N236	N	0.964222	0.662614	0.405902
	N237	N	0.034275	0.665114	0.582450
	N238	N	0.964194	0.303192	0.580560
	N239	N	0.035390	0.302674	0.404345
	N240	N	0.962944	0.398340	0.669115
	N241	N	0.036761	0.567748	0.667807
	N242	N	0.964004	0.569441	0.314911
	N243	N	0.037291	0.397497	0.314599
	N244	N	0.413013	0.667345	0.955116
	N245	N	0.593218	0.670264	0.024633
	N246	N	0.591765	0.301529	0.957745
	N247	N	0.410318	0.301352	0.025460
	N248	N	0.680178	0.947818	0.403714
	N249	N	0.678735	0.021499	0.576194
	N250	N	0.321401	0.946616	0.576462
	N251	N	0.318431	0.019265	0.404087
	N252	N	0.912061	0.448915	0.174882
	N253	N	0.090422	0.519180	0.175645
	N254	N	0.088287	0.449429	0.810349
	N255	N	0.911585	0.518845	0.808862
	N256	N	0.176004	0.898299	0.454551
	N257	N	0.174472	0.065525	0.529883
	N258	N	0.824324	0.067504	0.453420
	N259	N	0.823769	0.900359	0.528870
	N260	N	0.466063	0.167868	0.900705
	N261	N	0.536673	0.164663	0.078079
	N262	N	0.465557	0.804975	0.077828
	N263	N	0.536281	0.804512	0.901472
	N264	N	0.462339	0.900162	0.166481
	N265	N	0.535530	0.072880	0.170725
	N266	N	0.462795	0.069729	0.815007
	N267	N	0.537490	0.901153	0.814534
	N268	N	0.907962	0.168449	0.457906
	N269	N	0.089142	0.165789	0.526600
	N270	N	0.089881	0.799115	0.458345
	N271	N	0.909780	0.800870	0.526884
	N272	N	0.179652	0.448940	0.906545
	N273	N	0.180262	0.521647	0.078568
	N274	N	0.821749	0.447539	0.077238
	N275	N	0.821048	0.520883	0.905593
	O276	O	0.395002	0.659136	0.301532
	H277	H	0.411520	0.652891	0.309418
	H278	H	0.398108	0.645065	0.292165
	O279	O	0.306750	0.678673	0.427482
	H280	H	0.288231	0.677948	0.418814
	H281	H	0.314464	0.659677	0.428612
	O282	O	0.334951	0.277446	0.580655
	H283	H	0.320898	0.269698	0.575990
	H284	H	0.335472	0.278217	0.581185
	O285	O	0.968692	0.171559	-0.092384
	H286	H	0.972795	0.188782	-0.087254
	H287	H	0.949307	0.159260	-0.092151
	O288	O	-0.164285	-0.051470	0.820538
	H289	H	-0.141702	-0.062861	0.826631
	H290	H	-0.173920	-0.044783	0.819324
	O291	O	0.495350	0.424837	0.367208
	H292	H	0.493073	0.438427	0.368443
	H293	H	0.511522	0.430415	0.373597
	O294	O	0.507585	0.489589	0.425905
	H295	H	0.496262	0.488474	0.415291
	H296	H	0.520467	0.485604	0.427764
	O297	O	1.093345	1.103812	0.911994
	H298	H	1.100425	1.117463	0.918455
	H299	H	1.076252	1.105421	0.907043
	O300	O	0.047993	0.106258	-0.103349
	H301	H	0.055348	0.106749	-0.103456
	H302	H	0.046744	0.116096	-0.110272
	O303	O	0.564061	0.680456	0.503230
	H304	H	0.562259	0.675962	0.495531
	H305	H	0.546632	0.683157	0.494700
	O306	O	0.945252	-0.159056	0.127025
	H307	H	0.941951	-0.147921	0.141844
	H308	H	0.965444	-0.160853	0.122597
	O309	O	-0.110519	-0.144659	1.119935
	H310	H	-0.117918	-0.157304	1.124334
	H311	H	-0.100698	-0.152504	1.123770
	O312	O	1.009670	0.825957	-0.007541
	H313	H	1.002724	0.843683	-0.019607
	H314	H	1.013862	0.799954	0.001638
	O315	O	0.524023	0.278048	0.286740
	H316	H	0.510193	0.256474	0.283945
	H317	H	0.506317	0.273191	0.291545
	O318	O	0.364659	0.552039	0.334487
	H319	H	0.369241	0.558739	0.336987
	H320	H	0.350602	0.544492	0.324571
	O321	O	0.814970	0.158882	0.811588
	H322	H	0.798731	0.154641	0.835875
	H323	H	0.823295	0.138555	0.819857
	O324	O	0.083247	-0.015863	0.834923
	H325	H	0.088305	-0.012226	0.829467
	H326	H	0.071733	-0.011619	0.845518
	O327	O	0.678302	0.305315	0.423756
	H328	H	0.668042	0.308721	0.403875
	H329	H	0.687684	0.291488	0.427839
	O330	O	0.602658	0.472562	0.587334
	H331	H	0.589242	0.472717	0.573137
	H332	H	0.613462	0.476832	0.586923
	O333	O	0.675415	1.611218	0.681141
	H334	H	0.660751	1.621140	0.688069
	H335	H	0.690628	1.613775	0.676950
	O336	O	0.608135	0.567599	0.312661
	H337	H	0.602230	0.564502	0.310499
	H338	H	0.633140	0.565514	0.315312
	O339	O	0.832587	-0.060428	1.183053
	H340	H	0.828260	-0.062817	1.195687
	H341	H	0.834419	-0.048735	1.172749
	O342	O	0.108039	1.018579	1.129291
	H343	H	0.071434	1.018685	1.123885
	H344	H	0.121856	0.992473	1.130131
	O345	O	0.011286	1.005697	1.042597
	H346	H	0.016348	0.988615	1.024345
	H347	H	0.012279	1.009058	1.043053
	O348	O	0.443927	0.655215	0.645120
	H349	H	0.435885	0.657492	0.621908
	H350	H	0.441792	0.650199	0.647603
	O351	O	-0.034542	0.115450	0.162804
	H352	H	-0.029938	0.125010	0.172588
	H353	H	-0.037641	0.110458	0.161382
	O354	O	1.173709	1.170809	0.036362
	H355	H	1.179171	1.178427	0.042192
	H356	H	1.167237	1.173401	0.061631
	O357	O	0.546851	1.351042	0.496785
	H358	H	0.544942	1.353752	0.516016
	H359	H	0.548807	1.352095	0.497362
	O360	O	0.551092	0.372868	0.316516
	H361	H	0.569489	0.387632	0.312122
	H362	H	0.513274	0.365244	0.305647
	O363	O	0.651044	0.691143	0.578142
	H364	H	0.620405	0.698617	0.576042
	H365	H	0.669805	0.710625	0.584288
	O366	O	1.455274	1.464247	0.597189
	H367	H	1.457466	1.468175	0.607292
	H368	H	1.454197	1.473526	0.605760
	O369	O	0.576292	0.505343	0.381691
	H370	H	0.573743	0.481926	0.404431
	H371	H	0.592344	0.505935	0.384353
	O372	O	0.606682	0.501671	0.680288
	H373	H	0.606938	0.494817	0.680061
	H374	H	0.597860	0.513302	0.682157
	O375	O	0.411081	0.305768	0.650988
	H376	H	0.440937	0.297954	0.656286
	H377	H	0.402529	0.295902	0.626487
	O378	O	0.412532	0.293406	0.501216
	H379	H	0.430835	0.288262	0.519284
	H380	H	0.399327	0.311189	0.511282
	O381	O	0.302627	0.484644	0.628844
	H382	H	0.295018	0.496198	0.642082
	H383	H	0.302551	0.447579	0.624908
	O384	O	0.112654	1.037775	1.086726
	H385	H	0.115058	1.050428	1.091316
	H386	H	0.098954	1.040451	1.096357
	O387	O	0.890485	0.779115	0.054385
	H388	H	0.905784	0.783003	0.055131
	H389	H	0.880580	0.761022	0.067084
	O390	O	0.485616	0.523411	0.601728
	H391	H	0.493751	0.518218	0.590100
	H392	H	0.483985	0.547674	0.595245
	O393	O	1.521954	0.464003	1.397439
	H394	H	1.531144	0.475919	1.398290
	H395	H	1.516116	0.474737	1.392541
	O396	O	-0.198968	0.991630	0.976845
	H397	H	-0.198794	0.971700	0.975703
	H398	H	-0.194160	0.997946	0.969014
	O399	O	0.584036	0.613897	0.367951
	H400	H	0.597116	0.601650	0.357823
	H401	H	0.575074	0.621477	0.365500
	O402	O	1.015339	-0.173145	0.837874
	H403	H	1.025533	-0.176526	0.829652
	H404	H	1.027215	-0.170976	0.839296
	O405	O	0.120304	-0.066890	0.121057
	H406	H	0.106802	-0.082884	0.104844
	H407	H	0.129388	-0.074530	0.135876
	O408	O	0.484324	1.275453	1.611621
	H409	H	0.500969	1.267649	1.627370
	H410	H	0.498247	1.280584	1.616658
	O411	O	1.150587	0.797578	-0.127648
	H412	H	1.145169	0.814969	-0.132465
	H413	H	1.168202	0.796602	-0.129433
	O414	O	-0.000937	-0.078609	0.887723
	H415	H	0.011774	-0.083401	0.887130
	H416	H	0.006007	-0.074182	0.877775
	O417	O	0.363155	0.574868	0.576690
	H418	H	0.365980	0.573541	0.575153
	H419	H	0.369425	0.568038	0.587772
	O420	O	-0.024640	1.155948	0.022481
	H421	H	-0.029339	1.152629	0.009237
	H422	H	-0.022283	1.155611	0.013170
	O423	O	1.155830	-0.102082	-0.155893
	H424	H	1.138994	-0.086222	-0.148837
	H425	H	1.155782	-0.085795	-0.164000
	O426	O	-0.157569	0.175822	0.983707
	H427	H	-0.158114	0.180112	0.990978
	H428	H	-0.160900	0.177847	0.995105
	O429	O	0.041777	0.925408	0.108272
	H430	H	0.044136	0.930235	0.095232
	H431	H	0.045880	0.921914	0.108779
