data_Molecule from HDF5

_cell_length_a		16.126598
_cell_length_b		16.064148
_cell_length_c		16.475494
_cell_angle_alpha	90.816983
_cell_angle_beta	90.506095
_cell_angle_gamma	91.149359
_symmetry_space_group_name_H-M	'P 1'
_symmetry_Int_Tables_number		1

loop_
	_symmetry_equiv_pos_as_xyz
	x,y,z

loop_
	_atom_site_label
	_atom_site_type_symbol
	_atom_site_fract_x
	_atom_site_fract_y
	_atom_site_fract_z
	H0	H	0.397034	0.824687	0.706667
	H1	H	0.610252	0.152863	0.712972
	H2	H	0.604910	0.826241	0.272930
	H3	H	0.400524	0.151043	0.276187
	H4	H	0.717126	0.386638	0.830677
	H5	H	0.725598	0.595298	0.153255
	H6	H	0.287289	0.580306	0.830710
	H7	H	0.285829	0.385815	0.154638
	H8	H	0.836435	0.690415	0.399706
	H9	H	0.167366	0.708388	0.594100
	H10	H	0.839257	0.271502	0.587425
	H11	H	0.169611	0.278750	0.396811
	H12	H	0.839844	0.381956	0.709396
	H13	H	0.168234	0.597007	0.713793
	H14	H	0.843317	0.591547	0.273244
	H15	H	0.166436	0.384532	0.275444
	H16	H	0.405279	0.697375	0.829509
	H17	H	0.608467	0.710774	0.153250
	H18	H	0.596848	0.270662	0.830444
	H19	H	0.402995	0.271746	0.155253
	H20	H	0.708241	0.821385	0.395378
	H21	H	0.722124	0.153113	0.593278
	H22	H	0.285658	0.824805	0.588283
	H23	H	0.292914	0.155176	0.396847
	H24	H	0.899571	0.324131	0.206901
	H25	H	0.114367	0.651893	0.215250
	H26	H	0.104951	0.325148	0.774249
	H27	H	0.904529	0.651323	0.779003
	H28	H	0.215739	0.887740	0.331500
	H29	H	0.223763	0.094835	0.654464
	H30	H	0.786296	0.082434	0.330650
	H31	H	0.785754	0.888172	0.654269
	H32	H	0.334944	0.188546	0.901124
	H33	H	0.666917	0.208129	0.094503
	H34	H	0.338227	0.773023	0.086134
	H35	H	0.669377	0.779209	0.895392
	H36	H	0.340979	0.881697	0.209171
	H37	H	0.666234	0.096467	0.213748
	H38	H	0.340662	0.088916	0.775396
	H39	H	0.665495	0.887496	0.774796
	H40	H	0.904078	0.200091	0.330037
	H41	H	0.107320	0.209485	0.654630
	H42	H	0.096972	0.771224	0.331551
	H43	H	0.902377	0.772910	0.654980
	H44	H	0.206133	0.318924	0.899084
	H45	H	0.223390	0.652247	0.093991
	H46	H	0.787220	0.323546	0.088585
	H47	H	0.795485	0.653838	0.896924
	H48	H	0.413787	0.109723	0.590969
	H49	H	0.584708	0.871924	0.587805
	H50	H	0.588644	0.104143	0.406967
	H51	H	0.407560	0.869267	0.395335
	H52	H	0.593525	0.396280	0.106308
	H53	H	0.591991	0.584371	0.878036
	H54	H	0.407815	0.569595	0.105704
	H55	H	0.405089	0.376335	0.874443
	H56	H	0.122115	0.586442	0.409137
	H57	H	0.887466	0.576494	0.584145
	H58	H	0.124259	0.392731	0.588954
	H59	H	0.884811	0.394971	0.394896
	H60	H	0.117631	0.405766	0.577860
	H61	H	0.886356	0.570909	0.594162
	H62	H	0.118823	0.573652	0.407486
	H63	H	0.886438	0.391071	0.401270
	H64	H	0.427640	0.580156	0.102939
	H65	H	0.604601	0.587928	0.873650
	H66	H	0.599670	0.401426	0.107790
	H67	H	0.392920	0.391788	0.875475
	H68	H	0.600896	0.106468	0.408172
	H69	H	0.593949	0.871098	0.581138
	H70	H	0.419637	0.106889	0.589289
	H71	H	0.414952	0.872759	0.400726
	H72	H	0.915450	0.607549	0.090138
	H73	H	0.082216	0.371521	0.094412
	H74	H	0.089838	0.604472	0.904928
	H75	H	0.907754	0.366278	0.893693
	H76	H	0.086600	0.904548	0.603879
	H77	H	0.097741	0.080970	0.377632
	H78	H	0.909143	0.075006	0.606800
	H79	H	0.905339	0.891074	0.378341
	H80	H	0.620266	0.074738	0.899247
	H81	H	0.384747	0.076064	0.091912
	H82	H	0.620544	0.905197	0.087733
	H83	H	0.382356	0.892210	0.891451
	H84	H	0.621766	0.900939	0.086306
	H85	H	0.383864	0.079583	0.086604
	H86	H	0.624027	0.087157	0.899922
	H87	H	0.385425	0.888610	0.901764
	H88	H	0.920188	0.078913	0.604031
	H89	H	0.097109	0.081685	0.377985
	H90	H	0.093170	0.890671	0.610211
	H91	H	0.905430	0.885015	0.377135
	H92	H	0.101563	0.605316	0.910605
	H93	H	0.091521	0.372953	0.076165
	H94	H	0.924892	0.605156	0.088868
	H95	H	0.917312	0.371693	0.899523
	H96	H	0.414227	0.107233	0.583981
	H97	H	0.595193	0.867265	0.592220
	H98	H	0.595349	0.108716	0.398219
	H99	H	0.406770	0.871267	0.404177
	H100	H	0.593073	0.404249	0.104694
	H101	H	0.602640	0.575628	0.878782
	H102	H	0.410418	0.590738	0.111397
	H103	H	0.412053	0.393070	0.881260
	H104	H	0.124251	0.580753	0.397439
	H105	H	0.883430	0.582385	0.593002
	H106	H	0.121207	0.410181	0.595983
	H107	H	0.888565	0.398541	0.400822
	H108	H	0.918717	0.604228	0.082157
	H109	H	0.102270	0.364747	0.091953
	H110	H	0.100920	0.609022	0.898462
	H111	H	0.906619	0.370587	0.905060
	H112	H	0.102956	0.904377	0.609268
	H113	H	0.098264	0.082030	0.378364
	H114	H	0.912352	0.086830	0.608912
	H115	H	0.900978	0.888234	0.375658
	H116	H	0.618723	0.081110	0.909779
	H117	H	0.386022	0.073836	0.086573
	H118	H	0.619923	0.903794	0.083843
	H119	H	0.387285	0.898874	0.898924
	C120	C	0.383034	-0.001311	0.614783
	C121	C	0.624766	0.979232	0.616574
	C122	C	0.622379	-0.002814	0.374046
	C123	C	0.381301	0.979981	0.371927
	C124	C	0.623726	0.368006	0.000337
	C125	C	0.629890	0.614113	0.983404
	C126	C	0.384172	0.606788	0.000324
	C127	C	0.377342	0.361319	0.984609
	C128	C	0.012825	0.607534	0.374912
	C129	C	0.994735	0.610353	0.618952
	C130	C	0.012625	0.369287	0.615000
	C131	C	0.995493	0.366769	0.371172
	C132	C	0.885242	0.497250	0.114968
	C133	C	0.126122	0.478696	0.117836
	C134	C	0.124082	0.496783	0.874512
	C135	C	0.883568	0.478723	0.872060
	C136	C	0.122553	0.868434	0.501164
	C137	C	0.128218	0.113257	0.484666
	C138	C	0.882972	0.108104	0.500355
	C139	C	0.876845	0.861884	0.484176
	C140	C	0.511758	0.107582	0.874098
	C141	C	0.493641	0.110177	0.117917
	C142	C	0.512286	0.869552	0.113681
	C143	C	0.493868	0.866358	0.869683
	C144	C	0.379821	0.874090	0.668693
	C145	C	0.627990	0.103621	0.673498
	C146	C	0.622265	0.874339	0.313957
	C147	C	0.382238	0.102769	0.315570
	C148	C	0.678473	0.367794	0.878757
	C149	C	0.687202	0.614892	0.104690
	C150	C	0.326443	0.601950	0.878809
	C151	C	0.323614	0.365585	0.106439
	C152	C	0.887241	0.657286	0.377769
	C153	C	0.118298	0.669866	0.615657
	C154	C	0.888518	0.310346	0.609763
	C155	C	0.119692	0.314009	0.375172
	C156	C	0.889040	0.365251	0.670334
	C157	C	0.118737	0.614117	0.675108
	C158	C	0.890684	0.607564	0.315103
	C159	C	0.118018	0.366921	0.315010
	C160	C	0.385010	0.660338	0.878202
	C161	C	0.628697	0.672317	0.104694
	C162	C	0.618952	0.309701	0.878718
	C163	C	0.381985	0.308537	0.106814
	C164	C	0.673833	0.871969	0.374964
	C165	C	0.683902	0.103482	0.614360
	C166	C	0.324050	0.874067	0.610005
	C167	C	0.328565	0.104964	0.375743
	C168	C	0.881760	0.373599	0.169416
	C169	C	0.130968	0.602236	0.175858
	C170	C	0.122777	0.373213	0.815093
	C171	C	0.885150	0.602538	0.816923
	C172	C	0.177454	0.868307	0.379790
	C173	C	0.185345	0.114049	0.606084
	C174	C	0.825295	0.103886	0.378792
	C175	C	0.822971	0.866824	0.605966
	C176	C	0.385742	0.156026	0.878408
	C177	C	0.617427	0.169324	0.115239
	C178	C	0.388060	0.810483	0.109032
	C179	C	0.619006	0.814544	0.873649
	C180	C	0.389379	0.864879	0.169826
	C181	C	0.617123	0.114009	0.174734
	C182	C	0.388574	0.106187	0.815853
	C183	C	0.617241	0.868652	0.813786
	C184	C	0.883890	0.162340	0.378454
	C185	C	0.127235	0.171073	0.606004
	C186	C	0.118493	0.810129	0.379912
	C187	C	0.881327	0.809657	0.606423
	C188	C	0.173063	0.370194	0.877275
	C189	C	0.185492	0.602544	0.115632
	C190	C	0.825539	0.373312	0.110537
	C191	C	0.830962	0.603852	0.875653
	C192	C	0.408716	0.085424	0.594249
	C193	C	0.598927	0.892480	0.593625
	C194	C	0.601070	0.083923	0.397675
	C195	C	0.403229	0.893399	0.393817
	C196	C	0.601895	0.393263	0.084365
	C197	C	0.606610	0.589849	0.898795
	C198	C	0.408405	0.586187	0.084853
	C199	C	0.397471	0.381202	0.899187
	C200	C	0.099328	0.586340	0.398053
	C201	C	0.908235	0.584123	0.596834
	C202	C	0.098637	0.395150	0.593913
	C203	C	0.908914	0.388531	0.392778
	C204	C	0.911728	0.583327	0.093364
	C205	C	0.099681	0.392035	0.094495
	C206	C	0.103545	0.583707	0.897873
	C207	C	0.904464	0.392194	0.893251
	C208	C	0.100765	0.892897	0.585846
	C209	C	0.104633	0.088695	0.399880
	C210	C	0.906743	0.086750	0.584600
	C211	C	0.897556	0.882152	0.399180
	C212	C	0.598481	0.087040	0.896513
	C213	C	0.407120	0.084096	0.095060
	C214	C	0.598314	0.895735	0.092244
	C215	C	0.407573	0.886933	0.891125
	Zn216	Zn	0.502785	-0.010403	0.743813
	Zn217	Zn	0.503248	-0.011655	0.245332
	Zn218	Zn	0.756973	0.489601	-0.007654
	Zn219	Zn	0.251097	0.485511	-0.006239
	Zn220	Zn	0.001502	0.735029	0.493929
	Zn221	Zn	0.004711	0.240456	0.491917
	Zn222	Zn	0.004928	0.488268	0.746581
	Zn223	Zn	0.004955	0.488611	0.245475
	Zn224	Zn	0.504444	0.740418	-0.008168
	Zn225	Zn	0.501226	0.234966	-0.006739
	Zn226	Zn	0.750597	-0.013546	0.492754
	Zn227	Zn	0.254932	-0.009825	0.493493
	N228	N	0.415742	0.952543	0.671763
	N229	N	0.592134	0.025212	0.675092
	N230	N	0.591158	0.953481	0.313090
	N231	N	0.414471	0.024171	0.313306
	N232	N	0.681456	0.403578	0.955233
	N233	N	0.688137	0.579404	0.028214
	N234	N	0.325705	0.569428	0.955690
	N235	N	0.320562	0.397558	0.029507
	N236	N	0.964257	0.657262	0.414516
	N237	N	0.040149	0.667761	0.581657
	N238	N	0.966194	0.312624	0.576137
	N239	N	0.042231	0.313645	0.409468
	N240	N	0.967277	0.401241	0.673677
	N241	N	0.040743	0.577719	0.677088
	N242	N	0.969856	0.577323	0.313189
	N243	N	0.039787	0.399062	0.312483
	N244	N	0.420392	0.663471	0.954621
	N245	N	0.593966	0.672128	0.028136
	N246	N	0.585685	0.309631	0.955306
	N247	N	0.414704	0.305673	0.030170
	N248	N	0.674187	0.949325	0.411608
	N249	N	0.681942	0.025121	0.579714
	N250	N	0.325977	0.952326	0.577193
	N251	N	0.327682	0.027258	0.409916
	N252	N	0.918059	0.451746	0.172186
	N253	N	0.094809	0.523835	0.177202
	N254	N	0.092983	0.452889	0.813259
	N255	N	0.916933	0.523721	0.814305
	N256	N	0.179896	0.903982	0.456336
	N257	N	0.185895	0.078803	0.529601
	N258	N	0.824578	0.070850	0.455363
	N259	N	0.819966	0.898481	0.529103
	N260	N	0.463387	0.157007	0.914017
	N261	N	0.539455	0.167295	0.080816
	N262	N	0.465431	0.813288	0.074742
	N263	N	0.541456	0.812652	0.907479
	N264	N	0.467714	0.900651	0.172780
	N265	N	0.538975	0.077908	0.176392
	N266	N	0.467972	0.076694	0.812942
	N267	N	0.538590	0.900110	0.810875
	N268	N	0.919078	0.165124	0.454913
	N269	N	0.092205	0.170730	0.529402
	N270	N	0.085052	0.810240	0.456390
	N271	N	0.913872	0.806120	0.529593
	N272	N	0.174094	0.447901	0.913628
	N273	N	0.182548	0.524627	0.080224
	N274	N	0.827507	0.451344	0.077414
	N275	N	0.829580	0.526020	0.909262
	O276	O	0.924833	0.142377	0.946974
	H277	H	0.936619	0.143292	0.954674
	H278	H	0.930594	0.131423	0.945801
	O279	O	0.521095	0.615392	0.532085
	H280	H	0.506465	0.606777	0.526480
	H281	H	0.527661	0.618328	0.525020
	O282	O	0.522207	0.548022	0.378446
	H283	H	0.517432	0.545135	0.374558
	H284	H	0.527817	0.549410	0.374289
	O285	O	0.425695	0.572797	0.467686
	H286	H	0.422855	0.575386	0.462201
	H287	H	0.420663	0.563846	0.461237
	O288	O	0.595335	0.462362	0.417488
	H289	H	0.585023	0.468834	0.414859
	H290	H	0.606272	0.465988	0.408709
	O291	O	0.069472	-0.097255	1.013772
	H292	H	0.063759	-0.103768	1.006281
	H293	H	0.065075	-0.092432	1.006874
	O294	O	1.036303	0.998998	-0.016944
	H295	H	1.043976	1.003461	-0.019355
	H296	H	1.046256	0.993980	-0.019185
	O297	O	1.065565	1.065275	0.035369
	H298	H	1.054899	1.058997	0.031772
	H299	H	1.065950	1.067148	0.038404
	O300	O	0.603291	0.564520	0.612455
	H301	H	0.624258	0.574302	0.617755
	H302	H	0.596901	0.564786	0.625759
	O303	O	-0.103058	1.037952	0.910315
	H304	H	-0.108519	1.030128	0.935703
	H305	H	-0.119720	1.027249	0.902102
	O306	O	0.612249	0.544447	0.629867
	H307	H	0.608667	0.531072	0.636488
	H308	H	0.598455	0.549468	0.633228
	O309	O	0.472550	0.597654	0.525182
	H310	H	0.484493	0.585351	0.527459
	H311	H	0.473133	0.613257	0.520502
	O312	O	1.511488	1.373309	1.545667
	H313	H	1.510142	1.370105	1.536669
	H314	H	1.506576	1.371846	1.541977
	O315	O	1.508144	1.533324	-0.554538
	H316	H	1.505524	1.529481	-0.566658
	H317	H	1.517329	1.536006	-0.544905
	O318	O	0.084120	0.934842	1.041241
	H319	H	0.083756	0.930079	1.041994
	H320	H	0.083272	0.933686	1.046836
	O321	O	0.440592	0.523005	0.369974
	H322	H	0.448311	0.524711	0.374247
	H323	H	0.440512	0.529324	0.376211
	O324	O	-0.018871	1.074993	0.937811
	H325	H	-0.024958	1.092681	0.935026
	H326	H	-0.021979	1.071196	0.932196
	O327	O	-0.016733	0.924824	1.033521
	H328	H	-0.020650	0.920611	1.038432
	H329	H	-0.019952	0.913690	1.039992
	O330	O	-0.595054	0.513483	0.515859
	H331	H	-0.580180	0.523975	0.515897
	H332	H	-0.599497	0.506721	0.513359
	O333	O	0.493826	0.464650	0.534722
	H334	H	0.502110	0.466631	0.532858
	H335	H	0.495768	0.475609	0.529059
	O336	O	-0.426931	-0.613720	0.535367
	H337	H	-0.415509	-0.616843	0.537008
	H338	H	-0.443749	-0.630202	0.544101
	O339	O	0.137323	-0.062988	0.003827
	H340	H	0.142227	-0.062070	-0.007977
	H341	H	0.130592	-0.060145	0.016594
	O342	O	0.401371	0.523050	0.370380
	H343	H	0.405210	0.522424	0.376937
	H344	H	0.405654	0.528726	0.369707
	O345	O	-0.040154	1.038589	0.949314
	H346	H	-0.034402	1.039182	0.938429
	H347	H	-0.048916	1.036037	0.949957
	O348	O	0.462199	0.540111	0.588989
	H349	H	0.447976	0.527465	0.588644
	H350	H	0.470836	0.554068	0.602293
	O351	O	0.534747	0.400179	-0.457128
	H352	H	0.536483	0.397302	-0.459561
	H353	H	0.540825	0.411838	-0.456970
	O354	O	-0.026483	1.076161	-0.028613
	H355	H	-0.030599	1.093359	-0.035141
	H356	H	-0.028652	1.086847	-0.029226
	O357	O	0.503428	0.588254	0.364299
	H358	H	0.499571	0.591525	0.367866
	H359	H	0.500723	0.585513	0.366381
	O360	O	1.032455	-0.149066	0.984874
	H361	H	1.047445	-0.154253	0.977872
	H362	H	1.038756	-0.152790	0.990996
	O363	O	0.525240	0.412476	0.458467
	H364	H	0.526834	0.415436	0.456492
	H365	H	0.530134	0.423724	0.448046
	O366	O	0.442129	0.458672	0.637885
	H367	H	0.438077	0.452394	0.644899
	H368	H	0.445598	0.449694	0.633388
	O369	O	1.014991	0.028446	0.033623
	H370	H	1.015257	0.027935	0.010211
	H371	H	1.022740	0.038235	0.030000
	O372	O	0.549958	0.517166	0.385697
	H373	H	0.558867	0.510987	0.377095
	H374	H	0.550003	0.514076	0.384469
	O375	O	0.863770	-0.125342	1.041575
	H376	H	0.876289	-0.113549	1.060800
	H377	H	0.850747	-0.140538	1.043507
	O378	O	-0.048124	1.045949	-0.134071
	H379	H	-0.051836	1.048405	-0.136545
	H380	H	-0.065744	1.053056	-0.143191
	O381	O	0.101422	0.966053	0.922946
	H382	H	0.099344	0.962458	0.928849
	H383	H	0.099438	0.966619	0.923588
	O384	O	0.940959	1.039744	0.001211
	H385	H	0.941046	1.034387	0.008427
	H386	H	0.942741	1.040427	0.003793
	O387	O	0.949072	-0.088074	1.106250
	H388	H	0.949645	-0.088297	1.099737
	H389	H	0.962739	-0.088848	1.102609
	O390	O	0.968841	0.864748	-0.037714
	H391	H	0.958595	0.850721	-0.050123
	H392	H	0.968483	0.862386	-0.025030
	O393	O	0.602602	0.342837	0.404482
	H394	H	0.592044	0.331265	0.393255
	H395	H	0.600793	0.339404	0.414907
