data_Molecule from HDF5

_cell_length_a		16.033849
_cell_length_b		16.321079
_cell_length_c		16.142377
_cell_angle_alpha	90.584715
_cell_angle_beta	88.509071
_cell_angle_gamma	88.879758
_symmetry_space_group_name_H-M	'P 1'
_symmetry_Int_Tables_number		1

loop_
	_symmetry_equiv_pos_as_xyz
	x,y,z

loop_
	_atom_site_label
	_atom_site_type_symbol
	_atom_site_fract_x
	_atom_site_fract_y
	_atom_site_fract_z
	H0	H	0.399335	0.838546	0.712974
	H1	H	0.589789	0.165221	0.711193
	H2	H	0.607173	0.839281	0.275821
	H3	H	0.400655	0.167017	0.288039
	H4	H	0.719638	0.399823	0.833481
	H5	H	0.697904	0.596211	0.165950
	H6	H	0.289565	0.598129	0.829368
	H7	H	0.283123	0.411425	0.162182
	H8	H	0.835117	0.720617	0.401572
	H9	H	0.165142	0.712322	0.595889
	H10	H	0.831495	0.294560	0.598761
	H11	H	0.162855	0.280592	0.388613
	H12	H	0.832533	0.410334	0.713291
	H13	H	0.165813	0.596221	0.705280
	H14	H	0.829824	0.598936	0.294466
	H15	H	0.162604	0.396530	0.275620
	H16	H	0.397344	0.717881	0.832043
	H17	H	0.592101	0.719163	0.160005
	H18	H	0.606912	0.281107	0.832826
	H19	H	0.395155	0.291570	0.162443
	H20	H	0.722300	0.839778	0.391952
	H21	H	0.703094	0.167299	0.592387
	H22	H	0.286364	0.837456	0.597021
	H23	H	0.282715	0.166071	0.404824
	H24	H	0.897277	0.337390	0.213798
	H25	H	0.089569	0.663809	0.211565
	H26	H	0.104888	0.338545	0.777246
	H27	H	0.898473	0.666886	0.787212
	H28	H	0.219767	0.899362	0.332920
	H29	H	0.198148	0.095279	0.664495
	H30	H	0.791339	0.098780	0.329328
	H31	H	0.782338	0.910535	0.661306
	H32	H	0.333629	0.218721	0.902328
	H33	H	0.664118	0.213388	0.094072
	H34	H	0.330849	0.794551	0.099160
	H35	H	0.661924	0.779959	0.887812
	H36	H	0.333534	0.909642	0.214567
	H37	H	0.666010	0.097883	0.203639
	H38	H	0.329945	0.099912	0.793976
	H39	H	0.663418	0.898098	0.776544
	H40	H	0.898423	0.218590	0.332238
	H41	H	0.090845	0.215722	0.660005
	H42	H	0.109201	0.779360	0.333751
	H43	H	0.897337	0.792129	0.663174
	H44	H	0.219947	0.339136	0.892521
	H45	H	0.202149	0.666698	0.092772
	H46	H	0.784787	0.336694	0.097158
	H47	H	0.783413	0.667051	0.907526
	H48	H	0.399564	0.122281	0.605372
	H49	H	0.594335	0.887046	0.576074
	H50	H	0.599706	0.125016	0.386903
	H51	H	0.413150	0.886284	0.403278
	H52	H	0.589777	0.410349	0.115538
	H53	H	0.584134	0.586511	0.881720
	H54	H	0.404341	0.600660	0.112927
	H55	H	0.424214	0.410067	0.883281
	H56	H	0.120289	0.594363	0.397192
	H57	H	0.883762	0.595179	0.583172
	H58	H	0.121938	0.407377	0.598057
	H59	H	0.879796	0.408499	0.412401
	H60	H	0.121163	0.390305	0.579551
	H61	H	0.878915	0.590925	0.601780
	H62	H	0.116473	0.589009	0.408359
	H63	H	0.879254	0.413532	0.404594
	H64	H	0.395647	0.603798	0.116606
	H65	H	0.591805	0.598717	0.876605
	H66	H	0.581888	0.403981	0.115340
	H67	H	0.410072	0.395132	0.874169
	H68	H	0.581137	0.115978	0.399529
	H69	H	0.600070	0.881380	0.590927
	H70	H	0.403341	0.116245	0.590931
	H71	H	0.411617	0.886473	0.405545
	H72	H	0.903165	0.615267	0.095614
	H73	H	0.087908	0.385307	0.085350
	H74	H	0.096538	0.622415	0.891509
	H75	H	0.906537	0.381395	0.893256
	H76	H	0.087773	0.904325	0.616481
	H77	H	0.101484	0.094831	0.374104
	H78	H	0.893862	0.097099	0.615626
	H79	H	0.904628	0.913176	0.376942
	H80	H	0.620926	0.095601	0.896237
	H81	H	0.378572	0.105513	0.089452
	H82	H	0.620217	0.901383	0.084086
	H83	H	0.381431	0.913317	0.912328
	H84	H	0.614706	0.906316	0.076412
	H85	H	0.382165	0.090937	0.090252
	H86	H	0.616938	0.092000	0.908695
	H87	H	0.376172	0.913091	0.899535
	H88	H	0.905593	0.094349	0.612363
	H89	H	0.093174	0.081338	0.381008
	H90	H	0.091316	0.902719	0.617890
	H91	H	0.923843	0.912267	0.383082
	H92	H	0.081453	0.617071	0.900367
	H93	H	0.093377	0.385253	0.081411
	H94	H	0.892313	0.618414	0.091605
	H95	H	0.921288	0.389364	0.903899
	H96	H	0.388692	0.121181	0.594628
	H97	H	0.584420	0.886143	0.588879
	H98	H	0.602467	0.119576	0.409998
	H99	H	0.411534	0.884803	0.402468
	H100	H	0.591835	0.401706	0.118911
	H101	H	0.599794	0.585047	0.878322
	H102	H	0.396309	0.594365	0.114245
	H103	H	0.402739	0.414983	0.877607
	H104	H	0.116774	0.581114	0.398139
	H105	H	0.875616	0.609824	0.595584
	H106	H	0.112836	0.413687	0.575552
	H107	H	0.876693	0.403794	0.405326
	H108	H	0.895381	0.621475	0.103082
	H109	H	0.093544	0.382907	0.087912
	H110	H	0.096777	0.619279	0.908768
	H111	H	0.902622	0.386921	0.912973
	H112	H	0.091589	0.906618	0.615824
	H113	H	0.085413	0.096012	0.377551
	H114	H	0.901698	0.106315	0.616184
	H115	H	0.915635	0.896364	0.376458
	H116	H	0.616612	0.083176	0.898011
	H117	H	0.376928	0.098119	0.103645
	H118	H	0.617093	0.910465	0.085317
	H119	H	0.376390	0.902108	0.907391
	C120	C	0.372536	0.011090	0.622975
	C121	C	0.618058	0.993312	0.615182
	C122	C	0.625521	0.011833	0.369978
	C123	C	0.380558	0.993951	0.377495
	C124	C	0.621181	0.376356	0.006867
	C125	C	0.616670	0.620172	0.988582
	C126	C	0.373554	0.626080	0.004955
	C127	C	0.379091	0.381093	0.987691
	C128	C	0.007670	0.619756	0.376727
	C129	C	0.989859	0.623863	0.619124
	C130	C	0.007841	0.379867	0.616387
	C131	C	0.988284	0.377495	0.374137
	C132	C	0.871691	0.509586	0.123166
	C133	C	0.116759	0.492629	0.114995
	C134	C	0.123148	0.511192	0.870947
	C135	C	0.878520	0.494168	0.877222
	C136	C	0.123137	0.875600	0.507128
	C137	C	0.117567	0.120068	0.487312
	C138	C	0.875247	0.125732	0.504851
	C139	C	0.881336	0.881458	0.487984
	C140	C	0.507492	0.120852	0.876411
	C141	C	0.489595	0.124325	0.119477
	C142	C	0.507299	0.880724	0.115137
	C143	C	0.488179	0.878533	0.873854
	C144	C	0.378051	0.887362	0.675973
	C145	C	0.611742	0.116496	0.672371
	C146	C	0.626342	0.888320	0.313905
	C147	C	0.380866	0.117795	0.325181
	C148	C	0.680920	0.378485	0.882792
	C149	C	0.664384	0.617412	0.114946
	C150	C	0.324040	0.620528	0.879491
	C151	C	0.320931	0.388439	0.112466
	C152	C	0.883515	0.679627	0.382099
	C153	C	0.115512	0.675636	0.615251
	C154	C	0.881755	0.329978	0.617777
	C155	C	0.113097	0.319544	0.370945
	C156	C	0.882297	0.387825	0.674502
	C157	C	0.115952	0.617609	0.669758
	C158	C	0.880816	0.619444	0.328341
	C159	C	0.112890	0.377145	0.314569
	C160	C	0.377751	0.680172	0.880966
	C161	C	0.611868	0.678790	0.111830
	C162	C	0.625091	0.319417	0.882609
	C163	C	0.376766	0.328746	0.112757
	C164	C	0.684009	0.888701	0.371333
	C165	C	0.668182	0.117516	0.613115
	C166	C	0.321889	0.886924	0.618228
	C167	C	0.322098	0.117112	0.383210
	C168	C	0.876368	0.386318	0.176739
	C169	C	0.110991	0.615320	0.172466
	C170	C	0.123964	0.387840	0.815014
	C171	C	0.878817	0.617804	0.824582
	C172	C	0.181872	0.878081	0.382620
	C173	C	0.165063	0.116803	0.613655
	C174	C	0.826025	0.120383	0.379457
	C175	C	0.821601	0.887923	0.612311
	C176	C	0.382618	0.179226	0.881701
	C177	C	0.614716	0.176556	0.114416
	C178	C	0.381262	0.830314	0.117573
	C179	C	0.612591	0.819947	0.870740
	C180	C	0.382683	0.887413	0.175157
	C181	C	0.615803	0.118603	0.168628
	C182	C	0.380807	0.119651	0.827849
	C183	C	0.613194	0.878473	0.814862
	C184	C	0.879147	0.180167	0.381074
	C185	C	0.111525	0.176681	0.611417
	C186	C	0.126482	0.818610	0.383023
	C187	C	0.878641	0.829115	0.613269
	C188	C	0.181611	0.388081	0.872227
	C189	C	0.166777	0.616997	0.112955
	C190	C	0.820237	0.386100	0.118606
	C191	C	0.821228	0.617714	0.884305
	C192	C	0.391494	0.097525	0.602862
	C193	C	0.598625	0.907189	0.592184
	C194	C	0.601358	0.097787	0.392298
	C195	C	0.404904	0.908036	0.397693
	C196	C	0.595442	0.398708	0.093884
	C197	C	0.597544	0.596943	0.901469
	C198	C	0.392804	0.605574	0.091984
	C199	C	0.404753	0.400742	0.900709
	C200	C	0.095085	0.595287	0.395632
	C201	C	0.902088	0.604452	0.599394
	C202	C	0.095887	0.398202	0.591510
	C203	C	0.901090	0.401520	0.400111
	C204	C	0.891319	0.595929	0.102756
	C205	C	0.097360	0.406876	0.091691
	C206	C	0.098768	0.597411	0.893529
	C207	C	0.902982	0.408036	0.897346
	C208	C	0.097615	0.897890	0.594279
	C209	C	0.099003	0.097572	0.400109
	C210	C	0.894593	0.105264	0.592124
	C211	C	0.907133	0.901233	0.401296
	C212	C	0.595430	0.097135	0.895372
	C213	C	0.401878	0.104298	0.100086
	C214	C	0.594815	0.900356	0.089378
	C215	C	0.400640	0.902496	0.898962
	Zn216	Zn	0.496797	0.001187	0.747743
	Zn217	Zn	0.501333	0.002951	0.244373
	Zn218	Zn	0.746047	0.500714	-0.000116
	Zn219	Zn	0.248946	0.503188	-0.005199
	Zn220	Zn	0.000564	0.748739	0.498235
	Zn221	Zn	-0.002382	0.250753	0.495825
	Zn222	Zn	0.000308	0.502435	0.744475
	Zn223	Zn	-0.003870	0.499858	0.247805
	Zn224	Zn	0.496530	0.750840	-0.004760
	Zn225	Zn	0.498920	0.249461	-0.002433
	Zn226	Zn	0.750228	0.003507	0.494370
	Zn227	Zn	0.247345	0.000756	0.498960
	N228	N	0.408908	0.965452	0.679243
	N229	N	0.581305	0.038270	0.673870
	N230	N	0.590937	0.965966	0.312555
	N231	N	0.416694	0.040271	0.321608
	N232	N	0.678764	0.412794	0.961166
	N233	N	0.667520	0.581654	0.037090
	N234	N	0.321294	0.587532	0.957497
	N235	N	0.322130	0.420016	0.033758
	N236	N	0.963387	0.680076	0.411343
	N237	N	0.036104	0.679680	0.584739
	N238	N	0.960870	0.324955	0.582170
	N239	N	0.034370	0.319425	0.407152
	N240	N	0.961882	0.417626	0.673845
	N241	N	0.036886	0.586159	0.672494
	N242	N	0.959038	0.582619	0.325002
	N243	N	0.034115	0.412345	0.316508
	N244	N	0.408140	0.683491	0.959971
	N245	N	0.582945	0.680431	0.032309
	N246	N	0.588425	0.318095	0.960925
	N247	N	0.412454	0.324175	0.034166
	N248	N	0.683677	0.966411	0.405288
	N249	N	0.672310	0.040129	0.578219
	N250	N	0.318006	0.964749	0.586106
	N251	N	0.321911	0.039235	0.415233
	N252	N	0.907510	0.464294	0.179971
	N253	N	0.080627	0.537145	0.173764
	N254	N	0.088396	0.465484	0.814006
	N255	N	0.913657	0.539919	0.820099
	N256	N	0.179906	0.912624	0.460754
	N257	N	0.168921	0.081997	0.535513
	N258	N	0.822920	0.087734	0.457645
	N259	N	0.823161	0.919771	0.533569
	N260	N	0.462388	0.179983	0.911194
	N261	N	0.535166	0.180247	0.084394
	N262	N	0.459822	0.825804	0.081141
	N263	N	0.533802	0.819876	0.906589
	N264	N	0.462133	0.918093	0.173815
	N265	N	0.536921	0.086715	0.171937
	N266	N	0.459596	0.084094	0.824415
	N267	N	0.534612	0.914249	0.816661
	N268	N	0.909105	0.183732	0.460199
	N269	N	0.083065	0.179084	0.531732
	N270	N	0.090835	0.816703	0.461738
	N271	N	0.915150	0.824817	0.535055
	N272	N	0.181264	0.465744	0.906297
	N273	N	0.170475	0.539688	0.077663
	N274	N	0.816910	0.463857	0.086229
	N275	N	0.821135	0.539853	0.916507
	O276	O	0.031693	0.029481	0.070445
	H277	H	0.036559	0.018088	0.058156
	H278	H	0.026408	0.032538	0.070568
	O279	O	0.531402	0.514038	0.479561
	H280	H	0.534787	0.510414	0.475890
	H281	H	0.528324	0.521394	0.471808
	O282	O	0.566658	0.453813	0.516375
	H283	H	0.578831	0.461540	0.515951
	H284	H	0.566843	0.455486	0.513645
	O285	O	0.041387	0.890741	0.982010
	H286	H	0.051472	0.885984	0.970572
	H287	H	0.042293	0.899673	0.980105
	O288	O	0.534780	0.577034	0.582045
	H289	H	0.539017	0.577337	0.588413
	H290	H	0.532283	0.572422	0.574905
	O291	O	0.996945	1.028282	0.976568
	H292	H	0.990097	1.028553	0.973393
	H293	H	0.994588	1.025144	0.971284
	O294	O	0.984397	1.053757	1.007260
	H295	H	0.983425	1.062053	1.002924
	H296	H	0.981038	1.053745	1.006124
	O297	O	1.038633	0.002176	0.960106
	H298	H	1.044851	-0.003993	0.961740
	H299	H	1.030641	0.001964	0.958968
	O300	O	0.572274	0.388076	0.537455
	H301	H	0.562715	0.387668	0.522826
	H302	H	0.579348	0.380439	0.535007
	O303	O	1.057643	-0.023803	0.007510
	H304	H	1.053767	-0.028203	0.012657
	H305	H	1.056256	-0.024222	0.013158
	O306	O	-0.012943	0.977409	1.069172
	H307	H	-0.026354	0.978584	1.076382
	H308	H	-0.022825	0.983749	1.077377
	O309	O	0.377214	0.446981	0.571077
	H310	H	0.373130	0.439282	0.572355
	H311	H	0.380576	0.446842	0.568776
	O312	O	0.999126	0.034187	0.941730
	H313	H	0.995873	0.044949	0.946949
	H314	H	0.997462	0.043930	0.929548
	O315	O	0.409410	0.489709	0.429325
	H316	H	0.410012	0.489964	0.428050
	H317	H	0.397828	0.492093	0.444391
	O318	O	0.362375	0.598620	0.428235
	H319	H	0.367039	0.599949	0.426463
	H320	H	0.361226	0.605074	0.445662
	O321	O	0.990519	1.176556	1.000372
	H322	H	1.003448	1.176220	1.008869
	H323	H	0.990350	1.179816	1.003194
	O324	O	0.497352	0.434829	0.437602
	H325	H	0.496611	0.438132	0.427035
	H326	H	0.481582	0.442398	0.447125
	O327	O	0.521124	0.546304	0.617753
	H328	H	0.527117	0.553360	0.629460
	H329	H	0.530144	0.551156	0.626957
	O330	O	1.034484	-0.024396	0.910970
	H331	H	1.031075	-0.017265	0.898990
	H332	H	1.046816	-0.041284	0.904518
	O333	O	0.911305	1.100987	-0.004275
	H334	H	0.923899	1.101348	-0.008876
	H335	H	0.909136	1.104909	-0.003667
	O336	O	0.472655	0.412074	0.515012
	H337	H	0.472221	0.398152	0.527298
	H338	H	0.471802	0.410760	0.514394
	O339	O	0.579377	0.489223	0.455811
	H340	H	0.578001	0.501954	0.441063
	H341	H	0.562785	0.477595	0.448785
	O342	O	-0.030992	1.039274	-0.002245
	H343	H	-0.021270	1.033818	-0.002357
	H344	H	-0.024210	1.046313	0.000440
	O345	O	-0.067656	-0.102108	0.034240
	H346	H	-0.059631	-0.105874	0.038562
	H347	H	-0.071842	-0.097577	0.028340
	O348	O	0.534656	0.485662	0.476574
	H349	H	0.540164	0.478869	0.471352
	H350	H	0.538069	0.479434	0.472976
	O351	O	0.547673	0.503158	0.440783
	H352	H	0.540736	0.516409	0.436832
	H353	H	0.555218	0.500695	0.434387
	O354	O	0.392270	0.608591	0.464338
	H355	H	0.393953	0.620560	0.471492
	H356	H	0.390833	0.610477	0.460522
	O357	O	0.423389	0.609689	0.519423
	H358	H	0.424311	0.606131	0.519681
	H359	H	0.426922	0.613604	0.516108
	O360	O	-0.121282	-0.018588	-0.000011
	H361	H	-0.120865	-0.010446	0.010405
	H362	H	-0.128388	-0.019046	0.002301
	O363	O	0.544202	0.526419	0.497965
	H364	H	0.544793	0.527337	0.503467
	H365	H	0.558289	0.517065	0.507027
	O366	O	-0.057717	-0.100176	1.036188
	H367	H	-0.070257	-0.110846	1.041103
	H368	H	-0.065967	-0.111941	1.037258
	O369	O	0.565200	0.488038	0.416442
	H370	H	0.562751	0.489847	0.419030
	H371	H	0.563986	0.476721	0.409032
