data_Molecule from HDF5

_cell_length_a		16.454048
_cell_length_b		16.740523
_cell_length_c		16.489808
_cell_angle_alpha	90.017213
_cell_angle_beta	90.091759
_cell_angle_gamma	89.885838
_symmetry_space_group_name_H-M	'P 1'
_symmetry_Int_Tables_number		1

loop_
	_symmetry_equiv_pos_as_xyz
	x,y,z

loop_
	_atom_site_label
	_atom_site_type_symbol
	_atom_site_fract_x
	_atom_site_fract_y
	_atom_site_fract_z
	H0	H	0.408281	0.834895	0.733667
	H1	H	0.623378	0.142763	0.734776
	H2	H	0.617299	0.833971	0.288169
	H3	H	0.409346	0.144615	0.287971
	H4	H	0.730918	0.390178	0.850494
	H5	H	0.733787	0.592701	0.168099
	H6	H	0.295503	0.592717	0.851957
	H7	H	0.299167	0.390379	0.168901
	H8	H	0.857916	0.711597	0.404126
	H9	H	0.172963	0.708280	0.615387
	H10	H	0.856506	0.270196	0.612388
	H11	H	0.172939	0.270511	0.406840
	H12	H	0.854967	0.388919	0.726268
	H13	H	0.173641	0.590003	0.728613
	H14	H	0.855374	0.591168	0.291873
	H15	H	0.174244	0.389637	0.293524
	H16	H	0.408257	0.711791	0.853400
	H17	H	0.618600	0.710702	0.167060
	H18	H	0.618824	0.270465	0.851695
	H19	H	0.409179	0.268156	0.165352
	H20	H	0.735774	0.834006	0.404658
	H21	H	0.740909	0.141938	0.618269
	H22	H	0.292333	0.833918	0.615243
	H23	H	0.293620	0.145119	0.406641
	H24	H	0.913027	0.332216	0.228165
	H25	H	0.118836	0.645436	0.232255
	H26	H	0.115580	0.332221	0.792362
	H27	H	0.912914	0.647222	0.790603
	H28	H	0.233082	0.885907	0.350897
	H29	H	0.231964	0.089352	0.668557
	H30	H	0.795900	0.090869	0.350860
	H31	H	0.793971	0.885157	0.666908
	H32	H	0.358706	0.211876	0.903327
	H33	H	0.671230	0.212198	0.117254
	H34	H	0.357551	0.770089	0.113852
	H35	H	0.672862	0.770076	0.905868
	H36	H	0.354831	0.890175	0.225933
	H37	H	0.671920	0.093241	0.230566
	H38	H	0.357614	0.092485	0.789445
	H39	H	0.673953	0.888480	0.791896
	H40	H	0.906491	0.211930	0.352888
	H41	H	0.118739	0.208894	0.667341
	H42	H	0.121519	0.766145	0.353102
	H43	H	0.908542	0.767471	0.666965
	H44	H	0.234440	0.333314	0.907835
	H45	H	0.234909	0.646284	0.113625
	H46	H	0.794725	0.333555	0.112434
	H47	H	0.796402	0.647795	0.909023
	H48	H	0.424212	0.098913	0.596016
	H49	H	0.603206	0.878176	0.600577
	H50	H	0.597564	0.098009	0.420659
	H51	H	0.424492	0.877957	0.420048
	H52	H	0.597534	0.397911	0.120780
	H53	H	0.602572	0.589689	0.894138
	H54	H	0.427848	0.577756	0.121684
	H55	H	0.423481	0.405788	0.897940
	H56	H	0.128672	0.584209	0.425153
	H57	H	0.902267	0.579121	0.595142
	H58	H	0.131293	0.392417	0.604084
	H59	H	0.900942	0.397021	0.420661
	H60	H	0.127711	0.395264	0.594995
	H61	H	0.901300	0.577834	0.600994
	H62	H	0.124224	0.574277	0.426084
	H63	H	0.901872	0.399817	0.422024
	H64	H	0.428997	0.584724	0.123146
	H65	H	0.611360	0.577861	0.895401
	H66	H	0.607233	0.395731	0.125338
	H67	H	0.432112	0.397964	0.897148
	H68	H	0.607840	0.099969	0.425582
	H69	H	0.601263	0.881147	0.596380
	H70	H	0.423109	0.100156	0.600908
	H71	H	0.423486	0.877552	0.417283
	H72	H	0.933413	0.598342	0.103768
	H73	H	0.107974	0.377137	0.105630
	H74	H	0.105972	0.602503	0.916872
	H75	H	0.922371	0.379585	0.921293
	H76	H	0.101672	0.905537	0.619885
	H77	H	0.108118	0.083074	0.394233
	H78	H	0.930425	0.082909	0.621600
	H79	H	0.922251	0.902522	0.396566
	H80	H	0.627011	0.074732	0.921792
	H81	H	0.403142	0.077349	0.095956
	H82	H	0.631826	0.896109	0.105422
	H83	H	0.400314	0.899656	0.915661
	H84	H	0.626895	0.895030	0.092217
	H85	H	0.400459	0.081044	0.099563
	H86	H	0.630397	0.082210	0.918274
	H87	H	0.401542	0.896145	0.924618
	H88	H	0.923191	0.079972	0.623441
	H89	H	0.103484	0.074916	0.397978
	H90	H	0.097750	0.893154	0.621155
	H91	H	0.932752	0.901916	0.401365
	H92	H	0.103621	0.601360	0.917947
	H93	H	0.100003	0.381174	0.100126
	H94	H	0.920808	0.599103	0.091850
	H95	H	0.918626	0.377048	0.915975
	H96	H	0.428198	0.098883	0.599235
	H97	H	0.605851	0.879051	0.596680
	H98	H	0.606073	0.102036	0.414342
	H99	H	0.426205	0.878530	0.417824
	H100	H	0.605093	0.405760	0.121908
	H101	H	0.597060	0.577655	0.899982
	H102	H	0.422301	0.581715	0.124189
	H103	H	0.421390	0.395532	0.893149
	H104	H	0.129297	0.577678	0.416586
	H105	H	0.900322	0.583782	0.598629
	H106	H	0.127913	0.401652	0.602674
	H107	H	0.900922	0.399863	0.418850
	H108	H	0.917965	0.604658	0.107777
	H109	H	0.109318	0.379426	0.095360
	H110	H	0.106236	0.601076	0.919067
	H111	H	0.925745	0.378537	0.915137
	H112	H	0.110097	0.897028	0.625384
	H113	H	0.097671	0.083707	0.397029
	H114	H	0.928386	0.075685	0.619516
	H115	H	0.928207	0.893378	0.396286
	H116	H	0.627632	0.081565	0.927058
	H117	H	0.402425	0.082816	0.094742
	H118	H	0.625683	0.906876	0.098856
	H119	H	0.403207	0.905147	0.923073
	C120	C	0.393092	-0.002873	0.631282
	C121	C	0.636784	0.980885	0.631310
	C122	C	0.636039	-0.002346	0.387636
	C123	C	0.392166	0.980777	0.387164
	C124	C	0.635164	0.369184	0.018053
	C125	C	0.635770	0.611927	1.001029
	C126	C	0.393666	0.612413	0.018839
	C127	C	0.394023	0.368981	1.000654
	C128	C	0.022813	0.610159	0.389794
	C129	C	1.006143	0.610467	0.630416
	C130	C	0.023371	0.367236	0.630690
	C131	C	1.006187	0.368361	0.389456
	C132	C	0.893010	0.497551	0.131698
	C133	C	0.136699	0.482121	0.131959
	C134	C	0.136054	0.497797	0.888016
	C135	C	0.892327	0.482182	0.887501
	C136	C	0.135639	0.867215	0.518050
	C137	C	0.135148	0.110547	0.501004
	C138	C	0.893654	0.110944	0.517588
	C139	C	0.894388	0.867415	0.501568
	C140	C	0.524250	0.111181	0.889064
	C141	C	0.506136	0.111666	0.130055
	C142	C	0.523009	0.869429	0.129749
	C143	C	0.506410	0.869073	0.889296
	C144	C	0.390447	0.881008	0.692542
	C145	C	0.640903	0.096621	0.693660
	C146	C	0.636778	0.880586	0.327937
	C147	C	0.390481	0.098114	0.328112
	C148	C	0.692866	0.369777	0.898307
	C149	C	0.694471	0.612070	0.120399
	C150	C	0.334465	0.612624	0.899764
	C151	C	0.336779	0.369648	0.120588
	C152	C	0.904508	0.670424	0.386405
	C153	C	0.125519	0.668801	0.633290
	C154	C	0.903745	0.309873	0.631127
	C155	C	0.125531	0.309988	0.388100
	C156	C	0.902983	0.368817	0.687679
	C157	C	0.125775	0.609749	0.689257
	C158	C	0.903473	0.610784	0.330571
	C159	C	0.126193	0.369100	0.331738
	C160	C	0.390645	0.671635	0.900250
	C161	C	0.637336	0.670625	0.120083
	C162	C	0.637347	0.310363	0.899074
	C163	C	0.391740	0.309255	0.118876
	C164	C	0.695654	0.880609	0.385763
	C165	C	0.699322	0.096295	0.635753
	C166	C	0.332749	0.880596	0.633680
	C167	C	0.333133	0.098229	0.387041
	C168	C	0.893507	0.379562	0.189285
	C169	C	0.137377	0.599085	0.191588
	C170	C	0.135506	0.379653	0.831126
	C171	C	0.893217	0.600287	0.830098
	C172	C	0.194217	0.866543	0.398798
	C173	C	0.193227	0.109496	0.620633
	C174	C	0.834619	0.110943	0.398627
	C175	C	0.834053	0.866520	0.619814
	C176	C	0.405629	0.171142	0.885689
	C177	C	0.624277	0.171471	0.134182
	C178	C	0.404170	0.810368	0.131738
	C179	C	0.625546	0.809873	0.887406
	C180	C	0.402987	0.869962	0.187405
	C181	C	0.624690	0.112434	0.190543
	C182	C	0.405032	0.111914	0.829324
	C183	C	0.626103	0.868631	0.830736
	C184	C	0.889531	0.171122	0.399806
	C185	C	0.136843	0.168680	0.620166
	C186	C	0.138681	0.806931	0.399919
	C187	C	0.890850	0.807717	0.619628
	C188	C	0.194542	0.380141	0.888612
	C189	C	0.195094	0.599550	0.132814
	C190	C	0.834753	0.380040	0.131560
	C191	C	0.835338	0.600536	0.888811
	C192	C	0.418088	0.078160	0.606012
	C193	C	0.610595	0.900312	0.605179
	C194	C	0.611020	0.078922	0.412964
	C195	C	0.417487	0.899113	0.411415
	C196	C	0.610350	0.392925	0.100931
	C197	C	0.610929	0.588507	0.918186
	C198	C	0.419043	0.588418	0.101450
	C199	C	0.418421	0.392967	0.917676
	C200	C	0.105755	0.585849	0.415263
	C201	C	0.922992	0.587104	0.605425
	C202	C	0.107172	0.390060	0.607355
	C203	C	0.922745	0.392008	0.413613
	C204	C	0.917117	0.579681	0.107935
	C205	C	0.112761	0.400502	0.107419
	C206	C	0.112280	0.580382	0.911287
	C207	C	0.915524	0.399872	0.910651
	C208	C	0.110503	0.891767	0.600682
	C209	C	0.110125	0.087306	0.417838
	C210	C	0.919819	0.086376	0.600134
	C211	C	0.920287	0.892172	0.419437
	C212	C	0.606970	0.086495	0.914969
	C213	C	0.423551	0.087378	0.104165
	C214	C	0.606459	0.892663	0.105684
	C215	C	0.423379	0.893203	0.913866
	Zn216	Zn	0.515308	-0.010295	0.760978
	Zn217	Zn	0.514173	-0.010109	0.258114
	Zn218	Zn	0.763343	0.489858	0.009853
	Zn219	Zn	0.266302	0.490413	0.009932
	Zn220	Zn	0.015436	0.738577	0.510027
	Zn221	Zn	0.014562	0.239260	0.509319
	Zn222	Zn	0.014225	0.489175	0.758076
	Zn223	Zn	0.014741	0.489396	0.261676
	Zn224	Zn	0.514921	0.740575	0.009967
	Zn225	Zn	0.515528	0.240497	0.009273
	Zn226	Zn	0.766013	-0.010650	0.509326
	Zn227	Zn	0.263386	-0.011258	0.509171
	N228	N	0.427329	0.954535	0.691276
	N229	N	0.602940	0.023720	0.691225
	N230	N	0.600831	0.954583	0.328580
	N231	N	0.426454	0.023990	0.327946
	N232	N	0.692011	0.405425	0.973365
	N233	N	0.693426	0.576195	0.045464
	N234	N	0.336299	0.576470	0.974403
	N235	N	0.338168	0.406018	0.046037
	N236	N	0.979857	0.670170	0.422343
	N237	N	0.050001	0.669419	0.597368
	N238	N	0.979784	0.308461	0.596914
	N239	N	0.049737	0.309104	0.422800
	N240	N	0.978560	0.403421	0.687933
	N241	N	0.050544	0.574296	0.687775
	N242	N	0.978208	0.574216	0.332474
	N243	N	0.050974	0.404522	0.332446
	N244	N	0.426670	0.671870	0.975401
	N245	N	0.601667	0.670765	0.044812
	N246	N	0.602613	0.309582	0.974764
	N247	N	0.426319	0.308455	0.043107
	N248	N	0.695295	0.954426	0.421981
	N249	N	0.697006	0.023334	0.597757
	N250	N	0.334200	0.953927	0.596462
	N251	N	0.333954	0.024186	0.422710
	N252	N	0.928892	0.453865	0.189711
	N253	N	0.101860	0.525043	0.191219
	N254	N	0.100062	0.453902	0.830652
	N255	N	0.927491	0.525551	0.828880
	N256	N	0.192527	0.903258	0.473257
	N257	N	0.192353	0.074195	0.545405
	N258	N	0.836969	0.074136	0.473062
	N259	N	0.836203	0.903169	0.545272
	N260	N	0.480727	0.170821	0.922174
	N261	N	0.549309	0.171308	0.097445
	N262	N	0.479902	0.809895	0.096697
	N263	N	0.549942	0.809708	0.922741
	N264	N	0.477782	0.905974	0.186190
	N265	N	0.550197	0.075938	0.188143
	N266	N	0.479927	0.075590	0.831182
	N267	N	0.550900	0.904408	0.831676
	N268	N	0.925430	0.171244	0.474999
	N269	N	0.101473	0.169517	0.544764
	N270	N	0.103057	0.807150	0.475267
	N271	N	0.927484	0.808123	0.545026
	N272	N	0.195190	0.454899	0.923209
	N273	N	0.194808	0.525871	0.096437
	N274	N	0.834174	0.454442	0.096795
	N275	N	0.834487	0.526005	0.923651
	O276	O	0.180398	0.828917	0.112116
	H277	H	0.182556	0.836350	0.105882
	H278	H	0.177301	0.826484	0.116581
	O279	O	0.331641	0.301541	0.322352
	H280	H	0.351717	0.319290	0.334313
	H281	H	0.345401	0.315960	0.335037
	O282	O	0.986487	-0.044041	0.981343
	H283	H	1.001315	-0.048480	0.982704
	H284	H	0.979238	-0.033976	0.985461
	O285	O	0.515978	0.571110	0.603948
	H286	H	0.499039	0.562588	0.605797
	H287	H	0.510949	0.569196	0.597685
	O288	O	0.761281	0.239271	0.755679
	H289	H	0.739728	0.270774	0.755210
	H290	H	0.751844	0.215736	0.743731
	O291	O	0.466674	0.526771	0.515323
	H292	H	0.466074	0.517617	0.515468
	H293	H	0.478631	0.518233	0.530703
	O294	O	0.874029	-0.041566	1.210400
	H295	H	0.865789	-0.043373	1.213707
	H296	H	0.864073	-0.057371	1.218357
	O297	O	0.202208	1.173348	0.826676
	H298	H	0.180516	1.153372	0.836262
	H299	H	0.189016	1.157096	0.840169
	O300	O	-0.200039	0.064784	1.101637
	H301	H	-0.196699	0.090053	1.091867
	H302	H	-0.188820	0.056597	1.097221
	O303	O	0.591931	0.550276	0.296176
	H304	H	0.604861	0.538286	0.298576
	H305	H	0.606413	0.525950	0.290663
	O306	O	0.673291	0.429540	0.495108
	H307	H	0.670487	0.432682	0.521790
	H308	H	0.671345	0.453456	0.482473
	O309	O	0.733723	0.556578	0.480059
	H310	H	0.743697	0.570552	0.463324
	H311	H	0.721405	0.566859	0.491343
	O312	O	0.731736	0.711190	0.540253
	H313	H	0.737707	0.708688	0.552551
	H314	H	0.749024	0.730218	0.555318
	O315	O	1.022655	0.857514	1.022771
	H316	H	1.046291	0.859782	1.033797
	H317	H	1.014830	0.854154	1.047855
	O318	O	0.740222	0.531711	0.735159
	H319	H	0.756066	0.555853	0.749950
	H320	H	0.754649	0.559556	0.747618
	O321	O	0.320609	0.635435	0.639251
	H322	H	0.318441	0.619968	0.643963
	H323	H	0.331709	0.639564	0.620090
	O324	O	1.227001	0.960840	-0.199430
	H325	H	1.231151	0.953589	-0.215572
	H326	H	1.223342	0.951517	-0.205944
	O327	O	0.131117	-0.223793	0.795297
	H328	H	0.123831	-0.231464	0.774384
	H329	H	0.137809	-0.223978	0.808031
	O330	O	0.574968	0.701886	0.462624
	H331	H	0.579258	0.699282	0.473772
	H332	H	0.583194	0.702176	0.479132
	O333	O	0.477898	0.271540	0.723131
	H334	H	0.490157	0.257405	0.741478
	H335	H	0.490257	0.266386	0.702419
	O336	O	0.487272	0.430522	0.579103
	H337	H	0.496752	0.425551	0.586472
	H338	H	0.493136	0.438586	0.574476
	O339	O	0.930742	0.011004	0.928469
	H340	H	0.928430	0.013840	0.915841
	H341	H	0.941051	0.021149	0.945900
	O342	O	0.229301	0.013105	0.222670
	H343	H	0.238257	0.019215	0.233690
	H344	H	0.233667	0.035034	0.228057
	O345	O	-0.441893	1.275864	1.297540
	H346	H	-0.439872	1.269366	1.298828
	H347	H	-0.444313	1.278571	1.285202
	O348	O	0.226373	-0.223653	-0.110475
	H349	H	0.240338	-0.217135	-0.100911
	H350	H	0.245432	-0.239768	-0.126275
	O351	O	0.548392	0.428079	0.678140
	H352	H	0.543447	0.444282	0.672042
	H353	H	0.545439	0.415496	0.687118
	O354	O	0.224682	0.199372	1.215357
	H355	H	0.206610	0.202210	1.190766
	H356	H	0.252619	0.218509	1.244453
	O357	O	-0.163312	0.115058	0.096946
	H358	H	-0.154804	0.107545	0.090264
	H359	H	-0.154811	0.116363	0.087395
	O360	O	0.295356	0.425748	0.725241
	H361	H	0.288143	0.403589	0.725135
	H362	H	0.281398	0.411305	0.740168
	O363	O	0.069638	-0.070652	0.083106
	H364	H	0.072675	-0.073213	0.095317
	H365	H	0.067558	-0.067649	0.091441
	O366	O	0.466326	0.576858	0.690415
	H367	H	0.469484	0.589027	0.678477
	H368	H	0.452394	0.585923	0.693686
	O369	O	0.980361	-0.230262	0.223889
	H370	H	0.980437	-0.232661	0.233309
	H371	H	0.981105	-0.240055	0.227871
	O372	O	1.200408	1.058206	-0.082045
	H373	H	1.200725	1.048326	-0.074439
	H374	H	1.206448	1.057153	-0.091949
	O375	O	0.983851	0.209549	-0.208473
	H376	H	0.974344	0.225161	-0.214919
	H377	H	0.979695	0.215770	-0.215346
	O378	O	0.320707	0.466888	0.582941
	H379	H	0.312437	0.448081	0.594829
	H380	H	0.333525	0.459229	0.595369
	O381	O	-0.141352	0.940466	0.911556
	H382	H	-0.146330	0.941783	0.914424
	H383	H	-0.142341	0.941925	0.914044
	O384	O	0.547221	0.251314	0.548321
	H385	H	0.549775	0.255904	0.521890
	H386	H	0.563102	0.248335	0.537228
	O387	O	0.718913	0.695881	-0.287550
	H388	H	0.676939	0.706677	-0.292340
	H389	H	0.731514	0.726485	-0.259550
	O390	O	0.489298	0.572630	0.373760
	H391	H	0.487101	0.565139	0.389061
	H392	H	0.498826	0.568297	0.367501
	O393	O	0.663599	0.366720	0.683618
	H394	H	0.640147	0.374159	0.675630
	H395	H	0.670867	0.393820	0.700907
	O396	O	0.080355	0.877397	1.064313
	H397	H	0.080659	0.883146	1.066301
	H398	H	0.082979	0.884633	1.070682
	O399	O	-0.090231	-0.064668	0.795850
	H400	H	-0.089105	-0.064775	0.792316
	H401	H	-0.099298	-0.067552	0.798433
	O402	O	0.697571	0.674977	0.331665
	H403	H	0.674824	0.661831	0.341460
	H404	H	0.695007	0.674821	0.331526
	O405	O	1.041747	0.120249	1.091708
	H406	H	1.037373	0.116408	1.094353
	H407	H	1.051082	0.118718	1.081226
	O408	O	0.068260	0.212655	-0.013446
	H409	H	0.077390	0.200510	-0.010066
	H410	H	0.078153	0.218936	0.004512
	O411	O	0.722011	0.278026	0.492819
	H412	H	0.726378	0.311039	0.495059
	H413	H	0.751562	0.260399	0.489763
	O414	O	0.718314	0.282050	0.321511
	H415	H	0.709303	0.261586	0.301984
	H416	H	0.722305	0.266580	0.349576
	O417	O	0.319600	0.692412	0.487341
	H418	H	0.323500	0.679877	0.476276
	H419	H	0.292521	0.700137	0.477254
	O420	O	0.314731	0.550635	0.344356
	H421	H	0.313197	0.567407	0.335174
	H422	H	0.307886	0.563451	0.329750
	O423	O	0.305113	0.277192	0.552259
	H424	H	0.298480	0.273048	0.573911
	H425	H	0.294472	0.261948	0.563913
	O426	O	0.309474	0.446893	0.423644
	H427	H	0.311638	0.455933	0.404260
	H428	H	0.308059	0.429630	0.442237
	O429	O	1.352231	1.276258	0.692989
	H430	H	1.334918	1.247579	0.722483
	H431	H	1.396946	1.272472	0.705631
	O432	O	-0.147504	0.799936	0.843563
	H433	H	-0.126160	0.811576	0.866020
	H434	H	-0.131179	0.817832	0.855233
	O435	O	0.211022	0.842347	0.025133
	H436	H	0.217188	0.840925	0.023147
	H437	H	0.213219	0.846917	0.037023
	O438	O	-0.194954	-0.225409	0.044878
	H439	H	-0.197353	-0.229672	0.046337
	H440	H	-0.200786	-0.233005	0.052669
	O441	O	-0.206560	0.208670	-0.017411
	H442	H	-0.218994	0.229012	-0.024123
	H443	H	-0.192389	0.216476	-0.036328
	O444	O	0.229775	0.209489	0.040288
	H445	H	0.239051	0.215079	0.047519
	H446	H	0.246152	0.204408	0.044011
	O447	O	-0.138859	1.001851	1.208173
	H448	H	-0.129699	1.005420	1.193808
	H449	H	-0.166290	0.996968	1.217100
	O450	O	-0.191687	1.105330	0.803651
	H451	H	-0.197792	1.115580	0.795618
	H452	H	-0.181725	1.106104	0.791456
	O453	O	0.443653	0.438529	0.320567
	H454	H	0.439644	0.457505	0.322021
	H455	H	0.433312	0.452891	0.321872
	O456	O	0.047805	-0.058739	1.190443
	H457	H	0.050253	-0.054890	1.190654
	H458	H	0.038898	-0.061810	1.198783
	O459	O	0.804144	0.779445	0.218985
	H460	H	0.805444	0.781055	0.228360
	H461	H	0.813170	0.777574	0.209242
	O462	O	0.732371	0.455343	0.289269
	H463	H	0.728241	0.409721	0.293364
	H464	H	0.763035	0.448815	0.268794
	O465	O	1.044835	0.061976	-0.160825
	H466	H	1.033251	0.032724	-0.158907
	H467	H	1.017658	0.085244	-0.164146
	O468	O	0.037735	1.098738	0.098721
	H469	H	0.040593	1.093352	0.094549
	H470	H	0.049306	1.101801	0.099270
	O471	O	0.466636	0.724262	0.576863
	H472	H	0.463703	0.718420	0.563815
	H473	H	0.458713	0.727099	0.573061
	O474	O	-0.446322	1.712928	-0.271669
	H475	H	-0.460747	1.716763	-0.267545
	H476	H	-0.463885	1.723728	-0.272248
	O477	O	0.308849	0.701027	1.304499
	H478	H	0.336374	0.703622	1.317450
	H479	H	0.321954	0.704838	1.292940
	O480	O	0.488619	0.603622	0.301387
	H481	H	0.515210	0.596809	0.304651
	H482	H	0.498522	0.603994	0.307724
	O483	O	0.455204	0.308784	0.467401
	H484	H	0.440122	0.321373	0.475529
	H485	H	0.445141	0.310467	0.471952
	O486	O	1.043218	0.199798	1.221882
	H487	H	1.040206	0.217275	1.251845
	H488	H	1.058555	0.196998	1.205810
	O489	O	1.019488	0.796224	-0.099661
	H490	H	1.012122	0.810928	-0.097027
	H491	H	1.018613	0.787939	-0.079593
