data_Molecule from HDF5

_cell_length_a		16.607138
_cell_length_b		16.573310
_cell_length_c		16.698239
_cell_angle_alpha	89.864864
_cell_angle_beta	90.023859
_cell_angle_gamma	90.069538
_symmetry_space_group_name_H-M	'P 1'
_symmetry_Int_Tables_number		1

loop_
	_symmetry_equiv_pos_as_xyz
	x,y,z

loop_
	_atom_site_label
	_atom_site_type_symbol
	_atom_site_fract_x
	_atom_site_fract_y
	_atom_site_fract_z
	H0	H	0.392878	0.833407	0.722504
	H1	H	0.604152	0.144938	0.719619
	H2	H	0.604512	0.832497	0.281547
	H3	H	0.391859	0.142280	0.274064
	H4	H	0.724741	0.383954	0.847532
	H5	H	0.726086	0.597631	0.154659
	H6	H	0.281692	0.592445	0.844602
	H7	H	0.279496	0.381757	0.154247
	H8	H	0.846375	0.711084	0.394432
	H9	H	0.155590	0.714257	0.608606
	H10	H	0.847067	0.266826	0.608087
	H11	H	0.158307	0.270294	0.400022
	H12	H	0.847614	0.381098	0.725870
	H13	H	0.155277	0.599378	0.725989
	H14	H	0.847745	0.597325	0.276962
	H15	H	0.159238	0.385872	0.282489
	H16	H	0.398918	0.708849	0.844471
	H17	H	0.607479	0.711472	0.155299
	H18	H	0.608049	0.268090	0.846382
	H19	H	0.395013	0.264929	0.153732
	H20	H	0.721963	0.833604	0.395328
	H21	H	0.717788	0.146060	0.601223
	H22	H	0.278066	0.833839	0.605867
	H23	H	0.278133	0.143944	0.392549
	H24	H	0.894084	0.333953	0.224793
	H25	H	0.109240	0.643404	0.222543
	H26	H	0.107656	0.334725	0.778202
	H27	H	0.893747	0.643788	0.777222
	H28	H	0.226052	0.881608	0.348714
	H29	H	0.227902	0.098471	0.652546
	H30	H	0.777327	0.098302	0.347310
	H31	H	0.777911	0.882425	0.653969
	H32	H	0.347418	0.212055	0.894114
	H33	H	0.655279	0.213620	0.109418
	H34	H	0.344825	0.769447	0.102616
	H35	H	0.658400	0.770408	0.898072
	H36	H	0.346462	0.882452	0.222137
	H37	H	0.655613	0.096164	0.224331
	H38	H	0.346947	0.096095	0.777156
	H39	H	0.657057	0.883983	0.779432
	H40	H	0.893809	0.215408	0.348537
	H41	H	0.111199	0.214500	0.653365
	H42	H	0.111041	0.765427	0.348626
	H43	H	0.894724	0.765821	0.654172
	H44	H	0.223533	0.334090	0.893747
	H45	H	0.223179	0.643671	0.104199
	H46	H	0.779507	0.334419	0.108711
	H47	H	0.779551	0.644631	0.894234
	H48	H	0.407703	0.102324	0.587955
	H49	H	0.594143	0.875787	0.586183
	H50	H	0.587499	0.102398	0.402160
	H51	H	0.416778	0.879453	0.411317
	H52	H	0.593183	0.396771	0.114738
	H53	H	0.595627	0.583623	0.887322
	H54	H	0.412130	0.581898	0.113052
	H55	H	0.413576	0.401846	0.889679
	H56	H	0.111939	0.574289	0.413677
	H57	H	0.889918	0.576932	0.592834
	H58	H	0.111745	0.403162	0.587963
	H59	H	0.889193	0.399518	0.412015
	H60	H	0.112221	0.404641	0.589918
	H61	H	0.891223	0.578882	0.584493
	H62	H	0.114355	0.577939	0.407492
	H63	H	0.891313	0.403256	0.414375
	H64	H	0.408044	0.576021	0.112733
	H65	H	0.594206	0.573709	0.891130
	H66	H	0.592112	0.406593	0.110177
	H67	H	0.413324	0.398436	0.888996
	H68	H	0.582001	0.097066	0.415696
	H69	H	0.591399	0.873623	0.595991
	H70	H	0.418723	0.100149	0.594130
	H71	H	0.413105	0.879432	0.417178
	H72	H	0.918724	0.598242	0.086961
	H73	H	0.095226	0.374130	0.092076
	H74	H	0.093516	0.602780	0.908924
	H75	H	0.916028	0.379198	0.913697
	H76	H	0.086296	0.903655	0.609972
	H77	H	0.089155	0.074535	0.391944
	H78	H	0.914479	0.077798	0.610569
	H79	H	0.915534	0.901937	0.390712
	H80	H	0.614865	0.076750	0.906230
	H81	H	0.390857	0.075878	0.086713
	H82	H	0.615325	0.900221	0.095625
	H83	H	0.389036	0.900253	0.909114
	H84	H	0.614085	0.895497	0.088164
	H85	H	0.392655	0.074264	0.085335
	H86	H	0.613029	0.081238	0.914385
	H87	H	0.388653	0.897786	0.910350
	H88	H	0.909792	0.080199	0.613177
	H89	H	0.084570	0.079046	0.391603
	H90	H	0.087692	0.901788	0.611999
	H91	H	0.911489	0.898397	0.387637
	H92	H	0.084459	0.599606	0.911841
	H93	H	0.086821	0.375882	0.094789
	H94	H	0.912551	0.600566	0.087320
	H95	H	0.914114	0.379183	0.915813
	H96	H	0.417097	0.096414	0.582290
	H97	H	0.584502	0.877556	0.589781
	H98	H	0.596425	0.102637	0.415124
	H99	H	0.410443	0.876576	0.411623
	H100	H	0.584175	0.399528	0.109120
	H101	H	0.586426	0.580562	0.891317
	H102	H	0.414427	0.576145	0.110167
	H103	H	0.410751	0.400196	0.888064
	H104	H	0.113705	0.581638	0.413613
	H105	H	0.893562	0.571489	0.587936
	H106	H	0.112420	0.402213	0.590289
	H107	H	0.890943	0.403661	0.409854
	H108	H	0.916006	0.600887	0.092829
	H109	H	0.089227	0.378604	0.086074
	H110	H	0.092704	0.599287	0.918056
	H111	H	0.913125	0.377854	0.913351
	H112	H	0.088791	0.904368	0.610777
	H113	H	0.090630	0.080463	0.388561
	H114	H	0.909856	0.074849	0.611327
	H115	H	0.909484	0.903648	0.389804
	H116	H	0.610195	0.071831	0.912988
	H117	H	0.391620	0.073639	0.087897
	H118	H	0.611014	0.904253	0.088777
	H119	H	0.389810	0.899551	0.911869
	C120	C	0.380245	-0.002635	0.621307
	C121	C	0.621340	0.979770	0.621409
	C122	C	0.621409	-0.002379	0.379102
	C123	C	0.379667	0.980572	0.379118
	C124	C	0.622774	0.368239	0.009437
	C125	C	0.624291	0.611594	0.992379
	C126	C	0.380785	0.609421	0.008685
	C127	C	0.379642	0.366837	0.990972
	C128	C	0.010621	0.611212	0.378663
	C129	C	0.993183	0.610285	0.621980
	C130	C	0.010151	0.368883	0.622850
	C131	C	0.993708	0.369864	0.380751
	C132	C	0.881909	0.497534	0.122251
	C133	C	0.123649	0.479400	0.122488
	C134	C	0.122620	0.498004	0.879845
	C135	C	0.880861	0.481134	0.880726
	C136	C	0.121723	0.869311	0.509534
	C137	C	0.122708	0.111480	0.491949
	C138	C	0.878947	0.111429	0.509726
	C139	C	0.879349	0.868109	0.491512
	C140	C	0.510060	0.109758	0.878806
	C141	C	0.493085	0.109474	0.121200
	C142	C	0.510222	0.867116	0.121934
	C143	C	0.492576	0.867612	0.878850
	C144	C	0.375890	0.880226	0.682024
	C145	C	0.622308	0.098098	0.679599
	C146	C	0.623351	0.879825	0.320448
	C147	C	0.375131	0.096375	0.316162
	C148	C	0.683820	0.365982	0.893644
	C149	C	0.685106	0.614901	0.108422
	C150	C	0.321752	0.611069	0.891189
	C151	C	0.319242	0.363597	0.107537
	C152	C	0.893551	0.671461	0.376105
	C153	C	0.109227	0.673055	0.625970
	C154	C	0.893783	0.306973	0.626361
	C155	C	0.111713	0.310160	0.380401
	C156	C	0.893899	0.363871	0.684783
	C157	C	0.109091	0.616063	0.684535
	C158	C	0.894131	0.614608	0.317751
	C159	C	0.111832	0.367237	0.321922
	C160	C	0.379884	0.668806	0.891026
	C161	C	0.625980	0.671422	0.108832
	C162	C	0.625647	0.308396	0.892951
	C163	C	0.376967	0.305854	0.107510
	C164	C	0.681501	0.880336	0.377388
	C165	C	0.678942	0.098674	0.621031
	C166	C	0.318653	0.880503	0.624231
	C167	C	0.318351	0.097280	0.374846
	C168	C	0.877223	0.380824	0.183944
	C169	C	0.126939	0.596772	0.181863
	C170	C	0.125648	0.381122	0.818794
	C171	C	0.876788	0.597619	0.818906
	C172	C	0.184982	0.864347	0.394675
	C173	C	0.186061	0.116034	0.606950
	C174	C	0.818007	0.115905	0.393728
	C175	C	0.818404	0.864445	0.607896
	C176	C	0.393619	0.171183	0.875945
	C177	C	0.608992	0.172223	0.126325
	C178	C	0.392134	0.808201	0.122341
	C179	C	0.610845	0.809232	0.878316
	C180	C	0.392762	0.864641	0.181236
	C181	C	0.609284	0.113788	0.183413
	C182	C	0.393403	0.113714	0.817946
	C183	C	0.610281	0.866006	0.819609
	C184	C	0.875829	0.174027	0.394343
	C185	C	0.127987	0.173494	0.607263
	C186	C	0.127346	0.806707	0.394516
	C187	C	0.876307	0.806583	0.607765
	C188	C	0.183016	0.380856	0.876433
	C189	C	0.183744	0.596871	0.123462
	C190	C	0.819831	0.380941	0.126307
	C191	C	0.819629	0.597835	0.876792
	C192	C	0.406789	0.078403	0.595392
	C193	C	0.597109	0.897117	0.597580
	C194	C	0.596046	0.079554	0.403947
	C195	C	0.406029	0.899520	0.405770
	C196	C	0.597149	0.393630	0.090387
	C197	C	0.599262	0.586564	0.911060
	C198	C	0.404823	0.585010	0.090411
	C199	C	0.405156	0.392793	0.910081
	C200	C	0.092050	0.585470	0.404398
	C201	C	0.912596	0.583318	0.595664
	C202	C	0.090981	0.395772	0.596782
	C203	C	0.911705	0.394937	0.405049
	C204	C	0.908140	0.578913	0.096248
	C205	C	0.097712	0.397362	0.097964
	C206	C	0.097358	0.579429	0.905625
	C207	C	0.906849	0.400054	0.906679
	C208	C	0.094984	0.895792	0.589963
	C209	C	0.095815	0.085318	0.411609
	C210	C	0.904300	0.085059	0.590545
	C211	C	0.904863	0.893920	0.410481
	C212	C	0.591428	0.083815	0.904050
	C213	C	0.412564	0.082291	0.094217
	C214	C	0.592255	0.892690	0.097727
	C215	C	0.410589	0.892014	0.903354
	Zn216	Zn	0.500801	-0.011584	0.750073
	Zn217	Zn	0.500654	-0.011342	0.250074
	Zn218	Zn	0.752544	0.489440	0.002018
	Zn219	Zn	0.250951	0.488636	0.000257
	Zn220	Zn	0.001458	0.739395	0.500332
	Zn221	Zn	0.001486	0.240069	0.501500
	Zn222	Zn	0.001408	0.489511	0.751734
	Zn223	Zn	0.002446	0.489032	0.250940
	Zn224	Zn	0.501525	0.739018	0.000869
	Zn225	Zn	0.501805	0.238353	0.000360
	Zn226	Zn	0.750285	-0.010560	0.500120
	Zn227	Zn	0.251209	-0.009955	0.500619
	N228	N	0.413287	0.954066	0.680689
	N229	N	0.587521	0.023038	0.680045
	N230	N	0.586937	0.953940	0.321237
	N231	N	0.412431	0.022785	0.318651
	N232	N	0.682275	0.402539	0.967055
	N233	N	0.684261	0.578387	0.034841
	N234	N	0.322007	0.575016	0.965327
	N235	N	0.320430	0.400682	0.033960
	N236	N	0.967288	0.669609	0.413134
	N237	N	0.036232	0.669577	0.587613
	N238	N	0.967060	0.309725	0.588717
	N239	N	0.037010	0.311068	0.415937
	N240	N	0.967483	0.401443	0.682990
	N241	N	0.035800	0.577606	0.682313
	N242	N	0.968189	0.577946	0.318950
	N243	N	0.037508	0.403396	0.322003
	N244	N	0.415856	0.668136	0.965053
	N245	N	0.588977	0.669508	0.035601
	N246	N	0.588681	0.309285	0.966303
	N247	N	0.413618	0.307493	0.033872
	N248	N	0.680638	0.954812	0.413272
	N249	N	0.678771	0.023846	0.585601
	N250	N	0.321195	0.954400	0.587024
	N251	N	0.320887	0.024124	0.413367
	N252	N	0.915049	0.454480	0.181673
	N253	N	0.090326	0.522540	0.181438
	N254	N	0.088651	0.454979	0.820746
	N255	N	0.914150	0.524001	0.821189
	N256	N	0.181874	0.902499	0.467384
	N257	N	0.182911	0.078127	0.534189
	N258	N	0.819976	0.077540	0.466455
	N259	N	0.819897	0.901790	0.534439
	N260	N	0.467175	0.168796	0.913283
	N261	N	0.535755	0.169762	0.088438
	N262	N	0.466295	0.809628	0.086205
	N263	N	0.536558	0.809735	0.914446
	N264	N	0.467323	0.900286	0.181369
	N265	N	0.536047	0.075390	0.180451
	N266	N	0.466938	0.076395	0.819307
	N267	N	0.535565	0.901219	0.819572
	N268	N	0.912975	0.171614	0.467638
	N269	N	0.089103	0.170688	0.534846
	N270	N	0.088778	0.809527	0.467006
	N271	N	0.913302	0.808544	0.534356
	N272	N	0.181235	0.454431	0.913687
	N273	N	0.181860	0.522722	0.087294
	N274	N	0.822170	0.454806	0.088960
	N275	N	0.821996	0.524416	0.914778
	O276	O	-0.221473	1.027639	-0.225748
	H277	H	-0.246314	1.023286	-0.249206
	H278	H	-0.222257	1.040128	-0.212143
	O279	O	0.368094	0.346210	0.511704
	H280	H	0.367347	0.348905	0.503061
	H281	H	0.369063	0.346943	0.512348
	O282	O	0.856009	0.055947	1.068583
	H283	H	0.844448	0.050152	1.067276
	H284	H	0.856150	0.070442	1.068461
	O285	O	0.452184	0.559302	0.713753
	H286	H	0.455670	0.569694	0.713885
	H287	H	0.431786	0.555428	0.715743
	O288	O	0.705271	0.692128	0.708141
	H289	H	0.724910	0.718580	0.729217
	H290	H	0.712515	0.696000	0.665218
	O291	O	0.429439	0.335552	0.462935
	H292	H	0.435663	0.338301	0.468978
	H293	H	0.436165	0.331728	0.465050
	O294	O	0.777000	-0.055999	0.924924
	H295	H	0.772427	-0.050734	0.945443
	H296	H	0.791664	-0.054381	0.919336
	O297	O	0.668157	0.649338	0.312042
	H298	H	0.661959	0.657801	0.304669
	H299	H	0.670145	0.628065	0.338068
	O300	O	0.059302	0.098047	1.083539
	H301	H	0.052574	0.100503	1.090023
	H302	H	0.053443	0.109676	1.096577
	O303	O	0.623171	0.394240	0.494914
	H304	H	0.623365	0.395192	0.515636
	H305	H	0.626301	0.397364	0.496357
	O306	O	0.715563	0.460939	0.279503
	H307	H	0.711676	0.446800	0.280554
	H308	H	0.737877	0.452586	0.269785
	O309	O	0.475079	0.704894	0.613567
	H310	H	0.488184	0.701665	0.619735
	H311	H	0.494330	0.712560	0.625853
	O312	O	0.500298	0.317681	0.559565
	H313	H	0.507842	0.321332	0.557732
	H314	H	0.487411	0.318385	0.569795
	O315	O	1.016604	1.141231	1.189243
	H316	H	1.022886	1.156533	1.209721
	H317	H	1.032994	1.152157	1.195953
	O318	O	0.795869	0.789451	0.207464
	H319	H	0.780598	0.795173	0.216157
	H320	H	0.792259	0.803702	0.178315
	O321	O	0.057633	1.106429	0.970375
	H322	H	0.051723	1.120039	0.976681
	H323	H	0.044695	1.100910	0.990243
	O324	O	1.014093	0.814474	0.069087
	H325	H	1.016964	0.806960	0.056278
	H326	H	1.007948	0.822658	0.069959
	O327	O	-0.165852	-0.208839	1.042062
	H328	H	-0.166970	-0.227363	1.034002
	H329	H	-0.162050	-0.209155	1.043701
	O330	O	0.562381	0.344904	0.505700
	H331	H	0.557845	0.349091	0.508766
	H332	H	0.567127	0.349910	0.495659
	O333	O	0.530969	0.405114	0.635659
	H334	H	0.520882	0.394872	0.628709
	H335	H	0.528037	0.388316	0.648478
	O336	O	0.724914	0.519086	0.718928
	H337	H	0.729683	0.548397	0.733986
	H338	H	0.728828	0.530190	0.739461
	O339	O	1.184155	-0.188854	0.822870
	H340	H	1.197282	-0.188213	0.822230
	H341	H	1.189798	-0.202891	0.808454
	O342	O	-0.060815	-0.061994	-0.238197
	H343	H	-0.065218	-0.062219	-0.230685
	H344	H	-0.071598	-0.069080	-0.241893
	O345	O	0.026920	1.127661	0.956536
	H346	H	0.009825	1.130089	0.954650
	H347	H	0.035507	1.119221	0.970849
	O348	O	0.208703	0.202757	0.218413
	H349	H	0.238270	0.222686	0.232151
	H350	H	0.211658	0.212493	0.193140
	O351	O	1.056937	1.054261	-0.238599
	H352	H	1.061906	1.064092	-0.235344
	H353	H	1.033955	1.035214	-0.239503
	O354	O	-0.043332	0.093401	1.236707
	H355	H	-0.033814	0.086475	1.238494
	H356	H	-0.024311	0.090135	1.246480
	O357	O	0.718273	0.701960	0.518158
	H358	H	0.702037	0.696588	0.507787
	H359	H	0.735949	0.720863	0.510570
	O360	O	0.390637	0.618077	0.678813
	H361	H	0.405309	0.613344	0.665726
	H362	H	0.398116	0.603044	0.670500
	O363	O	-0.023691	0.205897	-0.220482
	H364	H	-0.029825	0.226603	-0.230362
	H365	H	-0.021307	0.200782	-0.217305
	O366	O	0.296193	0.695204	0.291111
	H367	H	0.288485	0.697459	0.341491
	H368	H	0.261307	0.729749	0.263445
	O369	O	0.960469	0.144675	0.058948
	H370	H	0.960017	0.155201	0.085812
	H371	H	0.940951	0.148896	0.050888
	O372	O	0.813927	1.174693	0.191072
	H373	H	0.805615	1.177440	0.198139
	H374	H	0.825068	1.160267	0.185040
	O375	O	0.782109	-0.041935	0.223774
	H376	H	0.794949	-0.037318	0.227469
	H377	H	0.755353	-0.034211	0.237586
	O378	O	0.691993	0.495275	0.415856
	H379	H	0.688368	0.489138	0.416566
	H380	H	0.695338	0.498019	0.409197
	O381	O	0.024144	0.963101	1.023894
	H382	H	0.016251	0.969159	1.014762
	H383	H	0.018747	0.970570	1.029663
	O384	O	1.231188	0.041854	0.948485
	H385	H	1.232197	0.052766	0.934565
	H386	H	1.228809	0.025918	0.948874
	O387	O	1.213081	0.923829	-0.214622
	H388	H	1.210649	0.915791	-0.211010
	H389	H	1.219020	0.922774	-0.220131
	O390	O	0.276413	0.565379	0.558590
	H391	H	0.273563	0.566070	0.566851
	H392	H	0.272827	0.546944	0.558685
	O393	O	0.352759	0.332608	0.369534
	H394	H	0.363530	0.358111	0.381061
	H395	H	0.372118	0.339192	0.377485
	O396	O	0.194837	0.181426	0.806915
	H397	H	0.179458	0.163870	0.831623
	H398	H	0.171445	0.161097	0.815190
	O399	O	0.169335	-0.142475	1.065850
	H400	H	0.155642	-0.126555	1.059145
	H401	H	0.163310	-0.139799	1.065209
	O402	O	0.712254	0.279220	0.290627
	H403	H	0.714464	0.284882	0.281522
	H404	H	0.684406	0.274898	0.312794
	O405	O	0.785338	0.196996	0.786306
	H406	H	0.810301	0.175277	0.778635
	H407	H	0.754860	0.228767	0.751903
	O408	O	-0.228150	0.209823	-0.026304
	H409	H	-0.230565	0.217042	-0.056070
	H410	H	-0.245182	0.230379	-0.044753
	O411	O	0.928078	1.018556	0.926244
	H412	H	0.921948	1.037500	0.939398
	H413	H	0.935732	1.014502	0.916452
	O414	O	0.548508	0.706413	0.654517
	H415	H	0.557251	0.722652	0.653036
	H416	H	0.561285	0.693697	0.657445
	O417	O	0.567904	0.502852	0.349666
	H418	H	0.569403	0.522781	0.349615
	H419	H	0.586880	0.507907	0.344950
	O420	O	0.479317	0.493920	0.429238
	H421	H	0.480716	0.496277	0.432402
	H422	H	0.473248	0.506623	0.418018
	O423	O	0.015913	-0.225958	0.784551
	H424	H	0.039239	-0.235989	0.777679
	H425	H	0.029990	-0.224441	0.779596
	O426	O	0.714988	0.277559	0.477887
	H427	H	0.737235	0.277381	0.477957
	H428	H	0.723623	0.286685	0.476554
	O429	O	1.219707	0.767563	0.966356
	H430	H	1.219459	0.778625	0.965400
	H431	H	1.237235	0.745776	0.972731
	O432	O	0.576582	0.508359	0.478035
	H433	H	0.577599	0.523371	0.476510
	H434	H	0.564021	0.514238	0.481067
	O435	O	0.219470	1.207616	0.032762
	H436	H	0.200632	1.205558	0.022544
	H437	H	0.237999	1.227371	0.028706
	O438	O	0.139935	-0.090143	-0.058418
	H439	H	0.144017	-0.099820	-0.057488
	H440	H	0.138571	-0.082236	-0.040995
	O441	O	-0.054389	-0.201880	0.010921
	H442	H	-0.078002	-0.209387	0.024793
	H443	H	-0.042905	-0.183857	0.020247
	O444	O	0.433169	0.382119	0.297105
	H445	H	0.440364	0.407277	0.297177
	H446	H	0.438917	0.402351	0.301156
	O447	O	-0.480190	1.269080	1.303416
	H448	H	-0.484920	1.289917	1.309832
	H449	H	-0.483948	1.250920	1.279718
	O450	O	-0.188641	0.801944	0.806749
	H451	H	-0.166714	0.823110	0.817585
	H452	H	-0.175498	0.806207	0.831367
	O453	O	0.291423	0.371410	0.716461
	H454	H	0.257054	0.349121	0.745865
	H455	H	0.300012	0.347677	0.688691
	O456	O	0.388829	0.280556	0.714690
	H457	H	0.398740	0.267134	0.713413
	H458	H	0.357761	0.263425	0.725331
	O459	O	0.891434	1.091163	0.016327
	H460	H	0.888626	1.104046	0.015310
	H461	H	0.886869	1.081480	0.008470
	O462	O	0.451722	0.551676	0.468143
	H463	H	0.447256	0.557695	0.457616
	H464	H	0.443633	0.557389	0.467396
	O465	O	0.473468	-0.289816	0.275918
	H466	H	0.446670	-0.275600	0.268161
	H467	H	0.447729	-0.278481	0.264453
	O468	O	0.290563	0.699059	0.460722
	H469	H	0.306632	0.701475	0.487424
	H470	H	0.276090	0.710308	0.474192
	O471	O	0.285422	0.516645	0.281110
	H472	H	0.274579	0.535725	0.268740
	H473	H	0.276443	0.538592	0.271510
	O474	O	-0.020034	0.770569	0.228041
	H475	H	-0.041394	0.746354	0.250723
	H476	H	-0.048658	0.773856	0.224144
	O477	O	0.319178	0.482683	1.427587
	H478	H	0.314327	0.495542	1.420659
	H479	H	0.314791	0.477244	1.435507
	O480	O	0.375436	0.498943	0.654496
	H481	H	0.372911	0.474035	0.659453
	H482	H	0.368469	0.487403	0.664528
	O483	O	0.505400	0.704050	0.483337
	H484	H	0.509884	0.703908	0.470231
	H485	H	0.504889	0.703640	0.497886
	O486	O	0.687790	0.299409	0.687464
	H487	H	0.667135	0.315597	0.671872
	H488	H	0.672663	0.323951	0.673287
	O489	O	1.192823	0.797870	0.197395
	H490	H	1.161989	0.811545	0.191553
	H491	H	1.185149	0.820904	0.168871
	O492	O	0.020625	-0.020534	0.179348
	H493	H	0.017425	-0.031602	0.184705
	H494	H	0.025017	-0.018333	0.174306
	O495	O	0.207092	1.022494	1.213719
	H496	H	0.208826	1.028156	1.220758
	H497	H	0.218495	1.055050	1.224351
	O498	O	0.980664	0.849367	0.994847
	H499	H	0.990999	0.842987	0.984391
	H500	H	0.987279	0.858825	0.999130
	O501	O	0.551667	0.442653	0.725293
	H502	H	0.545735	0.442666	0.727801
	H503	H	0.537556	0.450940	0.732638
