data_Molecule from HDF5

_cell_length_a		16.210746
_cell_length_b		16.144899
_cell_length_c		16.296350
_cell_angle_alpha	90.140563
_cell_angle_beta	90.110908
_cell_angle_gamma	90.308796
_symmetry_space_group_name_H-M	'P 1'
_symmetry_Int_Tables_number		1

loop_
	_symmetry_equiv_pos_as_xyz
	x,y,z

loop_
	_atom_site_label
	_atom_site_type_symbol
	_atom_site_fract_x
	_atom_site_fract_y
	_atom_site_fract_z
	H0	H	0.396427	0.837741	0.712023
	H1	H	0.599667	0.166658	0.713956
	H2	H	0.597972	0.839092	0.281251
	H3	H	0.399343	0.167298	0.284130
	H4	H	0.708110	0.403694	0.833046
	H5	H	0.712322	0.602965	0.159925
	H6	H	0.280819	0.601242	0.834856
	H7	H	0.279518	0.402467	0.160761
	H8	H	0.831478	0.714390	0.400302
	H9	H	0.161001	0.716438	0.596185
	H10	H	0.832795	0.288162	0.595084
	H11	H	0.161641	0.291074	0.400058
	H12	H	0.832746	0.401295	0.711662
	H13	H	0.159267	0.605392	0.714921
	H14	H	0.832238	0.600575	0.283285
	H15	H	0.159490	0.402921	0.281432
	H16	H	0.398106	0.715297	0.834076
	H17	H	0.595970	0.717371	0.160426
	H18	H	0.591254	0.289317	0.833254
	H19	H	0.397235	0.289201	0.161482
	H20	H	0.709138	0.837773	0.399501
	H21	H	0.712271	0.167780	0.596491
	H22	H	0.283459	0.837499	0.595540
	H23	H	0.284249	0.167885	0.400014
	H24	H	0.894176	0.338043	0.211603
	H25	H	0.097486	0.666826	0.212721
	H26	H	0.094157	0.339545	0.782311
	H27	H	0.896863	0.666165	0.783107
	H28	H	0.210967	0.902551	0.334487
	H29	H	0.213956	0.102566	0.661314
	H30	H	0.782158	0.101411	0.334150
	H31	H	0.780419	0.902143	0.660606
	H32	H	0.330436	0.212740	0.900569
	H33	H	0.660673	0.217770	0.095240
	H34	H	0.332242	0.787807	0.095596
	H35	H	0.660762	0.789265	0.899885
	H36	H	0.333487	0.900614	0.212733
	H37	H	0.660955	0.104826	0.212874
	H38	H	0.333889	0.101249	0.781117
	H39	H	0.660921	0.904260	0.783461
	H40	H	0.899741	0.215652	0.333889
	H41	H	0.097053	0.219294	0.661488
	H42	H	0.095128	0.787987	0.334676
	H43	H	0.898197	0.787497	0.661314
	H44	H	0.206076	0.337489	0.899871
	H45	H	0.211874	0.666447	0.097518
	H46	H	0.781914	0.337416	0.094299
	H47	H	0.783550	0.666917	0.898866
	H48	H	0.415308	0.117578	0.591851
	H49	H	0.587436	0.887730	0.582750
	H50	H	0.579068	0.119235	0.399265
	H51	H	0.402155	0.883249	0.399471
	H52	H	0.583014	0.415210	0.111012
	H53	H	0.588339	0.595880	0.880534
	H54	H	0.396005	0.582220	0.113516
	H55	H	0.397732	0.414399	0.881082
	H56	H	0.115498	0.593770	0.397914
	H57	H	0.875961	0.609819	0.583808
	H58	H	0.111267	0.413204	0.583736
	H59	H	0.875823	0.398424	0.403219
	H60	H	0.113907	0.416763	0.596889
	H61	H	0.886000	0.581854	0.580571
	H62	H	0.115215	0.600733	0.407943
	H63	H	0.882306	0.412591	0.412987
	H64	H	0.416918	0.595743	0.110909
	H65	H	0.590758	0.596837	0.878968
	H66	H	0.588054	0.403437	0.115982
	H67	H	0.407309	0.408204	0.882406
	H68	H	0.590664	0.117310	0.416693
	H69	H	0.596279	0.881745	0.593189
	H70	H	0.402926	0.118945	0.582047
	H71	H	0.410738	0.886773	0.405053
	H72	H	0.899890	0.619890	0.087206
	H73	H	0.089009	0.382625	0.094187
	H74	H	0.096303	0.623092	0.906921
	H75	H	0.896996	0.382291	0.903415
	H76	H	0.098227	0.912190	0.616764
	H77	H	0.088024	0.094733	0.382109
	H78	H	0.909870	0.095323	0.612255
	H79	H	0.905536	0.915437	0.383621
	H80	H	0.613863	0.090143	0.900119
	H81	H	0.380248	0.090615	0.092564
	H82	H	0.608348	0.922404	0.081824
	H83	H	0.378230	0.905215	0.902864
	H84	H	0.617061	0.913785	0.104395
	H85	H	0.377579	0.096337	0.095627
	H86	H	0.616988	0.104686	0.902875
	H87	H	0.380649	0.910838	0.908285
	H88	H	0.902037	0.099674	0.616284
	H89	H	0.090858	0.098819	0.380538
	H90	H	0.084960	0.914463	0.611590
	H91	H	0.908258	0.902966	0.380889
	H92	H	0.086084	0.622767	0.897998
	H93	H	0.082651	0.386585	0.090106
	H94	H	0.902250	0.622626	0.096916
	H95	H	0.904272	0.382641	0.898589
	H96	H	0.401412	0.123382	0.597830
	H97	H	0.582604	0.884905	0.595043
	H98	H	0.599628	0.125790	0.398623
	H99	H	0.400944	0.885057	0.409722
	H100	H	0.595343	0.414591	0.114642
	H101	H	0.590542	0.594293	0.880680
	H102	H	0.396276	0.606345	0.120303
	H103	H	0.397422	0.402877	0.877814
	H104	H	0.110523	0.589416	0.408395
	H105	H	0.875840	0.591221	0.606405
	H106	H	0.116935	0.404232	0.592294
	H107	H	0.878009	0.415005	0.395721
	H108	H	0.909556	0.618774	0.089709
	H109	H	0.089429	0.384953	0.086290
	H110	H	0.083781	0.617876	0.911059
	H111	H	0.904887	0.385867	0.907896
	H112	H	0.089331	0.901661	0.617137
	H113	H	0.092884	0.094486	0.381129
	H114	H	0.901473	0.089847	0.613742
	H115	H	0.896322	0.908177	0.378950
	H116	H	0.611195	0.095251	0.914037
	H117	H	0.379196	0.097183	0.088717
	H118	H	0.615928	0.898187	0.084002
	H119	H	0.379107	0.913623	0.899670
	C120	C	0.376921	0.011083	0.619037
	C121	C	0.618911	0.993873	0.619374
	C122	C	0.618453	0.011789	0.376045
	C123	C	0.375757	0.994012	0.376168
	C124	C	0.616424	0.381744	0.005557
	C125	C	0.618705	0.624810	0.988222
	C126	C	0.374510	0.623394	0.006649
	C127	C	0.372483	0.380126	0.988832
	C128	C	0.005105	0.623521	0.376052
	C129	C	0.987532	0.624297	0.619433
	C130	C	0.005567	0.381835	0.619046
	C131	C	0.987751	0.380734	0.375469
	C132	C	0.874552	0.511188	0.118898
	C133	C	0.117055	0.493584	0.119035
	C134	C	0.116424	0.512355	0.876704
	C135	C	0.874284	0.492900	0.875482
	C136	C	0.118616	0.880893	0.506630
	C137	C	0.119828	0.125123	0.489357
	C138	C	0.875562	0.123715	0.506198
	C139	C	0.874361	0.880258	0.489133
	C140	C	0.505272	0.124248	0.876488
	C141	C	0.487839	0.124731	0.120034
	C142	C	0.505481	0.881367	0.119072
	C143	C	0.487949	0.881505	0.875707
	C144	C	0.377594	0.887028	0.674067
	C145	C	0.618396	0.117875	0.675161
	C146	C	0.617209	0.887979	0.319914
	C147	C	0.378587	0.118017	0.321518
	C148	C	0.670911	0.383083	0.882212
	C149	C	0.673969	0.622453	0.111401
	C150	C	0.318929	0.621449	0.883524
	C151	C	0.317643	0.382603	0.111868
	C152	C	0.881009	0.677663	0.379453
	C153	C	0.111566	0.679227	0.617043
	C154	C	0.881817	0.325848	0.616007
	C155	C	0.112001	0.327745	0.379236
	C156	C	0.881811	0.382381	0.673770
	C157	C	0.110624	0.623957	0.676071
	C158	C	0.881259	0.621051	0.321267
	C159	C	0.110958	0.383574	0.320284
	C160	C	0.377297	0.677904	0.883228
	C161	C	0.615951	0.679440	0.111774
	C162	C	0.612540	0.326661	0.882253
	C163	C	0.376330	0.326111	0.112324
	C164	C	0.672775	0.887358	0.378582
	C165	C	0.674628	0.118158	0.617039
	C166	C	0.321005	0.886879	0.616388
	C167	C	0.321243	0.118177	0.379036
	C168	C	0.875219	0.387300	0.173679
	C169	C	0.116549	0.617365	0.174947
	C170	C	0.114176	0.388063	0.820804
	C171	C	0.876741	0.617072	0.820825
	C172	C	0.173043	0.882925	0.383302
	C173	C	0.175387	0.123128	0.612674
	C174	C	0.820246	0.121530	0.383008
	C175	C	0.818797	0.882341	0.612035
	C176	C	0.380311	0.176920	0.879051
	C177	C	0.611393	0.180992	0.116795
	C178	C	0.381547	0.825398	0.116417
	C179	C	0.611644	0.826975	0.879025
	C180	C	0.382342	0.881456	0.174816
	C181	C	0.611609	0.124431	0.175053
	C182	C	0.382184	0.121912	0.819527
	C183	C	0.611544	0.883766	0.820968
	C184	C	0.878422	0.178481	0.382814
	C185	C	0.117760	0.181247	0.612475
	C186	C	0.115411	0.825816	0.383332
	C187	C	0.877442	0.825413	0.612445
	C188	C	0.169752	0.387365	0.879189
	C189	C	0.173192	0.617543	0.117409
	C190	C	0.818487	0.387220	0.116043
	C191	C	0.820706	0.617456	0.878681
	C192	C	0.399660	0.097679	0.596952
	C193	C	0.595555	0.907349	0.596985
	C194	C	0.596405	0.098365	0.398466
	C195	C	0.397998	0.907388	0.398280
	C196	C	0.595018	0.404406	0.091750
	C197	C	0.596496	0.602310	0.902296
	C198	C	0.396537	0.601384	0.092631
	C199	C	0.394193	0.402120	0.902436
	C200	C	0.091529	0.601386	0.398314
	C201	C	0.901446	0.601206	0.596889
	C202	C	0.091722	0.404680	0.597478
	C203	C	0.901017	0.402235	0.397505
	C204	C	0.897333	0.598029	0.097507
	C205	C	0.093891	0.407120	0.096742
	C206	C	0.095112	0.598876	0.898810
	C207	C	0.895613	0.406175	0.896893
	C208	C	0.097223	0.902980	0.592849
	C209	C	0.097301	0.102596	0.403582
	C210	C	0.897862	0.101524	0.591900
	C211	C	0.896754	0.902307	0.403427
	C212	C	0.591666	0.102978	0.899117
	C213	C	0.401350	0.101535	0.098653
	C214	C	0.591499	0.904619	0.096567
	C215	C	0.401548	0.903259	0.897317
	Zn216	Zn	0.497604	0.003056	0.747291
	Zn217	Zn	0.497272	0.002528	0.247759
	Zn218	Zn	0.746754	0.502369	-0.003419
	Zn219	Zn	0.244708	0.502510	-0.002542
	Zn220	Zn	-0.003003	0.751791	0.497798
	Zn221	Zn	-0.002829	0.253380	0.497684
	Zn222	Zn	-0.004078	0.503052	0.747873
	Zn223	Zn	-0.003965	0.502341	0.246943
	Zn224	Zn	0.495983	0.752760	-0.002517
	Zn225	Zn	0.494986	0.252391	-0.002290
	Zn226	Zn	0.746062	0.002895	0.497595
	Zn227	Zn	0.247874	0.002489	0.497896
	N228	N	0.411751	0.965222	0.675726
	N229	N	0.584446	0.039692	0.676660
	N230	N	0.584154	0.966415	0.318031
	N231	N	0.411608	0.039672	0.319514
	N232	N	0.673528	0.416644	0.959956
	N233	N	0.675833	0.589211	0.033472
	N234	N	0.317130	0.588217	0.961195
	N235	N	0.315144	0.415361	0.033937
	N236	N	0.959114	0.679293	0.412784
	N237	N	0.034010	0.679643	0.582647
	N238	N	0.959574	0.325400	0.582558
	N239	N	0.034184	0.326168	0.412954
	N240	N	0.959800	0.416535	0.675882
	N241	N	0.032447	0.590200	0.677528
	N242	N	0.959311	0.587977	0.319102
	N243	N	0.032475	0.415471	0.317722
	N244	N	0.411096	0.679318	0.960725
	N245	N	0.582152	0.681107	0.034318
	N246	N	0.579414	0.325627	0.960031
	N247	N	0.409557	0.324456	0.034686
	N248	N	0.673691	0.965331	0.412634
	N249	N	0.674968	0.040068	0.583006
	N250	N	0.320485	0.965029	0.582621
	N251	N	0.319422	0.039893	0.412282
	N252	N	0.909364	0.465467	0.175587
	N253	N	0.081989	0.539242	0.175798
	N254	N	0.081592	0.466448	0.819024
	N255	N	0.909409	0.538669	0.818713
	N256	N	0.175014	0.916631	0.461030
	N257	N	0.176868	0.088989	0.535186
	N258	N	0.818410	0.088218	0.460632
	N259	N	0.816646	0.915336	0.534239
	N260	N	0.457804	0.178601	0.913590
	N261	N	0.533453	0.181255	0.083299
	N262	N	0.459243	0.824956	0.082559
	N263	N	0.533791	0.825306	0.912473
	N264	N	0.460339	0.915580	0.176689
	N265	N	0.533776	0.090112	0.177213
	N266	N	0.460770	0.089846	0.817859
	N267	N	0.533692	0.916993	0.818933
	N268	N	0.912040	0.180183	0.460345
	N269	N	0.083845	0.182305	0.534816
	N270	N	0.082344	0.824461	0.460995
	N271	N	0.911447	0.823984	0.535091
	N272	N	0.171537	0.465640	0.913160
	N273	N	0.173486	0.539767	0.083261
	N274	N	0.818235	0.465252	0.082460
	N275	N	0.818973	0.539308	0.911950
	O276	O	0.551153	0.447300	0.481082
	H277	H	0.559824	0.446236	0.478408
	H278	H	0.553166	0.444068	0.477800
	O279	O	0.490105	0.533040	0.441773
	H280	H	0.498615	0.532751	0.442690
	H281	H	0.482663	0.528482	0.441156
	O282	O	0.488728	0.482960	0.513443
	H283	H	0.483488	0.495601	0.509923
	H284	H	0.476916	0.481228	0.520570
	O285	O	0.039390	1.007902	1.031386
	H286	H	0.040681	1.001395	1.033298
	H287	H	0.033675	1.015345	1.026573
	O288	O	0.554641	0.466045	0.451899
	H289	H	0.563633	0.468411	0.445462
	H290	H	0.561391	0.465067	0.459294
	O291	O	-0.017402	0.030327	1.078590
	H292	H	-0.029563	0.022577	1.069897
	H293	H	-0.011881	0.028167	1.080373
	O294	O	0.399446	0.495515	0.465719
	H295	H	0.396450	0.493558	0.455422
	H296	H	0.418356	0.488045	0.466672
	O297	O	0.604344	0.540887	0.542289
	H298	H	0.602815	0.537073	0.536323
	H299	H	0.611638	0.544777	0.543469
	O300	O	0.461495	0.524478	0.499098
	H301	H	0.467613	0.515397	0.491469
	H302	H	0.458432	0.541609	0.503558
	O303	O	0.476040	0.549092	0.460645
	H304	H	0.482309	0.546622	0.450450
	H305	H	0.468788	0.547593	0.455646
	O306	O	1.024228	-0.041584	0.994203
	H307	H	1.029956	-0.036793	0.988409
	H308	H	1.031355	-0.036678	0.999973
	O309	O	0.484736	0.514239	0.452774
	H310	H	0.490370	0.510243	0.451046
	H311	H	0.490796	0.511072	0.451139
	O312	O	0.477211	0.484708	0.534599
	H313	H	0.469463	0.503246	0.533162
	H314	H	0.482098	0.483777	0.542144
	O315	O	0.979893	0.013768	1.058667
	H316	H	0.986753	0.017494	1.061812
	H317	H	0.978619	0.020882	1.053130
	O318	O	-0.003618	-0.033194	0.030124
	H319	H	-0.003991	-0.033590	0.033735
	H320	H	-0.006823	-0.037728	0.036275
	O321	O	0.454741	0.470851	0.481934
	H322	H	0.448073	0.463845	0.482339
	H323	H	0.453541	0.474374	0.496817
	O324	O	1.018594	0.034281	0.085547
	H325	H	1.028649	0.038646	0.097459
	H326	H	1.023712	0.036880	0.083669
	O327	O	1.038433	0.963866	0.032906
	H328	H	1.030907	0.960670	0.030943
	H329	H	1.039071	0.967226	0.044095
	O330	O	0.550041	0.479606	0.479973
	H331	H	0.559637	0.484948	0.473002
	H332	H	0.545336	0.473486	0.485780
	O333	O	0.523683	0.513104	0.500500
	H334	H	0.520697	0.508534	0.509767
	H335	H	0.525024	0.516512	0.504045
