data_Molecule from HDF5

_cell_length_a		16.288449
_cell_length_b		16.254707
_cell_length_c		16.209731
_cell_angle_alpha	89.924378
_cell_angle_beta	90.048030
_cell_angle_gamma	90.000618
_symmetry_space_group_name_H-M	'P 1'
_symmetry_Int_Tables_number		1

loop_
	_symmetry_equiv_pos_as_xyz
	x,y,z

loop_
	_atom_site_label
	_atom_site_type_symbol
	_atom_site_fract_x
	_atom_site_fract_y
	_atom_site_fract_z
	H0	H	0.399798	0.836463	0.722442
	H1	H	0.595667	0.164156	0.723408
	H2	H	0.594056	0.836413	0.296653
	H3	H	0.400571	0.164831	0.295038
	H4	H	0.711871	0.402761	0.844209
	H5	H	0.712881	0.598823	0.172948
	H6	H	0.285270	0.599042	0.844192
	H7	H	0.284958	0.402329	0.173189
	H8	H	0.833890	0.714047	0.409226
	H9	H	0.161098	0.715047	0.606675
	H10	H	0.834284	0.286090	0.605983
	H11	H	0.162037	0.286155	0.410576
	H12	H	0.834134	0.402273	0.722199
	H13	H	0.162223	0.597140	0.720446
	H14	H	0.834786	0.598104	0.293489
	H15	H	0.162578	0.402791	0.295238
	H16	H	0.401493	0.714075	0.844092
	H17	H	0.596441	0.714233	0.173634
	H18	H	0.596245	0.286483	0.843699
	H19	H	0.401491	0.287140	0.172884
	H20	H	0.711199	0.837042	0.410713
	H21	H	0.711810	0.164570	0.607364
	H22	H	0.282588	0.836829	0.607762
	H23	H	0.283250	0.164451	0.409774
	H24	H	0.902782	0.336768	0.221809
	H25	H	0.096806	0.665016	0.221858
	H26	H	0.095345	0.335851	0.796576
	H27	H	0.900405	0.665037	0.794387
	H28	H	0.212033	0.901915	0.344524
	H29	H	0.212026	0.098533	0.672476
	H30	H	0.783326	0.099359	0.344063
	H31	H	0.783420	0.902216	0.673544
	H32	H	0.334651	0.215439	0.910426
	H33	H	0.662107	0.215430	0.108431
	H34	H	0.334804	0.786272	0.107415
	H35	H	0.661836	0.787166	0.911525
	H36	H	0.333830	0.902964	0.222149
	H37	H	0.661964	0.097582	0.222704
	H38	H	0.334091	0.100278	0.793598
	H39	H	0.661230	0.902527	0.794670
	H40	H	0.900243	0.214053	0.343482
	H41	H	0.094891	0.212843	0.672747
	H42	H	0.095102	0.787054	0.343938
	H43	H	0.899513	0.787189	0.673193
	H44	H	0.212783	0.337192	0.910312
	H45	H	0.213433	0.664948	0.106905
	H46	H	0.784357	0.336966	0.107104
	H47	H	0.783752	0.664717	0.908570
	H48	H	0.403303	0.115725	0.594764
	H49	H	0.583800	0.884936	0.605502
	H50	H	0.588766	0.118280	0.414115
	H51	H	0.403626	0.882637	0.412818
	H52	H	0.591596	0.411079	0.124763
	H53	H	0.585843	0.595399	0.893497
	H54	H	0.400285	0.584898	0.125093
	H55	H	0.406543	0.404606	0.891068
	H56	H	0.116038	0.593199	0.411274
	H57	H	0.878920	0.603548	0.598657
	H58	H	0.114795	0.406506	0.603761
	H59	H	0.884895	0.414934	0.417758
	H60	H	0.115808	0.404965	0.601530
	H61	H	0.884151	0.587067	0.595569
	H62	H	0.115917	0.598334	0.416913
	H63	H	0.879121	0.406561	0.406986
	H64	H	0.415803	0.595132	0.123556
	H65	H	0.594812	0.598856	0.889170
	H66	H	0.589131	0.405477	0.125771
	H67	H	0.401453	0.408938	0.889607
	H68	H	0.592011	0.118102	0.418202
	H69	H	0.593431	0.885201	0.593302
	H70	H	0.399492	0.120332	0.605734
	H71	H	0.406230	0.883921	0.415547
	H72	H	0.910524	0.616642	0.102682
	H73	H	0.094752	0.384131	0.096856
	H74	H	0.097701	0.620565	0.910877
	H75	H	0.906754	0.382859	0.910714
	H76	H	0.092936	0.914346	0.624071
	H77	H	0.090821	0.088988	0.392186
	H78	H	0.903825	0.089192	0.623818
	H79	H	0.900637	0.897509	0.387068
	H80	H	0.611653	0.084630	0.914665
	H81	H	0.383837	0.086413	0.100442
	H82	H	0.617355	0.896962	0.101120
	H83	H	0.379558	0.913566	0.906862
	H84	H	0.610859	0.913122	0.094596
	H85	H	0.378537	0.097275	0.108945
	H86	H	0.617971	0.099161	0.910224
	H87	H	0.377921	0.897001	0.914844
	H88	H	0.909161	0.095846	0.624325
	H89	H	0.087208	0.095711	0.390935
	H90	H	0.083735	0.905491	0.624228
	H91	H	0.895732	0.915996	0.391465
	H92	H	0.086353	0.617625	0.910792
	H93	H	0.096438	0.382064	0.105892
	H94	H	0.903700	0.617165	0.095593
	H95	H	0.907699	0.386102	0.919645
	H96	H	0.411592	0.116631	0.604090
	H97	H	0.598447	0.880046	0.607188
	H98	H	0.594309	0.118941	0.413324
	H99	H	0.402427	0.883641	0.416750
	H100	H	0.595126	0.406677	0.126939
	H101	H	0.594035	0.588567	0.891942
	H102	H	0.400112	0.602553	0.130557
	H103	H	0.406999	0.410712	0.892303
	H104	H	0.113234	0.591617	0.418503
	H105	H	0.878765	0.591744	0.611128
	H106	H	0.114796	0.407021	0.601391
	H107	H	0.881136	0.400622	0.420319
	H108	H	0.901682	0.620118	0.104860
	H109	H	0.088138	0.385200	0.103063
	H110	H	0.092822	0.616269	0.920651
	H111	H	0.899828	0.382779	0.916541
	H112	H	0.094547	0.903075	0.628611
	H113	H	0.094697	0.095092	0.388982
	H114	H	0.901174	0.096551	0.627733
	H115	H	0.913716	0.909632	0.395147
	H116	H	0.613081	0.096435	0.925279
	H117	H	0.381613	0.099364	0.094551
	H118	H	0.617053	0.911850	0.112787
	H119	H	0.385127	0.911281	0.924924
	C120	C	0.376133	0.009176	0.630090
	C121	C	0.619827	0.991887	0.630562
	C122	C	0.619411	0.009503	0.387244
	C123	C	0.376428	0.992426	0.387223
	C124	C	0.619880	0.379276	0.017103
	C125	C	0.620079	0.622382	1.000307
	C126	C	0.377246	0.622351	0.017464
	C127	C	0.376884	0.379456	0.999751
	C128	C	0.006587	0.622339	0.386787
	C129	C	0.989017	0.622012	0.629923
	C130	C	0.006814	0.377873	0.630398
	C131	C	0.990124	0.378804	0.386943
	C132	C	0.877135	0.509443	0.129658
	C133	C	0.120849	0.492547	0.129950
	C134	C	0.120158	0.509379	0.886508
	C135	C	0.876585	0.492288	0.886785
	C136	C	0.118932	0.879136	0.516961
	C137	C	0.118747	0.121500	0.499555
	C138	C	0.876308	0.122228	0.516870
	C139	C	0.875609	0.879340	0.500517
	C140	C	0.506109	0.122038	0.887376
	C141	C	0.489799	0.122412	0.130238
	C142	C	0.506863	0.878888	0.130987
	C143	C	0.489121	0.879105	0.887474
	C144	C	0.379137	0.885326	0.684746
	C145	C	0.616432	0.115449	0.685273
	C146	C	0.615897	0.885813	0.333284
	C147	C	0.379478	0.116054	0.332687
	C148	C	0.674123	0.382037	0.893106
	C149	C	0.675196	0.619458	0.124057
	C150	C	0.322781	0.619567	0.893402
	C151	C	0.322400	0.381866	0.123970
	C152	C	0.882997	0.676733	0.388818
	C153	C	0.112337	0.676682	0.626967
	C154	C	0.883209	0.323737	0.626936
	C155	C	0.113339	0.323976	0.389803
	C156	C	0.883016	0.381691	0.684357
	C157	C	0.112870	0.618280	0.683609
	C158	C	0.883424	0.619165	0.331455
	C159	C	0.113504	0.381765	0.332585
	C160	C	0.380226	0.676935	0.893388
	C161	C	0.617344	0.676675	0.124420
	C162	C	0.616528	0.324528	0.892901
	C163	C	0.380878	0.325152	0.124086
	C164	C	0.673555	0.886087	0.390499
	C165	C	0.674197	0.115523	0.627942
	C166	C	0.321013	0.885559	0.627747
	C167	C	0.321297	0.115689	0.389725
	C168	C	0.881089	0.385751	0.184222
	C169	C	0.117659	0.616111	0.184402
	C170	C	0.116753	0.385492	0.833095
	C171	C	0.879990	0.616178	0.832185
	C172	C	0.173848	0.881766	0.393327
	C173	C	0.173802	0.118877	0.623572
	C174	C	0.821411	0.119432	0.392965
	C175	C	0.821396	0.882274	0.624276
	C176	C	0.383143	0.177273	0.889801
	C177	C	0.613153	0.177362	0.128353
	C178	C	0.383472	0.824149	0.127790
	C179	C	0.612756	0.824543	0.890652
	C180	C	0.382999	0.882052	0.184917
	C181	C	0.613099	0.118882	0.185218
	C182	C	0.383270	0.120230	0.831572
	C183	C	0.612647	0.882012	0.832861
	C184	C	0.879149	0.176765	0.392720
	C185	C	0.115774	0.175552	0.623752
	C186	C	0.115919	0.824688	0.393080
	C187	C	0.878979	0.824903	0.624224
	C188	C	0.174656	0.385913	0.890130
	C189	C	0.175437	0.616118	0.127227
	C190	C	0.822294	0.386011	0.127594
	C191	C	0.821813	0.615966	0.889003
	C192	C	0.398132	0.095212	0.608071
	C193	C	0.598193	0.905689	0.608587
	C194	C	0.598037	0.096183	0.408833
	C195	C	0.397834	0.905662	0.408614
	C196	C	0.598427	0.401261	0.103428
	C197	C	0.597999	0.600704	0.913853
	C198	C	0.399060	0.600525	0.103999
	C199	C	0.398400	0.401645	0.913360
	C200	C	0.092726	0.600932	0.409013
	C201	C	0.902926	0.600557	0.608144
	C202	C	0.092810	0.399715	0.608757
	C203	C	0.903934	0.400765	0.408619
	C204	C	0.898808	0.595750	0.107625
	C205	C	0.099301	0.406158	0.108277
	C206	C	0.098664	0.595860	0.907670
	C207	C	0.898322	0.406042	0.909015
	C208	C	0.096870	0.901043	0.603379
	C209	C	0.097170	0.099732	0.413113
	C210	C	0.898247	0.100411	0.603103
	C211	C	0.897061	0.901157	0.413617
	C212	C	0.592067	0.099958	0.909956
	C213	C	0.403610	0.100653	0.107940
	C214	C	0.592727	0.900914	0.109416
	C215	C	0.403187	0.900896	0.908992
	Zn216	Zn	0.497536	0.000490	0.758576
	Zn217	Zn	0.497924	0.001068	0.258790
	Zn218	Zn	0.748371	0.500828	0.008058
	Zn219	Zn	0.248747	0.501358	0.008244
	Zn220	Zn	-0.002956	0.751265	0.508087
	Zn221	Zn	-0.001720	0.250281	0.507935
	Zn222	Zn	-0.002016	0.500357	0.758327
	Zn223	Zn	-0.000771	0.501114	0.258320
	Zn224	Zn	0.498306	0.750706	0.009122
	Zn225	Zn	0.498536	0.251126	0.008338
	Zn226	Zn	0.747759	0.000530	0.508458
	Zn227	Zn	0.247532	0.000392	0.508665
	N228	N	0.412444	0.963167	0.686561
	N229	N	0.583447	0.037726	0.687183
	N230	N	0.582775	0.963710	0.331284
	N231	N	0.413018	0.038491	0.331063
	N232	N	0.676072	0.415310	0.970971
	N233	N	0.676875	0.586246	0.046005
	N234	N	0.320612	0.586577	0.971607
	N235	N	0.320133	0.415191	0.045916
	N236	N	0.960595	0.678847	0.422500
	N237	N	0.034438	0.679265	0.594142
	N238	N	0.961010	0.321464	0.594121
	N239	N	0.035628	0.322304	0.422939
	N240	N	0.960844	0.414581	0.686859
	N241	N	0.035251	0.584962	0.685412
	N242	N	0.961188	0.586071	0.330012
	N243	N	0.035810	0.415319	0.330604
	N244	N	0.413498	0.678560	0.971475
	N245	N	0.583935	0.678656	0.046427
	N246	N	0.583459	0.322677	0.971140
	N247	N	0.413754	0.323243	0.045965
	N248	N	0.675815	0.964145	0.423011
	N249	N	0.676561	0.037692	0.594723
	N250	N	0.319215	0.963448	0.594363
	N251	N	0.319454	0.037693	0.422936
	N252	N	0.914781	0.463338	0.185468
	N253	N	0.084182	0.538369	0.186062
	N254	N	0.083341	0.463187	0.830805
	N255	N	0.913230	0.538308	0.830629
	N256	N	0.175716	0.915007	0.471386
	N257	N	0.175782	0.085822	0.545518
	N258	N	0.819293	0.086260	0.471053
	N259	N	0.819349	0.915298	0.546094
	N260	N	0.460679	0.178704	0.923532
	N261	N	0.535571	0.179562	0.094766
	N262	N	0.461225	0.822065	0.095106
	N263	N	0.535117	0.822853	0.924022
	N264	N	0.460685	0.915550	0.187014
	N265	N	0.535509	0.085469	0.186422
	N266	N	0.460765	0.086504	0.830135
	N267	N	0.535005	0.915170	0.830731
	N268	N	0.912865	0.178334	0.470579
	N269	N	0.082413	0.177269	0.545669
	N270	N	0.082535	0.823086	0.470919
	N271	N	0.912114	0.823121	0.546199
	N272	N	0.176973	0.464131	0.922573
	N273	N	0.177406	0.538206	0.094161
	N274	N	0.819901	0.464001	0.094418
	N275	N	0.819621	0.538066	0.922137
	O276	O	0.953324	-0.049547	0.956278
	H277	H	0.951803	-0.042031	0.946776
	H278	H	0.940883	-0.050024	0.953014
	O279	O	0.948780	-0.021382	-0.031335
	H280	H	0.951232	-0.038528	-0.024406
	H281	H	0.956099	-0.016711	-0.027621
	O282	O	0.973570	0.932944	-0.020037
	H283	H	0.975677	0.927849	-0.026106
	H284	H	0.973115	0.931201	-0.021994
	O285	O	-0.078198	0.979688	-0.052586
	H286	H	-0.079218	0.983967	-0.049252
	H287	H	-0.080818	0.982890	-0.056290
