data_Molecule from HDF5

_cell_length_a		16.147711
_cell_length_b		16.196408
_cell_length_c		16.184656
_cell_angle_alpha	89.801592
_cell_angle_beta	89.174316
_cell_angle_gamma	89.913236
_symmetry_space_group_name_H-M	'P 1'
_symmetry_Int_Tables_number		1

loop_
	_symmetry_equiv_pos_as_xyz
	x,y,z

loop_
	_atom_site_label
	_atom_site_type_symbol
	_atom_site_fract_x
	_atom_site_fract_y
	_atom_site_fract_z
	H0	H	0.397973	0.834200	0.715508
	H1	H	0.595540	0.163455	0.709730
	H2	H	0.604304	0.835875	0.281207
	H3	H	0.403341	0.163204	0.286061
	H4	H	0.718682	0.399483	0.835574
	H5	H	0.708750	0.597011	0.163941
	H6	H	0.287540	0.598552	0.833455
	H7	H	0.281014	0.398343	0.162475
	H8	H	0.835926	0.714856	0.402506
	H9	H	0.164895	0.713056	0.595501
	H10	H	0.834661	0.284875	0.602844
	H11	H	0.164274	0.285900	0.398931
	H12	H	0.834774	0.401185	0.717518
	H13	H	0.165611	0.596610	0.710238
	H14	H	0.834111	0.599721	0.289873
	H15	H	0.162631	0.398078	0.281737
	H16	H	0.401765	0.715155	0.834257
	H17	H	0.597233	0.713669	0.161744
	H18	H	0.600877	0.286511	0.833670
	H19	H	0.397814	0.285229	0.163274
	H20	H	0.716869	0.835264	0.396716
	H21	H	0.709872	0.164568	0.591948
	H22	H	0.283532	0.834169	0.599832
	H23	H	0.288093	0.163956	0.400482
	H24	H	0.898726	0.335277	0.217791
	H25	H	0.097596	0.664568	0.212625
	H26	H	0.100539	0.335198	0.784542
	H27	H	0.900990	0.663143	0.787561
	H28	H	0.217129	0.902051	0.333704
	H29	H	0.211818	0.097910	0.664334
	H30	H	0.790894	0.098041	0.332542
	H31	H	0.782940	0.899904	0.662175
	H32	H	0.333908	0.213080	0.902138
	H33	H	0.664394	0.213366	0.094455
	H34	H	0.335690	0.783071	0.102788
	H35	H	0.663686	0.785826	0.895738
	H36	H	0.335530	0.899947	0.217058
	H37	H	0.666230	0.096805	0.207796
	H38	H	0.333481	0.097024	0.788159
	H39	H	0.663090	0.899466	0.781714
	H40	H	0.903808	0.215651	0.335933
	H41	H	0.094984	0.211212	0.664712
	H42	H	0.103538	0.785129	0.334983
	H43	H	0.899394	0.785773	0.663690
	H44	H	0.214244	0.334609	0.899798
	H45	H	0.213652	0.663307	0.096065
	H46	H	0.783968	0.334336	0.100135
	H47	H	0.789015	0.664080	0.903141
	H48	H	0.408111	0.118669	0.603000
	H49	H	0.589726	0.882660	0.587460
	H50	H	0.602629	0.122160	0.393228
	H51	H	0.406230	0.882283	0.412859
	H52	H	0.590018	0.398634	0.118684
	H53	H	0.594422	0.586168	0.881797
	H54	H	0.402702	0.589544	0.115800
	H55	H	0.410375	0.400799	0.879557
	H56	H	0.115811	0.590343	0.409797
	H57	H	0.884101	0.586126	0.592886
	H58	H	0.120963	0.395918	0.591999
	H59	H	0.878374	0.395595	0.415123
	H60	H	0.114558	0.408444	0.584794
	H61	H	0.879874	0.593849	0.604043
	H62	H	0.118497	0.588585	0.402089
	H63	H	0.886043	0.415506	0.419504
	H64	H	0.406556	0.588273	0.114335
	H65	H	0.590501	0.596914	0.880116
	H66	H	0.595795	0.408546	0.117677
	H67	H	0.402622	0.405295	0.878516
	H68	H	0.581971	0.114911	0.399886
	H69	H	0.597209	0.879801	0.589990
	H70	H	0.411692	0.112843	0.586867
	H71	H	0.406469	0.879003	0.403361
	H72	H	0.909856	0.613634	0.091437
	H73	H	0.093298	0.380003	0.094749
	H74	H	0.094004	0.616440	0.908642
	H75	H	0.903540	0.378596	0.907235
	H76	H	0.104031	0.906261	0.619820
	H77	H	0.092110	0.094723	0.381711
	H78	H	0.899413	0.095585	0.619065
	H79	H	0.912389	0.903628	0.379952
	H80	H	0.618073	0.097947	0.909360
	H81	H	0.381199	0.090271	0.097408
	H82	H	0.619689	0.904413	0.097240
	H83	H	0.380066	0.903555	0.912192
	H84	H	0.618576	0.898638	0.084526
	H85	H	0.380742	0.096372	0.095282
	H86	H	0.615301	0.085936	0.902311
	H87	H	0.382452	0.910396	0.910021
	H88	H	0.901393	0.086381	0.616495
	H89	H	0.097708	0.096050	0.380000
	H90	H	0.085468	0.916722	0.611563
	H91	H	0.905869	0.903526	0.379022
	H92	H	0.096855	0.619230	0.902977
	H93	H	0.085558	0.382813	0.094166
	H94	H	0.895687	0.617985	0.092008
	H95	H	0.910947	0.380809	0.904773
	H96	H	0.396078	0.118068	0.589719
	H97	H	0.590554	0.880031	0.594540
	H98	H	0.599409	0.115131	0.414382
	H99	H	0.413499	0.882427	0.406892
	H100	H	0.585174	0.407407	0.113941
	H101	H	0.601230	0.594187	0.877620
	H102	H	0.406278	0.592812	0.116249
	H103	H	0.409186	0.408782	0.882601
	H104	H	0.119237	0.595778	0.404428
	H105	H	0.880935	0.599990	0.590763
	H106	H	0.118576	0.410065	0.599651
	H107	H	0.878926	0.410292	0.399353
	H108	H	0.904247	0.620384	0.103569
	H109	H	0.090366	0.383347	0.087607
	H110	H	0.089054	0.616753	0.903222
	H111	H	0.908272	0.381890	0.912425
	H112	H	0.084798	0.895275	0.617903
	H113	H	0.096151	0.091031	0.382637
	H114	H	0.909064	0.093374	0.616669
	H115	H	0.909223	0.908801	0.381519
	H116	H	0.620776	0.096560	0.895250
	H117	H	0.383382	0.091127	0.090350
	H118	H	0.615123	0.912857	0.085489
	H119	H	0.379854	0.905483	0.904766
	C120	C	0.376212	0.007685	0.622376
	C121	C	0.620123	0.989906	0.618410
	C122	C	0.623535	0.008441	0.374360
	C123	C	0.380273	0.989985	0.378709
	C124	C	0.621203	0.376708	0.007977
	C125	C	0.621452	0.620586	0.989325
	C126	C	0.377816	0.619863	0.006842
	C127	C	0.377330	0.377055	0.989408
	C128	C	0.008888	0.621024	0.378214
	C129	C	0.991051	0.621071	0.622274
	C130	C	0.008530	0.376986	0.622414
	C131	C	0.990178	0.378174	0.380011
	C132	C	0.875270	0.508218	0.124060
	C133	C	0.119306	0.490928	0.120328
	C134	C	0.121987	0.508607	0.876628
	C135	C	0.879432	0.489639	0.880070
	C136	C	0.122035	0.877882	0.507556
	C137	C	0.121978	0.121527	0.490722
	C138	C	0.877426	0.121274	0.507902
	C139	C	0.879030	0.876999	0.489225
	C140	C	0.508234	0.121584	0.875984
	C141	C	0.491189	0.120887	0.120423
	C142	C	0.508864	0.876365	0.120698
	C143	C	0.489886	0.877890	0.878049
	C144	C	0.377796	0.883486	0.677987
	C145	C	0.616297	0.114198	0.672476
	C146	C	0.623116	0.884717	0.319330
	C147	C	0.382870	0.114076	0.323555
	C148	C	0.679374	0.379451	0.884361
	C149	C	0.673215	0.617586	0.113797
	C150	C	0.324243	0.618649	0.882888
	C151	C	0.319711	0.378581	0.113329
	C152	C	0.884830	0.676860	0.381832
	C153	C	0.115425	0.675728	0.616908
	C154	C	0.884209	0.322271	0.622129
	C155	C	0.114695	0.323090	0.379747
	C156	C	0.883969	0.380245	0.679121
	C157	C	0.116040	0.617486	0.673754
	C158	C	0.883942	0.619196	0.325993
	C159	C	0.113756	0.378715	0.321329
	C160	C	0.381219	0.676529	0.883215
	C161	C	0.617809	0.675932	0.112667
	C162	C	0.620791	0.323168	0.883454
	C163	C	0.377785	0.322208	0.113857
	C164	C	0.679169	0.884567	0.376848
	C165	C	0.673405	0.114733	0.613761
	C166	C	0.320869	0.883725	0.620291
	C167	C	0.325788	0.114535	0.380541
	C168	C	0.878051	0.384245	0.179623
	C169	C	0.117367	0.615019	0.174731
	C170	C	0.120412	0.384324	0.822048
	C171	C	0.881741	0.614028	0.825476
	C172	C	0.179082	0.880762	0.383290
	C173	C	0.174590	0.118009	0.615050
	C174	C	0.826509	0.118886	0.382863
	C175	C	0.822105	0.880019	0.613414
	C176	C	0.383412	0.175713	0.881007
	C177	C	0.615252	0.175630	0.115274
	C178	C	0.385072	0.820856	0.121756
	C179	C	0.614268	0.823160	0.877374
	C180	C	0.385128	0.879110	0.178709
	C181	C	0.616274	0.117426	0.171624
	C182	C	0.383161	0.118123	0.824172
	C183	C	0.614106	0.879466	0.820415
	C184	C	0.882753	0.177295	0.384453
	C185	C	0.116913	0.174909	0.615141
	C186	C	0.122546	0.822679	0.383912
	C187	C	0.880174	0.823305	0.614234
	C188	C	0.177137	0.384208	0.878927
	C189	C	0.175060	0.614514	0.117003
	C190	C	0.821193	0.383822	0.120945
	C191	C	0.825739	0.614451	0.882829
	C192	C	0.398779	0.094055	0.600029
	C193	C	0.598553	0.903357	0.597271
	C194	C	0.601215	0.094999	0.396059
	C195	C	0.402198	0.903537	0.401203
	C196	C	0.597163	0.398384	0.094455
	C197	C	0.601260	0.598932	0.902360
	C198	C	0.399014	0.596986	0.093129
	C199	C	0.400550	0.398780	0.902749
	C200	C	0.095376	0.598305	0.399042
	C201	C	0.904158	0.599677	0.602203
	C202	C	0.095282	0.398472	0.599123
	C203	C	0.903627	0.400539	0.404230
	C204	C	0.896908	0.594932	0.102221
	C205	C	0.096418	0.404405	0.098618
	C206	C	0.099826	0.595079	0.898397
	C207	C	0.901206	0.402928	0.901779
	C208	C	0.098285	0.899629	0.593995
	C209	C	0.101491	0.100315	0.403748
	C210	C	0.897469	0.098570	0.594880
	C211	C	0.902159	0.898729	0.402619
	C212	C	0.595553	0.099845	0.896157
	C213	C	0.404255	0.098990	0.100251
	C214	C	0.595576	0.898757	0.096164
	C215	C	0.403224	0.900155	0.901978
	Zn216	Zn	0.498494	-0.001774	0.749472
	Zn217	Zn	0.501077	-0.001126	0.248650
	Zn218	Zn	0.749374	0.499312	-0.000571
	Zn219	Zn	0.248836	0.498635	-0.001936
	Zn220	Zn	0.000434	0.749114	0.499000
	Zn221	Zn	-0.000318	0.249166	0.500228
	Zn222	Zn	-0.000157	0.498887	0.750606
	Zn223	Zn	-0.001483	0.499889	0.251572
	Zn224	Zn	0.499754	0.748794	-0.002537
	Zn225	Zn	0.499364	0.249052	-0.001718
	Zn226	Zn	0.750144	-0.000919	0.496809
	Zn227	Zn	0.250158	-0.000532	0.499256
	N228	N	0.411602	0.961583	0.679560
	N229	N	0.584029	0.035567	0.675666
	N230	N	0.589214	0.962650	0.317537
	N231	N	0.416243	0.035736	0.322304
	N232	N	0.679693	0.412069	0.962770
	N233	N	0.675837	0.583893	0.035882
	N234	N	0.321772	0.584270	0.960722
	N235	N	0.319364	0.411867	0.034993
	N236	N	0.963327	0.678090	0.413738
	N237	N	0.036812	0.678068	0.585419
	N238	N	0.962619	0.320206	0.587636
	N239	N	0.036792	0.322544	0.415621
	N240	N	0.962275	0.413611	0.679438
	N241	N	0.037704	0.584162	0.677210
	N242	N	0.962208	0.585426	0.323436
	N243	N	0.035408	0.412218	0.321318
	N244	N	0.413695	0.677670	0.961356
	N245	N	0.586296	0.677987	0.034213
	N246	N	0.585247	0.321342	0.961361
	N247	N	0.412921	0.320820	0.035752
	N248	N	0.679895	0.962692	0.410247
	N249	N	0.675831	0.036595	0.580778
	N250	N	0.319886	0.961734	0.586379
	N251	N	0.323915	0.036409	0.414081
	N252	N	0.910587	0.462599	0.181712
	N253	N	0.083360	0.536920	0.177105
	N254	N	0.086964	0.462659	0.820071
	N255	N	0.914378	0.535321	0.823248
	N256	N	0.178863	0.914402	0.461212
	N257	N	0.177873	0.085663	0.536632
	N258	N	0.823127	0.084601	0.460778
	N259	N	0.821115	0.912772	0.534787
	N260	N	0.462198	0.177990	0.912350
	N261	N	0.536486	0.177693	0.084061
	N262	N	0.463154	0.818903	0.086486
	N263	N	0.536097	0.821829	0.912277
	N264	N	0.463458	0.912758	0.178252
	N265	N	0.538004	0.083941	0.174928
	N266	N	0.461687	0.085008	0.820981
	N267	N	0.535671	0.912885	0.820799
	N268	N	0.913352	0.178971	0.463411
	N269	N	0.084876	0.177104	0.536818
	N270	N	0.087675	0.820726	0.462155
	N271	N	0.914803	0.821446	0.536131
	N272	N	0.178219	0.462239	0.912072
	N273	N	0.176417	0.536364	0.083989
	N274	N	0.818977	0.462039	0.087292
	N275	N	0.824090	0.536227	0.916088
	O276	O	-0.000110	0.002006	0.015716
	H277	H	-0.001265	0.016531	0.024112
	H278	H	0.005660	0.001657	0.020766
	O279	O	0.519740	0.532318	0.472769
	H280	H	0.510963	0.534564	0.478359
	H281	H	0.508452	0.533620	0.462213
	O282	O	0.582237	0.479021	0.525999
	H283	H	0.590686	0.471371	0.533260
	H284	H	0.584808	0.476680	0.527813
	O285	O	0.020141	0.922565	1.045212
	H286	H	0.016637	0.935059	1.055608
	H287	H	0.022593	0.907709	1.042417
	O288	O	0.404698	0.389283	0.574314
	H289	H	0.400495	0.381218	0.567182
	H290	H	0.403419	0.390782	0.586371
	O291	O	0.972591	1.004863	0.944657
	H292	H	0.965582	1.010466	0.942829
	H293	H	0.985206	0.990821	0.943760
	O294	O	0.510940	1.618094	0.513073
	H295	H	0.511442	1.619562	0.518930
	H296	H	0.527110	1.629628	0.512636
	O297	O	0.997270	0.009800	0.975996
	H298	H	0.996192	0.013106	0.970971
	H299	H	0.992059	0.014523	0.968212
	O300	O	0.510004	0.475781	0.610728
	H301	H	0.504355	0.475208	0.602911
	H302	H	0.504238	0.476762	0.604647
	O303	O	0.947635	0.091719	0.014977
	H304	H	0.938897	0.087169	0.012919
	H305	H	0.937223	0.097743	0.013464
	O306	O	0.078705	1.036308	0.945220
	H307	H	0.084545	1.035209	0.933056
	H308	H	0.080117	1.036141	0.932775
	O309	O	0.500848	0.551705	0.444869
	H310	H	0.512044	0.543168	0.439427
	H311	H	0.504969	0.544433	0.437126
	O312	O	0.951957	-0.055664	1.003069
	H313	H	0.957463	-0.064238	1.000264
	H314	H	0.960093	-0.065344	1.002547
	O315	O	0.477160	0.483166	0.418118
	H316	H	0.480972	0.490415	0.420650
	H317	H	0.482414	0.491168	0.411613
	O318	O	0.510441	0.610341	0.462810
	H319	H	0.505297	0.625448	0.448283
	H320	H	0.491587	0.588100	0.464885
	O321	O	0.996042	1.038027	1.068615
	H322	H	0.996947	1.036606	1.072027
	H323	H	0.987991	1.046752	1.070076
	O324	O	0.446178	0.422915	0.615779
	H325	H	0.447763	0.430775	0.620492
	H326	H	0.452504	0.420496	0.617532
	O327	O	0.630162	0.386177	0.376409
	H328	H	0.629662	0.370847	0.377200
	H329	H	0.635509	0.385883	0.369594
	O330	O	0.935907	-0.012094	1.046135
	H331	H	0.935791	-0.018002	1.049564
	H332	H	0.933219	-0.013602	1.045398
	O333	O	1.009571	0.880754	-0.003095
	H334	H	1.003339	0.882157	0.001463
	H335	H	1.010817	0.884867	-0.003787
	O336	O	0.563688	0.621960	0.542158
	H337	H	0.584769	0.622019	0.534949
	H338	H	0.556753	0.629123	0.543729
	O339	O	0.487454	0.362563	0.478371
	H340	H	0.481867	0.370404	0.480038
	H341	H	0.460638	0.351735	0.478199
	O342	O	-0.008964	1.054849	-0.041408
	H343	H	-0.010259	1.045791	-0.033471
	H344	H	-0.009395	1.050778	-0.035317
	O345	O	0.058873	-0.035542	0.072963
	H346	H	0.065309	-0.035795	0.074452
	H347	H	0.065718	-0.041329	0.063308
	O348	O	0.622201	0.455957	0.400449
	H349	H	0.613755	0.459588	0.409865
	H350	H	0.627066	0.442276	0.397829
	O351	O	0.439425	0.550894	0.487333
	H352	H	0.433140	0.555143	0.473283
	H353	H	0.435187	0.549698	0.481630
	O354	O	0.492196	0.562280	0.443195
	H355	H	0.495051	0.565477	0.462725
	H356	H	0.490472	0.556243	0.441457
	O357	O	0.388790	0.503286	0.491862
	H358	H	0.415225	0.515918	0.493883
	H359	H	0.385279	0.495121	0.482903
	O360	O	0.127046	-0.035418	0.011110
	H361	H	0.125042	-0.033056	0.017828
	H362	H	0.135535	-0.031826	-0.003154
	O363	O	0.471063	0.570101	0.506644
	H364	H	0.473733	0.574373	0.506076
	H365	H	0.473890	0.559571	0.508255
	O366	O	-0.073889	0.042598	0.977241
	H367	H	-0.076017	0.043332	0.970331
	H368	H	-0.075757	0.038226	0.976775
	O369	O	0.456967	0.449406	0.563002
	H370	H	0.453793	0.452242	0.564394
	H371	H	0.454557	0.459570	0.561436
