data_Molecule from HDF5

_cell_length_a		16.170968
_cell_length_b		16.314415
_cell_length_c		16.143644
_cell_angle_alpha	90.340181
_cell_angle_beta	90.239885
_cell_angle_gamma	90.066648
_symmetry_space_group_name_H-M	'P 1'
_symmetry_Int_Tables_number		1

loop_
	_symmetry_equiv_pos_as_xyz
	x,y,z

loop_
	_atom_site_label
	_atom_site_type_symbol
	_atom_site_fract_x
	_atom_site_fract_y
	_atom_site_fract_z
	H0	H	0.403225	0.831796	0.712006
	H1	H	0.598529	0.160469	0.716232
	H2	H	0.596861	0.832665	0.284396
	H3	H	0.401505	0.161009	0.287379
	H4	H	0.708527	0.399106	0.834092
	H5	H	0.711872	0.595348	0.164897
	H6	H	0.285460	0.592702	0.834650
	H7	H	0.285755	0.400039	0.165069
	H8	H	0.834820	0.710812	0.399206
	H9	H	0.163522	0.712281	0.601977
	H10	H	0.835929	0.281057	0.597020
	H11	H	0.164405	0.281499	0.399884
	H12	H	0.833301	0.400076	0.709028
	H13	H	0.163770	0.594785	0.714874
	H14	H	0.833358	0.589832	0.288638
	H15	H	0.164182	0.397773	0.285422
	H16	H	0.398777	0.710106	0.835272
	H17	H	0.599488	0.711986	0.164491
	H18	H	0.597744	0.280844	0.836063
	H19	H	0.399255	0.283406	0.164639
	H20	H	0.712690	0.832577	0.401920
	H21	H	0.715117	0.160534	0.600329
	H22	H	0.285627	0.832875	0.597521
	H23	H	0.285652	0.160307	0.403470
	H24	H	0.900537	0.331543	0.211725
	H25	H	0.097848	0.659058	0.215331
	H26	H	0.094514	0.332273	0.786077
	H27	H	0.898866	0.659763	0.783976
	H28	H	0.211125	0.897817	0.334101
	H29	H	0.212909	0.095129	0.664937
	H30	H	0.785799	0.091591	0.334491
	H31	H	0.787882	0.899416	0.665883
	H32	H	0.334700	0.210721	0.899561
	H33	H	0.663457	0.212981	0.101786
	H34	H	0.334789	0.782058	0.099937
	H35	H	0.663546	0.781223	0.901470
	H36	H	0.333124	0.902261	0.209381
	H37	H	0.664494	0.094518	0.214354
	H38	H	0.333718	0.092174	0.787568
	H39	H	0.665757	0.899695	0.788662
	H40	H	0.898541	0.208770	0.334560
	H41	H	0.100493	0.211452	0.663526
	H42	H	0.099220	0.780640	0.335100
	H43	H	0.900777	0.781621	0.664668
	H44	H	0.213136	0.333128	0.898831
	H45	H	0.213459	0.659343	0.099661
	H46	H	0.784169	0.332527	0.095839
	H47	H	0.783185	0.660573	0.901242
	H48	H	0.409518	0.113050	0.597013
	H49	H	0.597897	0.880938	0.587167
	H50	H	0.598319	0.112856	0.414999
	H51	H	0.408162	0.878878	0.398253
	H52	H	0.598714	0.396640	0.122318
	H53	H	0.592535	0.581930	0.882343
	H54	H	0.412675	0.598042	0.118108
	H55	H	0.397584	0.413400	0.883126
	H56	H	0.118197	0.586042	0.402243
	H57	H	0.886698	0.583144	0.583399
	H58	H	0.115377	0.406128	0.588377
	H59	H	0.885098	0.406959	0.411337
	H60	H	0.118768	0.404887	0.598517
	H61	H	0.879500	0.586019	0.600668
	H62	H	0.118492	0.594782	0.409058
	H63	H	0.879275	0.402478	0.397150
	H64	H	0.397227	0.592780	0.121741
	H65	H	0.582523	0.592167	0.883390
	H66	H	0.594567	0.414582	0.117217
	H67	H	0.418334	0.402055	0.885883
	H68	H	0.596864	0.116542	0.399583
	H69	H	0.596892	0.877373	0.600200
	H70	H	0.405767	0.111692	0.590395
	H71	H	0.408545	0.881897	0.410202
	H72	H	0.900344	0.613814	0.090728
	H73	H	0.087198	0.381265	0.087736
	H74	H	0.087318	0.611970	0.905022
	H75	H	0.909826	0.381184	0.901617
	H76	H	0.101347	0.899289	0.621418
	H77	H	0.090970	0.082428	0.382775
	H78	H	0.899029	0.095521	0.621881
	H79	H	0.909785	0.908318	0.385468
	H80	H	0.619303	0.091017	0.901572
	H81	H	0.382414	0.087929	0.092285
	H82	H	0.615994	0.907549	0.090196
	H83	H	0.381835	0.903579	0.906397
	H84	H	0.618784	0.902645	0.097496
	H85	H	0.379026	0.091926	0.096052
	H86	H	0.616387	0.097329	0.914886
	H87	H	0.380757	0.901901	0.903841
	H88	H	0.908639	0.079057	0.614056
	H89	H	0.086562	0.092388	0.381502
	H90	H	0.092504	0.913078	0.614530
	H91	H	0.911164	0.895196	0.381805
	H92	H	0.092334	0.611440	0.912725
	H93	H	0.098003	0.378622	0.088472
	H94	H	0.904321	0.614038	0.100308
	H95	H	0.900882	0.381029	0.911690
	H96	H	0.401749	0.114856	0.596717
	H97	H	0.586150	0.881904	0.593560
	H98	H	0.584336	0.110429	0.407430
	H99	H	0.398265	0.877748	0.405193
	H100	H	0.581279	0.401043	0.116291
	H101	H	0.595984	0.594766	0.878973
	H102	H	0.409066	0.581991	0.114726
	H103	H	0.399529	0.390383	0.876451
	H104	H	0.114540	0.585610	0.413546
	H105	H	0.880123	0.599505	0.587868
	H106	H	0.119274	0.396516	0.592188
	H107	H	0.880388	0.392038	0.409176
	H108	H	0.910041	0.610406	0.092083
	H109	H	0.091158	0.378051	0.097327
	H110	H	0.096129	0.615345	0.904564
	H111	H	0.896811	0.376784	0.899376
	H112	H	0.084099	0.896885	0.617295
	H113	H	0.097740	0.090539	0.378715
	H114	H	0.918328	0.096564	0.616401
	H115	H	0.898816	0.902183	0.379628
	H116	H	0.614162	0.082093	0.912287
	H117	H	0.382031	0.093276	0.090221
	H118	H	0.617190	0.899031	0.089477
	H119	H	0.381029	0.899897	0.906897
	C120	C	0.378050	0.004612	0.621899
	C121	C	0.621981	0.988264	0.623004
	C122	C	0.620931	0.005014	0.378731
	C123	C	0.377000	0.988033	0.377602
	C124	C	0.619165	0.375607	0.008704
	C125	C	0.619846	0.618399	0.990978
	C126	C	0.377257	0.618415	0.009025
	C127	C	0.376913	0.374583	0.991007
	C128	C	0.007832	0.616747	0.379296
	C129	C	0.990694	0.617708	0.620630
	C130	C	0.008352	0.374318	0.620438
	C131	C	0.990813	0.372854	0.377310
	C132	C	0.876397	0.504255	0.121443
	C133	C	0.120830	0.487365	0.121126
	C134	C	0.119889	0.505037	0.878000
	C135	C	0.875104	0.488122	0.877021
	C136	C	0.121084	0.874256	0.508343
	C137	C	0.120905	0.117563	0.490410
	C138	C	0.878959	0.117479	0.508279
	C139	C	0.878457	0.874279	0.491636
	C140	C	0.507716	0.117564	0.880009
	C141	C	0.490239	0.119354	0.122128
	C142	C	0.507966	0.875516	0.120577
	C143	C	0.490910	0.874181	0.878364
	C144	C	0.382383	0.880780	0.674836
	C145	C	0.619479	0.111643	0.678370
	C146	C	0.617518	0.881397	0.323168
	C147	C	0.380721	0.111908	0.324473
	C148	C	0.672353	0.378284	0.884029
	C149	C	0.674602	0.615819	0.115432
	C150	C	0.322915	0.614208	0.884046
	C151	C	0.322686	0.378923	0.115582
	C152	C	0.883700	0.672034	0.380264
	C153	C	0.114554	0.673488	0.620951
	C154	C	0.884562	0.319290	0.617474
	C155	C	0.115056	0.318736	0.379272
	C156	C	0.883428	0.378341	0.673158
	C157	C	0.114671	0.615418	0.677065
	C158	C	0.882865	0.612143	0.325175
	C159	C	0.114980	0.376729	0.322669
	C160	C	0.379146	0.672412	0.884554
	C161	C	0.618761	0.673907	0.115238
	C162	C	0.616970	0.319525	0.884892
	C163	C	0.379071	0.320762	0.115324
	C164	C	0.675409	0.881428	0.381329
	C165	C	0.677272	0.111589	0.620876
	C166	C	0.323618	0.881412	0.618137
	C167	C	0.323030	0.111580	0.382031
	C168	C	0.879806	0.380716	0.174603
	C169	C	0.118099	0.610216	0.177236
	C170	C	0.115840	0.381468	0.823208
	C171	C	0.878379	0.611275	0.822441
	C172	C	0.174260	0.877357	0.383594
	C173	C	0.175609	0.115189	0.615206
	C174	C	0.823372	0.112887	0.383807
	C175	C	0.824556	0.877798	0.616102
	C176	C	0.383636	0.172363	0.880649
	C177	C	0.614400	0.174533	0.121063
	C178	C	0.383726	0.820759	0.118863
	C179	C	0.614768	0.819436	0.881194
	C180	C	0.382999	0.880125	0.173551
	C181	C	0.615163	0.115598	0.176677
	C182	C	0.383164	0.113664	0.824743
	C183	C	0.615655	0.878226	0.824966
	C184	C	0.879360	0.171234	0.383871
	C185	C	0.119856	0.173355	0.614495
	C186	C	0.118712	0.818771	0.384258
	C187	C	0.880833	0.819286	0.615547
	C188	C	0.174497	0.381770	0.879562
	C189	C	0.175753	0.610479	0.119876
	C190	C	0.821826	0.381283	0.117107
	C191	C	0.820726	0.611479	0.880421
	C192	C	0.399339	0.090857	0.600977
	C193	C	0.599991	0.902240	0.600351
	C194	C	0.599541	0.091052	0.400790
	C195	C	0.398439	0.901878	0.398618
	C196	C	0.597809	0.397727	0.096038
	C197	C	0.597093	0.596225	0.903922
	C198	C	0.399696	0.597261	0.095767
	C199	C	0.398703	0.395739	0.904262
	C200	C	0.094509	0.595365	0.401610
	C201	C	0.904403	0.595894	0.597454
	C202	C	0.095292	0.396052	0.599386
	C203	C	0.904054	0.394219	0.399347
	C204	C	0.898360	0.590697	0.100599
	C205	C	0.098757	0.401496	0.097909
	C206	C	0.098459	0.590847	0.900776
	C207	C	0.896285	0.401935	0.897937
	C208	C	0.099425	0.896629	0.595428
	C209	C	0.098449	0.094944	0.403428
	C210	C	0.901827	0.096493	0.595089
	C211	C	0.900001	0.895546	0.404546
	C212	C	0.594267	0.096334	0.902629
	C213	C	0.403538	0.097615	0.099618
	C214	C	0.594820	0.896799	0.098799
	C215	C	0.403756	0.895470	0.899605
	Zn216	Zn	0.499622	-0.003128	0.751184
	Zn217	Zn	0.499052	-0.003213	0.249178
	Zn218	Zn	0.746552	0.497050	-0.000193
	Zn219	Zn	0.249239	0.496460	-0.000626
	Zn220	Zn	-0.000162	0.746153	0.499554
	Zn221	Zn	0.000448	0.245307	0.498631
	Zn222	Zn	-0.001412	0.496548	0.748591
	Zn223	Zn	-0.001009	0.495114	0.249972
	Zn224	Zn	0.498915	0.746156	0.000302
	Zn225	Zn	0.498716	0.246971	0.000443
	Zn226	Zn	0.750323	-0.003476	0.501067
	Zn227	Zn	0.248358	-0.003799	0.499673
	N228	N	0.415071	0.958664	0.677549
	N229	N	0.585767	0.034336	0.679509
	N230	N	0.584761	0.959252	0.321207
	N231	N	0.413570	0.034063	0.321479
	N232	N	0.673754	0.412342	0.962143
	N233	N	0.675134	0.581923	0.037032
	N234	N	0.321508	0.581338	0.962342
	N235	N	0.321128	0.411695	0.037143
	N236	N	0.962409	0.675051	0.413025
	N237	N	0.036576	0.675305	0.586558
	N238	N	0.963298	0.316641	0.585424
	N239	N	0.036847	0.316423	0.412554
	N240	N	0.961463	0.412017	0.675099
	N241	N	0.036596	0.581659	0.677444
	N242	N	0.960927	0.578466	0.324251
	N243	N	0.036700	0.409583	0.321304
	N244	N	0.412118	0.675185	0.963256
	N245	N	0.585441	0.675446	0.036724
	N246	N	0.584577	0.317904	0.963622
	N247	N	0.411957	0.317940	0.036991
	N248	N	0.677386	0.959017	0.415258
	N249	N	0.678929	0.033756	0.587036
	N250	N	0.320947	0.959233	0.585693
	N251	N	0.320845	0.033782	0.414452
	N252	N	0.913021	0.458476	0.177356
	N253	N	0.084690	0.532573	0.178132
	N254	N	0.082473	0.458911	0.822206
	N255	N	0.911314	0.533643	0.819942
	N256	N	0.175950	0.911103	0.462068
	N257	N	0.176305	0.081085	0.537085
	N258	N	0.822975	0.080180	0.462235
	N259	N	0.823081	0.911397	0.538072
	N260	N	0.461930	0.174690	0.914600
	N261	N	0.535765	0.177100	0.087938
	N262	N	0.462344	0.817785	0.086666
	N263	N	0.536102	0.816649	0.913403
	N264	N	0.461169	0.913752	0.174757
	N265	N	0.537109	0.081999	0.177609
	N266	N	0.461289	0.080478	0.824112
	N267	N	0.537587	0.911537	0.823123
	N268	N	0.913197	0.174173	0.462279
	N269	N	0.086523	0.174772	0.535786
	N270	N	0.086230	0.816954	0.462742
	N271	N	0.913589	0.817161	0.537095
	N272	N	0.177340	0.459622	0.913091
	N273	N	0.177607	0.533018	0.085773
	N274	N	0.819699	0.459174	0.084648
	N275	N	0.818532	0.533889	0.913625
	O276	O	0.962841	0.985109	-0.039511
	H277	H	0.960622	0.983897	-0.042745
	H278	H	0.958100	0.989228	-0.042534
	O279	O	0.000672	0.013174	0.015545
	H280	H	-0.011020	0.011488	0.017101
	H281	H	0.001388	0.011248	0.014155
	O282	O	0.035161	-0.004953	0.963421
	H283	H	0.048833	-0.000812	0.964273
	H284	H	0.032101	-0.009866	0.961392
	O285	O	0.506484	0.537245	0.471981
	H286	H	0.503966	0.526875	0.468242
	H287	H	0.506706	0.531478	0.469726
	O288	O	0.501739	0.485225	0.510320
	H289	H	0.500409	0.473675	0.506921
	H290	H	0.498682	0.488155	0.496614
	O291	O	0.530859	0.496777	0.532640
	H292	H	0.537376	0.507317	0.539902
	H293	H	0.530698	0.503240	0.535021
	O294	O	0.019776	0.064418	-0.002461
	H295	H	0.030861	0.060584	-0.006042
	H296	H	0.020179	0.070343	0.013655
	O297	O	0.532599	0.532756	0.541348
	H298	H	0.528586	0.540726	0.549418
	H299	H	0.525573	0.528197	0.535023
	O300	O	0.015771	1.059002	1.027324
	H301	H	0.017318	1.063944	1.018625
	H302	H	0.011516	1.052213	1.029255
	O303	O	0.591572	0.536287	0.508719
	H304	H	0.594676	0.546063	0.508310
	H305	H	0.596071	0.540257	0.516921
	O306	O	0.074789	-0.002599	0.989701
	H307	H	0.072615	-0.007202	0.988351
	H308	H	0.074822	0.011934	0.988274
	O309	O	1.006720	0.991537	0.982818
	H310	H	1.013688	0.984441	0.990286
	H311	H	1.006478	0.986247	0.975823
	O312	O	0.512610	0.504116	0.493084
	H313	H	0.512519	0.505884	0.500705
	H314	H	0.517327	0.500048	0.493946
	O315	O	0.550965	0.532610	0.503719
	H316	H	0.560050	0.538454	0.504855
	H317	H	0.557842	0.528482	0.505199
	O318	O	-0.015029	0.984425	-0.006557
	H319	H	-0.019549	0.989097	-0.004921
	H320	H	-0.018507	0.986304	0.001081
	O321	O	0.977734	0.992455	-0.013849
	H322	H	0.978851	0.984552	-0.018593
	H323	H	0.980011	0.998485	-0.017899
