data_Molecule from HDF5

_cell_length_a		16.318931
_cell_length_b		16.204865
_cell_length_c		16.186067
_cell_angle_alpha	90.242563
_cell_angle_beta	89.951449
_cell_angle_gamma	90.297118
_symmetry_space_group_name_H-M	'P 1'
_symmetry_Int_Tables_number		1

loop_
	_symmetry_equiv_pos_as_xyz
	x,y,z

loop_
	_atom_site_label
	_atom_site_type_symbol
	_atom_site_fract_x
	_atom_site_fract_y
	_atom_site_fract_z
	H0	H	0.396541	0.842481	0.717769
	H1	H	0.592763	0.172641	0.718575
	H2	H	0.592623	0.843523	0.290890
	H3	H	0.398777	0.172129	0.294037
	H4	H	0.709305	0.408257	0.841453
	H5	H	0.712469	0.611112	0.169218
	H6	H	0.280463	0.606684	0.841311
	H7	H	0.279965	0.408613	0.169848
	H8	H	0.831153	0.720852	0.407626
	H9	H	0.158132	0.724700	0.605753
	H10	H	0.832844	0.291335	0.604529
	H11	H	0.158815	0.294083	0.406540
	H12	H	0.831888	0.408829	0.719862
	H13	H	0.159284	0.607967	0.721234
	H14	H	0.831102	0.604114	0.291559
	H15	H	0.158220	0.409592	0.291002
	H16	H	0.398274	0.719332	0.840303
	H17	H	0.593440	0.722702	0.170094
	H18	H	0.591166	0.294702	0.841236
	H19	H	0.395706	0.294631	0.170432
	H20	H	0.710650	0.844456	0.403926
	H21	H	0.711785	0.172063	0.605966
	H22	H	0.277696	0.844355	0.606655
	H23	H	0.282189	0.171493	0.407096
	H24	H	0.897045	0.341917	0.217732
	H25	H	0.093522	0.671806	0.220858
	H26	H	0.091954	0.342769	0.792641
	H27	H	0.899333	0.672442	0.793975
	H28	H	0.209185	0.907642	0.341507
	H29	H	0.210176	0.108099	0.669627
	H30	H	0.782903	0.105640	0.341537
	H31	H	0.779475	0.907916	0.669537
	H32	H	0.331261	0.220314	0.908941
	H33	H	0.657533	0.225189	0.105357
	H34	H	0.331878	0.791716	0.105135
	H35	H	0.658277	0.793377	0.906141
	H36	H	0.331842	0.909325	0.220481
	H37	H	0.658531	0.108220	0.219794
	H38	H	0.330982	0.105880	0.791138
	H39	H	0.657922	0.909494	0.790359
	H40	H	0.898641	0.219162	0.340973
	H41	H	0.094197	0.222568	0.669780
	H42	H	0.091612	0.793342	0.341787
	H43	H	0.896823	0.794396	0.671084
	H44	H	0.209035	0.342987	0.905901
	H45	H	0.212264	0.670855	0.106989
	H46	H	0.777931	0.344412	0.106636
	H47	H	0.782353	0.671590	0.907177
	H48	H	0.404382	0.127061	0.608716
	H49	H	0.585636	0.891187	0.599629
	H50	H	0.591014	0.124353	0.416640
	H51	H	0.405768	0.891482	0.413839
	H52	H	0.582691	0.414513	0.123625
	H53	H	0.595401	0.596218	0.888352
	H54	H	0.410574	0.598131	0.119230
	H55	H	0.405310	0.414118	0.889846
	H56	H	0.108007	0.595416	0.416679
	H57	H	0.879333	0.597972	0.602329
	H58	H	0.113061	0.412808	0.602735
	H59	H	0.878195	0.408939	0.414012
	H60	H	0.111911	0.413172	0.595718
	H61	H	0.878586	0.601652	0.600949
	H62	H	0.112645	0.600034	0.407000
	H63	H	0.879120	0.415315	0.413603
	H64	H	0.401206	0.606716	0.125023
	H65	H	0.584081	0.598622	0.890869
	H66	H	0.592206	0.414548	0.123941
	H67	H	0.399220	0.410188	0.885787
	H68	H	0.592358	0.127182	0.411570
	H69	H	0.585939	0.892135	0.594034
	H70	H	0.409821	0.120616	0.592475
	H71	H	0.398877	0.889362	0.415951
	H72	H	0.904580	0.625097	0.100952
	H73	H	0.084032	0.389452	0.101920
	H74	H	0.086863	0.626104	0.906923
	H75	H	0.902682	0.390728	0.914456
	H76	H	0.095638	0.912035	0.627250
	H77	H	0.089932	0.097100	0.388321
	H78	H	0.897274	0.098673	0.625039
	H79	H	0.908485	0.910836	0.389651
	H80	H	0.613211	0.110746	0.915730
	H81	H	0.379365	0.101706	0.092916
	H82	H	0.611545	0.911520	0.095593
	H83	H	0.376205	0.916093	0.903259
	H84	H	0.609288	0.920080	0.096037
	H85	H	0.379546	0.094943	0.103678
	H86	H	0.607822	0.094252	0.918107
	H87	H	0.376067	0.904881	0.914492
	H88	H	0.906416	0.095239	0.621004
	H89	H	0.087463	0.101644	0.387586
	H90	H	0.088308	0.926085	0.620516
	H91	H	0.897420	0.909108	0.385160
	H92	H	0.084469	0.622062	0.920503
	H93	H	0.087702	0.391555	0.093092
	H94	H	0.904994	0.624178	0.096828
	H95	H	0.898593	0.389685	0.914348
	H96	H	0.392614	0.126674	0.595086
	H97	H	0.590717	0.890232	0.596837
	H98	H	0.587517	0.124574	0.412720
	H99	H	0.400943	0.889257	0.408817
	H100	H	0.587659	0.422457	0.121631
	H101	H	0.590554	0.606611	0.885284
	H102	H	0.397859	0.593509	0.122443
	H103	H	0.398619	0.417844	0.888577
	H104	H	0.111901	0.606273	0.416542
	H105	H	0.880071	0.599532	0.598429
	H106	H	0.111905	0.419498	0.599651
	H107	H	0.876665	0.411624	0.408838
	H108	H	0.900747	0.624941	0.098437
	H109	H	0.093536	0.387960	0.099771
	H110	H	0.097612	0.626183	0.915976
	H111	H	0.901385	0.388684	0.911258
	H112	H	0.079509	0.911957	0.622585
	H113	H	0.092086	0.101314	0.386783
	H114	H	0.904753	0.105310	0.624504
	H115	H	0.900518	0.920267	0.390006
	H116	H	0.613292	0.099763	0.901909
	H117	H	0.375220	0.106932	0.103917
	H118	H	0.612395	0.916018	0.103129
	H119	H	0.382337	0.919359	0.918256
	C120	C	0.373499	0.016073	0.627134
	C121	C	0.616777	0.999652	0.626375
	C122	C	0.617900	0.016721	0.383820
	C123	C	0.373853	0.998947	0.384732
	C124	C	0.615849	0.387733	0.014355
	C125	C	0.617840	0.629866	0.996869
	C126	C	0.374344	0.628286	0.013745
	C127	C	0.372896	0.385767	0.997182
	C128	C	0.002801	0.628443	0.384826
	C129	C	0.987264	0.629516	0.628949
	C130	C	0.004027	0.386150	0.627590
	C131	C	0.986486	0.384965	0.383733
	C132	C	0.874123	0.516048	0.127501
	C133	C	0.117249	0.498503	0.127644
	C134	C	0.116889	0.515995	0.885368
	C135	C	0.873795	0.498672	0.884675
	C136	C	0.116306	0.886823	0.514749
	C137	C	0.118017	0.129489	0.496517
	C138	C	0.874982	0.128040	0.514448
	C139	C	0.873368	0.885486	0.497198
	C140	C	0.503206	0.129261	0.884043
	C141	C	0.486192	0.130679	0.128492
	C142	C	0.503449	0.886312	0.127132
	C143	C	0.486572	0.886014	0.883501
	C144	C	0.375892	0.891950	0.681342
	C145	C	0.614160	0.123451	0.681659
	C146	C	0.614010	0.892938	0.328152
	C147	C	0.377990	0.123106	0.331039
	C148	C	0.671374	0.388663	0.890639
	C149	C	0.673549	0.629623	0.120441
	C150	C	0.318746	0.626293	0.890232
	C151	C	0.317682	0.388095	0.120704
	C152	C	0.879804	0.682862	0.387587
	C153	C	0.109559	0.686342	0.626362
	C154	C	0.881236	0.330155	0.625008
	C155	C	0.109861	0.331449	0.386261
	C156	C	0.880832	0.388482	0.682272
	C157	C	0.110220	0.628162	0.683632
	C158	C	0.879824	0.625145	0.329621
	C159	C	0.109494	0.388715	0.328635
	C160	C	0.377312	0.682484	0.889733
	C161	C	0.614847	0.685573	0.120790
	C162	C	0.612394	0.332418	0.890366
	C163	C	0.375414	0.331612	0.121044
	C164	C	0.672460	0.893215	0.384621
	C165	C	0.673114	0.123094	0.625420
	C166	C	0.316860	0.892798	0.625815
	C167	C	0.319704	0.122485	0.387187
	C168	C	0.876479	0.391618	0.181107
	C169	C	0.114455	0.622652	0.183009
	C170	C	0.113117	0.391924	0.830010
	C171	C	0.878013	0.622911	0.830796
	C172	C	0.171476	0.887690	0.390804
	C173	C	0.172675	0.128217	0.620495
	C174	C	0.820553	0.125710	0.390520
	C175	C	0.817607	0.887674	0.620813
	C176	C	0.379883	0.183054	0.887919
	C177	C	0.609208	0.186634	0.125477
	C178	C	0.380478	0.830459	0.125080
	C179	C	0.609425	0.831114	0.885722
	C180	C	0.380576	0.888620	0.182485
	C181	C	0.609549	0.128686	0.182720
	C182	C	0.379711	0.125702	0.829611
	C183	C	0.609292	0.888758	0.828160
	C184	C	0.878284	0.182138	0.390370
	C185	C	0.114929	0.185165	0.620520
	C186	C	0.113125	0.831068	0.390760
	C187	C	0.876086	0.831487	0.621629
	C188	C	0.171150	0.392054	0.886445
	C189	C	0.173240	0.622256	0.126417
	C190	C	0.817517	0.392780	0.125654
	C191	C	0.819697	0.622501	0.886927
	C192	C	0.395812	0.102481	0.605343
	C193	C	0.594171	0.913279	0.603521
	C194	C	0.596658	0.102970	0.406919
	C195	C	0.395475	0.912350	0.406526
	C196	C	0.594064	0.410394	0.100733
	C197	C	0.596213	0.607228	0.910551
	C198	C	0.396638	0.605978	0.100062
	C199	C	0.394742	0.407545	0.910320
	C200	C	0.088671	0.607031	0.406872
	C201	C	0.901401	0.606354	0.607090
	C202	C	0.090030	0.408458	0.605863
	C203	C	0.900344	0.405800	0.405623
	C204	C	0.896759	0.602448	0.105292
	C205	C	0.094833	0.412104	0.104980
	C206	C	0.095693	0.602441	0.907857
	C207	C	0.894833	0.412090	0.906737
	C208	C	0.094274	0.909766	0.601090
	C209	C	0.096260	0.106633	0.410113
	C210	C	0.896419	0.106238	0.601185
	C211	C	0.895566	0.906979	0.410733
	C212	C	0.589280	0.107973	0.905658
	C213	C	0.400397	0.108021	0.106611
	C214	C	0.589066	0.909021	0.104752
	C215	C	0.400428	0.907185	0.905446
	Zn216	Zn	0.494689	0.007628	0.754777
	Zn217	Zn	0.495309	0.008370	0.256469
	Zn218	Zn	0.745712	0.508243	0.006188
	Zn219	Zn	0.245621	0.507228	0.005664
	Zn220	Zn	-0.005204	0.758227	0.506476
	Zn221	Zn	-0.004290	0.256860	0.505410
	Zn222	Zn	-0.003989	0.507384	0.757185
	Zn223	Zn	-0.005183	0.506915	0.255623
	Zn224	Zn	0.495173	0.757093	0.005276
	Zn225	Zn	0.494378	0.258175	0.005941
	Zn226	Zn	0.746313	0.007611	0.505426
	Zn227	Zn	0.245686	0.007432	0.505743
	N228	N	0.410729	0.969490	0.682054
	N229	N	0.579997	0.045749	0.682426
	N230	N	0.580698	0.970784	0.327636
	N231	N	0.411195	0.045240	0.329503
	N232	N	0.673577	0.422597	0.968696
	N233	N	0.675712	0.595786	0.042370
	N234	N	0.316786	0.593336	0.968558
	N235	N	0.316326	0.421203	0.042696
	N236	N	0.957178	0.684961	0.421250
	N237	N	0.031989	0.687301	0.593099
	N238	N	0.958726	0.328582	0.591703
	N239	N	0.032270	0.328682	0.419568
	N240	N	0.958156	0.422676	0.683843
	N241	N	0.033129	0.593551	0.685137
	N242	N	0.957214	0.591856	0.328106
	N243	N	0.031969	0.421364	0.327106
	N244	N	0.411402	0.683681	0.967334
	N245	N	0.580836	0.685829	0.043089
	N246	N	0.578711	0.331636	0.968201
	N247	N	0.409392	0.330353	0.043119
	N248	N	0.675028	0.971005	0.418499
	N249	N	0.674636	0.044979	0.591580
	N250	N	0.315279	0.970899	0.593126
	N251	N	0.317135	0.044223	0.419740
	N252	N	0.910935	0.469421	0.182304
	N253	N	0.080466	0.544746	0.183949
	N254	N	0.080006	0.469885	0.829126
	N255	N	0.910979	0.544971	0.829407
	N256	N	0.173335	0.921672	0.468776
	N257	N	0.174670	0.094300	0.542550
	N258	N	0.818535	0.092639	0.468607
	N259	N	0.815785	0.920433	0.542511
	N260	N	0.457394	0.185327	0.920887
	N261	N	0.531440	0.188039	0.092586
	N262	N	0.457767	0.829029	0.091228
	N263	N	0.532130	0.829369	0.919522
	N264	N	0.457928	0.922801	0.183818
	N265	N	0.532295	0.094420	0.184577
	N266	N	0.457569	0.093108	0.826943
	N267	N	0.531953	0.922054	0.826577
	N268	N	0.911417	0.183642	0.468475
	N269	N	0.081793	0.186139	0.542419
	N270	N	0.079654	0.830083	0.468857
	N271	N	0.910022	0.830066	0.543862
	N272	N	0.173782	0.470171	0.919967
	N273	N	0.175000	0.544164	0.092830
	N274	N	0.815764	0.471108	0.093165
	N275	N	0.816910	0.544313	0.919744
	O276	O	0.473675	-0.474760	0.491061
	H277	H	0.467883	-0.475613	0.488355
	H278	H	0.467279	-0.465828	0.488326
	O279	O	0.527432	0.505803	0.480377
	H280	H	0.514749	0.504897	0.484206
	H281	H	0.520764	0.517601	0.478695
	O282	O	0.552220	0.532763	0.505316
	H283	H	0.543401	0.530993	0.504034
	H284	H	0.551820	0.524725	0.513896
	O285	O	0.431766	0.554412	0.505581
	H286	H	0.426591	0.549016	0.504932
	H287	H	0.434989	0.559501	0.509755
	O288	O	0.542283	0.560095	0.502989
	H289	H	0.550359	0.559656	0.500478
	H290	H	0.550303	0.557204	0.515151
	O291	O	0.492031	0.493284	0.454976
	H292	H	0.497033	0.493642	0.453809
	H293	H	0.498139	0.491570	0.451262
	O294	O	0.426370	0.550037	0.466543
	H295	H	0.428912	0.555859	0.460994
	H296	H	0.438759	0.550840	0.466593
	O297	O	0.928390	-0.067320	0.001145
	H298	H	0.920893	-0.074491	0.003130
	H299	H	0.929415	-0.072220	0.001812
