data_Molecule from HDF5

_cell_length_a		16.199285
_cell_length_b		16.334445
_cell_length_c		16.200654
_cell_angle_alpha	89.966967
_cell_angle_beta	89.971600
_cell_angle_gamma	90.018421
_symmetry_space_group_name_H-M	'P 1'
_symmetry_Int_Tables_number		1

loop_
	_symmetry_equiv_pos_as_xyz
	x,y,z

loop_
	_atom_site_label
	_atom_site_type_symbol
	_atom_site_fract_x
	_atom_site_fract_y
	_atom_site_fract_z
	H0	H	0.402895	0.835952	0.714274
	H1	H	0.598337	0.163348	0.714796
	H2	H	0.597518	0.837287	0.285524
	H3	H	0.402153	0.164189	0.285421
	H4	H	0.713016	0.403134	0.834827
	H5	H	0.712094	0.595696	0.165498
	H6	H	0.288107	0.595920	0.834989
	H7	H	0.287065	0.403219	0.165032
	H8	H	0.835945	0.715163	0.401874
	H9	H	0.164124	0.713769	0.598567
	H10	H	0.835366	0.285307	0.600211
	H11	H	0.164289	0.286772	0.401816
	H12	H	0.834690	0.403042	0.713002
	H13	H	0.164830	0.596015	0.711286
	H14	H	0.835304	0.597619	0.287508
	H15	H	0.164815	0.403823	0.287396
	H16	H	0.400809	0.714664	0.836196
	H17	H	0.599866	0.715100	0.163931
	H18	H	0.598204	0.286353	0.835448
	H19	H	0.401095	0.285955	0.164001
	H20	H	0.713833	0.836616	0.402336
	H21	H	0.712772	0.164818	0.597752
	H22	H	0.286980	0.835971	0.597737
	H23	H	0.285226	0.164044	0.401201
	H24	H	0.902417	0.336758	0.214233
	H25	H	0.097176	0.663822	0.213675
	H26	H	0.097451	0.336915	0.785514
	H27	H	0.901780	0.663657	0.785534
	H28	H	0.212988	0.903803	0.335005
	H29	H	0.213323	0.096805	0.665007
	H30	H	0.788277	0.097067	0.334673
	H31	H	0.787194	0.904141	0.665416
	H32	H	0.335280	0.213404	0.901191
	H33	H	0.663946	0.214704	0.099308
	H34	H	0.335641	0.785111	0.099181
	H35	H	0.663935	0.784588	0.899704
	H36	H	0.335208	0.903221	0.213313
	H37	H	0.665587	0.096117	0.211127
	H38	H	0.335025	0.094933	0.788713
	H39	H	0.665172	0.903651	0.788088
	H40	H	0.899700	0.215463	0.336054
	H41	H	0.097937	0.213620	0.664341
	H42	H	0.099556	0.785270	0.336102
	H43	H	0.900495	0.785457	0.664187
	H44	H	0.213148	0.336117	0.902703
	H45	H	0.214450	0.662843	0.098326
	H46	H	0.786279	0.336382	0.097967
	H47	H	0.786242	0.663555	0.902793
	H48	H	0.408798	0.113975	0.588873
	H49	H	0.591483	0.886153	0.589148
	H50	H	0.593920	0.114619	0.412726
	H51	H	0.402549	0.883790	0.409196
	H52	H	0.594175	0.397812	0.120216
	H53	H	0.600932	0.602322	0.877284
	H54	H	0.410578	0.594188	0.117413
	H55	H	0.416126	0.409796	0.885735
	H56	H	0.118479	0.592977	0.402577
	H57	H	0.881618	0.594479	0.593133
	H58	H	0.119932	0.400403	0.596735
	H59	H	0.880504	0.402329	0.408323
	H60	H	0.115666	0.404669	0.586226
	H61	H	0.882537	0.594263	0.590740
	H62	H	0.118604	0.598297	0.408443
	H63	H	0.884091	0.408624	0.411891
	H64	H	0.404996	0.595241	0.118935
	H65	H	0.597340	0.580162	0.884936
	H66	H	0.599179	0.411747	0.117539
	H67	H	0.406412	0.395872	0.879645
	H68	H	0.601314	0.120059	0.402574
	H69	H	0.600022	0.881993	0.592567
	H70	H	0.399683	0.118654	0.593814
	H71	H	0.407243	0.883277	0.401759
	H72	H	0.906671	0.616034	0.090544
	H73	H	0.087804	0.382118	0.103655
	H74	H	0.095131	0.617098	0.904189
	H75	H	0.919924	0.388163	0.908602
	H76	H	0.089194	0.909337	0.615568
	H77	H	0.093866	0.083153	0.384951
	H78	H	0.903319	0.086250	0.616234
	H79	H	0.907216	0.903906	0.382124
	H80	H	0.616255	0.095265	0.913758
	H81	H	0.382658	0.090099	0.096177
	H82	H	0.614761	0.913890	0.090994
	H83	H	0.384646	0.912192	0.907449
	H84	H	0.620258	0.903749	0.099954
	H85	H	0.381265	0.097660	0.093319
	H86	H	0.616714	0.088302	0.905418
	H87	H	0.380845	0.903341	0.902332
	H88	H	0.914847	0.095412	0.616107
	H89	H	0.083045	0.098328	0.384082
	H90	H	0.092376	0.900809	0.618966
	H91	H	0.905311	0.908969	0.382861
	H92	H	0.092020	0.616233	0.905836
	H93	H	0.090078	0.386911	0.084310
	H94	H	0.901728	0.617914	0.095227
	H95	H	0.896501	0.383662	0.917095
	H96	H	0.409131	0.117124	0.599824
	H97	H	0.591632	0.883239	0.598447
	H98	H	0.588193	0.116897	0.401363
	H99	H	0.410873	0.886080	0.409238
	H100	H	0.584870	0.407716	0.114393
	H101	H	0.579736	0.595931	0.886184
	H102	H	0.406617	0.590078	0.117059
	H103	H	0.398947	0.411746	0.881741
	H104	H	0.115992	0.591411	0.409845
	H105	H	0.882630	0.592029	0.592026
	H106	H	0.115825	0.411749	0.595628
	H107	H	0.881490	0.408799	0.403863
	H108	H	0.908454	0.617139	0.097151
	H109	H	0.105301	0.379594	0.094939
	H110	H	0.095464	0.616458	0.907458
	H111	H	0.902451	0.378792	0.893015
	H112	H	0.097827	0.908405	0.618760
	H113	H	0.100932	0.099335	0.378211
	H114	H	0.901886	0.099904	0.620858
	H115	H	0.911231	0.908287	0.384603
	H116	H	0.619960	0.098550	0.904088
	H117	H	0.383839	0.091538	0.087869
	H118	H	0.617383	0.900687	0.086023
	H119	H	0.382651	0.902188	0.912970
	C120	C	0.378199	0.008255	0.622214
	C121	C	0.622578	0.991790	0.621927
	C122	C	0.622373	0.008940	0.377617
	C123	C	0.378251	0.992366	0.378067
	C124	C	0.621431	0.378006	0.008494
	C125	C	0.621177	0.621073	0.991592
	C126	C	0.378991	0.620985	0.008876
	C127	C	0.378622	0.378221	0.991201
	C128	C	0.009033	0.622278	0.378703
	C129	C	0.990983	0.621698	0.620764
	C130	C	0.008178	0.377996	0.621478
	C131	C	0.990948	0.378546	0.378931
	C132	C	0.878154	0.508459	0.122072
	C133	C	0.121679	0.491563	0.121762
	C134	C	0.121969	0.508419	0.877866
	C135	C	0.878179	0.491813	0.878017
	C136	C	0.121725	0.878547	0.508889
	C137	C	0.120944	0.121323	0.491377
	C138	C	0.878460	0.122120	0.508482
	C139	C	0.878717	0.878856	0.491919
	C140	C	0.508432	0.121404	0.879176
	C141	C	0.491539	0.121295	0.120836
	C142	C	0.508583	0.878191	0.121420
	C143	C	0.491530	0.877682	0.878647
	C144	C	0.381690	0.884922	0.676613
	C145	C	0.619245	0.114698	0.677070
	C146	C	0.618588	0.885849	0.323119
	C147	C	0.381495	0.115343	0.323168
	C148	C	0.675741	0.381739	0.884296
	C149	C	0.675218	0.617493	0.115890
	C150	C	0.324915	0.617406	0.884420
	C151	C	0.324486	0.381855	0.115439
	C152	C	0.885114	0.677320	0.381233
	C153	C	0.115099	0.676031	0.618732
	C154	C	0.884535	0.323274	0.619883
	C155	C	0.115147	0.324254	0.381285
	C156	C	0.883910	0.382133	0.675672
	C157	C	0.115329	0.617947	0.674860
	C158	C	0.884615	0.618944	0.324472
	C159	C	0.115364	0.382568	0.324475
	C160	C	0.381080	0.676073	0.884962
	C161	C	0.619122	0.676214	0.115418
	C162	C	0.618740	0.323736	0.884470
	C163	C	0.380926	0.323707	0.115149
	C164	C	0.676616	0.885660	0.380831
	C165	C	0.676189	0.115372	0.618666
	C166	C	0.324353	0.884796	0.618528
	C167	C	0.323797	0.115539	0.381045
	C168	C	0.881344	0.385404	0.176693
	C169	C	0.118092	0.614959	0.175790
	C170	C	0.118147	0.385394	0.823695
	C171	C	0.880964	0.614740	0.823220
	C172	C	0.176015	0.882410	0.384329
	C173	C	0.175223	0.117528	0.615854
	C174	C	0.824899	0.118413	0.384075
	C175	C	0.824495	0.882636	0.615868
	C176	C	0.384595	0.176040	0.880700
	C177	C	0.615161	0.176332	0.119109
	C178	C	0.384690	0.823395	0.119491
	C179	C	0.615362	0.823055	0.880423
	C180	C	0.384343	0.881955	0.175999
	C181	C	0.616123	0.117252	0.174467
	C182	C	0.384309	0.117159	0.825010
	C183	C	0.615804	0.881918	0.824755
	C184	C	0.880468	0.177000	0.384781
	C185	C	0.118611	0.176007	0.615377
	C186	C	0.119798	0.823620	0.385161
	C187	C	0.880411	0.823400	0.615349
	C188	C	0.175700	0.385116	0.881672
	C189	C	0.176405	0.614411	0.118510
	C190	C	0.824056	0.385106	0.118496
	C191	C	0.823669	0.614800	0.881570
	C192	C	0.399470	0.094287	0.600501
	C193	C	0.600940	0.905938	0.599996
	C194	C	0.601076	0.094936	0.399219
	C195	C	0.400228	0.906645	0.400184
	C196	C	0.599418	0.399375	0.095128
	C197	C	0.599122	0.599228	0.905091
	C198	C	0.400946	0.599345	0.095407
	C199	C	0.400513	0.399494	0.904575
	C200	C	0.095229	0.600579	0.400430
	C201	C	0.904554	0.600088	0.598530
	C202	C	0.094822	0.399205	0.599466
	C203	C	0.904487	0.400117	0.401308
	C204	C	0.899384	0.594741	0.100796
	C205	C	0.100513	0.405236	0.100686
	C206	C	0.100516	0.594429	0.899400
	C207	C	0.899843	0.405763	0.899760
	C208	C	0.099680	0.899912	0.595300
	C209	C	0.099134	0.099800	0.404921
	C210	C	0.900330	0.100376	0.595231
	C211	C	0.901278	0.900710	0.405159
	C212	C	0.595190	0.100267	0.901310
	C213	C	0.404915	0.099457	0.099006
	C214	C	0.595038	0.899662	0.098986
	C215	C	0.405076	0.899493	0.901015
	Zn216	Zn	0.500205	-0.000112	0.750827
	Zn217	Zn	0.499966	0.000447	0.249082
	Zn218	Zn	0.749594	0.499594	-0.000019
	Zn219	Zn	0.250849	0.499699	-0.000101
	Zn220	Zn	-0.000009	0.750256	0.500615
	Zn221	Zn	-0.000558	0.249609	0.500078
	Zn222	Zn	-0.000294	0.500151	0.748550
	Zn223	Zn	-0.000366	0.500386	0.250830
	Zn224	Zn	0.500116	0.749430	0.000020
	Zn225	Zn	0.499539	0.249746	0.000115
	Zn226	Zn	0.750787	0.000654	0.499877
	Zn227	Zn	0.249500	0.000021	0.499776
	N228	N	0.414768	0.962568	0.678677
	N229	N	0.586359	0.037005	0.679068
	N230	N	0.585706	0.963416	0.320979
	N231	N	0.414726	0.037894	0.321436
	N232	N	0.677215	0.414974	0.962225
	N233	N	0.676456	0.583778	0.038023
	N234	N	0.323709	0.583804	0.962334
	N235	N	0.323122	0.415085	0.037490
	N236	N	0.963198	0.679661	0.414119
	N237	N	0.036828	0.678576	0.585971
	N238	N	0.962672	0.320689	0.586721
	N239	N	0.036914	0.321631	0.414503
	N240	N	0.961861	0.415498	0.676725
	N241	N	0.037244	0.584652	0.676149
	N242	N	0.962489	0.585466	0.322832
	N243	N	0.037187	0.415567	0.322972
	N244	N	0.413951	0.678516	0.963175
	N245	N	0.586445	0.678629	0.037118
	N246	N	0.585523	0.321391	0.962670
	N247	N	0.413986	0.321505	0.036947
	N248	N	0.678898	0.963160	0.414059
	N249	N	0.678279	0.038071	0.584980
	N250	N	0.321850	0.962485	0.585486
	N251	N	0.321640	0.038016	0.414376
	N252	N	0.914387	0.462973	0.178673
	N253	N	0.084671	0.537595	0.177774
	N254	N	0.085516	0.463105	0.821037
	N255	N	0.914193	0.537211	0.821056
	N256	N	0.177439	0.915607	0.462338
	N257	N	0.176955	0.084452	0.537727
	N258	N	0.823580	0.084890	0.461968
	N259	N	0.823717	0.916463	0.538188
	N260	N	0.462765	0.178663	0.913739
	N261	N	0.536804	0.178948	0.086373
	N262	N	0.462758	0.821041	0.086030
	N263	N	0.537002	0.820306	0.913463
	N264	N	0.462342	0.915361	0.177283
	N265	N	0.538234	0.083664	0.175697
	N266	N	0.462305	0.083793	0.823988
	N267	N	0.537886	0.914958	0.823330
	N268	N	0.913183	0.179237	0.463197
	N269	N	0.085424	0.178254	0.537279
	N270	N	0.086374	0.821492	0.463199
	N271	N	0.913544	0.821184	0.537117
	N272	N	0.178018	0.462528	0.914761
	N273	N	0.178776	0.536808	0.085729
	N274	N	0.821825	0.462760	0.085527
	N275	N	0.822099	0.537398	0.914945
