data_Molecule from HDF5

_cell_length_a		16.374572
_cell_length_b		16.120270
_cell_length_c		16.072734
_cell_angle_alpha	90.294820
_cell_angle_beta	90.104531
_cell_angle_gamma	90.110368
_symmetry_space_group_name_H-M	'P 1'
_symmetry_Int_Tables_number		1

loop_
	_symmetry_equiv_pos_as_xyz
	x,y,z

loop_
	_atom_site_label
	_atom_site_type_symbol
	_atom_site_fract_x
	_atom_site_fract_y
	_atom_site_fract_z
	H0	H	0.401678	0.835074	0.709804
	H1	H	0.595594	0.166137	0.710754
	H2	H	0.596662	0.835158	0.282899
	H3	H	0.403714	0.167146	0.289093
	H4	H	0.715208	0.396929	0.833953
	H5	H	0.716636	0.602666	0.163546
	H6	H	0.282421	0.600055	0.834945
	H7	H	0.286095	0.398432	0.164932
	H8	H	0.837048	0.714156	0.401351
	H9	H	0.162886	0.716068	0.601898
	H10	H	0.837205	0.282764	0.601295
	H11	H	0.162733	0.284070	0.401311
	H12	H	0.835567	0.402816	0.713641
	H13	H	0.162495	0.599064	0.715719
	H14	H	0.837207	0.599325	0.284591
	H15	H	0.162512	0.399594	0.285234
	H16	H	0.402297	0.710530	0.832579
	H17	H	0.598780	0.715344	0.164489
	H18	H	0.594886	0.287539	0.832301
	H19	H	0.403308	0.289343	0.164419
	H20	H	0.714008	0.835039	0.395573
	H21	H	0.718589	0.162486	0.603051
	H22	H	0.284537	0.835512	0.598814
	H23	H	0.282545	0.163144	0.396681
	H24	H	0.904067	0.332386	0.210659
	H25	H	0.097131	0.665443	0.213674
	H26	H	0.095539	0.334205	0.786694
	H27	H	0.904785	0.665732	0.791019
	H28	H	0.213942	0.896985	0.333586
	H29	H	0.216678	0.100004	0.663840
	H30	H	0.784514	0.099191	0.334555
	H31	H	0.782276	0.894901	0.662530
	H32	H	0.335701	0.214577	0.899345
	H33	H	0.662059	0.215870	0.097374
	H34	H	0.337250	0.785649	0.096544
	H35	H	0.662315	0.783384	0.895990
	H36	H	0.336553	0.904070	0.210949
	H37	H	0.662080	0.102810	0.215216
	H38	H	0.336686	0.098296	0.782965
	H39	H	0.662304	0.900894	0.781868
	H40	H	0.902234	0.211011	0.334059
	H41	H	0.096108	0.210885	0.666619
	H42	H	0.096235	0.785800	0.333702
	H43	H	0.905000	0.791197	0.666475
	H44	H	0.213227	0.334214	0.899730
	H45	H	0.217348	0.663119	0.104405
	H46	H	0.783191	0.334826	0.099539
	H47	H	0.784234	0.662923	0.897843
	H48	H	0.407362	0.118737	0.590744
	H49	H	0.604926	0.879472	0.585186
	H50	H	0.585802	0.114860	0.409759
	H51	H	0.409811	0.881333	0.401051
	H52	H	0.590913	0.406993	0.116984
	H53	H	0.595615	0.604295	0.875548
	H54	H	0.405255	0.589126	0.117789
	H55	H	0.410147	0.412703	0.882868
	H56	H	0.115839	0.596892	0.414397
	H57	H	0.885621	0.596222	0.590229
	H58	H	0.114533	0.409209	0.596504
	H59	H	0.883209	0.411327	0.400358
	H60	H	0.117477	0.404078	0.595862
	H61	H	0.883607	0.590960	0.597669
	H62	H	0.113749	0.586268	0.408040
	H63	H	0.880329	0.397879	0.403953
	H64	H	0.411592	0.592570	0.116492
	H65	H	0.604864	0.580881	0.880383
	H66	H	0.596457	0.409527	0.118193
	H67	H	0.405536	0.399873	0.877742
	H68	H	0.598937	0.117512	0.415249
	H69	H	0.587702	0.879216	0.600125
	H70	H	0.407817	0.117894	0.588773
	H71	H	0.406598	0.882180	0.408760
	H72	H	0.899049	0.621671	0.098536
	H73	H	0.096675	0.379284	0.095682
	H74	H	0.086800	0.613416	0.915408
	H75	H	0.905051	0.378735	0.903555
	H76	H	0.096532	0.900692	0.621263
	H77	H	0.086278	0.085099	0.383113
	H78	H	0.904888	0.088309	0.618850
	H79	H	0.912300	0.902527	0.381159
	H80	H	0.616605	0.094831	0.902031
	H81	H	0.379632	0.101103	0.098751
	H82	H	0.619474	0.901014	0.095043
	H83	H	0.383176	0.906576	0.903119
	H84	H	0.613154	0.907175	0.080504
	H85	H	0.382676	0.098065	0.087087
	H86	H	0.615816	0.096568	0.907826
	H87	H	0.383477	0.905176	0.904622
	H88	H	0.909398	0.088457	0.617268
	H89	H	0.090414	0.098035	0.379059
	H90	H	0.101332	0.913259	0.618013
	H91	H	0.900448	0.900495	0.376781
	H92	H	0.102280	0.619573	0.913851
	H93	H	0.089951	0.381422	0.092871
	H94	H	0.916860	0.616234	0.096594
	H95	H	0.909676	0.382278	0.909361
	H96	H	0.405769	0.118388	0.589262
	H97	H	0.584784	0.887077	0.579038
	H98	H	0.596496	0.121166	0.401605
	H99	H	0.400850	0.879836	0.401660
	H100	H	0.591478	0.412977	0.115465
	H101	H	0.580067	0.586417	0.885750
	H102	H	0.406213	0.596490	0.118838
	H103	H	0.396415	0.411267	0.878077
	H104	H	0.118210	0.595368	0.401757
	H105	H	0.881094	0.599984	0.598521
	H106	H	0.115172	0.406226	0.591467
	H107	H	0.886083	0.407323	0.414022
	H108	H	0.904926	0.613610	0.080496
	H109	H	0.096488	0.381928	0.087594
	H110	H	0.091715	0.620559	0.900877
	H111	H	0.902929	0.380922	0.911072
	H112	H	0.087672	0.910750	0.615712
	H113	H	0.100152	0.087689	0.380543
	H114	H	0.907111	0.093915	0.618050
	H115	H	0.904494	0.911863	0.381088
	H116	H	0.614574	0.091698	0.907025
	H117	H	0.384818	0.090192	0.095635
	H118	H	0.614486	0.917839	0.095247
	H119	H	0.383227	0.906716	0.905226
	C120	C	0.378830	0.008989	0.618213
	C121	C	0.621858	0.990751	0.619380
	C122	C	0.621545	0.008743	0.377569
	C123	C	0.377693	0.990522	0.376144
	C124	C	0.620964	0.379368	0.007239
	C125	C	0.622164	0.621310	0.989976
	C126	C	0.378169	0.621108	0.008298
	C127	C	0.377321	0.379259	0.989695
	C128	C	0.008473	0.621687	0.378923
	C129	C	0.991258	0.623668	0.623865
	C130	C	0.007834	0.377896	0.623133
	C131	C	0.990995	0.376509	0.377797
	C132	C	0.878239	0.507953	0.120860
	C133	C	0.122198	0.490372	0.121761
	C134	C	0.121268	0.508512	0.879855
	C135	C	0.878296	0.490022	0.879151
	C136	C	0.121958	0.878273	0.508456
	C137	C	0.121617	0.120139	0.490367
	C138	C	0.878427	0.119311	0.508712
	C139	C	0.878210	0.877644	0.489856
	C140	C	0.507868	0.122619	0.876478
	C141	C	0.490306	0.124718	0.122046
	C142	C	0.508368	0.879757	0.119302
	C143	C	0.490971	0.877104	0.874999
	C144	C	0.381490	0.884374	0.672849
	C145	C	0.618096	0.115802	0.674487
	C146	C	0.617667	0.884544	0.320753
	C147	C	0.381732	0.116404	0.324126
	C148	C	0.676387	0.378838	0.882976
	C149	C	0.678321	0.621643	0.114185
	C150	C	0.321184	0.619625	0.884183
	C151	C	0.323954	0.380290	0.115019
	C152	C	0.885789	0.676301	0.381500
	C153	C	0.113916	0.678392	0.621601
	C154	C	0.885541	0.321578	0.621313
	C155	C	0.113810	0.321478	0.380775
	C156	C	0.884828	0.381435	0.677286
	C157	C	0.113739	0.620419	0.678753
	C158	C	0.885874	0.619015	0.323163
	C159	C	0.113767	0.379031	0.323017
	C160	C	0.380992	0.674172	0.882621
	C161	C	0.619775	0.678024	0.114521
	C162	C	0.616712	0.324339	0.882160
	C163	C	0.382294	0.325807	0.115006
	C164	C	0.676251	0.884383	0.376643
	C165	C	0.678994	0.114016	0.620742
	C166	C	0.323128	0.884702	0.617396
	C167	C	0.321382	0.114511	0.377643
	C168	C	0.881894	0.382666	0.174587
	C169	C	0.118302	0.615521	0.176762
	C170	C	0.116888	0.383764	0.824323
	C171	C	0.882641	0.615602	0.826177
	C172	C	0.176166	0.878310	0.383199
	C173	C	0.177820	0.119251	0.614853
	C174	C	0.822785	0.118319	0.383973
	C175	C	0.821838	0.878129	0.613879
	C176	C	0.384797	0.176988	0.878935
	C177	C	0.613293	0.179023	0.118534
	C178	C	0.385734	0.824015	0.116963
	C179	C	0.613464	0.821607	0.876344
	C180	C	0.385425	0.882978	0.173685
	C181	C	0.613180	0.122507	0.177135
	C182	C	0.385161	0.119211	0.821057
	C183	C	0.613505	0.879943	0.819420
	C184	C	0.881330	0.174006	0.383641
	C185	C	0.117862	0.174409	0.616341
	C186	C	0.117508	0.822951	0.383421
	C187	C	0.882882	0.826202	0.615954
	C188	C	0.175416	0.383852	0.880570
	C189	C	0.178180	0.614394	0.122329
	C190	C	0.822055	0.383758	0.119097
	C191	C	0.822907	0.614215	0.879353
	C192	C	0.400559	0.095855	0.596056
	C193	C	0.598965	0.904254	0.595185
	C194	C	0.600180	0.095430	0.401827
	C195	C	0.399390	0.903623	0.397388
	C196	C	0.599235	0.402828	0.094360
	C197	C	0.599971	0.597543	0.903105
	C198	C	0.400959	0.599185	0.095156
	C199	C	0.397896	0.401308	0.902240
	C200	C	0.093816	0.599257	0.401437
	C201	C	0.905469	0.601908	0.601868
	C202	C	0.093509	0.399830	0.601027
	C203	C	0.905334	0.398779	0.399658
	C204	C	0.900509	0.594623	0.098620
	C205	C	0.100693	0.403327	0.098821
	C206	C	0.099859	0.595386	0.903233
	C207	C	0.899624	0.403211	0.901301
	C208	C	0.101357	0.901386	0.595772
	C209	C	0.099078	0.097203	0.403349
	C210	C	0.900476	0.096870	0.595665
	C211	C	0.899374	0.898910	0.402406
	C212	C	0.593398	0.100721	0.898940
	C213	C	0.404503	0.102842	0.100282
	C214	C	0.593664	0.901940	0.096698
	C215	C	0.405611	0.899513	0.897797
	Zn216	Zn	0.499493	0.000041	0.746688
	Zn217	Zn	0.499502	0.001705	0.249270
	Zn218	Zn	0.749629	0.499065	-0.001748
	Zn219	Zn	0.250541	0.499168	0.000475
	Zn220	Zn	-0.000149	0.751873	0.500895
	Zn221	Zn	-0.000900	0.248161	0.500456
	Zn222	Zn	-0.001133	0.500599	0.752157
	Zn223	Zn	0.000483	0.499156	0.249432
	Zn224	Zn	0.500044	0.748943	-0.002035
	Zn225	Zn	0.498493	0.252163	-0.001528
	Zn226	Zn	0.750376	-0.002074	0.498488
	Zn227	Zn	0.250465	-0.001307	0.497886
	N228	N	0.415540	0.962504	0.673310
	N229	N	0.583351	0.037925	0.673799
	N230	N	0.584426	0.962994	0.320978
	N231	N	0.416012	0.038401	0.322955
	N232	N	0.678947	0.412285	0.961982
	N233	N	0.679825	0.587092	0.035605
	N234	N	0.319136	0.587299	0.963328
	N235	N	0.320636	0.412591	0.036021
	N236	N	0.962963	0.678161	0.415407
	N237	N	0.036458	0.680737	0.588240
	N238	N	0.963114	0.319209	0.588329
	N239	N	0.036418	0.319781	0.414219
	N240	N	0.961888	0.415589	0.678460
	N241	N	0.036439	0.587253	0.680455
	N242	N	0.963257	0.585539	0.321405
	N243	N	0.036422	0.412304	0.320864
	N244	N	0.415608	0.675402	0.960740
	N245	N	0.585372	0.677773	0.036343
	N246	N	0.582956	0.324455	0.960501
	N247	N	0.414887	0.324869	0.036077
	N248	N	0.678692	0.962606	0.411351
	N249	N	0.681393	0.035199	0.587154
	N250	N	0.321221	0.963220	0.584234
	N251	N	0.318697	0.035391	0.409314
	N252	N	0.916265	0.460737	0.175716
	N253	N	0.084418	0.537192	0.177028
	N254	N	0.083778	0.462333	0.823780
	N255	N	0.916417	0.537443	0.825688
	N256	N	0.179238	0.911991	0.462007
	N257	N	0.180313	0.086300	0.535539
	N258	N	0.820993	0.084923	0.462617
	N259	N	0.818698	0.909448	0.534358
	N260	N	0.462048	0.179171	0.912683
	N261	N	0.535910	0.180679	0.085030
	N262	N	0.463225	0.821719	0.083718
	N263	N	0.536210	0.819622	0.910021
	N264	N	0.462561	0.916766	0.175342
	N265	N	0.535627	0.089523	0.179417
	N266	N	0.462506	0.086090	0.819278
	N267	N	0.536357	0.913721	0.818372
	N268	N	0.915033	0.174982	0.462149
	N269	N	0.083519	0.175139	0.538020
	N270	N	0.084684	0.822854	0.462320
	N271	N	0.917139	0.825501	0.537858
	N272	N	0.178413	0.462346	0.914340
	N273	N	0.180735	0.535693	0.089006
	N274	N	0.819413	0.462672	0.086621
	N275	N	0.820104	0.535333	0.911657
	O276	O	0.058016	-0.028498	-0.069189
	H277	H	0.068772	-0.026931	-0.071803
	H278	H	0.062394	-0.036971	-0.060145
	O279	O	0.585495	0.561098	0.586011
	H280	H	0.590630	0.547163	0.589730
	H281	H	0.576240	0.560002	0.603597
	O282	O	0.432183	0.423871	0.589188
	H283	H	0.436412	0.409694	0.574877
	H284	H	0.438488	0.436150	0.578548
	O285	O	0.013985	1.001233	1.053098
	H286	H	0.019368	1.001964	1.059812
	H287	H	0.002552	1.005464	1.050204
	O288	O	0.461072	0.481312	0.415999
	H289	H	0.459173	0.486596	0.405773
	H290	H	0.480611	0.468480	0.419942
	O291	O	0.968142	0.954896	1.037032
	H292	H	0.971897	0.941647	1.028880
	H293	H	0.961918	0.957195	1.041532
	O294	O	0.616128	1.406711	0.471155
	H295	H	0.614705	1.397418	0.469917
	H296	H	0.596720	1.402850	0.467388
	O297	O	1.006484	-0.031284	1.044724
	H298	H	0.997819	-0.033748	1.048197
	H299	H	1.002985	-0.035782	1.041486
	O300	O	0.429888	0.514712	0.502759
	H301	H	0.444910	0.509169	0.512570
	H302	H	0.426380	0.520690	0.498980
	O303	O	1.112724	0.050809	0.035111
	H304	H	1.124411	0.048478	0.037394
	H305	H	1.110843	0.055157	0.038946
	O306	O	-0.085239	1.007779	0.972800
	H307	H	-0.090884	1.017139	0.968703
	H308	H	-0.092359	1.011190	0.976033
	O309	O	0.361555	0.407039	0.630569
	H310	H	0.361187	0.410553	0.621887
	H311	H	0.344494	0.402695	0.643471
	O312	O	1.009008	-0.034838	0.994647
	H313	H	1.012932	-0.043729	0.997458
	H314	H	1.010827	-0.034835	0.992301
	O315	O	0.617672	0.371442	0.470107
	H316	H	0.624770	0.363492	0.469857
	H317	H	0.616866	0.381712	0.463405
	O318	O	0.375000	0.634761	0.480525
	H319	H	0.376227	0.634246	0.468804
	H320	H	0.376755	0.643663	0.491088
	O321	O	0.957901	0.982018	1.007413
	H322	H	0.960489	0.973557	1.000031
	H323	H	0.961808	0.984703	1.002364
	O324	O	0.470296	0.418802	0.457227
	H325	H	0.463744	0.412243	0.459644
	H326	H	0.470573	0.419972	0.466862
	O327	O	0.611516	0.527986	0.587402
	H328	H	0.623730	0.540867	0.588779
	H329	H	0.602518	0.507491	0.596620
	O330	O	0.961030	0.003351	1.057973
	H331	H	0.968531	-0.006812	1.073761
	H332	H	0.972069	0.002282	1.056190
	O333	O	0.956981	1.020994	-0.044527
	H334	H	0.958587	1.026429	-0.048488
	H335	H	0.957256	1.026574	-0.043016
	O336	O	0.595273	0.515067	0.443540
	H337	H	0.594765	0.504230	0.439098
	H338	H	0.610426	0.520564	0.446470
	O339	O	0.401686	0.526660	0.446738
	H340	H	0.401753	0.532514	0.438331
	H341	H	0.401501	0.524135	0.437082
	O342	O	-0.008037	1.008895	-0.021731
	H343	H	0.009530	1.005621	-0.025679
	H344	H	-0.015808	1.008790	-0.030550
	O345	O	0.023470	-0.063258	-0.072496
	H346	H	0.002309	-0.060671	-0.071223
	H347	H	0.033094	-0.069290	-0.070164
	O348	O	0.548338	0.460903	0.368809
	H349	H	0.547904	0.468546	0.371651
	H350	H	0.561757	0.465883	0.353512
	O351	O	0.614502	0.434692	0.389883
	H352	H	0.621772	0.431735	0.386127
	H353	H	0.617773	0.455096	0.396873
	O354	O	0.475299	0.611169	0.598893
	H355	H	0.474541	0.615540	0.593675
	H356	H	0.471631	0.595379	0.601694
	O357	O	0.513706	0.603684	0.552897
	H358	H	0.500836	0.602819	0.551192
	H359	H	0.516113	0.609407	0.566332
	O360	O	-0.037713	0.029981	0.014003
	H361	H	-0.050779	0.035036	0.000048
	H362	H	-0.029604	0.038488	0.014616
	O363	O	0.454668	0.616151	0.393473
	H364	H	0.446172	0.622362	0.397320
	H365	H	0.455116	0.625780	0.393661
	O366	O	0.040002	-0.015769	1.075731
	H367	H	0.037012	-0.018075	1.081366
	H368	H	0.028084	-0.007331	1.068991
	O369	O	0.473521	0.461504	0.520447
	H370	H	0.471296	0.449671	0.506515
	H371	H	0.477211	0.453801	0.531397
