data_Molecule from HDF5

_cell_length_a		16.237721
_cell_length_b		16.267739
_cell_length_c		16.245642
_cell_angle_alpha	90.072693
_cell_angle_beta	89.951985
_cell_angle_gamma	90.012768
_symmetry_space_group_name_H-M	'P 1'
_symmetry_Int_Tables_number		1

loop_
	_symmetry_equiv_pos_as_xyz
	x,y,z

loop_
	_atom_site_label
	_atom_site_type_symbol
	_atom_site_fract_x
	_atom_site_fract_y
	_atom_site_fract_z
	H0	H	0.402893	0.836029	0.713271
	H1	H	0.597991	0.164526	0.713688
	H2	H	0.598219	0.835771	0.287074
	H3	H	0.402103	0.164059	0.286408
	H4	H	0.713375	0.402852	0.835868
	H5	H	0.713179	0.597591	0.163895
	H6	H	0.285681	0.597546	0.835746
	H7	H	0.285722	0.402696	0.164275
	H8	H	0.836166	0.713570	0.401449
	H9	H	0.164065	0.713724	0.597576
	H10	H	0.836306	0.285967	0.597451
	H11	H	0.164196	0.285395	0.400058
	H12	H	0.835147	0.401712	0.713335
	H13	H	0.164642	0.597336	0.712930
	H14	H	0.835770	0.597788	0.286448
	H15	H	0.163822	0.400359	0.284172
	H16	H	0.401407	0.713780	0.835511
	H17	H	0.597391	0.713671	0.164049
	H18	H	0.596763	0.287191	0.835617
	H19	H	0.400708	0.285810	0.164061
	H20	H	0.713851	0.835748	0.402643
	H21	H	0.714194	0.163831	0.598148
	H22	H	0.287355	0.835881	0.597430
	H23	H	0.286858	0.164152	0.403319
	H24	H	0.901365	0.336350	0.213887
	H25	H	0.097866	0.663891	0.213803
	H26	H	0.098062	0.335869	0.785514
	H27	H	0.902312	0.664534	0.786553
	H28	H	0.215002	0.901803	0.336264
	H29	H	0.212679	0.096710	0.665097
	H30	H	0.786833	0.097230	0.335474
	H31	H	0.786474	0.902574	0.664233
	H32	H	0.335950	0.213173	0.903819
	H33	H	0.664100	0.215087	0.099234
	H34	H	0.335802	0.786804	0.097347
	H35	H	0.664088	0.786591	0.901208
	H36	H	0.335674	0.902399	0.214196
	H37	H	0.665378	0.096733	0.212686
	H38	H	0.335685	0.097459	0.787836
	H39	H	0.664479	0.903453	0.786168
	H40	H	0.901961	0.213788	0.335585
	H41	H	0.098434	0.214806	0.664036
	H42	H	0.098401	0.786163	0.335401
	H43	H	0.902118	0.785955	0.664462
	H44	H	0.213806	0.335055	0.901503
	H45	H	0.214114	0.663234	0.098027
	H46	H	0.785709	0.336499	0.097517
	H47	H	0.786312	0.664100	0.902226
	H48	H	0.404544	0.114004	0.582815
	H49	H	0.586705	0.884194	0.596276
	H50	H	0.597685	0.118785	0.404280
	H51	H	0.404164	0.880664	0.400581
	H52	H	0.583496	0.409232	0.113826
	H53	H	0.590174	0.589310	0.884632
	H54	H	0.408139	0.591170	0.115844
	H55	H	0.404466	0.412882	0.884015
	H56	H	0.117175	0.586997	0.400721
	H57	H	0.884455	0.588912	0.594051
	H58	H	0.119581	0.402068	0.594162
	H59	H	0.882287	0.407554	0.403241
	H60	H	0.114684	0.409122	0.587003
	H61	H	0.880977	0.596264	0.597043
	H62	H	0.120350	0.600881	0.404183
	H63	H	0.882509	0.403774	0.407797
	H64	H	0.407743	0.597292	0.117596
	H65	H	0.590721	0.599305	0.881780
	H66	H	0.595285	0.397740	0.120846
	H67	H	0.412723	0.403720	0.884060
	H68	H	0.589990	0.116770	0.404074
	H69	H	0.595128	0.884622	0.586617
	H70	H	0.396794	0.121400	0.600692
	H71	H	0.413867	0.885382	0.407253
	H72	H	0.902396	0.617915	0.092150
	H73	H	0.095773	0.381443	0.093195
	H74	H	0.093158	0.618929	0.897044
	H75	H	0.902214	0.378921	0.896341
	H76	H	0.095954	0.907842	0.617486
	H77	H	0.095957	0.092000	0.382659
	H78	H	0.914997	0.096609	0.615286
	H79	H	0.907656	0.904206	0.382180
	H80	H	0.617561	0.092893	0.907892
	H81	H	0.382130	0.101298	0.088900
	H82	H	0.617544	0.912924	0.099925
	H83	H	0.384056	0.911989	0.905818
	H84	H	0.620791	0.897427	0.096936
	H85	H	0.386903	0.084873	0.088843
	H86	H	0.617860	0.092923	0.904718
	H87	H	0.380600	0.903809	0.902100
	H88	H	0.901156	0.099871	0.619942
	H89	H	0.091151	0.090691	0.383711
	H90	H	0.090298	0.907378	0.616012
	H91	H	0.904650	0.906050	0.382874
	H92	H	0.085144	0.613015	0.910783
	H93	H	0.090635	0.382552	0.095036
	H94	H	0.906923	0.618144	0.097955
	H95	H	0.917514	0.386686	0.906651
	H96	H	0.417176	0.115946	0.599296
	H97	H	0.598588	0.880349	0.597707
	H98	H	0.594112	0.115626	0.410412
	H99	H	0.402633	0.883905	0.412786
	H100	H	0.600792	0.415005	0.116872
	H101	H	0.599846	0.593231	0.881443
	H102	H	0.402222	0.593648	0.117916
	H103	H	0.401485	0.401398	0.880311
	H104	H	0.115443	0.592468	0.414672
	H105	H	0.883107	0.595200	0.588937
	H106	H	0.116468	0.412672	0.597414
	H107	H	0.884110	0.408867	0.409057
	H108	H	0.909064	0.615754	0.091966
	H109	H	0.092054	0.384248	0.089489
	H110	H	0.101634	0.617278	0.911283
	H111	H	0.899124	0.383829	0.915175
	H112	H	0.093682	0.902735	0.617900
	H113	H	0.092587	0.096270	0.383086
	H114	H	0.904494	0.086549	0.615768
	H115	H	0.907797	0.907560	0.383696
	H116	H	0.617959	0.095949	0.906849
	H117	H	0.380681	0.092889	0.103332
	H118	H	0.615009	0.907426	0.085332
	H119	H	0.383165	0.904833	0.911587
	C120	C	0.378179	0.008647	0.622261
	C121	C	0.621519	0.991505	0.621902
	C122	C	0.621956	0.008298	0.378616
	C123	C	0.378732	0.992086	0.378901
	C124	C	0.621137	0.378845	0.008828
	C125	C	0.621428	0.621862	0.991322
	C126	C	0.378040	0.621659	0.008159
	C127	C	0.377955	0.378120	0.991157
	C128	C	0.008641	0.621166	0.378457
	C129	C	0.991506	0.621563	0.621614
	C130	C	0.008529	0.378875	0.621482
	C131	C	0.991520	0.378398	0.378251
	C132	C	0.878074	0.508931	0.121790
	C133	C	0.121100	0.491333	0.121269
	C134	C	0.121350	0.507617	0.878105
	C135	C	0.878097	0.491797	0.878031
	C136	C	0.121880	0.877864	0.508341
	C137	C	0.121622	0.121700	0.491705
	C138	C	0.878789	0.121722	0.508361
	C139	C	0.878613	0.878153	0.491870
	C140	C	0.509103	0.121907	0.878693
	C141	C	0.491824	0.121374	0.121929
	C142	C	0.508901	0.878136	0.121920
	C143	C	0.491362	0.878862	0.878328
	C144	C	0.382099	0.884988	0.675794
	C145	C	0.618811	0.115359	0.676134
	C146	C	0.618674	0.884613	0.324614
	C147	C	0.381796	0.115153	0.324425
	C148	C	0.675456	0.381898	0.884808
	C149	C	0.675387	0.618240	0.114984
	C150	C	0.323410	0.618192	0.884678
	C151	C	0.323081	0.381137	0.115194
	C152	C	0.884770	0.675715	0.381365
	C153	C	0.115340	0.675992	0.618388
	C154	C	0.884769	0.324166	0.617999
	C155	C	0.115214	0.323374	0.380244
	C156	C	0.884448	0.381451	0.675775
	C157	C	0.115311	0.618272	0.675810
	C158	C	0.884921	0.618252	0.324113
	C159	C	0.115070	0.380524	0.322618
	C160	C	0.380751	0.676200	0.884628
	C161	C	0.618198	0.676113	0.114975
	C162	C	0.617730	0.324568	0.884689
	C163	C	0.380366	0.323377	0.115083
	C164	C	0.676039	0.884748	0.382115
	C165	C	0.676670	0.115023	0.618969
	C166	C	0.324251	0.885038	0.618549
	C167	C	0.324071	0.115096	0.382041
	C168	C	0.881101	0.385087	0.175941
	C169	C	0.118221	0.614896	0.175808
	C170	C	0.118713	0.384698	0.822894
	C171	C	0.881202	0.615250	0.823780
	C172	C	0.176857	0.881290	0.384955
	C173	C	0.175918	0.118483	0.615600
	C174	C	0.824258	0.118438	0.384589
	C175	C	0.824206	0.881738	0.615533
	C176	C	0.384994	0.175912	0.882378
	C177	C	0.615230	0.176905	0.119502
	C178	C	0.384628	0.823969	0.118303
	C179	C	0.615259	0.824390	0.880878
	C180	C	0.384810	0.881091	0.176587
	C181	C	0.616082	0.118014	0.175834
	C182	C	0.384705	0.118106	0.825182
	C183	C	0.615389	0.882130	0.823901
	C184	C	0.881751	0.176110	0.384407
	C185	C	0.119019	0.176817	0.615403
	C186	C	0.119036	0.823751	0.384559
	C187	C	0.881626	0.823845	0.615365
	C188	C	0.175945	0.384414	0.880880
	C189	C	0.176000	0.614555	0.118304
	C190	C	0.823690	0.385347	0.118330
	C191	C	0.823719	0.615256	0.881478
	C192	C	0.399894	0.095026	0.600616
	C193	C	0.599866	0.905506	0.600040
	C194	C	0.600252	0.094822	0.399913
	C195	C	0.400442	0.905403	0.400566
	C196	C	0.599560	0.400650	0.094819
	C197	C	0.600021	0.600352	0.904745
	C198	C	0.399540	0.600335	0.094742
	C199	C	0.399832	0.399659	0.905214
	C200	C	0.095173	0.599665	0.400228
	C201	C	0.905056	0.600014	0.599860
	C202	C	0.094619	0.401240	0.599282
	C203	C	0.905382	0.400287	0.400154
	C204	C	0.899765	0.595080	0.100421
	C205	C	0.099155	0.405006	0.099131
	C206	C	0.099841	0.594424	0.900066
	C207	C	0.899844	0.405311	0.899616
	C208	C	0.099904	0.899515	0.594808
	C209	C	0.099588	0.099666	0.405539
	C210	C	0.900522	0.100553	0.594662
	C211	C	0.900235	0.899568	0.405217
	C212	C	0.595462	0.100309	0.900106
	C213	C	0.405555	0.099391	0.100184
	C214	C	0.595315	0.899576	0.100484
	C215	C	0.404868	0.900485	0.900071
	Zn216	Zn	0.500153	0.000378	0.750232
	Zn217	Zn	0.500429	0.000087	0.250180
	Zn218	Zn	0.750006	0.500228	-0.000476
	Zn219	Zn	0.249802	0.499315	-0.000162
	Zn220	Zn	-0.000011	0.749375	0.500076
	Zn221	Zn	0.000588	0.250220	0.499831
	Zn222	Zn	-0.000169	0.499828	0.749799
	Zn223	Zn	-0.000028	0.499916	0.250023
	Zn224	Zn	0.500007	0.750491	-0.000578
	Zn225	Zn	0.499822	0.250154	0.000376
	Zn226	Zn	0.750070	0.000003	0.499987
	Zn227	Zn	0.249899	-0.000045	0.500567
	N228	N	0.414888	0.962889	0.678135
	N229	N	0.585224	0.037806	0.678012
	N230	N	0.585866	0.962457	0.322222
	N231	N	0.414834	0.037372	0.322209
	N232	N	0.677950	0.414832	0.962781
	N233	N	0.677390	0.585032	0.037076
	N234	N	0.321520	0.585051	0.962586
	N235	N	0.321532	0.414610	0.037540
	N236	N	0.962882	0.677930	0.414326
	N237	N	0.037323	0.678176	0.585419
	N238	N	0.962756	0.322568	0.584902
	N239	N	0.037482	0.321961	0.414171
	N240	N	0.962340	0.414688	0.678074
	N241	N	0.037341	0.585385	0.677991
	N242	N	0.962835	0.585170	0.322142
	N243	N	0.037276	0.414123	0.321143
	N244	N	0.414190	0.678256	0.962466
	N245	N	0.585109	0.678122	0.037064
	N246	N	0.584642	0.322443	0.962719
	N247	N	0.413535	0.321168	0.037049
	N248	N	0.678286	0.962860	0.414908
	N249	N	0.678677	0.037159	0.585826
	N250	N	0.321551	0.963144	0.586122
	N251	N	0.322320	0.037335	0.415187
	N252	N	0.914314	0.462918	0.178241
	N253	N	0.085007	0.537074	0.177799
	N254	N	0.085397	0.462497	0.821391
	N255	N	0.914207	0.537447	0.821576
	N256	N	0.178432	0.914228	0.463021
	N257	N	0.177616	0.084954	0.537789
	N258	N	0.822228	0.085143	0.462448
	N259	N	0.822337	0.914881	0.537661
	N260	N	0.463092	0.178272	0.914944
	N261	N	0.537130	0.179083	0.086713
	N262	N	0.462696	0.821912	0.085282
	N263	N	0.537161	0.822271	0.913974
	N264	N	0.462812	0.914200	0.178869
	N265	N	0.538343	0.084322	0.177609
	N266	N	0.462879	0.085388	0.822534
	N267	N	0.537382	0.915226	0.822111
	N268	N	0.915031	0.178202	0.462328
	N269	N	0.085970	0.178829	0.537449
	N270	N	0.085383	0.821689	0.462291
	N271	N	0.914552	0.821321	0.537388
	N272	N	0.177593	0.462081	0.914480
	N273	N	0.177636	0.536772	0.084947
	N274	N	0.821752	0.463183	0.085357
	N275	N	0.821862	0.537336	0.914512
