data_Molecule from HDF5

_cell_length_a		16.391784
_cell_length_b		16.618416
_cell_length_c		16.717459
_cell_angle_alpha	90.241246
_cell_angle_beta	90.157015
_cell_angle_gamma	89.968926
_symmetry_space_group_name_H-M	'P 1'
_symmetry_Int_Tables_number		1

loop_
	_symmetry_equiv_pos_as_xyz
	x,y,z

loop_
	_atom_site_label
	_atom_site_type_symbol
	_atom_site_fract_x
	_atom_site_fract_y
	_atom_site_fract_z
	H0	H	0.408411	0.839484	0.726123
	H1	H	0.622753	0.148870	0.730976
	H2	H	0.616760	0.838201	0.286622
	H3	H	0.405017	0.151762	0.283175
	H4	H	0.733678	0.390072	0.851215
	H5	H	0.731426	0.596297	0.163203
	H6	H	0.291248	0.599114	0.851300
	H7	H	0.291847	0.390294	0.163009
	H8	H	0.855771	0.712856	0.404480
	H9	H	0.172504	0.716220	0.612396
	H10	H	0.856343	0.276956	0.608395
	H11	H	0.171552	0.272622	0.399995
	H12	H	0.858188	0.390551	0.727344
	H13	H	0.172055	0.602266	0.728297
	H14	H	0.857158	0.599374	0.286344
	H15	H	0.172881	0.388046	0.285110
	H16	H	0.404946	0.718381	0.851588
	H17	H	0.616338	0.715598	0.161684
	H18	H	0.621933	0.268614	0.854182
	H19	H	0.405637	0.271554	0.161504
	H20	H	0.730730	0.837570	0.406175
	H21	H	0.732019	0.152864	0.608382
	H22	H	0.296541	0.837611	0.605068
	H23	H	0.291880	0.152604	0.401395
	H24	H	0.908874	0.339512	0.227283
	H25	H	0.120148	0.651030	0.228679
	H26	H	0.121267	0.341489	0.782798
	H27	H	0.908389	0.650990	0.786467
	H28	H	0.232421	0.891784	0.349413
	H29	H	0.237319	0.100727	0.660486
	H30	H	0.794602	0.097368	0.348561
	H31	H	0.794266	0.894660	0.661812
	H32	H	0.358267	0.217462	0.899114
	H33	H	0.672999	0.212404	0.107948
	H34	H	0.355503	0.776942	0.107609
	H35	H	0.672931	0.776151	0.903216
	H36	H	0.355322	0.892954	0.224028
	H37	H	0.672779	0.099236	0.225372
	H38	H	0.358036	0.102138	0.782443
	H39	H	0.672410	0.890658	0.786003
	H40	H	0.908092	0.217448	0.350681
	H41	H	0.122795	0.220645	0.658666
	H42	H	0.118166	0.772422	0.351328
	H43	H	0.907126	0.773384	0.660550
	H44	H	0.235117	0.339003	0.902318
	H45	H	0.232659	0.652578	0.107884
	H46	H	0.793704	0.338854	0.109678
	H47	H	0.795881	0.652420	0.906310
	H48	H	0.427709	0.106062	0.595370
	H49	H	0.601039	0.882854	0.599537
	H50	H	0.605453	0.108764	0.416887
	H51	H	0.424340	0.883341	0.411637
	H52	H	0.607320	0.403391	0.120098
	H53	H	0.608050	0.590961	0.891166
	H54	H	0.424447	0.586005	0.116748
	H55	H	0.426001	0.407301	0.898414
	H56	H	0.128889	0.583962	0.418379
	H57	H	0.903423	0.581769	0.594093
	H58	H	0.125282	0.412498	0.593669
	H59	H	0.904058	0.408052	0.421484
	H60	H	0.129155	0.408183	0.597261
	H61	H	0.900063	0.583257	0.600841
	H62	H	0.128495	0.583479	0.416445
	H63	H	0.902413	0.412189	0.414164
	H64	H	0.427634	0.585976	0.116750
	H65	H	0.606518	0.580128	0.895871
	H66	H	0.602306	0.409376	0.116141
	H67	H	0.429090	0.406520	0.899075
	H68	H	0.605558	0.111004	0.409983
	H69	H	0.599262	0.885029	0.591666
	H70	H	0.427611	0.107052	0.595348
	H71	H	0.428402	0.885498	0.413774
	H72	H	0.928801	0.606829	0.101229
	H73	H	0.098960	0.384355	0.098561
	H74	H	0.094497	0.602745	0.919772
	H75	H	0.927969	0.382163	0.909809
	H76	H	0.106726	0.906381	0.617583
	H77	H	0.097787	0.085670	0.396326
	H78	H	0.924705	0.093509	0.618895
	H79	H	0.927722	0.901674	0.395586
	H80	H	0.620473	0.073554	0.927227
	H81	H	0.397794	0.086581	0.100391
	H82	H	0.625626	0.911421	0.096538
	H83	H	0.399174	0.902301	0.913904
	H84	H	0.630767	0.903163	0.101907
	H85	H	0.400727	0.087209	0.089728
	H86	H	0.628828	0.076819	0.908076
	H87	H	0.402675	0.907510	0.921310
	H88	H	0.919296	0.084463	0.617763
	H89	H	0.103591	0.087018	0.393415
	H90	H	0.103070	0.907066	0.616716
	H91	H	0.922060	0.900252	0.391708
	H92	H	0.110179	0.607827	0.923601
	H93	H	0.101748	0.385467	0.091558
	H94	H	0.924853	0.605758	0.094032
	H95	H	0.931509	0.386145	0.919360
	H96	H	0.427617	0.106341	0.596046
	H97	H	0.607107	0.881604	0.593779
	H98	H	0.599609	0.107278	0.413092
	H99	H	0.424270	0.884915	0.416474
	H100	H	0.599095	0.401454	0.117478
	H101	H	0.597695	0.587779	0.895293
	H102	H	0.426078	0.588594	0.117829
	H103	H	0.427256	0.404484	0.897248
	H104	H	0.129827	0.585348	0.416646
	H105	H	0.900181	0.588841	0.595027
	H106	H	0.127039	0.406716	0.591213
	H107	H	0.900561	0.404136	0.414641
	H108	H	0.921157	0.609402	0.100292
	H109	H	0.106471	0.381819	0.097307
	H110	H	0.103347	0.610747	0.908237
	H111	H	0.920575	0.382511	0.918322
	H112	H	0.103528	0.903297	0.618201
	H113	H	0.102394	0.080948	0.395737
	H114	H	0.929965	0.085030	0.614641
	H115	H	0.922642	0.906384	0.395067
	H116	H	0.629378	0.092115	0.922469
	H117	H	0.401927	0.077667	0.094957
	H118	H	0.628200	0.902371	0.091536
	H119	H	0.401179	0.910777	0.912287
	C120	C	0.394680	0.003290	0.626450
	C121	C	0.635391	0.986321	0.627382
	C122	C	0.634925	0.004486	0.383742
	C123	C	0.391896	0.987908	0.382605
	C124	C	0.635674	0.372319	0.015662
	C125	C	0.635138	0.617042	0.997522
	C126	C	0.392675	0.617734	0.014426
	C127	C	0.392931	0.373344	0.999828
	C128	C	0.023868	0.615314	0.386209
	C129	C	1.005836	0.616908	0.628412
	C130	C	0.023092	0.376441	0.626149
	C131	C	1.006286	0.374608	0.384659
	C132	C	0.892825	0.503854	0.128876
	C133	C	0.135414	0.486883	0.127980
	C134	C	0.135840	0.504272	0.885000
	C135	C	0.893805	0.486862	0.885233
	C136	C	0.135570	0.873810	0.514554
	C137	C	0.135075	0.117147	0.497205
	C138	C	0.892062	0.118670	0.514246
	C139	C	0.892314	0.872997	0.497426
	C140	C	0.522782	0.114928	0.885426
	C141	C	0.505101	0.115730	0.126844
	C142	C	0.522780	0.874926	0.126748
	C143	C	0.505764	0.874461	0.884710
	C144	C	0.391287	0.885764	0.685360
	C145	C	0.639386	0.102913	0.689108
	C146	C	0.635665	0.885538	0.326052
	C147	C	0.388084	0.104992	0.323536
	C148	C	0.695021	0.370586	0.898490
	C149	C	0.692687	0.616271	0.115940
	C150	C	0.331407	0.618362	0.897925
	C151	C	0.332104	0.371561	0.116154
	C152	C	0.903824	0.673764	0.385430
	C153	C	0.124633	0.676748	0.630605
	C154	C	0.904101	0.316541	0.627643
	C155	C	0.124811	0.313433	0.382276
	C156	C	0.904974	0.372707	0.686656
	C157	C	0.124520	0.619813	0.688328
	C158	C	0.904654	0.617685	0.326407
	C159	C	0.125047	0.370545	0.324728
	C160	C	0.388289	0.677441	0.897879
	C161	C	0.635746	0.675663	0.115171
	C162	C	0.639038	0.310640	0.899835
	C163	C	0.389004	0.312388	0.115534
	C164	C	0.692344	0.885113	0.385250
	C165	C	0.694029	0.104789	0.628334
	C166	C	0.335565	0.884982	0.625232
	C167	C	0.331722	0.105418	0.382591
	C168	C	0.890665	0.386160	0.187402
	C169	C	0.138005	0.604360	0.187879
	C170	C	0.139179	0.387501	0.823995
	C171	C	0.890960	0.604346	0.826675
	C172	C	0.193621	0.872757	0.396584
	C173	C	0.196609	0.119696	0.613844
	C174	C	0.833388	0.117786	0.396144
	C175	C	0.833542	0.874251	0.614901
	C176	C	0.405288	0.176925	0.881441
	C177	C	0.625091	0.174143	0.127865
	C178	C	0.402980	0.816606	0.126625
	C179	C	0.625238	0.815360	0.883777
	C180	C	0.403051	0.873990	0.184612
	C181	C	0.624880	0.117633	0.185889
	C182	C	0.405231	0.119843	0.823166
	C183	C	0.625091	0.872194	0.825666
	C184	C	0.889927	0.177449	0.397077
	C185	C	0.139915	0.179210	0.613137
	C186	C	0.136621	0.813549	0.397537
	C187	C	0.889497	0.814079	0.614467
	C188	C	0.195649	0.386464	0.883275
	C189	C	0.193876	0.605363	0.127988
	C190	C	0.833415	0.386182	0.128859
	C191	C	0.835009	0.604968	0.886304
	C192	C	0.420386	0.085272	0.602562
	C193	C	0.609856	0.904602	0.602332
	C194	C	0.610613	0.087223	0.406718
	C195	C	0.418188	0.905976	0.407136
	C196	C	0.610249	0.397576	0.096779
	C197	C	0.611069	0.593247	0.915549
	C198	C	0.418702	0.593662	0.095876
	C199	C	0.419582	0.398838	0.919306
	C200	C	0.107386	0.591080	0.410222
	C201	C	0.922682	0.591682	0.603588
	C202	C	0.105635	0.401872	0.601262
	C203	C	0.923852	0.400760	0.409538
	C204	C	0.917743	0.586017	0.105322
	C205	C	0.109646	0.405004	0.102998
	C206	C	0.110005	0.585925	0.910042
	C207	C	0.919413	0.404890	0.909165
	C208	C	0.111213	0.898462	0.596321
	C209	C	0.108779	0.091729	0.416272
	C210	C	0.917257	0.094671	0.595808
	C211	C	0.917205	0.896054	0.415411
	C212	C	0.604841	0.088271	0.911560
	C213	C	0.421985	0.091122	0.102097
	C214	C	0.606523	0.898841	0.103354
	C215	C	0.422665	0.899789	0.908865
	Zn216	Zn	0.514609	-0.005495	0.756600
	Zn217	Zn	0.513652	-0.003592	0.254986
	Zn218	Zn	0.764219	0.494505	0.006108
	Zn219	Zn	0.264132	0.494988	0.007063
	Zn220	Zn	0.014667	0.743871	0.506731
	Zn221	Zn	0.014481	0.247544	0.505449
	Zn222	Zn	0.014522	0.495864	0.756055
	Zn223	Zn	0.015023	0.494907	0.257264
	Zn224	Zn	0.513861	0.746993	0.004904
	Zn225	Zn	0.513526	0.243466	0.007112
	Zn226	Zn	0.763824	-0.004313	0.505936
	Zn227	Zn	0.264824	-0.004011	0.505494
	N228	N	0.427099	0.960345	0.686218
	N229	N	0.603708	0.028202	0.688769
	N230	N	0.601087	0.960936	0.324620
	N231	N	0.424533	0.030691	0.323202
	N232	N	0.692969	0.408311	0.971526
	N233	N	0.692792	0.580874	0.041698
	N234	N	0.334203	0.581773	0.971411
	N235	N	0.334422	0.408892	0.043127
	N236	N	0.978974	0.672422	0.421905
	N237	N	0.049596	0.675319	0.594197
	N238	N	0.978745	0.318580	0.590685
	N239	N	0.049792	0.315564	0.418618
	N240	N	0.980051	0.409075	0.686077
	N241	N	0.049385	0.583432	0.687351
	N242	N	0.980321	0.582040	0.326702
	N243	N	0.050306	0.407948	0.326059
	N244	N	0.425565	0.677438	0.971421
	N245	N	0.601121	0.676647	0.040386
	N246	N	0.602914	0.311478	0.973755
	N247	N	0.425986	0.313283	0.042059
	N248	N	0.692425	0.960169	0.420015
	N249	N	0.691890	0.031187	0.590818
	N250	N	0.337372	0.959211	0.589377
	N251	N	0.334014	0.031326	0.418723
	N252	N	0.926672	0.460580	0.187748
	N253	N	0.102676	0.529534	0.188073
	N254	N	0.103000	0.461853	0.824678
	N255	N	0.926647	0.529661	0.825690
	N256	N	0.193155	0.909456	0.470277
	N257	N	0.193662	0.081739	0.540846
	N258	N	0.834150	0.082194	0.470182
	N259	N	0.835202	0.910219	0.541109
	N260	N	0.479577	0.174167	0.919343
	N261	N	0.549580	0.173351	0.092081
	N262	N	0.478660	0.816915	0.091419
	N263	N	0.549888	0.816602	0.919511
	N264	N	0.478634	0.909443	0.184892
	N265	N	0.549076	0.082454	0.185882
	N266	N	0.479513	0.082025	0.825532
	N267	N	0.549648	0.908035	0.826009
	N268	N	0.925329	0.178309	0.471586
	N269	N	0.102359	0.177731	0.539672
	N270	N	0.101484	0.813725	0.471997
	N271	N	0.925317	0.813107	0.540366
	N272	N	0.193604	0.460011	0.920519
	N273	N	0.192539	0.531144	0.091686
	N274	N	0.834422	0.460394	0.093248
	N275	N	0.836499	0.530805	0.921868
	O276	O	0.198636	0.862496	-0.037926
	H277	H	0.206856	0.869740	-0.035776
	H278	H	0.206564	0.865736	-0.029088
	O279	O	0.545345	0.275699	0.281581
	H280	H	0.550425	0.263719	0.277181
	H281	H	0.563076	0.267361	0.264989
	O282	O	1.027245	0.028680	0.997293
	H283	H	1.022192	0.029791	1.000018
	H284	H	1.026445	0.035859	0.994834
	O285	O	0.316199	0.398711	0.479773
	H286	H	0.302583	0.421836	0.472118
	H287	H	0.315464	0.393727	0.477979
	O288	O	1.010993	0.152996	0.918520
	H289	H	1.001403	0.162425	0.907059
	H290	H	1.027906	0.141584	0.922352
	O291	O	0.805465	0.210012	0.977479
	H292	H	0.784764	0.230959	0.969478
	H293	H	0.810231	0.197398	0.962767
	O294	O	0.719537	-0.299164	0.714866
	H295	H	0.714775	-0.311686	0.687670
	H296	H	0.722152	-0.280463	0.714083
	O297	O	0.045241	0.835265	1.007901
	H298	H	0.069735	0.834895	0.991885
	H299	H	0.038307	0.831303	0.986244
	O300	O	0.226042	0.212155	1.030093
	H301	H	0.256135	0.226644	1.030507
	H302	H	0.210866	0.204459	1.036440
	O303	O	0.687014	0.544191	0.613151
	H304	H	0.702863	0.543326	0.607780
	H305	H	0.675078	0.551434	0.607141
	O306	O	0.272908	0.733347	0.268904
	H307	H	0.311076	0.740804	0.252728
	H308	H	0.243296	0.764776	0.243182
	O309	O	0.574228	0.478963	0.679018
	H310	H	0.571809	0.487983	0.680011
	H311	H	0.574128	0.488037	0.675946
	O312	O	0.361526	0.449452	0.497696
	H313	H	0.359372	0.458916	0.498100
	H314	H	0.338577	0.451339	0.494491
	O315	O	1.341370	1.532828	1.505595
	H316	H	1.322914	1.554267	1.510836
	H317	H	1.334330	1.530071	1.499949
	O318	O	0.642837	0.483514	0.349503
	H319	H	0.632875	0.480110	0.346341
	H320	H	0.647557	0.469541	0.335208
	O321	O	0.308922	0.283056	0.600771
	H322	H	0.306888	0.280952	0.621157
	H323	H	0.291976	0.264653	0.586515
	O324	O	0.975579	0.784038	0.224993
	H325	H	0.984037	0.765448	0.229564
	H326	H	0.990391	0.789441	0.208652
	O327	O	-0.007779	0.080629	0.783735
	H328	H	0.002203	0.084565	0.796080
	H329	H	-0.001191	0.103656	0.774305
	O330	O	0.476761	0.565030	0.563639
	H331	H	0.457994	0.569128	0.553070
	H332	H	0.470724	0.556509	0.566284
	O333	O	0.728871	0.509032	0.624895
	H334	H	0.729826	0.497906	0.608570
	H335	H	0.727701	0.509839	0.637629
	O336	O	0.427461	0.606667	0.658724
	H337	H	0.451333	0.607496	0.662022
	H338	H	0.412438	0.583043	0.658293
	O339	O	0.999080	-0.143400	1.078542
	H340	H	0.996096	-0.140434	1.062499
	H341	H	0.991501	-0.148673	1.061701
	O342	O	0.229008	-0.040031	0.044646
	H343	H	0.232236	-0.017792	0.048506
	H344	H	0.222960	-0.027181	0.055814
	O345	O	-0.633866	1.491186	1.726999
	H346	H	-0.625687	1.488642	1.724272
	H347	H	-0.657542	1.488891	1.743111
	O348	O	0.040764	-0.218998	-0.211311
	H349	H	0.021925	-0.203415	-0.227202
	H350	H	0.034964	-0.229996	-0.221636
	O351	O	0.666693	0.403798	0.504159
	H352	H	0.656738	0.412408	0.509770
	H353	H	0.652581	0.390118	0.504246
	O354	O	0.611213	0.615848	1.401221
	H355	H	0.610942	0.601702	1.425455
	H356	H	0.595541	0.602882	1.410597
	O357	O	-0.146480	0.058390	0.017389
	H358	H	-0.160540	0.049608	0.018155
	H359	H	-0.136655	0.072524	0.023648
	O360	O	0.123784	-0.017794	0.919475
	H361	H	0.109618	-0.021194	0.913493
	H362	H	0.130380	-0.006627	0.915493
	O363	O	-0.168861	0.183534	0.192576
	H364	H	-0.163964	0.186125	0.179881
	H365	H	-0.172003	0.182428	0.197888
	O366	O	0.809294	0.210920	0.794280
	H367	H	0.810133	0.179488	0.807111
	H368	H	0.809975	0.225015	0.778332
	O369	O	1.209233	0.005643	0.213597
	H370	H	1.203670	0.004919	0.225117
	H371	H	1.212697	0.031569	0.225367
	O372	O	0.791094	0.958802	0.232871
	H373	H	0.769602	0.942461	0.251311
	H374	H	0.783036	0.923123	0.239171
	O375	O	1.043861	0.207061	0.222080
	H376	H	1.030968	0.212589	0.239309
	H377	H	1.023571	0.210392	0.211932
	O378	O	-0.195518	1.038738	-0.210046
	H379	H	-0.218234	1.028629	-0.218433
	H380	H	-0.198494	1.040788	-0.192577
	O381	O	0.046457	1.093724	1.104521
	H382	H	0.041160	1.102727	1.107014
	H383	H	0.051890	1.100509	1.106341
	O384	O	0.721363	0.286233	0.294798
	H385	H	0.721434	0.283323	0.343075
	H386	H	0.720235	0.289823	0.287872
	O387	O	0.395592	0.436591	-0.455332
	H388	H	0.384757	0.438713	-0.464064
	H389	H	0.390480	0.431334	-0.449539
	O390	O	0.539863	0.714698	0.726002
	H391	H	0.558810	0.731058	0.740998
	H392	H	0.546241	0.719954	0.725973
	O393	O	0.725072	0.704235	0.537869
	H394	H	0.748279	0.719320	0.536990
	H395	H	0.729841	0.671592	0.529079
	O396	O	0.122762	1.111920	1.003890
	H397	H	0.121662	1.101575	1.006150
	H398	H	0.126833	1.107723	0.996003
	O399	O	-0.029285	0.086682	0.949691
	H400	H	-0.036565	0.095655	0.945552
	H401	H	-0.048770	0.088080	0.941008
	O402	O	0.294890	0.523166	0.280366
	H403	H	0.270631	0.544293	0.261663
	H404	H	0.288029	0.554562	0.283728
	O405	O	1.203582	-0.199842	1.141202
	H406	H	1.189659	-0.184837	1.129797
	H407	H	1.191642	-0.187221	1.125517
	O408	O	-0.052442	0.065570	-0.110860
	H409	H	-0.031846	0.065644	-0.101875
	H410	H	-0.051212	0.052835	-0.100157
	O411	O	0.701267	0.683633	0.313705
	H412	H	0.677427	0.662249	0.326823
	H413	H	0.684493	0.667371	0.333254
	O414	O	0.949812	0.052650	0.230215
	H415	H	0.937418	0.052927	0.228387
	H416	H	0.931844	0.039171	0.224843
	O417	O	0.239241	0.779956	0.781089
	H418	H	0.205346	0.770995	0.789445
	H419	H	0.242867	0.766243	0.793306
	O420	O	0.393454	0.334295	0.724101
	H421	H	0.413987	0.340366	0.713877
	H422	H	0.390940	0.356702	0.725599
	O423	O	0.299384	0.712019	0.421559
	H424	H	0.281565	0.729971	0.388193
	H425	H	0.307928	0.723269	0.405810
	O426	O	0.506863	0.430328	0.409155
	H427	H	0.509605	0.411999	0.403126
	H428	H	0.497389	0.428936	0.409200
	O429	O	1.472847	1.708431	0.292012
	H430	H	1.492539	1.720902	0.290231
	H431	H	1.499645	1.700965	0.295206
	O432	O	0.509548	0.310425	0.728070
	H433	H	0.511684	0.315218	0.732016
	H434	H	0.512853	0.302496	0.745768
	O435	O	0.237132	0.960680	-0.217021
	H436	H	0.232127	0.927358	-0.216415
	H437	H	0.263943	0.950720	-0.244260
	O438	O	-0.023585	-0.031518	0.144409
	H439	H	-0.043214	-0.031211	0.151248
	H440	H	-0.026675	-0.034240	0.143154
	O441	O	-0.106066	-0.213264	-0.115660
	H442	H	-0.122280	-0.199913	-0.102124
	H443	H	-0.100690	-0.206922	-0.128471
	O444	O	0.072831	-0.018680	-0.125198
	H445	H	0.071823	-0.000663	-0.123934
	H446	H	0.086809	-0.025431	-0.127530
	O447	O	0.196807	1.182280	0.817028
	H448	H	0.188657	1.173555	0.841076
	H449	H	0.211152	1.199071	0.801600
	O450	O	-0.208815	0.774861	1.044950
	H451	H	-0.212212	0.775814	1.078455
	H452	H	-0.232760	0.751294	1.057204
	O453	O	0.422433	0.665873	0.513915
	H454	H	0.425295	0.662850	0.532066
	H455	H	0.410031	0.682175	0.508840
	O456	O	-0.106493	-0.131912	0.797102
	H457	H	-0.136044	-0.133688	0.784549
	H458	H	-0.094761	-0.100117	0.796671
	O459	O	0.592762	0.472413	0.281744
	H460	H	0.610144	0.457284	0.268394
	H461	H	0.565167	0.450537	0.279807
	O462	O	0.472551	0.614653	0.475346
	H463	H	0.460186	0.624645	0.476697
	H464	H	0.472163	0.611052	0.477054
	O465	O	0.716742	0.280594	0.459061
	H466	H	0.720155	0.264362	0.477972
	H467	H	0.725783	0.279027	0.482174
	O468	O	-0.152607	0.909586	-0.011574
	H469	H	-0.150144	0.928089	0.001063
	H470	H	-0.161126	0.885549	0.013671
	O471	O	0.364237	0.361778	0.441726
	H472	H	0.353415	0.382592	0.437872
	H473	H	0.367904	0.351958	0.459225
	O474	O	-0.302732	1.304442	-0.300210
	H475	H	-0.310053	1.338788	-0.313239
	H476	H	-0.292005	1.301724	-0.297595
	O477	O	0.204501	1.163898	1.195949
	H478	H	0.208868	1.156332	1.173817
	H479	H	0.163358	1.170875	1.201427
	O480	O	0.524374	0.274435	0.503544
	H481	H	0.502294	0.279825	0.493636
	H482	H	0.542185	0.267280	0.503413
	O483	O	0.623102	0.540607	0.471968
	H484	H	0.615991	0.540824	0.465968
	H485	H	0.610477	0.530974	0.474923
	O486	O	1.499860	-0.570955	0.498373
	H487	H	1.505859	-0.576025	0.489151
	H488	H	1.473978	-0.576456	0.485889
	O489	O	0.803609	0.786655	0.218896
	H490	H	0.853710	0.778511	0.224772
	H491	H	0.774984	0.752138	0.250916
