data_Molecule from HDF5

_cell_length_a		16.049195
_cell_length_b		16.033265
_cell_length_c		16.455834
_cell_angle_alpha	89.253133
_cell_angle_beta	89.959064
_cell_angle_gamma	89.437993
_symmetry_space_group_name_H-M	'P 1'
_symmetry_Int_Tables_number		1

loop_
	_symmetry_equiv_pos_as_xyz
	x,y,z

loop_
	_atom_site_label
	_atom_site_type_symbol
	_atom_site_fract_x
	_atom_site_fract_y
	_atom_site_fract_z
	H0	H	0.388536	0.830265	0.712391
	H1	H	0.592152	0.159544	0.707810
	H2	H	0.594873	0.829860	0.279950
	H3	H	0.382968	0.158528	0.272409
	H4	H	0.708752	0.396899	0.833894
	H5	H	0.702687	0.588641	0.158102
	H6	H	0.273053	0.597795	0.832600
	H7	H	0.276211	0.395284	0.158132
	H8	H	0.824571	0.711345	0.396825
	H9	H	0.158074	0.701946	0.588331
	H10	H	0.823538	0.284350	0.594468
	H11	H	0.156734	0.286129	0.402585
	H12	H	0.826234	0.391797	0.714109
	H13	H	0.154111	0.595100	0.711018
	H14	H	0.825935	0.603735	0.276526
	H15	H	0.153506	0.390994	0.279703
	H16	H	0.392443	0.712172	0.831584
	H17	H	0.586990	0.705452	0.158009
	H18	H	0.592156	0.282231	0.831765
	H19	H	0.392146	0.276283	0.156208
	H20	H	0.705355	0.829746	0.398870
	H21	H	0.697410	0.163357	0.585499
	H22	H	0.283070	0.826918	0.590009
	H23	H	0.278227	0.162010	0.396850
	H24	H	0.887204	0.331747	0.216079
	H25	H	0.091652	0.659886	0.210541
	H26	H	0.094888	0.330761	0.782206
	H27	H	0.883581	0.658673	0.776717
	H28	H	0.207106	0.897373	0.331665
	H29	H	0.205478	0.089483	0.657449
	H30	H	0.774683	0.099332	0.330861
	H31	H	0.775036	0.896004	0.656312
	H32	H	0.325126	0.211586	0.894432
	H33	H	0.658157	0.201211	0.086922
	H34	H	0.322797	0.786637	0.090254
	H35	H	0.657995	0.784992	0.901464
	H36	H	0.326831	0.891869	0.211641
	H37	H	0.653763	0.095523	0.209154
	H38	H	0.325061	0.099010	0.776530
	H39	H	0.655334	0.892297	0.778880
	H40	H	0.890988	0.216908	0.332780
	H41	H	0.087232	0.205577	0.658748
	H42	H	0.091473	0.781342	0.331796
	H43	H	0.893179	0.780095	0.657586
	H44	H	0.201898	0.329142	0.902771
	H45	H	0.196485	0.663675	0.087752
	H46	H	0.781208	0.328720	0.093845
	H47	H	0.778951	0.661936	0.899319
	H48	H	0.388607	0.119857	0.595052
	H49	H	0.581130	0.877652	0.588121
	H50	H	0.574106	0.110956	0.400879
	H51	H	0.395987	0.874898	0.403703
	H52	H	0.575615	0.386090	0.111705
	H53	H	0.583620	0.586764	0.879906
	H54	H	0.392950	0.589666	0.110897
	H55	H	0.389865	0.411167	0.879688
	H56	H	0.112061	0.586123	0.390928
	H57	H	0.869132	0.588578	0.593543
	H58	H	0.111270	0.397000	0.592739
	H59	H	0.873100	0.413881	0.406030
	H60	H	0.105983	0.402919	0.585554
	H61	H	0.871122	0.590758	0.583816
	H62	H	0.109301	0.592827	0.406916
	H63	H	0.868246	0.408336	0.399012
	H64	H	0.394408	0.591482	0.111373
	H65	H	0.582447	0.594516	0.878719
	H66	H	0.598581	0.396149	0.114783
	H67	H	0.404566	0.408230	0.882012
	H68	H	0.583980	0.115958	0.399392
	H69	H	0.582198	0.876682	0.587202
	H70	H	0.410866	0.110004	0.589362
	H71	H	0.401215	0.874880	0.395969
	H72	H	0.901905	0.614752	0.091594
	H73	H	0.078675	0.379148	0.087124
	H74	H	0.069163	0.613449	0.895944
	H75	H	0.903940	0.378850	0.911146
	H76	H	0.094320	0.900111	0.612067
	H77	H	0.091025	0.096000	0.375994
	H78	H	0.879922	0.089804	0.614633
	H79	H	0.894250	0.903269	0.377355
	H80	H	0.609122	0.072282	0.885558
	H81	H	0.369540	0.084828	0.091690
	H82	H	0.611379	0.894862	0.088798
	H83	H	0.370990	0.906953	0.896248
	H84	H	0.608084	0.904304	0.085061
	H85	H	0.370519	0.091895	0.079982
	H86	H	0.615847	0.102779	0.891397
	H87	H	0.370127	0.901924	0.900252
	H88	H	0.899785	0.075009	0.603883
	H89	H	0.084095	0.085221	0.381069
	H90	H	0.080965	0.903384	0.607056
	H91	H	0.897886	0.908245	0.379328
	H92	H	0.081275	0.613109	0.907502
	H93	H	0.085798	0.375393	0.090364
	H94	H	0.897081	0.612861	0.081758
	H95	H	0.892091	0.372637	0.902898
	H96	H	0.393848	0.110771	0.572229
	H97	H	0.581849	0.875937	0.588377
	H98	H	0.576663	0.115247	0.390197
	H99	H	0.405097	0.878625	0.403749
	H100	H	0.579610	0.410202	0.105356
	H101	H	0.589428	0.591803	0.876875
	H102	H	0.392757	0.591287	0.111562
	H103	H	0.395025	0.396843	0.876749
	H104	H	0.104356	0.576156	0.403760
	H105	H	0.873094	0.581734	0.586501
	H106	H	0.108801	0.407426	0.594496
	H107	H	0.871769	0.404641	0.407101
	H108	H	0.891443	0.617067	0.089836
	H109	H	0.078310	0.376203	0.094627
	H110	H	0.084946	0.618459	0.892478
	H111	H	0.905861	0.375741	0.897175
	H112	H	0.084895	0.889298	0.612358
	H113	H	0.076833	0.097328	0.379266
	H114	H	0.903143	0.100836	0.611092
	H115	H	0.901081	0.902002	0.380214
	H116	H	0.604200	0.084425	0.913764
	H117	H	0.374437	0.078924	0.080708
	H118	H	0.610967	0.903114	0.094070
	H119	H	0.372416	0.908592	0.902268
	C120	C	0.369261	0.003731	0.615297
	C121	C	0.610479	0.986521	0.614695
	C122	C	0.610567	0.004512	0.370662
	C123	C	0.369264	0.985606	0.371706
	C124	C	0.614208	0.370669	0.003255
	C125	C	0.612373	0.617139	0.986461
	C126	C	0.365557	0.620051	0.003550
	C127	C	0.368354	0.373888	0.986777
	C128	C	-0.000557	0.617650	0.371610
	C129	C	0.981204	0.614771	0.615441
	C130	C	-0.000676	0.373206	0.619489
	C131	C	0.980611	0.377385	0.375940
	C132	C	0.868995	0.504988	0.117729
	C133	C	0.109531	0.486754	0.117284
	C134	C	0.110033	0.504901	0.872789
	C135	C	0.869466	0.485437	0.874276
	C136	C	0.114693	0.871469	0.502572
	C137	C	0.112419	0.118198	0.486586
	C138	C	0.866151	0.119758	0.502515
	C139	C	0.868869	0.874475	0.486057
	C140	C	0.499709	0.117040	0.869440
	C141	C	0.481358	0.113586	0.112359
	C142	C	0.499878	0.872922	0.116678
	C143	C	0.481185	0.875484	0.872698
	C144	C	0.370077	0.879358	0.672967
	C145	C	0.610040	0.110694	0.669073
	C146	C	0.612811	0.879546	0.317437
	C147	C	0.366678	0.109760	0.313124
	C148	C	0.670552	0.375554	0.881912
	C149	C	0.665627	0.610579	0.109419
	C150	C	0.310892	0.618187	0.881216
	C151	C	0.313822	0.375085	0.109112
	C152	C	0.874421	0.674293	0.375409
	C153	C	0.107274	0.667111	0.610961
	C154	C	0.874059	0.319548	0.616012
	C155	C	0.106284	0.321920	0.380209
	C156	C	0.875310	0.373023	0.675607
	C157	C	0.105317	0.613808	0.671863
	C158	C	0.875446	0.620665	0.315393
	C159	C	0.104638	0.374142	0.319002
	C160	C	0.370238	0.675088	0.880763
	C161	C	0.607844	0.668543	0.109255
	C162	C	0.612230	0.318527	0.880830
	C163	C	0.371054	0.315350	0.108057
	C164	C	0.667734	0.879557	0.376589
	C165	C	0.662702	0.112513	0.608310
	C166	C	0.317533	0.877498	0.612076
	C167	C	0.314253	0.111499	0.374726
	C168	C	0.869276	0.380643	0.175956
	C169	C	0.109366	0.610872	0.172084
	C170	C	0.112301	0.380284	0.819661
	C171	C	0.866994	0.609745	0.816595
	C172	C	0.169489	0.876051	0.380202
	C173	C	0.167225	0.111413	0.609119
	C174	C	0.811844	0.119428	0.380001
	C175	C	0.813447	0.876082	0.608243
	C176	C	0.374669	0.173630	0.873063
	C177	C	0.607404	0.166104	0.108484
	C178	C	0.373561	0.821318	0.112036
	C179	C	0.607252	0.820720	0.878367
	C180	C	0.375581	0.873683	0.172689
	C181	C	0.605329	0.113404	0.169313
	C182	C	0.374784	0.117724	0.814334
	C183	C	0.606035	0.874306	0.817616
	C184	C	0.869663	0.178029	0.381016
	C185	C	0.108404	0.169080	0.609664
	C186	C	0.111686	0.818476	0.380450
	C187	C	0.872262	0.818269	0.608772
	C188	C	0.165606	0.379296	0.879754
	C189	C	0.161813	0.612850	0.111059
	C190	C	0.816404	0.379104	0.115339
	C191	C	0.814723	0.611685	0.877562
	C192	C	0.391242	0.090934	0.592315
	C193	C	0.588354	0.899278	0.593957
	C194	C	0.585483	0.091574	0.390726
	C195	C	0.393520	0.898742	0.394533
	C196	C	0.591354	0.391096	0.088568
	C197	C	0.591504	0.596859	0.900703
	C198	C	0.387002	0.597510	0.089157
	C199	C	0.390254	0.398246	0.901553
	C200	C	0.086233	0.592373	0.393888
	C201	C	0.893743	0.593395	0.594068
	C202	C	0.086398	0.395668	0.597406
	C203	C	0.893566	0.401792	0.397740
	C204	C	0.890540	0.592173	0.094621
	C205	C	0.087579	0.399512	0.096710
	C206	C	0.085666	0.592390	0.892851
	C207	C	0.893483	0.398421	0.897121
	C208	C	0.093263	0.891912	0.588160
	C209	C	0.090758	0.098574	0.401000
	C210	C	0.887812	0.095657	0.587877
	C211	C	0.891154	0.897564	0.400893
	C212	C	0.587120	0.093431	0.890588
	C213	C	0.394151	0.091675	0.090527
	C214	C	0.587334	0.894541	0.095655
	C215	C	0.393860	0.898983	0.893524
	Zn216	Zn	0.490255	-0.005060	0.742687
	Zn217	Zn	0.490318	-0.005487	0.242599
	Zn218	Zn	0.742754	0.494779	-0.004428
	Zn219	Zn	0.236547	0.496194	-0.004477
	Zn220	Zn	-0.008999	0.743351	0.494424
	Zn221	Zn	-0.010573	0.248847	0.495947
	Zn222	Zn	-0.010758	0.494970	0.745502
	Zn223	Zn	-0.010605	0.495598	0.245448
	Zn224	Zn	0.490160	0.747455	-0.004888
	Zn225	Zn	0.491469	0.242937	-0.006922
	Zn226	Zn	0.737355	-0.003290	0.493095
	Zn227	Zn	0.242512	-0.005404	0.494003
	N228	N	0.401564	0.958855	0.675123
	N229	N	0.578216	0.031276	0.673190
	N230	N	0.577724	0.958351	0.313711
	N231	N	0.400387	0.030492	0.311050
	N232	N	0.672042	0.407412	0.959158
	N233	N	0.668756	0.579416	0.031950
	N234	N	0.307828	0.584572	0.958588
	N235	N	0.311963	0.410773	0.032446
	N236	N	0.952715	0.672803	0.409685
	N237	N	0.029032	0.667834	0.576490
	N238	N	0.952351	0.319087	0.582039
	N239	N	0.028197	0.323776	0.414957
	N240	N	0.954334	0.405671	0.677990
	N241	N	0.025886	0.582146	0.674772
	N242	N	0.954242	0.586155	0.312855
	N243	N	0.025551	0.408036	0.316313
	N244	N	0.403225	0.676530	0.957975
	N245	N	0.575607	0.672733	0.031758
	N246	N	0.577874	0.315487	0.957343
	N247	N	0.404259	0.314543	0.030979
	N248	N	0.666542	0.958298	0.408786
	N249	N	0.662816	0.034260	0.574942
	N250	N	0.316774	0.955900	0.576839
	N251	N	0.315707	0.033545	0.410564
	N252	N	0.900996	0.460050	0.177626
	N253	N	0.077721	0.531384	0.176190
	N254	N	0.078121	0.459342	0.815592
	N255	N	0.900342	0.530370	0.814517
	N256	N	0.171554	0.908230	0.457370
	N257	N	0.170078	0.080593	0.531526
	N258	N	0.809602	0.083921	0.456662
	N259	N	0.811214	0.910332	0.531153
	N260	N	0.453242	0.173587	0.906310
	N261	N	0.529288	0.166141	0.073493
	N262	N	0.452028	0.820342	0.078014
	N263	N	0.528666	0.821153	0.911834
	N264	N	0.454883	0.905146	0.175526
	N265	N	0.526032	0.081612	0.172052
	N266	N	0.453734	0.083452	0.811772
	N267	N	0.526737	0.907554	0.813977
	N268	N	0.902767	0.178254	0.458240
	N269	N	0.075063	0.173384	0.532678
	N270	N	0.078263	0.815524	0.457370
	N271	N	0.905824	0.816992	0.531765
	N272	N	0.164779	0.458000	0.911921
	N273	N	0.162183	0.534617	0.077477
	N274	N	0.815955	0.457278	0.079694
	N275	N	0.815898	0.533323	0.912933
	O276	O	0.447546	0.585005	0.479290
	H277	H	0.449335	0.586832	0.484001
	H278	H	0.444886	0.588909	0.493500
	O279	O	0.410069	0.556385	0.484199
	H280	H	0.409588	0.566152	0.489342
	H281	H	0.418342	0.557881	0.487174
	O282	O	0.939066	0.972424	-0.040534
	H283	H	0.932818	0.976569	-0.042334
	H284	H	0.934609	0.983001	-0.035759
	O285	O	0.980930	-0.016737	1.023590
	H286	H	0.984753	-0.019475	1.028076
	H287	H	0.980185	-0.008499	1.022660
	O288	O	0.522162	0.497244	0.568035
	H289	H	0.522664	0.497212	0.561922
	H290	H	0.519526	0.494499	0.578153
	O291	O	0.424224	0.384598	0.649693
	H292	H	0.408655	0.371147	0.638677
	H293	H	0.421738	0.381492	0.654581
	O294	O	0.416901	0.416302	0.527996
	H295	H	0.423512	0.401653	0.525070
	H296	H	0.413609	0.414611	0.520069
	O297	O	0.136828	0.054656	1.057806
	H298	H	0.138146	0.047740	1.053503
	H299	H	0.143747	0.061770	1.062850
	O300	O	0.463781	0.427130	0.418613
	H301	H	0.466495	0.428904	0.417820
	H302	H	0.476422	0.420139	0.407751
	O303	O	0.916971	1.073793	-0.026117
	H304	H	0.908274	1.081375	-0.030266
	H305	H	0.906315	1.083514	-0.025103
	O306	O	0.043276	0.946649	0.988582
	H307	H	0.047098	0.944448	0.975743
	H308	H	0.058447	0.940058	0.984944
	O309	O	0.378235	0.421132	0.629887
	H310	H	0.362091	0.413745	0.628920
	H311	H	0.362009	0.415399	0.627054
	O312	O	0.015406	-0.043578	0.072822
	H313	H	0.016206	-0.049593	0.064731
	H314	H	0.009654	-0.046317	0.064004
	O315	O	1.061307	-0.005363	0.029974
	H316	H	1.063922	-0.009477	0.026425
	H317	H	1.056069	-0.015370	0.029249
	O318	O	1.002845	1.067700	0.985280
	H319	H	1.008853	1.065418	0.982429
	H320	H	0.998205	1.066291	0.988683
	O321	O	-0.075559	-0.115036	0.967292
	H322	H	-0.070969	-0.114037	0.965404
	H323	H	-0.078375	-0.121531	0.970939
	O324	O	0.576522	0.580919	0.444055
	H325	H	0.572008	0.569741	0.439446
	H326	H	0.572598	0.572695	0.450414
	O327	O	0.032381	-0.013584	-0.023694
	H328	H	0.024554	-0.006898	-0.028293
	H329	H	0.026170	-0.014878	-0.011322
	O330	O	0.530636	0.521082	0.405029
	H331	H	0.527768	0.513082	0.403101
	H332	H	0.519540	0.533202	0.404210
	O333	O	0.434395	0.530611	1.493656
	H334	H	0.426305	0.526861	1.481438
	H335	H	0.439139	0.537792	1.495442
	O336	O	-0.048215	0.023821	-0.127918
	H337	H	-0.042274	0.028957	-0.134959
	H338	H	-0.052373	0.027763	-0.121485
	O339	O	0.519277	0.518846	0.458334
	H340	H	0.504568	0.531031	0.452108
	H341	H	0.526868	0.519341	0.456039
	O342	O	0.944835	1.022827	1.011621
	H343	H	0.928306	1.032533	1.023637
	H344	H	0.955679	1.011439	1.011218
	O345	O	1.563143	1.410539	-0.649572
	H346	H	1.563075	1.418351	-0.649014
	H347	H	1.562633	1.407975	-0.661290
	O348	O	0.583680	0.598505	0.656044
	H349	H	0.591096	0.595620	0.665609
	H350	H	0.591023	0.606878	0.641857
	O351	O	0.956595	1.016226	0.952075
	H352	H	0.963082	1.008067	0.949170
	H353	H	0.962652	1.013991	0.950776
	O354	O	0.465371	0.491826	0.445851
	H355	H	0.470823	0.474304	0.446499
	H356	H	0.474971	0.497523	0.463396
	O357	O	0.934311	0.034655	0.877769
	H358	H	0.948477	0.040248	0.869261
	H359	H	0.932339	0.041628	0.870290
	O360	O	0.951174	0.050648	0.082740
	H361	H	0.955342	0.050052	0.091368
	H362	H	0.951871	0.050665	0.082663
	O363	O	0.473969	0.494003	0.440342
	H364	H	0.477364	0.499035	0.441908
	H365	H	0.473980	0.504451	0.447463
	O366	O	0.976741	1.010988	1.047000
	H367	H	0.982945	1.003956	1.037634
	H368	H	0.976236	1.011411	1.053349
	O369	O	0.534668	0.594412	1.519567
	H370	H	0.537690	0.594171	1.531331
	H371	H	0.539495	0.581971	1.521309
	O372	O	0.041221	-0.155902	-0.057604
	H373	H	0.031708	-0.174850	-0.060300
	H374	H	0.034860	-0.151167	-0.053302
	O375	O	1.543237	0.337352	0.529962
	H376	H	1.545218	0.320589	0.528919
	H377	H	1.536002	0.339761	0.531153
	O378	O	0.472863	0.612387	0.419417
	H379	H	0.467707	0.627010	0.415728
	H380	H	0.477861	0.626237	0.433950
	O381	O	0.530978	0.421957	0.516277
	H382	H	0.523502	0.412867	0.505525
	H383	H	0.521850	0.423931	0.512100
