data_Molecule from HDF5

_cell_length_a		16.463122
_cell_length_b		16.408984
_cell_length_c		16.539474
_cell_angle_alpha	89.957876
_cell_angle_beta	90.076309
_cell_angle_gamma	89.977252
_symmetry_space_group_name_H-M	'P 1'
_symmetry_Int_Tables_number		1

loop_
	_symmetry_equiv_pos_as_xyz
	x,y,z

loop_
	_atom_site_label
	_atom_site_type_symbol
	_atom_site_fract_x
	_atom_site_fract_y
	_atom_site_fract_z
	H0	H	0.395606	0.843678	0.708234
	H1	H	0.605879	0.159841	0.711522
	H2	H	0.602799	0.845062	0.268759
	H3	H	0.392714	0.160646	0.267404
	H4	H	0.721438	0.394128	0.832022
	H5	H	0.718135	0.603503	0.146986
	H6	H	0.273697	0.609879	0.833044
	H7	H	0.277437	0.396212	0.145528
	H8	H	0.839489	0.717701	0.387552
	H9	H	0.157187	0.720011	0.592733
	H10	H	0.842751	0.276822	0.595986
	H11	H	0.157175	0.280757	0.384771
	H12	H	0.842867	0.390978	0.713394
	H13	H	0.155089	0.606550	0.710824
	H14	H	0.840948	0.603166	0.269138
	H15	H	0.156927	0.395294	0.267646
	H16	H	0.392631	0.723445	0.831882
	H17	H	0.599685	0.719016	0.146829
	H18	H	0.604206	0.279800	0.830832
	H19	H	0.393272	0.279190	0.144760
	H20	H	0.717486	0.843228	0.386633
	H21	H	0.721541	0.160085	0.595200
	H22	H	0.280883	0.842742	0.590712
	H23	H	0.277460	0.160558	0.383928
	H24	H	0.891064	0.342850	0.213100
	H25	H	0.102881	0.659655	0.207914
	H26	H	0.110109	0.344816	0.763302
	H27	H	0.893072	0.657705	0.767153
	H28	H	0.217271	0.900574	0.330012
	H29	H	0.222409	0.109052	0.645918
	H30	H	0.775637	0.109901	0.331335
	H31	H	0.777640	0.896522	0.645953
	H32	H	0.340354	0.222279	0.882475
	H33	H	0.656013	0.224550	0.094869
	H34	H	0.339475	0.782681	0.091318
	H35	H	0.657378	0.781000	0.886093
	H36	H	0.340814	0.898785	0.209252
	H37	H	0.656005	0.110077	0.211147
	H38	H	0.341638	0.107044	0.766756
	H39	H	0.656663	0.895513	0.767232
	H40	H	0.893698	0.224080	0.330595
	H41	H	0.107700	0.226584	0.644913
	H42	H	0.098432	0.784969	0.329270
	H43	H	0.895134	0.780102	0.645874
	H44	H	0.225500	0.344941	0.878996
	H45	H	0.217948	0.660318	0.091573
	H46	H	0.775813	0.342052	0.096625
	H47	H	0.778542	0.658642	0.885222
	H48	H	0.407198	0.116735	0.577702
	H49	H	0.590265	0.889090	0.577059
	H50	H	0.588471	0.117958	0.394931
	H51	H	0.413952	0.890230	0.399215
	H52	H	0.588700	0.409282	0.102155
	H53	H	0.588251	0.594995	0.873934
	H54	H	0.409421	0.594251	0.102548
	H55	H	0.414409	0.415623	0.878274
	H56	H	0.115303	0.592986	0.394795
	H57	H	0.886251	0.586339	0.578355
	H58	H	0.111587	0.413794	0.575276
	H59	H	0.885014	0.413801	0.394794
	H60	H	0.109974	0.415433	0.575615
	H61	H	0.884010	0.591396	0.580924
	H62	H	0.113532	0.593381	0.398624
	H63	H	0.884740	0.408915	0.401894
	H64	H	0.406270	0.589711	0.101642
	H65	H	0.594394	0.589477	0.874272
	H66	H	0.589398	0.415857	0.099944
	H67	H	0.411412	0.409692	0.874959
	H68	H	0.580631	0.113516	0.400992
	H69	H	0.585614	0.889222	0.580065
	H70	H	0.412238	0.116419	0.580443
	H71	H	0.404888	0.888196	0.401608
	H72	H	0.903250	0.614545	0.077470
	H73	H	0.086776	0.387997	0.078077
	H74	H	0.087803	0.610695	0.907763
	H75	H	0.912067	0.388781	0.904043
	H76	H	0.092310	0.907443	0.602783
	H77	H	0.088929	0.092133	0.376563
	H78	H	0.907189	0.103226	0.605944
	H79	H	0.908603	0.910492	0.375786
	H80	H	0.612617	0.096812	0.902389
	H81	H	0.384765	0.093095	0.078608
	H82	H	0.612714	0.911159	0.081937
	H83	H	0.386681	0.915591	0.895786
	H84	H	0.612931	0.908951	0.078490
	H85	H	0.388475	0.089342	0.074000
	H86	H	0.607666	0.084458	0.905827
	H87	H	0.384379	0.909930	0.897078
	H88	H	0.901568	0.075008	0.598479
	H89	H	0.089279	0.086725	0.378034
	H90	H	0.091913	0.911864	0.602433
	H91	H	0.906933	0.909500	0.374874
	H92	H	0.089261	0.616509	0.894779
	H93	H	0.088991	0.387207	0.076575
	H94	H	0.912159	0.614133	0.083964
	H95	H	0.909117	0.386045	0.900602
	H96	H	0.411751	0.114239	0.574773
	H97	H	0.585965	0.891287	0.574543
	H98	H	0.590511	0.115881	0.405039
	H99	H	0.408137	0.886587	0.392738
	H100	H	0.583399	0.412041	0.098814
	H101	H	0.586776	0.587793	0.876852
	H102	H	0.411305	0.589428	0.100056
	H103	H	0.407124	0.416120	0.876503
	H104	H	0.112865	0.590257	0.396618
	H105	H	0.885252	0.591205	0.574901
	H106	H	0.110308	0.414822	0.577329
	H107	H	0.888247	0.417221	0.402283
	H108	H	0.912608	0.610571	0.073841
	H109	H	0.089006	0.386647	0.079170
	H110	H	0.076942	0.610262	0.898953
	H111	H	0.913916	0.387520	0.899398
	H112	H	0.088745	0.909852	0.602297
	H113	H	0.084744	0.089740	0.378692
	H114	H	0.927728	0.087110	0.592476
	H115	H	0.906375	0.911764	0.374994
	H116	H	0.613340	0.086875	0.893433
	H117	H	0.386354	0.086749	0.079831
	H118	H	0.611270	0.912940	0.078386
	H119	H	0.387078	0.912950	0.901524
	C120	C	0.378794	0.010670	0.609004
	C121	C	0.620772	0.993646	0.610628
	C122	C	0.619134	0.011240	0.368309
	C123	C	0.376776	0.993575	0.366356
	C124	C	0.620462	0.378943	-0.003141
	C125	C	0.620039	0.621867	0.979847
	C126	C	0.376406	0.623352	-0.002716
	C127	C	0.377923	0.380645	0.979861
	C128	C	0.008094	0.622457	0.366500
	C129	C	0.989860	0.621635	0.609717
	C130	C	0.007529	0.379455	0.610358
	C131	C	0.990239	0.380211	0.367216
	C132	C	0.877311	0.508225	0.110748
	C133	C	0.119620	0.492348	0.109378
	C134	C	0.120140	0.509383	0.866828
	C135	C	0.878314	0.491562	0.868315
	C136	C	0.121249	0.879339	0.497506
	C137	C	0.121059	0.123062	0.480898
	C138	C	0.878485	0.122401	0.495988
	C139	C	0.876682	0.879447	0.480056
	C140	C	0.507199	0.122169	0.867571
	C141	C	0.490552	0.122950	0.109704
	C142	C	0.507168	0.880184	0.110692
	C143	C	0.490424	0.880205	0.866961
	C144	C	0.377087	0.891086	0.668335
	C145	C	0.623993	0.112320	0.671289
	C146	C	0.621545	0.892115	0.308561
	C147	C	0.374460	0.112961	0.307106
	C148	C	0.681521	0.375868	0.879123
	C149	C	0.678272	0.622397	0.099464
	C150	C	0.314943	0.627373	0.879691
	C151	C	0.317176	0.377725	0.098079
	C152	C	0.887691	0.679523	0.367105
	C153	C	0.109193	0.680777	0.611263
	C154	C	0.889676	0.317446	0.614027
	C155	C	0.109747	0.320606	0.366254
	C156	C	0.890116	0.374193	0.672512
	C157	C	0.108304	0.624220	0.670035
	C158	C	0.888430	0.622543	0.308405
	C159	C	0.109344	0.376962	0.307495
	C160	C	0.373715	0.684123	0.879160
	C161	C	0.619905	0.680141	0.099392
	C162	C	0.622959	0.318951	0.878498
	C163	C	0.375051	0.319587	0.097927
	C164	C	0.678186	0.891355	0.367406
	C165	C	0.681747	0.112356	0.613617
	C166	C	0.320056	0.890696	0.609845
	C167	C	0.317070	0.112945	0.364915
	C168	C	0.874220	0.389822	0.171900
	C169	C	0.121305	0.611752	0.168577
	C170	C	0.126266	0.391719	0.804292
	C171	C	0.875357	0.610425	0.807658
	C172	C	0.178132	0.880477	0.377469
	C173	C	0.182373	0.126769	0.598556
	C174	C	0.816384	0.126887	0.378504
	C175	C	0.817540	0.878053	0.598715
	C176	C	0.388262	0.182694	0.864566
	C177	C	0.608793	0.184225	0.112833
	C178	C	0.387356	0.821878	0.110904
	C179	C	0.609825	0.820364	0.866427
	C180	C	0.388059	0.879492	0.169474
	C181	C	0.608633	0.127161	0.170839
	C182	C	0.388552	0.125079	0.806913
	C183	C	0.609456	0.877616	0.807650
	C184	C	0.875213	0.183966	0.377988
	C185	C	0.124872	0.185160	0.598137
	C186	C	0.119244	0.823163	0.377033
	C187	C	0.875691	0.819824	0.598595
	C188	C	0.183871	0.391957	0.862166
	C189	C	0.178271	0.612287	0.110200
	C190	C	0.816439	0.389568	0.114131
	C191	C	0.818401	0.610805	0.866473
	C192	C	0.403564	0.094154	0.584716
	C193	C	0.594646	0.911258	0.584778
	C194	C	0.593698	0.094226	0.393277
	C195	C	0.401832	0.910005	0.390967
	C196	C	0.594579	0.404927	0.078881
	C197	C	0.596475	0.597824	0.896714
	C198	C	0.401600	0.598106	0.079805
	C199	C	0.403643	0.406479	0.897907
	C200	C	0.091842	0.599012	0.389981
	C201	C	0.906698	0.596615	0.584978
	C202	C	0.089276	0.406704	0.583509
	C203	C	0.907598	0.405895	0.392252
	C204	C	0.902362	0.591351	0.085604
	C205	C	0.095167	0.408901	0.084938
	C206	C	0.092695	0.591140	0.893134
	C207	C	0.904218	0.408737	0.893907
	C208	C	0.097828	0.902953	0.580667
	C209	C	0.095080	0.097043	0.398957
	C210	C	0.904706	0.095966	0.577731
	C211	C	0.900542	0.903570	0.396992
	C212	C	0.589698	0.096724	0.893083
	C213	C	0.407991	0.097193	0.084630
	C214	C	0.590614	0.904246	0.086772
	C215	C	0.407742	0.905445	0.891137
	Zn216	Zn	0.499093	0.002159	0.738128
	Zn217	Zn	0.498594	0.003231	0.238789
	Zn218	Zn	0.748921	0.499904	-0.011072
	Zn219	Zn	0.248626	0.501618	-0.011562
	Zn220	Zn	-0.000866	0.750451	0.488317
	Zn221	Zn	-0.000613	0.252034	0.488175
	Zn222	Zn	-0.001398	0.500265	0.738306
	Zn223	Zn	-0.000562	0.500449	0.238612
	Zn224	Zn	0.498152	0.751367	-0.011194
	Zn225	Zn	0.498453	0.250709	-0.011893
	Zn226	Zn	0.748329	0.002358	0.488668
	Zn227	Zn	0.250175	0.001970	0.488715
	N228	N	0.412906	0.966768	0.667837
	N229	N	0.587008	0.037338	0.669793
	N230	N	0.585863	0.967771	0.308809
	N231	N	0.410763	0.037513	0.307824
	N232	N	0.680133	0.412187	0.953904
	N233	N	0.678656	0.587092	0.024188
	N234	N	0.316582	0.590642	0.954139
	N235	N	0.318626	0.414709	0.023571
	N236	N	0.963198	0.679709	0.402312
	N237	N	0.034305	0.679534	0.574658
	N238	N	0.963732	0.320605	0.576149
	N239	N	0.034583	0.322069	0.402289
	N240	N	0.964706	0.411752	0.670437
	N241	N	0.033045	0.588099	0.669154
	N242	N	0.964325	0.587778	0.307936
	N243	N	0.034141	0.413140	0.307925
	N244	N	0.411323	0.681862	0.953429
	N245	N	0.584648	0.680155	0.024013
	N246	N	0.585801	0.320651	0.952804
	N247	N	0.411831	0.321190	0.023435
	N248	N	0.677068	0.966675	0.403471
	N249	N	0.679650	0.037648	0.576444
	N250	N	0.320865	0.966062	0.573952
	N251	N	0.318697	0.037622	0.401342
	N252	N	0.911442	0.464626	0.169776
	N253	N	0.085621	0.536073	0.168207
	N254	N	0.087235	0.465638	0.807115
	N255	N	0.911822	0.534992	0.808592
	N256	N	0.179643	0.914558	0.453313
	N257	N	0.180158	0.088787	0.524594
	N258	N	0.818204	0.089512	0.452950
	N259	N	0.817827	0.914138	0.523796
	N260	N	0.463176	0.181077	0.901672
	N261	N	0.534434	0.181699	0.075320
	N262	N	0.462574	0.822339	0.074928
	N263	N	0.534818	0.821854	0.902645
	N264	N	0.463514	0.914952	0.169325
	N265	N	0.534106	0.089532	0.168789
	N266	N	0.463342	0.088342	0.808678
	N267	N	0.534324	0.913770	0.807643
	N268	N	0.913062	0.181462	0.452051
	N269	N	0.087409	0.182916	0.523924
	N270	N	0.085046	0.821993	0.452798
	N271	N	0.911748	0.820652	0.523877
	N272	N	0.180277	0.466142	0.900374
	N273	N	0.177467	0.536897	0.074155
	N274	N	0.818313	0.464203	0.076529
	N275	N	0.820161	0.535860	0.903351
	O276	O	1.210567	0.850873	0.010080
	H277	H	1.218075	0.829438	0.002656
	H278	H	1.205783	0.854169	-0.006669
	O279	O	0.199360	-0.221542	0.191601
	H280	H	0.190840	-0.203678	0.189446
	H281	H	0.177508	-0.211268	0.185094
	O282	O	0.881840	1.092874	0.037076
	H283	H	0.879480	1.080430	0.045583
	H284	H	0.882756	1.101653	0.022147
	O285	O	0.688041	0.332233	0.330285
	H286	H	0.689079	0.367961	0.323460
	H287	H	0.647161	0.318723	0.320884
	O288	O	-0.497850	0.705192	-0.653522
	H289	H	-0.494320	0.710411	-0.650632
	H290	H	-0.496144	0.713244	-0.646400
	O291	O	1.474767	0.721504	0.444847
	H292	H	1.482213	0.733367	0.468718
	H293	H	1.464892	0.714451	0.473326
	O294	O	0.015656	1.215099	0.188060
	H295	H	0.024161	1.237073	0.206712
	H296	H	0.044162	1.209767	0.189745
	O297	O	0.072707	-0.198247	0.055044
	H298	H	0.078065	-0.194655	0.051039
	H299	H	0.075383	-0.186995	0.054606
	O300	O	0.441336	0.485521	0.515370
	H301	H	0.439272	0.501258	0.523801
	H302	H	0.445730	0.496602	0.517848
	O303	O	0.332487	0.537986	0.327135
	H304	H	0.309419	0.552904	0.317601
	H305	H	0.322446	0.553210	0.340085
	O306	O	0.471938	0.596917	0.586954
	H307	H	0.452935	0.606690	0.590106
	H308	H	0.471092	0.602516	0.603213
	O309	O	0.529223	0.302072	0.293781
	H310	H	0.521987	0.294817	0.274187
	H311	H	0.508156	0.313926	0.304345
	O312	O	0.347803	0.709534	0.278959
	H313	H	0.314929	0.715992	0.261123
	H314	H	0.377617	0.718439	0.261008
	O315	O	0.690261	-0.308108	1.299394
	H316	H	0.681997	-0.324078	1.320930
	H317	H	0.676993	-0.319555	1.307581
	O318	O	0.093761	0.797991	-0.175891
	H319	H	0.084452	0.808006	-0.193329
	H320	H	0.079356	0.805725	-0.163301
	O321	O	0.471711	0.296094	-0.302238
	H322	H	0.501167	0.321020	-0.308253
	H323	H	0.482531	0.272913	-0.273582
	O324	O	1.036798	0.071559	0.886330
	H325	H	1.021468	0.078231	0.895502
	H326	H	1.057968	0.071754	0.890093
	O327	O	0.698328	0.428922	1.531132
	H328	H	0.675530	0.435371	1.524261
	H329	H	0.704832	0.402365	1.516243
	O330	O	0.508918	0.424328	0.551508
	H331	H	0.508844	0.431108	0.544586
	H332	H	0.508548	0.439244	0.559767
	O333	O	1.505123	0.491368	1.675839
	H334	H	1.503293	0.503661	1.670678
	H335	H	1.520983	0.494635	1.674230
	O336	O	0.696906	0.700061	0.682845
	H337	H	0.714374	0.710559	0.662205
	H338	H	0.713407	0.679203	0.694497
	O339	O	0.204892	-0.045607	1.028777
	H340	H	0.208571	-0.048177	1.011343
	H341	H	0.207722	-0.049359	1.019514
	O342	O	-0.021941	1.218724	0.771903
	H343	H	-0.011990	1.227702	0.789496
	H344	H	-0.021200	1.245737	0.749570
	O345	O	-0.123161	0.017867	-0.192382
	H346	H	-0.132596	0.017785	-0.171583
	H347	H	-0.146024	0.027289	-0.217158
	O348	O	0.800207	0.205177	0.969416
	H349	H	0.795748	0.210646	0.972053
	H350	H	0.795005	0.213140	0.979198
	O351	O	0.802094	0.834030	-0.082863
	H352	H	0.802254	0.835131	-0.074653
	H353	H	0.813522	0.840131	-0.068221
	O354	O	0.295482	0.520296	0.492027
	H355	H	0.295912	0.518985	0.485399
	H356	H	0.284776	0.536614	0.511596
	O357	O	1.336404	1.606495	0.565843
	H358	H	1.328271	1.624244	0.571755
	H359	H	1.340721	1.598906	0.582661
	O360	O	0.530493	0.718721	0.711264
	H361	H	0.540903	0.746510	0.736272
	H362	H	0.573144	0.717388	0.711583
	O363	O	0.332941	0.446373	0.637281
	H364	H	0.346449	0.442869	0.634032
	H365	H	0.337706	0.458863	0.640951
	O366	O	1.181860	0.089446	0.962664
	H367	H	1.176474	0.099818	0.976740
	H368	H	1.189444	0.091101	0.950447
	O369	O	1.110761	1.008100	1.185581
	H370	H	1.109446	1.001851	1.174313
	H371	H	1.091443	0.994539	1.186858
	O372	O	0.058723	-0.017260	0.880700
	H373	H	0.043690	-0.016827	0.887371
	H374	H	0.061944	0.007535	0.869942
	O375	O	0.023023	0.986401	0.881025
	H376	H	0.028316	1.009210	0.882311
	H377	H	0.003635	0.989609	0.878923
	O378	O	0.649097	0.397859	0.338617
	H379	H	0.654770	0.401109	0.338482
	H380	H	0.663853	0.401311	0.322546
	O381	O	1.297683	-0.657061	0.500977
	H382	H	1.288941	-0.664395	0.514583
	H383	H	1.301310	-0.665015	0.519029
	O384	O	0.586304	-0.626601	1.552546
	H385	H	0.599458	-0.656215	1.547973
	H386	H	0.568552	-0.628222	1.535517
	O387	O	-0.180223	1.179877	0.808607
	H388	H	-0.164340	1.181035	0.806792
	H389	H	-0.168444	1.182022	0.836876
	O390	O	0.086691	-0.183193	0.981483
	H391	H	0.077070	-0.174983	0.981929
	H392	H	0.054027	-0.186315	0.983562
	O393	O	0.924402	1.072476	0.115418
	H394	H	0.935139	1.066529	0.123609
	H395	H	0.888757	1.070340	0.126415
	O396	O	0.499159	0.302476	0.565690
	H397	H	0.508441	0.306727	0.558900
	H398	H	0.517872	0.307403	0.554407
	O399	O	0.785556	1.007399	0.152149
	H400	H	0.793449	0.997705	0.167010
	H401	H	0.781076	1.009318	0.166099
	O402	O	-0.050102	0.010182	1.051368
	H403	H	-0.053559	-0.012352	1.051590
	H404	H	-0.044433	0.009719	1.054732
	O405	O	-0.036670	0.100331	0.121082
	H406	H	-0.030225	0.110095	0.131629
	H407	H	-0.034107	0.103905	0.124377
	O408	O	0.516551	0.527744	0.634793
	H409	H	0.526257	0.530035	0.625016
	H410	H	0.512266	0.544282	0.643344
	O411	O	-0.101455	0.801382	0.856593
	H412	H	-0.098180	0.811505	0.862703
	H413	H	-0.094924	0.803413	0.870121
	O414	O	0.705091	0.527484	0.698036
	H415	H	0.706148	0.527998	0.686428
	H416	H	0.721536	0.516851	0.702365
	O417	O	0.451767	0.336988	0.481372
	H418	H	0.459909	0.334115	0.473538
	H419	H	0.438001	0.329026	0.505317
	O420	O	0.342530	0.394772	0.292272
	H421	H	0.343332	0.409222	0.301568
	H422	H	0.341710	0.398954	0.300588
	O423	O	0.193909	1.192791	0.181960
	H424	H	0.212480	1.184407	0.203306
	H425	H	0.198458	1.168957	0.176639
	O426	O	0.792745	0.797735	1.192094
	H427	H	0.779614	0.806658	1.172170
	H428	H	0.792220	0.776619	1.215085
	O429	O	0.588667	0.545719	0.290501
	H430	H	0.556931	0.546718	0.284985
	H431	H	0.588513	0.567751	0.303564
	O432	O	0.414952	0.594498	0.428830
	H433	H	0.389787	0.607996	0.432376
	H434	H	0.416556	0.586323	0.397979
	O435	O	0.214622	0.185044	0.007880
	H436	H	0.205808	0.186609	0.030101
	H437	H	0.240816	0.206730	0.022567
	O438	O	1.033188	0.157541	-0.031153
	H439	H	1.027239	0.158456	-0.024540
	H440	H	1.027520	0.167441	-0.019417
	O441	O	0.408130	0.421946	0.297330
	H442	H	0.384252	0.431311	0.307269
	H443	H	0.409935	0.448448	0.299872
	O444	O	-0.219779	0.973299	0.981516
	H445	H	-0.213862	0.981510	0.981915
	H446	H	-0.225041	0.971556	0.989596
	O447	O	0.669390	0.560939	0.453348
	H448	H	0.645461	0.545754	0.460621
	H449	H	0.668545	0.569009	0.455948
	O450	O	0.204966	0.973171	0.808903
	H451	H	0.192612	1.004249	0.809095
	H452	H	0.212848	0.981473	0.791478
	O453	O	0.696202	0.714258	0.513453
	H454	H	0.716891	0.730463	0.519487
	H455	H	0.684440	0.708751	0.505123
	O456	O	0.997508	-0.099356	0.193674
	H457	H	0.996434	-0.110649	0.187222
	H458	H	0.992060	-0.087762	0.189166
	O459	O	0.866170	-0.210737	1.022998
	H460	H	0.854023	-0.223212	1.028526
	H461	H	0.869787	-0.207240	1.028600
	O462	O	0.265209	0.645861	0.712434
	H463	H	0.274279	0.663617	0.712597
	H464	H	0.235885	0.653628	0.731080
	O465	O	0.890290	-0.017814	-0.232521
	H466	H	0.894157	0.011921	-0.224308
	H467	H	0.867301	0.000816	-0.238591
