data_Molecule from HDF5

_cell_length_a		16.282576
_cell_length_b		16.254179
_cell_length_c		16.214117
_cell_angle_alpha	90.013884
_cell_angle_beta	90.003317
_cell_angle_gamma	89.940716
_symmetry_space_group_name_H-M	'P 1'
_symmetry_Int_Tables_number		1

loop_
	_symmetry_equiv_pos_as_xyz
	x,y,z

loop_
	_atom_site_label
	_atom_site_type_symbol
	_atom_site_fract_x
	_atom_site_fract_y
	_atom_site_fract_z
	H0	H	0.402341	0.835496	0.713003
	H1	H	0.597055	0.164280	0.713383
	H2	H	0.597467	0.835221	0.287477
	H3	H	0.402546	0.164234	0.286553
	H4	H	0.714624	0.399900	0.835958
	H5	H	0.712949	0.597463	0.164205
	H6	H	0.286344	0.597223	0.835594
	H7	H	0.287338	0.403429	0.164826
	H8	H	0.836542	0.714620	0.402265
	H9	H	0.164487	0.712965	0.597167
	H10	H	0.835634	0.286475	0.598973
	H11	H	0.163729	0.285863	0.403435
	H12	H	0.836514	0.401382	0.714698
	H13	H	0.163616	0.597121	0.714049
	H14	H	0.835768	0.598133	0.286048
	H15	H	0.164330	0.402585	0.287612
	H16	H	0.403117	0.712219	0.835231
	H17	H	0.597786	0.713478	0.163828
	H18	H	0.597518	0.286838	0.835459
	H19	H	0.402358	0.286651	0.164790
	H20	H	0.715187	0.836264	0.401320
	H21	H	0.714144	0.164012	0.598111
	H22	H	0.285800	0.836224	0.597914
	H23	H	0.284606	0.163439	0.400467
	H24	H	0.903920	0.335353	0.212696
	H25	H	0.095969	0.664818	0.212601
	H26	H	0.096464	0.335163	0.787657
	H27	H	0.901782	0.664054	0.786756
	H28	H	0.213036	0.901824	0.335552
	H29	H	0.213876	0.098161	0.664200
	H30	H	0.786818	0.097938	0.335869
	H31	H	0.786589	0.901303	0.664718
	H32	H	0.335918	0.214619	0.901715
	H33	H	0.663339	0.216012	0.099624
	H34	H	0.335899	0.787014	0.097131
	H35	H	0.664257	0.785344	0.902096
	H36	H	0.335757	0.903113	0.213073
	H37	H	0.664401	0.097478	0.213903
	H38	H	0.335713	0.097652	0.785796
	H39	H	0.664520	0.903218	0.787288
	H40	H	0.902709	0.213735	0.335752
	H41	H	0.098364	0.213611	0.664446
	H42	H	0.097313	0.787329	0.335590
	H43	H	0.903114	0.787010	0.664549
	H44	H	0.214951	0.335711	0.901343
	H45	H	0.213565	0.664009	0.097804
	H46	H	0.785488	0.336257	0.099082
	H47	H	0.784439	0.663247	0.900917
	H48	H	0.396993	0.121441	0.598254
	H49	H	0.586085	0.884995	0.594589
	H50	H	0.592811	0.117200	0.405137
	H51	H	0.412056	0.883901	0.405211
	H52	H	0.591693	0.411606	0.116255
	H53	H	0.586060	0.595565	0.883451
	H54	H	0.410018	0.600179	0.119047
	H55	H	0.412136	0.403702	0.883597
	H56	H	0.114614	0.590532	0.412612
	H57	H	0.885689	0.588776	0.589845
	H58	H	0.113623	0.415165	0.591729
	H59	H	0.884422	0.411251	0.407789
	H60	H	0.119891	0.404217	0.603279
	H61	H	0.881780	0.593633	0.599475
	H62	H	0.117925	0.589565	0.399086
	H63	H	0.881740	0.405217	0.400905
	H64	H	0.399097	0.594508	0.119570
	H65	H	0.597866	0.596608	0.878976
	H66	H	0.590047	0.404087	0.117611
	H67	H	0.401818	0.403602	0.880531
	H68	H	0.593742	0.116818	0.408343
	H69	H	0.596814	0.883941	0.585165
	H70	H	0.417128	0.115789	0.597612
	H71	H	0.405933	0.884204	0.412220
	H72	H	0.911997	0.613324	0.086047
	H73	H	0.097879	0.379364	0.101860
	H74	H	0.090122	0.616418	0.905137
	H75	H	0.913323	0.384901	0.909069
	H76	H	0.093733	0.908267	0.617214
	H77	H	0.082154	0.096649	0.385030
	H78	H	0.897438	0.093672	0.620258
	H79	H	0.901274	0.915673	0.384026
	H80	H	0.615137	0.096460	0.915566
	H81	H	0.383436	0.086791	0.099422
	H82	H	0.614031	0.911679	0.088221
	H83	H	0.387978	0.913831	0.914545
	H84	H	0.618694	0.907870	0.101381
	H85	H	0.380622	0.101666	0.095283
	H86	H	0.614292	0.085236	0.904999
	H87	H	0.381399	0.910443	0.893949
	H88	H	0.910069	0.085063	0.614407
	H89	H	0.100167	0.100572	0.378531
	H90	H	0.093288	0.904225	0.618228
	H91	H	0.916633	0.906832	0.385442
	H92	H	0.094550	0.616225	0.910673
	H93	H	0.086293	0.384694	0.092912
	H94	H	0.895663	0.618822	0.090803
	H95	H	0.901926	0.383113	0.912550
	H96	H	0.405309	0.114115	0.580632
	H97	H	0.599095	0.879458	0.598601
	H98	H	0.596465	0.118229	0.405674
	H99	H	0.402809	0.880917	0.403692
	H100	H	0.597589	0.406513	0.118900
	H101	H	0.593644	0.585833	0.884057
	H102	H	0.408943	0.588652	0.115476
	H103	H	0.406527	0.413013	0.884480
	H104	H	0.119488	0.601736	0.406133
	H105	H	0.882360	0.599560	0.589975
	H106	H	0.117240	0.399304	0.586991
	H107	H	0.882867	0.401762	0.410292
	H108	H	0.908805	0.618621	0.102419
	H109	H	0.099991	0.382610	0.086896
	H110	H	0.096878	0.618913	0.904701
	H111	H	0.904657	0.381186	0.900781
	H112	H	0.096557	0.905738	0.618553
	H113	H	0.096001	0.082567	0.384851
	H114	H	0.912013	0.101012	0.618292
	H115	H	0.902373	0.898779	0.378708
	H116	H	0.619931	0.099341	0.900977
	H117	H	0.386523	0.092141	0.084579
	H118	H	0.618471	0.898537	0.090997
	H119	H	0.379994	0.894013	0.908186
	C120	C	0.378416	0.008516	0.620683
	C121	C	0.621748	0.991732	0.621170
	C122	C	0.622207	0.008443	0.378256
	C123	C	0.378371	0.991303	0.378223
	C124	C	0.621259	0.378500	0.008564
	C125	C	0.620894	0.620962	0.991117
	C126	C	0.378390	0.621975	0.009035
	C127	C	0.378603	0.378624	0.991500
	C128	C	0.008772	0.622045	0.377990
	C129	C	0.991579	0.621610	0.621090
	C130	C	0.008212	0.378136	0.622137
	C131	C	0.991335	0.377724	0.378235
	C132	C	0.877559	0.508685	0.121800
	C133	C	0.121822	0.491222	0.121588
	C134	C	0.121674	0.508209	0.878795
	C135	C	0.878100	0.491306	0.878644
	C136	C	0.121836	0.878141	0.508785
	C137	C	0.121117	0.121516	0.491590
	C138	C	0.878528	0.121547	0.508975
	C139	C	0.878770	0.878464	0.491262
	C140	C	0.508181	0.121970	0.878250
	C141	C	0.491925	0.121663	0.121639
	C142	C	0.508497	0.878421	0.121384
	C143	C	0.491885	0.878189	0.877912
	C144	C	0.381722	0.884679	0.675319
	C145	C	0.618139	0.115250	0.675773
	C146	C	0.618576	0.884611	0.324483
	C147	C	0.381384	0.115157	0.323849
	C148	C	0.676407	0.380353	0.884843
	C149	C	0.675572	0.618198	0.114977
	C150	C	0.323998	0.618431	0.884798
	C151	C	0.324725	0.382433	0.115825
	C152	C	0.885241	0.677013	0.381141
	C153	C	0.115368	0.675382	0.617768
	C154	C	0.884930	0.323785	0.619268
	C155	C	0.114980	0.323462	0.382168
	C156	C	0.885113	0.380824	0.676951
	C157	C	0.115050	0.618183	0.676191
	C158	C	0.885014	0.618925	0.323856
	C159	C	0.115098	0.381531	0.324624
	C160	C	0.381785	0.675772	0.884517
	C161	C	0.618372	0.675839	0.114938
	C162	C	0.618195	0.324136	0.884629
	C163	C	0.381625	0.324296	0.115682
	C164	C	0.676913	0.884840	0.381213
	C165	C	0.676224	0.115209	0.618497
	C166	C	0.323618	0.884800	0.618491
	C167	C	0.322871	0.114745	0.380351
	C168	C	0.882229	0.384600	0.175571
	C169	C	0.117658	0.615520	0.175292
	C170	C	0.117981	0.384400	0.824463
	C171	C	0.881047	0.615028	0.824157
	C172	C	0.175744	0.881046	0.384868
	C173	C	0.176253	0.118896	0.615093
	C174	C	0.824217	0.118721	0.384847
	C175	C	0.824331	0.881292	0.615524
	C176	C	0.384705	0.176678	0.881247
	C177	C	0.615130	0.176658	0.119007
	C178	C	0.385036	0.823952	0.118423
	C179	C	0.615350	0.823301	0.881274
	C180	C	0.385113	0.881591	0.176101
	C181	C	0.615434	0.118357	0.176083
	C182	C	0.384765	0.118961	0.823318
	C183	C	0.615587	0.881925	0.824438
	C184	C	0.881645	0.176237	0.385031
	C185	C	0.118733	0.176113	0.615331
	C186	C	0.118257	0.823951	0.384945
	C187	C	0.882149	0.824350	0.615639
	C188	C	0.176655	0.384686	0.881249
	C189	C	0.175843	0.615205	0.118411
	C190	C	0.823313	0.384976	0.119367
	C191	C	0.822979	0.614820	0.880909
	C192	C	0.400004	0.094658	0.598562
	C193	C	0.600379	0.905140	0.599073
	C194	C	0.600542	0.095059	0.400062
	C195	C	0.400415	0.905255	0.400405
	C196	C	0.599637	0.400881	0.095148
	C197	C	0.599011	0.599009	0.904570
	C198	C	0.399662	0.600811	0.095678
	C199	C	0.400356	0.400331	0.905195
	C200	C	0.095003	0.600481	0.399637
	C201	C	0.905521	0.600190	0.599558
	C202	C	0.094643	0.399892	0.600423
	C203	C	0.904960	0.399595	0.399843
	C204	C	0.898969	0.594790	0.099673
	C205	C	0.100822	0.404647	0.100207
	C206	C	0.100070	0.594802	0.900519
	C207	C	0.900064	0.405260	0.900845
	C208	C	0.100664	0.899624	0.595730
	C209	C	0.099189	0.099653	0.404918
	C210	C	0.899960	0.099699	0.595390
	C211	C	0.900321	0.900400	0.404949
	C212	C	0.594217	0.100117	0.900546
	C213	C	0.405736	0.099918	0.099630
	C214	C	0.594884	0.899775	0.099835
	C215	C	0.405274	0.899605	0.899220
	Zn216	Zn	0.499894	0.000042	0.749512
	Zn217	Zn	0.500189	0.000193	0.250417
	Zn218	Zn	0.749255	0.499781	-0.000206
	Zn219	Zn	0.250409	0.499781	0.000257
	Zn220	Zn	0.000042	0.750689	0.499869
	Zn221	Zn	-0.000120	0.249728	0.500881
	Zn222	Zn	-0.000418	0.499880	0.750209
	Zn223	Zn	0.000205	0.500352	0.249853
	Zn224	Zn	0.500061	0.749530	-0.000444
	Zn225	Zn	0.500043	0.250696	0.000119
	Zn226	Zn	0.750601	-0.000148	0.500218
	Zn227	Zn	0.249358	0.000027	0.499684
	N228	N	0.415077	0.962469	0.676852
	N229	N	0.585170	0.037375	0.677563
	N230	N	0.585282	0.962594	0.322474
	N231	N	0.415078	0.037530	0.322368
	N232	N	0.678295	0.413590	0.962959
	N233	N	0.677281	0.584943	0.036897
	N234	N	0.321771	0.585718	0.963075
	N235	N	0.322783	0.415532	0.037653
	N236	N	0.963174	0.679168	0.414170
	N237	N	0.037683	0.677656	0.584358
	N238	N	0.962638	0.322189	0.585781
	N239	N	0.037011	0.320984	0.414756
	N240	N	0.962756	0.414121	0.678816
	N241	N	0.037106	0.585348	0.678394
	N242	N	0.962587	0.585528	0.321957
	N243	N	0.037247	0.414728	0.322239
	N244	N	0.414965	0.677814	0.962620
	N245	N	0.585194	0.677550	0.036838
	N246	N	0.584718	0.322789	0.962625
	N247	N	0.414607	0.322120	0.037627
	N248	N	0.679283	0.962890	0.413908
	N249	N	0.678389	0.037302	0.585205
	N250	N	0.321495	0.962549	0.585048
	N251	N	0.321094	0.036857	0.413797
	N252	N	0.915269	0.462570	0.177352
	N253	N	0.084910	0.537463	0.177403
	N254	N	0.084237	0.462133	0.823046
	N255	N	0.914908	0.537377	0.822773
	N256	N	0.178110	0.914032	0.462958
	N257	N	0.177618	0.085395	0.537173
	N258	N	0.822109	0.085293	0.462910
	N259	N	0.822180	0.914451	0.537309
	N260	N	0.462483	0.178967	0.914377
	N261	N	0.537255	0.178800	0.085848
	N262	N	0.462794	0.821814	0.085210
	N263	N	0.537320	0.821141	0.913884
	N264	N	0.462882	0.914922	0.177977
	N265	N	0.537870	0.084811	0.177722
	N266	N	0.462433	0.085583	0.821518
	N267	N	0.537823	0.915185	0.822210
	N268	N	0.914757	0.177902	0.463075
	N269	N	0.085444	0.177910	0.537370
	N270	N	0.085327	0.822253	0.463161
	N271	N	0.915228	0.822542	0.537562
	N272	N	0.179224	0.462787	0.913978
	N273	N	0.178588	0.536944	0.085769
	N274	N	0.820525	0.462890	0.086325
	N275	N	0.820868	0.536911	0.914015
