data_Molecule from HDF5

_cell_length_a		16.530588
_cell_length_b		16.585842
_cell_length_c		16.600488
_cell_angle_alpha	90.025796
_cell_angle_beta	90.173957
_cell_angle_gamma	90.011356
_symmetry_space_group_name_H-M	'P 1'
_symmetry_Int_Tables_number		1

loop_
	_symmetry_equiv_pos_as_xyz
	x,y,z

loop_
	_atom_site_label
	_atom_site_type_symbol
	_atom_site_fract_x
	_atom_site_fract_y
	_atom_site_fract_z
	H0	H	0.401719	0.839488	0.725699
	H1	H	0.608150	0.152783	0.724293
	H2	H	0.612181	0.840702	0.281874
	H3	H	0.400326	0.151039	0.284567
	H4	H	0.728306	0.388920	0.850471
	H5	H	0.728557	0.602677	0.160730
	H6	H	0.282470	0.601520	0.849751
	H7	H	0.287822	0.394731	0.163214
	H8	H	0.848033	0.714910	0.401401
	H9	H	0.160935	0.717239	0.610599
	H10	H	0.848844	0.273376	0.610047
	H11	H	0.160328	0.272441	0.398808
	H12	H	0.850006	0.388974	0.727371
	H13	H	0.161858	0.599912	0.725824
	H14	H	0.848450	0.598903	0.284736
	H15	H	0.160911	0.389189	0.283787
	H16	H	0.399806	0.717334	0.849187
	H17	H	0.613038	0.719136	0.160406
	H18	H	0.613161	0.270719	0.851493
	H19	H	0.403121	0.277121	0.162636
	H20	H	0.726011	0.838705	0.401423
	H21	H	0.724963	0.152115	0.608050
	H22	H	0.284059	0.840265	0.610041
	H23	H	0.284548	0.151680	0.401891
	H24	H	0.901342	0.339555	0.224430
	H25	H	0.110675	0.651283	0.227382
	H26	H	0.111877	0.340601	0.782728
	H27	H	0.896778	0.650222	0.779254
	H28	H	0.227938	0.890128	0.350438
	H29	H	0.225861	0.100060	0.661728
	H30	H	0.784290	0.097722	0.349112
	H31	H	0.785443	0.890058	0.662530
	H32	H	0.347240	0.215575	0.900806
	H33	H	0.661986	0.213898	0.107090
	H34	H	0.349079	0.774734	0.109766
	H35	H	0.661703	0.772902	0.898636
	H36	H	0.349794	0.889812	0.226976
	H37	H	0.662494	0.098795	0.224339
	H38	H	0.348069	0.100280	0.784237
	H39	H	0.663187	0.890211	0.784672
	H40	H	0.901853	0.213223	0.348116
	H41	H	0.111921	0.218754	0.659633
	H42	H	0.110947	0.773954	0.349641
	H43	H	0.900270	0.772778	0.661539
	H44	H	0.225643	0.338998	0.901519
	H45	H	0.226350	0.652061	0.110423
	H46	H	0.785317	0.339965	0.106589
	H47	H	0.779736	0.650040	0.893870
	H48	H	0.416167	0.105440	0.587281
	H49	H	0.597659	0.882564	0.592681
	H50	H	0.595384	0.107346	0.417169
	H51	H	0.413442	0.882232	0.414975
	H52	H	0.596412	0.410339	0.116177
	H53	H	0.595230	0.581980	0.893757
	H54	H	0.416399	0.587271	0.118002
	H55	H	0.418412	0.404861	0.893805
	H56	H	0.120691	0.586593	0.408341
	H57	H	0.891974	0.588404	0.591012
	H58	H	0.120136	0.406239	0.599773
	H59	H	0.891723	0.405049	0.411831
	H60	H	0.116386	0.401577	0.586768
	H61	H	0.895621	0.579820	0.587954
	H62	H	0.118583	0.590700	0.421020
	H63	H	0.891468	0.403206	0.416171
	H64	H	0.416706	0.584328	0.116914
	H65	H	0.590376	0.582471	0.895691
	H66	H	0.591008	0.407436	0.115624
	H67	H	0.412695	0.403573	0.891967
	H68	H	0.593414	0.107363	0.415084
	H69	H	0.596184	0.881006	0.599826
	H70	H	0.408627	0.112030	0.599149
	H71	H	0.421911	0.884283	0.415863
	H72	H	0.915844	0.609296	0.096618
	H73	H	0.096936	0.384097	0.091493
	H74	H	0.093641	0.608070	0.916333
	H75	H	0.923067	0.386913	0.914965
	H76	H	0.086296	0.900374	0.616270
	H77	H	0.093145	0.080612	0.395466
	H78	H	0.919317	0.087107	0.617160
	H79	H	0.918246	0.908747	0.396796
	H80	H	0.615570	0.084442	0.920811
	H81	H	0.392195	0.083846	0.096518
	H82	H	0.617596	0.907244	0.093608
	H83	H	0.395876	0.905542	0.920821
	H84	H	0.616752	0.908355	0.092680
	H85	H	0.390361	0.087633	0.098303
	H86	H	0.617299	0.081288	0.913090
	H87	H	0.394397	0.912523	0.913528
	H88	H	0.913601	0.087505	0.619269
	H89	H	0.090937	0.087814	0.392676
	H90	H	0.101906	0.904841	0.620348
	H91	H	0.916823	0.900561	0.393004
	H92	H	0.093257	0.607072	0.916120
	H93	H	0.098575	0.381011	0.098073
	H94	H	0.921330	0.607408	0.095062
	H95	H	0.917939	0.386683	0.922365
	H96	H	0.423435	0.108031	0.600471
	H97	H	0.590787	0.884976	0.595225
	H98	H	0.593348	0.106405	0.417998
	H99	H	0.416704	0.885578	0.422207
	H100	H	0.596375	0.404405	0.118426
	H101	H	0.592344	0.586567	0.893138
	H102	H	0.418792	0.586478	0.116611
	H103	H	0.413983	0.408808	0.893985
	H104	H	0.115372	0.578436	0.417403
	H105	H	0.892324	0.580344	0.596828
	H106	H	0.113193	0.415303	0.591056
	H107	H	0.892893	0.407454	0.415423
	H108	H	0.916518	0.607602	0.090921
	H109	H	0.091630	0.384062	0.096841
	H110	H	0.094013	0.607083	0.916713
	H111	H	0.914837	0.383204	0.914439
	H112	H	0.091795	0.915341	0.612764
	H113	H	0.098550	0.084913	0.392018
	H114	H	0.915854	0.081898	0.617175
	H115	H	0.910228	0.907045	0.392749
	H116	H	0.619213	0.089004	0.914872
	H117	H	0.391620	0.087516	0.093666
	H118	H	0.617175	0.909220	0.094779
	H119	H	0.391459	0.902932	0.912260
	C120	C	0.384116	0.004890	0.627379
	C121	C	0.626558	0.986522	0.627201
	C122	C	0.626624	0.003707	0.384428
	C123	C	0.384730	0.987198	0.385303
	C124	C	0.626851	0.374675	0.013790
	C125	C	0.626652	0.617122	0.996736
	C126	C	0.384226	0.617774	0.013841
	C127	C	0.384195	0.374999	0.997118
	C128	C	0.014351	0.616707	0.383734
	C129	C	0.996657	0.616025	0.625330
	C130	C	0.013517	0.374437	0.625366
	C131	C	0.996017	0.373859	0.383504
	C132	C	0.884957	0.504748	0.125838
	C133	C	0.127530	0.486680	0.127640
	C134	C	0.126776	0.504477	0.883959
	C135	C	0.884069	0.487502	0.882758
	C136	C	0.126144	0.874857	0.513498
	C137	C	0.126821	0.117104	0.496348
	C138	C	0.883883	0.116409	0.514129
	C139	C	0.883394	0.873122	0.497282
	C140	C	0.513609	0.117213	0.884328
	C141	C	0.495961	0.117184	0.127171
	C142	C	0.514205	0.875105	0.126246
	C143	C	0.497451	0.874488	0.883716
	C144	C	0.382597	0.886759	0.686378
	C145	C	0.627520	0.105347	0.685291
	C146	C	0.629843	0.886855	0.322982
	C147	C	0.381773	0.104497	0.324992
	C148	C	0.687741	0.370841	0.896985
	C149	C	0.688309	0.620489	0.113760
	C150	C	0.323157	0.619663	0.896521
	C151	C	0.326704	0.375192	0.115882
	C152	C	0.895537	0.675312	0.382384
	C153	C	0.114374	0.676526	0.628406
	C154	C	0.896077	0.313377	0.628539
	C155	C	0.113669	0.313139	0.381092
	C156	C	0.896617	0.370599	0.686880
	C157	C	0.114712	0.618720	0.685996
	C158	C	0.895619	0.617744	0.324492
	C159	C	0.113887	0.371054	0.323723
	C160	C	0.381515	0.677174	0.896055
	C161	C	0.630543	0.678385	0.113620
	C162	C	0.630318	0.312447	0.897440
	C163	C	0.383833	0.316627	0.115577
	C164	C	0.686415	0.885926	0.382280
	C165	C	0.685679	0.104918	0.627900
	C166	C	0.324197	0.887025	0.628948
	C167	C	0.324684	0.104928	0.383517
	C168	C	0.882647	0.386704	0.184758
	C169	C	0.129638	0.604284	0.187610
	C170	C	0.129834	0.387333	0.823192
	C171	C	0.879189	0.603593	0.819990
	C172	C	0.187182	0.872085	0.396784
	C173	C	0.186332	0.119016	0.614340
	C174	C	0.824754	0.116492	0.395899
	C175	C	0.824815	0.871617	0.615310
	C176	C	0.394877	0.176158	0.882383
	C177	C	0.614719	0.175086	0.126953
	C178	C	0.396292	0.814859	0.128075
	C179	C	0.615032	0.813836	0.881025
	C180	C	0.396569	0.871737	0.186688
	C181	C	0.614805	0.117832	0.185209
	C182	C	0.395155	0.118685	0.824412
	C183	C	0.615532	0.872074	0.823989
	C184	C	0.882799	0.174152	0.395507
	C185	C	0.129614	0.177844	0.613413
	C186	C	0.129243	0.814221	0.396544
	C187	C	0.881655	0.812813	0.614590
	C188	C	0.186586	0.386619	0.882272
	C189	C	0.186892	0.604608	0.129415
	C190	C	0.825058	0.386853	0.126448
	C191	C	0.820942	0.603548	0.877163
	C192	C	0.408935	0.087150	0.602833
	C193	C	0.601883	0.904260	0.602705
	C194	C	0.601133	0.085701	0.409663
	C195	C	0.410225	0.905390	0.410378
	C196	C	0.601624	0.400290	0.095469
	C197	C	0.600271	0.591145	0.915244
	C198	C	0.409907	0.593168	0.095801
	C199	C	0.408075	0.398956	0.914674
	C200	C	0.096790	0.592207	0.408455
	C201	C	0.914683	0.590221	0.599414
	C202	C	0.095322	0.400274	0.599821
	C203	C	0.913444	0.398380	0.407836
	C204	C	0.910433	0.586673	0.100971
	C205	C	0.102723	0.404391	0.102712
	C206	C	0.101101	0.586219	0.909340
	C207	C	0.910961	0.406735	0.909664
	C208	C	0.100735	0.899752	0.595228
	C209	C	0.101581	0.091751	0.414497
	C210	C	0.909103	0.092427	0.596474
	C211	C	0.908240	0.898253	0.415392
	C212	C	0.595901	0.092273	0.909284
	C213	C	0.412953	0.092976	0.103180
	C214	C	0.595842	0.900750	0.101043
	C215	C	0.415291	0.899793	0.908514
	Zn216	Zn	0.505606	-0.003919	0.755659
	Zn217	Zn	0.505064	-0.004342	0.255953
	Zn218	Zn	0.755727	0.496582	0.004268
	Zn219	Zn	0.255504	0.495974	0.005655
	Zn220	Zn	0.005350	0.745001	0.504935
	Zn221	Zn	0.005019	0.245404	0.504729
	Zn222	Zn	0.005389	0.495499	0.754479
	Zn223	Zn	0.005619	0.495415	0.255413
	Zn224	Zn	0.506118	0.746583	0.004690
	Zn225	Zn	0.504817	0.245858	0.005252
	Zn226	Zn	0.755139	-0.005596	0.505957
	Zn227	Zn	0.255404	-0.004211	0.505575
	N228	N	0.418915	0.961117	0.685479
	N229	N	0.591843	0.030693	0.685211
	N230	N	0.593633	0.961338	0.324095
	N231	N	0.418274	0.030231	0.325868
	N232	N	0.685614	0.409046	0.970219
	N233	N	0.686124	0.583217	0.039817
	N234	N	0.324607	0.583587	0.970880
	N235	N	0.326475	0.410323	0.040990
	N236	N	0.970299	0.674847	0.418546
	N237	N	0.039867	0.675218	0.591779
	N238	N	0.969966	0.315557	0.591099
	N239	N	0.039348	0.314677	0.417600
	N240	N	0.970666	0.408117	0.684849
	N241	N	0.040435	0.581796	0.684263
	N242	N	0.970634	0.582258	0.324838
	N243	N	0.039656	0.408025	0.325015
	N244	N	0.418580	0.676397	0.970126
	N245	N	0.593117	0.676632	0.039705
	N246	N	0.593035	0.314760	0.971132
	N247	N	0.418678	0.316213	0.040573
	N248	N	0.684408	0.959676	0.419698
	N249	N	0.685586	0.029846	0.592804
	N250	N	0.324702	0.961773	0.593261
	N251	N	0.326317	0.030814	0.420211
	N252	N	0.918758	0.461319	0.184745
	N253	N	0.093575	0.529625	0.186842
	N254	N	0.093399	0.461667	0.824088
	N255	N	0.918073	0.530630	0.823547
	N256	N	0.185446	0.909039	0.470589
	N257	N	0.184962	0.082172	0.540314
	N258	N	0.825010	0.081460	0.470824
	N259	N	0.825621	0.908313	0.541206
	N260	N	0.469666	0.175696	0.918698
	N261	N	0.539584	0.175027	0.091700
	N262	N	0.470543	0.816424	0.091496
	N263	N	0.540595	0.815273	0.917384
	N264	N	0.470988	0.908354	0.185919
	N265	N	0.539666	0.082800	0.185616
	N266	N	0.470103	0.082828	0.825262
	N267	N	0.541318	0.909357	0.825464
	N268	N	0.918601	0.174349	0.470128
	N269	N	0.093518	0.176951	0.538858
	N270	N	0.091969	0.815783	0.470216
	N271	N	0.917318	0.813548	0.540070
	N272	N	0.184989	0.460670	0.919275
	N273	N	0.185785	0.530302	0.092945
	N274	N	0.826253	0.461359	0.090572
	N275	N	0.823799	0.530377	0.915726
	O276	O	0.223793	0.777276	-0.027752
	H277	H	0.233475	0.761844	-0.046836
	H278	H	0.233149	0.767673	-0.054472
	O279	O	0.464827	0.325738	0.504224
	H280	H	0.485646	0.335883	0.504953
	H281	H	0.475912	0.315078	0.500565
	O282	O	1.029850	0.206021	1.211796
	H283	H	1.051711	0.213382	1.209475
	H284	H	1.034350	0.205723	1.222762
	O285	O	0.507178	0.341911	0.731041
	H286	H	0.497993	0.331192	0.737265
	H287	H	0.489637	0.331195	0.737697
	O288	O	0.355161	0.602519	0.577248
	H289	H	0.360004	0.587757	0.601414
	H290	H	0.344916	0.605228	0.568399
	O291	O	0.304301	0.291792	0.604130
	H292	H	0.299524	0.313135	0.599544
	H293	H	0.291543	0.275176	0.583135
	O294	O	0.788990	-0.004967	1.132450
	H295	H	0.783877	-0.013466	1.107430
	H296	H	0.787119	-0.000778	1.126808
	O297	O	0.453396	0.581227	0.436919
	H298	H	0.453359	0.576189	0.427135
	H299	H	0.448466	0.577863	0.444561
	O300	O	0.125772	0.183033	0.808617
	H301	H	0.113858	0.159208	0.805973
	H302	H	0.108305	0.176848	0.829446
	O303	O	0.494713	0.489553	0.305493
	H304	H	0.485251	0.467728	0.308679
	H305	H	0.485042	0.490700	0.305783
	O306	O	0.593342	0.416902	0.445031
	H307	H	0.588638	0.402911	0.445557
	H308	H	0.598729	0.409094	0.450593
	O309	O	0.698716	0.330320	0.665889
	H310	H	0.680039	0.346172	0.669450
	H311	H	0.688836	0.335056	0.639456
	O312	O	0.494201	0.443549	0.662140
	H313	H	0.484924	0.429915	0.665324
	H314	H	0.498034	0.427544	0.646658
	O315	O	1.098426	0.987253	1.016026
	H316	H	1.109840	0.982688	1.013619
	H317	H	1.088432	0.991305	1.016354
	O318	O	0.449325	0.383084	0.566546
	H319	H	0.458439	0.371975	0.561311
	H320	H	0.452846	0.382199	0.574186
	O321	O	0.212557	0.788808	0.798367
	H322	H	0.161352	0.781687	0.793558
	H323	H	0.239163	0.765193	0.766197
	O324	O	0.975945	0.776011	0.184853
	H325	H	0.991560	0.768721	0.178154
	H326	H	0.978238	0.772634	0.185410
	O327	O	-0.089488	0.009562	0.971623
	H328	H	-0.087960	0.008713	0.963467
	H329	H	-0.086656	-0.004931	0.957710
	O330	O	0.716026	0.707899	0.536847
	H331	H	0.718213	0.681553	0.520864
	H332	H	0.738622	0.725374	0.531932
	O333	O	0.715409	0.510059	0.716317
	H334	H	0.695953	0.513565	0.713350
	H335	H	0.739577	0.523220	0.740619
	O336	O	0.714816	0.286474	0.297973
	H337	H	0.748166	0.259088	0.261549
	H338	H	0.720320	0.340333	0.289785
	O339	O	0.814660	0.188092	1.191241
	H340	H	0.830043	0.162351	1.176631
	H341	H	0.831112	0.172271	1.169602
	O342	O	0.184968	-0.003418	0.211100
	H343	H	0.187078	-0.018391	0.227115
	H344	H	0.181789	-0.005285	0.199814
	O345	O	-0.201002	1.196272	0.970809
	H346	H	-0.196975	1.201076	0.962315
	H347	H	-0.207085	1.206539	0.951325
	O348	O	0.060389	-0.009890	-0.152163
	H349	H	0.082068	-0.023007	-0.156632
	H350	H	0.059174	-0.015793	-0.147157
	O351	O	0.555222	0.721686	0.452129
	H352	H	0.549168	0.717299	0.455764
	H353	H	0.570320	0.719967	0.463843
	O354	O	0.040099	0.225043	0.989051
	H355	H	0.045309	0.224983	0.985202
	H356	H	0.020490	0.226995	0.999145
	O357	O	0.574472	0.443645	0.565199
	H358	H	0.586753	0.434555	0.556056
	H359	H	0.571681	0.447640	0.560660
	O360	O	0.287295	0.466166	0.727828
	H361	H	0.251724	0.459753	0.759692
	H362	H	0.301042	0.446994	0.718469
	O363	O	-0.109965	0.043315	0.100136
	H364	H	-0.097038	0.042872	0.090402
	H365	H	-0.106497	0.048692	0.101992
	O366	O	0.535245	0.686832	0.703157
	H367	H	0.536468	0.671992	0.690640
	H368	H	0.528066	0.706869	0.722864
	O369	O	0.788914	-0.224438	0.028709
	H370	H	0.780726	-0.230204	0.053296
	H371	H	0.773671	-0.234221	0.053312
	O372	O	1.030867	0.837177	0.064225
	H373	H	1.030021	0.839987	0.056554
	H374	H	1.030166	0.835610	0.048660
	O375	O	0.852164	-0.026944	0.184009
	H376	H	0.866499	-0.021157	0.193456
	H377	H	0.835533	-0.026441	0.173201
	O378	O	0.279072	0.444100	0.443546
	H379	H	0.275438	0.440686	0.437921
	H380	H	0.285052	0.448234	0.448400
	O381	O	0.041228	0.780658	0.792937
	H382	H	0.021282	0.775702	0.797613
	H383	H	0.021325	0.776159	0.786576
	O384	O	0.775238	0.225537	0.775867
	H385	H	0.757357	0.245671	0.756094
	H386	H	0.777519	0.207743	0.778535
	O387	O	0.700626	0.689937	-0.296104
	H388	H	0.709402	0.677929	-0.328472
	H389	H	0.662916	0.695148	-0.300042
	O390	O	0.542730	0.274663	0.284413
	H391	H	0.567367	0.260330	0.272185
	H392	H	0.566399	0.259208	0.278445
	O393	O	0.454146	0.538540	0.732595
	H394	H	0.467398	0.527635	0.733394
	H395	H	0.447542	0.530379	0.728754
	O396	O	-0.102321	0.981009	0.863955
	H397	H	-0.095925	0.984996	0.863128
	H398	H	-0.108297	0.977141	0.858430
	O399	O	-0.161691	-0.152990	0.872596
	H400	H	-0.157584	-0.156652	0.887102
	H401	H	-0.163125	-0.173722	0.878432
	O402	O	0.293938	0.711365	0.478193
	H403	H	0.288505	0.717356	0.477238
	H404	H	0.292584	0.715307	0.473228
	O405	O	0.992288	-0.022283	0.840295
	H406	H	0.990102	-0.018611	0.850775
	H407	H	0.985461	-0.027071	0.833039
	O408	O	0.001592	-0.101990	0.088753
	H409	H	-0.005122	-0.115539	0.080033
	H410	H	-0.008796	-0.089821	0.084315
	O411	O	0.641033	0.499428	0.451492
	H412	H	0.633006	0.498972	0.450571
	H413	H	0.643336	0.476609	0.454483
	O414	O	0.434862	0.377700	0.496582
	H415	H	0.432174	0.368434	0.490628
	H416	H	0.444506	0.365875	0.495196
	O417	O	0.291376	0.533231	0.294149
	H418	H	0.287592	0.537026	0.290659
	H419	H	0.280756	0.529765	0.288929
	O420	O	0.315961	0.685905	0.690695
	H421	H	0.329691	0.666413	0.684936
	H422	H	0.334267	0.673720	0.663481
	O423	O	0.372135	0.286583	0.721912
	H424	H	0.362245	0.275414	0.702753
	H425	H	0.343244	0.261663	0.736812
	O426	O	0.671869	0.620730	0.341151
	H427	H	0.666021	0.612364	0.348573
	H428	H	0.661020	0.607131	0.330037
	O429	O	1.195752	1.085264	0.938680
	H430	H	1.208973	1.064144	0.944437
	H431	H	1.188056	1.091727	0.946264
	O432	O	0.501870	0.673328	0.550817
	H433	H	0.518928	0.674085	0.551662
	H434	H	0.497014	0.661296	0.546559
	O435	O	0.012149	0.941874	0.208237
	H436	H	0.013498	0.927169	0.201825
	H437	H	0.019818	0.945940	0.209116
	O438	O	0.218088	0.191695	0.049679
	H439	H	0.229482	0.185137	0.043127
	H440	H	0.223247	0.199714	0.045933
	O441	O	0.210276	0.205027	0.191013
	H442	H	0.210735	0.173866	0.190524
	H443	H	0.220796	0.216968	0.174026
	O444	O	0.304672	0.302313	0.315728
	H445	H	0.314968	0.301502	0.307819
	H446	H	0.297632	0.311320	0.326272
	O447	O	0.220957	0.964663	0.786521
	H448	H	0.220184	0.932105	0.792549
	H449	H	0.249762	0.960163	0.767107
	O450	O	-0.106224	1.037064	0.787481
	H451	H	-0.109837	1.031070	0.777972
	H452	H	-0.107502	1.049244	0.779443
	O453	O	0.561241	0.388550	0.500480
	H454	H	0.558306	0.388176	0.491321
	H455	H	0.557259	0.371079	0.496933
	O456	O	-0.029620	0.003214	0.961188
	H457	H	-0.042376	-0.009746	0.982275
	H458	H	-0.039523	0.006611	0.952096
	O459	O	0.798105	0.788721	0.212018
	H460	H	0.809577	0.793426	0.223202
	H461	H	0.803542	0.798072	0.224269
	O462	O	0.718818	0.454381	0.289099
	H463	H	0.711534	0.470313	0.280962
	H464	H	0.716242	0.475230	0.277751
	O465	O	1.156645	-0.028401	0.152190
	H466	H	1.163754	-0.031802	0.159957
	H467	H	1.158163	-0.047133	0.141935
	O468	O	0.193414	0.814923	0.178187
	H469	H	0.188434	0.824352	0.160815
	H470	H	0.196212	0.808725	0.184165
	O471	O	0.726804	0.274332	0.466928
	H472	H	0.736845	0.263854	0.436825
	H473	H	0.743720	0.258082	0.446240
	O474	O	-0.079222	1.196689	-0.004533
	H475	H	-0.082474	1.190021	-0.003806
	H476	H	-0.071993	1.199284	0.002673
	O477	O	0.479807	0.709383	1.285245
	H478	H	0.469123	0.718383	1.293519
	H479	H	0.481017	0.728452	1.272180
	O480	O	0.606077	0.590106	0.288065
	H481	H	0.584968	0.574027	0.295455
	H482	H	0.585628	0.598157	0.291753
	O483	O	0.300553	0.702357	0.296919
	H484	H	0.306684	0.711054	0.289071
	H485	H	0.304267	0.682921	0.315866
	O486	O	1.003259	0.192386	0.861904
	H487	H	1.005216	0.186471	0.851178
	H488	H	0.993270	0.198676	0.849482
	O489	O	0.969491	0.806657	-0.076225
	H490	H	0.962874	0.814014	-0.071004
	H491	H	0.961594	0.797476	-0.066924
