data_Molecule from HDF5

_cell_length_a		16.302186
_cell_length_b		16.202485
_cell_length_c		15.986731
_cell_angle_alpha	90.092530
_cell_angle_beta	89.835965
_cell_angle_gamma	89.886214
_symmetry_space_group_name_H-M	'P 1'
_symmetry_Int_Tables_number		1

loop_
	_symmetry_equiv_pos_as_xyz
	x,y,z

loop_
	_atom_site_label
	_atom_site_type_symbol
	_atom_site_fract_x
	_atom_site_fract_y
	_atom_site_fract_z
	H0	H	0.402487	0.839390	0.718801
	H1	H	0.591657	0.171868	0.718154
	H2	H	0.595268	0.839077	0.296080
	H3	H	0.402370	0.170578	0.294989
	H4	H	0.714442	0.404840	0.840661
	H5	H	0.709677	0.602873	0.172964
	H6	H	0.286530	0.605143	0.840262
	H7	H	0.284201	0.405278	0.173129
	H8	H	0.835544	0.720373	0.407158
	H9	H	0.162445	0.721188	0.605944
	H10	H	0.835004	0.290327	0.608491
	H11	H	0.162153	0.288231	0.404897
	H12	H	0.833887	0.412216	0.719901
	H13	H	0.163488	0.604241	0.718698
	H14	H	0.832941	0.600532	0.298011
	H15	H	0.163394	0.408821	0.292356
	H16	H	0.404467	0.716277	0.839564
	H17	H	0.597496	0.715371	0.173271
	H18	H	0.596895	0.294074	0.838541
	H19	H	0.401883	0.292655	0.173526
	H20	H	0.714670	0.841129	0.406584
	H21	H	0.713324	0.169737	0.609187
	H22	H	0.282744	0.841147	0.607976
	H23	H	0.280600	0.169359	0.405493
	H24	H	0.904337	0.340589	0.217771
	H25	H	0.092759	0.672660	0.217258
	H26	H	0.095682	0.341416	0.793405
	H27	H	0.904524	0.673232	0.797638
	H28	H	0.213369	0.904363	0.341980
	H29	H	0.210887	0.105679	0.673156
	H30	H	0.786039	0.102736	0.340264
	H31	H	0.785338	0.908116	0.674385
	H32	H	0.336542	0.221709	0.905940
	H33	H	0.662738	0.220934	0.106507
	H34	H	0.336543	0.788756	0.107945
	H35	H	0.663893	0.789676	0.907254
	H36	H	0.333824	0.909224	0.219522
	H37	H	0.664412	0.100716	0.218746
	H38	H	0.333700	0.100299	0.798534
	H39	H	0.663460	0.908752	0.792972
	H40	H	0.900662	0.217196	0.340238
	H41	H	0.095202	0.216948	0.673879
	H42	H	0.095436	0.794884	0.339898
	H43	H	0.902085	0.793725	0.675348
	H44	H	0.215341	0.342378	0.904044
	H45	H	0.214447	0.668964	0.108848
	H46	H	0.784341	0.341381	0.106428
	H47	H	0.782565	0.670378	0.906993
	H48	H	0.406347	0.124205	0.605958
	H49	H	0.597377	0.889038	0.589795
	H50	H	0.593866	0.124595	0.412905
	H51	H	0.408771	0.887619	0.413024
	H52	H	0.589926	0.418318	0.123659
	H53	H	0.589558	0.595779	0.886739
	H54	H	0.403687	0.597363	0.127292
	H55	H	0.399628	0.408821	0.884334
	H56	H	0.116867	0.601569	0.411558
	H57	H	0.882403	0.598497	0.599193
	H58	H	0.114370	0.412681	0.595789
	H59	H	0.882495	0.404738	0.423682
	H60	H	0.116777	0.412132	0.603180
	H61	H	0.880059	0.601615	0.605587
	H62	H	0.118249	0.603158	0.411959
	H63	H	0.884570	0.421751	0.414131
	H64	H	0.405956	0.595651	0.125612
	H65	H	0.594070	0.602587	0.883782
	H66	H	0.587767	0.406826	0.127158
	H67	H	0.404756	0.422291	0.889592
	H68	H	0.592180	0.123441	0.412443
	H69	H	0.599105	0.883317	0.606930
	H70	H	0.403705	0.120752	0.594835
	H71	H	0.402369	0.888459	0.420094
	H72	H	0.894306	0.628496	0.105508
	H73	H	0.084199	0.388946	0.101572
	H74	H	0.107450	0.627713	0.919540
	H75	H	0.897090	0.387533	0.919173
	H76	H	0.088787	0.912275	0.627212
	H77	H	0.088034	0.092976	0.389128
	H78	H	0.898535	0.108979	0.631968
	H79	H	0.900182	0.920617	0.389331
	H80	H	0.613335	0.094673	0.922547
	H81	H	0.387712	0.088192	0.093473
	H82	H	0.615525	0.912654	0.097158
	H83	H	0.382905	0.913100	0.913325
	H84	H	0.617792	0.909832	0.106040
	H85	H	0.379071	0.100219	0.111561
	H86	H	0.618450	0.092908	0.902202
	H87	H	0.380000	0.906011	0.909962
	H88	H	0.896553	0.087925	0.626067
	H89	H	0.090272	0.101377	0.386146
	H90	H	0.092881	0.911119	0.628171
	H91	H	0.914365	0.910176	0.389216
	H92	H	0.091147	0.628484	0.899895
	H93	H	0.094934	0.390294	0.090668
	H94	H	0.906066	0.624895	0.105515
	H95	H	0.904347	0.385786	0.903964
	H96	H	0.395161	0.125987	0.601788
	H97	H	0.583975	0.889609	0.600624
	H98	H	0.594216	0.123674	0.415355
	H99	H	0.400569	0.886137	0.411234
	H100	H	0.597929	0.411256	0.127696
	H101	H	0.598201	0.595536	0.885033
	H102	H	0.406726	0.597597	0.126623
	H103	H	0.414074	0.409389	0.887933
	H104	H	0.116850	0.600059	0.412759
	H105	H	0.881109	0.605451	0.598627
	H106	H	0.117200	0.405115	0.597737
	H107	H	0.877662	0.406496	0.403822
	H108	H	0.899751	0.623650	0.095308
	H109	H	0.098701	0.384395	0.104661
	H110	H	0.083945	0.619983	0.922783
	H111	H	0.912400	0.391481	0.916863
	H112	H	0.092049	0.914516	0.626795
	H113	H	0.095322	0.095646	0.385464
	H114	H	0.916204	0.098098	0.623602
	H115	H	0.898470	0.904617	0.384297
	H116	H	0.620236	0.111401	0.912731
	H117	H	0.381831	0.110399	0.091567
	H118	H	0.617716	0.903040	0.100563
	H119	H	0.381505	0.906489	0.918716
	C120	C	0.374633	0.014536	0.629517
	C121	C	0.619933	0.996800	0.628176
	C122	C	0.621001	0.014273	0.385138
	C123	C	0.375929	0.996506	0.385601
	C124	C	0.620231	0.383973	0.015537
	C125	C	0.620829	0.625581	0.996604
	C126	C	0.378283	0.625376	0.015895
	C127	C	0.377809	0.384299	0.997693
	C128	C	0.007957	0.628142	0.385011
	C129	C	0.989887	0.629224	0.628905
	C130	C	0.007427	0.383467	0.628349
	C131	C	0.990170	0.382573	0.384317
	C132	C	0.874796	0.515699	0.129341
	C133	C	0.120186	0.496918	0.128332
	C134	C	0.122172	0.515814	0.884396
	C135	C	0.876958	0.497583	0.885308
	C136	C	0.119170	0.884626	0.516423
	C137	C	0.119168	0.125750	0.497456
	C138	C	0.876306	0.126428	0.516590
	C139	C	0.876641	0.883884	0.498474
	C140	C	0.508344	0.127292	0.884870
	C141	C	0.490796	0.127690	0.128341
	C142	C	0.508321	0.881444	0.129873
	C143	C	0.490658	0.881122	0.884968
	C144	C	0.380429	0.889290	0.682732
	C145	C	0.614357	0.121885	0.682126
	C146	C	0.616909	0.889150	0.331945
	C147	C	0.380349	0.121198	0.331523
	C148	C	0.675949	0.385580	0.890058
	C149	C	0.673315	0.622917	0.122884
	C150	C	0.324140	0.624242	0.890201
	C151	C	0.322432	0.385630	0.123307
	C152	C	0.884194	0.682294	0.387707
	C153	C	0.113642	0.683169	0.625648
	C154	C	0.883834	0.329018	0.627676
	C155	C	0.113229	0.326620	0.385185
	C156	C	0.883302	0.389849	0.682820
	C157	C	0.114193	0.625275	0.682115
	C158	C	0.882915	0.622585	0.333360
	C159	C	0.113816	0.386648	0.329222
	C160	C	0.382446	0.679927	0.889748
	C161	C	0.617526	0.678950	0.123031
	C162	C	0.617526	0.330425	0.889212
	C163	C	0.380948	0.329566	0.123544
	C164	C	0.676208	0.890155	0.387147
	C165	C	0.674755	0.120916	0.627532
	C166	C	0.320577	0.890369	0.627669
	C167	C	0.319865	0.120319	0.386616
	C168	C	0.881558	0.390576	0.181978
	C169	C	0.114868	0.622308	0.181382
	C170	C	0.117697	0.391134	0.829901
	C171	C	0.882000	0.622965	0.832996
	C172	C	0.174983	0.885563	0.391324
	C173	C	0.173628	0.125029	0.623268
	C174	C	0.822923	0.123312	0.390122
	C175	C	0.822552	0.887177	0.624617
	C176	C	0.385114	0.182963	0.886837
	C177	C	0.614069	0.182501	0.126625
	C178	C	0.385058	0.827105	0.127640
	C179	C	0.614777	0.827748	0.887351
	C180	C	0.383717	0.887044	0.183275
	C181	C	0.614666	0.122732	0.182437
	C182	C	0.383561	0.122735	0.833258
	C183	C	0.614434	0.886567	0.830360
	C184	C	0.879781	0.180404	0.390221
	C185	C	0.115786	0.179955	0.623776
	C186	C	0.116484	0.830901	0.390370
	C187	C	0.880756	0.830448	0.624918
	C188	C	0.177049	0.391627	0.885118
	C189	C	0.175737	0.620460	0.127837
	C190	C	0.821762	0.390689	0.126458
	C191	C	0.821373	0.621606	0.887346
	C192	C	0.395541	0.101362	0.607518
	C193	C	0.599412	0.909903	0.605780
	C194	C	0.599689	0.101472	0.407027
	C195	C	0.397414	0.909640	0.408108
	C196	C	0.598400	0.405820	0.103563
	C197	C	0.600021	0.604487	0.908205
	C198	C	0.399366	0.603341	0.103806
	C199	C	0.399789	0.406700	0.910065
	C200	C	0.094801	0.607704	0.405807
	C201	C	0.903635	0.607961	0.607519
	C202	C	0.093730	0.403906	0.605619
	C203	C	0.903935	0.404476	0.407207
	C204	C	0.894172	0.603026	0.108170
	C205	C	0.098920	0.410177	0.105729
	C206	C	0.100605	0.603009	0.907165
	C207	C	0.898272	0.410675	0.907051
	C208	C	0.097599	0.906234	0.604614
	C209	C	0.097613	0.103301	0.409586
	C210	C	0.897300	0.104896	0.604432
	C211	C	0.897823	0.905419	0.410344
	C212	C	0.594971	0.105684	0.906067
	C213	C	0.405067	0.106014	0.105690
	C214	C	0.594591	0.902304	0.107702
	C215	C	0.403865	0.902166	0.907443
	Zn216	Zn	0.497826	0.005390	0.757320
	Zn217	Zn	0.499060	0.004801	0.257631
	Zn218	Zn	0.747181	0.505635	0.006528
	Zn219	Zn	0.249205	0.505372	0.007178
	Zn220	Zn	-0.000837	0.756946	0.506657
	Zn221	Zn	-0.001538	0.253024	0.506950
	Zn222	Zn	-0.000410	0.507342	0.757105
	Zn223	Zn	-0.001592	0.507074	0.256846
	Zn224	Zn	0.500553	0.752091	0.007032
	Zn225	Zn	0.499814	0.256348	0.005725
	Zn226	Zn	0.748873	0.005731	0.507235
	Zn227	Zn	0.246233	0.005522	0.507649
	N228	N	0.413248	0.967448	0.684198
	N229	N	0.580851	0.043846	0.682803
	N230	N	0.583200	0.967316	0.330756
	N231	N	0.414449	0.043254	0.330722
	N232	N	0.677764	0.418314	0.969699
	N233	N	0.675665	0.590679	0.043198
	N234	N	0.321486	0.591031	0.969600
	N235	N	0.320120	0.418717	0.043996
	N236	N	0.962806	0.685959	0.419021
	N237	N	0.035363	0.685933	0.593148
	N238	N	0.961927	0.325021	0.594341
	N239	N	0.035139	0.323967	0.418808
	N240	N	0.961130	0.422851	0.683498
	N241	N	0.036468	0.592200	0.684064
	N242	N	0.960996	0.589626	0.331434
	N243	N	0.036197	0.420721	0.328581
	N244	N	0.415772	0.680909	0.968854
	N245	N	0.585525	0.680764	0.043327
	N246	N	0.583652	0.329332	0.968139
	N247	N	0.414539	0.328403	0.044343
	N248	N	0.678936	0.969091	0.419311
	N249	N	0.678256	0.042232	0.594774
	N250	N	0.316962	0.969290	0.595247
	N251	N	0.317128	0.041706	0.419591
	N252	N	0.913585	0.469050	0.183946
	N253	N	0.080998	0.544520	0.181995
	N254	N	0.084501	0.469657	0.829066
	N255	N	0.915750	0.544859	0.831356
	N256	N	0.176692	0.918338	0.470909
	N257	N	0.175889	0.091864	0.543792
	N258	N	0.820523	0.090695	0.469592
	N259	N	0.819765	0.919560	0.544896
	N260	N	0.463718	0.185961	0.918084
	N261	N	0.536198	0.185839	0.093709
	N262	N	0.463411	0.823476	0.095082
	N263	N	0.536633	0.824408	0.920601
	N264	N	0.461408	0.920093	0.184815
	N265	N	0.536939	0.089365	0.183784
	N266	N	0.461131	0.088712	0.831931
	N267	N	0.536241	0.919173	0.828846
	N268	N	0.912314	0.182415	0.469704
	N269	N	0.082820	0.180748	0.544468
	N270	N	0.082315	0.830298	0.469221
	N271	N	0.913391	0.828064	0.545385
	N272	N	0.179809	0.470234	0.918132
	N273	N	0.179004	0.541532	0.095263
	N274	N	0.817377	0.469638	0.094348
	N275	N	0.817982	0.542550	0.919178
	O276	O	-0.000520	-0.008377	0.111089
	H277	H	0.013321	-0.010611	0.107734
	H278	H	0.007030	0.000363	0.118276
	O279	O	0.434323	0.576285	0.492852
	H280	H	0.428356	0.570303	0.495409
	H281	H	0.430681	0.563799	0.492914
	O282	O	0.489888	0.575940	0.410736
	H283	H	0.485433	0.584520	0.411265
	H284	H	0.486286	0.564947	0.401597
	O285	O	0.937996	-0.074212	0.992294
	H286	H	0.929302	-0.087151	0.998312
	H287	H	0.933412	-0.072972	1.015730
	O288	O	1.009362	0.055260	0.068243
	H289	H	1.016004	0.051004	0.075890
	H290	H	1.009853	0.058047	0.077488
	O291	O	0.589314	0.539298	0.483234
	H292	H	0.579256	0.538943	0.487496
	H293	H	0.592959	0.551383	0.486029
	O294	O	0.927110	-0.009188	0.930352
	H295	H	0.931915	-0.005314	0.926040
	H296	H	0.925180	-0.002184	0.934834
	O297	O	0.046436	0.075512	-0.003060
	H298	H	0.050158	0.072564	0.003040
	H299	H	0.040112	0.072681	0.005619
	O300	O	0.441416	0.552990	0.599067
	H301	H	0.432751	0.557258	0.602355
	H302	H	0.450054	0.561240	0.601766
	O303	O	0.545878	0.440206	0.520124
	H304	H	0.554055	0.436959	0.509144
	H305	H	0.549896	0.435222	0.524476
	O306	O	1.035531	0.062811	0.042154
	H307	H	1.032207	0.055699	0.042403
	H308	H	1.037464	0.059614	0.046140
	O309	O	-0.060144	-0.019637	1.016696
	H310	H	-0.070488	-0.020400	1.009558
	H311	H	-0.069105	-0.024301	1.017391
	O312	O	1.572583	0.487068	0.412936
	H313	H	1.574836	0.484799	0.405665
	H314	H	1.577830	0.466421	0.407631
	O315	O	0.533144	0.492087	0.563349
	H316	H	0.541255	0.499450	0.563427
	H317	H	0.528854	0.488686	0.570187
	O318	O	0.522837	0.455549	0.477229
	H319	H	0.521371	0.466245	0.481714
	H320	H	0.527634	0.458635	0.475283
	O321	O	0.043554	1.024298	1.060817
	H322	H	0.044614	1.037610	1.040074
	H323	H	0.027484	1.025707	1.052626
	O324	O	1.051735	0.923034	0.026342
	H325	H	1.050708	0.922707	0.026342
	H326	H	1.047861	0.918131	0.019987
	O327	O	0.495326	0.517441	0.541680
	H328	H	0.498898	0.523599	0.541041
	H329	H	0.484939	0.515541	0.545294
	O330	O	1.025658	1.086602	-0.003015
	H331	H	1.023001	1.084578	-0.005134
	H332	H	1.038657	1.092728	0.010426
	O333	O	0.503734	0.447979	0.510838
	H334	H	0.507983	0.446699	0.510907
	H335	H	0.509910	0.454594	0.519504
	O336	O	0.468289	0.587144	0.532342
	H337	H	0.467018	0.585947	0.537814
	H338	H	0.474624	0.585957	0.531631
	O339	O	0.551940	0.446574	-0.548176
	H340	H	0.549183	0.437518	-0.547390
	H341	H	0.558345	0.439932	-0.553071
	O342	O	0.492289	0.405274	0.553765
	H343	H	0.487690	0.399386	0.553658
	H344	H	0.486973	0.402268	0.556910
	O345	O	0.467651	0.489617	0.557557
	H346	H	0.462501	0.488890	0.561060
	H347	H	0.462819	0.489719	0.559329
	O348	O	-0.041237	-0.033516	0.029717
	H349	H	-0.041755	-0.034000	0.031239
	H350	H	-0.029887	-0.023888	0.026047
	O351	O	0.003832	0.946611	1.078620
	H352	H	0.002476	0.945728	1.087057
	H353	H	0.004627	0.949352	1.082662
	O354	O	0.516214	0.456815	0.446264
	H355	H	0.521235	0.462272	0.444910
	H356	H	0.523195	0.466731	0.450212
	O357	O	-0.049295	0.999860	0.998113
	H358	H	-0.059931	1.005871	0.990810
	H359	H	-0.043444	1.005988	1.000157
