data_Molecule from HDF5

_cell_length_a		16.200260
_cell_length_b		16.154539
_cell_length_c		16.314330
_cell_angle_alpha	89.785390
_cell_angle_beta	89.880022
_cell_angle_gamma	89.865980
_symmetry_space_group_name_H-M	'P 1'
_symmetry_Int_Tables_number		1

loop_
	_symmetry_equiv_pos_as_xyz
	x,y,z

loop_
	_atom_site_label
	_atom_site_type_symbol
	_atom_site_fract_x
	_atom_site_fract_y
	_atom_site_fract_z
	H0	H	0.398077	0.840509	0.716078
	H1	H	0.595028	0.169247	0.712690
	H2	H	0.597384	0.840867	0.285125
	H3	H	0.396204	0.168943	0.286449
	H4	H	0.713165	0.408267	0.837712
	H5	H	0.710840	0.602654	0.164228
	H6	H	0.283378	0.605407	0.836810
	H7	H	0.283922	0.407005	0.164452
	H8	H	0.832808	0.717055	0.404158
	H9	H	0.162516	0.716128	0.597701
	H10	H	0.832669	0.292094	0.599346
	H11	H	0.162278	0.290593	0.404007
	H12	H	0.833974	0.403435	0.717591
	H13	H	0.162060	0.601506	0.714572
	H14	H	0.834849	0.604914	0.284962
	H15	H	0.161980	0.403853	0.286215
	H16	H	0.400489	0.721078	0.835825
	H17	H	0.594604	0.719252	0.164253
	H18	H	0.597181	0.292270	0.836157
	H19	H	0.399205	0.290711	0.163415
	H20	H	0.710931	0.839426	0.402911
	H21	H	0.709510	0.169422	0.596595
	H22	H	0.285783	0.838623	0.597884
	H23	H	0.282100	0.168932	0.401301
	H24	H	0.899688	0.340332	0.216407
	H25	H	0.097525	0.669183	0.215456
	H26	H	0.097711	0.340051	0.787853
	H27	H	0.897553	0.668029	0.785318
	H28	H	0.213267	0.905803	0.337170
	H29	H	0.210764	0.100920	0.663962
	H30	H	0.783781	0.103079	0.336914
	H31	H	0.783076	0.904934	0.664629
	H32	H	0.332802	0.220115	0.903431
	H33	H	0.662872	0.215750	0.094510
	H34	H	0.332665	0.791967	0.098885
	H35	H	0.661832	0.794320	0.903485
	H36	H	0.332937	0.906030	0.216228
	H37	H	0.660483	0.105484	0.215110
	H38	H	0.332897	0.107643	0.784469
	H39	H	0.661360	0.908319	0.787395
	H40	H	0.898565	0.220589	0.338151
	H41	H	0.094659	0.217055	0.664849
	H42	H	0.096474	0.790083	0.336883
	H43	H	0.900545	0.790082	0.664866
	H44	H	0.212946	0.340476	0.903316
	H45	H	0.208862	0.671403	0.096474
	H46	H	0.784751	0.339932	0.100805
	H47	H	0.786082	0.670406	0.903905
	H48	H	0.394032	0.125289	0.591398
	H49	H	0.584130	0.887784	0.593934
	H50	H	0.594487	0.124160	0.405220
	H51	H	0.408151	0.890836	0.418150
	H52	H	0.587851	0.409113	0.116267
	H53	H	0.587085	0.601132	0.885132
	H54	H	0.402978	0.602018	0.117755
	H55	H	0.397918	0.400178	0.877708
	H56	H	0.113474	0.595428	0.412987
	H57	H	0.880244	0.595146	0.596309
	H58	H	0.114267	0.419717	0.602332
	H59	H	0.881690	0.415599	0.407211
	H60	H	0.119650	0.400709	0.598846
	H61	H	0.879350	0.597956	0.595573
	H62	H	0.115244	0.591972	0.404386
	H63	H	0.878858	0.411144	0.405003
	H64	H	0.401463	0.596632	0.115821
	H65	H	0.595192	0.603685	0.881134
	H66	H	0.594071	0.409280	0.118503
	H67	H	0.395986	0.427367	0.885417
	H68	H	0.586925	0.123109	0.404100
	H69	H	0.594561	0.885600	0.590138
	H70	H	0.408064	0.124129	0.602230
	H71	H	0.395618	0.882823	0.405315
	H72	H	0.910602	0.620709	0.095686
	H73	H	0.087034	0.384854	0.105578
	H74	H	0.093604	0.623791	0.907622
	H75	H	0.907406	0.383330	0.898202
	H76	H	0.095314	0.910881	0.617356
	H77	H	0.088024	0.097164	0.384462
	H78	H	0.893957	0.091397	0.618557
	H79	H	0.901252	0.913602	0.384308
	H80	H	0.617494	0.103041	0.900567
	H81	H	0.382873	0.087127	0.093980
	H82	H	0.612719	0.919043	0.092609
	H83	H	0.376064	0.911888	0.897936
	H84	H	0.615945	0.912543	0.099154
	H85	H	0.374776	0.103225	0.105652
	H86	H	0.614894	0.100924	0.909429
	H87	H	0.377650	0.905856	0.913826
	H88	H	0.910755	0.094321	0.614501
	H89	H	0.090505	0.098763	0.383407
	H90	H	0.089066	0.910698	0.616319
	H91	H	0.908400	0.912537	0.385150
	H92	H	0.087188	0.623090	0.902927
	H93	H	0.086744	0.390903	0.086173
	H94	H	0.904391	0.621884	0.089079
	H95	H	0.912548	0.390660	0.914841
	H96	H	0.410081	0.118183	0.584629
	H97	H	0.592311	0.884108	0.600334
	H98	H	0.589736	0.121541	0.410585
	H99	H	0.413947	0.886060	0.399683
	H100	H	0.591043	0.414715	0.117200
	H101	H	0.594930	0.595436	0.884322
	H102	H	0.406567	0.598229	0.115967
	H103	H	0.420309	0.414007	0.887944
	H104	H	0.116633	0.600577	0.405939
	H105	H	0.880797	0.595951	0.593298
	H106	H	0.111899	0.411128	0.584081
	H107	H	0.880358	0.411089	0.411121
	H108	H	0.901784	0.624946	0.097105
	H109	H	0.103991	0.384017	0.093945
	H110	H	0.086818	0.621057	0.909901
	H111	H	0.895627	0.384489	0.912453
	H112	H	0.091994	0.905427	0.619001
	H113	H	0.090115	0.095995	0.384576
	H114	H	0.901235	0.107832	0.621426
	H115	H	0.904799	0.906615	0.383217
	H116	H	0.613595	0.093831	0.902535
	H117	H	0.379938	0.106087	0.084716
	H118	H	0.614454	0.909772	0.089227
	H119	H	0.381938	0.922384	0.909417
	C120	C	0.375812	0.013311	0.622007
	C121	C	0.617831	0.995402	0.621445
	C122	C	0.618802	0.013531	0.378698
	C123	C	0.376070	0.995743	0.379419
	C124	C	0.619841	0.383398	0.009052
	C125	C	0.619854	0.627795	0.992109
	C126	C	0.375444	0.627975	0.008427
	C127	C	0.376170	0.384726	0.991668
	C128	C	0.006723	0.625475	0.379225
	C129	C	0.988958	0.624827	0.622801
	C130	C	0.006108	0.382530	0.623427
	C131	C	0.989261	0.383226	0.379761
	C132	C	0.876821	0.513564	0.123113
	C133	C	0.119998	0.496160	0.122898
	C134	C	0.119017	0.513618	0.879179
	C135	C	0.876683	0.495482	0.880189
	C136	C	0.120147	0.881340	0.509230
	C137	C	0.118352	0.125555	0.492132
	C138	C	0.874379	0.126507	0.509785
	C139	C	0.876265	0.882298	0.492643
	C140	C	0.506362	0.128010	0.876946
	C141	C	0.488170	0.127184	0.122415
	C142	C	0.505625	0.884161	0.122594
	C143	C	0.487807	0.885261	0.879291
	C144	C	0.377860	0.889437	0.677831
	C145	C	0.615130	0.119966	0.674962
	C146	C	0.617144	0.889792	0.323248
	C147	C	0.376928	0.119722	0.324287
	C148	C	0.675449	0.386658	0.886273
	C149	C	0.673808	0.624182	0.115395
	C150	C	0.321040	0.626054	0.885403
	C151	C	0.321487	0.386776	0.115343
	C152	C	0.882208	0.679890	0.382655
	C153	C	0.113277	0.678824	0.618966
	C154	C	0.882117	0.328948	0.620319
	C155	C	0.113112	0.328229	0.383304
	C156	C	0.882852	0.384466	0.679107
	C157	C	0.113048	0.621990	0.677025
	C158	C	0.883203	0.624092	0.323790
	C159	C	0.112966	0.384635	0.324827
	C160	C	0.379705	0.683077	0.884934
	C161	C	0.615736	0.681800	0.115342
	C162	C	0.617553	0.329235	0.885675
	C163	C	0.378740	0.328852	0.114750
	C164	C	0.673872	0.889167	0.381424
	C165	C	0.672219	0.120045	0.617667
	C166	C	0.322322	0.888461	0.618985
	C167	C	0.320121	0.119707	0.381448
	C168	C	0.879537	0.389355	0.178359
	C169	C	0.117039	0.620363	0.177115
	C170	C	0.118136	0.389379	0.825141
	C171	C	0.878535	0.619539	0.824454
	C172	C	0.174870	0.884828	0.385875
	C173	C	0.172929	0.121991	0.615401
	C174	C	0.820618	0.123996	0.386222
	C175	C	0.820625	0.884512	0.615595
	C176	C	0.381916	0.183055	0.881405
	C177	C	0.612954	0.179946	0.116844
	C178	C	0.381911	0.829465	0.119567
	C179	C	0.612478	0.831566	0.882933
	C180	C	0.382001	0.886142	0.177898
	C181	C	0.611874	0.125067	0.176863
	C182	C	0.381934	0.126848	0.822642
	C183	C	0.612049	0.887474	0.824798
	C184	C	0.877750	0.182384	0.386824
	C185	C	0.115117	0.179500	0.615685
	C186	C	0.116897	0.827430	0.385837
	C187	C	0.879220	0.827537	0.615902
	C188	C	0.175092	0.389654	0.882673
	C189	C	0.172429	0.621479	0.118135
	C190	C	0.821950	0.389467	0.121278
	C191	C	0.822864	0.620607	0.883217
	C192	C	0.397488	0.100072	0.599420
	C193	C	0.596555	0.908355	0.600794
	C194	C	0.596679	0.100575	0.400083
	C195	C	0.399099	0.908932	0.401433
	C196	C	0.597596	0.404872	0.095019
	C197	C	0.598849	0.606295	0.905958
	C198	C	0.397191	0.605560	0.094263
	C199	C	0.398223	0.407296	0.906030
	C200	C	0.092724	0.602841	0.401323
	C201	C	0.902571	0.602801	0.601457
	C202	C	0.092848	0.404263	0.601566
	C203	C	0.902647	0.405918	0.401327
	C204	C	0.899103	0.600158	0.100530
	C205	C	0.098868	0.409200	0.101696
	C206	C	0.096076	0.600262	0.900664
	C207	C	0.898624	0.408673	0.902117
	C208	C	0.098506	0.902629	0.595280
	C209	C	0.096231	0.103757	0.406489
	C210	C	0.895622	0.104292	0.596040
	C211	C	0.898311	0.904566	0.406473
	C212	C	0.592794	0.105834	0.897619
	C213	C	0.401558	0.105374	0.101177
	C214	C	0.592150	0.907046	0.100234
	C215	C	0.400985	0.907062	0.900607
	Zn216	Zn	0.496513	0.005048	0.750000
	Zn217	Zn	0.496764	0.005647	0.251072
	Zn218	Zn	0.748849	0.505084	0.001350
	Zn219	Zn	0.246816	0.505954	0.000688
	Zn220	Zn	-0.002309	0.752825	0.500855
	Zn221	Zn	-0.003030	0.254922	0.501495
	Zn222	Zn	-0.002034	0.503628	0.751701
	Zn223	Zn	-0.001347	0.504494	0.250845
	Zn224	Zn	0.497547	0.756992	0.000504
	Zn225	Zn	0.497529	0.255386	-0.000290
	Zn226	Zn	0.746704	0.003909	0.500425
	Zn227	Zn	0.248222	0.004282	0.500134
	N228	N	0.410445	0.967947	0.679766
	N229	N	0.582063	0.041583	0.677457
	N230	N	0.583842	0.968365	0.321204
	N231	N	0.410903	0.041593	0.322917
	N232	N	0.676935	0.419776	0.963918
	N233	N	0.676308	0.591106	0.037786
	N234	N	0.318479	0.592336	0.962901
	N235	N	0.319668	0.420906	0.038041
	N236	N	0.960019	0.681015	0.416205
	N237	N	0.035208	0.680740	0.585950
	N238	N	0.959816	0.327529	0.586391
	N239	N	0.035124	0.327482	0.416945
	N240	N	0.961138	0.417312	0.680903
	N241	N	0.034706	0.589457	0.679666
	N242	N	0.961521	0.590901	0.321471
	N243	N	0.034865	0.418027	0.322511
	N244	N	0.412906	0.684278	0.962600
	N245	N	0.583221	0.684384	0.037671
	N246	N	0.583443	0.327375	0.962946
	N247	N	0.412036	0.327309	0.037011
	N248	N	0.674838	0.966968	0.415181
	N249	N	0.673923	0.041735	0.584818
	N250	N	0.320833	0.966569	0.584841
	N251	N	0.319713	0.041564	0.415099
	N252	N	0.912910	0.467636	0.179689
	N253	N	0.085416	0.541400	0.180255
	N254	N	0.084232	0.467341	0.822875
	N255	N	0.911267	0.540871	0.822425
	N256	N	0.177010	0.917551	0.463443
	N257	N	0.175019	0.088995	0.537712
	N258	N	0.818565	0.089973	0.463710
	N259	N	0.818764	0.917734	0.537779
	N260	N	0.459953	0.183933	0.914449
	N261	N	0.534931	0.181423	0.083731
	N262	N	0.459866	0.828360	0.085944
	N263	N	0.534398	0.830126	0.916368
	N264	N	0.460120	0.919240	0.179933
	N265	N	0.533346	0.092946	0.180349
	N266	N	0.460256	0.093514	0.819554
	N267	N	0.533557	0.920069	0.822373
	N268	N	0.910639	0.183827	0.464459
	N269	N	0.081816	0.181855	0.538158
	N270	N	0.083461	0.825129	0.463608
	N271	N	0.912982	0.825992	0.538405
	N272	N	0.175599	0.468131	0.915551
	N273	N	0.174501	0.543262	0.085070
	N274	N	0.820185	0.467554	0.087501
	N275	N	0.821763	0.542520	0.917227
	O276	O	0.460119	0.478862	0.488949
	H277	H	0.447768	0.484110	0.478424
	H278	H	0.461255	0.483793	0.489125
	O279	O	-0.059321	-0.078705	0.031446
	H280	H	-0.060054	-0.089897	0.031424
	H281	H	-0.061426	-0.081794	0.033035
	O282	O	0.468552	0.465368	0.416996
	H283	H	0.466241	0.466583	0.408871
	H284	H	0.475854	0.470192	0.418113
	O285	O	0.396203	0.565165	0.481620
	H286	H	0.397001	0.565001	0.475345
	H287	H	0.392598	0.571605	0.485562
	O288	O	0.978718	-0.082264	0.008262
	H289	H	0.979351	-0.086081	0.008693
	H290	H	0.973968	-0.091473	0.008802
	O291	O	-0.444275	0.454673	-0.518292
	H292	H	-0.431901	0.453576	-0.514575
	H293	H	-0.449729	0.445936	-0.508403
	O294	O	0.516398	0.465236	0.503205
	H295	H	0.518374	0.458514	0.496375
	H296	H	0.519037	0.453487	0.506950
	O297	O	0.483486	1.423730	0.467865
	H298	H	0.476029	1.426588	0.461747
	H299	H	0.488030	1.432987	0.463829
	O300	O	1.459551	0.476918	0.496452
	H301	H	1.462215	0.457364	0.498626
	H302	H	1.468983	0.480252	0.496324
	O303	O	0.473099	0.573630	0.459973
	H304	H	0.475150	0.572727	0.464159
	H305	H	0.479464	0.571561	0.465545
	O306	O	0.450120	0.471296	1.453865
	H307	H	0.437389	0.478264	1.455757
	H308	H	0.450244	0.473947	1.444057
	O309	O	0.552019	0.421418	0.556053
	H310	H	0.544302	0.423241	0.558750
	H311	H	0.544790	0.405623	0.562529
