data_Molecule from HDF5

_cell_length_a		16.466620
_cell_length_b		16.450823
_cell_length_c		16.209336
_cell_angle_alpha	90.167092
_cell_angle_beta	90.050409
_cell_angle_gamma	90.219216
_symmetry_space_group_name_H-M	'P 1'
_symmetry_Int_Tables_number		1

loop_
	_symmetry_equiv_pos_as_xyz
	x,y,z

loop_
	_atom_site_label
	_atom_site_type_symbol
	_atom_site_fract_x
	_atom_site_fract_y
	_atom_site_fract_z
	H0	H	0.389181	0.846539	0.709668
	H1	H	0.598143	0.164260	0.714839
	H2	H	0.592033	0.845824	0.272391
	H3	H	0.388763	0.165782	0.271569
	H4	H	0.712485	0.402877	0.831949
	H5	H	0.716695	0.618525	0.150891
	H6	H	0.271129	0.612823	0.831015
	H7	H	0.270200	0.402400	0.150684
	H8	H	0.834946	0.732212	0.380739
	H9	H	0.149133	0.731658	0.598496
	H10	H	0.834228	0.282869	0.600154
	H11	H	0.148651	0.284377	0.383542
	H12	H	0.833251	0.403652	0.712919
	H13	H	0.151698	0.611388	0.710715
	H14	H	0.834313	0.613398	0.267485
	H15	H	0.151159	0.405134	0.272132
	H16	H	0.387204	0.726482	0.831081
	H17	H	0.599147	0.729764	0.151570
	H18	H	0.598646	0.286197	0.831708
	H19	H	0.386905	0.287358	0.152081
	H20	H	0.713602	0.848247	0.382176
	H21	H	0.717595	0.162705	0.602006
	H22	H	0.269186	0.849492	0.597524
	H23	H	0.269871	0.164542	0.384584
	H24	H	0.887581	0.348407	0.211714
	H25	H	0.095594	0.666853	0.211470
	H26	H	0.094341	0.348478	0.772721
	H27	H	0.890072	0.667636	0.773279
	H28	H	0.208440	0.904432	0.329547
	H29	H	0.214274	0.114752	0.651772
	H30	H	0.771842	0.110662	0.330604
	H31	H	0.768954	0.900099	0.652337
	H32	H	0.334829	0.228299	0.885150
	H33	H	0.650551	0.231194	0.100577
	H34	H	0.334287	0.784006	0.098284
	H35	H	0.650725	0.784647	0.885540
	H36	H	0.331874	0.906544	0.207377
	H37	H	0.652073	0.109012	0.210257
	H38	H	0.332565	0.107696	0.773599
	H39	H	0.652147	0.904899	0.772738
	H40	H	0.888071	0.225207	0.330314
	H41	H	0.097735	0.229308	0.651888
	H42	H	0.092137	0.790598	0.329862
	H43	H	0.884844	0.786374	0.652324
	H44	H	0.211721	0.349560	0.885238
	H45	H	0.215011	0.665213	0.098657
	H46	H	0.768449	0.350059	0.099172
	H47	H	0.770108	0.665790	0.885574
	H48	H	0.407208	0.119156	0.581751
	H49	H	0.574363	0.893976	0.581832
	H50	H	0.576106	0.115044	0.407669
	H51	H	0.395984	0.889899	0.396933
	H52	H	0.576481	0.419064	0.105527
	H53	H	0.581627	0.598884	0.876073
	H54	H	0.404821	0.607498	0.109495
	H55	H	0.405465	0.419452	0.876998
	H56	H	0.104907	0.601328	0.405560
	H57	H	0.878990	0.596467	0.581076
	H58	H	0.102350	0.416377	0.573368
	H59	H	0.879298	0.414389	0.408994
	H60	H	0.104094	0.424549	0.583795
	H61	H	0.878030	0.597568	0.581726
	H62	H	0.101837	0.596392	0.406959
	H63	H	0.880228	0.422257	0.403190
	H64	H	0.392268	0.586831	0.107299
	H65	H	0.584060	0.589576	0.878174
	H66	H	0.581849	0.416437	0.108312
	H67	H	0.403648	0.415553	0.875103
	H68	H	0.591722	0.120821	0.406204
	H69	H	0.582876	0.895330	0.572462
	H70	H	0.400688	0.118791	0.576596
	H71	H	0.404405	0.893392	0.399356
	H72	H	0.902413	0.620864	0.081118
	H73	H	0.082504	0.392061	0.084227
	H74	H	0.085497	0.624512	0.896354
	H75	H	0.905021	0.395200	0.902040
	H76	H	0.079947	0.917263	0.608221
	H77	H	0.090756	0.092602	0.374810
	H78	H	0.903788	0.096147	0.606867
	H79	H	0.907389	0.920462	0.379306
	H80	H	0.608030	0.094187	0.894244
	H81	H	0.377939	0.099837	0.081626
	H82	H	0.608165	0.917504	0.087931
	H83	H	0.378904	0.910970	0.905451
	H84	H	0.607052	0.909050	0.075533
	H85	H	0.379439	0.099274	0.077448
	H86	H	0.607738	0.106650	0.908274
	H87	H	0.381166	0.919078	0.904167
	H88	H	0.902493	0.093231	0.606429
	H89	H	0.073882	0.088279	0.382759
	H90	H	0.083062	0.919982	0.607365
	H91	H	0.901504	0.913562	0.375929
	H92	H	0.077197	0.619982	0.903714
	H93	H	0.077303	0.396538	0.077803
	H94	H	0.906773	0.619056	0.078493
	H95	H	0.900504	0.395715	0.906548
	H96	H	0.400198	0.122500	0.583939
	H97	H	0.586120	0.890512	0.583438
	H98	H	0.580973	0.121539	0.393353
	H99	H	0.397275	0.894273	0.405742
	H100	H	0.581990	0.423357	0.106523
	H101	H	0.575326	0.592965	0.880160
	H102	H	0.414987	0.588093	0.099518
	H103	H	0.400505	0.418964	0.875975
	H104	H	0.104578	0.597605	0.401192
	H105	H	0.879110	0.597470	0.580224
	H106	H	0.107546	0.412022	0.584805
	H107	H	0.876661	0.413962	0.399256
	H108	H	0.901968	0.619843	0.076174
	H109	H	0.086183	0.394344	0.075894
	H110	H	0.087973	0.621912	0.907336
	H111	H	0.898828	0.392781	0.900878
	H112	H	0.079365	0.921058	0.606808
	H113	H	0.077497	0.105620	0.374769
	H114	H	0.904840	0.094028	0.604961
	H115	H	0.898434	0.922603	0.376775
	H116	H	0.600908	0.089404	0.911040
	H117	H	0.379317	0.096338	0.080535
	H118	H	0.601612	0.923070	0.075155
	H119	H	0.377050	0.914487	0.897963
	C120	C	0.370795	0.015177	0.612563
	C121	C	0.614021	0.997731	0.613163
	C122	C	0.613295	0.014269	0.369885
	C123	C	0.368988	0.997740	0.368899
	C124	C	0.612847	0.387140	0.000905
	C125	C	0.613550	0.628185	0.983622
	C126	C	0.371331	0.627308	-0.000138
	C127	C	0.370734	0.385916	0.982086
	C128	C	-0.000352	0.629848	0.370600
	C129	C	0.983271	0.629708	0.613503
	C130	C	0.000076	0.385205	0.613651
	C131	C	0.983425	0.385893	0.370886
	C132	C	0.870387	0.516207	0.112724
	C133	C	0.113719	0.499065	0.112194
	C134	C	0.114347	0.517109	0.869689
	C135	C	0.870192	0.499218	0.870591
	C136	C	0.111540	0.887553	0.500409
	C137	C	0.113212	0.128473	0.483217
	C138	C	0.871167	0.126847	0.500128
	C139	C	0.869624	0.885614	0.483313
	C140	C	0.500909	0.127934	0.871217
	C141	C	0.483885	0.129780	0.113452
	C142	C	0.500725	0.884992	0.112125
	C143	C	0.484037	0.883608	0.870199
	C144	C	0.369939	0.894827	0.670701
	C145	C	0.616758	0.116703	0.674699
	C146	C	0.612513	0.894155	0.310750
	C147	C	0.369066	0.117874	0.310342
	C148	C	0.672725	0.384655	0.880068
	C149	C	0.675345	0.633748	0.103367
	C150	C	0.311367	0.630241	0.879079
	C151	C	0.310393	0.384029	0.102795
	C152	C	0.881578	0.691125	0.364757
	C153	C	0.102032	0.691043	0.616553
	C154	C	0.881331	0.324039	0.617534
	C155	C	0.101916	0.325472	0.366835
	C156	C	0.880867	0.384101	0.673548
	C157	C	0.103351	0.630908	0.672075
	C158	C	0.881475	0.632060	0.308168
	C159	C	0.102897	0.385517	0.310997
	C160	C	0.368914	0.687307	0.879285
	C161	C	0.616925	0.689674	0.103821
	C162	C	0.616188	0.326509	0.880103
	C163	C	0.368470	0.326758	0.103346
	C164	C	0.672921	0.895289	0.365594
	C165	C	0.676126	0.115759	0.618369
	C166	C	0.309893	0.896390	0.615272
	C167	C	0.309958	0.117084	0.366739
	C168	C	0.868608	0.396478	0.172595
	C169	C	0.114611	0.618992	0.172049
	C170	C	0.114104	0.396804	0.811090
	C171	C	0.870401	0.619638	0.812002
	C172	C	0.169588	0.885966	0.378507
	C173	C	0.173900	0.132109	0.603781
	C174	C	0.811454	0.129066	0.379044
	C175	C	0.808961	0.882598	0.603984
	C176	C	0.381943	0.187709	0.867896
	C177	C	0.603075	0.190298	0.117455
	C178	C	0.381474	0.824522	0.115471
	C179	C	0.603295	0.824720	0.867828
	C180	C	0.380144	0.885653	0.169681
	C181	C	0.603987	0.129420	0.172115
	C182	C	0.380883	0.127681	0.812313
	C183	C	0.603959	0.884210	0.811281
	C184	C	0.869403	0.186067	0.378838
	C185	C	0.116062	0.189351	0.603884
	C186	C	0.111584	0.829162	0.378577
	C187	C	0.866930	0.826079	0.604312
	C188	C	0.172535	0.397119	0.867155
	C189	C	0.173812	0.618339	0.115513
	C190	C	0.809271	0.397312	0.116562
	C191	C	0.810803	0.618700	0.867971
	C192	C	0.395679	0.098451	0.587780
	C193	C	0.588388	0.914990	0.586815
	C194	C	0.589750	0.097405	0.395140
	C195	C	0.392515	0.914367	0.393649
	C196	C	0.587400	0.412513	0.084803
	C197	C	0.587669	0.601475	0.899827
	C198	C	0.396769	0.601506	0.083655
	C199	C	0.395987	0.410867	0.897951
	C200	C	0.082126	0.605316	0.397155
	C201	C	0.900311	0.604432	0.588404
	C202	C	0.083133	0.410395	0.587925
	C203	C	0.900397	0.409969	0.396451
	C204	C	0.896227	0.598467	0.086398
	C205	C	0.089099	0.415857	0.086794
	C206	C	0.090506	0.600337	0.894846
	C207	C	0.894514	0.416276	0.895814
	C208	C	0.087627	0.912236	0.585267
	C209	C	0.088010	0.102922	0.399367
	C210	C	0.896316	0.101789	0.584117
	C211	C	0.895150	0.911118	0.399448
	C212	C	0.583870	0.103743	0.897044
	C213	C	0.400691	0.105447	0.087519
	C214	C	0.583893	0.909417	0.086847
	C215	C	0.400615	0.907920	0.895334
	Zn216	Zn	0.492011	0.006236	0.741931
	Zn217	Zn	0.491609	0.006448	0.240817
	Zn218	Zn	0.741409	0.507860	-0.008087
	Zn219	Zn	0.242422	0.507589	-0.009404
	Zn220	Zn	-0.009220	0.758675	0.492269
	Zn221	Zn	-0.008667	0.255820	0.491692
	Zn222	Zn	-0.007995	0.507656	0.742467
	Zn223	Zn	-0.008105	0.507580	0.241792
	Zn224	Zn	0.492203	0.754892	-0.007946
	Zn225	Zn	0.492684	0.258127	-0.008111
	Zn226	Zn	0.742333	0.006114	0.491256
	Zn227	Zn	0.240937	0.007091	0.491579
	N228	N	0.407123	0.969752	0.669200
	N229	N	0.578847	0.042250	0.671506
	N230	N	0.576248	0.969254	0.313021
	N231	N	0.404983	0.042736	0.311469
	N232	N	0.671001	0.421426	0.956141
	N233	N	0.673142	0.595856	0.027599
	N234	N	0.312741	0.593530	0.955105
	N235	N	0.311511	0.420034	0.026314
	N236	N	0.956080	0.689798	0.403103
	N237	N	0.026239	0.690526	0.581014
	N238	N	0.956636	0.324549	0.581007
	N239	N	0.026617	0.325376	0.403320
	N240	N	0.955703	0.421172	0.671243
	N241	N	0.028527	0.593591	0.670533
	N242	N	0.955702	0.594671	0.311689
	N243	N	0.028268	0.422387	0.313572
	N244	N	0.405844	0.685195	0.955355
	N245	N	0.578953	0.686168	0.028456
	N246	N	0.579653	0.327808	0.956372
	N247	N	0.405265	0.327856	0.027288
	N248	N	0.673732	0.970854	0.401722
	N249	N	0.674391	0.040853	0.580700
	N250	N	0.310187	0.972217	0.579901
	N251	N	0.309694	0.041493	0.402457
	N252	N	0.905937	0.471285	0.170455
	N253	N	0.077866	0.543827	0.170045
	N254	N	0.078932	0.472441	0.812274
	N255	N	0.906662	0.544421	0.813429
	N256	N	0.169781	0.921484	0.455460
	N257	N	0.172521	0.095199	0.527619
	N258	N	0.812280	0.093086	0.455488
	N259	N	0.810305	0.918754	0.527537
	N260	N	0.457591	0.188076	0.903655
	N261	N	0.527237	0.190776	0.081981
	N262	N	0.457668	0.823694	0.080818
	N263	N	0.527385	0.824063	0.903360
	N264	N	0.455127	0.922388	0.167735
	N265	N	0.528738	0.092790	0.170148
	N266	N	0.455851	0.090971	0.814220
	N267	N	0.528653	0.919808	0.812456
	N268	N	0.905712	0.184905	0.455244
	N269	N	0.079048	0.187191	0.528037
	N270	N	0.076243	0.830021	0.455523
	N271	N	0.903601	0.827742	0.528228
	N272	N	0.173016	0.472941	0.902802
	N273	N	0.173519	0.542790	0.079179
	N274	N	0.810036	0.472786	0.080379
	N275	N	0.810435	0.542910	0.903415
	O276	O	0.468410	0.714931	0.320875
	H277	H	0.486908	0.703338	0.316224
	H278	H	0.475128	0.709562	0.293322
	O279	O	0.285383	0.471183	0.436618
	H280	H	0.293662	0.468348	0.443053
	H281	H	0.283488	0.473820	0.458378
	O282	O	0.703603	0.531248	0.368386
	H283	H	0.707504	0.556738	0.393477
	H284	H	0.722780	0.526123	0.330648
	O285	O	0.951554	0.932778	-0.138998
	H286	H	0.955095	0.919483	-0.151982
	H287	H	0.959406	0.947473	-0.127789
	O288	O	0.660877	0.575488	0.489970
	H289	H	0.686087	0.594609	0.493232
	H290	H	0.639741	0.566894	0.503502
	O291	O	0.324091	0.699203	0.295012
	H292	H	0.320518	0.683586	0.295867
	H293	H	0.351774	0.704547	0.295052
	O294	O	0.846840	1.016258	1.116779
	H295	H	0.856182	1.018800	1.115606
	H296	H	0.840219	1.017533	1.127787
	O297	O	0.694119	0.415049	0.292446
	H298	H	0.703594	0.396976	0.311654
	H299	H	0.706434	0.422638	0.279284
	O300	O	0.481485	0.286725	0.368610
	H301	H	0.475515	0.287604	0.347187
	H302	H	0.470008	0.283819	0.357304
	O303	O	0.403800	0.489148	0.359712
	H304	H	0.412646	0.493689	0.378780
	H305	H	0.410883	0.487320	0.339939
	O306	O	-0.256065	0.291825	1.350795
	H307	H	-0.247026	0.285342	1.369492
	H308	H	-0.286893	0.280753	1.357273
	O309	O	1.109178	-0.127064	-0.070631
	H310	H	1.107920	-0.124549	-0.069782
	H311	H	1.097651	-0.126527	-0.075068
	O312	O	0.891629	-0.156969	0.077260
	H313	H	0.896021	-0.151134	0.076037
	H314	H	0.909012	-0.149459	0.077219
	O315	O	0.602545	0.331437	0.569752
	H316	H	0.577178	0.337659	0.568690
	H317	H	0.599951	0.318257	0.593226
	O318	O	-0.039029	-0.158197	0.007541
	H319	H	-0.027918	-0.148626	0.021396
	H320	H	-0.034368	-0.171134	-0.007533
	O321	O	0.313300	0.317384	0.678315
	H322	H	0.302074	0.344913	0.693228
	H323	H	0.312423	0.317112	0.656533
	O324	O	1.108088	-0.004725	1.103089
	H325	H	1.111085	0.015205	1.104846
	H326	H	1.119438	0.001919	1.119009
	O327	O	0.608066	0.714316	0.570365
	H328	H	0.601694	0.718396	0.580091
	H329	H	0.639359	0.727002	0.565602
	O330	O	-0.074900	1.129837	0.959078
	H331	H	-0.083794	1.127816	0.965518
	H332	H	-0.076665	1.127542	0.951988
	O333	O	-0.141661	1.000864	0.015911
	H334	H	-0.135835	1.006096	0.010025
	H335	H	-0.148278	1.009840	0.015132
	O336	O	0.962625	0.896757	-0.080068
	H337	H	0.971853	0.885473	-0.075191
	H338	H	0.960698	0.897265	-0.080994
	O339	O	-0.415779	1.487916	1.545978
	H340	H	-0.419945	1.481246	1.532738
	H341	H	-0.417628	1.487455	1.540452
	O342	O	0.408637	0.567837	0.541469
	H343	H	0.403776	0.572056	0.531504
	H344	H	0.411637	0.571811	0.540935
	O345	O	-0.716679	-0.702254	1.514163
	H346	H	-0.731475	-0.723277	1.530863
	H347	H	-0.712379	-0.697359	1.504714
	O348	O	0.595633	0.497336	0.605327
	H349	H	0.610112	0.500348	0.618035
	H350	H	0.584076	0.476153	0.596027
	O351	O	1.055622	1.169996	0.114428
	H352	H	1.058871	1.164147	0.124144
	H353	H	1.063016	1.164866	0.130459
	O354	O	1.291086	0.707913	1.437472
	H355	H	1.290704	0.713921	1.433392
	H356	H	1.279027	0.700932	1.425471
	O357	O	-0.011217	0.086154	-0.061306
	H358	H	-0.005078	0.079910	-0.054710
	H359	H	-0.020511	0.080665	-0.077258
	O360	O	1.136806	0.116929	0.175780
	H361	H	1.158337	0.133271	0.203674
	H362	H	1.139561	0.101118	0.164887
	O363	O	1.338237	-0.708191	0.339032
	H364	H	1.352621	-0.701362	0.342432
	H365	H	1.344089	-0.702632	0.330964
	O366	O	0.685784	0.475083	1.654477
	H367	H	0.689165	0.466659	1.653445
	H368	H	0.688732	0.477259	1.632170
	O369	O	0.968250	0.089027	1.064577
	H370	H	0.965660	0.089324	1.063171
	H371	H	0.976594	0.088172	1.054336
	O372	O	0.487726	0.546400	0.617745
	H373	H	0.482868	0.530768	0.623123
	H374	H	0.475184	0.551933	0.601987
	O375	O	0.013320	-0.169464	0.863947
	H376	H	0.007433	-0.151497	0.857249
	H377	H	0.016200	-0.199444	0.845960
	O378	O	0.541269	0.568891	0.289441
	H379	H	0.537574	0.553722	0.283407
	H380	H	0.565443	0.549025	0.294657
	O381	O	-0.194997	1.048549	-0.024375
	H382	H	-0.192580	1.049268	-0.013895
	H383	H	-0.203763	1.047696	-0.010140
	O384	O	0.697414	0.422309	0.420021
	H385	H	0.696007	0.416505	0.426690
	H386	H	0.678527	0.420155	0.447005
	O387	O	0.653962	0.682911	0.654361
	H388	H	0.661701	0.647659	0.655841
	H389	H	0.640276	0.678860	0.646356
	O390	O	0.500247	0.572000	0.610756
	H391	H	0.509269	0.581756	0.610427
	H392	H	0.512594	0.576983	0.623413
	O393	O	0.870682	-0.010670	0.798637
	H394	H	0.874448	-0.013889	0.800167
	H395	H	0.867037	-0.015851	0.801444
	O396	O	1.025742	-0.102562	0.111669
	H397	H	1.023814	-0.113867	0.102697
	H398	H	1.041311	-0.107055	0.089277
	O399	O	0.383092	0.596192	0.605026
	H400	H	0.383709	0.600653	0.603776
	H401	H	0.396407	0.588444	0.611828
	O402	O	1.113037	1.074639	-0.047649
	H403	H	1.129474	1.066272	-0.052382
	H404	H	1.106144	1.086898	-0.041694
	O405	O	0.293298	0.524297	0.299676
	H406	H	0.284181	0.514022	0.302886
	H407	H	0.302350	0.531934	0.295336
	O408	O	0.290879	0.491069	0.686286
	H409	H	0.295510	0.510993	0.696198
	H410	H	0.274423	0.505464	0.698374
	O411	O	1.172838	0.934901	0.820871
	H412	H	1.181129	0.947921	0.812318
	H413	H	1.170468	0.925093	0.836281
	O414	O	0.477337	0.361268	0.279461
	H415	H	0.482684	0.355728	0.265998
	H416	H	0.494470	0.373375	0.291026
	O417	O	0.128584	1.125587	0.847965
	H418	H	0.115122	1.129890	0.831441
	H419	H	0.112587	1.130970	0.849155
	O420	O	-0.089425	1.083167	0.828998
	H421	H	-0.102754	1.074536	0.850662
	H422	H	-0.090881	1.079841	0.816506
	O423	O	-0.113153	0.915868	0.164601
	H424	H	-0.096649	0.893021	0.161004
	H425	H	-0.132542	0.903678	0.181410
	O426	O	0.445474	0.670403	0.653193
	H427	H	0.459423	0.678487	0.644283
	H428	H	0.463344	0.675041	0.655199
	O429	O	0.487727	0.303061	0.676801
	H430	H	0.479461	0.295602	0.691621
	H431	H	0.449120	0.309337	0.677226
	O432	O	0.196424	1.213969	0.030856
	H433	H	0.211840	1.222231	0.039795
	H434	H	0.193065	1.210804	0.027823
	O435	O	0.089535	-0.097045	0.032933
	H436	H	0.084210	-0.090889	0.035663
	H437	H	0.088227	-0.090229	0.023973
	O438	O	-0.133998	1.148051	1.084015
	H439	H	-0.121459	1.141670	1.093410
	H440	H	-0.144396	1.145503	1.087731
	O441	O	1.022201	0.126786	0.818448
	H442	H	1.008410	0.128613	0.829374
	H443	H	1.025591	0.136436	0.804392
