data_Molecule from HDF5

_cell_length_a		16.225206
_cell_length_b		16.190990
_cell_length_c		16.184150
_cell_angle_alpha	90.367515
_cell_angle_beta	89.974880
_cell_angle_gamma	89.691416
_symmetry_space_group_name_H-M	'P 1'
_symmetry_Int_Tables_number		1

loop_
	_symmetry_equiv_pos_as_xyz
	x,y,z

loop_
	_atom_site_label
	_atom_site_type_symbol
	_atom_site_fract_x
	_atom_site_fract_y
	_atom_site_fract_z
	H0	H	0.395455	0.828646	0.710395
	H1	H	0.589991	0.157714	0.713975
	H2	H	0.593590	0.830167	0.282641
	H3	H	0.392692	0.157998	0.286721
	H4	H	0.708582	0.391748	0.834571
	H5	H	0.706802	0.592240	0.162959
	H6	H	0.278709	0.591894	0.834557
	H7	H	0.279425	0.395252	0.162066
	H8	H	0.830244	0.707599	0.399255
	H9	H	0.157475	0.708480	0.599387
	H10	H	0.828965	0.281034	0.596031
	H11	H	0.158454	0.278165	0.399055
	H12	H	0.829281	0.395921	0.713257
	H13	H	0.157995	0.593675	0.714986
	H14	H	0.829049	0.590801	0.286361
	H15	H	0.157339	0.393059	0.283068
	H16	H	0.394730	0.704599	0.833367
	H17	H	0.592173	0.708250	0.162751
	H18	H	0.592447	0.277075	0.834717
	H19	H	0.396033	0.283215	0.163849
	H20	H	0.708318	0.830385	0.398426
	H21	H	0.705525	0.158340	0.599663
	H22	H	0.278884	0.829553	0.598223
	H23	H	0.276738	0.156700	0.400287
	H24	H	0.896595	0.328170	0.210011
	H25	H	0.090046	0.657621	0.213991
	H26	H	0.094863	0.329632	0.781815
	H27	H	0.894709	0.657609	0.786699
	H28	H	0.209240	0.891537	0.334568
	H29	H	0.205270	0.092272	0.663350
	H30	H	0.778652	0.091864	0.333578
	H31	H	0.779334	0.896457	0.663079
	H32	H	0.329562	0.208056	0.901217
	H33	H	0.657627	0.206676	0.098318
	H34	H	0.328501	0.781280	0.096347
	H35	H	0.657598	0.778346	0.899405
	H36	H	0.329396	0.896292	0.212952
	H37	H	0.657090	0.092048	0.213399
	H38	H	0.328457	0.092232	0.786121
	H39	H	0.657084	0.892173	0.783220
	H40	H	0.894260	0.205504	0.333163
	H41	H	0.091139	0.207704	0.662681
	H42	H	0.092079	0.778587	0.333214
	H43	H	0.894992	0.780069	0.662562
	H44	H	0.209148	0.328669	0.897232
	H45	H	0.207414	0.657287	0.099987
	H46	H	0.781296	0.328604	0.095753
	H47	H	0.777152	0.656785	0.899065
	H48	H	0.408666	0.108340	0.592664
	H49	H	0.582328	0.874411	0.601083
	H50	H	0.583492	0.110038	0.414029
	H51	H	0.409994	0.880656	0.413675
	H52	H	0.590038	0.395888	0.118622
	H53	H	0.585364	0.589623	0.879613
	H54	H	0.397133	0.579561	0.115105
	H55	H	0.400992	0.386906	0.876561
	H56	H	0.110333	0.582354	0.406277
	H57	H	0.877182	0.583829	0.592762
	H58	H	0.113760	0.403553	0.602888
	H59	H	0.874054	0.392729	0.404092
	H60	H	0.113160	0.387705	0.587558
	H61	H	0.875488	0.588797	0.595113
	H62	H	0.112145	0.583976	0.403872
	H63	H	0.878426	0.401225	0.409558
	H64	H	0.408939	0.589278	0.114922
	H65	H	0.590343	0.581682	0.880174
	H66	H	0.591158	0.405252	0.116673
	H67	H	0.390358	0.406882	0.880013
	H68	H	0.593944	0.115121	0.404891
	H69	H	0.580945	0.880527	0.581177
	H70	H	0.391241	0.111118	0.584555
	H71	H	0.390379	0.873465	0.409074
	H72	H	0.900693	0.611936	0.096325
	H73	H	0.082982	0.376944	0.088447
	H74	H	0.087949	0.615876	0.892107
	H75	H	0.895852	0.375746	0.913026
	H76	H	0.099675	0.901210	0.619617
	H77	H	0.082911	0.082524	0.381676
	H78	H	0.896285	0.095490	0.618927
	H79	H	0.896355	0.906856	0.381301
	H80	H	0.608802	0.079074	0.907473
	H81	H	0.374986	0.093594	0.090205
	H82	H	0.609439	0.898514	0.086677
	H83	H	0.373175	0.897647	0.899438
	H84	H	0.609808	0.904359	0.091290
	H85	H	0.377708	0.084364	0.091183
	H86	H	0.612627	0.085637	0.901641
	H87	H	0.375218	0.895658	0.908874
	H88	H	0.894233	0.080507	0.615439
	H89	H	0.086285	0.088723	0.379502
	H90	H	0.079398	0.912663	0.610894
	H91	H	0.908003	0.899465	0.382750
	H92	H	0.071595	0.603771	0.912532
	H93	H	0.092751	0.375690	0.086965
	H94	H	0.900419	0.610021	0.090727
	H95	H	0.899772	0.371990	0.896958
	H96	H	0.394964	0.115787	0.602776
	H97	H	0.599240	0.873061	0.588275
	H98	H	0.581354	0.112554	0.400406
	H99	H	0.404951	0.873225	0.394839
	H100	H	0.582670	0.400722	0.115480
	H101	H	0.581715	0.581809	0.883324
	H102	H	0.395596	0.594013	0.119913
	H103	H	0.413281	0.404540	0.884707
	H104	H	0.110993	0.585751	0.406689
	H105	H	0.876697	0.587984	0.588720
	H106	H	0.106010	0.408176	0.583054
	H107	H	0.874599	0.402221	0.398726
	H108	H	0.895351	0.612408	0.093585
	H109	H	0.088585	0.373116	0.096536
	H110	H	0.099200	0.611092	0.918224
	H111	H	0.910953	0.378812	0.907208
	H112	H	0.078988	0.889322	0.617465
	H113	H	0.090141	0.082743	0.380473
	H114	H	0.907746	0.087151	0.613776
	H115	H	0.895694	0.893649	0.377371
	H116	H	0.610543	0.088117	0.910545
	H117	H	0.372931	0.089706	0.098742
	H118	H	0.611819	0.898264	0.093497
	H119	H	0.377271	0.904663	0.905156
	C120	C	0.370506	0.002662	0.621095
	C121	C	0.614731	0.984856	0.619974
	C122	C	0.614671	0.003494	0.377350
	C123	C	0.371996	0.984500	0.377924
	C124	C	0.616205	0.370860	0.007924
	C125	C	0.614740	0.614095	0.989546
	C126	C	0.371526	0.615225	0.007500
	C127	C	0.372987	0.372375	0.989669
	C128	C	0.002440	0.612941	0.377430
	C129	C	0.985055	0.615644	0.621027
	C130	C	0.002248	0.371758	0.620010
	C131	C	0.984701	0.370060	0.375676
	C132	C	0.871780	0.502114	0.120415
	C133	C	0.115517	0.483975	0.120304
	C134	C	0.115977	0.501932	0.877272
	C135	C	0.872420	0.484410	0.877538
	C136	C	0.115336	0.871143	0.507225
	C137	C	0.114606	0.114582	0.489118
	C138	C	0.870821	0.115677	0.507058
	C139	C	0.871433	0.872257	0.489381
	C140	C	0.502013	0.113714	0.878097
	C141	C	0.484386	0.116269	0.121591
	C142	C	0.502031	0.872207	0.119463
	C143	C	0.484277	0.870655	0.876010
	C144	C	0.374386	0.878371	0.674431
	C145	C	0.610746	0.108779	0.675881
	C146	C	0.613515	0.879258	0.321037
	C147	C	0.372917	0.108530	0.323759
	C148	C	0.671322	0.371826	0.883834
	C149	C	0.669356	0.612661	0.113780
	C150	C	0.316577	0.612227	0.883542
	C151	C	0.317604	0.375191	0.113247
	C152	C	0.878993	0.669038	0.379475
	C153	C	0.108326	0.671032	0.619547
	C154	C	0.878279	0.317992	0.616917
	C155	C	0.108808	0.315181	0.378464
	C156	C	0.878464	0.375070	0.675203
	C157	C	0.108524	0.613747	0.677100
	C158	C	0.878334	0.611010	0.323478
	C159	C	0.108674	0.372503	0.321144
	C160	C	0.374253	0.668242	0.883111
	C161	C	0.612522	0.670397	0.113480
	C162	C	0.613510	0.314916	0.883967
	C163	C	0.375522	0.319446	0.114163
	C164	C	0.670215	0.879358	0.378963
	C165	C	0.668599	0.108994	0.619400
	C166	C	0.316600	0.878562	0.618171
	C167	C	0.315453	0.107999	0.380425
	C168	C	0.876036	0.377416	0.173032
	C169	C	0.111413	0.608275	0.176281
	C170	C	0.114637	0.378352	0.820495
	C171	C	0.874203	0.608245	0.823478
	C172	C	0.171063	0.872276	0.383461
	C173	C	0.168343	0.112760	0.613892
	C174	C	0.816062	0.112262	0.382836
	C175	C	0.816679	0.875219	0.613568
	C176	C	0.378445	0.170005	0.880630
	C177	C	0.608323	0.170043	0.118713
	C178	C	0.377845	0.818464	0.116920
	C179	C	0.608246	0.815652	0.878767
	C180	C	0.378293	0.875788	0.174990
	C181	C	0.608037	0.112874	0.176060
	C182	C	0.378042	0.111989	0.823735
	C183	C	0.607912	0.872534	0.820967
	C184	C	0.873569	0.168897	0.382762
	C185	C	0.111769	0.170255	0.613492
	C186	C	0.112875	0.815962	0.382685
	C187	C	0.874420	0.817618	0.613356
	C188	C	0.171775	0.378219	0.877881
	C189	C	0.169593	0.608042	0.119415
	C190	C	0.818204	0.377824	0.116644
	C191	C	0.815818	0.607838	0.879474
	C192	C	0.391886	0.089395	0.599596
	C193	C	0.593836	0.898338	0.596951
	C194	C	0.592627	0.090207	0.399755
	C195	C	0.394998	0.898034	0.399473
	C196	C	0.594440	0.393873	0.094514
	C197	C	0.592614	0.590976	0.903435
	C198	C	0.393752	0.593790	0.094228
	C199	C	0.395087	0.393257	0.902843
	C200	C	0.088741	0.590682	0.399369
	C201	C	0.898817	0.593407	0.598905
	C202	C	0.088612	0.393563	0.597718
	C203	C	0.898137	0.392180	0.397385
	C204	C	0.892714	0.589057	0.099664
	C205	C	0.094310	0.397493	0.097448
	C206	C	0.093017	0.588025	0.900666
	C207	C	0.895372	0.397804	0.899425
	C208	C	0.092690	0.894218	0.593601
	C209	C	0.092890	0.091489	0.402903
	C210	C	0.892819	0.094068	0.593715
	C211	C	0.893639	0.893771	0.402975
	C212	C	0.588415	0.090914	0.900154
	C213	C	0.397617	0.095264	0.100035
	C214	C	0.588232	0.893954	0.097213
	C215	C	0.397627	0.892748	0.898143
	Zn216	Zn	0.493107	-0.006948	0.748026
	Zn217	Zn	0.493181	-0.006032	0.249419
	Zn218	Zn	0.743615	0.493190	-0.001376
	Zn219	Zn	0.244775	0.493252	-0.001558
	Zn220	Zn	-0.006266	0.742744	0.497316
	Zn221	Zn	-0.006783	0.242754	0.497645
	Zn222	Zn	-0.005791	0.493499	0.749379
	Zn223	Zn	-0.006616	0.492520	0.248372
	Zn224	Zn	0.492976	0.742540	-0.002206
	Zn225	Zn	0.493616	0.243661	-0.000945
	Zn226	Zn	0.742838	-0.005157	0.498880
	Zn227	Zn	0.243039	-0.006986	0.498875
	N228	N	0.407178	0.956538	0.676278
	N229	N	0.578025	0.030587	0.676413
	N230	N	0.579664	0.957372	0.319963
	N231	N	0.407382	0.030619	0.321905
	N232	N	0.673146	0.405852	0.962006
	N233	N	0.670804	0.578136	0.035911
	N234	N	0.314515	0.580011	0.962123
	N235	N	0.315937	0.407425	0.034878
	N236	N	0.957102	0.670285	0.412433
	N237	N	0.030739	0.672431	0.585337
	N238	N	0.956250	0.315787	0.583375
	N239	N	0.030745	0.313852	0.411977
	N240	N	0.956573	0.407944	0.677118
	N241	N	0.030761	0.579946	0.678226
	N242	N	0.956062	0.576740	0.322012
	N243	N	0.030554	0.405778	0.319209
	N244	N	0.407574	0.670414	0.961267
	N245	N	0.579096	0.671234	0.035387
	N246	N	0.580099	0.314014	0.962097
	N247	N	0.409382	0.317440	0.036174
	N248	N	0.671277	0.957503	0.413060
	N249	N	0.671004	0.031034	0.585170
	N250	N	0.313917	0.956900	0.585717
	N251	N	0.314799	0.029900	0.413366
	N252	N	0.908398	0.455764	0.175572
	N253	N	0.078445	0.530328	0.176958
	N254	N	0.080623	0.456219	0.820042
	N255	N	0.908847	0.530481	0.822326
	N256	N	0.172608	0.905932	0.461737
	N257	N	0.170307	0.078494	0.535802
	N258	N	0.814059	0.079783	0.461350
	N259	N	0.814570	0.908327	0.535592
	N260	N	0.456508	0.171170	0.913857
	N261	N	0.530253	0.172482	0.085607
	N262	N	0.455627	0.816001	0.083340
	N263	N	0.530241	0.814098	0.912022
	N264	N	0.456537	0.908609	0.176744
	N265	N	0.530049	0.080063	0.177838
	N266	N	0.456032	0.077757	0.821981
	N267	N	0.529703	0.905944	0.819064
	N268	N	0.907004	0.170997	0.460700
	N269	N	0.078847	0.171487	0.535133
	N270	N	0.079092	0.814831	0.460682
	N271	N	0.907750	0.815544	0.535036
	N272	N	0.172687	0.456059	0.912624
	N273	N	0.172507	0.529904	0.085273
	N274	N	0.815475	0.456249	0.084463
	N275	N	0.814506	0.529493	0.912224
	O276	O	1.001837	0.932584	-0.036489
	H277	H	1.003521	0.940263	-0.045181
	H278	H	1.000342	0.928574	-0.043814
	O279	O	-0.014930	-0.016535	1.003163
	H280	H	-0.023579	-0.013016	0.998949
	H281	H	-0.028983	-0.012320	1.005803
	O282	O	0.014175	-0.011002	-0.049593
	H283	H	0.014772	-0.014251	-0.040227
	H284	H	0.020723	-0.002920	-0.054077
	O285	O	0.482979	0.504307	0.527306
	H286	H	0.495210	0.510522	0.541284
	H287	H	0.474880	0.504241	0.526049
	O288	O	-0.010383	-0.026195	-0.027712
	H289	H	-0.015071	-0.030430	-0.020276
	H290	H	0.001940	-0.036243	-0.037781
	O291	O	-0.079495	1.021440	-0.104739
	H292	H	-0.067381	1.021869	-0.110314
	H293	H	-0.072129	1.012539	-0.101949
	O294	O	-0.019676	1.045964	0.030714
	H295	H	-0.008413	1.046770	0.032663
	H296	H	-0.012922	1.052576	0.034006
	O297	O	0.475804	0.462981	0.491734
	H298	H	0.481267	0.470835	0.493785
	H299	H	0.480605	0.457080	0.496081
	O300	O	0.452473	0.515040	0.462769
	H301	H	0.450890	0.501667	0.472089
	H302	H	0.447975	0.514611	0.471330
	O303	O	1.026863	0.088951	1.048675
	H304	H	1.023792	0.082444	1.046643
	H305	H	1.031880	0.101064	1.046248
	O306	O	1.090533	1.915769	0.966315
	H307	H	1.081493	1.915099	0.976068
	H308	H	1.095582	1.909316	0.972893
	O309	O	-0.032082	1.051785	0.977231
	H310	H	-0.031999	1.066549	0.967157
	H311	H	-0.055389	1.048379	0.972441
	O312	O	-0.033339	-0.037988	0.947794
	H313	H	-0.036600	-0.038995	0.951700
	H314	H	-0.036337	-0.035344	0.948976
	O315	O	0.511206	0.577638	0.481842
	H316	H	0.512632	0.581657	0.493046
	H317	H	0.514249	0.578595	0.476354
	O318	O	0.434893	-0.509874	0.501512
	H319	H	0.438756	-0.502645	0.496789
	H320	H	0.434640	-0.511054	0.493558
	O321	O	0.613496	0.564895	0.541410
	H322	H	0.626963	0.564053	0.540456
	H323	H	0.608826	0.572988	0.546641
	O324	O	0.995560	-0.037597	0.970969
	H325	H	1.000130	-0.035364	0.969608
	H326	H	0.997647	-0.037911	0.969542
	O327	O	0.994938	0.977417	0.993258
	H328	H	0.984490	0.979160	0.999425
	H329	H	0.991416	0.978910	0.983862
	O330	O	0.580741	0.501290	0.459860
	H331	H	0.585147	0.510980	0.468240
	H332	H	0.584871	0.508243	0.462002
	O333	O	0.505684	0.496161	0.508019
	H334	H	0.512131	0.494112	0.496477
	H335	H	0.502896	0.494817	0.500257
	O336	O	0.485032	0.539290	0.510156
	H337	H	0.473816	0.537669	0.503717
	H338	H	0.471135	0.538547	0.495284
	O339	O	0.494396	0.550598	0.512051
	H340	H	0.497725	0.548959	0.521032
	H341	H	0.485390	0.538422	0.498911
	O342	O	0.510019	0.553201	0.538901
	H343	H	0.512387	0.557982	0.548722
	H344	H	0.504404	0.545534	0.530620
	O345	O	0.541422	0.526472	0.547602
	H346	H	0.541771	0.532814	0.558674
	H347	H	0.538736	0.534585	0.539287
