data_Molecule from HDF5

_cell_length_a		16.209533
_cell_length_b		16.408724
_cell_length_c		16.163076
_cell_angle_alpha	89.554721
_cell_angle_beta	90.264254
_cell_angle_gamma	89.874092
_symmetry_space_group_name_H-M	'P 1'
_symmetry_Int_Tables_number		1

loop_
	_symmetry_equiv_pos_as_xyz
	x,y,z

loop_
	_atom_site_label
	_atom_site_type_symbol
	_atom_site_fract_x
	_atom_site_fract_y
	_atom_site_fract_z
	H0	H	0.403080	0.825630	0.724089
	H1	H	0.603791	0.148639	0.723650
	H2	H	0.601925	0.826118	0.292399
	H3	H	0.397353	0.147371	0.285965
	H4	H	0.716143	0.389663	0.842111
	H5	H	0.717639	0.590452	0.167385
	H6	H	0.283084	0.591911	0.841273
	H7	H	0.287140	0.389632	0.169056
	H8	H	0.838773	0.708028	0.400633
	H9	H	0.163356	0.705350	0.609909
	H10	H	0.840490	0.264550	0.613550
	H11	H	0.162853	0.269674	0.403128
	H12	H	0.837542	0.386706	0.722737
	H13	H	0.164366	0.587019	0.721541
	H14	H	0.837144	0.590202	0.288925
	H15	H	0.164829	0.390494	0.291943
	H16	H	0.396630	0.708684	0.842541
	H17	H	0.604764	0.704662	0.167535
	H18	H	0.604197	0.271317	0.842932
	H19	H	0.395773	0.268405	0.166893
	H20	H	0.718909	0.827015	0.407424
	H21	H	0.721448	0.148252	0.609824
	H22	H	0.283964	0.825824	0.610556
	H23	H	0.283341	0.148898	0.403922
	H24	H	0.899126	0.327957	0.224236
	H25	H	0.099480	0.651779	0.218471
	H26	H	0.101805	0.326273	0.791440
	H27	H	0.898403	0.649588	0.784900
	H28	H	0.215987	0.888226	0.342177
	H29	H	0.216487	0.084146	0.670553
	H30	H	0.784756	0.088599	0.343535
	H31	H	0.788926	0.887485	0.670383
	H32	H	0.338642	0.207845	0.899974
	H33	H	0.662203	0.206474	0.110728
	H34	H	0.337748	0.770484	0.106931
	H35	H	0.664269	0.772043	0.904694
	H36	H	0.337170	0.886816	0.221702
	H37	H	0.665430	0.084346	0.219704
	H38	H	0.338204	0.088507	0.788074
	H39	H	0.666402	0.891797	0.795556
	H40	H	0.895722	0.208106	0.345123
	H41	H	0.106018	0.204529	0.668472
	H42	H	0.102141	0.772626	0.342063
	H43	H	0.898293	0.767163	0.667875
	H44	H	0.218972	0.327808	0.904299
	H45	H	0.217932	0.649918	0.105477
	H46	H	0.783308	0.328400	0.106979
	H47	H	0.781919	0.650781	0.901540
	H48	H	0.405464	0.102328	0.593331
	H49	H	0.590417	0.874260	0.602018
	H50	H	0.586735	0.099912	0.415349
	H51	H	0.407031	0.870719	0.413062
	H52	H	0.584444	0.402168	0.117929
	H53	H	0.592442	0.586794	0.884824
	H54	H	0.407950	0.587144	0.124402
	H55	H	0.407037	0.401815	0.889432
	H56	H	0.116462	0.581658	0.415012
	H57	H	0.883558	0.579751	0.595657
	H58	H	0.112669	0.398542	0.588639
	H59	H	0.888717	0.399453	0.425080
	H60	H	0.117024	0.401539	0.604534
	H61	H	0.886650	0.580379	0.590231
	H62	H	0.117882	0.580650	0.413145
	H63	H	0.885722	0.405257	0.409863
	H64	H	0.404449	0.574500	0.121299
	H65	H	0.593179	0.574452	0.889254
	H66	H	0.588194	0.387848	0.123550
	H67	H	0.415214	0.398224	0.889719
	H68	H	0.597460	0.103791	0.417835
	H69	H	0.595839	0.873772	0.594692
	H70	H	0.409491	0.102992	0.600433
	H71	H	0.411041	0.872345	0.415246
	H72	H	0.908005	0.604749	0.094493
	H73	H	0.091772	0.375434	0.096224
	H74	H	0.086279	0.601811	0.911740
	H75	H	0.897187	0.371725	0.916908
	H76	H	0.094188	0.895925	0.622418
	H77	H	0.099947	0.083071	0.385409
	H78	H	0.916983	0.074051	0.620437
	H79	H	0.911594	0.895239	0.389500
	H80	H	0.618133	0.081240	0.912544
	H81	H	0.384613	0.081269	0.092390
	H82	H	0.617636	0.891885	0.094693
	H83	H	0.387219	0.897530	0.923517
	H84	H	0.616331	0.897970	0.099592
	H85	H	0.386687	0.076273	0.093735
	H86	H	0.617517	0.083624	0.918797
	H87	H	0.385559	0.903405	0.909504
	H88	H	0.914333	0.081740	0.624433
	H89	H	0.089095	0.071478	0.393102
	H90	H	0.089192	0.894708	0.621191
	H91	H	0.908270	0.897096	0.388702
	H92	H	0.092909	0.602680	0.917855
	H93	H	0.096646	0.373086	0.098475
	H94	H	0.905603	0.604781	0.097333
	H95	H	0.915055	0.372788	0.905967
	H96	H	0.413112	0.099910	0.593565
	H97	H	0.597951	0.870175	0.603144
	H98	H	0.593366	0.105404	0.408572
	H99	H	0.406502	0.872177	0.417278
	H100	H	0.600455	0.399102	0.123965
	H101	H	0.581733	0.581733	0.890175
	H102	H	0.416817	0.578563	0.119257
	H103	H	0.408002	0.393698	0.886039
	H104	H	0.118212	0.582819	0.414425
	H105	H	0.886346	0.575045	0.593412
	H106	H	0.119563	0.386757	0.598145
	H107	H	0.881237	0.389676	0.413785
	H108	H	0.909183	0.604109	0.097004
	H109	H	0.091632	0.372959	0.101913
	H110	H	0.094843	0.605639	0.909335
	H111	H	0.914189	0.379792	0.926022
	H112	H	0.092021	0.891500	0.624437
	H113	H	0.083445	0.087338	0.389984
	H114	H	0.908562	0.074067	0.623779
	H115	H	0.910945	0.899241	0.389322
	H116	H	0.615704	0.077997	0.918038
	H117	H	0.383965	0.079286	0.097550
	H118	H	0.619588	0.890973	0.101722
	H119	H	0.381125	0.889616	0.912007
	C120	C	0.380028	-0.004518	0.627589
	C121	C	0.624802	0.979301	0.629555
	C122	C	0.622655	-0.003509	0.385206
	C123	C	0.378323	0.978397	0.384256
	C124	C	0.621656	0.367189	0.013890
	C125	C	0.620446	0.610021	0.996094
	C126	C	0.378767	0.610803	0.013661
	C127	C	0.379726	0.367864	0.996197
	C128	C	0.009517	0.611620	0.383300
	C129	C	0.992749	0.608409	0.625254
	C130	C	0.009345	0.364866	0.628196
	C131	C	0.992439	0.367908	0.385460
	C132	C	0.878026	0.497899	0.127260
	C133	C	0.122750	0.480885	0.127096
	C134	C	0.122287	0.496893	0.883493
	C135	C	0.878024	0.480686	0.883694
	C136	C	0.121735	0.865603	0.514429
	C137	C	0.122210	0.108938	0.497314
	C138	C	0.880656	0.108627	0.515734
	C139	C	0.880260	0.866385	0.497124
	C140	C	0.509607	0.110755	0.884398
	C141	C	0.492633	0.108447	0.126221
	C142	C	0.509724	0.864457	0.128248
	C143	C	0.493047	0.867757	0.885637
	C144	C	0.381987	0.873914	0.685915
	C145	C	0.623854	0.100486	0.685644
	C146	C	0.621912	0.874714	0.329892
	C147	C	0.378237	0.099493	0.325568
	C148	C	0.678234	0.369227	0.891026
	C149	C	0.678829	0.609276	0.118717
	C150	C	0.321573	0.610796	0.890484
	C151	C	0.323694	0.368795	0.119563
	C152	C	0.887237	0.668829	0.382252
	C153	C	0.114831	0.666031	0.627280
	C154	C	0.888084	0.305680	0.630559
	C155	C	0.114444	0.309565	0.384815
	C156	C	0.886748	0.366045	0.685336
	C157	C	0.115251	0.607038	0.683406
	C158	C	0.886472	0.610281	0.326420
	C159	C	0.115406	0.369749	0.329400
	C160	C	0.377786	0.669308	0.890972
	C161	C	0.622459	0.666175	0.118861
	C162	C	0.622803	0.310083	0.891661
	C163	C	0.378044	0.308683	0.118616
	C164	C	0.680048	0.875164	0.387187
	C165	C	0.682445	0.100176	0.628957
	C166	C	0.323149	0.874090	0.628996
	C167	C	0.321599	0.100346	0.384292
	C168	C	0.879274	0.376435	0.185248
	C169	C	0.120287	0.602797	0.181504
	C170	C	0.121463	0.375101	0.828625
	C171	C	0.878591	0.601630	0.824284
	C172	C	0.177959	0.868171	0.391138
	C173	C	0.178812	0.105612	0.621178
	C174	C	0.822890	0.108795	0.392535
	C175	C	0.825147	0.866591	0.620621
	C176	C	0.387159	0.168425	0.882127
	C177	C	0.614408	0.166233	0.128192
	C178	C	0.386666	0.808756	0.126621
	C179	C	0.615663	0.810824	0.886027
	C180	C	0.386564	0.866763	0.183739
	C181	C	0.615724	0.105562	0.182742
	C182	C	0.387095	0.109240	0.826232
	C183	C	0.616942	0.870754	0.831701
	C184	C	0.877988	0.168230	0.393406
	C185	C	0.123822	0.165484	0.620078
	C186	C	0.121397	0.810430	0.391051
	C187	C	0.880020	0.807113	0.619477
	C188	C	0.180106	0.375926	0.884692
	C189	C	0.178873	0.602224	0.124818
	C190	C	0.821504	0.376605	0.127135
	C191	C	0.820619	0.602303	0.882236
	C192	C	0.402648	0.079673	0.603115
	C193	C	0.601628	0.894777	0.606631
	C194	C	0.599408	0.081057	0.407428
	C195	C	0.401364	0.893905	0.408276
	C196	C	0.597849	0.389867	0.099403
	C197	C	0.596215	0.587428	0.910356
	C198	C	0.402790	0.587034	0.099409
	C199	C	0.403244	0.391277	0.910750
	C200	C	0.095378	0.588329	0.407297
	C201	C	0.907425	0.585129	0.600265
	C202	C	0.094317	0.388685	0.604208
	C203	C	0.907256	0.391327	0.409359
	C204	C	0.900762	0.582480	0.103210
	C205	C	0.100196	0.395844	0.105078
	C206	C	0.098365	0.581345	0.906241
	C207	C	0.901705	0.396605	0.908899
	C208	C	0.098747	0.887590	0.600450
	C209	C	0.098133	0.086934	0.411597
	C210	C	0.905955	0.083850	0.600653
	C211	C	0.903509	0.890296	0.411378
	C212	C	0.595032	0.087649	0.909360
	C213	C	0.407056	0.085607	0.101719
	C214	C	0.595689	0.886996	0.105433
	C215	C	0.407107	0.890397	0.908297
	Zn216	Zn	0.501923	-0.012309	0.757026
	Zn217	Zn	0.500864	-0.013100	0.255401
	Zn218	Zn	0.748263	0.489910	0.005204
	Zn219	Zn	0.251419	0.489004	0.005206
	Zn220	Zn	0.001003	0.738100	0.504947
	Zn221	Zn	0.001118	0.237286	0.506445
	Zn222	Zn	0.000676	0.487649	0.754971
	Zn223	Zn	0.000901	0.489270	0.256098
	Zn224	Zn	0.500921	0.737568	0.005122
	Zn225	Zn	0.500184	0.238972	0.005770
	Zn226	Zn	0.752807	-0.011828	0.506895
	Zn227	Zn	0.249522	-0.013037	0.506337
	N228	N	0.416840	0.950237	0.685090
	N229	N	0.588620	0.024526	0.686121
	N230	N	0.586858	0.951050	0.328506
	N231	N	0.412993	0.022958	0.325420
	N232	N	0.677787	0.403912	0.968061
	N233	N	0.677504	0.574771	0.041426
	N234	N	0.322069	0.575200	0.967781
	N235	N	0.324576	0.404898	0.042431
	N236	N	0.964822	0.669785	0.416720
	N237	N	0.037471	0.667099	0.591962
	N238	N	0.965081	0.305026	0.595768
	N239	N	0.036927	0.308406	0.419005
	N240	N	0.963177	0.402394	0.683907
	N241	N	0.038350	0.571727	0.682081
	N242	N	0.963781	0.575295	0.326927
	N243	N	0.038577	0.405315	0.329706
	N244	N	0.412588	0.669603	0.968620
	N245	N	0.586908	0.666767	0.041515
	N246	N	0.588150	0.308650	0.969234
	N247	N	0.412190	0.307993	0.040981
	N248	N	0.680748	0.951839	0.420878
	N249	N	0.683229	0.023676	0.594959
	N250	N	0.321645	0.950484	0.593419
	N251	N	0.321095	0.023947	0.419854
	N252	N	0.913413	0.452887	0.185511
	N253	N	0.086030	0.526192	0.183068
	N254	N	0.086383	0.451426	0.827522
	N255	N	0.913552	0.525176	0.825091
	N256	N	0.178342	0.901702	0.468910
	N257	N	0.178146	0.071435	0.543728
	N258	N	0.824445	0.072606	0.469427
	N259	N	0.825401	0.902970	0.543759
	N260	N	0.464389	0.169512	0.917314
	N261	N	0.536714	0.167950	0.093476
	N262	N	0.464471	0.806861	0.093025
	N263	N	0.537458	0.808710	0.918865
	N264	N	0.464161	0.900519	0.184857
	N265	N	0.538788	0.070406	0.181555
	N266	N	0.464398	0.074300	0.827203
	N267	N	0.539687	0.905439	0.831474
	N268	N	0.913351	0.168099	0.470842
	N269	N	0.089575	0.167643	0.542127
	N270	N	0.087175	0.808722	0.468781
	N271	N	0.913510	0.806759	0.541391
	N272	N	0.180818	0.452616	0.918164
	N273	N	0.180713	0.525197	0.092075
	N274	N	0.820420	0.453276	0.092028
	N275	N	0.819967	0.526179	0.918217
	O276	O	-0.076391	0.066321	0.088790
	H277	H	-0.087599	0.075194	0.088008
	H278	H	-0.077499	0.059770	0.094742
	O279	O	0.508067	0.374080	0.427240
	H280	H	0.520750	0.360127	0.419579
	H281	H	0.517419	0.392044	0.431945
	O282	O	1.045155	-0.051235	-0.039317
	H283	H	1.047540	-0.048478	-0.039118
	H284	H	1.040698	-0.057816	-0.044928
	O285	O	-0.034748	0.884166	0.055684
	H286	H	-0.045126	0.879143	0.060936
	H287	H	-0.045198	0.881921	0.056549
	O288	O	0.356152	0.600582	0.444963
	H289	H	0.345871	0.603467	0.452125
	H290	H	0.346934	0.598949	0.437475
	O291	O	0.378862	0.347971	0.670693
	H292	H	0.401896	0.341392	0.668958
	H293	H	0.393288	0.337184	0.658071
	O294	O	1.040538	1.077188	1.032798
	H295	H	1.055172	1.080196	1.029311
	H296	H	1.045716	1.076165	1.037271
	O297	O	-0.048235	0.046804	-0.039921
	H298	H	-0.060975	0.052256	-0.051401
	H299	H	-0.045217	0.039217	-0.046605
	O300	O	0.641330	0.398286	0.393834
	H301	H	0.665162	0.392527	0.389438
	H302	H	0.633520	0.422236	0.404576
	O303	O	-0.074345	1.004719	0.838668
	H304	H	-0.077127	1.013793	0.837235
	H305	H	-0.075874	0.998292	0.838486
	O306	O	0.675733	0.429815	0.600866
	H307	H	0.679510	0.444245	0.609545
	H308	H	0.666380	0.447308	0.609332
	O309	O	1.087287	-0.050529	-0.082766
	H310	H	1.092775	-0.051677	-0.092314
	H311	H	1.080628	-0.047220	-0.084621
	O312	O	0.122362	0.020001	1.141814
	H313	H	0.122188	0.017603	1.154281
	H314	H	0.129992	0.023487	1.139562
	O315	O	-0.022357	1.134781	0.004889
	H316	H	-0.025317	1.142669	0.002685
	H317	H	-0.014920	1.135130	0.008000
	O318	O	0.342672	0.407691	0.578892
	H319	H	0.340895	0.392717	0.579481
	H320	H	0.335435	0.406018	0.588939
	O321	O	0.968441	0.027749	0.106891
	H322	H	0.966951	0.040275	0.103371
	H323	H	0.983752	0.031511	0.103231
	O324	O	0.513649	0.530263	0.376318
	H325	H	0.505708	0.536049	0.372557
	H326	H	0.521145	0.533615	0.379853
	O327	O	-0.294552	1.361419	0.459346
	H328	H	-0.296779	1.340547	0.455949
	H329	H	-0.280718	1.363481	0.444594
	O330	O	0.414536	0.529067	0.560756
	H331	H	0.398249	0.524009	0.583316
	H332	H	0.402614	0.515630	0.558395
	O333	O	0.017345	1.092125	1.077183
	H334	H	0.022756	1.105415	1.064990
	H335	H	0.021973	1.096712	1.071739
	O336	O	0.943468	0.980715	0.893702
	H337	H	0.949300	0.976539	0.897849
	H338	H	0.945923	0.978711	0.894268
	O339	O	0.572510	0.609776	0.358681
	H340	H	0.573660	0.603104	0.365581
	H341	H	0.566640	0.611127	0.359543
	O342	O	0.926335	0.021413	-0.114747
	H343	H	0.920030	0.036466	-0.127627
	H344	H	0.914608	0.013667	-0.115140
	O345	O	0.376229	0.331018	0.493663
	H346	H	0.370305	0.348617	0.487719
	H347	H	0.375748	0.326731	0.495560
	O348	O	1.556805	1.596255	0.648268
	H349	H	1.539672	1.597077	0.644985
	H350	H	1.550312	1.596870	0.627631
	O351	O	0.982313	0.966354	0.081646
	H352	H	0.989855	0.973895	0.087816
	H353	H	0.990875	0.960696	0.077481
	O354	O	0.443433	0.515078	0.562503
	H355	H	0.443879	0.496422	0.564456
	H356	H	0.455315	0.508906	0.572833
	O357	O	0.504202	0.403665	0.410435
	H358	H	0.498999	0.409942	0.415365
	H359	H	0.504984	0.391216	0.394868
	O360	O	-0.014828	-0.072465	0.004645
	H361	H	-0.021445	-0.072320	0.007904
	H362	H	-0.019028	-0.073157	0.015958
	O363	O	0.633654	0.502368	0.701415
	H364	H	0.648397	0.497137	0.716697
	H365	H	0.615489	0.530600	0.695442
	O366	O	0.566309	0.629767	0.577176
	H367	H	0.565751	0.626331	0.587083
	H368	H	0.576467	0.624321	0.567543
	O369	O	0.478480	0.426667	0.578184
	H370	H	0.485095	0.416716	0.568438
	H371	H	0.484773	0.426598	0.576962
	O372	O	0.413486	0.659358	0.390588
	H373	H	0.424395	0.673027	0.399990
	H374	H	0.415467	0.665664	0.397355
	O375	O	0.311837	0.510246	0.335434
	H376	H	0.318990	0.530361	0.339519
	H377	H	0.294343	0.516617	0.324343
	O378	O	0.357549	0.615885	0.504934
	H379	H	0.362120	0.609884	0.520110
	H380	H	0.358335	0.598556	0.498783
	O381	O	0.622002	0.540419	0.481460
	H382	H	0.627948	0.524953	0.464078
	H383	H	0.615421	0.538423	0.476932
	O384	O	-0.043156	1.049971	0.103615
	H385	H	-0.046711	1.047880	0.106466
	H386	H	-0.043493	1.048059	0.102357
	O387	O	0.464378	0.356860	1.662431
	H388	H	0.461647	0.349766	1.682595
	H389	H	0.468998	0.353983	1.645846
	O390	O	0.028780	1.000766	0.059684
	H391	H	0.033493	0.996530	0.066180
	H392	H	0.025823	0.996836	0.058392
	O393	O	1.088006	1.044124	0.041608
	H394	H	1.080261	1.030880	0.050720
	H395	H	1.096372	1.040031	0.038463
	O396	O	0.660881	0.325093	0.383444
	H397	H	0.651378	0.328501	0.375443
	H398	H	0.659937	0.318003	0.392759
	O399	O	0.058062	0.974891	0.946500
	H400	H	0.057446	0.978131	0.940045
	H401	H	0.061760	0.972826	0.950436
	O402	O	1.090750	0.965685	0.984251
	H403	H	1.088133	0.962047	0.997534
	H404	H	1.081760	0.957989	0.973578
	O405	O	0.537658	0.679191	0.428355
	H406	H	0.530220	0.688138	0.442657
	H407	H	0.540599	0.681033	0.425947
