data_Molecule from HDF5

_cell_length_a		16.295515
_cell_length_b		16.243009
_cell_length_c		16.194378
_cell_angle_alpha	89.428367
_cell_angle_beta	90.026005
_cell_angle_gamma	89.875434
_symmetry_space_group_name_H-M	'P 1'
_symmetry_Int_Tables_number		1

loop_
	_symmetry_equiv_pos_as_xyz
	x,y,z

loop_
	_atom_site_label
	_atom_site_type_symbol
	_atom_site_fract_x
	_atom_site_fract_y
	_atom_site_fract_z
	H0	H	0.400451	0.835177	0.714974
	H1	H	0.601156	0.161020	0.713574
	H2	H	0.600514	0.834815	0.284253
	H3	H	0.396573	0.159328	0.279108
	H4	H	0.716294	0.398933	0.833939
	H5	H	0.715060	0.597724	0.159002
	H6	H	0.281362	0.604694	0.834386
	H7	H	0.282506	0.395723	0.159545
	H8	H	0.837444	0.717654	0.393545
	H9	H	0.160249	0.714459	0.599087
	H10	H	0.837003	0.280530	0.599751
	H11	H	0.161501	0.280295	0.395768
	H12	H	0.836941	0.397789	0.713651
	H13	H	0.161526	0.597964	0.711357
	H14	H	0.836221	0.601061	0.279709
	H15	H	0.161307	0.397589	0.279971
	H16	H	0.398666	0.717186	0.833888
	H17	H	0.598861	0.711219	0.160181
	H18	H	0.600755	0.284728	0.833253
	H19	H	0.397224	0.279516	0.159072
	H20	H	0.714931	0.834998	0.399876
	H21	H	0.718261	0.159936	0.600662
	H22	H	0.283313	0.835204	0.601702
	H23	H	0.280947	0.159424	0.393474
	H24	H	0.897845	0.337619	0.215503
	H25	H	0.100373	0.662312	0.211145
	H26	H	0.099363	0.334488	0.784617
	H27	H	0.898846	0.660966	0.777790
	H28	H	0.218565	0.894484	0.336572
	H29	H	0.216479	0.097893	0.660894
	H30	H	0.781667	0.101590	0.336075
	H31	H	0.783790	0.894597	0.661577
	H32	H	0.336918	0.216949	0.894807
	H33	H	0.662300	0.213561	0.097129
	H34	H	0.337461	0.780243	0.099516
	H35	H	0.661966	0.783767	0.897126
	H36	H	0.336579	0.896097	0.214018
	H37	H	0.662066	0.096607	0.212764
	H38	H	0.336102	0.100105	0.781491
	H39	H	0.662683	0.899929	0.784719
	H40	H	0.897256	0.215995	0.335522
	H41	H	0.100483	0.211601	0.661831
	H42	H	0.099693	0.783747	0.334545
	H43	H	0.898152	0.779020	0.660609
	H44	H	0.217661	0.337042	0.895556
	H45	H	0.216258	0.661581	0.097207
	H46	H	0.784929	0.336009	0.099198
	H47	H	0.782870	0.661569	0.892325
	H48	H	0.409736	0.114223	0.590947
	H49	H	0.606596	0.877488	0.590090
	H50	H	0.598241	0.115487	0.410190
	H51	H	0.414382	0.883506	0.407506
	H52	H	0.599949	0.410754	0.115218
	H53	H	0.588213	0.593794	0.879289
	H54	H	0.403563	0.587144	0.114250
	H55	H	0.404443	0.409145	0.878735
	H56	H	0.116356	0.598812	0.409029
	H57	H	0.882528	0.594592	0.582153
	H58	H	0.118686	0.397758	0.594242
	H59	H	0.885683	0.411207	0.407159
	H60	H	0.115041	0.401928	0.584904
	H61	H	0.886081	0.581183	0.584040
	H62	H	0.111059	0.583895	0.408156
	H63	H	0.883082	0.406037	0.404789
	H64	H	0.410189	0.585624	0.111620
	H65	H	0.594078	0.593762	0.877504
	H66	H	0.583944	0.410464	0.110620
	H67	H	0.408770	0.413339	0.881273
	H68	H	0.590139	0.116911	0.396107
	H69	H	0.583517	0.879934	0.605828
	H70	H	0.408270	0.113144	0.584582
	H71	H	0.405804	0.882580	0.414353
	H72	H	0.906526	0.612658	0.076146
	H73	H	0.087754	0.387112	0.080736
	H74	H	0.089872	0.616871	0.897084
	H75	H	0.912027	0.382065	0.901372
	H76	H	0.087412	0.901341	0.615518
	H77	H	0.087679	0.081407	0.384473
	H78	H	0.904230	0.086926	0.616653
	H79	H	0.906282	0.908323	0.381914
	H80	H	0.619888	0.096472	0.896469
	H81	H	0.378312	0.097856	0.094449
	H82	H	0.618958	0.894946	0.089578
	H83	H	0.383911	0.902862	0.915988
	H84	H	0.611673	0.909749	0.083262
	H85	H	0.387157	0.091911	0.076633
	H86	H	0.614087	0.097475	0.914409
	H87	H	0.385374	0.917719	0.904569
	H88	H	0.909539	0.084772	0.613993
	H89	H	0.084578	0.095118	0.381427
	H90	H	0.094226	0.905505	0.615769
	H91	H	0.906173	0.908207	0.381200
	H92	H	0.084852	0.612846	0.906689
	H93	H	0.098932	0.380112	0.088936
	H94	H	0.897929	0.619819	0.090930
	H95	H	0.908605	0.384915	0.912905
	H96	H	0.403577	0.116349	0.588677
	H97	H	0.582823	0.888429	0.578363
	H98	H	0.583117	0.111351	0.409695
	H99	H	0.404773	0.878245	0.403611
	H100	H	0.591670	0.396026	0.116443
	H101	H	0.592179	0.588818	0.879491
	H102	H	0.409083	0.592473	0.114153
	H103	H	0.411121	0.407029	0.880568
	H104	H	0.117598	0.589856	0.395127
	H105	H	0.880686	0.589124	0.593953
	H106	H	0.115130	0.408291	0.593414
	H107	H	0.884087	0.405515	0.409378
	H108	H	0.915704	0.615801	0.092151
	H109	H	0.085558	0.382367	0.095143
	H110	H	0.096226	0.615752	0.907048
	H111	H	0.901094	0.379273	0.905798
	H112	H	0.087797	0.908753	0.611819
	H113	H	0.097380	0.089941	0.379040
	H114	H	0.909552	0.091628	0.616072
	H115	H	0.905637	0.909210	0.381300
	H116	H	0.612790	0.081330	0.905098
	H117	H	0.385310	0.078851	0.092146
	H118	H	0.617033	0.908964	0.099617
	H119	H	0.378463	0.901112	0.897904
	C120	C	0.377704	0.006792	0.619457
	C121	C	0.621381	0.989459	0.620756
	C122	C	0.620284	0.006639	0.377321
	C123	C	0.377297	0.988659	0.376679
	C124	C	0.621271	0.377211	0.005701
	C125	C	0.620853	0.620290	0.987101
	C126	C	0.377900	0.620078	0.005651
	C127	C	0.377988	0.378412	0.987955
	C128	C	0.007700	0.621604	0.373859
	C129	C	0.990133	0.618272	0.616759
	C130	C	0.008597	0.374057	0.620518
	C131	C	0.991257	0.377168	0.376498
	C132	C	0.877628	0.508182	0.117858
	C133	C	0.120728	0.490766	0.117776
	C134	C	0.120827	0.507505	0.874567
	C135	C	0.877407	0.489745	0.874848
	C136	C	0.120074	0.875948	0.506791
	C137	C	0.120404	0.118374	0.489519
	C138	C	0.877420	0.119238	0.507659
	C139	C	0.876967	0.876750	0.489268
	C140	C	0.507960	0.121558	0.874888
	C141	C	0.490705	0.119479	0.118344
	C142	C	0.508265	0.875008	0.120437
	C143	C	0.490533	0.878156	0.877247
	C144	C	0.379714	0.884154	0.677051
	C145	C	0.620909	0.112137	0.676117
	C146	C	0.619835	0.883608	0.322241
	C147	C	0.377357	0.110761	0.318102
	C148	C	0.677891	0.378793	0.882865
	C149	C	0.676709	0.617491	0.110427
	C150	C	0.320428	0.622376	0.883069
	C151	C	0.320882	0.376944	0.110711
	C152	C	0.885793	0.678930	0.374141
	C153	C	0.111953	0.675646	0.617445
	C154	C	0.885822	0.318499	0.619513
	C155	C	0.113081	0.319601	0.376848
	C156	C	0.885740	0.376747	0.676263
	C157	C	0.112706	0.617406	0.673492
	C158	C	0.885076	0.620817	0.317597
	C159	C	0.113027	0.378103	0.319240
	C160	C	0.378560	0.678699	0.882833
	C161	C	0.619059	0.674134	0.110845
	C162	C	0.620183	0.322055	0.882513
	C163	C	0.378153	0.319276	0.110489
	C164	C	0.676809	0.883888	0.379695
	C165	C	0.678960	0.111418	0.619777
	C166	C	0.321530	0.884147	0.620512
	C167	C	0.319496	0.110565	0.374909
	C168	C	0.878828	0.385905	0.175974
	C169	C	0.119598	0.613255	0.173202
	C170	C	0.119631	0.384096	0.820787
	C171	C	0.878680	0.612230	0.816415
	C172	C	0.178808	0.876045	0.384759
	C173	C	0.177426	0.117200	0.612382
	C174	C	0.820478	0.120190	0.384758
	C175	C	0.821419	0.875679	0.612423
	C176	C	0.385621	0.178442	0.875452
	C177	C	0.613384	0.175248	0.117004
	C178	C	0.386207	0.818317	0.119381
	C179	C	0.613233	0.821839	0.878136
	C180	C	0.385761	0.875983	0.176620
	C181	C	0.613222	0.117302	0.174871
	C182	C	0.385325	0.120366	0.818811
	C183	C	0.613667	0.879938	0.822019
	C184	C	0.877874	0.177460	0.384697
	C185	C	0.119915	0.174016	0.612684
	C186	C	0.119767	0.820654	0.383647
	C187	C	0.878530	0.818017	0.611817
	C188	C	0.178659	0.385427	0.876109
	C189	C	0.177740	0.612930	0.116995
	C190	C	0.822212	0.385324	0.118597
	C191	C	0.820964	0.612379	0.873690
	C192	C	0.400596	0.092460	0.595092
	C193	C	0.597809	0.904207	0.598072
	C194	C	0.597290	0.092195	0.398871
	C195	C	0.401347	0.903484	0.401312
	C196	C	0.598340	0.399361	0.091768
	C197	C	0.598140	0.598604	0.901132
	C198	C	0.401014	0.595440	0.091204
	C199	C	0.401437	0.402780	0.902493
	C200	C	0.092771	0.597911	0.397255
	C201	C	0.905120	0.595063	0.593634
	C202	C	0.094037	0.396221	0.597567
	C203	C	0.906398	0.400826	0.400203
	C204	C	0.900044	0.593817	0.093458
	C205	C	0.097603	0.405397	0.094961
	C206	C	0.097080	0.593072	0.896908
	C207	C	0.900497	0.404256	0.899472
	C208	C	0.096649	0.898682	0.592223
	C209	C	0.096907	0.095506	0.404061
	C210	C	0.900878	0.094942	0.593205
	C211	C	0.899508	0.901379	0.403642
	C212	C	0.593259	0.098349	0.898387
	C213	C	0.405658	0.096300	0.094874
	C214	C	0.593635	0.897852	0.097605
	C215	C	0.404959	0.900661	0.899606
	Zn216	Zn	0.499272	-0.001383	0.748121
	Zn217	Zn	0.498940	-0.002972	0.248567
	Zn218	Zn	0.749117	0.498585	-0.003357
	Zn219	Zn	0.249093	0.499432	-0.003530
	Zn220	Zn	-0.001231	0.748550	0.496865
	Zn221	Zn	-0.000310	0.246677	0.498341
	Zn222	Zn	-0.000083	0.497788	0.746586
	Zn223	Zn	-0.001146	0.499696	0.246337
	Zn224	Zn	0.499392	0.748095	-0.003001
	Zn225	Zn	0.499559	0.249378	-0.003353
	Zn226	Zn	0.748936	-0.002072	0.498701
	Zn227	Zn	0.248546	-0.002658	0.498422
	N228	N	0.413816	0.961592	0.676797
	N229	N	0.585722	0.035296	0.676871
	N230	N	0.585363	0.960972	0.320486
	N231	N	0.412722	0.033771	0.319024
	N232	N	0.678665	0.412158	0.960545
	N233	N	0.678261	0.584955	0.032374
	N234	N	0.319987	0.586526	0.960283
	N235	N	0.320545	0.413026	0.033445
	N236	N	0.963035	0.679414	0.408420
	N237	N	0.034821	0.676215	0.582809
	N238	N	0.963085	0.316780	0.585713
	N239	N	0.036262	0.318923	0.411647
	N240	N	0.963120	0.410471	0.677251
	N241	N	0.036073	0.582228	0.673134
	N242	N	0.962008	0.585988	0.317046
	N243	N	0.036178	0.413301	0.318884
	N244	N	0.413317	0.677697	0.960212
	N245	N	0.585112	0.676068	0.033156
	N246	N	0.585688	0.320744	0.960076
	N247	N	0.412873	0.319978	0.033291
	N248	N	0.677353	0.961230	0.413154
	N249	N	0.679517	0.034035	0.586155
	N250	N	0.320341	0.961357	0.585202
	N251	N	0.319462	0.033579	0.410749
	N252	N	0.912428	0.463398	0.175971
	N253	N	0.084780	0.536162	0.173943
	N254	N	0.084465	0.461176	0.819511
	N255	N	0.913412	0.535037	0.817249
	N256	N	0.179307	0.909510	0.462423
	N257	N	0.178066	0.083506	0.534774
	N258	N	0.819739	0.084973	0.462271
	N259	N	0.820478	0.911683	0.535277
	N260	N	0.462914	0.179498	0.909359
	N261	N	0.536173	0.176738	0.082804
	N262	N	0.463398	0.817356	0.085306
	N263	N	0.535641	0.820473	0.911803
	N264	N	0.462779	0.910543	0.177572
	N265	N	0.535904	0.083229	0.175880
	N266	N	0.462642	0.085887	0.818139
	N267	N	0.536554	0.914272	0.821350
	N268	N	0.912505	0.176895	0.462163
	N269	N	0.085121	0.174759	0.535232
	N270	N	0.084016	0.820544	0.460434
	N271	N	0.912188	0.818493	0.534065
	N272	N	0.179526	0.463220	0.908816
	N273	N	0.178587	0.535636	0.083195
	N274	N	0.821244	0.462669	0.083085
	N275	N	0.820004	0.535152	0.909249
	O276	O	-0.043569	-0.014514	-0.030510
	H277	H	-0.045485	-0.007487	-0.032198
	H278	H	-0.052625	-0.002919	-0.047457
	O279	O	0.479696	0.505607	0.350759
	H280	H	0.474120	0.500215	0.361059
	H281	H	0.488921	0.487217	0.347973
	O282	O	0.984172	0.086256	-0.041965
	H283	H	0.979345	0.092612	-0.046092
	H284	H	0.975767	0.101233	-0.053067
	O285	O	-0.041431	1.011500	0.045435
	H286	H	-0.051058	1.011658	0.048049
	H287	H	-0.045896	1.004790	0.043949
	O288	O	0.489659	0.493913	0.485399
	H289	H	0.491634	0.493032	0.487768
	H290	H	0.474527	0.487807	0.483647
	O291	O	0.536313	0.345240	0.344501
	H292	H	0.543335	0.335083	0.344763
	H293	H	0.556165	0.340969	0.323509
	O294	O	1.072683	1.076617	1.149546
	H295	H	1.081975	1.077791	1.167264
	H296	H	1.065855	1.088786	1.158073
	O297	O	0.091560	-0.039909	0.019708
	H298	H	0.081025	-0.042067	0.027576
	H299	H	0.100556	-0.042154	0.016872
	O300	O	0.598591	0.557804	0.582459
	H301	H	0.598580	0.557171	0.575847
	H302	H	0.588761	0.557885	0.580825
	O303	O	0.013269	1.023926	0.932592
	H304	H	0.003892	1.019254	0.932871
	H305	H	0.014627	1.029716	0.931570
	O306	O	0.537331	0.601502	0.525985
	H307	H	0.542130	0.600982	0.528100
	H308	H	0.525167	0.611888	0.526162
	O309	O	0.847961	-0.147904	0.129647
	H310	H	0.849394	-0.154125	0.142695
	H311	H	0.845326	-0.161701	0.135278
	O312	O	-0.005385	-0.080164	1.123209
	H313	H	-0.006512	-0.077572	1.143866
	H314	H	-0.013983	-0.091376	1.128080
	O315	O	0.451693	0.346371	0.590721
	H316	H	0.453316	0.327263	0.592517
	H317	H	0.458927	0.356668	0.598968
	O318	O	0.656868	0.386895	0.497953
	H319	H	0.668848	0.383064	0.502808
	H320	H	0.648049	0.388145	0.500614
	O321	O	0.490367	0.477255	0.587478
	H322	H	0.480684	0.477303	0.605722
	H323	H	0.484665	0.489806	0.569263
	O324	O	0.647407	0.547749	0.445684
	H325	H	0.657563	0.556035	0.439279
	H326	H	0.629650	0.563213	0.452014
	O327	O	0.078074	1.126739	1.133913
	H328	H	0.084562	1.131038	1.130564
	H329	H	0.078986	1.120802	1.129681
	O330	O	0.388231	0.385547	0.593942
	H331	H	0.385450	0.379675	0.593863
	H332	H	0.380213	0.383449	0.603887
	O333	O	0.082491	0.990983	0.992604
	H334	H	0.087979	0.985804	0.997614
	H335	H	0.079562	0.999922	0.993743
	O336	O	0.924425	1.059455	0.873429
	H337	H	0.924458	1.063061	0.876084
	H338	H	0.913174	1.051876	0.879024
	O339	O	0.527926	0.495984	0.386296
	H340	H	0.533192	0.491940	0.414413
	H341	H	0.528493	0.483889	0.376047
	O342	O	1.061911	-0.097980	0.071996
	H343	H	1.073961	-0.098600	0.069722
	H344	H	1.069420	-0.092558	0.061392
	O345	O	0.451527	0.452114	0.630521
	H346	H	0.445874	0.436036	0.630611
	H347	H	0.442154	0.444610	0.637307
	O348	O	0.972784	0.930624	0.873271
	H349	H	0.982552	0.926528	0.884072
	H350	H	0.966509	0.935101	0.877317
	O351	O	1.032074	1.110205	-0.073350
	H352	H	1.037734	1.099728	-0.071224
	H353	H	1.044940	1.108284	-0.091912
	O354	O	0.471833	0.467258	0.437359
	H355	H	0.461039	0.471467	0.431907
	H356	H	0.465212	0.448103	0.437251
	O357	O	0.620346	0.538709	0.628141
	H358	H	0.617365	0.540557	0.632261
	H359	H	0.623990	0.540555	0.642794
	O360	O	-0.043074	-0.151122	0.082549
	H361	H	-0.040090	-0.157462	0.089042
	H362	H	-0.040396	-0.156415	0.083892
	O363	O	0.419481	0.609913	0.390155
	H364	H	0.406093	0.610739	0.388971
	H365	H	0.409422	0.604510	0.369382
	O366	O	0.356184	0.562568	0.328997
	H367	H	0.366153	0.568783	0.320960
	H368	H	0.366143	0.547459	0.317987
	O369	O	0.425925	0.468818	0.361360
	H370	H	0.433963	0.463416	0.364191
	H371	H	0.435558	0.470457	0.362584
	O372	O	0.448975	0.429927	0.516124
	H373	H	0.445739	0.431789	0.505949
	H374	H	0.448838	0.431810	0.511461
	O375	O	0.585853	0.655678	0.528964
	H376	H	0.586089	0.664810	0.535263
	H377	H	0.582023	0.652411	0.529341
	O378	O	0.472546	0.561452	0.651963
	H379	H	0.466939	0.563876	0.644098
	H380	H	0.472725	0.563355	0.651373
	O381	O	0.420438	0.464179	0.512601
	H382	H	0.418507	0.470166	0.509158
	H383	H	0.420516	0.465400	0.503390
	O384	O	0.027154	0.970578	-0.111260
	H385	H	0.024445	0.969060	-0.101114
	H386	H	0.036529	0.976012	-0.118190
	O387	O	0.847756	0.075962	0.948817
	H388	H	0.848554	0.070701	0.938103
	H389	H	0.837161	0.075974	0.953005
	O390	O	-0.039676	1.076559	-0.015153
	H391	H	-0.027358	1.065117	-0.006947
	H392	H	-0.058195	1.067843	-0.030253
	O393	O	0.926257	0.878109	0.051851
	H394	H	0.911975	0.873952	0.056255
	H395	H	0.932342	0.864123	0.063288
	O396	O	0.519407	0.564263	0.377547
	H397	H	0.525337	0.572602	0.394480
	H398	H	0.532356	0.563221	0.374167
	O399	O	-0.031247	1.112390	1.082045
	H400	H	-0.026321	1.115349	1.089684
	H401	H	-0.033577	1.110465	1.079347
	O402	O	1.141105	0.975335	0.898632
	H403	H	1.132021	0.967509	0.885678
	H404	H	1.135958	0.978838	0.889516
	O405	O	0.476832	0.443877	0.595010
	H406	H	0.479908	0.441718	0.593211
	H407	H	0.477510	0.457814	0.597729
