data_Molecule from HDF5

_cell_length_a		16.441114
_cell_length_b		16.256796
_cell_length_c		16.172321
_cell_angle_alpha	90.246242
_cell_angle_beta	89.933823
_cell_angle_gamma	90.111747
_symmetry_space_group_name_H-M	'P 1'
_symmetry_Int_Tables_number		1

loop_
	_symmetry_equiv_pos_as_xyz
	x,y,z

loop_
	_atom_site_label
	_atom_site_type_symbol
	_atom_site_fract_x
	_atom_site_fract_y
	_atom_site_fract_z
	H0	H	0.396536	0.827331	0.716579
	H1	H	0.598132	0.152677	0.717342
	H2	H	0.598735	0.827835	0.283786
	H3	H	0.399648	0.153719	0.286031
	H4	H	0.717113	0.383815	0.837599
	H5	H	0.717573	0.593793	0.161455
	H6	H	0.281291	0.591725	0.838394
	H7	H	0.279416	0.384477	0.162177
	H8	H	0.839317	0.709167	0.395616
	H9	H	0.159259	0.711526	0.604193
	H10	H	0.838566	0.270011	0.602319
	H11	H	0.161457	0.270425	0.398776
	H12	H	0.838005	0.388951	0.717895
	H13	H	0.160279	0.592742	0.719215
	H14	H	0.838015	0.586821	0.282741
	H15	H	0.161713	0.386328	0.280996
	H16	H	0.396259	0.705543	0.837968
	H17	H	0.599312	0.706069	0.163037
	H18	H	0.598686	0.273112	0.837218
	H19	H	0.400728	0.277087	0.164918
	H20	H	0.719103	0.829759	0.393632
	H21	H	0.717482	0.152103	0.604893
	H22	H	0.275086	0.831906	0.609354
	H23	H	0.281829	0.152836	0.399070
	H24	H	0.901846	0.323888	0.212301
	H25	H	0.099914	0.651063	0.216381
	H26	H	0.098223	0.325818	0.783441
	H27	H	0.898643	0.652580	0.783953
	H28	H	0.218967	0.886947	0.339104
	H29	H	0.217884	0.097583	0.662043
	H30	H	0.783189	0.092402	0.337223
	H31	H	0.779850	0.885914	0.662463
	H32	H	0.336719	0.205186	0.902935
	H33	H	0.659911	0.209411	0.103594
	H34	H	0.339571	0.767870	0.106172
	H35	H	0.659589	0.770048	0.896633
	H36	H	0.337990	0.888996	0.219802
	H37	H	0.660636	0.091134	0.218038
	H38	H	0.336717	0.090061	0.783649
	H39	H	0.659753	0.887084	0.780746
	H40	H	0.903088	0.200793	0.335604
	H41	H	0.099216	0.206523	0.663204
	H42	H	0.099905	0.774814	0.336340
	H43	H	0.896894	0.773269	0.662774
	H44	H	0.216983	0.326803	0.895818
	H45	H	0.219825	0.649107	0.105324
	H46	H	0.779838	0.327692	0.102659
	H47	H	0.779811	0.650741	0.895279
	H48	H	0.399773	0.106920	0.585741
	H49	H	0.596991	0.872142	0.590226
	H50	H	0.586795	0.103040	0.417049
	H51	H	0.406018	0.876358	0.415442
	H52	H	0.601957	0.406005	0.117503
	H53	H	0.584874	0.571731	0.887308
	H54	H	0.410845	0.576058	0.114252
	H55	H	0.413301	0.392792	0.883575
	H56	H	0.113280	0.579603	0.405610
	H57	H	0.891193	0.571104	0.584633
	H58	H	0.115189	0.394427	0.590553
	H59	H	0.889579	0.401017	0.412842
	H60	H	0.110427	0.400412	0.586917
	H61	H	0.882231	0.580151	0.602227
	H62	H	0.115084	0.585577	0.408756
	H63	H	0.883509	0.397625	0.398299
	H64	H	0.410127	0.579834	0.116651
	H65	H	0.586399	0.586877	0.881700
	H66	H	0.582195	0.405764	0.112232
	H67	H	0.399535	0.394910	0.881167
	H68	H	0.600997	0.109050	0.413068
	H69	H	0.586442	0.874467	0.593458
	H70	H	0.408659	0.109355	0.600714
	H71	H	0.406574	0.873933	0.409030
	H72	H	0.906440	0.604257	0.088149
	H73	H	0.085032	0.374764	0.086683
	H74	H	0.091033	0.602221	0.917780
	H75	H	0.905264	0.372157	0.905633
	H76	H	0.087849	0.902557	0.615810
	H77	H	0.091404	0.078300	0.383875
	H78	H	0.908693	0.086353	0.618274
	H79	H	0.911553	0.904163	0.386662
	H80	H	0.612340	0.080044	0.909289
	H81	H	0.382915	0.089161	0.092394
	H82	H	0.615064	0.901612	0.098815
	H83	H	0.388197	0.904884	0.912479
	H84	H	0.613294	0.890753	0.086737
	H85	H	0.387957	0.079651	0.088147
	H86	H	0.613136	0.081889	0.908063
	H87	H	0.382121	0.897000	0.901072
	H88	H	0.901436	0.079156	0.618496
	H89	H	0.091790	0.080667	0.383029
	H90	H	0.088163	0.902230	0.615996
	H91	H	0.909915	0.896488	0.383737
	H92	H	0.097774	0.606831	0.909150
	H93	H	0.095688	0.372873	0.084127
	H94	H	0.907164	0.605295	0.093052
	H95	H	0.912413	0.376104	0.909534
	H96	H	0.417057	0.100779	0.587189
	H97	H	0.589524	0.876855	0.582426
	H98	H	0.589971	0.108634	0.402162
	H99	H	0.412256	0.876671	0.411773
	H100	H	0.590564	0.389181	0.120712
	H101	H	0.598352	0.577292	0.880728
	H102	H	0.406989	0.577231	0.117085
	H103	H	0.407902	0.405372	0.886353
	H104	H	0.112375	0.580603	0.412023
	H105	H	0.884010	0.591771	0.584993
	H106	H	0.113255	0.400471	0.594601
	H107	H	0.883795	0.386059	0.409883
	H108	H	0.910742	0.603254	0.090125
	H109	H	0.091240	0.370210	0.094847
	H110	H	0.086274	0.603701	0.906554
	H111	H	0.904919	0.375115	0.914170
	H112	H	0.087996	0.903700	0.616060
	H113	H	0.094036	0.079565	0.383418
	H114	H	0.910894	0.076670	0.614351
	H115	H	0.904001	0.901534	0.383284
	H116	H	0.612512	0.082391	0.910525
	H117	H	0.383730	0.079811	0.098713
	H118	H	0.607615	0.905513	0.084820
	H119	H	0.384067	0.890175	0.914584
	C120	C	0.376934	-0.000768	0.622661
	C121	C	0.620714	0.981555	0.620982
	C122	C	0.621620	-0.000575	0.379121
	C123	C	0.378369	0.982729	0.381294
	C124	C	0.620750	0.368993	0.008801
	C125	C	0.620423	0.610356	0.990609
	C126	C	0.378379	0.609006	0.008942
	C127	C	0.377580	0.367978	0.991648
	C128	C	0.007557	0.610982	0.377963
	C129	C	0.991266	0.612395	0.622129
	C130	C	0.007050	0.367774	0.621562
	C131	C	0.992197	0.365139	0.377106
	C132	C	0.878510	0.496990	0.120510
	C133	C	0.121491	0.479323	0.120782
	C134	C	0.121327	0.497311	0.879027
	C135	C	0.877427	0.481374	0.878812
	C136	C	0.119827	0.870656	0.508943
	C137	C	0.121421	0.111599	0.491092
	C138	C	0.878032	0.110470	0.509034
	C139	C	0.877167	0.869007	0.491606
	C140	C	0.506262	0.111400	0.879343
	C141	C	0.490854	0.113247	0.123812
	C142	C	0.506836	0.868033	0.122386
	C143	C	0.490874	0.866707	0.878064
	C144	C	0.376786	0.876792	0.679406
	C145	C	0.618986	0.104065	0.679152
	C146	C	0.619705	0.876943	0.321438
	C147	C	0.379577	0.104881	0.324235
	C148	C	0.677975	0.366812	0.886256
	C149	C	0.678481	0.612111	0.113052
	C150	C	0.320195	0.610277	0.886971
	C151	C	0.319566	0.367273	0.113979
	C152	C	0.887009	0.669090	0.376989
	C153	C	0.111584	0.671417	0.622808
	C154	C	0.886270	0.310127	0.620928
	C155	C	0.113280	0.308548	0.378206
	C156	C	0.886011	0.368977	0.678827
	C157	C	0.112062	0.612492	0.680251
	C158	C	0.886401	0.608387	0.320808
	C159	C	0.113341	0.366636	0.319984
	C160	C	0.377331	0.667060	0.886845
	C161	C	0.619834	0.667943	0.113764
	C162	C	0.619402	0.310994	0.886210
	C163	C	0.379634	0.313412	0.115513
	C164	C	0.679342	0.877778	0.376286
	C165	C	0.678339	0.103616	0.623163
	C166	C	0.316492	0.878903	0.625565
	C167	C	0.321015	0.104389	0.380685
	C168	C	0.880881	0.373711	0.175570
	C169	C	0.120024	0.602230	0.178100
	C170	C	0.118796	0.374786	0.821738
	C171	C	0.878822	0.603700	0.821835
	C172	C	0.179434	0.868376	0.387312
	C173	C	0.179064	0.115125	0.613243
	C174	C	0.821552	0.110727	0.386198
	C175	C	0.819236	0.867961	0.613756
	C176	C	0.384964	0.167342	0.881752
	C177	C	0.612054	0.170300	0.122918
	C178	C	0.386947	0.808679	0.124097
	C179	C	0.611152	0.808647	0.877170
	C180	C	0.386151	0.868766	0.180828
	C181	C	0.612225	0.111744	0.180409
	C182	C	0.385067	0.109798	0.822684
	C183	C	0.611547	0.867156	0.819613
	C184	C	0.881202	0.164945	0.385165
	C185	C	0.119688	0.169129	0.614100
	C186	C	0.120171	0.812484	0.386056
	C187	C	0.877382	0.811535	0.614002
	C188	C	0.177941	0.375367	0.877724
	C189	C	0.179714	0.601190	0.123106
	C190	C	0.820072	0.375496	0.121051
	C191	C	0.819303	0.602595	0.876946
	C192	C	0.401430	0.083718	0.598318
	C193	C	0.597635	0.896671	0.596047
	C194	C	0.599125	0.084568	0.403537
	C195	C	0.401464	0.897745	0.405172
	C196	C	0.598061	0.393284	0.094598
	C197	C	0.596759	0.585839	0.905586
	C198	C	0.402400	0.584822	0.093878
	C199	C	0.400380	0.390810	0.905992
	C200	C	0.091512	0.588402	0.401889
	C201	C	0.907539	0.588102	0.597650
	C202	C	0.091241	0.391483	0.597583
	C203	C	0.907556	0.388198	0.400260
	C204	C	0.901432	0.582148	0.097244
	C205	C	0.097792	0.394590	0.095879
	C206	C	0.098441	0.582415	0.903885
	C207	C	0.900657	0.396373	0.902763
	C208	C	0.095168	0.895528	0.593773
	C209	C	0.098944	0.086813	0.405642
	C210	C	0.900559	0.087524	0.594757
	C211	C	0.901348	0.893657	0.406598
	C212	C	0.590785	0.088217	0.902513
	C213	C	0.406659	0.089648	0.100088
	C214	C	0.590362	0.892315	0.097368
	C215	C	0.406682	0.890407	0.902559
	Zn216	Zn	0.498520	-0.011125	0.749491
	Zn217	Zn	0.499270	-0.009177	0.252399
	Zn218	Zn	0.748530	0.489566	-0.000704
	Zn219	Zn	0.250164	0.488644	0.000413
	Zn220	Zn	-0.000816	0.741842	0.500227
	Zn221	Zn	-0.000094	0.237037	0.499938
	Zn222	Zn	-0.000680	0.490105	0.751570
	Zn223	Zn	0.000258	0.487875	0.248381
	Zn224	Zn	0.498415	0.737489	-0.000005
	Zn225	Zn	0.499384	0.241813	0.000872
	Zn226	Zn	0.749652	-0.009598	0.500079
	Zn227	Zn	0.248781	-0.008831	0.501682
	N228	N	0.413937	0.952483	0.677405
	N229	N	0.583842	0.027257	0.678010
	N230	N	0.584363	0.953505	0.323108
	N231	N	0.414693	0.028232	0.324507
	N232	N	0.678763	0.402210	0.963613
	N233	N	0.679208	0.577220	0.035464
	N234	N	0.320562	0.574892	0.963975
	N235	N	0.317955	0.400315	0.035915
	N236	N	0.963259	0.670991	0.411733
	N237	N	0.035440	0.671602	0.587483
	N238	N	0.962633	0.309218	0.585997
	N239	N	0.036982	0.307687	0.413087
	N240	N	0.961916	0.404239	0.678926
	N241	N	0.036384	0.576521	0.679860
	N242	N	0.962333	0.572969	0.321142
	N243	N	0.036930	0.401005	0.319268
	N244	N	0.412997	0.666415	0.963674
	N245	N	0.584512	0.667167	0.036779
	N246	N	0.584569	0.312311	0.963480
	N247	N	0.415170	0.313709	0.038540
	N248	N	0.680828	0.954986	0.411193
	N249	N	0.679702	0.026433	0.587992
	N250	N	0.316302	0.956078	0.591039
	N251	N	0.320192	0.027310	0.415446
	N252	N	0.916355	0.450312	0.175443
	N253	N	0.084847	0.525495	0.177027
	N254	N	0.084368	0.451742	0.822258
	N255	N	0.914408	0.527172	0.823054
	N256	N	0.179255	0.903759	0.464660
	N257	N	0.180200	0.079692	0.535855
	N258	N	0.819105	0.077798	0.464393
	N259	N	0.819069	0.903000	0.536468
	N260	N	0.461448	0.168430	0.916283
	N261	N	0.535517	0.171480	0.088615
	N262	N	0.462887	0.808096	0.088499
	N263	N	0.535095	0.808386	0.912891
	N264	N	0.461702	0.905057	0.179883
	N265	N	0.535850	0.077149	0.181086
	N266	N	0.461588	0.075823	0.821082
	N267	N	0.535440	0.902085	0.819753
	N268	N	0.915543	0.165047	0.462624
	N269	N	0.084784	0.167151	0.537176
	N270	N	0.083850	0.813852	0.462717
	N271	N	0.912541	0.812068	0.536975
	N272	N	0.179621	0.452642	0.912718
	N273	N	0.180821	0.523777	0.088296
	N274	N	0.818369	0.453224	0.087515
	N275	N	0.818371	0.525610	0.911793
	O276	O	0.583843	0.613468	0.434858
	H277	H	0.583949	0.598576	0.431568
	H278	H	0.599146	0.632190	0.445839
	O279	O	0.573351	0.573660	0.562233
	H280	H	0.556256	0.574839	0.559548
	H281	H	0.574103	0.585730	0.568043
	O282	O	0.956445	0.040212	0.907027
	H283	H	0.934281	0.042880	0.905188
	H284	H	0.948654	0.035097	0.898556
	O285	O	0.518017	0.354011	0.532478
	H286	H	0.506815	0.350953	0.542031
	H287	H	0.507480	0.361057	0.548002
	O288	O	1.022839	0.985984	1.081541
	H289	H	1.019760	0.984049	1.077117
	H290	H	1.013328	0.987586	1.078985
	O291	O	-0.008811	0.858086	-0.016095
	H292	H	-0.020595	0.850952	-0.003826
	H293	H	-0.012820	0.865657	-0.004040
	O294	O	0.425869	0.507682	0.684306
	H295	H	0.430613	0.511819	0.679634
	H296	H	0.421112	0.497528	0.686885
	O297	O	0.454980	0.438279	0.368176
	H298	H	0.449297	0.437833	0.367757
	H299	H	0.457323	0.428753	0.368358
	O300	O	0.439093	0.636642	0.496719
	H301	H	0.436197	0.635224	0.486035
	H302	H	0.429006	0.626606	0.502106
	O303	O	0.517294	0.550426	0.365535
	H304	H	0.526677	0.537543	0.382909
	H305	H	0.515017	0.551269	0.348328
	O306	O	0.508553	0.432734	0.491473
	H307	H	0.522490	0.436467	0.502769
	H308	H	0.507064	0.439092	0.498503
	O309	O	0.475394	0.390733	0.492272
	H310	H	0.495906	0.391337	0.483670
	H311	H	0.478530	0.389200	0.481728
	O312	O	0.087098	-0.194113	-0.123648
	H313	H	0.080065	-0.210692	-0.127227
	H314	H	0.107368	-0.187731	-0.101358
	O315	O	0.400176	0.463251	0.350631
	H316	H	0.403181	0.464572	0.347520
	H317	H	0.399492	0.459341	0.357355
	O318	O	0.134711	0.906317	0.847818
	H319	H	0.134747	0.881814	0.842666
	H320	H	0.151350	0.906273	0.837478
	O321	O	0.333629	0.633240	0.347006
	H322	H	0.325948	0.625341	0.324681
	H323	H	0.327070	0.655763	0.343710
	O324	O	0.094772	1.118853	0.017770
	H325	H	0.076768	1.118070	0.012352
	H326	H	0.100469	1.123387	0.025453
	O327	O	0.428217	0.601272	0.527454
	H328	H	0.427440	0.599875	0.530180
	H329	H	0.422690	0.594259	0.527866
	O330	O	-0.007458	-0.181692	1.039101
	H331	H	-0.014544	-0.178445	1.044718
	H332	H	-0.009380	-0.186762	1.035931
	O333	O	0.061469	0.119592	1.053735
	H334	H	0.046541	0.123337	1.047961
	H335	H	0.072834	0.115712	1.044970
	O336	O	0.635452	0.458744	0.402276
	H337	H	0.637675	0.459759	0.397334
	H338	H	0.636104	0.440534	0.406047
	O339	O	0.900418	0.086964	-0.009304
	H340	H	0.887540	0.085775	0.000854
	H341	H	0.905565	0.084950	-0.029250
	O342	O	0.234176	-0.372733	0.358037
	H343	H	0.226926	-0.378900	0.358047
	H344	H	0.230903	-0.382178	0.359517
	O345	O	0.829992	-0.008450	0.925995
	H346	H	0.825104	-0.010333	0.925548
	H347	H	0.831148	-0.010310	0.916243
	O348	O	0.890855	1.120405	-0.149195
	H349	H	0.904846	1.111688	-0.145021
	H350	H	0.882547	1.120258	-0.148774
	O351	O	0.427934	0.478571	0.564694
	H352	H	0.429588	0.478549	0.568692
	H353	H	0.425480	0.479508	0.560793
	O354	O	0.997970	0.126561	1.046589
	H355	H	0.995394	0.125217	1.042581
	H356	H	0.996481	0.128293	1.043730
	O357	O	0.361400	0.318271	0.631519
	H358	H	0.361720	0.322289	0.640124
	H359	H	0.357597	0.307342	0.623414
	O360	O	0.586496	0.682020	0.470584
	H361	H	0.573003	0.681158	0.490055
	H362	H	0.598609	0.685314	0.471206
	O363	O	0.035573	1.108081	0.887858
	H364	H	0.041418	1.109918	0.881780
	H365	H	0.023398	1.117240	0.899914
	O366	O	0.601495	0.518229	0.663196
	H367	H	0.589190	0.524002	0.655897
	H368	H	0.600638	0.525174	0.655338
	O369	O	-0.172006	0.901407	0.095055
	H370	H	-0.166113	0.884998	0.097079
	H371	H	-0.172440	0.888919	0.103725
	O372	O	0.426880	0.436418	0.403485
	H373	H	0.420893	0.437453	0.398853
	H374	H	0.424954	0.438671	0.397195
	O375	O	0.604393	0.611349	0.596295
	H376	H	0.606269	0.611574	0.598801
	H377	H	0.603742	0.613933	0.583224
	O378	O	0.904952	1.086522	0.099514
	H379	H	0.906911	1.069934	0.090761
	H380	H	0.900462	1.087143	0.105224
	O381	O	1.073324	-0.044518	-0.100455
	H382	H	1.080753	-0.047143	-0.091844
	H383	H	1.065702	-0.036150	-0.098251
	O384	O	1.065296	1.119281	0.029260
	H385	H	1.058770	1.117835	0.039776
	H386	H	1.068412	1.113482	0.011856
	O387	O	-0.379530	0.307356	0.311234
	H388	H	-0.383317	0.300314	0.322174
	H389	H	-0.367807	0.302539	0.308962
	O390	O	-0.043120	0.998846	-0.016266
	H391	H	-0.030178	1.004588	-0.005155
	H392	H	-0.049302	0.987284	-0.021690
	O393	O	1.093237	0.858282	0.961227
	H394	H	1.092969	0.868414	0.966093
	H395	H	1.095216	0.873387	0.972034
	O396	O	0.663746	0.456183	0.637782
	H397	H	0.664645	0.472314	0.648665
	H398	H	0.653926	0.456786	0.631839
	O399	O	0.066622	0.915644	1.038298
	H400	H	0.070520	0.910951	1.040694
	H401	H	0.071437	0.915922	1.051401
	O402	O	0.616883	0.461565	0.329153
	H403	H	0.609365	0.456231	0.324798
	H404	H	0.622199	0.456837	0.343507
	O405	O	0.909721	0.859747	-0.016441
	H406	H	0.912832	0.872078	-0.023557
	H407	H	0.909790	0.843343	-0.008166
	O408	O	0.889603	0.954251	0.133121
	H409	H	0.887676	0.948617	0.139143
	H410	H	0.877193	0.948231	0.126814
	O411	O	1.133424	-0.047218	1.123385
	H412	H	1.131443	-0.036760	1.131025
	H413	H	1.135376	-0.023814	1.110573
	O414	O	0.424267	0.550908	0.621088
	H415	H	0.422184	0.535926	0.605016
	H416	H	0.414166	0.552463	0.613462
	O417	O	0.502347	0.331673	0.582769
	H418	H	0.487223	0.329817	0.591414
	H419	H	0.513632	0.346833	0.588058
