data_Molecule from HDF5

_cell_length_a		16.632913
_cell_length_b		16.685175
_cell_length_c		16.593668
_cell_angle_alpha	90.007787
_cell_angle_beta	90.188372
_cell_angle_gamma	89.980210
_symmetry_space_group_name_H-M	'P 1'
_symmetry_Int_Tables_number		1

loop_
	_symmetry_equiv_pos_as_xyz
	x,y,z

loop_
	_atom_site_label
	_atom_site_type_symbol
	_atom_site_fract_x
	_atom_site_fract_y
	_atom_site_fract_z
	H0	H	0.393248	0.831522	0.745034
	H1	H	0.612111	0.135453	0.742744
	H2	H	0.610819	0.830063	0.293343
	H3	H	0.392702	0.136632	0.292763
	H4	H	0.726225	0.377273	0.865133
	H5	H	0.726413	0.589393	0.174824
	H6	H	0.283032	0.587703	0.863454
	H7	H	0.281723	0.376628	0.173509
	H8	H	0.852824	0.709476	0.407513
	H9	H	0.157350	0.706648	0.628228
	H10	H	0.846797	0.262749	0.624543
	H11	H	0.157153	0.259383	0.413582
	H12	H	0.846109	0.380893	0.738876
	H13	H	0.158087	0.589076	0.742295
	H14	H	0.850862	0.590901	0.294178
	H15	H	0.157918	0.374720	0.297511
	H16	H	0.396718	0.705031	0.864422
	H17	H	0.609257	0.703912	0.175501
	H18	H	0.611312	0.260000	0.865733
	H19	H	0.396638	0.260192	0.173695
	H20	H	0.729989	0.831949	0.405870
	H21	H	0.726858	0.136222	0.625209
	H22	H	0.276405	0.832484	0.629390
	H23	H	0.277742	0.137286	0.409585
	H24	H	0.896703	0.328910	0.242647
	H25	H	0.113440	0.635021	0.245027
	H26	H	0.104732	0.327223	0.800315
	H27	H	0.894910	0.636710	0.795491
	H28	H	0.225275	0.877033	0.364984
	H29	H	0.226176	0.091254	0.673130
	H30	H	0.782912	0.086704	0.362835
	H31	H	0.778119	0.873217	0.670996
	H32	H	0.352012	0.208335	0.908545
	H33	H	0.656821	0.207943	0.129249
	H34	H	0.349942	0.759240	0.126067
	H35	H	0.658768	0.760648	0.912944
	H36	H	0.349350	0.875520	0.242329
	H37	H	0.656828	0.091191	0.244336
	H38	H	0.352182	0.091176	0.793514
	H39	H	0.659437	0.876928	0.797471
	H40	H	0.895478	0.206230	0.364277
	H41	H	0.108302	0.203539	0.674974
	H42	H	0.112931	0.757794	0.366854
	H43	H	0.893481	0.756971	0.671470
	H44	H	0.222972	0.327703	0.915395
	H45	H	0.226983	0.637027	0.127045
	H46	H	0.780458	0.329581	0.127361
	H47	H	0.778783	0.636171	0.910761
	H48	H	0.422612	0.091796	0.607192
	H49	H	0.589065	0.872303	0.608336
	H50	H	0.592723	0.093148	0.432902
	H51	H	0.415565	0.873359	0.429322
	H52	H	0.590673	0.392966	0.131481
	H53	H	0.589212	0.568499	0.909591
	H54	H	0.415879	0.571783	0.131100
	H55	H	0.409436	0.393863	0.905579
	H56	H	0.115697	0.572029	0.434731
	H57	H	0.892622	0.569489	0.606099
	H58	H	0.115088	0.389906	0.609646
	H59	H	0.896393	0.398312	0.438559
	H60	H	0.113151	0.393812	0.607794
	H61	H	0.892956	0.571599	0.605811
	H62	H	0.112174	0.568423	0.434745
	H63	H	0.891794	0.400396	0.424354
	H64	H	0.415616	0.570949	0.130316
	H65	H	0.590308	0.575634	0.907467
	H66	H	0.593986	0.398904	0.131134
	H67	H	0.417585	0.399537	0.910108
	H68	H	0.591489	0.093763	0.429865
	H69	H	0.590343	0.873263	0.603795
	H70	H	0.414873	0.091899	0.599746
	H71	H	0.417965	0.875336	0.433184
	H72	H	0.919964	0.590180	0.104583
	H73	H	0.087905	0.374454	0.106056
	H74	H	0.094049	0.592776	0.937240
	H75	H	0.914150	0.373407	0.934849
	H76	H	0.092798	0.898966	0.630788
	H77	H	0.088391	0.075435	0.407430
	H78	H	0.915269	0.072528	0.630666
	H79	H	0.919871	0.891779	0.408389
	H80	H	0.615369	0.068262	0.930158
	H81	H	0.390259	0.074860	0.108899
	H82	H	0.615620	0.893329	0.108686
	H83	H	0.396054	0.896758	0.936783
	H84	H	0.613764	0.894100	0.104184
	H85	H	0.394881	0.072798	0.098972
	H86	H	0.616846	0.074754	0.932530
	H87	H	0.392848	0.899000	0.927338
	H88	H	0.914082	0.073134	0.630778
	H89	H	0.093754	0.072405	0.405384
	H90	H	0.086793	0.898793	0.628040
	H91	H	0.913625	0.898789	0.407844
	H92	H	0.100179	0.599060	0.926602
	H93	H	0.096663	0.372358	0.103759
	H94	H	0.914359	0.593407	0.104509
	H95	H	0.912415	0.370908	0.929052
	H96	H	0.413133	0.096079	0.609378
	H97	H	0.593625	0.870737	0.606171
	H98	H	0.589592	0.092408	0.432467
	H99	H	0.413253	0.874259	0.433620
	H100	H	0.587518	0.398215	0.128574
	H101	H	0.595472	0.570804	0.906505
	H102	H	0.416902	0.571767	0.130751
	H103	H	0.419064	0.389437	0.906600
	H104	H	0.114804	0.569276	0.431318
	H105	H	0.893667	0.570390	0.604706
	H106	H	0.115210	0.393576	0.611676
	H107	H	0.889086	0.387308	0.431249
	H108	H	0.918413	0.593984	0.109964
	H109	H	0.093604	0.370370	0.112156
	H110	H	0.086642	0.594921	0.925520
	H111	H	0.918539	0.373909	0.929837
	H112	H	0.089957	0.893008	0.630492
	H113	H	0.089436	0.069387	0.408908
	H114	H	0.914249	0.072031	0.630697
	H115	H	0.921950	0.900369	0.412378
	H116	H	0.613526	0.070276	0.936424
	H117	H	0.394153	0.064505	0.106389
	H118	H	0.613308	0.897579	0.107688
	H119	H	0.391174	0.890163	0.931046
	C120	C	0.382392	-0.007587	0.640115
	C121	C	0.624872	0.973790	0.639160
	C122	C	0.624409	-0.008138	0.397102
	C123	C	0.381621	0.975964	0.397932
	C124	C	0.624804	0.362739	0.028662
	C125	C	0.624903	0.604409	1.010792
	C126	C	0.383515	0.603874	0.027551
	C127	C	0.382434	0.361310	1.009980
	C128	C	0.012979	0.603868	0.398443
	C129	C	0.995051	0.603740	0.639908
	C130	C	0.010960	0.361560	0.641254
	C131	C	0.994647	0.361736	0.398688
	C132	C	0.883837	0.491191	0.140228
	C133	C	0.126241	0.474005	0.140930
	C134	C	0.124704	0.492235	0.897876
	C135	C	0.881659	0.474507	0.897936
	C136	C	0.124140	0.862760	0.527931
	C137	C	0.123231	0.104713	0.510063
	C138	C	0.881482	0.104642	0.527453
	C139	C	0.882924	0.861786	0.510241
	C140	C	0.513761	0.104652	0.898176
	C141	C	0.494695	0.104717	0.140234
	C142	C	0.512254	0.861698	0.140411
	C143	C	0.495639	0.861934	0.898278
	C144	C	0.376744	0.877443	0.703209
	C145	C	0.629232	0.089482	0.701318
	C146	C	0.628561	0.876459	0.334158
	C147	C	0.376068	0.090673	0.334486
	C148	C	0.685804	0.359210	0.911982
	C149	C	0.685633	0.606986	0.128236
	C150	C	0.322921	0.605962	0.910398
	C151	C	0.321784	0.358448	0.126818
	C152	C	0.898206	0.667282	0.391720
	C153	C	0.111279	0.665317	0.644877
	C154	C	0.893334	0.302980	0.642724
	C155	C	0.110802	0.299672	0.395596
	C156	C	0.893131	0.361637	0.699548
	C157	C	0.111377	0.607075	0.701900
	C158	C	0.897493	0.608394	0.335202
	C159	C	0.111281	0.357497	0.338224
	C160	C	0.379531	0.664440	0.910841
	C161	C	0.627627	0.664306	0.128354
	C162	C	0.628651	0.301064	0.911939
	C163	C	0.379065	0.300565	0.126904
	C164	C	0.687704	0.877214	0.390425
	C165	C	0.686276	0.089796	0.642987
	C166	C	0.318394	0.878026	0.645782
	C167	C	0.318841	0.091102	0.392620
	C168	C	0.879364	0.375297	0.202004
	C169	C	0.130619	0.589355	0.203407
	C170	C	0.124650	0.374338	0.839397
	C171	C	0.877323	0.590254	0.836375
	C172	C	0.185283	0.858636	0.411604
	C173	C	0.185106	0.108248	0.626638
	C174	C	0.822166	0.105918	0.409779
	C175	C	0.819043	0.855961	0.624965
	C176	C	0.398129	0.166826	0.892229
	C177	C	0.610437	0.166785	0.146124
	C178	C	0.396252	0.799782	0.144287
	C179	C	0.612127	0.800839	0.895104
	C180	C	0.395889	0.857968	0.201543
	C181	C	0.610269	0.108768	0.203494
	C182	C	0.398235	0.108928	0.834844
	C183	C	0.612340	0.858747	0.837647
	C184	C	0.878139	0.165222	0.410690
	C185	C	0.126475	0.164393	0.627558
	C186	C	0.129266	0.799614	0.412615
	C187	C	0.876436	0.798199	0.625336
	C188	C	0.183332	0.374531	0.896521
	C189	C	0.187215	0.590129	0.144803
	C190	C	0.821419	0.375757	0.144436
	C191	C	0.819553	0.590295	0.893803
	C192	C	0.409332	0.072457	0.613108
	C193	C	0.598509	0.893191	0.613257
	C194	C	0.598479	0.072254	0.424102
	C195	C	0.408094	0.895263	0.424475
	C196	C	0.598146	0.388992	0.109369
	C197	C	0.599017	0.578841	0.929105
	C198	C	0.409005	0.578794	0.109396
	C199	C	0.408054	0.387046	0.928669
	C200	C	0.093379	0.577287	0.425720
	C201	C	0.914078	0.577846	0.612997
	C202	C	0.092986	0.385331	0.616682
	C203	C	0.913668	0.387907	0.424197
	C204	C	0.910152	0.571739	0.113956
	C205	C	0.100114	0.393502	0.114813
	C206	C	0.100570	0.574082	0.922517
	C207	C	0.907494	0.393852	0.923940
	C208	C	0.097484	0.889358	0.608733
	C209	C	0.097715	0.079691	0.428654
	C210	C	0.907102	0.079506	0.609347
	C211	C	0.910567	0.889019	0.430223
	C212	C	0.594252	0.078401	0.925270
	C213	C	0.414097	0.078449	0.112640
	C214	C	0.593064	0.887632	0.114403
	C215	C	0.414583	0.887981	0.924301
	Zn216	Zn	0.504874	-0.016928	0.769170
	Zn217	Zn	0.502084	-0.016468	0.268719
	Zn218	Zn	0.753747	0.483767	0.019673
	Zn219	Zn	0.254383	0.483005	0.019183
	Zn220	Zn	0.004120	0.733139	0.519500
	Zn221	Zn	0.001939	0.233004	0.519277
	Zn222	Zn	0.002852	0.483650	0.769416
	Zn223	Zn	0.004811	0.482276	0.269768
	Zn224	Zn	0.504093	0.733029	0.019325
	Zn225	Zn	0.504401	0.233656	0.019030
	Zn226	Zn	0.753952	-0.017492	0.518064
	Zn227	Zn	0.252455	-0.015789	0.518762
	N228	N	0.415964	0.949710	0.700023
	N229	N	0.591758	0.016321	0.699120
	N230	N	0.589760	0.948916	0.337936
	N231	N	0.414499	0.018055	0.337679
	N232	N	0.683600	0.396758	0.985467
	N233	N	0.684303	0.570737	0.053889
	N234	N	0.325121	0.568956	0.984178
	N235	N	0.323701	0.395605	0.053029
	N236	N	0.971069	0.664690	0.430600
	N237	N	0.037747	0.663609	0.607010
	N238	N	0.967645	0.302618	0.607058
	N239	N	0.037242	0.302272	0.432695
	N240	N	0.967489	0.397265	0.698823
	N241	N	0.038015	0.569501	0.698925
	N242	N	0.970026	0.569736	0.339162
	N243	N	0.038068	0.395416	0.339978
	N244	N	0.416423	0.663385	0.984914
	N245	N	0.590636	0.662936	0.054172
	N246	N	0.591464	0.302828	0.985750
	N247	N	0.415869	0.301943	0.052989
	N248	N	0.685160	0.949824	0.429018
	N249	N	0.683959	0.016753	0.605094
	N250	N	0.321755	0.950561	0.607109
	N251	N	0.322171	0.018545	0.431569
	N252	N	0.917490	0.448321	0.199724
	N253	N	0.093366	0.516017	0.201365
	N254	N	0.089409	0.448775	0.839712
	N255	N	0.915406	0.517386	0.838779
	N256	N	0.182419	0.897156	0.484543
	N257	N	0.183629	0.071892	0.552459
	N258	N	0.824248	0.068980	0.483566
	N259	N	0.822815	0.894853	0.552230
	N260	N	0.471011	0.164328	0.930912
	N261	N	0.537443	0.164580	0.107441
	N262	N	0.469695	0.801793	0.106967
	N263	N	0.538271	0.802440	0.931872
	N264	N	0.469097	0.895823	0.199309
	N265	N	0.537020	0.071055	0.200082
	N266	N	0.471177	0.070721	0.838198
	N267	N	0.538644	0.895760	0.839037
	N268	N	0.914209	0.164670	0.485168
	N269	N	0.088759	0.162722	0.553941
	N270	N	0.092073	0.801870	0.486121
	N271	N	0.915414	0.801406	0.552790
	N272	N	0.183808	0.448959	0.931966
	N273	N	0.185031	0.517216	0.106858
	N274	N	0.823984	0.448922	0.106704
	N275	N	0.821994	0.517131	0.931337
	O276	O	0.002063	1.210249	0.025121
	H277	H	0.010673	1.211190	0.027324
	H278	H	0.023772	1.215935	0.029531
	O279	O	0.444622	0.527108	0.459404
	H280	H	0.438226	0.520378	0.467323
	H281	H	0.456329	0.531068	0.458017
	O282	O	0.936897	0.008064	1.007257
	H283	H	0.936724	0.006513	0.999479
	H284	H	0.932221	-0.002654	1.000584
	O285	O	0.566773	0.655603	0.549972
	H286	H	0.574666	0.658582	0.547421
	H287	H	0.566242	0.635971	0.549975
	O288	O	1.158758	0.918773	0.105440
	H289	H	1.157229	0.918816	0.118078
	H290	H	1.153288	0.933855	0.104337
	O291	O	0.268222	0.420401	0.482509
	H292	H	0.269993	0.409970	0.470703
	H293	H	0.264771	0.397742	0.480204
	O294	O	1.302867	0.277548	0.718292
	H295	H	1.327802	0.288406	0.704702
	H296	H	1.302962	0.304418	0.705093
	O297	O	0.726234	0.277815	0.501976
	H298	H	0.742665	0.257410	0.497707
	H299	H	0.738425	0.293245	0.513563
	O300	O	0.194679	-0.133014	1.208468
	H301	H	0.209872	-0.125058	1.229902
	H302	H	0.191505	-0.124807	1.204908
	O303	O	0.536584	0.469338	0.306826
	H304	H	0.555211	0.482382	0.308110
	H305	H	0.547180	0.474887	0.302197
	O306	O	0.773609	1.005211	0.069547
	H307	H	0.774689	1.011219	0.044501
	H308	H	0.774449	1.011554	0.065731
	O309	O	0.526234	0.707787	0.740331
	H310	H	0.524640	0.716578	0.744363
	H311	H	0.516292	0.728149	0.738852
	O312	O	0.622690	0.328410	0.398747
	H313	H	0.634543	0.347144	0.402621
	H314	H	0.626733	0.312539	0.399980
	O315	O	1.027433	0.765226	0.801007
	H316	H	1.035298	0.755105	0.792762
	H317	H	1.029491	0.762016	0.802712
	O318	O	0.341470	1.295065	0.356827
	H319	H	0.337442	1.306124	0.348031
	H320	H	0.356386	1.299234	0.358707
	O321	O	-0.262792	1.244989	0.755826
	H322	H	-0.283849	1.259696	0.745739
	H323	H	-0.239308	1.236561	0.775203
	O324	O	1.228959	1.031389	-0.079613
	H325	H	1.224358	1.029641	-0.074265
	H326	H	1.229750	1.023481	-0.091030
	O327	O	0.079257	0.166365	0.916909
	H328	H	0.100962	0.156627	0.907037
	H329	H	0.082319	0.171011	0.914155
	O330	O	0.549917	0.355605	0.470850
	H331	H	0.546911	0.348870	0.463261
	H332	H	0.545058	0.362408	0.474893
	O333	O	0.604659	0.445322	0.738745
	H334	H	0.606137	0.446978	0.734053
	H335	H	0.599701	0.452632	0.748095
	O336	O	0.677490	0.596069	0.635771
	H337	H	0.660927	0.572989	0.626345
	H338	H	0.684551	0.600054	0.630969
	O339	O	1.122500	0.004118	1.142501
	H340	H	1.121237	0.002608	1.142606
	H341	H	1.124459	0.029133	1.145844
	O342	O	-0.161855	0.123117	-0.130373
	H343	H	-0.143955	0.125910	-0.127961
	H344	H	-0.154255	0.116260	-0.131890
	O345	O	-0.170343	1.153123	1.156057
	H346	H	-0.156954	1.160227	1.152143
	H347	H	-0.179552	1.148972	1.156887
	O348	O	0.125730	-0.061777	0.000884
	H349	H	0.124727	-0.058551	0.014150
	H350	H	0.117882	-0.070155	0.001927
	O351	O	0.788938	0.916400	-0.029911
	H352	H	0.804756	0.912682	-0.031208
	H353	H	0.783271	0.906579	-0.041573
	O354	O	0.222428	0.174811	1.053881
	H355	H	0.236096	0.172824	1.047262
	H356	H	0.221722	0.190575	1.056779
	O357	O	0.582152	0.483413	0.409639
	H358	H	0.586974	0.475139	0.404069
	H359	H	0.585515	0.497580	0.409151
	O360	O	0.563591	0.644285	0.386210
	H361	H	0.567492	0.645019	0.387054
	H362	H	0.583255	0.652447	0.381457
	O363	O	-0.209597	0.198612	-0.013690
	H364	H	-0.196502	0.199727	-0.025315
	H365	H	-0.217337	0.214137	-0.010126
	O366	O	0.519510	0.254588	0.656910
	H367	H	0.519956	0.262709	0.643208
	H368	H	0.515896	0.241766	0.668026
	O369	O	0.859659	-0.001926	-0.207535
	H370	H	0.837230	-0.003527	-0.221985
	H371	H	0.855901	0.016526	-0.206298
	O372	O	0.985824	0.761002	0.240876
	H373	H	0.965030	0.744426	0.262326
	H374	H	0.975128	0.759460	0.232775
	O375	O	1.084637	-0.012372	0.235182
	H376	H	1.074567	-0.006372	0.237558
	H377	H	1.090752	-0.016155	0.234284
	O378	O	0.291845	0.563614	0.372542
	H379	H	0.294318	0.563638	0.380729
	H380	H	0.268531	0.573660	0.360711
	O381	O	-0.164129	0.756297	1.023800
	H382	H	-0.161457	0.761398	1.009072
	H383	H	-0.162904	0.738555	1.021409
	O384	O	0.792258	-0.226206	1.226129
	H385	H	0.806785	-0.185444	1.232352
	H386	H	0.792074	-0.230963	1.173373
	O387	O	1.174451	0.921211	-0.149449
	H388	H	1.173352	0.912151	-0.154680
	H389	H	1.185233	0.905473	-0.159442
	O390	O	0.473829	0.419027	0.608373
	H391	H	0.455296	0.424139	0.611994
	H392	H	0.467003	0.400179	0.598384
	O393	O	0.210677	0.191656	0.226310
	H394	H	0.198771	0.192309	0.192242
	H395	H	0.201228	0.198363	0.237373
	O396	O	0.200964	0.180811	0.823757
	H397	H	0.203948	0.150536	0.829583
	H398	H	0.228606	0.204515	0.792920
	O399	O	-0.002858	0.021312	1.055221
	H400	H	-0.000146	0.029030	1.041984
	H401	H	-0.004911	0.025991	1.051974
	O402	O	0.788849	-0.046170	0.231480
	H403	H	0.786720	-0.036991	0.219127
	H404	H	0.770114	-0.037541	0.237091
	O405	O	1.283655	0.264136	0.549263
	H406	H	1.288025	0.248047	0.546610
	H407	H	1.275503	0.251287	0.547402
	O408	O	0.110380	-0.131027	0.127236
	H409	H	0.117181	-0.108198	0.129540
	H410	H	0.084163	-0.142948	0.122872
	O411	O	1.025885	0.956903	0.949084
	H412	H	1.032164	0.953143	0.943360
	H413	H	1.027259	0.957684	0.961639
	O414	O	0.496991	0.511206	0.537189
	H415	H	0.494729	0.518124	0.543996
	H416	H	0.500323	0.502347	0.526643
	O417	O	0.527240	0.260778	0.299098
	H418	H	0.533581	0.287910	0.305384
	H419	H	0.529955	0.226289	0.264679
	O420	O	0.691916	0.670135	0.335487
	H421	H	0.704983	0.676372	0.328770
	H422	H	0.708196	0.680614	0.335685
	O423	O	0.018767	-0.232508	1.074262
	H424	H	0.026660	-0.235361	1.084463
	H425	H	0.036671	-0.222019	1.064592
	O426	O	0.459335	0.523317	0.688894
	H427	H	0.433624	0.529140	0.697194
	H428	H	0.454963	0.525675	0.694550
	O429	O	0.955318	1.055530	1.191934
	H430	H	0.956045	1.050176	1.194282
	H431	H	0.941823	1.050258	1.183952
	O432	O	0.719723	0.659479	0.496962
	H433	H	0.711115	0.650715	0.517242
	H434	H	0.738688	0.676942	0.509180
	O435	O	0.212354	0.773691	-0.191268
	H436	H	0.189198	0.786026	-0.182817
	H437	H	0.225570	0.761042	-0.172588
	O438	O	-0.201432	0.090668	0.104268
	H439	H	-0.223323	0.084943	0.095927
	H440	H	-0.201058	0.101422	0.124194
	O441	O	-0.098510	-0.118525	-0.198402
	H442	H	-0.111469	-0.112098	-0.207746
	H443	H	-0.109454	-0.140491	-0.197273
	O444	O	0.230102	-0.201254	-0.003701
	H445	H	0.249987	-0.215483	0.000226
	H446	H	0.234836	-0.178520	0.016733
	O447	O	-1.063013	1.929123	1.155357
	H448	H	-1.070212	1.928376	1.148657
	H449	H	-1.064153	1.934617	1.155079
	O450	O	-0.288359	0.697633	0.730984
	H451	H	-0.298940	0.675084	0.712459
	H452	H	-0.318002	0.684064	0.728768
	O453	O	0.473042	0.698827	0.304063
	H454	H	0.466698	0.702262	0.314240
	H455	H	0.477802	0.719059	0.287248
	O456	O	0.451293	0.263670	0.599048
	H457	H	0.446947	0.264232	0.602928
	H458	H	0.458024	0.258032	0.588484
	O459	O	1.055845	1.014308	-0.198400
	H460	H	1.029624	0.999766	-0.200686
	H461	H	1.067810	1.015923	-0.203626
	O462	O	0.295858	0.695009	0.313053
	H463	H	0.319174	0.695144	0.336224
	H464	H	0.280316	0.692620	0.315272
	O465	O	0.277939	-0.555258	0.739599
	H466	H	0.272918	-0.543790	0.717688
	H467	H	0.251433	-0.552880	0.768875
	O468	O	0.709416	0.449087	0.322911
	H469	H	0.727005	0.440466	0.312449
	H470	H	0.712772	0.447648	0.328777
	O471	O	0.387768	0.616344	0.710868
	H472	H	0.384016	0.623337	0.699317
	H473	H	0.397629	0.609392	0.709983
	O474	O	-0.040138	1.204993	-0.200818
	H475	H	-0.029485	1.216397	-0.225983
	H476	H	-0.025593	1.199503	-0.203264
	O477	O	0.440808	0.722771	1.576536
	H478	H	0.427752	0.723942	1.567559
	H479	H	0.451976	0.720147	1.563421
	O480	O	0.279535	0.667628	0.514680
	H481	H	0.276442	0.665865	0.511400
	H482	H	0.270233	0.666567	0.517571
	O483	O	0.368684	0.434074	0.299674
	H484	H	0.354644	0.441714	0.288117
	H485	H	0.378249	0.461056	0.289481
	O486	O	0.735344	0.490833	0.503896
	H487	H	0.727159	0.488546	0.512583
	H488	H	0.735631	0.504663	0.500857
	O489	O	1.294743	0.585738	0.646560
	H490	H	1.299360	0.585981	0.638837
	H491	H	1.288590	0.597596	0.623279
	O492	O	0.031020	0.194645	0.218074
	H493	H	0.032767	0.217018	0.241568
	H494	H	0.025511	0.182125	0.206064
	O495	O	-0.135030	0.776195	0.882812
	H496	H	-0.159209	0.760025	0.857958
	H497	H	-0.116941	0.774340	0.898610
	O498	O	0.703633	1.387852	0.691186
	H499	H	0.684331	1.395334	0.692369
	H500	H	0.704540	1.391377	0.683130
	O501	O	0.561293	0.353302	0.524920
	H502	H	0.563543	0.350879	0.521602
	H503	H	0.568319	0.359861	0.510940
