data_Molecule from HDF5

_cell_length_a		16.258120
_cell_length_b		16.183212
_cell_length_c		16.305065
_cell_angle_alpha	89.990309
_cell_angle_beta	89.942368
_cell_angle_gamma	89.966200
_symmetry_space_group_name_H-M	'P 1'
_symmetry_Int_Tables_number		1

loop_
	_symmetry_equiv_pos_as_xyz
	x,y,z

loop_
	_atom_site_label
	_atom_site_type_symbol
	_atom_site_fract_x
	_atom_site_fract_y
	_atom_site_fract_z
	H0	H	0.401862	0.835470	0.714162
	H1	H	0.596877	0.164437	0.714168
	H2	H	0.598908	0.836340	0.285476
	H3	H	0.401095	0.164373	0.285622
	H4	H	0.715075	0.401080	0.836521
	H5	H	0.713978	0.598042	0.163450
	H6	H	0.285465	0.598715	0.836814
	H7	H	0.284993	0.400908	0.163436
	H8	H	0.835671	0.714188	0.403094
	H9	H	0.164279	0.712632	0.596303
	H10	H	0.835231	0.287312	0.596995
	H11	H	0.165057	0.287322	0.402976
	H12	H	0.836949	0.400898	0.715211
	H13	H	0.164047	0.598646	0.713330
	H14	H	0.836415	0.600924	0.284641
	H15	H	0.163217	0.400184	0.284162
	H16	H	0.402260	0.713941	0.836376
	H17	H	0.597236	0.713547	0.163283
	H18	H	0.596873	0.286208	0.835854
	H19	H	0.403130	0.286239	0.164022
	H20	H	0.711960	0.834734	0.403272
	H21	H	0.711861	0.165561	0.596540
	H22	H	0.285995	0.835656	0.598874
	H23	H	0.286223	0.164350	0.403147
	H24	H	0.901482	0.335355	0.214321
	H25	H	0.098114	0.664638	0.214001
	H26	H	0.098032	0.335865	0.785178
	H27	H	0.902108	0.664285	0.785853
	H28	H	0.215547	0.900842	0.336483
	H29	H	0.213622	0.097939	0.663768
	H30	H	0.786233	0.098748	0.335461
	H31	H	0.785075	0.902843	0.663235
	H32	H	0.335731	0.213566	0.903463
	H33	H	0.664443	0.211939	0.095886
	H34	H	0.335736	0.786745	0.097512
	H35	H	0.663957	0.786785	0.903045
	H36	H	0.336643	0.901357	0.215297
	H37	H	0.664074	0.098437	0.214121
	H38	H	0.336013	0.098589	0.786137
	H39	H	0.663183	0.900076	0.785673
	H40	H	0.903774	0.213722	0.334821
	H41	H	0.096148	0.212944	0.664012
	H42	H	0.097861	0.785376	0.336035
	H43	H	0.902888	0.787456	0.664473
	H44	H	0.213429	0.335153	0.902860
	H45	H	0.212202	0.664928	0.097418
	H46	H	0.787455	0.334641	0.097911
	H47	H	0.787363	0.665424	0.902935
	H48	H	0.397965	0.119570	0.590937
	H49	H	0.585976	0.883188	0.597428
	H50	H	0.590566	0.119307	0.398896
	H51	H	0.413324	0.886337	0.413350
	H52	H	0.595109	0.414403	0.114023
	H53	H	0.596466	0.585255	0.883877
	H54	H	0.407526	0.601473	0.119005
	H55	H	0.402488	0.403049	0.881054
	H56	H	0.117499	0.589991	0.400325
	H57	H	0.882146	0.592793	0.595922
	H58	H	0.115461	0.408721	0.590496
	H59	H	0.880466	0.411805	0.393367
	H60	H	0.118325	0.407597	0.598300
	H61	H	0.882346	0.595294	0.594580
	H62	H	0.117979	0.598139	0.407943
	H63	H	0.880376	0.394201	0.410437
	H64	H	0.397961	0.591612	0.118911
	H65	H	0.586847	0.595229	0.884843
	H66	H	0.586282	0.402251	0.115396
	H67	H	0.405099	0.411758	0.884727
	H68	H	0.588650	0.115081	0.412951
	H69	H	0.593788	0.884891	0.585813
	H70	H	0.409505	0.119655	0.603208
	H71	H	0.398711	0.880124	0.410059
	H72	H	0.910026	0.621472	0.108683
	H73	H	0.073531	0.388256	0.094401
	H74	H	0.098060	0.621666	0.898981
	H75	H	0.914387	0.385356	0.908478
	H76	H	0.093042	0.907290	0.616636
	H77	H	0.086023	0.101005	0.382843
	H78	H	0.908896	0.102865	0.617220
	H79	H	0.906890	0.901165	0.381825
	H80	H	0.615623	0.084100	0.902785
	H81	H	0.382686	0.084153	0.101911
	H82	H	0.616314	0.907966	0.092900
	H83	H	0.381834	0.906979	0.903654
	H84	H	0.618466	0.906959	0.095461
	H85	H	0.378749	0.102415	0.097113
	H86	H	0.620931	0.098528	0.900385
	H87	H	0.381126	0.904189	0.906847
	H88	H	0.895771	0.091929	0.617980
	H89	H	0.104710	0.096973	0.379211
	H90	H	0.093380	0.906136	0.616303
	H91	H	0.900890	0.909311	0.382043
	H92	H	0.084226	0.615935	0.904783
	H93	H	0.103215	0.384632	0.075262
	H94	H	0.918228	0.611233	0.083625
	H95	H	0.901509	0.382959	0.912635
	H96	H	0.413854	0.113468	0.587595
	H97	H	0.599922	0.879494	0.597630
	H98	H	0.601863	0.120272	0.408189
	H99	H	0.410260	0.879923	0.398296
	H100	H	0.601222	0.400985	0.120246
	H101	H	0.599506	0.598552	0.879499
	H102	H	0.410792	0.588375	0.114094
	H103	H	0.411336	0.404939	0.883477
	H104	H	0.114188	0.588484	0.410934
	H105	H	0.882564	0.593151	0.592983
	H106	H	0.118084	0.401742	0.593201
	H107	H	0.888358	0.416112	0.415144
	H108	H	0.891785	0.620204	0.087111
	H109	H	0.102709	0.374950	0.109418
	H110	H	0.096512	0.616682	0.914011
	H111	H	0.905873	0.380139	0.900125
	H112	H	0.094035	0.906716	0.616279
	H113	H	0.093100	0.083030	0.386265
	H114	H	0.910979	0.087399	0.613083
	H115	H	0.910763	0.910650	0.384805
	H116	H	0.615323	0.094414	0.914640
	H117	H	0.386392	0.090420	0.083955
	H118	H	0.617060	0.905318	0.093376
	H119	H	0.383643	0.907529	0.907515
	C120	C	0.378701	0.008567	0.622149
	C121	C	0.621187	0.991544	0.621463
	C122	C	0.621627	0.009111	0.378318
	C123	C	0.379252	0.991400	0.379135
	C124	C	0.622316	0.377729	0.008409
	C125	C	0.621825	0.621213	0.990922
	C126	C	0.378170	0.621458	0.008693
	C127	C	0.378272	0.378217	0.991598
	C128	C	0.008259	0.621080	0.378648
	C129	C	0.991224	0.621725	0.621876
	C130	C	0.008380	0.378406	0.621807
	C131	C	0.991549	0.378661	0.378392
	C132	C	0.878637	0.508170	0.121391
	C133	C	0.121209	0.491506	0.121249
	C134	C	0.121108	0.508907	0.878375
	C135	C	0.878785	0.491476	0.878432
	C136	C	0.121912	0.878175	0.508235
	C137	C	0.121929	0.121684	0.491453
	C138	C	0.877938	0.122192	0.507643
	C139	C	0.878080	0.878932	0.491538
	C140	C	0.508723	0.121096	0.878357
	C141	C	0.491319	0.120978	0.121853
	C142	C	0.508554	0.878546	0.122059
	C143	C	0.491006	0.878146	0.878274
	C144	C	0.381413	0.884653	0.676572
	C145	C	0.617573	0.115664	0.676075
	C146	C	0.619068	0.884995	0.323631
	C147	C	0.381053	0.115351	0.323900
	C148	C	0.677047	0.380799	0.885205
	C149	C	0.676225	0.618561	0.114475
	C150	C	0.323243	0.619219	0.885421
	C151	C	0.323116	0.380668	0.114771
	C152	C	0.884725	0.676307	0.382026
	C153	C	0.115188	0.675584	0.617832
	C154	C	0.884580	0.324781	0.618039
	C155	C	0.115405	0.324169	0.381564
	C156	C	0.885297	0.380978	0.676813
	C157	C	0.114855	0.618954	0.676016
	C158	C	0.884994	0.620145	0.323105
	C159	C	0.114889	0.380611	0.322936
	C160	C	0.381426	0.676174	0.885295
	C161	C	0.618592	0.676210	0.114426
	C162	C	0.618435	0.323833	0.884750
	C163	C	0.381547	0.323510	0.114945
	C164	C	0.675482	0.884378	0.381829
	C165	C	0.674789	0.116190	0.617971
	C166	C	0.324208	0.884509	0.618921
	C167	C	0.324417	0.115605	0.382213
	C168	C	0.881235	0.384472	0.176513
	C169	C	0.118690	0.615476	0.176225
	C170	C	0.118611	0.384703	0.823452
	C171	C	0.881642	0.615593	0.823901
	C172	C	0.177290	0.880664	0.385167
	C173	C	0.175909	0.118614	0.614943
	C174	C	0.823817	0.119581	0.384014
	C175	C	0.823365	0.882125	0.614686
	C176	C	0.384734	0.175828	0.882319
	C177	C	0.615403	0.175338	0.117779
	C178	C	0.384881	0.824324	0.118456
	C179	C	0.614808	0.824111	0.882035
	C180	C	0.385419	0.880985	0.177242
	C181	C	0.615074	0.119033	0.176279
	C182	C	0.384744	0.118657	0.824362
	C183	C	0.614537	0.880447	0.823832
	C184	C	0.882269	0.176416	0.383916
	C185	C	0.117873	0.175873	0.614893
	C186	C	0.118800	0.823336	0.384906
	C187	C	0.881545	0.824756	0.615127
	C188	C	0.175804	0.384429	0.881623
	C189	C	0.175270	0.615651	0.118196
	C190	C	0.824639	0.384042	0.118358
	C191	C	0.824492	0.615935	0.881817
	C192	C	0.400602	0.095182	0.600393
	C193	C	0.599661	0.904891	0.600064
	C194	C	0.599982	0.095896	0.400179
	C195	C	0.401102	0.904751	0.400860
	C196	C	0.600485	0.399481	0.094349
	C197	C	0.600482	0.599475	0.904965
	C198	C	0.399113	0.600055	0.094970
	C199	C	0.399835	0.400157	0.905365
	C200	C	0.094286	0.598816	0.400078
	C201	C	0.904632	0.600239	0.600791
	C202	C	0.095051	0.399811	0.600416
	C203	C	0.905229	0.400976	0.399846
	C204	C	0.900291	0.595167	0.099674
	C205	C	0.099463	0.404764	0.099407
	C206	C	0.099386	0.595598	0.899532
	C207	C	0.900860	0.405055	0.900357
	C208	C	0.100024	0.900294	0.594343
	C209	C	0.101042	0.100107	0.405029
	C210	C	0.898878	0.100443	0.593722
	C211	C	0.899786	0.900540	0.405267
	C212	C	0.594930	0.098831	0.899628
	C213	C	0.404980	0.098991	0.100637
	C214	C	0.595087	0.900204	0.100286
	C215	C	0.404400	0.899806	0.899731
	Zn216	Zn	0.499969	-0.000630	0.750260
	Zn217	Zn	0.500358	0.000398	0.250910
	Zn218	Zn	0.750923	0.500002	0.000115
	Zn219	Zn	0.249217	0.500242	0.000177
	Zn220	Zn	0.000099	0.749657	0.500315
	Zn221	Zn	-0.000085	0.250252	0.499775
	Zn222	Zn	0.000026	0.500110	0.749957
	Zn223	Zn	0.000025	0.500183	0.249514
	Zn224	Zn	0.500149	0.750126	-0.000312
	Zn225	Zn	0.500031	0.249071	0.000219
	Zn226	Zn	0.749149	0.000577	0.499335
	Zn227	Zn	0.250947	-0.000078	0.500247
	N228	N	0.414664	0.962675	0.678374
	N229	N	0.585133	0.037195	0.678409
	N230	N	0.586458	0.963510	0.321395
	N231	N	0.414544	0.037214	0.322145
	N232	N	0.679394	0.413650	0.962924
	N233	N	0.678550	0.585268	0.036906
	N234	N	0.321007	0.586118	0.963162
	N235	N	0.320971	0.413950	0.037077
	N236	N	0.962263	0.676984	0.415881
	N237	N	0.037216	0.677433	0.585005
	N238	N	0.962170	0.323306	0.584387
	N239	N	0.037731	0.322920	0.415188
	N240	N	0.963499	0.413590	0.679124
	N241	N	0.036772	0.586131	0.678439
	N242	N	0.962714	0.586463	0.320889
	N243	N	0.036973	0.413883	0.320771
	N244	N	0.414696	0.678015	0.962938
	N245	N	0.585220	0.677828	0.036788
	N246	N	0.585045	0.321613	0.962378
	N247	N	0.414972	0.321781	0.037418
	N248	N	0.677129	0.962479	0.415166
	N249	N	0.676994	0.038040	0.584495
	N250	N	0.322152	0.962812	0.585966
	N251	N	0.322880	0.037529	0.415654
	N252	N	0.914385	0.462780	0.178366
	N253	N	0.085322	0.537344	0.177786
	N254	N	0.085312	0.462876	0.821531
	N255	N	0.914408	0.537150	0.821612
	N256	N	0.179229	0.913898	0.462876
	N257	N	0.178381	0.085322	0.537256
	N258	N	0.821022	0.086489	0.461813
	N259	N	0.821203	0.914993	0.536784
	N260	N	0.462816	0.177412	0.915153
	N261	N	0.537487	0.176492	0.084563
	N262	N	0.462596	0.822846	0.084775
	N263	N	0.537026	0.822618	0.915210
	N264	N	0.463382	0.914030	0.179476
	N265	N	0.537008	0.086199	0.179032
	N266	N	0.462621	0.085432	0.821645
	N267	N	0.536385	0.913254	0.821421
	N268	N	0.915198	0.178083	0.461737
	N269	N	0.085047	0.177831	0.537124
	N270	N	0.085063	0.821933	0.462345
	N271	N	0.914899	0.822593	0.537514
	N272	N	0.177500	0.462649	0.914916
	N273	N	0.176875	0.537396	0.084827
	N274	N	0.823087	0.462147	0.084841
	N275	N	0.822887	0.537845	0.915223
