data_Molecule from HDF5

_cell_length_a		16.452968
_cell_length_b		16.427494
_cell_length_c		16.559581
_cell_angle_alpha	90.015349
_cell_angle_beta	89.849522
_cell_angle_gamma	90.172289
_symmetry_space_group_name_H-M	'P 1'
_symmetry_Int_Tables_number		1

loop_
	_symmetry_equiv_pos_as_xyz
	x,y,z

loop_
	_atom_site_label
	_atom_site_type_symbol
	_atom_site_fract_x
	_atom_site_fract_y
	_atom_site_fract_z
	H0	H	0.384076	0.845878	0.723311
	H1	H	0.598290	0.160146	0.721230
	H2	H	0.598839	0.843295	0.278011
	H3	H	0.390499	0.160592	0.278945
	H4	H	0.715830	0.397096	0.842494
	H5	H	0.715857	0.610424	0.155105
	H6	H	0.271945	0.605644	0.842085
	H7	H	0.270858	0.398320	0.157638
	H8	H	0.833709	0.722490	0.396396
	H9	H	0.151570	0.722874	0.601253
	H10	H	0.833956	0.283108	0.602499
	H11	H	0.149947	0.281502	0.393061
	H12	H	0.835848	0.396417	0.721813
	H13	H	0.151283	0.608147	0.718878
	H14	H	0.835592	0.611810	0.276816
	H15	H	0.149897	0.398539	0.277280
	H16	H	0.387325	0.724418	0.842901
	H17	H	0.597479	0.723985	0.156984
	H18	H	0.598254	0.280184	0.842695
	H19	H	0.387775	0.281328	0.157389
	H20	H	0.712254	0.841963	0.396103
	H21	H	0.713815	0.160182	0.603816
	H22	H	0.270569	0.844712	0.603639
	H23	H	0.274872	0.161785	0.396668
	H24	H	0.886205	0.345996	0.221626
	H25	H	0.097522	0.662051	0.220002
	H26	H	0.096695	0.343569	0.779292
	H27	H	0.889841	0.661301	0.778909
	H28	H	0.215195	0.897871	0.342236
	H29	H	0.215365	0.109275	0.655533
	H30	H	0.772883	0.104589	0.341890
	H31	H	0.770558	0.896740	0.657129
	H32	H	0.333191	0.221081	0.898054
	H33	H	0.649402	0.226830	0.105546
	H34	H	0.331989	0.784578	0.101551
	H35	H	0.650601	0.782557	0.895500
	H36	H	0.333453	0.899286	0.219727
	H37	H	0.650379	0.109427	0.221428
	H38	H	0.333844	0.106624	0.780102
	H39	H	0.649935	0.896000	0.777159
	H40	H	0.891176	0.220491	0.340664
	H41	H	0.097902	0.225021	0.655996
	H42	H	0.097901	0.781827	0.341195
	H43	H	0.888200	0.781420	0.657387
	H44	H	0.207402	0.341205	0.899789
	H45	H	0.212553	0.662031	0.102192
	H46	H	0.770966	0.345390	0.103980
	H47	H	0.772759	0.661360	0.894607
	H48	H	0.407077	0.113752	0.585533
	H49	H	0.585424	0.887501	0.589920
	H50	H	0.589897	0.116838	0.410928
	H51	H	0.399694	0.888711	0.411413
	H52	H	0.579668	0.415657	0.110521
	H53	H	0.587258	0.594747	0.884943
	H54	H	0.403669	0.594674	0.112844
	H55	H	0.400666	0.403898	0.884881
	H56	H	0.104686	0.593899	0.411319
	H57	H	0.880192	0.591280	0.588363
	H58	H	0.105393	0.413352	0.585176
	H59	H	0.879532	0.414450	0.411215
	H60	H	0.104922	0.417121	0.590699
	H61	H	0.880417	0.589945	0.590372
	H62	H	0.104595	0.589386	0.410607
	H63	H	0.879488	0.413744	0.408928
	H64	H	0.398735	0.591837	0.112978
	H65	H	0.581755	0.585291	0.889314
	H66	H	0.580161	0.414811	0.110435
	H67	H	0.394908	0.415561	0.886411
	H68	H	0.579782	0.115965	0.402749
	H69	H	0.577037	0.888132	0.593366
	H70	H	0.401444	0.116663	0.588933
	H71	H	0.404617	0.888454	0.406203
	H72	H	0.905296	0.615048	0.086148
	H73	H	0.080041	0.391006	0.087127
	H74	H	0.079766	0.617709	0.902644
	H75	H	0.906233	0.391124	0.911554
	H76	H	0.079560	0.918665	0.608430
	H77	H	0.085077	0.088546	0.387902
	H78	H	0.900480	0.092079	0.613098
	H79	H	0.904008	0.911905	0.386900
	H80	H	0.603679	0.087283	0.912689
	H81	H	0.378979	0.096028	0.086711
	H82	H	0.606469	0.911033	0.089655
	H83	H	0.378413	0.912569	0.910984
	H84	H	0.605258	0.913821	0.088373
	H85	H	0.382526	0.085093	0.087175
	H86	H	0.605662	0.089829	0.906173
	H87	H	0.380726	0.913919	0.911271
	H88	H	0.903849	0.090621	0.611025
	H89	H	0.079186	0.092661	0.388604
	H90	H	0.077559	0.909446	0.611142
	H91	H	0.901155	0.912957	0.387397
	H92	H	0.080997	0.614090	0.913379
	H93	H	0.082712	0.388790	0.090561
	H94	H	0.903385	0.616557	0.088640
	H95	H	0.903462	0.390621	0.911783
	H96	H	0.407212	0.115187	0.592789
	H97	H	0.579039	0.890663	0.584703
	H98	H	0.578955	0.111508	0.414875
	H99	H	0.406718	0.890437	0.413328
	H100	H	0.580574	0.415318	0.109969
	H101	H	0.575829	0.595980	0.887929
	H102	H	0.402937	0.588877	0.110515
	H103	H	0.407916	0.413564	0.890669
	H104	H	0.106231	0.591416	0.407738
	H105	H	0.879679	0.592138	0.590095
	H106	H	0.107665	0.410952	0.590866
	H107	H	0.878537	0.411957	0.410514
	H108	H	0.906574	0.615781	0.089417
	H109	H	0.077781	0.390122	0.091810
	H110	H	0.089829	0.618968	0.907945
	H111	H	0.904921	0.389675	0.909215
	H112	H	0.086279	0.913209	0.612134
	H113	H	0.084867	0.095109	0.384524
	H114	H	0.903764	0.094808	0.612159
	H115	H	0.903593	0.913926	0.387977
	H116	H	0.605981	0.094394	0.912370
	H117	H	0.378102	0.090229	0.096896
	H118	H	0.606106	0.913177	0.091158
	H119	H	0.379624	0.914040	0.909759
	C120	C	0.371319	0.011040	0.621146
	C121	C	0.612913	0.993435	0.620887
	C122	C	0.614642	0.009692	0.377786
	C123	C	0.372539	0.994248	0.378684
	C124	C	0.613770	0.381767	0.007225
	C125	C	0.614043	0.624806	0.991012
	C126	C	0.370718	0.623517	0.008182
	C127	C	0.369654	0.380005	0.991418
	C128	C	0.000941	0.624308	0.377927
	C129	C	0.984563	0.623838	0.620873
	C130	C	0.001454	0.381345	0.620378
	C131	C	0.983815	0.381733	0.377947
	C132	C	0.871525	0.511836	0.120630
	C133	C	0.113367	0.494725	0.121358
	C134	C	0.113909	0.511168	0.877880
	C135	C	0.872866	0.494809	0.878577
	C136	C	0.113916	0.881617	0.506771
	C137	C	0.115196	0.125100	0.490420
	C138	C	0.871283	0.123681	0.507699
	C139	C	0.871223	0.880767	0.491616
	C140	C	0.500455	0.122633	0.879584
	C141	C	0.484311	0.123522	0.121542
	C142	C	0.500894	0.881300	0.121127
	C143	C	0.483925	0.881311	0.878352
	C144	C	0.366704	0.892774	0.682249
	C145	C	0.616451	0.112608	0.681295
	C146	C	0.617060	0.890871	0.317617
	C147	C	0.371579	0.113411	0.319147
	C148	C	0.674881	0.378834	0.889530
	C149	C	0.674835	0.627858	0.108401
	C150	C	0.311589	0.624779	0.889398
	C151	C	0.310580	0.379372	0.110389
	C152	C	0.881628	0.683599	0.377280
	C153	C	0.103959	0.683361	0.620920
	C154	C	0.881871	0.321970	0.621798
	C155	C	0.102666	0.321663	0.375167
	C156	C	0.882881	0.378356	0.681010
	C157	C	0.103816	0.626285	0.679426
	C158	C	0.882508	0.628215	0.317633
	C159	C	0.102520	0.379887	0.317452
	C160	C	0.369017	0.683716	0.889880
	C161	C	0.616110	0.684765	0.109337
	C162	C	0.616567	0.320699	0.889418
	C163	C	0.368708	0.321226	0.110228
	C164	C	0.673295	0.890129	0.376823
	C165	C	0.673691	0.112704	0.622790
	C166	C	0.310311	0.892162	0.622877
	C167	C	0.314205	0.114052	0.377538
	C168	C	0.868093	0.393345	0.181129
	C169	C	0.116009	0.614250	0.180299
	C170	C	0.114973	0.391047	0.819170
	C171	C	0.871051	0.614061	0.818743
	C172	C	0.174756	0.879431	0.389053
	C173	C	0.174953	0.127414	0.608748
	C174	C	0.812731	0.123923	0.388933
	C175	C	0.810954	0.878542	0.609992
	C176	C	0.381065	0.181983	0.878717
	C177	C	0.602654	0.185613	0.123729
	C178	C	0.380286	0.823498	0.121410
	C179	C	0.602884	0.821763	0.876508
	C180	C	0.381016	0.880445	0.180051
	C181	C	0.603181	0.127238	0.181192
	C182	C	0.381356	0.124998	0.820018
	C183	C	0.602519	0.878493	0.817676
	C184	C	0.871500	0.181472	0.388302
	C185	C	0.116820	0.185123	0.608777
	C186	C	0.116366	0.821720	0.388656
	C187	C	0.869753	0.821416	0.610253
	C188	C	0.170244	0.389962	0.879219
	C189	C	0.173013	0.614352	0.121603
	C190	C	0.810769	0.392983	0.122649
	C191	C	0.813019	0.613941	0.876378
	C192	C	0.397692	0.093674	0.596031
	C193	C	0.587751	0.910517	0.596237
	C194	C	0.589953	0.093136	0.402532
	C195	C	0.396716	0.910958	0.403286
	C196	C	0.587580	0.407704	0.089038
	C197	C	0.588697	0.599308	0.908813
	C198	C	0.394809	0.598843	0.090567
	C199	C	0.394133	0.404068	0.908598
	C200	C	0.083763	0.598866	0.402765
	C201	C	0.901802	0.598398	0.596728
	C202	C	0.084440	0.406553	0.595859
	C203	C	0.900861	0.406424	0.403055
	C204	C	0.897401	0.594426	0.095306
	C205	C	0.087613	0.411658	0.097069
	C206	C	0.090434	0.594900	0.901273
	C207	C	0.897757	0.412050	0.903520
	C208	C	0.088370	0.906709	0.589150
	C209	C	0.090190	0.099472	0.408394
	C210	C	0.895597	0.099511	0.590381
	C211	C	0.896003	0.905655	0.408891
	C212	C	0.583399	0.097749	0.903460
	C213	C	0.401534	0.097858	0.097175
	C214	C	0.584196	0.905541	0.096795
	C215	C	0.401127	0.906405	0.903457
	Zn216	Zn	0.492112	0.002568	0.749681
	Zn217	Zn	0.493588	0.002089	0.249857
	Zn218	Zn	0.743221	0.503357	-0.000992
	Zn219	Zn	0.241237	0.502075	-0.000296
	Zn220	Zn	-0.007188	0.752094	0.499039
	Zn221	Zn	-0.007138	0.252817	0.499232
	Zn222	Zn	-0.006888	0.502466	0.749183
	Zn223	Zn	-0.008069	0.503895	0.249953
	Zn224	Zn	0.492009	0.752970	0.000097
	Zn225	Zn	0.492505	0.251926	0.000258
	Zn226	Zn	0.741872	0.001244	0.499660
	Zn227	Zn	0.243273	0.002953	0.499361
	N228	N	0.403898	0.967632	0.681288
	N229	N	0.579411	0.037431	0.680510
	N230	N	0.581468	0.966447	0.318164
	N231	N	0.406760	0.037684	0.319656
	N232	N	0.673058	0.415988	0.963737
	N233	N	0.673797	0.591521	0.033712
	N234	N	0.312796	0.587795	0.963756
	N235	N	0.310928	0.414806	0.035368
	N236	N	0.956366	0.681303	0.414156
	N237	N	0.028831	0.682082	0.585309
	N238	N	0.956828	0.323553	0.585035
	N239	N	0.027900	0.322749	0.412094
	N240	N	0.958300	0.414464	0.680497
	N241	N	0.028540	0.589938	0.679547
	N242	N	0.957725	0.592087	0.318095
	N243	N	0.027551	0.416550	0.319048
	N244	N	0.405139	0.683003	0.964636
	N245	N	0.578918	0.683068	0.035129
	N246	N	0.579395	0.322406	0.963767
	N247	N	0.404723	0.321521	0.035368
	N248	N	0.671957	0.965216	0.413441
	N249	N	0.671863	0.037722	0.586254
	N250	N	0.312982	0.966926	0.585849
	N251	N	0.314572	0.038873	0.413736
	N252	N	0.904994	0.468358	0.180044
	N253	N	0.079657	0.538755	0.180218
	N254	N	0.081105	0.467466	0.817640
	N255	N	0.907475	0.538931	0.819834
	N256	N	0.173304	0.915862	0.463670
	N257	N	0.174176	0.090866	0.534163
	N258	N	0.812296	0.088854	0.464243
	N259	N	0.811774	0.914703	0.535079
	N260	N	0.456121	0.180815	0.914763
	N261	N	0.527833	0.183200	0.087284
	N262	N	0.455782	0.823604	0.085898
	N263	N	0.528036	0.823306	0.913449
	N264	N	0.457149	0.915367	0.180311
	N265	N	0.528698	0.089361	0.179967
	N266	N	0.456706	0.089071	0.820152
	N267	N	0.527361	0.914663	0.818439
	N268	N	0.907049	0.181457	0.463264
	N269	N	0.080526	0.183878	0.534217
	N270	N	0.079196	0.822952	0.462992
	N271	N	0.906256	0.822557	0.535545
	N272	N	0.170003	0.465714	0.914590
	N273	N	0.171477	0.538989	0.085749
	N274	N	0.812787	0.467822	0.085879
	N275	N	0.814069	0.538947	0.912763
	O276	O	0.869950	0.977347	0.168849
	H277	H	0.864457	0.986740	0.170121
	H278	H	0.853515	0.988243	0.157514
	O279	O	0.019262	0.078855	0.088933
	H280	H	0.028902	0.081484	0.086347
	H281	H	0.021588	0.072697	0.092307
	O282	O	0.894776	0.989534	0.160346
	H283	H	0.900384	0.997948	0.147807
	H284	H	0.874496	0.996057	0.168686
	O285	O	0.484381	0.366164	0.289935
	H286	H	0.489840	0.373279	0.294710
	H287	H	0.492420	0.368113	0.276961
	O288	O	-0.201134	0.045966	-0.071419
	H289	H	-0.197996	0.025121	-0.076796
	H290	H	-0.215632	0.069189	-0.060962
	O291	O	1.431766	0.551247	0.713017
	H292	H	1.443618	0.543751	0.717428
	H293	H	1.427801	0.530754	0.709103
	O294	O	-0.287965	1.267239	0.274968
	H295	H	-0.298106	1.263155	0.266457
	H296	H	-0.284032	1.262791	0.313132
	O297	O	0.088689	0.022720	0.198014
	H298	H	0.070422	0.021628	0.200339
	H299	H	0.103039	0.031750	0.200518
	O300	O	0.556364	0.519346	0.521325
	H301	H	0.557649	0.536006	0.519664
	H302	H	0.566173	0.526589	0.529520
	O303	O	0.694457	0.552796	0.465244
	H304	H	0.704534	0.547836	0.472747
	H305	H	0.701783	0.570800	0.487766
	O306	O	0.690685	0.699720	0.677275
	H307	H	0.649944	0.707344	0.683251
	H308	H	0.712631	0.724369	0.667426
	O309	O	0.491536	0.432279	0.662363
	H310	H	0.498010	0.414415	0.664271
	H311	H	0.492412	0.437785	0.660998
	O312	O	0.516120	0.713090	0.706653
	H313	H	0.511764	0.718953	0.720106
	H314	H	0.504636	0.714041	0.701844
	O315	O	0.698031	-0.470974	1.705108
	H316	H	0.682162	-0.442733	1.702050
	H317	H	0.720808	-0.458370	1.727446
	O318	O	-0.071430	0.963513	-0.201073
	H319	H	-0.069187	0.966374	-0.194251
	H320	H	-0.082992	0.967837	-0.201504
	O321	O	0.343088	0.552153	-0.568109
	H322	H	0.340877	0.565160	-0.575835
	H323	H	0.343432	0.568066	-0.582838
	O324	O	0.871446	0.102935	1.004532
	H325	H	0.879318	0.118267	0.988641
	H326	H	0.868555	0.098360	0.994238
	O327	O	0.938008	-0.152699	1.148666
	H328	H	0.936378	-0.119191	1.147837
	H329	H	0.953625	-0.155557	1.163681
	O330	O	0.821351	0.129985	0.148033
	H331	H	0.807825	0.144431	0.146403
	H332	H	0.829914	0.127525	0.129725
	O333	O	1.321875	0.701761	1.305899
	H334	H	1.314805	0.706296	1.314819
	H335	H	1.322830	0.698727	1.296471
	O336	O	0.547119	0.555070	0.594562
	H337	H	0.539101	0.560232	0.580157
	H338	H	0.543209	0.561462	0.588534
	O339	O	0.297357	0.302674	0.696561
	H340	H	0.297219	0.297023	0.712091
	H341	H	0.298364	0.329527	0.682125
	O342	O	-0.005287	1.027676	1.098753
	H343	H	-0.013272	1.047222	1.103633
	H344	H	-0.003091	1.036331	1.082997
	O345	O	-0.024590	0.200132	-0.177916
	H346	H	-0.007220	0.199459	-0.189709
	H347	H	-0.007923	0.198325	-0.163909
	O348	O	0.784413	0.089275	0.794641
	H349	H	0.762397	0.092447	0.789185
	H350	H	0.796917	0.084538	0.795554
	O351	O	1.188714	1.207238	0.019707
	H352	H	1.195606	1.224913	0.044726
	H353	H	1.194535	1.209559	0.039343
	O354	O	0.344807	0.476565	0.478214
	H355	H	0.349986	0.479509	0.477451
	H356	H	0.350795	0.477696	0.486353
	O357	O	1.272963	1.469206	0.717580
	H358	H	1.265697	1.465216	0.724468
	H359	H	1.257476	1.482552	0.720910
	O360	O	0.333714	0.656322	0.602548
	H361	H	0.359703	0.639304	0.604315
	H362	H	0.334140	0.659918	0.585990
	O363	O	0.559569	0.608110	0.466682
	H364	H	0.572844	0.615862	0.448896
	H365	H	0.555981	0.599249	0.478575
	O366	O	1.118076	0.115344	0.901265
	H367	H	1.114889	0.091762	0.904548
	H368	H	1.120338	0.129302	0.903134
	O369	O	0.850225	0.793997	0.855913
	H370	H	0.860389	0.802645	0.872776
	H371	H	0.840152	0.794929	0.878623
	O372	O	0.448272	0.538112	0.364010
	H373	H	0.442117	0.537835	0.356036
	H374	H	0.460645	0.528104	0.376673
	O375	O	0.025178	0.968922	0.918545
	H376	H	0.023507	0.969110	0.911922
	H377	H	0.023087	0.970750	0.924403
	O378	O	0.282211	0.630508	0.377342
	H379	H	0.283233	0.628586	0.378935
	H380	H	0.270832	0.630996	0.357794
	O381	O	1.003808	-0.166513	-0.030935
	H382	H	1.011087	-0.163108	-0.034649
	H383	H	1.009990	-0.161070	-0.020741
	O384	O	0.052800	-0.198385	1.185691
	H385	H	0.059893	-0.183526	1.195437
	H386	H	0.054513	-0.193893	1.178656
	O387	O	-0.179887	1.163352	0.799539
	H388	H	-0.165991	1.149560	0.797227
	H389	H	-0.163084	1.165899	0.785027
	O390	O	0.023450	0.165546	1.182057
	H391	H	0.036421	0.159937	1.178059
	H392	H	0.012733	0.182094	1.196337
	O393	O	0.808939	1.032006	0.023547
	H394	H	0.805969	1.047869	0.017384
	H395	H	0.812043	1.026145	0.002858
	O396	O	0.281002	0.478409	0.378595
	H397	H	0.285259	0.485050	0.376608
	H398	H	0.276831	0.480327	0.388287
	O399	O	0.312360	0.323072	0.499039
	H400	H	0.303986	0.322269	0.501516
	H401	H	0.304141	0.307895	0.509403
	O402	O	0.098168	-0.076081	1.126808
	H403	H	0.092311	-0.073729	1.128172
	H404	H	0.098747	-0.071391	1.129345
	O405	O	0.093436	-0.204529	-0.011332
	H406	H	0.103518	-0.217846	-0.005994
	H407	H	0.084952	-0.205800	-0.041901
	O408	O	0.560946	0.647215	0.323224
	H409	H	0.564637	0.651283	0.313308
	H410	H	0.567796	0.637075	0.324922
	O411	O	0.229707	0.779563	0.769937
	H412	H	0.219203	0.782874	0.768408
	H413	H	0.232402	0.763601	0.744883
	O414	O	0.385497	0.362174	0.357096
	H415	H	0.388833	0.362257	0.365945
	H416	H	0.405805	0.361489	0.355906
	O417	O	0.579942	0.702175	0.401603
	H418	H	0.555593	0.708520	0.391422
	H419	H	0.572809	0.724042	0.381447
	O420	O	0.655183	0.444041	0.522584
	H421	H	0.668413	0.439203	0.524251
	H422	H	0.647214	0.457931	0.522253
	O423	O	0.223882	1.246890	0.249384
	H424	H	0.236260	1.241019	0.252734
	H425	H	0.232549	1.259352	0.275916
	O426	O	1.180668	0.942988	1.064798
	H427	H	1.196747	0.950077	1.076684
	H428	H	1.180321	0.947969	1.039973
	O429	O	0.461052	0.289158	0.719605
	H430	H	0.469231	0.270648	0.734563
	H431	H	0.439076	0.291876	0.717502
	O432	O	0.703126	0.486080	0.282705
	H433	H	0.729342	0.467771	0.260759
	H434	H	0.701904	0.472757	0.303054
	O435	O	0.078908	-0.199994	-0.178985
	H436	H	0.064640	-0.205685	-0.183930
	H437	H	0.074809	-0.209987	-0.182600
	O438	O	1.196075	0.002137	0.012282
	H439	H	1.198129	0.004879	0.011853
	H440	H	1.197863	0.005656	0.007022
	O441	O	0.458461	0.353727	0.517209
	H442	H	0.471038	0.363792	0.522050
	H443	H	0.437409	0.351055	0.513983
	O444	O	0.015316	1.190036	0.967948
	H445	H	0.001985	1.196071	0.971931
	H446	H	0.027153	1.176719	0.967514
	O447	O	0.706144	0.287301	0.459340
	H448	H	0.713415	0.269128	0.466840
	H449	H	0.699599	0.281028	0.483914
	O450	O	0.496580	0.505060	0.518927
	H451	H	0.504780	0.514717	0.499698
	H452	H	0.485109	0.493207	0.517431
	O453	O	0.608657	0.598514	0.351067
	H454	H	0.610267	0.587233	0.353048
	H455	H	0.614713	0.592163	0.337224
	O456	O	1.193127	-0.015820	-0.209175
	H457	H	1.218485	-0.021098	-0.219285
	H458	H	1.173926	-0.037946	-0.202455
	O459	O	1.017396	0.080000	0.836724
	H460	H	1.031803	0.067636	0.842242
	H461	H	1.006692	0.072535	0.833364
	O462	O	0.606558	0.339374	0.613896
	H463	H	0.603102	0.347363	0.620659
	H464	H	0.599871	0.349537	0.619607
	O465	O	0.787285	-0.168944	0.050159
	H466	H	0.796834	-0.163799	0.077541
	H467	H	0.771982	-0.185176	0.067877
