data_Molecule from HDF5

_cell_length_a		16.212762
_cell_length_b		16.235551
_cell_length_c		16.179368
_cell_angle_alpha	89.787848
_cell_angle_beta	89.928297
_cell_angle_gamma	90.039776
_symmetry_space_group_name_H-M	'P 1'
_symmetry_Int_Tables_number		1

loop_
	_symmetry_equiv_pos_as_xyz
	x,y,z

loop_
	_atom_site_label
	_atom_site_type_symbol
	_atom_site_fract_x
	_atom_site_fract_y
	_atom_site_fract_z
	H0	H	0.399837	0.832694	0.717335
	H1	H	0.597618	0.161257	0.714996
	H2	H	0.597332	0.832135	0.288986
	H3	H	0.400818	0.161340	0.287673
	H4	H	0.715665	0.397770	0.838944
	H5	H	0.713041	0.595812	0.166978
	H6	H	0.286178	0.596370	0.838112
	H7	H	0.285166	0.397391	0.167073
	H8	H	0.835268	0.711319	0.403692
	H9	H	0.163308	0.712510	0.601998
	H10	H	0.836461	0.279823	0.604199
	H11	H	0.163961	0.282245	0.403902
	H12	H	0.835896	0.397237	0.718237
	H13	H	0.165018	0.593832	0.715059
	H14	H	0.835601	0.596213	0.287934
	H15	H	0.164273	0.398555	0.288199
	H16	H	0.400163	0.710917	0.838207
	H17	H	0.598335	0.709727	0.166874
	H18	H	0.601163	0.282405	0.838004
	H19	H	0.399713	0.281074	0.166551
	H20	H	0.714014	0.832818	0.402334
	H21	H	0.713585	0.160516	0.600169
	H22	H	0.283327	0.833177	0.602409
	H23	H	0.284022	0.160881	0.401345
	H24	H	0.899913	0.333139	0.218474
	H25	H	0.097573	0.661369	0.216317
	H26	H	0.099094	0.332590	0.790355
	H27	H	0.900950	0.660625	0.786641
	H28	H	0.213976	0.896363	0.337864
	H29	H	0.214169	0.095658	0.665326
	H30	H	0.786417	0.094983	0.336884
	H31	H	0.785458	0.896797	0.666664
	H32	H	0.335392	0.212445	0.902214
	H33	H	0.663289	0.211820	0.101099
	H34	H	0.334553	0.781420	0.101693
	H35	H	0.663642	0.781870	0.903033
	H36	H	0.334216	0.898872	0.216250
	H37	H	0.664721	0.093385	0.214556
	H38	H	0.334805	0.095786	0.787554
	H39	H	0.663418	0.898470	0.787710
	H40	H	0.900175	0.212707	0.337976
	H41	H	0.099929	0.209779	0.666783
	H42	H	0.098696	0.781682	0.338314
	H43	H	0.899683	0.781924	0.666852
	H44	H	0.214424	0.333527	0.903439
	H45	H	0.215041	0.660577	0.102388
	H46	H	0.783817	0.333885	0.103281
	H47	H	0.785395	0.661316	0.902136
	H48	H	0.404177	0.113536	0.589349
	H49	H	0.588523	0.881921	0.592065
	H50	H	0.600834	0.118656	0.401898
	H51	H	0.399969	0.880610	0.418198
	H52	H	0.593520	0.398381	0.122054
	H53	H	0.582739	0.582826	0.889814
	H54	H	0.406663	0.589262	0.120020
	H55	H	0.397202	0.411959	0.884213
	H56	H	0.123231	0.599196	0.398703
	H57	H	0.882765	0.584040	0.598560
	H58	H	0.123143	0.386562	0.600555
	H59	H	0.882967	0.402229	0.415428
	H60	H	0.112622	0.406018	0.581060
	H61	H	0.880515	0.592821	0.598699
	H62	H	0.114313	0.595619	0.422612
	H63	H	0.883961	0.408150	0.410748
	H64	H	0.406088	0.590669	0.120697
	H65	H	0.589806	0.602280	0.881158
	H66	H	0.594932	0.408758	0.118897
	H67	H	0.417167	0.408898	0.889587
	H68	H	0.582483	0.112077	0.405654
	H69	H	0.596640	0.878255	0.593206
	H70	H	0.402540	0.114950	0.596716
	H71	H	0.402253	0.876216	0.401213
	H72	H	0.903508	0.614990	0.096707
	H73	H	0.098551	0.378893	0.091572
	H74	H	0.097419	0.614002	0.917724
	H75	H	0.898750	0.377079	0.909529
	H76	H	0.090027	0.901409	0.620100
	H77	H	0.080688	0.092286	0.386957
	H78	H	0.908850	0.085285	0.618160
	H79	H	0.910274	0.888085	0.380505
	H80	H	0.612435	0.076637	0.909622
	H81	H	0.381904	0.097345	0.086666
	H82	H	0.618093	0.897328	0.096132
	H83	H	0.382570	0.905434	0.910499
	H84	H	0.614956	0.904445	0.091670
	H85	H	0.386464	0.078928	0.092806
	H86	H	0.620789	0.094790	0.898379
	H87	H	0.381199	0.903526	0.907915
	H88	H	0.907941	0.091767	0.619180
	H89	H	0.097332	0.097963	0.379366
	H90	H	0.092936	0.905936	0.620059
	H91	H	0.891532	0.908475	0.381661
	H92	H	0.097627	0.618120	0.901669
	H93	H	0.092839	0.377786	0.103628
	H94	H	0.910086	0.613724	0.095946
	H95	H	0.913266	0.380477	0.905284
	H96	H	0.410445	0.113149	0.595336
	H97	H	0.590579	0.878268	0.601051
	H98	H	0.595674	0.111335	0.419536
	H99	H	0.415587	0.883306	0.411065
	H100	H	0.585513	0.404546	0.118331
	H101	H	0.604714	0.585017	0.882615
	H102	H	0.405838	0.589435	0.121215
	H103	H	0.406174	0.393277	0.880968
	H104	H	0.114046	0.576281	0.406534
	H105	H	0.883954	0.589708	0.590399
	H106	H	0.118009	0.413492	0.608842
	H107	H	0.881915	0.402402	0.407520
	H108	H	0.906163	0.614484	0.091422
	H109	H	0.085875	0.382900	0.093027
	H110	H	0.083636	0.611869	0.909600
	H111	H	0.908253	0.382795	0.919727
	H112	H	0.088314	0.906017	0.617668
	H113	H	0.095339	0.079807	0.385935
	H114	H	0.902423	0.087356	0.620725
	H115	H	0.917557	0.913893	0.390483
	H116	H	0.615331	0.096410	0.920117
	H117	H	0.377854	0.091609	0.104920
	H118	H	0.616581	0.904825	0.100304
	H119	H	0.381550	0.901123	0.911041
	C120	C	0.376795	0.005365	0.623639
	C121	C	0.620747	0.988070	0.623598
	C122	C	0.621226	0.005146	0.380537
	C123	C	0.376834	0.988484	0.380127
	C124	C	0.620833	0.375360	0.011323
	C125	C	0.620735	0.618187	0.993709
	C126	C	0.377956	0.618235	0.011472
	C127	C	0.378038	0.375460	0.993761
	C128	C	0.008263	0.618369	0.381160
	C129	C	0.991092	0.617778	0.624040
	C130	C	0.009245	0.373940	0.625482
	C131	C	0.991142	0.375496	0.381709
	C132	C	0.877651	0.505959	0.124323
	C133	C	0.121074	0.488394	0.124540
	C134	C	0.121684	0.505762	0.881022
	C135	C	0.877846	0.488558	0.881297
	C136	C	0.119835	0.875544	0.510488
	C137	C	0.120276	0.117996	0.492829
	C138	C	0.877845	0.117821	0.510723
	C139	C	0.877615	0.874746	0.493451
	C140	C	0.507854	0.118542	0.880264
	C141	C	0.490680	0.118090	0.123641
	C142	C	0.507630	0.874089	0.124574
	C143	C	0.490724	0.875352	0.881165
	C144	C	0.379179	0.881918	0.679741
	C145	C	0.618594	0.111909	0.678064
	C146	C	0.618077	0.881564	0.326196
	C147	C	0.380140	0.112100	0.325107
	C148	C	0.677323	0.377402	0.887686
	C149	C	0.675406	0.615503	0.117686
	C150	C	0.323496	0.616181	0.887412
	C151	C	0.322971	0.377188	0.117855
	C152	C	0.884516	0.673518	0.383392
	C153	C	0.114659	0.673841	0.621981
	C154	C	0.885254	0.318287	0.624128
	C155	C	0.115076	0.320363	0.383599
	C156	C	0.885142	0.376525	0.680933
	C157	C	0.115380	0.614999	0.678209
	C158	C	0.884533	0.616154	0.326122
	C159	C	0.114898	0.377863	0.325758
	C160	C	0.380261	0.673305	0.887455
	C161	C	0.618344	0.672368	0.117736
	C162	C	0.620310	0.320104	0.887341
	C163	C	0.379796	0.319412	0.117475
	C164	C	0.676061	0.881755	0.382535
	C165	C	0.675967	0.111587	0.620672
	C166	C	0.320941	0.882230	0.622691
	C167	C	0.321776	0.111784	0.381560
	C168	C	0.879840	0.382261	0.180229
	C169	C	0.118483	0.612213	0.179034
	C170	C	0.118934	0.381977	0.827014
	C171	C	0.880654	0.611765	0.825113
	C172	C	0.175875	0.876608	0.387001
	C173	C	0.175920	0.115640	0.616672
	C174	C	0.823825	0.115598	0.386129
	C175	C	0.822952	0.876873	0.617392
	C176	C	0.384583	0.174569	0.882010
	C177	C	0.614546	0.173318	0.121322
	C178	C	0.383579	0.819462	0.121927
	C179	C	0.614472	0.820146	0.883002
	C180	C	0.383483	0.877721	0.179107
	C181	C	0.615090	0.114690	0.177744
	C182	C	0.384049	0.116376	0.825097
	C183	C	0.614359	0.877905	0.825558
	C184	C	0.879852	0.174504	0.386929
	C185	C	0.119117	0.172205	0.617382
	C186	C	0.118350	0.819857	0.387122
	C187	C	0.879845	0.819721	0.617598
	C188	C	0.176613	0.382412	0.883509
	C189	C	0.176366	0.611921	0.122175
	C190	C	0.821943	0.382506	0.123084
	C191	C	0.823075	0.612079	0.882549
	C192	C	0.399184	0.091549	0.600447
	C193	C	0.598482	0.901722	0.601818
	C194	C	0.599395	0.091701	0.402580
	C195	C	0.399257	0.902251	0.403434
	C196	C	0.597995	0.397344	0.097330
	C197	C	0.598934	0.596375	0.906871
	C198	C	0.399653	0.596197	0.098453
	C199	C	0.400378	0.398067	0.907339
	C200	C	0.095008	0.596723	0.402977
	C201	C	0.904815	0.595526	0.602215
	C202	C	0.095279	0.395655	0.603275
	C203	C	0.905343	0.397765	0.404617
	C204	C	0.899986	0.592128	0.101309
	C205	C	0.098975	0.402176	0.102598
	C206	C	0.099523	0.592366	0.903210
	C207	C	0.899948	0.402317	0.904781
	C208	C	0.097053	0.898005	0.596969
	C209	C	0.097810	0.096420	0.406678
	C210	C	0.900018	0.095072	0.597029
	C211	C	0.899854	0.896923	0.406468
	C212	C	0.593994	0.095907	0.902710
	C213	C	0.404389	0.095934	0.101440
	C214	C	0.594245	0.895655	0.102451
	C215	C	0.404112	0.896871	0.903316
	Zn216	Zn	0.499155	-0.002786	0.751908
	Zn217	Zn	0.499527	-0.003071	0.252392
	Zn218	Zn	0.749086	0.497504	0.002710
	Zn219	Zn	0.249641	0.497307	0.002555
	Zn220	Zn	-0.000569	0.747055	0.502597
	Zn221	Zn	-0.000062	0.246116	0.503156
	Zn222	Zn	0.000313	0.496628	0.753344
	Zn223	Zn	-0.000653	0.497336	0.252658
	Zn224	Zn	0.499351	0.745721	0.002511
	Zn225	Zn	0.499771	0.246935	0.002093
	Zn226	Zn	0.749460	-0.003851	0.501924
	Zn227	Zn	0.247879	-0.002973	0.501375
	N228	N	0.413286	0.959598	0.680305
	N229	N	0.584917	0.034131	0.680048
	N230	N	0.584455	0.959289	0.325046
	N231	N	0.413533	0.034210	0.323994
	N232	N	0.677965	0.411259	0.965444
	N233	N	0.676876	0.582505	0.039413
	N234	N	0.321716	0.582833	0.965687
	N235	N	0.321596	0.411304	0.039947
	N236	N	0.962588	0.675274	0.416833
	N237	N	0.036321	0.675892	0.589128
	N238	N	0.963077	0.316429	0.590370
	N239	N	0.037373	0.318615	0.417598
	N240	N	0.963113	0.410342	0.682072
	N241	N	0.037813	0.580745	0.679518
	N242	N	0.962537	0.582715	0.324599
	N243	N	0.037039	0.411619	0.324588
	N244	N	0.413515	0.674499	0.965490
	N245	N	0.584989	0.674069	0.039619
	N246	N	0.585747	0.318751	0.965123
	N247	N	0.413192	0.318061	0.039241
	N248	N	0.678219	0.959681	0.415628
	N249	N	0.677576	0.033507	0.587677
	N250	N	0.319562	0.959977	0.588441
	N251	N	0.319822	0.033833	0.415118
	N252	N	0.913473	0.460026	0.181058
	N253	N	0.084834	0.534415	0.180479
	N254	N	0.085428	0.459833	0.825608
	N255	N	0.914124	0.533907	0.824324
	N256	N	0.176828	0.910473	0.464838
	N257	N	0.176595	0.082465	0.538527
	N258	N	0.822549	0.081057	0.463836
	N259	N	0.821714	0.910480	0.539034
	N260	N	0.462619	0.175976	0.915625
	N261	N	0.536319	0.175647	0.088518
	N262	N	0.461923	0.816905	0.088795
	N263	N	0.536615	0.818499	0.916749
	N264	N	0.461575	0.910934	0.180738
	N265	N	0.537134	0.081105	0.179270
	N266	N	0.461819	0.082336	0.823923
	N267	N	0.536268	0.911621	0.824219
	N268	N	0.912813	0.175970	0.465379
	N269	N	0.085141	0.173993	0.539478
	N270	N	0.084204	0.819250	0.464912
	N271	N	0.913201	0.818409	0.539472
	N272	N	0.178424	0.460546	0.916350
	N273	N	0.178092	0.533996	0.088844
	N274	N	0.820438	0.460423	0.089149
	N275	N	0.821578	0.534384	0.917057
	O276	O	1.042940	0.956871	-0.007763
	H277	H	1.039662	0.953001	-0.007436
	H278	H	1.046385	0.956820	-0.006361
	O279	O	-0.001909	0.004102	-0.014593
	H280	H	-0.000808	0.009354	-0.010914
	H281	H	0.007192	0.001190	-0.028074
	O282	O	-0.028607	0.012626	0.907724
	H283	H	-0.036954	0.014346	0.910466
	H284	H	-0.031522	0.004687	0.906058
	O285	O	0.513442	0.476483	0.474733
	H286	H	0.513091	0.478007	0.484660
	H287	H	0.506358	0.487020	0.479572
	O288	O	0.564495	0.501785	0.449838
	H289	H	0.571535	0.499110	0.445271
	H290	H	0.558824	0.511358	0.444197
	O291	O	0.549118	0.492603	0.518299
	H292	H	0.563258	0.498560	0.514193
	H293	H	0.551259	0.490428	0.529416
	O294	O	0.043487	0.045963	-0.053653
	H295	H	0.043811	0.050972	-0.054080
	H296	H	0.057938	0.050900	-0.050065
	O297	O	0.540699	0.500009	0.486199
	H298	H	0.531016	0.494269	0.484154
	H299	H	0.538450	0.493370	0.481205
	O300	O	-0.007721	1.011742	0.994493
	H301	H	-0.005973	1.011240	1.000553
	H302	H	-0.008182	1.007639	1.002540
	O303	O	0.489457	0.473885	0.485445
	H304	H	0.494671	0.469338	0.489725
	H305	H	0.497389	0.473555	0.471821
	O306	O	-0.040546	0.086202	0.971763
	H307	H	-0.044907	0.083821	0.971202
	H308	H	-0.038067	0.093404	0.977621
	O309	O	0.992015	1.080257	1.013432
	H310	H	0.987203	1.082617	1.011147
	H311	H	0.995131	1.073126	1.020622
	O312	O	0.574074	0.495481	0.480851
	H313	H	0.576108	0.492319	0.485396
	H314	H	0.567695	0.495634	0.481613
	O315	O	0.500139	0.473028	0.438622
	H316	H	0.497218	0.471604	0.434561
	H317	H	0.506846	0.471099	0.439183
	O318	O	-0.002473	0.992763	-0.024628
	H319	H	0.003765	0.990445	-0.034188
	H320	H	0.001422	0.989903	-0.028048
	O321	O	1.024111	1.036289	-0.040713
	H322	H	1.016490	1.047072	-0.042605
	H323	H	1.015711	1.039942	-0.043630
