data_Molecule from HDF5

_cell_length_a		16.253847
_cell_length_b		16.299330
_cell_length_c		16.192646
_cell_angle_alpha	89.901669
_cell_angle_beta	90.008755
_cell_angle_gamma	90.050631
_symmetry_space_group_name_H-M	'P 1'
_symmetry_Int_Tables_number		1

loop_
	_symmetry_equiv_pos_as_xyz
	x,y,z

loop_
	_atom_site_label
	_atom_site_type_symbol
	_atom_site_fract_x
	_atom_site_fract_y
	_atom_site_fract_z
	H0	H	0.400366	0.836336	0.720637
	H1	H	0.595165	0.163879	0.719739
	H2	H	0.595456	0.835809	0.293465
	H3	H	0.402130	0.163639	0.293735
	H4	H	0.709941	0.403674	0.841942
	H5	H	0.710245	0.596935	0.172428
	H6	H	0.283235	0.598293	0.842571
	H7	H	0.286626	0.404073	0.172695
	H8	H	0.833826	0.714192	0.408456
	H9	H	0.161705	0.713359	0.605892
	H10	H	0.834486	0.284149	0.606847
	H11	H	0.161877	0.285878	0.408765
	H12	H	0.833184	0.403199	0.719979
	H13	H	0.162840	0.596473	0.719827
	H14	H	0.833649	0.597342	0.293935
	H15	H	0.162285	0.403112	0.294332
	H16	H	0.398880	0.714505	0.841793
	H17	H	0.595402	0.713325	0.172016
	H18	H	0.594859	0.287280	0.842088
	H19	H	0.397836	0.285276	0.171200
	H20	H	0.712120	0.835971	0.408432
	H21	H	0.712445	0.163017	0.604878
	H22	H	0.283133	0.836367	0.605259
	H23	H	0.283466	0.163531	0.407304
	H24	H	0.900029	0.335628	0.221267
	H25	H	0.096137	0.663258	0.221526
	H26	H	0.094905	0.335127	0.794586
	H27	H	0.899914	0.663881	0.793021
	H28	H	0.210620	0.902394	0.341991
	H29	H	0.211830	0.097325	0.671690
	H30	H	0.783961	0.098282	0.342914
	H31	H	0.784833	0.901496	0.672045
	H32	H	0.333387	0.214505	0.907206
	H33	H	0.661575	0.214772	0.104464
	H34	H	0.333427	0.785569	0.105659
	H35	H	0.661553	0.786577	0.908890
	H36	H	0.333001	0.902574	0.220356
	H37	H	0.662342	0.097237	0.219064
	H38	H	0.333805	0.097969	0.791847
	H39	H	0.662018	0.903533	0.793446
	H40	H	0.899156	0.214522	0.342895
	H41	H	0.096454	0.213123	0.671999
	H42	H	0.096131	0.785603	0.342936
	H43	H	0.900105	0.785847	0.672083
	H44	H	0.212547	0.336365	0.909059
	H45	H	0.212045	0.663698	0.105854
	H46	H	0.781314	0.336581	0.107116
	H47	H	0.783144	0.663986	0.907891
	H48	H	0.405728	0.113248	0.588446
	H49	H	0.592302	0.878868	0.611255
	H50	H	0.591985	0.117966	0.408464
	H51	H	0.396424	0.880681	0.413771
	H52	H	0.586825	0.410873	0.121963
	H53	H	0.597662	0.596228	0.886819
	H54	H	0.414057	0.596278	0.122957
	H55	H	0.401937	0.403033	0.887600
	H56	H	0.110223	0.592054	0.428348
	H57	H	0.883904	0.592952	0.589553
	H58	H	0.114206	0.410487	0.601500
	H59	H	0.881378	0.410476	0.410557
	H60	H	0.117233	0.403112	0.605566
	H61	H	0.881613	0.583945	0.607694
	H62	H	0.114820	0.583457	0.404084
	H63	H	0.877673	0.400713	0.411450
	H64	H	0.398274	0.600835	0.128523
	H65	H	0.589599	0.587175	0.891670
	H66	H	0.587899	0.400681	0.125274
	H67	H	0.401799	0.411787	0.890334
	H68	H	0.588500	0.115181	0.415751
	H69	H	0.581036	0.886835	0.596654
	H70	H	0.393132	0.120936	0.603231
	H71	H	0.407798	0.881859	0.407308
	H72	H	0.905672	0.616851	0.104616
	H73	H	0.089976	0.385952	0.093151
	H74	H	0.086609	0.614419	0.914479
	H75	H	0.910670	0.386410	0.917810
	H76	H	0.088306	0.908522	0.623248
	H77	H	0.091417	0.091289	0.390458
	H78	H	0.911237	0.097910	0.624128
	H79	H	0.912601	0.910693	0.393556
	H80	H	0.612861	0.093383	0.918935
	H81	H	0.378857	0.093608	0.104982
	H82	H	0.612818	0.909660	0.098289
	H83	H	0.375761	0.900822	0.903000
	H84	H	0.615958	0.905862	0.104131
	H85	H	0.380662	0.097188	0.096016
	H86	H	0.614024	0.090523	0.909533
	H87	H	0.382594	0.900543	0.925618
	H88	H	0.898172	0.093717	0.626959
	H89	H	0.088780	0.094570	0.389972
	H90	H	0.090472	0.902504	0.625385
	H91	H	0.905150	0.896925	0.387036
	H92	H	0.094502	0.615570	0.917428
	H93	H	0.098850	0.380852	0.102327
	H94	H	0.907224	0.614077	0.096821
	H95	H	0.895773	0.383147	0.919308
	H96	H	0.412793	0.116785	0.606807
	H97	H	0.599779	0.882760	0.593075
	H98	H	0.596835	0.117197	0.415132
	H99	H	0.407360	0.885669	0.419893
	H100	H	0.596288	0.407567	0.125873
	H101	H	0.585013	0.598802	0.889770
	H102	H	0.401226	0.584438	0.122611
	H103	H	0.409163	0.407292	0.890426
	H104	H	0.120103	0.607411	0.409971
	H105	H	0.876106	0.603296	0.605174
	H106	H	0.114811	0.402711	0.597023
	H107	H	0.882874	0.405283	0.419980
	H108	H	0.899917	0.617467	0.099005
	H109	H	0.085120	0.383744	0.106099
	H110	H	0.092162	0.617818	0.909699
	H111	H	0.902618	0.380915	0.905842
	H112	H	0.094795	0.907524	0.625587
	H113	H	0.092072	0.094748	0.388876
	H114	H	0.907353	0.084505	0.621410
	H115	H	0.897200	0.911726	0.388639
	H116	H	0.616233	0.099079	0.911574
	H117	H	0.382648	0.088558	0.098364
	H118	H	0.614373	0.902469	0.097478
	H119	H	0.384478	0.919970	0.913197
	C120	C	0.375909	0.008688	0.627919
	C121	C	0.619461	0.991196	0.628723
	C122	C	0.620198	0.008318	0.384900
	C123	C	0.375925	0.991040	0.385168
	C124	C	0.618518	0.378749	0.015486
	C125	C	0.618971	0.621826	0.998761
	C126	C	0.376074	0.621816	0.015335
	C127	C	0.376196	0.378759	0.998349
	C128	C	0.006358	0.622104	0.385496
	C129	C	0.989521	0.621180	0.628951
	C130	C	0.006687	0.377556	0.629336
	C131	C	0.989412	0.378053	0.386111
	C132	C	0.875567	0.508137	0.129087
	C133	C	0.119415	0.491435	0.129030
	C134	C	0.119440	0.507744	0.885778
	C135	C	0.875435	0.491947	0.885694
	C136	C	0.119481	0.878022	0.515959
	C137	C	0.119355	0.121274	0.498700
	C138	C	0.876699	0.120853	0.515623
	C139	C	0.876514	0.877876	0.498633
	C140	C	0.505883	0.122095	0.885321
	C141	C	0.489309	0.121598	0.127756
	C142	C	0.505890	0.878149	0.128593
	C143	C	0.489173	0.878849	0.885393
	C144	C	0.379126	0.885239	0.683168
	C145	C	0.616107	0.114707	0.682355
	C146	C	0.616860	0.884935	0.330431
	C147	C	0.380271	0.114928	0.331167
	C148	C	0.672914	0.382290	0.891184
	C149	C	0.672917	0.618144	0.123037
	C150	C	0.320876	0.619066	0.891464
	C151	C	0.322587	0.382157	0.123087
	C152	C	0.882780	0.676378	0.388299
	C153	C	0.112894	0.675884	0.626581
	C154	C	0.883112	0.322457	0.627026
	C155	C	0.113057	0.323492	0.388144
	C156	C	0.882618	0.381201	0.683498
	C157	C	0.113256	0.617424	0.683063
	C158	C	0.882921	0.618559	0.330946
	C159	C	0.113285	0.381801	0.331469
	C160	C	0.378483	0.676613	0.891031
	C161	C	0.615982	0.676001	0.122750
	C162	C	0.615508	0.324876	0.891201
	C163	C	0.378187	0.323501	0.122309
	C164	C	0.674284	0.884915	0.387973
	C165	C	0.674372	0.114283	0.625563
	C166	C	0.321355	0.885069	0.625686
	C167	C	0.321559	0.114636	0.387498
	C168	C	0.878845	0.384585	0.183858
	C169	C	0.116391	0.614698	0.183489
	C170	C	0.115927	0.384252	0.831767
	C171	C	0.879196	0.615092	0.830787
	C172	C	0.173424	0.881538	0.391419
	C173	C	0.173700	0.117608	0.622732
	C174	C	0.821896	0.118493	0.391967
	C175	C	0.822063	0.880568	0.622863
	C176	C	0.382344	0.176836	0.886973
	C177	C	0.612623	0.176927	0.125165
	C178	C	0.382396	0.823449	0.126222
	C179	C	0.612593	0.824089	0.887784
	C180	C	0.382330	0.881646	0.183184
	C181	C	0.613137	0.118586	0.182160
	C182	C	0.382341	0.118577	0.830229
	C183	C	0.612835	0.882507	0.831041
	C184	C	0.879185	0.176235	0.391870
	C185	C	0.116751	0.175560	0.622833
	C186	C	0.116478	0.823709	0.391757
	C187	C	0.879401	0.823139	0.622849
	C188	C	0.174266	0.384796	0.888863
	C189	C	0.174115	0.614833	0.126193
	C190	C	0.820163	0.384920	0.127030
	C191	C	0.821254	0.615137	0.888085
	C192	C	0.397400	0.094682	0.606018
	C193	C	0.597449	0.905026	0.606880
	C194	C	0.598787	0.094497	0.406613
	C195	C	0.397474	0.905168	0.407097
	C196	C	0.596680	0.399977	0.101898
	C197	C	0.597215	0.600360	0.911859
	C198	C	0.398073	0.600282	0.102205
	C199	C	0.397947	0.400814	0.911882
	C200	C	0.092722	0.600754	0.407632
	C201	C	0.902780	0.599779	0.607162
	C202	C	0.093027	0.399179	0.607706
	C203	C	0.903056	0.399203	0.407649
	C204	C	0.897823	0.593914	0.106734
	C205	C	0.097815	0.405561	0.106909
	C206	C	0.097606	0.593984	0.907489
	C207	C	0.896675	0.405696	0.907837
	C208	C	0.097524	0.899577	0.602254
	C209	C	0.097257	0.099994	0.412078
	C210	C	0.899039	0.098531	0.601990
	C211	C	0.898411	0.899721	0.412145
	C212	C	0.592035	0.100906	0.907089
	C213	C	0.403033	0.099600	0.106184
	C214	C	0.592325	0.899666	0.106526
	C215	C	0.402988	0.900652	0.907571
	Zn216	Zn	0.497587	0.000593	0.756945
	Zn217	Zn	0.498106	-0.000014	0.256818
	Zn218	Zn	0.746589	0.500087	0.007429
	Zn219	Zn	0.248332	0.499942	0.007446
	Zn220	Zn	-0.002037	0.749835	0.507436
	Zn221	Zn	-0.001807	0.249358	0.507524
	Zn222	Zn	-0.002279	0.499524	0.757109
	Zn223	Zn	-0.001872	0.499861	0.257637
	Zn224	Zn	0.497336	0.750242	0.006814
	Zn225	Zn	0.496783	0.250644	0.006577
	Zn226	Zn	0.748404	-0.000903	0.507037
	Zn227	Zn	0.247446	-0.000455	0.506898
	N228	N	0.412575	0.962919	0.684477
	N229	N	0.582733	0.037269	0.684296
	N230	N	0.583767	0.962609	0.328566
	N231	N	0.413432	0.037337	0.329508
	N232	N	0.674816	0.415323	0.969359
	N233	N	0.674821	0.585288	0.044796
	N234	N	0.319692	0.585485	0.969609
	N235	N	0.321255	0.416154	0.045161
	N236	N	0.960663	0.678625	0.421665
	N237	N	0.034948	0.678285	0.593688
	N238	N	0.961139	0.320179	0.593976
	N239	N	0.035333	0.321143	0.421443
	N240	N	0.960220	0.414786	0.684842
	N241	N	0.035355	0.584085	0.684517
	N242	N	0.960712	0.585398	0.329399
	N243	N	0.035427	0.415109	0.330094
	N244	N	0.412034	0.678347	0.969090
	N245	N	0.583098	0.678478	0.044398
	N246	N	0.582391	0.322519	0.969346
	N247	N	0.410892	0.321415	0.043864
	N248	N	0.676623	0.962616	0.421026
	N249	N	0.676573	0.036308	0.592913
	N250	N	0.319188	0.962801	0.592339
	N251	N	0.318707	0.036676	0.420322
	N252	N	0.912731	0.462067	0.185244
	N253	N	0.083015	0.537076	0.185349
	N254	N	0.082464	0.461675	0.829950
	N255	N	0.912240	0.537322	0.829220
	N256	N	0.175509	0.914614	0.469510
	N257	N	0.175509	0.084715	0.544487
	N258	N	0.820492	0.084570	0.469813
	N259	N	0.820113	0.913780	0.544792
	N260	N	0.460005	0.178805	0.920625
	N261	N	0.534663	0.178866	0.092092
	N262	N	0.460233	0.821180	0.092960
	N263	N	0.534663	0.821808	0.920913
	N264	N	0.460220	0.915109	0.184463
	N265	N	0.535595	0.084628	0.183676
	N266	N	0.460186	0.085595	0.828711
	N267	N	0.535089	0.915835	0.829399
	N268	N	0.912352	0.178142	0.470007
	N269	N	0.083534	0.177861	0.544728
	N270	N	0.083722	0.821250	0.470140
	N271	N	0.912578	0.821303	0.544564
	N272	N	0.176517	0.462560	0.921706
	N273	N	0.176355	0.537171	0.093127
	N274	N	0.817968	0.462744	0.093734
	N275	N	0.818781	0.537491	0.921532
	O276	O	0.981043	-0.001907	1.003767
	H277	H	0.975064	-0.003161	1.000427
	H278	H	0.973835	-0.003200	1.002951
	O279	O	0.962350	-0.000927	0.038214
	H280	H	0.965363	0.000738	0.039968
	H281	H	0.963071	0.007203	0.036478
	O282	O	0.936515	0.995308	0.011167
	H283	H	0.935661	0.985074	0.010327
	H284	H	0.938231	0.997015	0.011846
	O285	O	-0.021772	0.971824	0.017693
	H286	H	-0.021729	0.977311	0.020118
	H287	H	-0.019190	0.970069	0.022368
