data_Molecule from HDF5

_cell_length_a		16.372369
_cell_length_b		16.432785
_cell_length_c		16.442384
_cell_angle_alpha	90.108521
_cell_angle_beta	90.000396
_cell_angle_gamma	89.837591
_symmetry_space_group_name_H-M	'P 1'
_symmetry_Int_Tables_number		1

loop_
	_symmetry_equiv_pos_as_xyz
	x,y,z

loop_
	_atom_site_label
	_atom_site_type_symbol
	_atom_site_fract_x
	_atom_site_fract_y
	_atom_site_fract_z
	H0	H	0.394682	0.844574	0.724679
	H1	H	0.609521	0.158441	0.720527
	H2	H	0.614786	0.844733	0.273948
	H3	H	0.398305	0.160277	0.279894
	H4	H	0.725887	0.397526	0.840413
	H5	H	0.727923	0.609961	0.156539
	H6	H	0.283036	0.605735	0.841585
	H7	H	0.282229	0.395474	0.157777
	H8	H	0.847380	0.722059	0.393801
	H9	H	0.163567	0.722791	0.606922
	H10	H	0.844283	0.283826	0.600799
	H11	H	0.164165	0.279184	0.394538
	H12	H	0.845700	0.397320	0.719649
	H13	H	0.163402	0.605757	0.722210
	H14	H	0.846715	0.605958	0.278739
	H15	H	0.164399	0.392994	0.276586
	H16	H	0.396391	0.724463	0.842357
	H17	H	0.613419	0.726014	0.155775
	H18	H	0.614759	0.276491	0.843477
	H19	H	0.398267	0.279301	0.158165
	H20	H	0.730702	0.843729	0.390116
	H21	H	0.724189	0.159465	0.602267
	H22	H	0.282883	0.842999	0.605266
	H23	H	0.282438	0.159620	0.396026
	H24	H	0.900404	0.342424	0.217423
	H25	H	0.113938	0.657998	0.224124
	H26	H	0.109685	0.342294	0.779501
	H27	H	0.896023	0.658231	0.774455
	H28	H	0.229182	0.891775	0.342786
	H29	H	0.224625	0.104518	0.658514
	H30	H	0.783467	0.105012	0.341750
	H31	H	0.783931	0.895370	0.658356
	H32	H	0.346720	0.223101	0.894626
	H33	H	0.664965	0.220430	0.103726
	H34	H	0.345770	0.779620	0.106196
	H35	H	0.663227	0.779529	0.893765
	H36	H	0.345695	0.895477	0.222545
	H37	H	0.663812	0.106971	0.221039
	H38	H	0.346215	0.106092	0.779384
	H39	H	0.662106	0.892099	0.776566
	H40	H	0.896477	0.223511	0.341711
	H41	H	0.108947	0.221939	0.657946
	H42	H	0.114305	0.775544	0.342875
	H43	H	0.896690	0.776440	0.656557
	H44	H	0.225889	0.342645	0.895039
	H45	H	0.226781	0.659248	0.106512
	H46	H	0.784588	0.343464	0.101805
	H47	H	0.781309	0.660018	0.890736
	H48	H	0.413442	0.114002	0.585896
	H49	H	0.589600	0.888022	0.588080
	H50	H	0.595638	0.113363	0.412964
	H51	H	0.414274	0.889120	0.415664
	H52	H	0.591272	0.410281	0.112071
	H53	H	0.590769	0.590385	0.887078
	H54	H	0.418434	0.591974	0.112328
	H55	H	0.417464	0.408869	0.886081
	H56	H	0.116515	0.583284	0.413040
	H57	H	0.891050	0.592580	0.586894
	H58	H	0.119118	0.409650	0.589665
	H59	H	0.891583	0.416694	0.404663
	H60	H	0.118026	0.411244	0.588230
	H61	H	0.894880	0.586431	0.583287
	H62	H	0.120159	0.588103	0.408763
	H63	H	0.889459	0.406873	0.406350
	H64	H	0.415426	0.590132	0.113234
	H65	H	0.593421	0.591243	0.885904
	H66	H	0.597852	0.411878	0.114362
	H67	H	0.413914	0.414481	0.887080
	H68	H	0.594634	0.115070	0.408748
	H69	H	0.594323	0.887809	0.584889
	H70	H	0.414080	0.115898	0.592770
	H71	H	0.417552	0.886929	0.406161
	H72	H	0.916099	0.615306	0.088715
	H73	H	0.102557	0.384979	0.088558
	H74	H	0.097715	0.614455	0.914634
	H75	H	0.916192	0.388693	0.910196
	H76	H	0.093770	0.912515	0.612083
	H77	H	0.104594	0.086947	0.383238
	H78	H	0.913998	0.093473	0.614273
	H79	H	0.916919	0.913525	0.386826
	H80	H	0.617520	0.084489	0.909062
	H81	H	0.392286	0.084165	0.091854
	H82	H	0.619778	0.913391	0.093997
	H83	H	0.392828	0.920393	0.911028
	H84	H	0.617722	0.908503	0.083120
	H85	H	0.388579	0.096402	0.094068
	H86	H	0.621767	0.092465	0.907328
	H87	H	0.388677	0.910008	0.909133
	H88	H	0.915222	0.088468	0.612746
	H89	H	0.086893	0.081830	0.390958
	H90	H	0.091866	0.913793	0.610996
	H91	H	0.919692	0.912394	0.388115
	H92	H	0.092028	0.615790	0.905801
	H93	H	0.087284	0.387590	0.094512
	H94	H	0.918199	0.615082	0.088429
	H95	H	0.916984	0.389911	0.911150
	H96	H	0.419241	0.112715	0.589269
	H97	H	0.594584	0.885726	0.590336
	H98	H	0.591590	0.112734	0.411680
	H99	H	0.424244	0.891501	0.413202
	H100	H	0.593311	0.416882	0.110470
	H101	H	0.593117	0.588871	0.886802
	H102	H	0.417463	0.588704	0.111368
	H103	H	0.420258	0.413928	0.889167
	H104	H	0.118419	0.589680	0.415371
	H105	H	0.891347	0.586194	0.591122
	H106	H	0.119255	0.411591	0.589989
	H107	H	0.893708	0.412189	0.413683
	H108	H	0.917221	0.614527	0.087387
	H109	H	0.090798	0.392614	0.079306
	H110	H	0.087940	0.611455	0.913989
	H111	H	0.915367	0.389353	0.911141
	H112	H	0.091546	0.911758	0.612151
	H113	H	0.088866	0.099951	0.384084
	H114	H	0.918850	0.092936	0.611413
	H115	H	0.917853	0.909763	0.387431
	H116	H	0.617772	0.091385	0.915072
	H117	H	0.392830	0.092753	0.082598
	H118	H	0.613850	0.919927	0.084172
	H119	H	0.393423	0.912468	0.918500
	C120	C	0.382561	0.010067	0.622066
	C121	C	0.625351	0.991720	0.620194
	C122	C	0.627941	0.009776	0.377247
	C123	C	0.384858	0.993476	0.379713
	C124	C	0.626825	0.380691	0.008056
	C125	C	0.625997	0.623538	0.990454
	C126	C	0.383359	0.623024	0.008103
	C127	C	0.383946	0.379758	0.991730
	C128	C	0.014146	0.620880	0.378833
	C129	C	0.996635	0.621851	0.620894
	C130	C	0.013434	0.379940	0.620641
	C131	C	0.996820	0.378979	0.376706
	C132	C	0.883947	0.510632	0.120025
	C133	C	0.127009	0.492381	0.121070
	C134	C	0.125635	0.509240	0.878823
	C135	C	0.883038	0.493420	0.877338
	C136	C	0.126966	0.878479	0.508373
	C137	C	0.125779	0.122121	0.490793
	C138	C	0.883429	0.123070	0.508196
	C139	C	0.884054	0.878823	0.491422
	C140	C	0.514174	0.122312	0.878425
	C141	C	0.496453	0.123223	0.121530
	C142	C	0.512406	0.880661	0.120800
	C143	C	0.495844	0.880249	0.878652
	C144	C	0.378415	0.891566	0.683463
	C145	C	0.627753	0.111351	0.680240
	C146	C	0.632034	0.891822	0.314962
	C147	C	0.380725	0.112622	0.319785
	C148	C	0.686769	0.378307	0.888659
	C149	C	0.687882	0.627521	0.108902
	C150	C	0.322304	0.625025	0.889357
	C151	C	0.322933	0.377311	0.110436
	C152	C	0.894816	0.681754	0.375976
	C153	C	0.116003	0.682502	0.624370
	C154	C	0.892500	0.322545	0.620644
	C155	C	0.116591	0.318991	0.375802
	C156	C	0.893071	0.378778	0.679716
	C157	C	0.116084	0.624623	0.681826
	C158	C	0.894587	0.624135	0.318370
	C159	C	0.116630	0.375924	0.317160
	C160	C	0.379084	0.683791	0.889621
	C161	C	0.630667	0.685458	0.108634
	C162	C	0.630960	0.318438	0.889918
	C163	C	0.380988	0.319489	0.110578
	C164	C	0.690083	0.891491	0.372802
	C165	C	0.684910	0.111426	0.621805
	C166	C	0.322325	0.890872	0.624299
	C167	C	0.322950	0.112179	0.377492
	C168	C	0.882076	0.390671	0.178405
	C169	C	0.130942	0.610737	0.183165
	C170	C	0.128036	0.390015	0.818904
	C171	C	0.878690	0.611330	0.815299
	C172	C	0.188927	0.874161	0.390127
	C173	C	0.184949	0.123505	0.610654
	C174	C	0.823220	0.124329	0.389126
	C175	C	0.823170	0.876485	0.610375
	C176	C	0.394298	0.182678	0.876530
	C177	C	0.616551	0.181766	0.122927
	C178	C	0.393298	0.820238	0.123884
	C179	C	0.615189	0.818995	0.875426
	C180	C	0.393472	0.877828	0.182089
	C181	C	0.616034	0.125193	0.181280
	C182	C	0.394106	0.124674	0.818912
	C183	C	0.614719	0.875513	0.817168
	C184	C	0.879834	0.183114	0.389295
	C185	C	0.127664	0.182009	0.610238
	C186	C	0.131435	0.816255	0.390239
	C187	C	0.879511	0.817211	0.609569
	C188	C	0.185854	0.390166	0.876725
	C189	C	0.187723	0.611320	0.124737
	C190	C	0.823924	0.391261	0.120999
	C191	C	0.821592	0.612265	0.873431
	C192	C	0.408287	0.092557	0.596738
	C193	C	0.600104	0.909020	0.595059
	C194	C	0.601499	0.092368	0.403607
	C195	C	0.411182	0.910872	0.404543
	C196	C	0.601411	0.405851	0.090677
	C197	C	0.599806	0.597594	0.908015
	C198	C	0.409585	0.597559	0.090860
	C199	C	0.409780	0.405088	0.908998
	C200	C	0.096732	0.594510	0.404903
	C201	C	0.914081	0.595888	0.594711
	C202	C	0.097066	0.404124	0.596537
	C203	C	0.913211	0.404648	0.401094
	C204	C	0.909763	0.593302	0.095458
	C205	C	0.101067	0.409872	0.094748
	C206	C	0.099950	0.592403	0.904189
	C207	C	0.908765	0.410813	0.903400
	C208	C	0.100192	0.905092	0.590368
	C209	C	0.100688	0.096847	0.407790
	C210	C	0.908665	0.098460	0.591310
	C211	C	0.910424	0.904476	0.409023
	C212	C	0.597147	0.096714	0.903146
	C213	C	0.412896	0.098415	0.096504
	C214	C	0.595465	0.906685	0.094755
	C215	C	0.413185	0.906630	0.905089
	Zn216	Zn	0.504854	0.000653	0.749977
	Zn217	Zn	0.504541	0.002154	0.249588
	Zn218	Zn	0.755186	0.503130	-0.001373
	Zn219	Zn	0.254880	0.501360	-0.000243
	Zn220	Zn	0.005709	0.750121	0.499818
	Zn221	Zn	0.004517	0.251348	0.499299
	Zn222	Zn	0.004989	0.500879	0.749667
	Zn223	Zn	0.005782	0.500864	0.248846
	Zn224	Zn	0.504539	0.751888	-0.000660
	Zn225	Zn	0.505974	0.251166	0.000067
	Zn226	Zn	0.755639	0.000449	0.500331
	Zn227	Zn	0.254670	0.000575	0.499656
	N228	N	0.415303	0.966643	0.682118
	N229	N	0.591854	0.035810	0.679859
	N230	N	0.594148	0.966534	0.317439
	N231	N	0.418612	0.037827	0.320948
	N232	N	0.684388	0.416232	0.962953
	N233	N	0.685051	0.589719	0.034386
	N234	N	0.324862	0.588068	0.964222
	N235	N	0.324606	0.414028	0.035487
	N236	N	0.970136	0.680044	0.412732
	N237	N	0.040649	0.680997	0.587523
	N238	N	0.968389	0.322780	0.584843
	N239	N	0.040896	0.320564	0.411790
	N240	N	0.969256	0.413606	0.679892
	N241	N	0.041029	0.587651	0.679928
	N242	N	0.969794	0.587095	0.319762
	N243	N	0.040899	0.412206	0.317502
	N244	N	0.416159	0.682730	0.964577
	N245	N	0.592576	0.682885	0.034281
	N246	N	0.594484	0.319450	0.965236
	N247	N	0.418200	0.321001	0.035620
	N248	N	0.687567	0.965980	0.410749
	N249	N	0.683610	0.036156	0.585357
	N250	N	0.324634	0.965402	0.586713
	N251	N	0.325343	0.037065	0.413944
	N252	N	0.918557	0.465893	0.178194
	N253	N	0.094100	0.535678	0.181048
	N254	N	0.091231	0.465279	0.820144
	N255	N	0.916272	0.536474	0.817619
	N256	N	0.186280	0.912179	0.464633
	N257	N	0.183701	0.086860	0.535522
	N258	N	0.825175	0.087538	0.464009
	N259	N	0.825774	0.914031	0.535767
	N260	N	0.470004	0.181772	0.912538
	N261	N	0.540952	0.180749	0.086557
	N262	N	0.468557	0.821466	0.086876
	N263	N	0.540077	0.821445	0.912824
	N264	N	0.468806	0.914679	0.180032
	N265	N	0.540152	0.089856	0.180678
	N266	N	0.469528	0.087943	0.819986
	N267	N	0.539466	0.912530	0.818896
	N268	N	0.916523	0.182221	0.464425
	N269	N	0.091626	0.181377	0.534700
	N270	N	0.093688	0.818781	0.464822
	N271	N	0.916371	0.818378	0.534508
	N272	N	0.184501	0.465399	0.913109
	N273	N	0.185620	0.536651	0.087102
	N274	N	0.824743	0.466916	0.085580
	N275	N	0.824214	0.537832	0.911328
	O276	O	0.598657	0.330092	0.556295
	H277	H	0.575221	0.328414	0.565064
	H278	H	0.588060	0.323804	0.533624
	O279	O	1.203815	0.207569	1.012022
	H280	H	1.223159	0.216265	1.013007
	H281	H	1.191658	0.211793	1.010240
	O282	O	0.701117	0.296231	0.363333
	H283	H	0.695669	0.299837	0.364736
	H284	H	0.716852	0.280078	0.346974
	O285	O	0.404830	0.371549	0.522027
	H286	H	0.399918	0.387701	0.523060
	H287	H	0.408440	0.366990	0.515858
	O288	O	0.810784	0.803469	0.022593
	H289	H	0.802879	0.799061	0.013796
	H290	H	0.818851	0.800587	0.008112
	O291	O	0.518102	0.713490	0.715903
	H292	H	0.535606	0.725413	0.740757
	H293	H	0.560302	0.715993	0.715213
	O294	O	-0.010673	0.013740	0.873823
	H295	H	-0.035372	0.002097	0.872088
	H296	H	-0.017381	0.006943	0.858139
	O297	O	0.321002	0.306559	0.638937
	H298	H	0.307927	0.301696	0.608523
	H299	H	0.321774	0.333739	0.631216
	O300	O	0.571677	0.716883	0.456878
	H301	H	0.563249	0.717330	0.435847
	H302	H	0.575591	0.722444	0.453487
	O303	O	0.614790	0.396048	0.694996
	H304	H	0.608323	0.411993	0.692010
	H305	H	0.590523	0.385706	0.684484
	O306	O	0.319845	0.480015	0.358214
	H307	H	0.308845	0.487337	0.355717
	H308	H	0.338398	0.474572	0.355433
	O309	O	0.456583	0.537896	0.659997
	H310	H	0.471145	0.535826	0.656354
	H311	H	0.459979	0.547373	0.655578
	O312	O	-0.178968	0.816340	1.184928
	H313	H	-0.178581	0.818444	1.151082
	H314	H	-0.192862	0.840510	1.182197
	O315	O	0.001853	1.043552	0.833462
	H316	H	0.002116	1.038755	0.849148
	H317	H	-0.002730	1.030136	0.815542
	O318	O	0.980765	-0.214698	0.212507
	H319	H	0.955767	-0.217245	0.219773
	H320	H	0.965631	-0.228689	0.221525
	O321	O	0.183261	-0.071815	-0.057819
	H322	H	0.199915	-0.054539	-0.069773
	H323	H	0.166530	-0.078155	-0.076482
	O324	O	0.704565	0.515345	0.669415
	H325	H	0.685547	0.494698	0.670198
	H326	H	0.717985	0.502899	0.668921
	O327	O	0.307084	0.425356	0.698428
	H328	H	0.286323	0.432760	0.708359
	H329	H	0.321837	0.450434	0.689658
	O330	O	-0.205106	1.128957	-0.195553
	H331	H	-0.203630	1.132890	-0.197850
	H332	H	-0.227860	1.145302	-0.210336
	O333	O	0.326962	0.681249	0.319744
	H334	H	0.314789	0.691878	0.370491
	H335	H	0.324669	0.636520	0.311835
	O336	O	-0.003031	0.160639	0.219790
	H337	H	0.020820	0.177117	0.218823
	H338	H	0.017704	0.175390	0.234378
	O339	O	0.079397	0.931359	1.184111
	H340	H	0.069019	0.913059	1.183471
	H341	H	0.064178	0.917401	1.165453
	O342	O	0.192985	0.816059	0.812572
	H343	H	0.201712	0.869383	0.804580
	H344	H	0.184926	0.809177	0.850103
	O345	O	0.805074	0.992987	0.185047
	H346	H	0.807801	1.001593	0.201621
	H347	H	0.818183	0.999071	0.201540
	O348	O	0.299764	0.686637	0.466185
	H349	H	0.328128	0.692151	0.486762
	H350	H	0.281814	0.708339	0.471781
	O351	O	0.058792	0.862120	1.051482
	H352	H	0.053174	0.859502	1.075318
	H353	H	0.040799	0.860461	1.033252
	O354	O	-0.189917	1.203804	-0.016639
	H355	H	-0.199510	1.211144	-0.044965
	H356	H	-0.184940	1.215480	-0.023454
	O357	O	-0.185886	-0.032203	0.840686
	H358	H	-0.198264	-0.020820	0.840784
	H359	H	-0.188202	-0.017017	0.837362
	O360	O	0.477886	0.285785	0.720846
	H361	H	0.436665	0.287263	0.715336
	H362	H	0.465417	0.258782	0.744780
	O363	O	0.214672	-0.203802	0.976713
	H364	H	0.216248	-0.219041	0.986632
	H365	H	0.221214	-0.209643	0.974559
	O366	O	0.654154	0.370148	0.477126
	H367	H	0.661960	0.355881	0.476194
	H368	H	0.641114	0.367767	0.492517
	O369	O	0.483700	0.720663	0.281617
	H370	H	0.478726	0.751923	0.252879
	H371	H	0.439181	0.713796	0.292274
	O372	O	1.193459	0.017660	0.974779
	H373	H	1.183984	0.021817	0.974674
	H374	H	1.194411	0.011495	0.980079
	O375	O	0.310046	0.487910	0.385561
	H376	H	0.320016	0.483940	0.404483
	H377	H	0.294632	0.492609	0.367588
	O378	O	0.424944	0.707436	0.562445
	H379	H	0.437224	0.714996	0.581753
	H380	H	0.448167	0.697973	0.568305
	O381	O	0.530773	0.289199	0.285622
	H382	H	0.527795	0.285757	0.282007
	H383	H	0.549731	0.275898	0.268083
	O384	O	0.405701	0.561642	0.583157
	H385	H	0.412009	0.565249	0.593135
	H386	H	0.405949	0.567260	0.597127
	O387	O	-0.157209	-0.001302	0.980037
	H388	H	-0.166748	0.009623	1.002581
	H389	H	-0.158445	0.006224	0.987787
	O390	O	0.190881	0.185175	0.179315
	H391	H	0.185424	0.193771	0.148146
	H392	H	0.200743	0.131300	0.188390
	O393	O	1.050310	1.062309	1.020653
	H394	H	1.045579	1.081222	1.021799
	H395	H	1.040807	1.063259	1.015504
	O396	O	1.124376	0.023084	-0.204938
	H397	H	1.124562	0.027762	-0.203058
	H398	H	1.116458	0.014748	-0.197905
	O399	O	1.147563	0.167897	0.878462
	H400	H	1.139152	0.176218	0.871414
	H401	H	1.128872	0.177585	0.893745
	O402	O	0.974757	1.034068	1.171659
	H403	H	0.988901	1.023002	1.173244
	H404	H	0.987443	1.047464	1.163578
	O405	O	1.006958	1.196701	0.007927
	H406	H	1.020494	1.177468	0.023971
	H407	H	1.009745	1.197766	0.013598
	O408	O	1.007886	-0.217769	-0.168846
	H409	H	1.011302	-0.245096	-0.201738
	H410	H	1.041831	-0.208412	-0.160738
	O411	O	0.894482	0.945016	-0.028432
	H412	H	0.895022	0.952827	-0.019916
	H413	H	0.893458	0.941444	-0.030522
	O414	O	0.426678	0.425929	0.292250
	H415	H	0.444252	0.429734	0.290707
	H416	H	0.428087	0.429852	0.284066
	O417	O	0.676879	0.680951	0.682152
	H418	H	0.689498	0.630397	0.690121
	H419	H	0.692222	0.693369	0.631466
	O420	O	-0.125424	0.174474	0.138997
	H421	H	-0.129335	0.179587	0.104640
	H422	H	-0.102668	0.152031	0.140748
	O423	O	0.674363	0.517592	0.382657
	H424	H	0.672806	0.502686	0.371048
	H425	H	0.663902	0.523053	0.366608
	O426	O	0.711278	0.419340	0.297154
	H427	H	0.714650	0.414185	0.282751
	H428	H	0.707630	0.430157	0.286977
	O429	O	0.475353	0.502789	0.447089
	H430	H	0.470250	0.524498	0.448357
	H431	H	0.473678	0.518963	0.449638
	O432	O	0.680605	0.495049	0.531577
	H433	H	0.673697	0.494593	0.521061
	H434	H	0.681034	0.485791	0.524871
	O435	O	0.709086	0.705139	0.511409
	H436	H	0.719310	0.700920	0.496583
	H437	H	0.716109	0.710719	0.500718
	O438	O	-0.051091	-0.121521	-0.157011
	H439	H	-0.056248	-0.120234	-0.174267
	H440	H	-0.060537	-0.114611	-0.156676
	O441	O	1.209360	0.025341	0.199652
	H442	H	1.184407	-0.003055	0.203878
	H443	H	1.224037	0.009960	0.203268
	O444	O	-0.147583	1.132504	0.871830
	H445	H	-0.123044	1.145105	0.869474
	H446	H	-0.143760	1.133246	0.858722
	O447	O	0.428718	0.524130	0.625418
	H448	H	0.421716	0.521437	0.624542
	H449	H	0.442473	0.532114	0.627534
	O450	O	0.558388	0.566432	0.353919
	H451	H	0.554317	0.573857	0.353310
	H452	H	0.534022	0.569395	0.356385
	O453	O	0.422105	0.295660	0.476982
	H454	H	0.419597	0.301137	0.478899
	H455	H	0.414491	0.299855	0.451882
