data_Molecule from HDF5

_cell_length_a		16.433577
_cell_length_b		16.027742
_cell_length_c		16.116563
_cell_angle_alpha	89.838220
_cell_angle_beta	89.859592
_cell_angle_gamma	89.843163
_symmetry_space_group_name_H-M	'P 1'
_symmetry_Int_Tables_number		1

loop_
	_symmetry_equiv_pos_as_xyz
	x,y,z

loop_
	_atom_site_label
	_atom_site_type_symbol
	_atom_site_fract_x
	_atom_site_fract_y
	_atom_site_fract_z
	H0	H	0.397186	0.826689	0.709271
	H1	H	0.590419	0.159454	0.704209
	H2	H	0.593110	0.826131	0.282187
	H3	H	0.398552	0.158977	0.284163
	H4	H	0.715667	0.387532	0.832591
	H5	H	0.715075	0.595628	0.157945
	H6	H	0.279947	0.597453	0.831429
	H7	H	0.280976	0.388543	0.158265
	H8	H	0.834542	0.709100	0.394476
	H9	H	0.160581	0.705339	0.592256
	H10	H	0.833047	0.277919	0.595018
	H11	H	0.158537	0.274934	0.397208
	H12	H	0.836323	0.389643	0.714080
	H13	H	0.159226	0.590849	0.711501
	H14	H	0.835068	0.593267	0.276782
	H15	H	0.158933	0.390593	0.278485
	H16	H	0.402105	0.705317	0.828492
	H17	H	0.595928	0.705211	0.159873
	H18	H	0.592348	0.281576	0.828603
	H19	H	0.398844	0.279255	0.160248
	H20	H	0.714249	0.827728	0.392613
	H21	H	0.713089	0.155382	0.600200
	H22	H	0.281399	0.825849	0.598762
	H23	H	0.277034	0.155315	0.393123
	H24	H	0.899375	0.325270	0.207867
	H25	H	0.093064	0.658370	0.205188
	H26	H	0.093791	0.324619	0.784591
	H27	H	0.901794	0.657521	0.783859
	H28	H	0.213555	0.887535	0.332346
	H29	H	0.211494	0.092588	0.659510
	H30	H	0.778517	0.096338	0.332827
	H31	H	0.777356	0.886983	0.659478
	H32	H	0.333521	0.209080	0.896120
	H33	H	0.659848	0.204524	0.090196
	H34	H	0.335203	0.776451	0.093934
	H35	H	0.660074	0.778070	0.894221
	H36	H	0.333846	0.893136	0.210149
	H37	H	0.657002	0.095818	0.213030
	H38	H	0.333124	0.093077	0.778362
	H39	H	0.657749	0.892511	0.776285
	H40	H	0.899178	0.205140	0.330210
	H41	H	0.090067	0.202371	0.662607
	H42	H	0.091558	0.781760	0.328667
	H43	H	0.898763	0.777503	0.661421
	H44	H	0.214918	0.327090	0.891883
	H45	H	0.213254	0.656054	0.097070
	H46	H	0.780032	0.327496	0.098873
	H47	H	0.780097	0.655424	0.891561
	H48	H	0.406269	0.111088	0.593362
	H49	H	0.581226	0.875588	0.586039
	H50	H	0.589593	0.109766	0.408204
	H51	H	0.401675	0.873505	0.406522
	H52	H	0.581937	0.409549	0.108104
	H53	H	0.583890	0.576508	0.880767
	H54	H	0.402263	0.572637	0.109604
	H55	H	0.414177	0.403854	0.879477
	H56	H	0.113445	0.588026	0.396718
	H57	H	0.880470	0.584449	0.594808
	H58	H	0.113665	0.393860	0.589441
	H59	H	0.882588	0.402413	0.404960
	H60	H	0.112221	0.396922	0.586453
	H61	H	0.881413	0.588665	0.585646
	H62	H	0.111042	0.586507	0.404309
	H63	H	0.880566	0.402415	0.395705
	H64	H	0.412907	0.586729	0.109902
	H65	H	0.589567	0.593331	0.874041
	H66	H	0.586433	0.386732	0.116051
	H67	H	0.400479	0.392471	0.872680
	H68	H	0.590330	0.111296	0.402510
	H69	H	0.591268	0.874583	0.579326
	H70	H	0.404081	0.106961	0.576342
	H71	H	0.401821	0.871217	0.401173
	H72	H	0.900308	0.611033	0.083584
	H73	H	0.086911	0.374048	0.082438
	H74	H	0.093133	0.611687	0.901891
	H75	H	0.903502	0.369596	0.897992
	H76	H	0.084794	0.899630	0.612175
	H77	H	0.091573	0.083197	0.376893
	H78	H	0.909943	0.065127	0.605897
	H79	H	0.906220	0.897673	0.377814
	H80	H	0.608887	0.086504	0.909401
	H81	H	0.379377	0.088066	0.088087
	H82	H	0.612535	0.898213	0.088007
	H83	H	0.379604	0.891089	0.903538
	H84	H	0.612161	0.901404	0.087393
	H85	H	0.380542	0.085165	0.087520
	H86	H	0.611132	0.076838	0.892145
	H87	H	0.385130	0.904782	0.909457
	H88	H	0.912842	0.099866	0.616524
	H89	H	0.088837	0.078019	0.378883
	H90	H	0.092535	0.892140	0.616516
	H91	H	0.898261	0.902776	0.377831
	H92	H	0.087465	0.609385	0.902896
	H93	H	0.097238	0.372014	0.084216
	H94	H	0.905357	0.610747	0.088554
	H95	H	0.910479	0.375075	0.909177
	H96	H	0.390678	0.113339	0.585096
	H97	H	0.591674	0.870663	0.591158
	H98	H	0.585143	0.109719	0.404220
	H99	H	0.406212	0.874554	0.404184
	H100	H	0.603798	0.402888	0.116251
	H101	H	0.601676	0.578755	0.874946
	H102	H	0.396842	0.588857	0.116377
	H103	H	0.396758	0.410502	0.876842
	H104	H	0.111609	0.580204	0.398795
	H105	H	0.884261	0.578371	0.587325
	H106	H	0.112267	0.397851	0.590885
	H107	H	0.879170	0.393847	0.401590
	H108	H	0.907410	0.607714	0.081770
	H109	H	0.090754	0.370978	0.091556
	H110	H	0.090893	0.609181	0.906918
	H111	H	0.897484	0.372106	0.909542
	H112	H	0.095998	0.903813	0.614802
	H113	H	0.085366	0.083671	0.378981
	H114	H	0.881428	0.082711	0.620458
	H115	H	0.905772	0.906128	0.380624
	H116	H	0.615436	0.095897	0.893349
	H117	H	0.380371	0.085190	0.090087
	H118	H	0.612831	0.900189	0.089958
	H119	H	0.380362	0.904865	0.894917
	C120	C	0.373253	0.000515	0.615742
	C121	C	0.616467	0.983348	0.614870
	C122	C	0.618110	0.001193	0.374053
	C123	C	0.374285	0.982711	0.374766
	C124	C	0.618551	0.370837	0.004059
	C125	C	0.619388	0.612656	0.985695
	C126	C	0.375717	0.613514	0.003300
	C127	C	0.375591	0.371864	0.985699
	C128	C	0.005082	0.614340	0.371468
	C129	C	0.989335	0.612869	0.617424
	C130	C	0.005203	0.368120	0.618273
	C131	C	0.988023	0.369537	0.372460
	C132	C	0.875617	0.500360	0.115018
	C133	C	0.119455	0.482223	0.115561
	C134	C	0.119261	0.500266	0.874409
	C135	C	0.875536	0.481695	0.874733
	C136	C	0.118555	0.869600	0.504735
	C137	C	0.116883	0.111467	0.487325
	C138	C	0.873220	0.113216	0.505256
	C139	C	0.874628	0.871178	0.487538
	C140	C	0.504151	0.115636	0.870426
	C141	C	0.487493	0.114888	0.116880
	C142	C	0.505385	0.870138	0.117629
	C143	C	0.488803	0.870849	0.872525
	C144	C	0.376633	0.876004	0.671978
	C145	C	0.612200	0.108983	0.668771
	C146	C	0.615062	0.876067	0.319029
	C147	C	0.376999	0.108477	0.320274
	C148	C	0.675592	0.370383	0.880796
	C149	C	0.675898	0.613410	0.109300
	C150	C	0.319226	0.615016	0.880050
	C151	C	0.319482	0.370421	0.109315
	C152	C	0.882984	0.670685	0.373890
	C153	C	0.111516	0.668182	0.613807
	C154	C	0.882436	0.314406	0.615986
	C155	C	0.110022	0.312992	0.375972
	C156	C	0.883904	0.370313	0.674989
	C157	C	0.111017	0.611307	0.673318
	C158	C	0.883307	0.613236	0.315174
	C159	C	0.110300	0.370570	0.316926
	C160	C	0.380187	0.668744	0.878505
	C161	C	0.616556	0.668101	0.110229
	C162	C	0.614337	0.317479	0.878725
	C163	C	0.378466	0.315988	0.110218
	C164	C	0.675145	0.876962	0.373944
	C165	C	0.673304	0.106890	0.616900
	C166	C	0.318822	0.875789	0.616763
	C167	C	0.316832	0.106746	0.374619
	C168	C	0.878680	0.375139	0.170637
	C169	C	0.115090	0.607924	0.169470
	C170	C	0.115289	0.374678	0.820678
	C171	C	0.879567	0.607076	0.819649
	C172	C	0.174217	0.869800	0.380742
	C173	C	0.172176	0.110754	0.611169
	C174	C	0.817050	0.114772	0.381664
	C175	C	0.817413	0.869416	0.610809
	C176	C	0.382032	0.170972	0.874790
	C177	C	0.610551	0.168511	0.112537
	C178	C	0.383349	0.814501	0.114591
	C179	C	0.610993	0.815364	0.873779
	C180	C	0.382895	0.872421	0.172734
	C181	C	0.609097	0.113971	0.173271
	C182	C	0.381811	0.113477	0.816130
	C183	C	0.609914	0.872702	0.815322
	C184	C	0.876946	0.168834	0.380297
	C185	C	0.112121	0.165634	0.612621
	C186	C	0.113886	0.816947	0.379012
	C187	C	0.877760	0.814812	0.611772
	C188	C	0.175771	0.376087	0.874079
	C189	C	0.174912	0.606810	0.115605
	C190	C	0.819587	0.376237	0.116088
	C191	C	0.819311	0.606202	0.873331
	C192	C	0.394175	0.087888	0.591924
	C193	C	0.594496	0.896242	0.592152
	C194	C	0.595112	0.087973	0.397924
	C195	C	0.396744	0.895491	0.397245
	C196	C	0.597215	0.393144	0.090953
	C197	C	0.597991	0.589781	0.899091
	C198	C	0.397494	0.589790	0.089639
	C199	C	0.397457	0.395276	0.898850
	C200	C	0.089876	0.591647	0.393521
	C201	C	0.904198	0.590467	0.595623
	C202	C	0.090639	0.389806	0.595659
	C203	C	0.902845	0.392784	0.394316
	C204	C	0.897892	0.587273	0.091665
	C205	C	0.097844	0.395231	0.092814
	C206	C	0.096984	0.587698	0.897154
	C207	C	0.897698	0.394721	0.898378
	C208	C	0.097209	0.891735	0.591740
	C209	C	0.095070	0.088360	0.400751
	C210	C	0.894909	0.089504	0.591779
	C211	C	0.896869	0.895261	0.401114
	C212	C	0.589761	0.092900	0.891713
	C213	C	0.402246	0.092617	0.095086
	C214	C	0.590265	0.893203	0.095110
	C215	C	0.403615	0.893484	0.895772
	Zn216	Zn	0.495500	-0.007578	0.741458
	Zn217	Zn	0.496109	-0.006873	0.246804
	Zn218	Zn	0.747195	0.491631	-0.004704
	Zn219	Zn	0.247130	0.491688	-0.005167
	Zn220	Zn	-0.002874	0.743430	0.495241
	Zn221	Zn	-0.004371	0.239774	0.495982
	Zn222	Zn	-0.002679	0.490199	0.747781
	Zn223	Zn	-0.003110	0.491223	0.242060
	Zn224	Zn	0.498339	0.740733	-0.005300
	Zn225	Zn	0.496156	0.244062	-0.005197
	Zn226	Zn	0.745474	-0.007881	0.496471
	Zn227	Zn	0.245943	-0.009672	0.495572
	N228	N	0.409776	0.954682	0.671525
	N229	N	0.577478	0.030995	0.667790
	N230	N	0.580355	0.954272	0.319017
	N231	N	0.412117	0.030381	0.320411
	N232	N	0.678329	0.402872	0.959812
	N233	N	0.678083	0.579844	0.030834
	N234	N	0.316199	0.581340	0.958668
	N235	N	0.317716	0.404660	0.030890
	N236	N	0.959555	0.671756	0.408111
	N237	N	0.034729	0.669331	0.579979
	N238	N	0.958980	0.312948	0.581394
	N239	N	0.032967	0.312206	0.409546
	N240	N	0.961318	0.403090	0.676593
	N241	N	0.034136	0.577587	0.675709
	N242	N	0.960104	0.578961	0.313355
	N243	N	0.033434	0.404788	0.314537
	N244	N	0.414592	0.668053	0.956229
	N245	N	0.582178	0.667790	0.032390
	N246	N	0.579507	0.317541	0.956368
	N247	N	0.412688	0.316709	0.032218
	N248	N	0.677167	0.955997	0.407344
	N249	N	0.675815	0.027912	0.583976
	N250	N	0.316196	0.954571	0.582826
	N251	N	0.314943	0.027552	0.407666
	N252	N	0.912913	0.453295	0.169908
	N253	N	0.081346	0.529451	0.169713
	N254	N	0.080783	0.452998	0.820819
	N255	N	0.914013	0.528646	0.820664
	N256	N	0.177425	0.901713	0.459932
	N257	N	0.175187	0.077810	0.532332
	N258	N	0.814693	0.080761	0.460262
	N259	N	0.815329	0.903621	0.532367
	N260	N	0.459219	0.172722	0.907583
	N261	N	0.533973	0.169024	0.077849
	N262	N	0.460599	0.812741	0.081390
	N263	N	0.534667	0.814385	0.908814
	N264	N	0.459754	0.906405	0.174664
	N265	N	0.531725	0.081409	0.176138
	N266	N	0.458782	0.079480	0.813679
	N267	N	0.532809	0.906768	0.814557
	N268	N	0.911219	0.168070	0.458052
	N269	N	0.078415	0.166166	0.534599
	N270	N	0.080057	0.816567	0.457216
	N271	N	0.912541	0.815664	0.534024
	N272	N	0.178269	0.455378	0.906608
	N273	N	0.177853	0.527585	0.082818
	N274	N	0.817442	0.455222	0.082514
	N275	N	0.816548	0.527262	0.906726
	O276	O	0.385731	0.440197	0.552240
	H277	H	0.382106	0.456927	0.544056
	H278	H	0.381506	0.435980	0.551321
	O279	O	0.503974	0.508405	0.493537
	H280	H	0.498184	0.511695	0.490752
	H281	H	0.500695	0.501944	0.506519
	O282	O	1.030694	0.962344	0.037190
	H283	H	1.027638	0.958031	0.040716
	H284	H	1.033993	0.953925	0.025356
	O285	O	1.140690	0.035681	1.069651
	H286	H	1.144665	0.033959	1.068383
	H287	H	1.141527	0.039037	1.073149
	O288	O	0.495296	0.432223	0.644574
	H289	H	0.489030	0.435085	0.639571
	H290	H	0.487288	0.443986	0.648603
	O291	O	0.643259	0.590987	0.595483
	H292	H	0.646566	0.606463	0.598653
	H293	H	0.658311	0.583943	0.600905
	O294	O	0.549374	0.538379	0.568084
	H295	H	0.561077	0.532231	0.567835
	H296	H	0.534838	0.532349	0.566347
	O297	O	0.061494	-0.001424	0.945397
	H298	H	0.075009	-0.006216	0.939784
	H299	H	0.064073	-0.007188	0.943440
	O300	O	0.453963	0.463149	0.501058
	H301	H	0.451387	0.465594	0.518068
	H302	H	0.444583	0.466594	0.507804
	O303	O	0.991906	0.915704	-0.087110
	H304	H	0.991739	0.935037	-0.094993
	H305	H	0.970143	0.919902	-0.082724
	O306	O	-0.078422	1.041035	1.034110
	H307	H	-0.075361	1.045773	1.046144
	H308	H	-0.068239	1.043951	1.031245
	O309	O	0.568203	0.497317	0.409422
	H310	H	0.574914	0.501531	0.409337
	H311	H	0.572937	0.489589	0.405153
	O312	O	-0.001396	0.005419	-0.124452
	H313	H	-0.012955	0.008336	-0.123604
	H314	H	0.007386	0.016713	-0.127209
	O315	O	0.944831	-0.029369	-0.056203
	H316	H	0.936551	-0.021745	-0.057063
	H317	H	0.948714	-0.026552	-0.058675
	O318	O	1.109616	0.960896	1.086383
	H319	H	1.107763	0.961697	1.100773
	H320	H	1.117306	0.951174	1.078542
	O321	O	0.021101	0.025873	0.970190
	H322	H	0.014357	0.028668	0.970782
	H323	H	0.024684	0.019604	0.980032
	O324	O	0.541364	0.496624	0.460237
	H325	H	0.538741	0.511772	0.465656
	H326	H	0.539714	0.490077	0.455815
	O327	O	0.040749	-0.038063	-0.083689
	H328	H	0.038056	-0.029042	-0.084064
	H329	H	0.043112	-0.049197	-0.078944
	O330	O	0.557735	0.565847	0.440036
	H331	H	0.547970	0.565504	0.427779
	H332	H	0.554998	0.549205	0.438247
	O333	O	-0.036248	0.903183	0.940795
	H334	H	-0.033947	0.906788	0.945007
	H335	H	-0.031161	0.895089	0.927527
	O336	O	-0.089121	-0.072713	0.090454
	H337	H	-0.095052	-0.075406	0.093636
	H338	H	-0.089253	-0.077515	0.097839
	O339	O	0.587379	0.548004	0.444119
	H340	H	0.592084	0.546436	0.430466
	H341	H	0.587461	0.544433	0.440562
	O342	O	1.034766	1.053486	1.007527
	H343	H	1.032729	1.048851	1.014048
	H344	H	1.033280	1.057482	1.012144
	O345	O	1.380275	1.577354	-0.540420
	H346	H	1.391451	1.577013	-0.534310
	H347	H	1.385276	1.593538	-0.545412
	O348	O	0.414145	0.460401	0.611044
	H349	H	0.405968	0.458170	0.603174
	H350	H	0.414527	0.443375	0.617873
	O351	O	0.506476	0.486408	0.541670
	H352	H	0.509677	0.495211	0.549730
	H353	H	0.498206	0.485988	0.533314
	O354	O	0.526575	0.441723	0.468861
	H355	H	0.538643	0.431485	0.460578
	H356	H	0.508910	0.451594	0.473812
	O357	O	1.001739	-0.001661	1.076187
	H358	H	1.003967	0.009512	1.086555
	H359	H	1.028522	-0.011120	1.064613
	O360	O	0.340847	0.519608	0.356552
	H361	H	0.332094	0.512239	0.348376
	H362	H	0.338420	0.529117	0.357288
	O363	O	0.757471	0.642487	0.727594
	H364	H	0.762493	0.637258	0.731850
	H365	H	0.756003	0.639656	0.728320
	O366	O	0.930203	1.038641	1.040171
	H367	H	0.932951	1.030321	1.027676
	H368	H	0.924932	1.036895	1.052460
	O369	O	0.477625	0.337066	1.439249
	H370	H	0.488778	0.325608	1.432819
	H371	H	0.470261	0.338101	1.443353
	O372	O	-0.036864	-0.090496	0.095336
	H373	H	-0.051222	-0.090571	0.081356
	H374	H	-0.050841	-0.113065	0.102811
	O375	O	1.464305	0.517153	0.429439
	H376	H	1.458550	0.515986	0.425515
	H377	H	1.468161	0.525223	0.432607
	O378	O	0.429459	0.506301	0.454916
	H379	H	0.446004	0.506155	0.455460
	H380	H	0.416317	0.506532	0.469707
	O381	O	0.479212	0.589608	0.529095
	H382	H	0.475131	0.577489	0.538906
	H383	H	0.484900	0.593374	0.534193
