data_Molecule from HDF5

_cell_length_a		16.198378
_cell_length_b		15.984609
_cell_length_c		16.350802
_cell_angle_alpha	89.896347
_cell_angle_beta	89.414389
_cell_angle_gamma	89.283176
_symmetry_space_group_name_H-M	'P 1'
_symmetry_Int_Tables_number		1

loop_
	_symmetry_equiv_pos_as_xyz
	x,y,z

loop_
	_atom_site_label
	_atom_site_type_symbol
	_atom_site_fract_x
	_atom_site_fract_y
	_atom_site_fract_z
	H0	H	0.405557	0.839995	0.713541
	H1	H	0.600948	0.171130	0.710388
	H2	H	0.609408	0.838802	0.282791
	H3	H	0.404983	0.171370	0.285517
	H4	H	0.726458	0.402813	0.837670
	H5	H	0.716712	0.604620	0.162429
	H6	H	0.287975	0.608793	0.835924
	H7	H	0.287428	0.405373	0.161696
	H8	H	0.838979	0.720349	0.404816
	H9	H	0.169955	0.712690	0.592359
	H10	H	0.838701	0.294828	0.597051
	H11	H	0.170049	0.290203	0.401781
	H12	H	0.840872	0.403392	0.718909
	H13	H	0.167874	0.604185	0.713247
	H14	H	0.840893	0.609580	0.284213
	H15	H	0.167227	0.398088	0.279154
	H16	H	0.408032	0.720643	0.834114
	H17	H	0.597567	0.717806	0.162360
	H18	H	0.606509	0.291518	0.834423
	H19	H	0.409210	0.293130	0.163262
	H20	H	0.721236	0.839114	0.398585
	H21	H	0.712321	0.172893	0.592444
	H22	H	0.294727	0.838466	0.596667
	H23	H	0.289844	0.171506	0.400163
	H24	H	0.906531	0.339040	0.214435
	H25	H	0.101943	0.671383	0.212977
	H26	H	0.108664	0.339565	0.783307
	H27	H	0.902263	0.670219	0.786536
	H28	H	0.225690	0.901608	0.336380
	H29	H	0.216605	0.102770	0.661726
	H30	H	0.790265	0.107476	0.334236
	H31	H	0.786161	0.905134	0.659796
	H32	H	0.339959	0.221142	0.903568
	H33	H	0.671596	0.213236	0.090506
	H34	H	0.338903	0.796881	0.095667
	H35	H	0.670386	0.791600	0.901042
	H36	H	0.342645	0.903958	0.217967
	H37	H	0.669399	0.105408	0.212627
	H38	H	0.341119	0.110368	0.783083
	H39	H	0.667779	0.901822	0.779331
	H40	H	0.909200	0.220725	0.334723
	H41	H	0.097916	0.216066	0.663342
	H42	H	0.105304	0.789240	0.335326
	H43	H	0.908940	0.796388	0.663524
	H44	H	0.221831	0.339430	0.900070
	H45	H	0.211688	0.673225	0.094837
	H46	H	0.793956	0.338344	0.099272
	H47	H	0.792232	0.671440	0.904759
	H48	H	0.404538	0.124786	0.583146
	H49	H	0.604009	0.884655	0.586576
	H50	H	0.593822	0.123775	0.403791
	H51	H	0.423398	0.887306	0.403141
	H52	H	0.605036	0.404076	0.119593
	H53	H	0.591443	0.590526	0.886790
	H54	H	0.411497	0.597556	0.113360
	H55	H	0.411402	0.411327	0.881220
	H56	H	0.122425	0.595541	0.401345
	H57	H	0.884071	0.597831	0.602124
	H58	H	0.122577	0.410355	0.593256
	H59	H	0.886138	0.428173	0.388216
	H60	H	0.121566	0.410956	0.590576
	H61	H	0.883808	0.605104	0.593719
	H62	H	0.121973	0.596018	0.405051
	H63	H	0.880527	0.394707	0.405120
	H64	H	0.406565	0.606064	0.116394
	H65	H	0.599651	0.609217	0.878977
	H66	H	0.601576	0.419163	0.113742
	H67	H	0.411282	0.419249	0.884036
	H68	H	0.598203	0.124790	0.404973
	H69	H	0.593752	0.885207	0.595531
	H70	H	0.404531	0.127770	0.599156
	H71	H	0.413941	0.887407	0.413536
	H72	H	0.904921	0.624245	0.087442
	H73	H	0.104867	0.382034	0.097620
	H74	H	0.103834	0.627548	0.905320
	H75	H	0.920312	0.387617	0.913179
	H76	H	0.102612	0.911270	0.615986
	H77	H	0.097482	0.092949	0.383725
	H78	H	0.904022	0.099944	0.615518
	H79	H	0.910754	0.914419	0.380702
	H80	H	0.626473	0.111184	0.903308
	H81	H	0.385959	0.100767	0.096327
	H82	H	0.621278	0.908689	0.085538
	H83	H	0.385159	0.905095	0.912798
	H84	H	0.622306	0.916985	0.091433
	H85	H	0.387916	0.100273	0.090784
	H86	H	0.616617	0.086325	0.911646
	H87	H	0.392447	0.927626	0.908484
	H88	H	0.905688	0.095599	0.614144
	H89	H	0.096504	0.098484	0.382095
	H90	H	0.097838	0.911176	0.614902
	H91	H	0.915777	0.913394	0.382415
	H92	H	0.090123	0.625668	0.898215
	H93	H	0.086532	0.387816	0.094356
	H94	H	0.906520	0.627602	0.099753
	H95	H	0.909391	0.382989	0.908997
	H96	H	0.418498	0.123712	0.591591
	H97	H	0.590538	0.889553	0.583929
	H98	H	0.595783	0.125736	0.400673
	H99	H	0.410712	0.882003	0.400499
	H100	H	0.590669	0.407617	0.114230
	H101	H	0.610958	0.591252	0.880207
	H102	H	0.401392	0.597506	0.115741
	H103	H	0.417911	0.414993	0.884375
	H104	H	0.121185	0.591937	0.403688
	H105	H	0.887886	0.595922	0.592958
	H106	H	0.121802	0.413082	0.592102
	H107	H	0.895026	0.423981	0.424013
	H108	H	0.916906	0.622876	0.093522
	H109	H	0.100084	0.388855	0.079722
	H110	H	0.091855	0.621616	0.911790
	H111	H	0.918456	0.383575	0.901215
	H112	H	0.100633	0.906353	0.616292
	H113	H	0.102199	0.096527	0.381305
	H114	H	0.908740	0.099298	0.614877
	H115	H	0.913254	0.908620	0.380115
	H116	H	0.625649	0.089757	0.886713
	H117	H	0.388772	0.095758	0.094067
	H118	H	0.625473	0.907472	0.095239
	H119	H	0.382275	0.913822	0.891919
	C120	C	0.383126	0.014783	0.619566
	C121	C	0.623927	0.996548	0.617116
	C122	C	0.626900	0.014397	0.374643
	C123	C	0.385088	0.996102	0.377750
	C124	C	0.629052	0.381728	0.007899
	C125	C	0.626282	0.625703	0.990230
	C126	C	0.380178	0.629317	0.006925
	C127	C	0.383801	0.385086	0.990815
	C128	C	0.012797	0.625983	0.376924
	C129	C	0.994839	0.626676	0.622172
	C130	C	0.013273	0.382970	0.621553
	C131	C	0.995985	0.384186	0.377144
	C132	C	0.882216	0.514515	0.122238
	C133	C	0.124414	0.496383	0.119256
	C134	C	0.126141	0.514560	0.876913
	C135	C	0.885604	0.495072	0.879896
	C136	C	0.129634	0.880405	0.507745
	C137	C	0.125540	0.125136	0.490356
	C138	C	0.880410	0.127820	0.506456
	C139	C	0.883709	0.884373	0.489558
	C140	C	0.514008	0.127024	0.874822
	C141	C	0.496590	0.126531	0.120134
	C142	C	0.514048	0.883443	0.120286
	C143	C	0.495543	0.884404	0.875716
	C144	C	0.385404	0.889556	0.675694
	C145	C	0.621112	0.121688	0.672136
	C146	C	0.627825	0.888864	0.320028
	C147	C	0.384935	0.121503	0.322741
	C148	C	0.686762	0.383446	0.885612
	C149	C	0.678903	0.623806	0.113580
	C150	C	0.326142	0.628130	0.884223
	C151	C	0.326689	0.385925	0.113232
	C152	C	0.888724	0.683095	0.382289
	C153	C	0.119815	0.678174	0.615746
	C154	C	0.888544	0.330463	0.618449
	C155	C	0.120329	0.327411	0.380256
	C156	C	0.889761	0.384656	0.679101
	C157	C	0.118702	0.623906	0.675656
	C158	C	0.889588	0.627830	0.322624
	C159	C	0.118891	0.381577	0.319378
	C160	C	0.385860	0.683724	0.883404
	C161	C	0.619404	0.680065	0.113747
	C162	C	0.627226	0.327911	0.884182
	C163	C	0.387246	0.330021	0.114104
	C164	C	0.683752	0.889066	0.377462
	C165	C	0.676150	0.122692	0.613391
	C166	C	0.330531	0.888731	0.617613
	C167	C	0.328298	0.121601	0.380319
	C168	C	0.885871	0.388894	0.177016
	C169	C	0.121541	0.621834	0.174566
	C170	C	0.127319	0.389113	0.821540
	C171	C	0.884449	0.620653	0.824883
	C172	C	0.186528	0.882212	0.385093
	C173	C	0.178807	0.122759	0.613383
	C174	C	0.827457	0.127211	0.383355
	C175	C	0.826072	0.886042	0.611776
	C176	C	0.389410	0.183399	0.881135
	C177	C	0.621595	0.178455	0.113857
	C178	C	0.389062	0.832065	0.116987
	C179	C	0.620411	0.828720	0.879232
	C180	C	0.390917	0.885136	0.178007
	C181	C	0.620394	0.124293	0.174259
	C182	C	0.390125	0.128613	0.821101
	C183	C	0.619162	0.883302	0.818737
	C184	C	0.886433	0.183511	0.383342
	C185	C	0.120087	0.179524	0.613949
	C186	C	0.126669	0.826375	0.384402
	C187	C	0.886986	0.831724	0.613613
	C188	C	0.183797	0.389245	0.879295
	C189	C	0.176156	0.622890	0.116145
	C190	C	0.829988	0.388412	0.119810
	C191	C	0.829697	0.621395	0.883486
	C192	C	0.403395	0.102676	0.597601
	C193	C	0.602533	0.909012	0.595138
	C194	C	0.602927	0.102141	0.396552
	C195	C	0.409030	0.908164	0.399204
	C196	C	0.605868	0.403677	0.093842
	C197	C	0.606754	0.603564	0.904178
	C198	C	0.400436	0.607116	0.092904
	C199	C	0.406875	0.408257	0.905138
	C200	C	0.099540	0.601682	0.397510
	C201	C	0.907704	0.605878	0.602267
	C202	C	0.099688	0.404888	0.598713
	C203	C	0.909625	0.408503	0.399466
	C204	C	0.903124	0.602236	0.100015
	C205	C	0.103361	0.408826	0.097251
	C206	C	0.102323	0.602089	0.898589
	C207	C	0.909025	0.407427	0.901452
	C208	C	0.106939	0.902770	0.593636
	C209	C	0.104827	0.102829	0.404645
	C210	C	0.900297	0.105055	0.592473
	C211	C	0.906500	0.905818	0.403495
	C212	C	0.600353	0.102788	0.894577
	C213	C	0.410046	0.105362	0.099781
	C214	C	0.600637	0.904851	0.097580
	C215	C	0.408917	0.908418	0.897937
	Zn216	Zn	0.503708	0.005235	0.746100
	Zn217	Zn	0.505689	0.004954	0.248611
	Zn218	Zn	0.757298	0.504295	0.000172
	Zn219	Zn	0.252207	0.506815	-0.001079
	Zn220	Zn	0.004957	0.753823	0.499259
	Zn221	Zn	0.004261	0.255202	0.498936
	Zn222	Zn	0.004328	0.504615	0.749982
	Zn223	Zn	0.004568	0.505358	0.247469
	Zn224	Zn	0.504344	0.756357	-0.002169
	Zn225	Zn	0.506183	0.254681	-0.001791
	Zn226	Zn	0.752176	0.005701	0.496708
	Zn227	Zn	0.256691	0.004613	0.498708
	N228	N	0.417258	0.969140	0.677286
	N229	N	0.589203	0.042358	0.674412
	N230	N	0.593148	0.968099	0.318036
	N231	N	0.419505	0.042419	0.320911
	N232	N	0.687923	0.416333	0.963479
	N233	N	0.683023	0.590441	0.035980
	N234	N	0.322381	0.595137	0.962020
	N235	N	0.324601	0.419460	0.035600
	N236	N	0.966519	0.681763	0.415686
	N237	N	0.041702	0.680197	0.583104
	N238	N	0.966081	0.329358	0.583276
	N239	N	0.042828	0.328987	0.415712
	N240	N	0.968362	0.416772	0.681086
	N241	N	0.039901	0.592658	0.679699
	N242	N	0.967757	0.592967	0.319225
	N243	N	0.040813	0.416303	0.317508
	N244	N	0.418514	0.684903	0.960776
	N245	N	0.587379	0.681402	0.036104
	N246	N	0.591997	0.326738	0.961225
	N247	N	0.422054	0.329509	0.036893
	N248	N	0.683347	0.968146	0.410485
	N249	N	0.678069	0.043569	0.579897
	N250	N	0.328887	0.967517	0.583548
	N251	N	0.328327	0.042436	0.413707
	N252	N	0.917425	0.468252	0.178826
	N253	N	0.090106	0.542120	0.176706
	N254	N	0.092000	0.467878	0.819984
	N255	N	0.918522	0.541209	0.822436
	N256	N	0.188371	0.915011	0.462822
	N257	N	0.182358	0.089763	0.535637
	N258	N	0.823692	0.093446	0.460742
	N259	N	0.823718	0.917864	0.533546
	N260	N	0.467457	0.182768	0.913879
	N261	N	0.543806	0.179962	0.080765
	N262	N	0.466746	0.830568	0.081837
	N263	N	0.542508	0.829335	0.913873
	N264	N	0.469634	0.916663	0.179769
	N265	N	0.541578	0.092740	0.178303
	N266	N	0.468393	0.094087	0.817195
	N267	N	0.540591	0.917295	0.816534
	N268	N	0.918834	0.184206	0.460967
	N269	N	0.087658	0.181013	0.536526
	N270	N	0.091905	0.825144	0.461568
	N271	N	0.922253	0.830548	0.536601
	N272	N	0.183066	0.468231	0.912882
	N273	N	0.178164	0.544065	0.082245
	N274	N	0.827420	0.467609	0.086372
	N275	N	0.830222	0.542377	0.917063
	O276	O	-0.054170	-0.002947	-0.025988
	H277	H	-0.050668	0.002044	-0.021345
	H278	H	-0.059601	-0.014771	-0.028431
	O279	O	0.583007	0.475602	0.483612
	H280	H	0.578000	0.475838	0.482933
	H281	H	0.584108	0.475929	0.488693
	O282	O	0.524234	0.437757	0.484849
	H283	H	0.528914	0.431626	0.487667
	H284	H	0.518854	0.428432	0.492042
	O285	O	1.061139	-0.000818	0.999117
	H286	H	1.068296	-0.005171	0.994157
	H287	H	1.071102	-0.004227	1.002851
	O288	O	1.010640	0.034506	0.005111
	H289	H	1.008708	0.040717	0.008206
	H290	H	0.998410	0.036325	-0.003641
	O291	O	0.483622	0.544290	0.484411
	H292	H	0.484327	0.556264	0.476510
	H293	H	0.484396	0.539312	0.484296
	O294	O	0.987820	-0.012414	1.050243
	H295	H	0.988344	-0.018323	1.051127
	H296	H	0.985927	-0.012264	1.059936
	O297	O	0.095333	-0.003275	-0.083267
	H298	H	0.099792	-0.006991	-0.082081
	H299	H	0.093182	-0.002354	-0.086207
	O300	O	0.474118	0.471832	0.427103
	H301	H	0.481049	0.470858	0.436144
	H302	H	0.464772	0.473904	0.425956
	O303	O	0.572513	0.439511	0.436101
	H304	H	0.576302	0.439533	0.428500
	H305	H	0.564938	0.443674	0.437097
	O306	O	0.987054	0.006635	0.003750
	H307	H	0.983205	0.000122	-0.011791
	H308	H	0.986158	0.004316	0.000176
	O309	O	0.021051	-0.026744	0.988546
	H310	H	0.024974	-0.026704	0.989558
	H311	H	0.027088	-0.037417	0.999098
	O312	O	0.982260	1.033000	0.958874
	H313	H	0.979809	1.032370	0.963643
	H314	H	0.985561	1.031087	0.950623
	O315	O	0.409888	0.458983	0.511429
	H316	H	0.405659	0.460371	0.508141
	H317	H	0.406406	0.446634	0.507404
	O318	O	0.543472	0.456503	0.457852
	H319	H	0.546999	0.455393	0.456925
	H320	H	0.546910	0.447029	0.466110
	O321	O	-0.059611	0.976117	0.914398
	H322	H	-0.052085	0.972632	0.910206
	H323	H	-0.058640	0.977733	0.918794
	O324	O	0.445765	0.583882	0.522648
	H325	H	0.452247	0.577945	0.516626
	H326	H	0.445538	0.591764	0.520225
	O327	O	0.469935	0.474919	0.574960
	H328	H	0.466510	0.473751	0.575391
	H329	H	0.461273	0.476187	0.578211
	O330	O	0.492175	0.529659	0.511331
	H331	H	0.489690	0.528995	0.500854
	H332	H	0.499721	0.536098	0.506720
	O333	O	0.452327	0.599355	0.485528
	H334	H	0.458074	0.599093	0.481142
	H335	H	0.451045	0.600569	0.478814
	O336	O	0.514607	0.488739	0.495890
	H337	H	0.515161	0.487763	0.492883
	H338	H	0.510351	0.494079	0.503689
	O339	O	0.986818	1.049301	-0.001754
	H340	H	0.986445	1.061317	-0.003863
	H341	H	0.975297	1.043974	-0.008547
	O342	O	0.546588	0.541356	0.543970
	H343	H	0.560234	0.546678	0.549012
	H344	H	0.554620	0.542037	0.546318
	O345	O	0.510601	0.528707	0.514059
	H346	H	0.513304	0.527414	0.505805
	H347	H	0.506349	0.529185	0.517724
	O348	O	0.091479	-0.047292	0.042285
	H349	H	0.096726	-0.048557	0.043493
	H350	H	0.093219	-0.050743	0.033641
	O351	O	-0.009065	1.030121	0.991134
	H352	H	-0.009360	1.038005	0.991741
	H353	H	-0.003873	1.026355	0.990268
	O354	O	0.481740	0.456646	0.497067
	H355	H	0.486969	0.457205	0.498775
	H356	H	0.477690	0.453981	0.500228
	O357	O	0.034641	1.015399	0.904756
	H358	H	0.033367	1.008430	0.901097
	H359	H	0.046355	1.025926	0.908130
