data_Molecule from HDF5

_cell_length_a		16.211159
_cell_length_b		16.147870
_cell_length_c		16.305033
_cell_angle_alpha	90.054232
_cell_angle_beta	90.257732
_cell_angle_gamma	89.928052
_symmetry_space_group_name_H-M	'P 1'
_symmetry_Int_Tables_number		1

loop_
	_symmetry_equiv_pos_as_xyz
	x,y,z

loop_
	_atom_site_label
	_atom_site_type_symbol
	_atom_site_fract_x
	_atom_site_fract_y
	_atom_site_fract_z
	H0	H	0.399186	0.836697	0.713101
	H1	H	0.597781	0.166155	0.714309
	H2	H	0.595486	0.837084	0.285154
	H3	H	0.398753	0.166589	0.286456
	H4	H	0.709751	0.402826	0.835861
	H5	H	0.712514	0.599878	0.162765
	H6	H	0.280286	0.600183	0.837234
	H7	H	0.283233	0.402591	0.163996
	H8	H	0.832012	0.713628	0.401078
	H9	H	0.162002	0.710722	0.596574
	H10	H	0.831397	0.287772	0.594643
	H11	H	0.162341	0.288129	0.404663
	H12	H	0.831766	0.401424	0.713302
	H13	H	0.160007	0.600246	0.715463
	H14	H	0.832255	0.599475	0.284227
	H15	H	0.160518	0.399375	0.284509
	H16	H	0.396538	0.715882	0.836244
	H17	H	0.595695	0.714033	0.164203
	H18	H	0.593214	0.287820	0.835518
	H19	H	0.399549	0.286749	0.163812
	H20	H	0.708923	0.835525	0.401745
	H21	H	0.712185	0.166084	0.597185
	H22	H	0.285711	0.835337	0.595986
	H23	H	0.283848	0.166286	0.401953
	H24	H	0.898335	0.335496	0.211620
	H25	H	0.095490	0.665201	0.215097
	H26	H	0.095070	0.336399	0.786205
	H27	H	0.897123	0.666177	0.785554
	H28	H	0.210581	0.902484	0.334702
	H29	H	0.212260	0.097568	0.662742
	H30	H	0.782767	0.098726	0.335795
	H31	H	0.782520	0.900205	0.662204
	H32	H	0.332171	0.214234	0.901919
	H33	H	0.662319	0.214006	0.096904
	H34	H	0.331895	0.788945	0.096469
	H35	H	0.662254	0.788713	0.904516
	H36	H	0.332750	0.903301	0.213267
	H37	H	0.661969	0.100594	0.214543
	H38	H	0.333669	0.101847	0.782950
	H39	H	0.661220	0.901579	0.786025
	H40	H	0.898629	0.213776	0.335551
	H41	H	0.096741	0.213353	0.663442
	H42	H	0.094540	0.785452	0.335263
	H43	H	0.901097	0.787101	0.663637
	H44	H	0.210105	0.336480	0.902270
	H45	H	0.209304	0.666207	0.098835
	H46	H	0.784991	0.335744	0.095038
	H47	H	0.782490	0.666130	0.900809
	H48	H	0.404979	0.116771	0.584342
	H49	H	0.585073	0.884754	0.595737
	H50	H	0.595424	0.123003	0.399103
	H51	H	0.406735	0.882804	0.400944
	H52	H	0.594127	0.405694	0.118259
	H53	H	0.590579	0.597672	0.882345
	H54	H	0.398597	0.596420	0.118731
	H55	H	0.405932	0.397541	0.880237
	H56	H	0.113770	0.590186	0.403620
	H57	H	0.877381	0.601799	0.589021
	H58	H	0.110349	0.409184	0.583798
	H59	H	0.880679	0.410292	0.404987
	H60	H	0.113914	0.416037	0.603029
	H61	H	0.881336	0.587185	0.587722
	H62	H	0.114462	0.595143	0.407524
	H63	H	0.878365	0.405623	0.402621
	H64	H	0.404784	0.589993	0.115188
	H65	H	0.591588	0.592420	0.883215
	H66	H	0.591807	0.411755	0.115545
	H67	H	0.392279	0.413025	0.882161
	H68	H	0.581554	0.116819	0.406152
	H69	H	0.591136	0.885687	0.587392
	H70	H	0.400179	0.121336	0.594209
	H71	H	0.406125	0.884043	0.408097
	H72	H	0.910483	0.615762	0.088934
	H73	H	0.087554	0.384668	0.090881
	H74	H	0.102436	0.622976	0.907578
	H75	H	0.901780	0.383322	0.907349
	H76	H	0.095518	0.898059	0.618878
	H77	H	0.086694	0.091893	0.383689
	H78	H	0.898208	0.084490	0.615762
	H79	H	0.898010	0.909766	0.381942
	H80	H	0.616688	0.103680	0.910509
	H81	H	0.378972	0.091852	0.103186
	H82	H	0.613017	0.911522	0.092082
	H83	H	0.381216	0.911551	0.907631
	H84	H	0.616416	0.908280	0.099760
	H85	H	0.377571	0.103858	0.090238
	H86	H	0.610626	0.086488	0.912331
	H87	H	0.379317	0.910823	0.902846
	H88	H	0.915273	0.091898	0.613110
	H89	H	0.091155	0.098793	0.381117
	H90	H	0.099001	0.911955	0.615664
	H91	H	0.908213	0.908564	0.384901
	H92	H	0.082254	0.621286	0.893855
	H93	H	0.093671	0.381166	0.091712
	H94	H	0.897668	0.620742	0.089386
	H95	H	0.904032	0.382459	0.903274
	H96	H	0.411186	0.118067	0.594368
	H97	H	0.594230	0.880746	0.596254
	H98	H	0.594976	0.118504	0.415954
	H99	H	0.400199	0.882024	0.404305
	H100	H	0.588434	0.406206	0.116107
	H101	H	0.586584	0.594660	0.883337
	H102	H	0.407385	0.599277	0.116633
	H103	H	0.411711	0.415135	0.888847
	H104	H	0.112109	0.589551	0.409492
	H105	H	0.876879	0.592154	0.601294
	H106	H	0.117907	0.396233	0.598637
	H107	H	0.878685	0.405566	0.407217
	H108	H	0.904853	0.621407	0.100515
	H109	H	0.089720	0.381800	0.097042
	H110	H	0.081631	0.614244	0.917482
	H111	H	0.906067	0.384098	0.907022
	H112	H	0.085239	0.906847	0.613829
	H113	H	0.093969	0.090657	0.381735
	H114	H	0.901074	0.102224	0.619572
	H115	H	0.902481	0.900594	0.380405
	H116	H	0.616530	0.092089	0.895997
	H117	H	0.383004	0.086743	0.087157
	H118	H	0.615660	0.902476	0.092503
	H119	H	0.378697	0.906770	0.906088
	C120	C	0.377030	0.009637	0.619627
	C121	C	0.619335	0.992509	0.621195
	C122	C	0.618256	0.010190	0.378456
	C123	C	0.375676	0.992285	0.377088
	C124	C	0.619081	0.379186	0.007940
	C125	C	0.618475	0.622898	0.991322
	C126	C	0.374387	0.623606	0.008737
	C127	C	0.375305	0.379553	0.991793
	C128	C	0.004942	0.620916	0.378170
	C129	C	0.987417	0.622025	0.621384
	C130	C	0.005021	0.378593	0.622038
	C131	C	0.988280	0.378627	0.378062
	C132	C	0.875929	0.509767	0.120563
	C133	C	0.118529	0.491939	0.122107
	C134	C	0.117428	0.510058	0.878717
	C135	C	0.875108	0.492483	0.877635
	C136	C	0.120453	0.877568	0.507524
	C137	C	0.119747	0.121969	0.490678
	C138	C	0.875958	0.121604	0.507903
	C139	C	0.875143	0.878145	0.490711
	C140	C	0.505834	0.123003	0.877555
	C141	C	0.488545	0.122744	0.121567
	C142	C	0.505759	0.879518	0.121857
	C143	C	0.488781	0.880210	0.877978
	C144	C	0.379176	0.885571	0.675115
	C145	C	0.618019	0.116867	0.676296
	C146	C	0.615727	0.885917	0.323378
	C147	C	0.378072	0.116976	0.323199
	C148	C	0.672765	0.382010	0.884827
	C149	C	0.674170	0.620134	0.114208
	C150	C	0.318631	0.620933	0.885665
	C151	C	0.320826	0.382150	0.114938
	C152	C	0.880997	0.675918	0.380533
	C153	C	0.112068	0.675153	0.618190
	C154	C	0.880861	0.324517	0.617119
	C155	C	0.112675	0.324674	0.382685
	C156	C	0.881040	0.381062	0.675841
	C157	C	0.111112	0.619665	0.676988
	C158	C	0.881232	0.619256	0.322510
	C159	C	0.111588	0.379799	0.322713
	C160	C	0.376420	0.678524	0.885391
	C161	C	0.616104	0.676991	0.114799
	C162	C	0.614914	0.324660	0.884722
	C163	C	0.378562	0.324443	0.114831
	C164	C	0.671592	0.885135	0.381458
	C165	C	0.674441	0.116837	0.618029
	C166	C	0.322924	0.884876	0.616714
	C167	C	0.321181	0.116986	0.380918
	C168	C	0.878126	0.385142	0.174507
	C169	C	0.115872	0.616009	0.177237
	C170	C	0.115482	0.385758	0.823980
	C171	C	0.876873	0.616702	0.822927
	C172	C	0.173440	0.881258	0.383749
	C173	C	0.174814	0.118841	0.613901
	C174	C	0.820889	0.119055	0.384536
	C175	C	0.820448	0.880191	0.613611
	C176	C	0.381509	0.177131	0.880694
	C177	C	0.613272	0.176715	0.117885
	C178	C	0.381114	0.826203	0.117419
	C179	C	0.612673	0.825865	0.882758
	C180	C	0.381762	0.882824	0.175690
	C181	C	0.612923	0.120727	0.176640
	C182	C	0.382399	0.121373	0.821515
	C183	C	0.612112	0.881759	0.823626
	C184	C	0.878397	0.176176	0.384353
	C185	C	0.117082	0.176024	0.614342
	C186	C	0.116018	0.823065	0.384041
	C187	C	0.879799	0.824354	0.614476
	C188	C	0.172488	0.385854	0.881763
	C189	C	0.172490	0.616572	0.119482
	C190	C	0.821889	0.385230	0.116363
	C191	C	0.820263	0.616889	0.880648
	C192	C	0.398924	0.096284	0.597668
	C193	C	0.596691	0.906065	0.599547
	C194	C	0.596760	0.097068	0.400458
	C195	C	0.397699	0.905358	0.398354
	C196	C	0.597890	0.401242	0.094403
	C197	C	0.596214	0.601268	0.905116
	C198	C	0.396980	0.601774	0.094618
	C199	C	0.396895	0.402076	0.905909
	C200	C	0.091259	0.598422	0.400525
	C201	C	0.900931	0.600225	0.599218
	C202	C	0.091747	0.400542	0.601282
	C203	C	0.901627	0.400582	0.399071
	C204	C	0.897828	0.596651	0.099106
	C205	C	0.096911	0.404976	0.099784
	C206	C	0.095380	0.597093	0.900170
	C207	C	0.897429	0.405810	0.899465
	C208	C	0.099514	0.899231	0.593830
	C209	C	0.097316	0.100209	0.404545
	C210	C	0.898213	0.099441	0.593779
	C211	C	0.896463	0.899846	0.404550
	C212	C	0.592427	0.100636	0.899651
	C213	C	0.402202	0.100673	0.099930
	C214	C	0.592637	0.900972	0.101036
	C215	C	0.402053	0.903092	0.899193
	Zn216	Zn	0.497571	0.001547	0.748531
	Zn217	Zn	0.497664	0.001671	0.250093
	Zn218	Zn	0.747533	0.501200	-0.000721
	Zn219	Zn	0.245814	0.501460	0.000278
	Zn220	Zn	-0.003076	0.749622	0.499428
	Zn221	Zn	-0.002834	0.249942	0.499756
	Zn222	Zn	-0.004131	0.501253	0.750144
	Zn223	Zn	-0.003356	0.500402	0.249314
	Zn224	Zn	0.496823	0.751769	0.000073
	Zn225	Zn	0.496996	0.250639	-0.000248
	Zn226	Zn	0.746793	0.000695	0.499301
	Zn227	Zn	0.248501	0.000615	0.498619
	N228	N	0.412059	0.964127	0.677042
	N229	N	0.584353	0.038695	0.678500
	N230	N	0.583308	0.964581	0.321378
	N231	N	0.411328	0.038564	0.320909
	N232	N	0.675188	0.415236	0.962456
	N233	N	0.675782	0.587262	0.036384
	N234	N	0.317104	0.587688	0.963344
	N235	N	0.318540	0.415805	0.037370
	N236	N	0.958843	0.677227	0.414443
	N237	N	0.034237	0.676783	0.584287
	N238	N	0.958784	0.323050	0.584392
	N239	N	0.034964	0.323780	0.416387
	N240	N	0.959502	0.413849	0.679230
	N241	N	0.032554	0.587441	0.679164
	N242	N	0.959212	0.585550	0.320998
	N243	N	0.033353	0.412857	0.319993
	N244	N	0.410442	0.680047	0.962844
	N245	N	0.582097	0.678756	0.037355
	N246	N	0.582294	0.322946	0.962560
	N247	N	0.411574	0.322620	0.037219
	N248	N	0.673518	0.963337	0.415075
	N249	N	0.675432	0.038533	0.584652
	N250	N	0.321710	0.962823	0.582770
	N251	N	0.319718	0.038527	0.413722
	N252	N	0.911217	0.463495	0.177070
	N253	N	0.083274	0.537429	0.179130
	N254	N	0.082021	0.464050	0.821965
	N255	N	0.910010	0.538378	0.820836
	N256	N	0.176359	0.914292	0.461500
	N257	N	0.176424	0.085921	0.536078
	N258	N	0.819197	0.085824	0.462180
	N259	N	0.817656	0.912955	0.535700
	N260	N	0.459325	0.178136	0.914818
	N261	N	0.535125	0.178299	0.084502
	N262	N	0.459356	0.823887	0.084978
	N263	N	0.534645	0.824679	0.915681
	N264	N	0.460156	0.915563	0.178345
	N265	N	0.534646	0.087877	0.179091
	N266	N	0.460658	0.088189	0.819638
	N267	N	0.533847	0.914884	0.820572
	N268	N	0.912043	0.177869	0.461995
	N269	N	0.083458	0.178111	0.536671
	N270	N	0.083545	0.820855	0.461967
	N271	N	0.913064	0.822957	0.537037
	N272	N	0.173564	0.464126	0.915250
	N273	N	0.174267	0.538446	0.085757
	N274	N	0.820342	0.463668	0.083586
	N275	N	0.818871	0.538622	0.913950
	O276	O	0.470946	0.495565	0.548166
	H277	H	0.459170	0.491832	0.554129
	H278	H	0.463268	0.489366	0.546503
	O279	O	0.019635	0.038867	-0.045094
	H280	H	0.023182	0.044906	-0.043539
	H281	H	0.018873	0.039061	-0.042508
	O282	O	0.504073	0.525835	0.508435
	H283	H	0.518199	0.520691	0.507587
	H284	H	0.503167	0.529368	0.511470
	O285	O	0.517024	0.597960	0.489724
	H286	H	0.524292	0.602277	0.496645
	H287	H	0.507239	0.605974	0.485538
	O288	O	1.027120	0.043467	-0.047237
	H289	H	1.032914	0.047663	-0.049753
	H290	H	1.028220	0.047517	-0.052102
	O291	O	-0.495925	0.500807	-0.520633
	H292	H	-0.492395	0.503675	-0.527653
	H293	H	-0.489304	0.507116	-0.513995
	O294	O	0.492010	0.491393	0.532575
	H295	H	0.493744	0.493960	0.532093
	H296	H	0.486038	0.487524	0.536614
	O297	O	0.436342	1.499673	0.499758
	H298	H	0.437475	1.495696	0.497862
	H299	H	0.430878	1.506850	0.499824
	O300	O	1.466706	0.499070	0.480563
	H301	H	1.468798	0.507275	0.477123
	H302	H	1.469217	0.501028	0.475831
	O303	O	0.434067	0.517624	0.525036
	H304	H	0.425028	0.522213	0.524987
	H305	H	0.434138	0.513895	0.521524
	O306	O	0.455925	0.560349	1.507240
	H307	H	0.451012	0.554018	1.517136
	H308	H	0.448018	0.559069	1.504932
	O309	O	0.479738	0.473868	0.541855
	H310	H	0.487156	0.474586	0.543781
	H311	H	0.472268	0.474514	0.547977
