data_Molecule from HDF5

_cell_length_a		16.220547
_cell_length_b		16.280800
_cell_length_c		16.255095
_cell_angle_alpha	89.898697
_cell_angle_beta	89.969899
_cell_angle_gamma	90.044126
_symmetry_space_group_name_H-M	'P 1'
_symmetry_Int_Tables_number		1

loop_
	_symmetry_equiv_pos_as_xyz
	x,y,z

loop_
	_atom_site_label
	_atom_site_type_symbol
	_atom_site_fract_x
	_atom_site_fract_y
	_atom_site_fract_z
	H0	H	0.400715	0.836670	0.715893
	H1	H	0.598811	0.163503	0.714098
	H2	H	0.597668	0.835793	0.286876
	H3	H	0.401106	0.163795	0.285084
	H4	H	0.713316	0.403837	0.835039
	H5	H	0.713620	0.597080	0.164455
	H6	H	0.286153	0.598653	0.835883
	H7	H	0.286682	0.402677	0.163650
	H8	H	0.836022	0.715103	0.401107
	H9	H	0.164471	0.714325	0.598792
	H10	H	0.835796	0.284836	0.599676
	H11	H	0.164539	0.286253	0.402185
	H12	H	0.835402	0.402026	0.713641
	H13	H	0.164614	0.596734	0.712601
	H14	H	0.835506	0.597096	0.287259
	H15	H	0.164381	0.402056	0.287182
	H16	H	0.401044	0.716009	0.836489
	H17	H	0.598284	0.713555	0.164075
	H18	H	0.598104	0.286927	0.835173
	H19	H	0.401472	0.285538	0.163379
	H20	H	0.713603	0.836271	0.402892
	H21	H	0.713576	0.164097	0.597153
	H22	H	0.286196	0.835935	0.598163
	H23	H	0.287370	0.164086	0.402576
	H24	H	0.900549	0.336181	0.214670
	H25	H	0.097779	0.663552	0.213879
	H26	H	0.098451	0.336224	0.786435
	H27	H	0.900277	0.663611	0.784186
	H28	H	0.213321	0.902841	0.335400
	H29	H	0.214606	0.097183	0.663182
	H30	H	0.787188	0.097254	0.335352
	H31	H	0.785622	0.901527	0.664312
	H32	H	0.335373	0.213407	0.902068
	H33	H	0.663807	0.215099	0.098855
	H34	H	0.335624	0.785698	0.098118
	H35	H	0.664025	0.785826	0.901170
	H36	H	0.335630	0.902070	0.213694
	H37	H	0.664896	0.096802	0.212787
	H38	H	0.335952	0.098306	0.786267
	H39	H	0.664763	0.902885	0.786876
	H40	H	0.902756	0.214082	0.336253
	H41	H	0.099171	0.214242	0.663931
	H42	H	0.098684	0.786102	0.335917
	H43	H	0.901269	0.784975	0.663700
	H44	H	0.213002	0.336134	0.903068
	H45	H	0.212979	0.664250	0.096544
	H46	H	0.786717	0.336099	0.096967
	H47	H	0.787049	0.664150	0.902712
	H48	H	0.403423	0.115442	0.583792
	H49	H	0.594007	0.882327	0.594576
	H50	H	0.594092	0.115915	0.412355
	H51	H	0.416535	0.887614	0.411034
	H52	H	0.580086	0.409508	0.112024
	H53	H	0.601004	0.590175	0.881760
	H54	H	0.401965	0.595408	0.118716
	H55	H	0.397597	0.412089	0.880520
	H56	H	0.113764	0.589012	0.415164
	H57	H	0.881425	0.593307	0.598792
	H58	H	0.115658	0.410297	0.590543
	H59	H	0.886729	0.416269	0.411062
	H60	H	0.118479	0.406355	0.598981
	H61	H	0.882380	0.598536	0.590456
	H62	H	0.118813	0.588993	0.397869
	H63	H	0.879160	0.405066	0.397777
	H64	H	0.406485	0.588448	0.116177
	H65	H	0.586831	0.589038	0.885786
	H66	H	0.596263	0.392423	0.121615
	H67	H	0.415397	0.410918	0.886624
	H68	H	0.597889	0.119525	0.402796
	H69	H	0.590903	0.883806	0.594033
	H70	H	0.400097	0.120363	0.601485
	H71	H	0.397502	0.882537	0.412920
	H72	H	0.910744	0.616695	0.096269
	H73	H	0.097417	0.381609	0.095662
	H74	H	0.093626	0.617457	0.903672
	H75	H	0.904156	0.383283	0.909529
	H76	H	0.091786	0.915108	0.613324
	H77	H	0.102097	0.082066	0.383617
	H78	H	0.902435	0.099392	0.619986
	H79	H	0.916158	0.904084	0.385404
	H80	H	0.622763	0.102719	0.897195
	H81	H	0.382665	0.096159	0.090989
	H82	H	0.620826	0.904771	0.102780
	H83	H	0.383788	0.909328	0.907395
	H84	H	0.618453	0.898693	0.087606
	H85	H	0.384298	0.090005	0.091419
	H86	H	0.614846	0.098314	0.920507
	H87	H	0.382183	0.905842	0.906343
	H88	H	0.903274	0.085957	0.615890
	H89	H	0.078873	0.092669	0.388258
	H90	H	0.085907	0.901755	0.616069
	H91	H	0.899898	0.900692	0.379221
	H92	H	0.090487	0.616617	0.906752
	H93	H	0.089518	0.383042	0.096865
	H94	H	0.905868	0.615831	0.089236
	H95	H	0.906476	0.382514	0.903121
	H96	H	0.417082	0.114352	0.596501
	H97	H	0.593095	0.883597	0.591330
	H98	H	0.587762	0.116353	0.403649
	H99	H	0.407220	0.880076	0.395737
	H100	H	0.603641	0.416161	0.116183
	H101	H	0.591966	0.602064	0.881429
	H102	H	0.410518	0.596029	0.116771
	H103	H	0.406548	0.396082	0.879559
	H104	H	0.120558	0.604320	0.407570
	H105	H	0.884146	0.588976	0.590725
	H106	H	0.118273	0.401189	0.590737
	H107	H	0.882440	0.398319	0.414925
	H108	H	0.902491	0.618604	0.097279
	H109	H	0.092787	0.383803	0.090105
	H110	H	0.094711	0.616149	0.908024
	H111	H	0.910930	0.385261	0.907321
	H112	H	0.100758	0.904196	0.619803
	H113	H	0.097858	0.106663	0.377755
	H114	H	0.913944	0.094383	0.615107
	H115	H	0.903735	0.916678	0.384852
	H116	H	0.614342	0.080151	0.903846
	H117	H	0.382040	0.092538	0.096478
	H118	H	0.613985	0.914138	0.090598
	H119	H	0.382957	0.906314	0.909785
	C120	C	0.378294	0.008304	0.622036
	C121	C	0.621210	0.991666	0.621398
	C122	C	0.621560	0.008799	0.378114
	C123	C	0.378400	0.991495	0.377955
	C124	C	0.621814	0.378296	0.007785
	C125	C	0.621428	0.621587	0.991796
	C126	C	0.378351	0.621743	0.008386
	C127	C	0.378375	0.378055	0.990911
	C128	C	0.008793	0.621710	0.378646
	C129	C	0.991547	0.621297	0.620924
	C130	C	0.008666	0.377776	0.621767
	C131	C	0.991614	0.378419	0.379346
	C132	C	0.878039	0.508603	0.122461
	C133	C	0.121707	0.491461	0.122148
	C134	C	0.121382	0.508575	0.878301
	C135	C	0.878458	0.491881	0.878064
	C136	C	0.121683	0.878427	0.508202
	C137	C	0.121638	0.121665	0.491346
	C138	C	0.878582	0.121412	0.508460
	C139	C	0.878368	0.878673	0.491932
	C140	C	0.508672	0.121783	0.878652
	C141	C	0.491637	0.121167	0.121263
	C142	C	0.508605	0.878064	0.121697
	C143	C	0.491687	0.878645	0.878941
	C144	C	0.380058	0.885485	0.677903
	C145	C	0.619281	0.114861	0.676232
	C146	C	0.618452	0.885023	0.324118
	C147	C	0.380919	0.114894	0.322936
	C148	C	0.676254	0.382297	0.884141
	C149	C	0.675774	0.617892	0.115379
	C150	C	0.323807	0.619209	0.884759
	C151	C	0.323789	0.381365	0.114584
	C152	C	0.884923	0.676678	0.380995
	C153	C	0.115395	0.676290	0.618546
	C154	C	0.884724	0.322823	0.619697
	C155	C	0.115377	0.323512	0.381784
	C156	C	0.884656	0.380833	0.676488
	C157	C	0.115628	0.617755	0.675011
	C158	C	0.884606	0.618306	0.324347
	C159	C	0.115209	0.380984	0.324533
	C160	C	0.380738	0.677393	0.885325
	C161	C	0.618541	0.675828	0.115253
	C162	C	0.618583	0.324509	0.884161
	C163	C	0.381157	0.323372	0.114518
	C164	C	0.675922	0.884948	0.381648
	C165	C	0.676359	0.114955	0.618503
	C166	C	0.323209	0.885221	0.619317
	C167	C	0.324359	0.115156	0.381259
	C168	C	0.880317	0.385238	0.176937
	C169	C	0.118267	0.614622	0.176334
	C170	C	0.118513	0.385194	0.824020
	C171	C	0.880785	0.614945	0.822650
	C172	C	0.176287	0.881927	0.384558
	C173	C	0.176185	0.117888	0.614944
	C174	C	0.824641	0.118124	0.384371
	C175	C	0.823474	0.881054	0.615254
	C176	C	0.384695	0.176079	0.881240
	C177	C	0.615096	0.176832	0.119081
	C178	C	0.384594	0.823450	0.118806
	C179	C	0.615107	0.823497	0.880909
	C180	C	0.384633	0.881249	0.175994
	C181	C	0.615597	0.118232	0.175601
	C182	C	0.384754	0.118842	0.823931
	C183	C	0.615417	0.881482	0.823956
	C184	C	0.881861	0.176305	0.384979
	C185	C	0.119046	0.176035	0.614974
	C186	C	0.119433	0.823762	0.384880
	C187	C	0.881107	0.823301	0.615032
	C188	C	0.175488	0.384967	0.882002
	C189	C	0.175413	0.615039	0.117903
	C190	C	0.823633	0.385143	0.118531
	C191	C	0.824097	0.615349	0.881179
	C192	C	0.400270	0.094517	0.600289
	C193	C	0.599210	0.905676	0.599783
	C194	C	0.599772	0.094811	0.399858
	C195	C	0.400713	0.905622	0.400039
	C196	C	0.599940	0.399700	0.094342
	C197	C	0.599732	0.600069	0.905157
	C198	C	0.399844	0.599681	0.094762
	C199	C	0.400101	0.399869	0.904531
	C200	C	0.095426	0.600482	0.400391
	C201	C	0.904922	0.599820	0.599518
	C202	C	0.095050	0.399342	0.599897
	C203	C	0.905083	0.400174	0.401404
	C204	C	0.899972	0.594819	0.100835
	C205	C	0.099829	0.405035	0.100603
	C206	C	0.099586	0.594619	0.899760
	C207	C	0.900559	0.405956	0.900210
	C208	C	0.099395	0.900415	0.594226
	C209	C	0.099754	0.099976	0.405337
	C210	C	0.900173	0.099487	0.594811
	C211	C	0.900168	0.900654	0.405472
	C212	C	0.595133	0.100131	0.900519
	C213	C	0.405295	0.099332	0.099407
	C214	C	0.595377	0.899497	0.100126
	C215	C	0.405406	0.900791	0.901194
	Zn216	Zn	0.500401	0.000010	0.750771
	Zn217	Zn	0.499973	-0.000049	0.249833
	Zn218	Zn	0.750169	0.500278	-0.000103
	Zn219	Zn	0.250345	0.500285	-0.000777
	Zn220	Zn	0.000283	0.749975	0.499994
	Zn221	Zn	0.000338	0.249921	0.500358
	Zn222	Zn	-0.000207	0.500069	0.749451
	Zn223	Zn	-0.000305	0.499439	0.250853
	Zn224	Zn	0.500193	0.750258	0.000338
	Zn225	Zn	0.500022	0.249590	-0.000527
	Zn226	Zn	0.749667	0.000432	0.499898
	Zn227	Zn	0.250148	0.000063	0.499401
	N228	N	0.413802	0.962948	0.679411
	N229	N	0.585412	0.037329	0.678048
	N230	N	0.585330	0.962855	0.321930
	N231	N	0.413573	0.036993	0.320522
	N232	N	0.678258	0.414998	0.962070
	N233	N	0.677525	0.584951	0.037535
	N234	N	0.322418	0.585284	0.962353
	N235	N	0.321964	0.414571	0.036770
	N236	N	0.963035	0.678879	0.414090
	N237	N	0.037283	0.678432	0.585695
	N238	N	0.962752	0.320700	0.586475
	N239	N	0.037429	0.322010	0.415248
	N240	N	0.962570	0.414370	0.677948
	N241	N	0.037658	0.584546	0.676839
	N242	N	0.962464	0.584957	0.322720
	N243	N	0.037376	0.414378	0.323023
	N244	N	0.413964	0.679027	0.963233
	N245	N	0.585474	0.678098	0.037289
	N246	N	0.585309	0.322116	0.962022
	N247	N	0.414293	0.321390	0.036633
	N248	N	0.677939	0.962750	0.414630
	N249	N	0.677562	0.037435	0.585040
	N250	N	0.322122	0.962617	0.585159
	N251	N	0.322715	0.037597	0.414765
	N252	N	0.913391	0.463021	0.179425
	N253	N	0.085436	0.536796	0.178710
	N254	N	0.085483	0.462926	0.821558
	N255	N	0.913874	0.537214	0.820696
	N256	N	0.177719	0.915345	0.462281
	N257	N	0.177913	0.084870	0.537163
	N258	N	0.822325	0.084968	0.462296
	N259	N	0.821945	0.914909	0.537686
	N260	N	0.462562	0.178053	0.914389
	N261	N	0.537018	0.178755	0.085947
	N262	N	0.462728	0.821643	0.085703
	N263	N	0.537257	0.822017	0.914685
	N264	N	0.462624	0.914561	0.177739
	N265	N	0.537976	0.084364	0.176890
	N266	N	0.462886	0.085593	0.822225
	N267	N	0.537736	0.914952	0.822577
	N268	N	0.914374	0.178520	0.463071
	N269	N	0.085913	0.178347	0.537283
	N270	N	0.086043	0.821703	0.462505
	N271	N	0.914499	0.821637	0.537165
	N272	N	0.177210	0.462647	0.915086
	N273	N	0.177736	0.537283	0.084958
	N274	N	0.822177	0.462729	0.085185
	N275	N	0.822622	0.537837	0.914860
