data_Molecule from HDF5

_cell_length_a		16.385206
_cell_length_b		16.120915
_cell_length_c		16.336929
_cell_angle_alpha	89.698762
_cell_angle_beta	90.021622
_cell_angle_gamma	89.737183
_symmetry_space_group_name_H-M	'P 1'
_symmetry_Int_Tables_number		1

loop_
	_symmetry_equiv_pos_as_xyz
	x,y,z

loop_
	_atom_site_label
	_atom_site_type_symbol
	_atom_site_fract_x
	_atom_site_fract_y
	_atom_site_fract_z
	H0	H	0.400361	0.840171	0.716682
	H1	H	0.598111	0.169464	0.715399
	H2	H	0.601534	0.838834	0.287553
	H3	H	0.401572	0.168845	0.285624
	H4	H	0.718559	0.402694	0.838545
	H5	H	0.718710	0.604393	0.163242
	H6	H	0.283389	0.606575	0.839537
	H7	H	0.284528	0.400182	0.163692
	H8	H	0.837820	0.721684	0.402931
	H9	H	0.164900	0.718825	0.598054
	H10	H	0.837669	0.293055	0.598693
	H11	H	0.164488	0.291446	0.405676
	H12	H	0.838235	0.407729	0.716863
	H13	H	0.163179	0.606889	0.719286
	H14	H	0.838934	0.608796	0.282772
	H15	H	0.163766	0.404763	0.286614
	H16	H	0.402529	0.719085	0.837737
	H17	H	0.597878	0.716836	0.165313
	H18	H	0.597627	0.292648	0.835477
	H19	H	0.404735	0.288100	0.163855
	H20	H	0.718969	0.841379	0.401064
	H21	H	0.712418	0.170742	0.598540
	H22	H	0.284912	0.841348	0.602788
	H23	H	0.284918	0.169055	0.399766
	H24	H	0.902174	0.340229	0.217814
	H25	H	0.099066	0.670804	0.213870
	H26	H	0.100377	0.340527	0.787489
	H27	H	0.902302	0.670577	0.787560
	H28	H	0.219110	0.903109	0.339938
	H29	H	0.217704	0.106193	0.663467
	H30	H	0.783540	0.109058	0.338470
	H31	H	0.783556	0.903814	0.663842
	H32	H	0.338367	0.220075	0.900948
	H33	H	0.664536	0.217231	0.097134
	H34	H	0.336789	0.790959	0.099199
	H35	H	0.663712	0.789325	0.905047
	H36	H	0.338755	0.902964	0.219294
	H37	H	0.662469	0.105211	0.218578
	H38	H	0.338735	0.104983	0.783941
	H39	H	0.662477	0.900308	0.783933
	H40	H	0.904142	0.221270	0.337561
	H41	H	0.096187	0.216168	0.665565
	H42	H	0.099578	0.791967	0.338061
	H43	H	0.903255	0.790425	0.665097
	H44	H	0.215936	0.340233	0.901967
	H45	H	0.216927	0.668527	0.101236
	H46	H	0.787516	0.338896	0.101709
	H47	H	0.784906	0.668861	0.900987
	H48	H	0.410550	0.121949	0.593348
	H49	H	0.586910	0.891963	0.586566
	H50	H	0.593763	0.121088	0.412345
	H51	H	0.417143	0.889434	0.408788
	H52	H	0.598748	0.410273	0.117302
	H53	H	0.590970	0.597166	0.886488
	H54	H	0.412147	0.604857	0.118609
	H55	H	0.407634	0.421937	0.887982
	H56	H	0.115055	0.594298	0.407208
	H57	H	0.888194	0.591948	0.593810
	H58	H	0.118268	0.406389	0.594698
	H59	H	0.887024	0.420046	0.407038
	H60	H	0.114557	0.414716	0.593790
	H61	H	0.883683	0.599026	0.600246
	H62	H	0.116894	0.598944	0.405097
	H63	H	0.884298	0.412552	0.404359
	H64	H	0.396359	0.593422	0.119864
	H65	H	0.595548	0.598191	0.885109
	H66	H	0.594122	0.414142	0.115273
	H67	H	0.413159	0.407152	0.885033
	H68	H	0.592515	0.123723	0.403820
	H69	H	0.600712	0.886231	0.589911
	H70	H	0.406869	0.121453	0.589324
	H71	H	0.405453	0.887999	0.418698
	H72	H	0.915723	0.620369	0.096083
	H73	H	0.092968	0.387399	0.095737
	H74	H	0.090520	0.622202	0.908087
	H75	H	0.911386	0.390143	0.917341
	H76	H	0.090855	0.917906	0.614339
	H77	H	0.089037	0.098549	0.387087
	H78	H	0.911547	0.099499	0.615213
	H79	H	0.907397	0.912186	0.385073
	H80	H	0.613187	0.085870	0.907205
	H81	H	0.386384	0.100309	0.087526
	H82	H	0.617324	0.909857	0.098567
	H83	H	0.388972	0.916113	0.916941
	H84	H	0.615021	0.908899	0.092181
	H85	H	0.388439	0.088366	0.092983
	H86	H	0.620147	0.099246	0.897992
	H87	H	0.384485	0.919372	0.897411
	H88	H	0.900678	0.102843	0.620103
	H89	H	0.095508	0.099749	0.384544
	H90	H	0.090846	0.908075	0.618080
	H91	H	0.905443	0.919088	0.386971
	H92	H	0.091876	0.622083	0.912586
	H93	H	0.092911	0.387976	0.093663
	H94	H	0.909652	0.617931	0.083286
	H95	H	0.900443	0.383474	0.906638
	H96	H	0.405543	0.123779	0.594613
	H97	H	0.589421	0.886770	0.600663
	H98	H	0.586439	0.119648	0.407749
	H99	H	0.403819	0.883609	0.403794
	H100	H	0.592525	0.407180	0.116326
	H101	H	0.594923	0.593537	0.886947
	H102	H	0.413454	0.586450	0.112820
	H103	H	0.398196	0.411226	0.882331
	H104	H	0.115529	0.599374	0.410099
	H105	H	0.887236	0.601785	0.590338
	H106	H	0.118361	0.412151	0.601361
	H107	H	0.885743	0.413566	0.412998
	H108	H	0.901664	0.624116	0.093482
	H109	H	0.094128	0.387115	0.095240
	H110	H	0.094763	0.622377	0.909512
	H111	H	0.915478	0.387026	0.901350
	H112	H	0.099851	0.913640	0.618367
	H113	H	0.094327	0.093062	0.386770
	H114	H	0.902821	0.091510	0.615993
	H115	H	0.912174	0.916704	0.387649
	H116	H	0.615924	0.101599	0.914514
	H117	H	0.383636	0.098007	0.100262
	H118	H	0.614586	0.914808	0.095330
	H119	H	0.380791	0.901334	0.905525
	C120	C	0.378993	0.013504	0.622202
	C121	C	0.620848	0.996999	0.621329
	C122	C	0.621825	0.013079	0.379385
	C123	C	0.379616	0.995918	0.380413
	C124	C	0.623549	0.381759	0.008496
	C125	C	0.622558	0.625400	0.993549
	C126	C	0.378782	0.625064	0.009585
	C127	C	0.378762	0.382602	0.992775
	C128	C	0.008763	0.628187	0.378220
	C129	C	0.993415	0.626695	0.622878
	C130	C	0.009393	0.383282	0.624511
	C131	C	0.993327	0.384697	0.379806
	C132	C	0.880068	0.512477	0.121588
	C133	C	0.122321	0.496327	0.123093
	C134	C	0.121690	0.513422	0.880839
	C135	C	0.879898	0.496151	0.879656
	C136	C	0.123230	0.883802	0.509728
	C137	C	0.121957	0.126489	0.493341
	C138	C	0.877307	0.128464	0.509607
	C139	C	0.879368	0.885047	0.493768
	C140	C	0.509317	0.125531	0.878313
	C141	C	0.493205	0.124870	0.122098
	C142	C	0.508793	0.881828	0.124291
	C143	C	0.492131	0.882131	0.878661
	C144	C	0.381047	0.889586	0.678312
	C145	C	0.618374	0.120692	0.677148
	C146	C	0.621580	0.888711	0.324465
	C147	C	0.381270	0.119706	0.323582
	C148	C	0.679702	0.383323	0.886571
	C149	C	0.679304	0.623956	0.115298
	C150	C	0.322122	0.625492	0.887647
	C151	C	0.323167	0.381872	0.115142
	C152	C	0.886686	0.684292	0.381500
	C153	C	0.116074	0.681603	0.619539
	C154	C	0.886397	0.329946	0.620409
	C155	C	0.115569	0.328733	0.383984
	C156	C	0.886828	0.387047	0.678840
	C157	C	0.115192	0.626005	0.679748
	C158	C	0.887098	0.627978	0.321906
	C159	C	0.115099	0.385263	0.324752
	C160	C	0.381560	0.681482	0.886851
	C161	C	0.619467	0.679941	0.116326
	C162	C	0.619758	0.328283	0.885284
	C163	C	0.382960	0.325961	0.115210
	C164	C	0.680217	0.890033	0.380709
	C165	C	0.675190	0.121275	0.619177
	C166	C	0.323114	0.890233	0.621940
	C167	C	0.323500	0.119913	0.380536
	C168	C	0.882140	0.389062	0.179118
	C169	C	0.119876	0.620873	0.177259
	C170	C	0.120336	0.389725	0.825387
	C171	C	0.881810	0.620778	0.824942
	C172	C	0.180097	0.884283	0.388134
	C173	C	0.178468	0.125147	0.615247
	C174	C	0.822037	0.128437	0.387154
	C175	C	0.822843	0.884987	0.615632
	C176	C	0.386927	0.182044	0.880568
	C177	C	0.615692	0.179869	0.118628
	C178	C	0.386000	0.827391	0.120947
	C179	C	0.614731	0.826556	0.883214
	C180	C	0.386864	0.883159	0.180563
	C181	C	0.614791	0.123812	0.178796
	C182	C	0.387023	0.124854	0.822396
	C183	C	0.614048	0.881745	0.822724
	C184	C	0.881966	0.184082	0.386616
	C185	C	0.118302	0.180181	0.616491
	C186	C	0.120710	0.828876	0.387269
	C187	C	0.882320	0.828390	0.616077
	C188	C	0.177916	0.389602	0.882137
	C189	C	0.178453	0.619885	0.121091
	C190	C	0.824957	0.388554	0.121497
	C191	C	0.823365	0.619954	0.881241
	C192	C	0.401412	0.099938	0.599290
	C193	C	0.598897	0.910543	0.598977
	C194	C	0.598094	0.099257	0.401510
	C195	C	0.402271	0.909291	0.403558
	C196	C	0.601546	0.403937	0.094219
	C197	C	0.600339	0.602933	0.908232
	C198	C	0.401082	0.601550	0.094855
	C199	C	0.400083	0.406543	0.907287
	C200	C	0.093823	0.604389	0.400765
	C201	C	0.908454	0.604306	0.601099
	C202	C	0.095076	0.404831	0.602949
	C203	C	0.907729	0.408331	0.401824
	C204	C	0.902458	0.598580	0.097742
	C205	C	0.099993	0.410058	0.101248
	C206	C	0.098931	0.599710	0.903450
	C207	C	0.902498	0.409472	0.901948
	C208	C	0.100643	0.906645	0.595000
	C209	C	0.099634	0.103684	0.408025
	C210	C	0.898582	0.104879	0.594931
	C211	C	0.901789	0.909027	0.408558
	C212	C	0.594323	0.102470	0.900047
	C213	C	0.408269	0.102259	0.100000
	C214	C	0.593762	0.904378	0.101888
	C215	C	0.406860	0.905442	0.900273
	Zn216	Zn	0.500648	0.004222	0.749561
	Zn217	Zn	0.500319	0.003381	0.252587
	Zn218	Zn	0.751659	0.503449	0.000758
	Zn219	Zn	0.249552	0.503917	0.001682
	Zn220	Zn	0.001620	0.756158	0.501161
	Zn221	Zn	0.000765	0.255637	0.501694
	Zn222	Zn	0.001431	0.505388	0.752825
	Zn223	Zn	0.000899	0.505537	0.249982
	Zn224	Zn	0.500236	0.754231	0.001726
	Zn225	Zn	0.501242	0.254170	-0.000334
	Zn226	Zn	0.749101	0.006143	0.500949
	Zn227	Zn	0.251645	0.005464	0.501221
	N228	N	0.415122	0.967451	0.678717
	N229	N	0.585393	0.042397	0.678603
	N230	N	0.586064	0.966211	0.323515
	N231	N	0.415410	0.041541	0.323416
	N232	N	0.682149	0.415737	0.964363
	N233	N	0.681281	0.590713	0.037967
	N234	N	0.320070	0.591261	0.964896
	N235	N	0.320279	0.416173	0.037770
	N236	N	0.963420	0.684383	0.415783
	N237	N	0.039492	0.682182	0.584789
	N238	N	0.963570	0.327323	0.587456
	N239	N	0.038489	0.328448	0.417500
	N240	N	0.964404	0.419093	0.681722
	N241	N	0.038142	0.592547	0.681918
	N242	N	0.964145	0.593736	0.319838
	N243	N	0.038001	0.419279	0.322159
	N244	N	0.415966	0.681518	0.963770
	N245	N	0.585064	0.680955	0.039539
	N246	N	0.585242	0.327445	0.962097
	N247	N	0.416483	0.326298	0.038142
	N248	N	0.680512	0.968266	0.413868
	N249	N	0.676579	0.043473	0.585095
	N250	N	0.322031	0.968227	0.587474
	N251	N	0.322512	0.042021	0.415218
	N252	N	0.915528	0.467257	0.179389
	N253	N	0.085762	0.543006	0.178678
	N254	N	0.086169	0.467723	0.824413
	N255	N	0.916209	0.542823	0.823873
	N256	N	0.181741	0.917553	0.465406
	N257	N	0.180818	0.092451	0.537586
	N258	N	0.818753	0.094649	0.464575
	N259	N	0.820682	0.919362	0.538317
	N260	N	0.463752	0.182580	0.914662
	N261	N	0.539230	0.180540	0.084073
	N262	N	0.462744	0.826296	0.086633
	N263	N	0.538029	0.826768	0.917251
	N264	N	0.464134	0.916078	0.182757
	N265	N	0.537635	0.090281	0.181058
	N266	N	0.463924	0.090297	0.820833
	N267	N	0.536740	0.915403	0.819506
	N268	N	0.915395	0.184383	0.463825
	N269	N	0.083823	0.181176	0.539691
	N270	N	0.086125	0.828304	0.464045
	N271	N	0.916795	0.828631	0.539281
	N272	N	0.178895	0.467620	0.916071
	N273	N	0.180194	0.541519	0.088208
	N274	N	0.823481	0.466259	0.086387
	N275	N	0.822040	0.541472	0.914660
	O276	O	0.466518	0.554811	0.420892
	H277	H	0.454746	0.567620	0.410753
	H278	H	0.454427	0.545181	0.429540
	O279	O	0.503969	0.518127	0.529926
	H280	H	0.495646	0.516037	0.538179
	H281	H	0.517198	0.529788	0.538086
	O282	O	1.075571	1.038426	-0.032015
	H283	H	1.082142	1.041488	-0.033329
	H284	H	1.072071	1.039500	-0.037462
	O285	O	0.997193	0.013015	1.040907
	H286	H	0.991732	0.013628	1.040834
	H287	H	1.006358	0.004093	1.035927
	O288	O	0.550286	0.512937	0.572178
	H289	H	0.540087	0.514425	0.564971
	H290	H	0.560871	0.508765	0.576987
	O291	O	0.422951	0.483319	0.530875
	H292	H	0.431141	0.479950	0.540033
	H293	H	0.421967	0.489282	0.521022
	O294	O	0.555649	0.426285	0.466611
	H295	H	0.564826	0.420638	0.463416
	H296	H	0.551850	0.435971	0.458534
	O297	O	0.449180	0.500828	0.427789
	H298	H	0.458454	0.501069	0.438055
	H299	H	0.446398	0.509302	0.436317
	O300	O	1.024941	-0.015951	1.064722
	H301	H	1.010209	-0.016866	1.067556
	H302	H	1.030651	-0.019999	1.060067
	O303	O	0.885630	0.940698	0.149530
	H304	H	0.885278	0.927833	0.141095
	H305	H	0.880797	0.936368	0.151097
	O306	O	0.117921	1.037481	1.074582
	H307	H	0.110660	1.040912	1.087842
	H308	H	0.106940	1.037255	1.060586
	O309	O	0.628303	0.607073	0.554462
	H310	H	0.626512	0.609426	0.554975
	H311	H	0.631013	0.599512	0.550614
	O312	O	0.053208	-0.055541	-0.012713
	H313	H	0.056854	-0.051451	-0.010436
	H314	H	0.055637	-0.051915	-0.023694
	O315	O	0.913686	0.068534	-0.147390
	H316	H	0.913609	0.078119	-0.147922
	H317	H	0.919343	0.073163	-0.142543
	O318	O	1.026086	1.034922	1.041170
	H319	H	1.028091	1.042627	1.040057
	H320	H	1.024174	1.037667	1.040856
	O321	O	-0.486273	-0.529641	0.526044
	H322	H	-0.484562	-0.542926	0.525669
	H323	H	-0.478194	-0.531335	0.529982
	O324	O	0.413224	0.525485	0.430848
	H325	H	0.408189	0.536066	0.423841
	H326	H	0.418219	0.520049	0.436880
	O327	O	-0.505570	-0.477908	0.488994
	H328	H	-0.507310	-0.474287	0.483009
	H329	H	-0.506026	-0.472829	0.487593
	O330	O	0.519140	0.480356	0.558099
	H331	H	0.526068	0.471998	0.560533
	H332	H	0.525727	0.480358	0.549915
	O333	O	-0.361858	0.454717	0.496038
	H334	H	-0.366242	0.460515	0.482062
	H335	H	-0.359187	0.460945	0.492931
	O336	O	0.038071	0.001456	0.105740
	H337	H	0.034014	-0.004548	0.110274
	H338	H	0.022986	-0.001667	0.104765
	O339	O	-0.009789	0.973266	0.959286
	H340	H	-0.006680	0.981433	0.958396
	H341	H	-0.009701	0.970071	0.963573
	O342	O	0.901437	0.962700	1.045933
	H343	H	0.899876	0.958723	1.052632
	H344	H	0.885154	0.965076	1.043096
	O345	O	0.958387	1.080389	-0.074707
	H346	H	0.959554	1.088504	-0.072668
	H347	H	0.953475	1.085153	-0.080750
	O348	O	0.413833	0.525633	0.336698
	H349	H	0.401236	0.518805	0.334886
	H350	H	0.415926	0.530533	0.336828
	O351	O	0.575244	0.497493	0.531418
	H352	H	0.575469	0.496420	0.524710
	H353	H	0.573290	0.503237	0.523555
	O354	O	0.839278	0.145785	0.756070
	H355	H	0.840924	0.159691	0.751541
	H356	H	0.832336	0.147769	0.750391
	O357	O	1.049187	0.082218	1.040621
	H358	H	1.044521	0.076436	1.049154
	H359	H	1.042973	0.081180	1.039442
	O360	O	0.441404	0.544769	0.414424
	H361	H	0.420779	0.557540	0.419330
	H362	H	0.434779	0.556134	0.421959
	O363	O	0.994379	0.970691	-0.029340
	H364	H	0.998950	0.978565	-0.028536
	H365	H	1.001437	0.979478	-0.037549
	O366	O	1.023147	0.899825	1.000883
	H367	H	1.025310	0.906199	0.999692
	H368	H	1.033982	0.905773	1.002859
	O369	O	0.892904	0.017442	0.973123
	H370	H	0.887271	0.018292	0.971994
	H371	H	0.887831	0.013263	0.963523
	O372	O	0.013496	0.111763	0.013391
	H373	H	0.016037	0.107370	0.031235
	H374	H	0.006843	0.111404	0.021326
	O375	O	1.057281	-0.083378	-0.077646
	H376	H	1.065535	-0.093815	-0.076232
	H377	H	1.058975	-0.086600	-0.082437
	O378	O	0.488982	0.561569	0.572749
	H379	H	0.492681	0.559524	0.577046
	H380	H	0.486547	0.551223	0.570558
	O381	O	0.559542	0.484370	0.490190
	H382	H	0.567362	0.483103	0.486982
	H383	H	0.554830	0.481824	0.489710
