data_Molecule from HDF5

_cell_length_a		16.156693
_cell_length_b		16.426724
_cell_length_c		16.280782
_cell_angle_alpha	89.928472
_cell_angle_beta	89.914905
_cell_angle_gamma	90.122022
_symmetry_space_group_name_H-M	'P 1'
_symmetry_Int_Tables_number		1

loop_
	_symmetry_equiv_pos_as_xyz
	x,y,z

loop_
	_atom_site_label
	_atom_site_type_symbol
	_atom_site_fract_x
	_atom_site_fract_y
	_atom_site_fract_z
	H0	H	0.407188	0.834594	0.723848
	H1	H	0.607461	0.158558	0.724577
	H2	H	0.606983	0.834856	0.290334
	H3	H	0.404460	0.157793	0.289072
	H4	H	0.719845	0.401471	0.843711
	H5	H	0.717103	0.593706	0.172303
	H6	H	0.291839	0.594897	0.843564
	H7	H	0.290163	0.398926	0.170925
	H8	H	0.841962	0.713252	0.409517
	H9	H	0.169447	0.712805	0.609220
	H10	H	0.842285	0.279823	0.609861
	H11	H	0.169064	0.281556	0.406070
	H12	H	0.840697	0.398921	0.722617
	H13	H	0.170157	0.595133	0.720782
	H14	H	0.839470	0.594630	0.297212
	H15	H	0.169564	0.399913	0.293789
	H16	H	0.405124	0.713010	0.844337
	H17	H	0.606372	0.714014	0.170250
	H18	H	0.607434	0.281351	0.844120
	H19	H	0.401893	0.278843	0.169703
	H20	H	0.720415	0.834086	0.410431
	H21	H	0.720690	0.159949	0.604846
	H22	H	0.291700	0.834183	0.606098
	H23	H	0.289890	0.159319	0.408118
	H24	H	0.904481	0.335017	0.225475
	H25	H	0.104577	0.659470	0.224930
	H26	H	0.105844	0.336526	0.791293
	H27	H	0.906173	0.660428	0.792530
	H28	H	0.220043	0.899737	0.344606
	H29	H	0.218691	0.093214	0.672489
	H30	H	0.793549	0.093664	0.343592
	H31	H	0.793249	0.900911	0.672536
	H32	H	0.341934	0.213897	0.903814
	H33	H	0.668717	0.214197	0.107393
	H34	H	0.341164	0.781897	0.106993
	H35	H	0.669884	0.782154	0.907582
	H36	H	0.341027	0.898148	0.221137
	H37	H	0.670270	0.096184	0.221240
	H38	H	0.341329	0.093631	0.793525
	H39	H	0.671494	0.900401	0.795058
	H40	H	0.904537	0.214330	0.345614
	H41	H	0.109178	0.214808	0.670054
	H42	H	0.107972	0.780516	0.346229
	H43	H	0.904769	0.781873	0.671660
	H44	H	0.219755	0.335888	0.909356
	H45	H	0.220540	0.660328	0.106791
	H46	H	0.790495	0.334522	0.106336
	H47	H	0.792418	0.661432	0.912504
	H48	H	0.418175	0.109997	0.599009
	H49	H	0.602904	0.880883	0.600990
	H50	H	0.603544	0.110693	0.421606
	H51	H	0.409904	0.881609	0.417836
	H52	H	0.586719	0.403640	0.120407
	H53	H	0.591827	0.598708	0.890429
	H54	H	0.416203	0.596532	0.124180
	H55	H	0.416106	0.393456	0.888502
	H56	H	0.125607	0.593193	0.409961
	H57	H	0.887888	0.589463	0.601428
	H58	H	0.124730	0.397728	0.598169
	H59	H	0.890845	0.403389	0.424861
	H60	H	0.118886	0.410338	0.593612
	H61	H	0.887768	0.591440	0.599175
	H62	H	0.121288	0.594389	0.423722
	H63	H	0.889013	0.411250	0.414386
	H64	H	0.408194	0.589018	0.125197
	H65	H	0.607278	0.592793	0.888508
	H66	H	0.600321	0.396749	0.127221
	H67	H	0.402708	0.407687	0.889170
	H68	H	0.602673	0.114653	0.405850
	H69	H	0.598045	0.881037	0.604814
	H70	H	0.409938	0.111604	0.597452
	H71	H	0.413072	0.881348	0.410545
	H72	H	0.908624	0.614237	0.106141
	H73	H	0.098860	0.381935	0.103324
	H74	H	0.099579	0.618262	0.899690
	H75	H	0.908378	0.382405	0.919182
	H76	H	0.101606	0.908307	0.624271
	H77	H	0.099981	0.085518	0.393255
	H78	H	0.919811	0.086475	0.621857
	H79	H	0.904795	0.907312	0.389840
	H80	H	0.621664	0.084186	0.914053
	H81	H	0.389149	0.090911	0.094832
	H82	H	0.624191	0.905764	0.104643
	H83	H	0.387090	0.901951	0.911543
	H84	H	0.624370	0.898232	0.096982
	H85	H	0.389939	0.083778	0.098033
	H86	H	0.626032	0.095276	0.911370
	H87	H	0.388642	0.902260	0.918057
	H88	H	0.915201	0.096143	0.625913
	H89	H	0.091921	0.091015	0.393313
	H90	H	0.092419	0.903954	0.623463
	H91	H	0.922532	0.910068	0.396618
	H92	H	0.083953	0.607476	0.918968
	H93	H	0.093506	0.383179	0.103021
	H94	H	0.913162	0.612955	0.105963
	H95	H	0.910542	0.382058	0.909680
	H96	H	0.413885	0.113674	0.605181
	H97	H	0.597033	0.883127	0.599342
	H98	H	0.589674	0.109219	0.413493
	H99	H	0.417509	0.883846	0.416734
	H100	H	0.600689	0.412435	0.122177
	H101	H	0.595150	0.583182	0.894368
	H102	H	0.417833	0.585995	0.121121
	H103	H	0.421319	0.410885	0.895839
	H104	H	0.120554	0.582111	0.417068
	H105	H	0.888973	0.589315	0.599725
	H106	H	0.123438	0.408323	0.607537
	H107	H	0.885663	0.398446	0.414254
	H108	H	0.910168	0.613044	0.101480
	H109	H	0.097258	0.383907	0.098029
	H110	H	0.110178	0.614551	0.924298
	H111	H	0.917581	0.384642	0.915889
	H112	H	0.100524	0.897998	0.627212
	H113	H	0.100898	0.094979	0.389334
	H114	H	0.908852	0.086427	0.624664
	H115	H	0.917223	0.892802	0.389135
	H116	H	0.620821	0.093371	0.922442
	H117	H	0.387862	0.089966	0.101656
	H118	H	0.620585	0.907937	0.094153
	H119	H	0.388734	0.906947	0.914082
	C120	C	0.384812	0.004889	0.629487
	C121	C	0.628683	0.988644	0.630067
	C122	C	0.627801	0.004524	0.385255
	C123	C	0.384014	0.989011	0.385741
	C124	C	0.626298	0.375751	0.015469
	C125	C	0.626442	0.619569	0.999271
	C126	C	0.384647	0.618871	0.015715
	C127	C	0.383365	0.374882	0.999077
	C128	C	0.013865	0.618404	0.388461
	C129	C	0.996521	0.618824	0.629549
	C130	C	0.013976	0.376074	0.629504
	C131	C	0.996886	0.375897	0.387577
	C132	C	0.882061	0.505825	0.132123
	C133	C	0.126247	0.489900	0.130491
	C134	C	0.126999	0.506337	0.885793
	C135	C	0.883736	0.489992	0.886351
	C136	C	0.127944	0.875041	0.517277
	C137	C	0.127517	0.119329	0.499637
	C138	C	0.884677	0.118833	0.516497
	C139	C	0.884817	0.875034	0.500255
	C140	C	0.514402	0.119052	0.886248
	C141	C	0.497183	0.117808	0.127806
	C142	C	0.514358	0.874924	0.128157
	C143	C	0.497300	0.875913	0.886277
	C144	C	0.386734	0.882900	0.685449
	C145	C	0.627268	0.110414	0.685877
	C146	C	0.626911	0.883194	0.328814
	C147	C	0.385107	0.110060	0.328727
	C148	C	0.682373	0.379492	0.892732
	C149	C	0.680143	0.615220	0.123090
	C150	C	0.329340	0.615736	0.892620
	C151	C	0.327767	0.377638	0.121995
	C152	C	0.890454	0.674721	0.389927
	C153	C	0.120423	0.674263	0.628403
	C154	C	0.891100	0.319073	0.628983
	C155	C	0.120254	0.320389	0.387666
	C156	C	0.890213	0.378221	0.685049
	C157	C	0.120814	0.615902	0.683908
	C158	C	0.889141	0.615827	0.334164
	C159	C	0.120421	0.378806	0.331385
	C160	C	0.385465	0.674799	0.893120
	C161	C	0.625277	0.675165	0.121905
	C162	C	0.626454	0.319832	0.893039
	C163	C	0.383198	0.317761	0.121109
	C164	C	0.683508	0.882754	0.388406
	C165	C	0.683785	0.111004	0.626659
	C166	C	0.329617	0.882688	0.626731
	C167	C	0.328000	0.110772	0.387775
	C168	C	0.884439	0.383499	0.187035
	C169	C	0.124613	0.611540	0.186123
	C170	C	0.125193	0.384696	0.830140
	C171	C	0.885749	0.612005	0.830706
	C172	C	0.182882	0.878527	0.393828
	C173	C	0.182350	0.115351	0.623050
	C174	C	0.829925	0.115451	0.393040
	C175	C	0.830109	0.879503	0.623398
	C176	C	0.390908	0.175177	0.885551
	C177	C	0.620127	0.175243	0.127368
	C178	C	0.390584	0.819347	0.127367
	C179	C	0.621112	0.820643	0.887884
	C180	C	0.390448	0.877089	0.183870
	C181	C	0.620828	0.116339	0.183511
	C182	C	0.390530	0.115868	0.830311
	C183	C	0.621899	0.879272	0.832097
	C184	C	0.885106	0.175470	0.394060
	C185	C	0.127532	0.175733	0.621783
	C186	C	0.127051	0.819315	0.394735
	C187	C	0.885709	0.820160	0.622925
	C188	C	0.181847	0.384320	0.888916
	C189	C	0.182695	0.611604	0.127767
	C190	C	0.827639	0.383196	0.127877
	C191	C	0.829380	0.612651	0.890380
	C192	C	0.407279	0.089849	0.607118
	C193	C	0.605931	0.903574	0.608374
	C194	C	0.605128	0.089656	0.407209
	C195	C	0.406840	0.904187	0.408440
	C196	C	0.602677	0.397696	0.101113
	C197	C	0.604553	0.597929	0.913284
	C198	C	0.407489	0.596939	0.101372
	C199	C	0.406623	0.397365	0.913364
	C200	C	0.099976	0.596291	0.410335
	C201	C	0.910407	0.596716	0.606767
	C202	C	0.100150	0.398944	0.606650
	C203	C	0.910781	0.397945	0.411043
	C204	C	0.904156	0.591163	0.110822
	C205	C	0.103163	0.404863	0.108171
	C206	C	0.104492	0.591585	0.907846
	C207	C	0.905767	0.405014	0.908444
	C208	C	0.104934	0.896987	0.602960
	C209	C	0.104536	0.097200	0.414127
	C210	C	0.907832	0.096287	0.601996
	C211	C	0.908136	0.896963	0.414006
	C212	C	0.600469	0.097325	0.909103
	C213	C	0.411114	0.094783	0.105041
	C214	C	0.600673	0.897281	0.105230
	C215	C	0.410720	0.897592	0.908094
	Zn216	Zn	0.506309	-0.002498	0.758872
	Zn217	Zn	0.505693	-0.003976	0.255757
	Zn218	Zn	0.754553	0.497884	0.008446
	Zn219	Zn	0.255961	0.497687	0.007409
	Zn220	Zn	0.006119	0.746765	0.509080
	Zn221	Zn	0.006336	0.247570	0.507960
	Zn222	Zn	0.005289	0.498157	0.757043
	Zn223	Zn	0.004438	0.497605	0.260796
	Zn224	Zn	0.505292	0.748123	0.007219
	Zn225	Zn	0.504946	0.246591	0.007195
	Zn226	Zn	0.757165	-0.003127	0.507322
	Zn227	Zn	0.255238	-0.002819	0.508206
	N228	N	0.420631	0.959783	0.687071
	N229	N	0.593749	0.033342	0.688218
	N230	N	0.592902	0.960014	0.326748
	N231	N	0.419025	0.033444	0.327340
	N232	N	0.682212	0.413632	0.969841
	N233	N	0.681165	0.581411	0.045892
	N234	N	0.328770	0.581563	0.969789
	N235	N	0.327782	0.412512	0.045119
	N236	N	0.968776	0.676535	0.422914
	N237	N	0.042259	0.676290	0.595246
	N238	N	0.969246	0.317506	0.595225
	N239	N	0.042331	0.318521	0.421699
	N240	N	0.967701	0.412974	0.685491
	N241	N	0.042847	0.581829	0.684623
	N242	N	0.966729	0.581396	0.333249
	N243	N	0.042640	0.412630	0.331286
	N244	N	0.419207	0.676751	0.970647
	N245	N	0.592397	0.677783	0.043956
	N246	N	0.592332	0.317436	0.970434
	N247	N	0.417001	0.316033	0.043494
	N248	N	0.684069	0.959209	0.422632
	N249	N	0.684448	0.034500	0.592422
	N250	N	0.328037	0.959494	0.592962
	N251	N	0.327237	0.034364	0.422601
	N252	N	0.917606	0.460751	0.189697
	N253	N	0.090501	0.534779	0.188057
	N254	N	0.091829	0.461564	0.828337
	N255	N	0.918812	0.534921	0.828230
	N256	N	0.183541	0.912388	0.471067
	N257	N	0.182563	0.080920	0.546066
	N258	N	0.829556	0.081132	0.470150
	N259	N	0.829326	0.912620	0.545741
	N260	N	0.468946	0.177279	0.919576
	N261	N	0.542364	0.176086	0.093424
	N262	N	0.468478	0.818267	0.093165
	N263	N	0.542727	0.818542	0.921014
	N264	N	0.468258	0.911148	0.184546
	N265	N	0.543267	0.081418	0.183975
	N266	N	0.468099	0.081610	0.830505
	N267	N	0.543944	0.912918	0.830856
	N268	N	0.918492	0.177616	0.471747
	N269	N	0.094321	0.178180	0.544071
	N270	N	0.093628	0.816922	0.472469
	N271	N	0.919145	0.817486	0.545120
	N272	N	0.183018	0.460970	0.922998
	N273	N	0.183743	0.534887	0.093769
	N274	N	0.826019	0.460114	0.094551
	N275	N	0.827942	0.535879	0.924358
	O276	O	0.038033	0.067808	-0.005989
	H277	H	0.025865	0.066570	-0.007949
	H278	H	0.043017	0.072424	-0.007200
	O279	O	0.415188	0.595916	0.497230
	H280	H	0.416427	0.598800	0.505436
	H281	H	0.406746	0.596090	0.482882
	O282	O	0.485114	0.487851	0.538418
	H283	H	0.484847	0.476675	0.532678
	H284	H	0.488390	0.500203	0.542483
	O285	O	1.030709	0.020177	1.047026
	H286	H	1.040039	0.020685	1.047169
	H287	H	1.033693	0.019290	1.040051
	O288	O	0.950431	0.053468	0.036394
	H289	H	0.950434	0.047495	0.028413
	H290	H	0.951359	0.054837	0.036136
	O291	O	0.528170	0.390322	0.492933
	H292	H	0.526640	0.385774	0.495714
	H293	H	0.522776	0.401114	0.494871
	O294	O	1.529229	0.540852	0.529467
	H295	H	1.525431	0.550916	0.527282
	H296	H	1.534666	0.544068	0.518121
	O297	O	0.025657	0.069801	-0.050723
	H298	H	0.027033	0.071943	-0.054045
	H299	H	0.017580	0.078346	-0.056773
	O300	O	0.480910	0.490511	0.408381
	H301	H	0.478058	0.485228	0.405136
	H302	H	0.483091	0.490287	0.415089
	O303	O	0.557836	0.474135	0.514897
	H304	H	0.567309	0.462546	0.518508
	H305	H	0.563385	0.466504	0.510091
	O306	O	1.018642	0.086065	-0.049361
	H307	H	1.015652	0.087714	-0.049963
	H308	H	1.016330	0.091449	-0.054691
	O309	O	-0.002597	0.079043	1.073886
	H310	H	0.000898	0.083020	1.069431
	H311	H	-0.007179	0.086469	1.073853
	O312	O	1.013292	1.006544	0.979029
	H313	H	1.007712	1.005454	0.982166
	H314	H	1.016831	1.005793	0.990704
	O315	O	0.435346	0.547368	0.499268
	H316	H	0.439093	0.562496	0.490302
	H317	H	0.425122	0.546459	0.483657
	O318	O	0.502768	0.463765	0.530122
	H319	H	0.514303	0.455145	0.525992
	H320	H	0.488201	0.455015	0.537923
	O321	O	0.024697	0.986403	1.025547
	H322	H	0.029633	0.991578	1.033171
	H323	H	0.024372	0.979039	1.027493
	O324	O	0.460625	0.403515	0.434509
	H325	H	0.469905	0.407290	0.431444
	H326	H	0.465615	0.397259	0.450700
	O327	O	0.997391	1.056384	0.053161
	H328	H	1.006218	1.058318	0.050071
	H329	H	0.998553	1.056746	0.058560
	O330	O	0.541568	0.547434	0.636838
	H331	H	0.554145	0.553760	0.637764
	H332	H	0.537730	0.556047	0.642308
	O333	O	0.563334	0.518567	0.508842
	H334	H	0.560399	0.519968	0.503663
	H335	H	0.565469	0.515438	0.506836
	O336	O	0.393045	0.447489	0.485143
	H337	H	0.383229	0.435484	0.491620
	H338	H	0.403550	0.453807	0.490498
	O339	O	0.982686	1.015774	0.079968
	H340	H	0.980579	1.017225	0.080967
	H341	H	0.991430	1.020884	0.082352
	O342	O	0.374607	0.534663	0.550651
	H343	H	0.385793	0.531102	0.540397
	H344	H	0.377083	0.542026	0.544840
	O345	O	0.558849	0.416894	0.546243
	H346	H	0.558441	0.421798	0.550808
	H347	H	0.556333	0.422033	0.555524
	O348	O	-0.044087	-0.005872	0.062722
	H349	H	-0.047801	-0.004384	0.064923
	H350	H	-0.046764	-0.008459	0.071252
	O351	O	-0.423277	0.441442	0.394679
	H352	H	-0.426169	0.430504	0.400696
	H353	H	-0.412643	0.422497	0.390969
	O354	O	0.495985	0.533204	0.421132
	H355	H	0.486106	0.525089	0.423654
	H356	H	0.493185	0.523119	0.407178
	O357	O	-0.430914	1.464035	0.508667
	H358	H	-0.432255	1.470129	0.510797
	H359	H	-0.445288	1.472271	0.504961
