data_Molecule from HDF5

_cell_length_a		16.628154
_cell_length_b		16.695745
_cell_length_c		16.643460
_cell_angle_alpha	89.990434
_cell_angle_beta	90.081467
_cell_angle_gamma	89.883280
_symmetry_space_group_name_H-M	'P 1'
_symmetry_Int_Tables_number		1

loop_
	_symmetry_equiv_pos_as_xyz
	x,y,z

loop_
	_atom_site_label
	_atom_site_type_symbol
	_atom_site_fract_x
	_atom_site_fract_y
	_atom_site_fract_z
	H0	H	0.388595	0.845671	0.734149
	H1	H	0.600843	0.154012	0.731960
	H2	H	0.603405	0.845144	0.285986
	H3	H	0.391037	0.153520	0.289982
	H4	H	0.715098	0.394895	0.855651
	H5	H	0.718851	0.606503	0.163847
	H6	H	0.275041	0.603059	0.853829
	H7	H	0.277310	0.397186	0.167227
	H8	H	0.840599	0.721883	0.403443
	H9	H	0.149354	0.721056	0.618747
	H10	H	0.837267	0.281635	0.611024
	H11	H	0.151116	0.278555	0.407071
	H12	H	0.837350	0.397420	0.727485
	H13	H	0.150867	0.601841	0.731041
	H14	H	0.840041	0.604732	0.288642
	H15	H	0.150927	0.394091	0.290359
	H16	H	0.390617	0.719588	0.854480
	H17	H	0.603243	0.723257	0.163791
	H18	H	0.598443	0.279722	0.855300
	H19	H	0.394602	0.281618	0.167408
	H20	H	0.719162	0.845245	0.402767
	H21	H	0.716761	0.154074	0.615983
	H22	H	0.271342	0.845801	0.618776
	H23	H	0.274499	0.153646	0.406493
	H24	H	0.890274	0.343935	0.232480
	H25	H	0.098733	0.654264	0.231641
	H26	H	0.097797	0.341755	0.792784
	H27	H	0.890823	0.654062	0.789919
	H28	H	0.216153	0.893066	0.355689
	H29	H	0.213505	0.099825	0.666316
	H30	H	0.776255	0.101930	0.352794
	H31	H	0.773563	0.895288	0.664809
	H32	H	0.340150	0.218619	0.906824
	H33	H	0.651862	0.217545	0.113899
	H34	H	0.339426	0.779634	0.113489
	H35	H	0.649295	0.774658	0.901948
	H36	H	0.339088	0.895261	0.229063
	H37	H	0.651201	0.101246	0.230340
	H38	H	0.339544	0.101452	0.791331
	H39	H	0.649377	0.892126	0.786559
	H40	H	0.891846	0.217844	0.353641
	H41	H	0.096711	0.215887	0.666964
	H42	H	0.103181	0.774156	0.357857
	H43	H	0.889922	0.778596	0.665679
	H44	H	0.213139	0.342355	0.909906
	H45	H	0.215090	0.654905	0.115197
	H46	H	0.773153	0.344555	0.117030
	H47	H	0.772423	0.653103	0.904136
	H48	H	0.410166	0.110289	0.605317
	H49	H	0.583205	0.889181	0.598866
	H50	H	0.575283	0.106125	0.419169
	H51	H	0.409398	0.886306	0.415562
	H52	H	0.577919	0.411966	0.120163
	H53	H	0.577251	0.586218	0.902941
	H54	H	0.396339	0.589919	0.124858
	H55	H	0.401952	0.413277	0.898564
	H56	H	0.106906	0.587450	0.420252
	H57	H	0.882117	0.590764	0.602060
	H58	H	0.106485	0.406923	0.602043
	H59	H	0.881183	0.408286	0.416697
	H60	H	0.109045	0.405327	0.604564
	H61	H	0.884223	0.589201	0.595713
	H62	H	0.105346	0.588523	0.427337
	H63	H	0.883440	0.406083	0.424757
	H64	H	0.409457	0.581515	0.117140
	H65	H	0.583690	0.590671	0.897688
	H66	H	0.586154	0.401427	0.126071
	H67	H	0.410217	0.408045	0.899263
	H68	H	0.587516	0.107753	0.427733
	H69	H	0.581450	0.890401	0.596857
	H70	H	0.408362	0.106263	0.592633
	H71	H	0.407329	0.889534	0.425127
	H72	H	0.902349	0.609496	0.094940
	H73	H	0.083771	0.389068	0.098458
	H74	H	0.085408	0.610091	0.920998
	H75	H	0.912090	0.388244	0.917605
	H76	H	0.090016	0.905713	0.625899
	H77	H	0.081298	0.087288	0.399621
	H78	H	0.901399	0.091059	0.623209
	H79	H	0.913057	0.914234	0.401596
	H80	H	0.608260	0.093819	0.922722
	H81	H	0.380135	0.092141	0.103508
	H82	H	0.608149	0.906170	0.097424
	H83	H	0.386965	0.913498	0.923066
	H84	H	0.603693	0.913008	0.092421
	H85	H	0.383231	0.093150	0.097605
	H86	H	0.605835	0.085146	0.924440
	H87	H	0.383503	0.910123	0.919625
	H88	H	0.903847	0.087192	0.620771
	H89	H	0.084167	0.094066	0.396271
	H90	H	0.084074	0.919337	0.618169
	H91	H	0.909511	0.904336	0.398170
	H92	H	0.086250	0.611379	0.919195
	H93	H	0.090844	0.386596	0.100287
	H94	H	0.909591	0.610112	0.104467
	H95	H	0.904659	0.389607	0.927739
	H96	H	0.398186	0.111941	0.599570
	H97	H	0.584464	0.890074	0.595849
	H98	H	0.587430	0.113205	0.413866
	H99	H	0.399879	0.885033	0.419226
	H100	H	0.591263	0.414388	0.123342
	H101	H	0.585635	0.581659	0.900865
	H102	H	0.412211	0.597713	0.122693
	H103	H	0.401765	0.403781	0.896230
	H104	H	0.103873	0.582040	0.423813
	H105	H	0.884118	0.584805	0.600755
	H106	H	0.107773	0.403916	0.601434
	H107	H	0.885581	0.413775	0.421998
	H108	H	0.913424	0.605078	0.094510
	H109	H	0.085226	0.386454	0.105457
	H110	H	0.083887	0.610958	0.918898
	H111	H	0.899537	0.384694	0.916735
	H112	H	0.073968	0.905815	0.620273
	H113	H	0.089068	0.087511	0.397029
	H114	H	0.906349	0.091385	0.621479
	H115	H	0.902719	0.912444	0.398693
	H116	H	0.609356	0.087608	0.916019
	H117	H	0.383618	0.087363	0.101108
	H118	H	0.606720	0.914528	0.101366
	H119	H	0.385393	0.908464	0.925013
	C120	C	0.373740	0.007311	0.631971
	C121	C	0.616009	0.991663	0.630418
	C122	C	0.616568	0.007155	0.387717
	C123	C	0.373711	0.989824	0.388489
	C124	C	0.616762	0.377526	0.020073
	C125	C	0.616144	0.620280	1.001869
	C126	C	0.373657	0.621105	0.018421
	C127	C	0.374476	0.378217	1.002093
	C128	C	0.003002	0.619102	0.390726
	C129	C	0.986405	0.620071	0.632114
	C130	C	0.003399	0.376655	0.631941
	C131	C	0.986599	0.377418	0.389523
	C132	C	0.875039	0.506521	0.131196
	C133	C	0.117391	0.490571	0.132886
	C134	C	0.116229	0.507172	0.889574
	C135	C	0.873331	0.490099	0.888862
	C136	C	0.116539	0.876847	0.519639
	C137	C	0.115583	0.119854	0.501728
	C138	C	0.873442	0.120246	0.518205
	C139	C	0.874528	0.878296	0.501683
	C140	C	0.504637	0.120051	0.889433
	C141	C	0.486198	0.121094	0.132215
	C142	C	0.503724	0.878654	0.129864
	C143	C	0.487194	0.877434	0.888574
	C144	C	0.370728	0.891673	0.693356
	C145	C	0.618783	0.107617	0.691545
	C146	C	0.620715	0.891271	0.326697
	C147	C	0.372328	0.106952	0.329844
	C148	C	0.675792	0.376052	0.902665
	C149	C	0.677984	0.624143	0.117942
	C150	C	0.314659	0.621912	0.900924
	C151	C	0.316886	0.378267	0.120219
	C152	C	0.886793	0.680523	0.386531
	C153	C	0.102973	0.680209	0.635619
	C154	C	0.884620	0.320498	0.630988
	C155	C	0.104269	0.318332	0.388441
	C156	C	0.884487	0.378045	0.688587
	C157	C	0.103530	0.621207	0.691929
	C158	C	0.886379	0.622464	0.329428
	C159	C	0.104332	0.375988	0.330793
	C160	C	0.372168	0.679787	0.901183
	C161	C	0.620520	0.682054	0.117739
	C162	C	0.617931	0.318582	0.902652
	C163	C	0.374614	0.320494	0.120341
	C164	C	0.678381	0.891432	0.384490
	C165	C	0.676426	0.107721	0.633819
	C166	C	0.312532	0.891700	0.636060
	C167	C	0.314327	0.106865	0.387368
	C168	C	0.872236	0.390384	0.191987
	C169	C	0.118105	0.607637	0.192123
	C170	C	0.116421	0.388949	0.832495
	C171	C	0.871615	0.607136	0.829296
	C172	C	0.176797	0.874240	0.402816
	C173	C	0.174060	0.119548	0.619552
	C174	C	0.815682	0.120448	0.400044
	C175	C	0.813904	0.876483	0.618410
	C176	C	0.386626	0.178583	0.888406
	C177	C	0.604647	0.178645	0.133100
	C178	C	0.386314	0.819174	0.131794
	C179	C	0.603127	0.815703	0.884365
	C180	C	0.386122	0.876746	0.189251
	C181	C	0.604248	0.120971	0.190902
	C182	C	0.386670	0.120723	0.830984
	C183	C	0.603334	0.873873	0.827111
	C184	C	0.873225	0.178144	0.400399
	C185	C	0.116021	0.177081	0.619895
	C186	C	0.120555	0.815328	0.403650
	C187	C	0.871642	0.818608	0.618772
	C188	C	0.174322	0.389205	0.890142
	C189	C	0.175603	0.608042	0.134176
	C190	C	0.814220	0.390559	0.134373
	C191	C	0.813246	0.606835	0.886346
	C192	C	0.398593	0.088449	0.606420
	C193	C	0.590276	0.910816	0.604432
	C194	C	0.590823	0.087961	0.413253
	C195	C	0.398565	0.908188	0.412949
	C196	C	0.592257	0.402401	0.101833
	C197	C	0.589717	0.593820	0.921423
	C198	C	0.398707	0.596658	0.100360
	C199	C	0.397982	0.401599	0.919775
	C200	C	0.084267	0.593372	0.416499
	C201	C	0.904568	0.595226	0.606537
	C202	C	0.086094	0.398967	0.609217
	C203	C	0.904545	0.402163	0.414115
	C204	C	0.901046	0.587106	0.105157
	C205	C	0.093578	0.408809	0.108338
	C206	C	0.092249	0.589151	0.913052
	C207	C	0.898243	0.408630	0.913726
	C208	C	0.090260	0.902874	0.600506
	C209	C	0.091715	0.096386	0.419061
	C210	C	0.897209	0.096522	0.600439
	C211	C	0.900726	0.903274	0.420554
	C212	C	0.586614	0.095838	0.913864
	C213	C	0.403740	0.097668	0.107834
	C214	C	0.585027	0.904010	0.104432
	C215	C	0.406427	0.903349	0.914901
	Zn216	Zn	0.496006	-0.000838	0.760437
	Zn217	Zn	0.495004	-0.001525	0.259302
	Zn218	Zn	0.745130	0.499026	0.010772
	Zn219	Zn	0.245305	0.499748	0.010828
	Zn220	Zn	-0.004979	0.748847	0.511018
	Zn221	Zn	-0.005298	0.248635	0.510348
	Zn222	Zn	-0.005261	0.498074	0.760566
	Zn223	Zn	-0.004798	0.499230	0.261195
	Zn224	Zn	0.495236	0.749594	0.010014
	Zn225	Zn	0.495462	0.248859	0.011081
	Zn226	Zn	0.745107	-0.000615	0.509544
	Zn227	Zn	0.244790	-0.001672	0.510272
	N228	N	0.408300	0.964602	0.690808
	N229	N	0.582000	0.034160	0.689863
	N230	N	0.582993	0.964215	0.328523
	N231	N	0.408396	0.032919	0.330205
	N232	N	0.675222	0.412184	0.976721
	N233	N	0.675425	0.586147	0.044985
	N234	N	0.315340	0.586211	0.975191
	N235	N	0.316372	0.413278	0.045669
	N236	N	0.960231	0.678548	0.424251
	N237	N	0.028935	0.679592	0.599279
	N238	N	0.959629	0.319020	0.596810
	N239	N	0.029903	0.318985	0.424089
	N240	N	0.959614	0.412010	0.689805
	N241	N	0.029766	0.584378	0.690140
	N242	N	0.959733	0.584777	0.331925
	N243	N	0.029928	0.412012	0.331047
	N244	N	0.408159	0.679486	0.975384
	N245	N	0.582755	0.679892	0.044580
	N246	N	0.582060	0.319231	0.976793
	N247	N	0.409647	0.320081	0.045801
	N248	N	0.676092	0.964595	0.421817
	N249	N	0.674629	0.034627	0.596236
	N250	N	0.314166	0.964690	0.598482
	N251	N	0.314767	0.032845	0.423123
	N252	N	0.909431	0.463545	0.190282
	N253	N	0.082796	0.533559	0.191701
	N254	N	0.081306	0.463404	0.831408
	N255	N	0.908302	0.533471	0.830657
	N256	N	0.174729	0.911586	0.476135
	N257	N	0.174012	0.084656	0.544867
	N258	N	0.815459	0.085249	0.474363
	N259	N	0.815320	0.912728	0.544519
	N260	N	0.461181	0.178829	0.923909
	N261	N	0.530011	0.179028	0.097615
	N262	N	0.460408	0.820047	0.095718
	N263	N	0.529819	0.817728	0.921782
	N264	N	0.460203	0.912971	0.188367
	N265	N	0.529517	0.086017	0.190560
	N266	N	0.461086	0.085293	0.831269
	N267	N	0.530170	0.911534	0.829530
	N268	N	0.908129	0.178546	0.475098
	N269	N	0.080511	0.177505	0.545406
	N270	N	0.083939	0.816534	0.477458
	N271	N	0.908522	0.819405	0.545104
	N272	N	0.174622	0.463836	0.924593
	N273	N	0.175577	0.534073	0.098192
	N274	N	0.815721	0.463919	0.097335
	N275	N	0.813804	0.532817	0.922385
	O276	O	-0.034131	1.230353	0.062906
	H277	H	-0.030500	1.225525	0.075132
	H278	H	-0.036070	1.237753	0.067109
	O279	O	-0.191061	0.188515	0.196486
	H280	H	-0.174254	0.162872	0.185395
	H281	H	-0.181055	0.169046	0.171621
	O282	O	1.477268	0.602537	0.286955
	H283	H	1.465909	0.602745	0.282845
	H284	H	1.473241	0.604514	0.290690
	O285	O	0.459308	0.276176	0.732312
	H286	H	0.429507	0.273699	0.730077
	H287	H	0.441500	0.253549	0.755623
	O288	O	0.736440	0.779964	0.266196
	H289	H	0.741590	0.769995	0.267940
	H290	H	0.723467	0.771631	0.269766
	O291	O	0.686276	0.306295	0.706633
	H292	H	0.673272	0.321607	0.679540
	H293	H	0.662692	0.329215	0.700935
	O294	O	1.046489	-0.041393	1.050885
	H295	H	1.053746	-0.048979	1.045224
	H296	H	1.040096	-0.039744	1.037500
	O297	O	0.656004	0.612611	0.477390
	H298	H	0.660145	0.604099	0.487375
	H299	H	0.654638	0.612643	0.484853
	O300	O	0.207282	-0.032767	0.801674
	H301	H	0.213582	-0.019359	0.794684
	H302	H	0.201424	-0.021510	0.800763
	O303	O	0.269636	0.480000	0.517562
	H304	H	0.278707	0.472401	0.529918
	H305	H	0.273460	0.472858	0.518199
	O306	O	0.924029	1.064714	0.219984
	H307	H	0.911059	1.046150	0.222114
	H308	H	0.925833	1.056947	0.210144
	O309	O	0.482078	0.586335	0.451503
	H310	H	0.478035	0.576061	0.443524
	H311	H	0.463874	0.573654	0.447410
	O312	O	0.428561	0.276900	0.456318
	H313	H	0.449662	0.270359	0.441548
	H314	H	0.451146	0.270202	0.466991
	O315	O	0.776665	1.219017	0.979111
	H316	H	0.778764	1.221659	0.975036
	H317	H	0.755205	1.229260	0.972469
	O318	O	0.713431	0.721599	0.540117
	H319	H	0.707506	0.703103	0.540804
	H320	H	0.738916	0.750073	0.542784
	O321	O	0.297305	0.697988	0.705533
	H322	H	0.313119	0.705843	0.684245
	H323	H	0.286348	0.705772	0.719022
	O324	O	0.949252	0.794053	0.197874
	H325	H	0.938276	0.800771	0.200182
	H326	H	0.951218	0.781907	0.202362
	O327	O	-0.325856	0.525372	0.599859
	H328	H	-0.318209	0.526742	0.618203
	H329	H	-0.340951	0.522592	0.607985
	O330	O	0.467697	0.722668	0.286763
	H331	H	0.449758	0.733376	0.284466
	H332	H	0.468954	0.744553	0.286748
	O333	O	0.681829	0.477386	0.430331
	H334	H	0.674825	0.479038	0.438822
	H335	H	0.687005	0.490042	0.426272
	O336	O	0.786740	0.206706	-0.192874
	H337	H	0.756265	0.234984	-0.218979
	H338	H	0.788800	0.187095	-0.178859
	O339	O	1.151296	0.165427	1.183674
	H340	H	1.162430	0.191032	1.211091
	H341	H	1.129650	0.169188	1.182183
	O342	O	0.021977	0.019451	0.067577
	H343	H	0.023427	0.006086	0.064687
	H344	H	0.032544	0.016386	0.061937
	O345	O	-0.040241	1.228687	0.786338
	H346	H	-0.045259	1.263463	0.747377
	H347	H	-0.081021	1.205718	0.792380
	O348	O	-0.216218	-0.072947	-0.141951
	H349	H	-0.221353	-0.072023	-0.146985
	H350	H	-0.215372	-0.062027	-0.138149
	O351	O	0.901936	0.797724	0.024708
	H352	H	0.890890	0.795387	0.013925
	H353	H	0.896618	0.799126	0.022462
	O354	O	-0.170424	0.052761	0.801003
	H355	H	-0.157822	0.051760	0.804861
	H356	H	-0.183572	0.047436	0.815170
	O357	O	0.271289	0.540964	0.618031
	H358	H	0.273068	0.526552	0.634386
	H359	H	0.261192	0.526772	0.635439
	O360	O	0.286667	0.291278	0.717439
	H361	H	0.282680	0.282281	0.665240
	H362	H	0.253320	0.255470	0.744175
	O363	O	0.215478	-0.225489	-0.020149
	H364	H	0.218529	-0.219749	-0.046444
	H365	H	0.237109	-0.247723	-0.038159
	O366	O	0.273052	0.523380	0.288140
	H367	H	0.277147	0.549062	0.279767
	H368	H	0.251515	0.543185	0.270862
	O369	O	1.054195	-0.053683	0.220722
	H370	H	1.066874	-0.054003	0.223474
	H371	H	1.047518	-0.044667	0.223992
	O372	O	0.981075	0.974720	-0.212626
	H373	H	0.965599	0.964793	-0.204340
	H374	H	0.983551	0.958513	-0.213471
	O375	O	1.029687	0.219785	0.228395
	H376	H	1.023485	0.220912	0.238222
	H377	H	1.031503	0.223349	0.240248
	O378	O	0.532253	0.266208	0.564731
	H379	H	0.568803	0.266815	0.561688
	H380	H	0.531369	0.258270	0.598661
	O381	O	0.038092	1.211974	0.930415
	H382	H	0.028878	1.221111	0.914483
	H383	H	0.014793	1.222497	0.936536
	O384	O	0.852172	-0.207903	0.863217
	H385	H	0.859965	-0.195821	0.874957
	H386	H	0.830109	-0.224826	0.843286
	O387	O	1.185959	1.185118	-0.182735
	H388	H	1.164284	1.172364	-0.160428
	H389	H	1.172623	1.161785	-0.165962
	O390	O	0.221274	-0.040834	0.037730
	H391	H	0.221511	-0.054191	0.033300
	H392	H	0.218255	-0.031484	0.047472
	O393	O	0.486788	0.727673	0.630979
	H394	H	0.477048	0.743040	0.645589
	H395	H	0.498761	0.725573	0.610031
	O396	O	0.130978	1.052952	0.995566
	H397	H	0.119895	1.055495	0.996922
	H398	H	0.145292	1.062859	1.015497
	O399	O	0.210474	0.038083	1.232195
	H400	H	0.239290	0.036909	1.264124
	H401	H	0.210408	0.059294	1.209721
	O402	O	0.487473	0.415129	0.513780
	H403	H	0.491071	0.403785	0.528853
	H404	H	0.505260	0.408103	0.506568
	O405	O	0.775337	-0.158814	1.012009
	H406	H	0.769216	-0.145081	1.016575
	H407	H	0.769097	-0.158922	1.019308
	O408	O	0.201883	-0.194445	-0.186386
	H409	H	0.200693	-0.162691	-0.183942
	H410	H	0.169858	-0.193908	-0.194886
	O411	O	0.314241	0.449084	0.690355
	H412	H	0.305554	0.433673	0.707124
	H413	H	0.306990	0.431095	0.697416
	O414	O	0.412676	0.529224	0.684642
	H415	H	0.392666	0.519489	0.686194
	H416	H	0.393701	0.550210	0.682075
	O417	O	0.283536	0.384385	0.382392
	H418	H	0.273893	0.392469	0.359619
	H419	H	0.302697	0.392224	0.412278
	O420	O	0.527105	0.638401	0.622068
	H421	H	0.510768	0.649987	0.631123
	H422	H	0.513239	0.631955	0.605941
	O423	O	0.001412	0.064291	0.851087
	H424	H	-0.004816	0.063971	0.857022
	H425	H	-0.014327	0.072496	0.853049
	O426	O	0.668799	0.539040	0.726994
	H427	H	0.668133	0.543792	0.749546
	H428	H	0.649932	0.530431	0.732531
	O429	O	0.706631	0.708968	0.718807
	H430	H	0.693062	0.702100	0.694465
	H431	H	0.688968	0.676573	0.719085
	O432	O	0.648511	0.389516	0.599508
	H433	H	0.646524	0.407681	0.590166
	H434	H	0.653443	0.375389	0.583705
	O435	O	0.410601	0.466606	0.306585
	H436	H	0.394900	0.466248	0.325739
	H437	H	0.430701	0.464536	0.310778
	O438	O	-0.293532	0.284629	0.298661
	H439	H	-0.289009	0.329456	0.296853
	H440	H	-0.259434	0.256196	0.264745
	O441	O	0.237521	0.251907	0.290157
	H442	H	0.256259	0.250239	0.305845
	H443	H	0.250343	0.274854	0.297243
	O444	O	0.554485	0.469229	0.730035
	H445	H	0.529398	0.464986	0.729647
	H446	H	0.537341	0.476826	0.734144
	O447	O	0.135550	0.806101	1.207476
	H448	H	0.121813	0.835640	1.195516
	H449	H	0.113974	0.801782	1.191423
	O450	O	0.111309	0.858382	1.028421
	H451	H	0.116303	0.848472	1.032260
	H452	H	0.110196	0.868992	1.034588
	O453	O	0.278466	0.278904	0.549112
	H454	H	0.283299	0.271345	0.531413
	H455	H	0.268897	0.282235	0.529421
	O456	O	0.220412	0.223659	1.046152
	H457	H	0.201774	0.220153	1.074238
	H458	H	0.251459	0.258035	1.053279
	O459	O	0.891071	1.093452	0.015470
	H460	H	0.905193	1.100710	0.014669
	H461	H	0.904760	1.082858	0.010111
	O462	O	0.275834	0.726010	0.483931
	H463	H	0.270515	0.699812	0.493036
	H464	H	0.247977	0.748312	0.482342
	O465	O	0.782045	-0.026048	0.225499
	H466	H	0.781534	-0.048427	0.214543
	H467	H	0.763571	-0.044914	0.247666
	O468	O	0.714073	0.272427	0.476045
	H469	H	0.710449	0.271560	0.442183
	H470	H	0.739558	0.255289	0.465568
	O471	O	0.528841	0.275191	0.291157
	H472	H	0.551560	0.256258	0.272630
	H473	H	0.552937	0.275905	0.285139
	O474	O	0.679204	0.681360	0.330928
	H475	H	0.661508	0.666782	0.346653
	H476	H	0.659235	0.667105	0.343529
	O477	O	0.489001	0.585373	1.411304
	H478	H	0.489549	0.564896	1.408669
	H479	H	0.477611	0.584496	1.404944
	O480	O	0.467669	0.550998	0.459862
	H481	H	0.462995	0.562843	0.454406
	H482	H	0.456946	0.541559	0.458139
	O483	O	0.488013	0.624008	0.584548
	H484	H	0.476441	0.617497	0.586000
	H485	H	0.502536	0.620307	0.572920
	O486	O	1.027356	-0.085067	0.896805
	H487	H	1.034263	-0.070841	0.890266
	H488	H	1.026747	-0.086427	0.895639
	O489	O	0.931644	0.827886	0.062021
	H490	H	0.933908	0.829057	0.039908
	H491	H	0.931317	0.812951	0.060055
	O492	O	0.259077	-0.261598	0.271887
	H493	H	0.221577	-0.239814	0.251117
	H494	H	0.268719	-0.263872	0.312364
	O495	O	0.032067	0.784606	0.800086
	H496	H	0.025681	0.775128	0.790136
	H497	H	0.023390	0.783185	0.802685
	O498	O	0.783218	1.024350	1.007305
	H499	H	0.798947	1.026518	1.002718
	H500	H	0.783009	1.026970	1.002938
	O501	O	0.710114	0.460735	0.294552
	H502	H	0.725283	0.469205	0.272250
	H503	H	0.697317	0.480556	0.309276
