data_Molecule from HDF5

_cell_length_a		16.184196
_cell_length_b		16.435458
_cell_length_c		16.206589
_cell_angle_alpha	90.253081
_cell_angle_beta	90.040128
_cell_angle_gamma	89.355134
_symmetry_space_group_name_H-M	'P 1'
_symmetry_Int_Tables_number		1

loop_
	_symmetry_equiv_pos_as_xyz
	x,y,z

loop_
	_atom_site_label
	_atom_site_type_symbol
	_atom_site_fract_x
	_atom_site_fract_y
	_atom_site_fract_z
	H0	H	0.402407	0.838392	0.707150
	H1	H	0.596528	0.163023	0.709022
	H2	H	0.599400	0.839071	0.274639
	H3	H	0.396736	0.163455	0.278126
	H4	H	0.714360	0.400401	0.828903
	H5	H	0.710620	0.598238	0.156093
	H6	H	0.282758	0.601138	0.827156
	H7	H	0.287763	0.408452	0.156916
	H8	H	0.834849	0.718633	0.390598
	H9	H	0.161822	0.716520	0.594545
	H10	H	0.835300	0.285912	0.593006
	H11	H	0.161646	0.281129	0.389551
	H12	H	0.833967	0.404294	0.705685
	H13	H	0.163093	0.597285	0.707381
	H14	H	0.832583	0.597604	0.279793
	H15	H	0.163949	0.400638	0.278639
	H16	H	0.394595	0.719314	0.827854
	H17	H	0.598353	0.718456	0.154679
	H18	H	0.602957	0.282403	0.829611
	H19	H	0.397047	0.286896	0.154529
	H20	H	0.716742	0.838210	0.391197
	H21	H	0.712813	0.163055	0.591853
	H22	H	0.286462	0.837756	0.589297
	H23	H	0.279915	0.162807	0.393238
	H24	H	0.903162	0.337047	0.204772
	H25	H	0.096078	0.662483	0.209062
	H26	H	0.100734	0.338768	0.776247
	H27	H	0.895523	0.662393	0.775430
	H28	H	0.212212	0.901437	0.326249
	H29	H	0.210346	0.095741	0.656798
	H30	H	0.784265	0.097899	0.327200
	H31	H	0.788160	0.905578	0.656727
	H32	H	0.335951	0.220241	0.891022
	H33	H	0.663004	0.216675	0.094284
	H34	H	0.334465	0.787873	0.093366
	H35	H	0.661073	0.782526	0.890185
	H36	H	0.333080	0.908972	0.203797
	H37	H	0.663534	0.098348	0.207295
	H38	H	0.334098	0.100517	0.778557
	H39	H	0.663275	0.900417	0.778541
	H40	H	0.896089	0.217296	0.328507
	H41	H	0.100929	0.217206	0.654937
	H42	H	0.100848	0.781023	0.328669
	H43	H	0.896386	0.785558	0.655089
	H44	H	0.218057	0.340515	0.892218
	H45	H	0.209998	0.665244	0.090632
	H46	H	0.783298	0.339196	0.092697
	H47	H	0.779697	0.662748	0.893239
	H48	H	0.413568	0.111078	0.579362
	H49	H	0.599257	0.883763	0.587462
	H50	H	0.592145	0.116490	0.399622
	H51	H	0.410925	0.888325	0.402715
	H52	H	0.590124	0.403571	0.110504
	H53	H	0.584007	0.588758	0.877798
	H54	H	0.398285	0.604028	0.112102
	H55	H	0.403282	0.407942	0.873562
	H56	H	0.115479	0.598769	0.404662
	H57	H	0.878634	0.603585	0.583181
	H58	H	0.118228	0.393741	0.580773
	H59	H	0.879674	0.410324	0.391377
	H60	H	0.110033	0.414232	0.571138
	H61	H	0.886196	0.591149	0.574846
	H62	H	0.112120	0.585051	0.404882
	H63	H	0.880674	0.401171	0.401790
	H64	H	0.403875	0.587830	0.105798
	H65	H	0.586510	0.599569	0.874233
	H66	H	0.594090	0.412449	0.108217
	H67	H	0.410236	0.415586	0.876558
	H68	H	0.589943	0.116329	0.399273
	H69	H	0.588644	0.886752	0.588455
	H70	H	0.392670	0.116733	0.579244
	H71	H	0.398643	0.883363	0.397334
	H72	H	0.912490	0.617530	0.101286
	H73	H	0.098588	0.384217	0.087491
	H74	H	0.081022	0.612753	0.906335
	H75	H	0.905507	0.382968	0.891159
	H76	H	0.092387	0.901013	0.610135
	H77	H	0.091513	0.086548	0.375872
	H78	H	0.910361	0.108583	0.610781
	H79	H	0.915661	0.915313	0.379387
	H80	H	0.612728	0.091376	0.909211
	H81	H	0.381314	0.097468	0.086118
	H82	H	0.612413	0.913136	0.079598
	H83	H	0.380735	0.905107	0.902972
	H84	H	0.617036	0.908185	0.089067
	H85	H	0.382511	0.099483	0.081377
	H86	H	0.615222	0.086025	0.896255
	H87	H	0.383483	0.915629	0.901416
	H88	H	0.893764	0.090582	0.610937
	H89	H	0.082608	0.092996	0.377103
	H90	H	0.097024	0.910369	0.609087
	H91	H	0.912477	0.898247	0.374131
	H92	H	0.099526	0.618561	0.903388
	H93	H	0.090970	0.386512	0.086373
	H94	H	0.910439	0.609768	0.073311
	H95	H	0.915802	0.388918	0.900537
	H96	H	0.405104	0.118879	0.597422
	H97	H	0.593657	0.887222	0.578507
	H98	H	0.590789	0.114766	0.401529
	H99	H	0.409582	0.884271	0.389354
	H100	H	0.584553	0.410593	0.107234
	H101	H	0.594764	0.590616	0.872635
	H102	H	0.415994	0.602057	0.106960
	H103	H	0.413591	0.405625	0.875715
	H104	H	0.117003	0.591129	0.392979
	H105	H	0.881661	0.588815	0.590439
	H106	H	0.116923	0.413536	0.594660
	H107	H	0.884538	0.413989	0.403940
	H108	H	0.887138	0.621336	0.086714
	H109	H	0.095821	0.386830	0.080378
	H110	H	0.087009	0.618153	0.888743
	H111	H	0.901545	0.386431	0.905177
	H112	H	0.086584	0.908792	0.606110
	H113	H	0.091493	0.096932	0.372920
	H114	H	0.917564	0.086140	0.602924
	H115	H	0.899043	0.910554	0.372671
	H116	H	0.618724	0.100271	0.899570
	H117	H	0.383378	0.093926	0.082585
	H118	H	0.615740	0.901862	0.078788
	H119	H	0.379180	0.909968	0.893452
	C120	C	0.376493	0.008550	0.613992
	C121	C	0.621427	0.992824	0.614283
	C122	C	0.620554	0.008671	0.370335
	C123	C	0.375998	0.992589	0.368906
	C124	C	0.620090	0.379069	0.000666
	C125	C	0.618052	0.622206	0.982811
	C126	C	0.375735	0.626020	-0.000122
	C127	C	0.379014	0.381999	0.983378
	C128	C	0.006489	0.621106	0.371269
	C129	C	0.990081	0.622666	0.613378
	C130	C	0.006936	0.379585	0.612161
	C131	C	0.990186	0.378550	0.369739
	C132	C	0.876145	0.508737	0.114986
	C133	C	0.121499	0.493223	0.113870
	C134	C	0.120602	0.509706	0.870011
	C135	C	0.876347	0.492827	0.870068
	C136	C	0.121206	0.877253	0.500068
	C137	C	0.118596	0.120799	0.483515
	C138	C	0.876734	0.123347	0.500184
	C139	C	0.879185	0.880089	0.483597
	C140	C	0.507469	0.122761	0.871544
	C141	C	0.490622	0.124271	0.113495
	C142	C	0.506502	0.880862	0.111843
	C143	C	0.489630	0.880245	0.870490
	C144	C	0.380945	0.886701	0.669121
	C145	C	0.617688	0.114716	0.670467
	C146	C	0.619136	0.887102	0.313567
	C147	C	0.376792	0.114885	0.315143
	C148	C	0.676603	0.380273	0.877753
	C149	C	0.672910	0.619416	0.107105
	C150	C	0.320008	0.622445	0.876361
	C151	C	0.324179	0.386477	0.107210
	C152	C	0.883459	0.678911	0.371681
	C153	C	0.113043	0.677900	0.613537
	C154	C	0.883923	0.324320	0.612067
	C155	C	0.113020	0.320421	0.370352
	C156	C	0.883341	0.383064	0.668135
	C157	C	0.113708	0.618826	0.669547
	C158	C	0.882206	0.618827	0.316579
	C159	C	0.114146	0.379854	0.314952
	C160	C	0.375766	0.681044	0.876783
	C161	C	0.617094	0.678938	0.106083
	C162	C	0.621215	0.321522	0.878176
	C163	C	0.378557	0.326001	0.106018
	C164	C	0.677678	0.886670	0.371352
	C165	C	0.675746	0.114689	0.612610
	C166	C	0.323365	0.886366	0.610409
	C167	C	0.318872	0.114491	0.372787
	C168	C	0.881005	0.386027	0.168264
	C169	C	0.117096	0.614642	0.170355
	C170	C	0.120472	0.387671	0.814243
	C171	C	0.876075	0.614259	0.813873
	C172	C	0.175618	0.879975	0.376076
	C173	C	0.173731	0.117513	0.607360
	C174	C	0.821187	0.119811	0.376607
	C175	C	0.824601	0.884006	0.607303
	C176	C	0.384636	0.180980	0.871276
	C177	C	0.614114	0.178595	0.113335
	C178	C	0.383193	0.826319	0.111702
	C179	C	0.612584	0.821764	0.870882
	C180	C	0.382560	0.886262	0.166881
	C181	C	0.614466	0.119726	0.169402
	C182	C	0.383829	0.121417	0.815612
	C183	C	0.613703	0.880377	0.815465
	C184	C	0.876803	0.179100	0.377311
	C185	C	0.119191	0.177823	0.606475
	C186	C	0.120174	0.820303	0.377186
	C187	C	0.879055	0.824585	0.606466
	C188	C	0.178782	0.388385	0.871862
	C189	C	0.173669	0.616007	0.111307
	C190	C	0.821386	0.387147	0.112410
	C191	C	0.818274	0.614319	0.872372
	C192	C	0.397545	0.093734	0.591958
	C193	C	0.600282	0.908061	0.591429
	C194	C	0.597619	0.093603	0.393476
	C195	C	0.399680	0.907402	0.390309
	C196	C	0.596376	0.402158	0.086525
	C197	C	0.595179	0.599716	0.897125
	C198	C	0.398908	0.604392	0.085929
	C199	C	0.402082	0.403443	0.897405
	C200	C	0.092597	0.598097	0.394005
	C201	C	0.904362	0.601055	0.589921
	C202	C	0.092794	0.401029	0.589019
	C203	C	0.903909	0.401807	0.392304
	C204	C	0.897203	0.594230	0.093485
	C205	C	0.101055	0.407742	0.091402
	C206	C	0.096271	0.594341	0.892851
	C207	C	0.900459	0.408100	0.892539
	C208	C	0.098611	0.900011	0.586157
	C209	C	0.095343	0.098654	0.397507
	C210	C	0.900217	0.101401	0.586083
	C211	C	0.902287	0.901817	0.397435
	C212	C	0.593195	0.099399	0.894788
	C213	C	0.404749	0.103237	0.090131
	C214	C	0.592896	0.901474	0.089116
	C215	C	0.403419	0.903533	0.892665
	Zn216	Zn	0.498883	0.000765	0.743220
	Zn217	Zn	0.498558	0.002042	0.240500
	Zn218	Zn	0.746876	0.500418	-0.007517
	Zn219	Zn	0.249997	0.503110	-0.008214
	Zn220	Zn	-0.001613	0.750429	0.491836
	Zn221	Zn	-0.001476	0.250754	0.491723
	Zn222	Zn	-0.001505	0.500553	0.740850
	Zn223	Zn	-0.001203	0.499865	0.242294
	Zn224	Zn	0.497343	0.752187	-0.009349
	Zn225	Zn	0.499598	0.252179	-0.007896
	Zn226	Zn	0.750531	0.000519	0.492018
	Zn227	Zn	0.247750	0.000384	0.491010
	N228	N	0.413132	0.963782	0.671546
	N229	N	0.584623	0.038242	0.671510
	N230	N	0.584474	0.963951	0.312818
	N231	N	0.411790	0.038272	0.312720
	N232	N	0.676090	0.415113	0.954958
	N233	N	0.673677	0.584748	0.029725
	N234	N	0.319645	0.589028	0.954196
	N235	N	0.324262	0.420702	0.029828
	N236	N	0.961667	0.680254	0.405092
	N237	N	0.035298	0.680337	0.579277
	N238	N	0.961776	0.322078	0.577726
	N239	N	0.034941	0.319534	0.403833
	N240	N	0.960873	0.416450	0.668458
	N241	N	0.036362	0.584895	0.669453
	N242	N	0.959784	0.583550	0.316054
	N243	N	0.036742	0.415440	0.314780
	N244	N	0.409418	0.683496	0.954537
	N245	N	0.583867	0.680912	0.027890
	N246	N	0.586797	0.320689	0.955858
	N247	N	0.411909	0.323131	0.028059
	N248	N	0.678676	0.963213	0.406057
	N249	N	0.678080	0.037866	0.578255
	N250	N	0.320828	0.963062	0.576735
	N251	N	0.318187	0.037239	0.405178
	N252	N	0.914082	0.462738	0.169963
	N253	N	0.085607	0.537287	0.172066
	N254	N	0.085071	0.464158	0.812945
	N255	N	0.911452	0.537840	0.812467
	N256	N	0.176432	0.914575	0.453445
	N257	N	0.173489	0.082747	0.530056
	N258	N	0.820998	0.085881	0.453999
	N259	N	0.824717	0.918192	0.529870
	N260	N	0.462489	0.182018	0.905315
	N261	N	0.536293	0.181666	0.079363
	N262	N	0.461391	0.822910	0.078242
	N263	N	0.534503	0.821480	0.904276
	N264	N	0.460228	0.919513	0.167016
	N265	N	0.536599	0.086766	0.169761
	N266	N	0.461125	0.085783	0.815721
	N267	N	0.536332	0.916080	0.815055
	N268	N	0.910525	0.181396	0.455186
	N269	N	0.085658	0.180133	0.528381
	N270	N	0.087059	0.818343	0.455376
	N271	N	0.912036	0.821960	0.528362
	N272	N	0.179048	0.465258	0.905754
	N273	N	0.176599	0.539328	0.077002
	N274	N	0.818286	0.464473	0.079826
	N275	N	0.818378	0.537917	0.906771
	O276	O	-0.018355	0.029419	0.034509
	H277	H	-0.012919	0.023071	0.036802
	H278	H	-0.020149	0.029064	0.036625
	O279	O	1.094761	-0.072408	0.982234
	H280	H	1.113386	-0.083117	0.972665
	H281	H	1.102407	-0.071872	0.970951
	O282	O	0.187044	0.750548	0.793182
	H283	H	0.176700	0.754563	0.800611
	H284	H	0.191689	0.755487	0.786458
	O285	O	-0.028081	1.077315	0.949379
	H286	H	-0.018220	1.082097	0.952072
	H287	H	-0.034282	1.073696	0.942095
	O288	O	0.419892	0.606580	0.497937
	H289	H	0.418314	0.602700	0.489018
	H290	H	0.414362	0.596471	0.498011
	O291	O	0.463636	0.451169	1.551007
	H292	H	0.468113	0.439645	1.541446
	H293	H	0.451598	0.445843	1.558380
	O294	O	0.981499	0.956810	0.870737
	H295	H	0.984192	0.961924	0.863842
	H296	H	0.976993	0.952270	0.872610
	O297	O	1.052151	-0.008615	0.968535
	H298	H	1.046636	-0.014341	0.961598
	H299	H	1.048670	0.003300	0.963880
	O300	O	0.582887	0.499764	0.539973
	H301	H	0.569732	0.499385	0.544733
	H302	H	0.578929	0.493196	0.535478
	O303	O	0.941604	0.071633	0.031427
	H304	H	0.941412	0.068266	0.037042
	H305	H	0.943239	0.074417	0.034441
	O306	O	-0.475293	1.538087	0.477801
	H307	H	-0.471286	1.545971	0.474074
	H308	H	-0.470509	1.536141	0.480223
	O309	O	0.074430	-0.032842	-0.025749
	H310	H	0.083448	-0.023005	-0.017900
	H311	H	0.065441	-0.031486	-0.030579
	O312	O	1.465925	0.497732	1.531628
	H313	H	1.467109	0.504824	1.527688
	H314	H	1.471182	0.489290	1.523860
	O315	O	1.044947	1.029885	1.033514
	H316	H	1.044091	1.026078	1.029588
	H317	H	1.043863	1.019458	1.027303
	O318	O	0.582150	0.489069	0.538354
	H319	H	0.571787	0.495933	0.544459
	H320	H	0.577117	0.482317	0.543586
	O321	O	0.953493	1.039009	0.946365
	H322	H	0.959614	1.029463	0.951488
	H323	H	0.961894	1.026761	0.942085
	O324	O	0.435603	0.423632	0.493198
	H325	H	0.441202	0.429641	0.496880
	H326	H	0.440587	0.417975	0.496684
	O327	O	0.518378	0.439667	0.386250
	H328	H	0.533652	0.448703	0.381984
	H329	H	0.523144	0.435555	0.381391
	O330	O	0.971932	-0.054186	0.939182
	H331	H	0.972727	-0.069991	0.944793
	H332	H	0.976801	-0.047645	0.936896
	O333	O	0.979903	0.981450	0.003821
	H334	H	0.964835	0.983554	-0.001620
	H335	H	0.983442	0.975354	0.014998
	O336	O	0.472340	0.494552	0.498811
	H337	H	0.466998	0.498534	0.507155
	H338	H	0.474771	0.494075	0.493984
	O339	O	0.407433	0.475212	0.460665
	H340	H	0.409875	0.483179	0.460203
	H341	H	0.406812	0.474343	0.459657
	O342	O	-0.025580	0.931035	-0.096803
	H343	H	-0.023409	0.932799	-0.111480
	H344	H	-0.032431	0.938615	-0.104239
	O345	O	-0.009246	0.011833	-0.049522
	H346	H	-0.019743	0.020001	-0.057609
	H347	H	-0.005641	0.001221	-0.057139
	O348	O	0.414184	0.522752	0.385815
	H349	H	0.416264	0.522637	0.378366
	H350	H	0.416237	0.510140	0.382554
	O351	O	0.560717	0.468171	0.419201
	H352	H	0.552382	0.465330	0.422485
	H353	H	0.566449	0.466429	0.420158
	O354	O	0.551549	0.418802	0.481503
	H355	H	0.557188	0.409702	0.480402
	H356	H	0.554616	0.423116	0.475359
	O357	O	0.565893	0.511169	0.435729
	H358	H	0.564998	0.523187	0.437074
	H359	H	0.567212	0.523841	0.442143
	O360	O	0.041433	0.042924	0.007635
	H361	H	0.044167	0.040035	0.007191
	H362	H	0.040958	0.046782	0.018667
	O363	O	0.481560	0.492254	0.437596
	H364	H	0.493860	0.489882	0.437251
	H365	H	0.487654	0.495036	0.428304
	O366	O	0.057530	0.090118	0.988640
	H367	H	0.062526	0.094303	0.986537
	H368	H	0.059646	0.105352	1.001664
	O369	O	0.440619	0.493089	0.602570
	H370	H	0.444469	0.497705	0.615217
	H371	H	0.431369	0.482970	0.591903
