data_Molecule from HDF5

_cell_length_a		16.515924
_cell_length_b		16.435473
_cell_length_c		16.302279
_cell_angle_alpha	90.008031
_cell_angle_beta	89.796319
_cell_angle_gamma	90.083130
_symmetry_space_group_name_H-M	'P 1'
_symmetry_Int_Tables_number		1

loop_
	_symmetry_equiv_pos_as_xyz
	x,y,z

loop_
	_atom_site_label
	_atom_site_type_symbol
	_atom_site_fract_x
	_atom_site_fract_y
	_atom_site_fract_z
	H0	H	0.387269	0.861670	0.707499
	H1	H	0.593427	0.181741	0.706504
	H2	H	0.598322	0.863143	0.265884
	H3	H	0.388844	0.180443	0.266580
	H4	H	0.714212	0.416475	0.828489
	H5	H	0.713588	0.629851	0.147028
	H6	H	0.268166	0.630489	0.829873
	H7	H	0.265973	0.412094	0.144700
	H8	H	0.834366	0.744611	0.383781
	H9	H	0.148108	0.746985	0.597063
	H10	H	0.833392	0.302445	0.591357
	H11	H	0.149184	0.299372	0.379283
	H12	H	0.831951	0.421245	0.706562
	H13	H	0.148164	0.630237	0.712321
	H14	H	0.832002	0.624643	0.270786
	H15	H	0.148685	0.416390	0.264026
	H16	H	0.387392	0.741464	0.827927
	H17	H	0.597679	0.744706	0.146650
	H18	H	0.596765	0.301552	0.827437
	H19	H	0.383418	0.297986	0.145115
	H20	H	0.715958	0.864345	0.381106
	H21	H	0.714170	0.180733	0.594870
	H22	H	0.267896	0.864163	0.595825
	H23	H	0.268583	0.179065	0.378804
	H24	H	0.887387	0.362714	0.207175
	H25	H	0.095595	0.681353	0.208630
	H26	H	0.093085	0.363815	0.768528
	H27	H	0.887035	0.681651	0.768845
	H28	H	0.214811	0.915377	0.329029
	H29	H	0.212981	0.126904	0.647995
	H30	H	0.770922	0.129897	0.327993
	H31	H	0.771365	0.918834	0.648041
	H32	H	0.334201	0.243631	0.880092
	H33	H	0.648928	0.245392	0.092288
	H34	H	0.333249	0.799556	0.094208
	H35	H	0.650479	0.801557	0.882033
	H36	H	0.333780	0.916573	0.210619
	H37	H	0.650948	0.127261	0.207097
	H38	H	0.332574	0.123590	0.767739
	H39	H	0.651659	0.920040	0.767739
	H40	H	0.889068	0.242457	0.327074
	H41	H	0.096268	0.242193	0.648239
	H42	H	0.099379	0.799984	0.328871
	H43	H	0.887345	0.803554	0.649288
	H44	H	0.214704	0.365195	0.878400
	H45	H	0.215665	0.679238	0.095503
	H46	H	0.768595	0.364244	0.095489
	H47	H	0.770391	0.680127	0.882264
	H48	H	0.399538	0.136056	0.578619
	H49	H	0.576649	0.908391	0.584069
	H50	H	0.574040	0.131643	0.400113
	H51	H	0.412420	0.911699	0.398602
	H52	H	0.576021	0.436269	0.099295
	H53	H	0.579790	0.606628	0.876789
	H54	H	0.401956	0.608851	0.101069
	H55	H	0.396164	0.438989	0.873249
	H56	H	0.105209	0.613463	0.397229
	H57	H	0.879077	0.619310	0.572321
	H58	H	0.106043	0.435160	0.584561
	H59	H	0.880891	0.435273	0.399362
	H60	H	0.105809	0.425219	0.575801
	H61	H	0.882005	0.606101	0.576387
	H62	H	0.103377	0.613336	0.402531
	H63	H	0.877665	0.429531	0.396693
	H64	H	0.403291	0.606744	0.099796
	H65	H	0.578945	0.613159	0.872540
	H66	H	0.579150	0.429261	0.101863
	H67	H	0.411182	0.437990	0.878024
	H68	H	0.589188	0.134830	0.405819
	H69	H	0.579357	0.913217	0.566206
	H70	H	0.405687	0.133876	0.578817
	H71	H	0.400654	0.911601	0.409594
	H72	H	0.904371	0.634155	0.075844
	H73	H	0.078159	0.409861	0.076005
	H74	H	0.079749	0.634533	0.903558
	H75	H	0.897793	0.408820	0.901875
	H76	H	0.083686	0.934498	0.602696
	H77	H	0.085322	0.110303	0.373345
	H78	H	0.898047	0.109775	0.602820
	H79	H	0.908324	0.934493	0.375562
	H80	H	0.601281	0.101633	0.898314
	H81	H	0.380963	0.108517	0.075147
	H82	H	0.603399	0.931915	0.074910
	H83	H	0.375433	0.920694	0.898214
	H84	H	0.604373	0.931413	0.075258
	H85	H	0.379398	0.109321	0.076917
	H86	H	0.608748	0.115925	0.888254
	H87	H	0.383275	0.935117	0.905676
	H88	H	0.906473	0.108626	0.599675
	H89	H	0.080084	0.107050	0.376217
	H90	H	0.079085	0.938237	0.600163
	H91	H	0.903445	0.932466	0.374071
	H92	H	0.081515	0.635746	0.902054
	H93	H	0.079037	0.410654	0.073114
	H94	H	0.896669	0.637048	0.076064
	H95	H	0.901726	0.407216	0.895679
	H96	H	0.402213	0.133407	0.573471
	H97	H	0.593362	0.905134	0.575928
	H98	H	0.585780	0.138509	0.390118
	H99	H	0.397956	0.906253	0.394826
	H100	H	0.583848	0.435336	0.101417
	H101	H	0.585448	0.609541	0.873853
	H102	H	0.404806	0.609078	0.100984
	H103	H	0.403970	0.425493	0.870410
	H104	H	0.102782	0.608725	0.399153
	H105	H	0.875586	0.615189	0.585181
	H106	H	0.101063	0.437054	0.571914
	H107	H	0.880190	0.429763	0.403407
	H108	H	0.901551	0.637721	0.083013
	H109	H	0.080422	0.409495	0.075246
	H110	H	0.079515	0.635021	0.901520
	H111	H	0.905051	0.410672	0.901254
	H112	H	0.077917	0.932009	0.601462
	H113	H	0.079687	0.113097	0.373867
	H114	H	0.903750	0.116843	0.602455
	H115	H	0.904338	0.937579	0.375780
	H116	H	0.603088	0.118525	0.906107
	H117	H	0.379720	0.111070	0.075332
	H118	H	0.603115	0.931138	0.074903
	H119	H	0.377556	0.935270	0.888613
	C120	C	0.370198	0.029439	0.609230
	C121	C	0.613924	1.013764	0.608338
	C122	C	0.615106	0.030395	0.365932
	C123	C	0.371321	1.013920	0.367380
	C124	C	0.612538	0.401166	-0.004486
	C125	C	0.613493	0.643352	0.979459
	C126	C	0.370919	0.641836	-0.004245
	C127	C	0.369861	0.400471	0.978626
	C128	C	-0.000366	0.643703	0.367809
	C129	C	0.983109	0.645310	0.610592
	C130	C	-0.000206	0.401098	0.609499
	C131	C	0.983147	0.399357	0.365601
	C132	C	0.868790	0.531021	0.110562
	C133	C	0.112328	0.514153	0.108764
	C134	C	0.112958	0.531392	0.867209
	C135	C	0.870203	0.514066	0.867594
	C136	C	0.113352	0.901099	0.496452
	C137	C	0.113514	0.143018	0.479829
	C138	C	0.871191	0.143491	0.495817
	C139	C	0.872209	0.902514	0.480388
	C140	C	0.500087	0.143508	0.864942
	C141	C	0.484088	0.142903	0.108281
	C142	C	0.499786	0.899063	0.109055
	C143	C	0.483826	0.899303	0.865611
	C144	C	0.368642	0.909876	0.668387
	C145	C	0.613755	0.133753	0.667645
	C146	C	0.616743	0.910945	0.305783
	C147	C	0.369725	0.132765	0.306425
	C148	C	0.673873	0.398208	0.876245
	C149	C	0.673197	0.646940	0.099362
	C150	C	0.309414	0.646834	0.876992
	C151	C	0.307293	0.395564	0.097370
	C152	C	0.881323	0.704360	0.365350
	C153	C	0.101177	0.706488	0.614618
	C154	C	0.880948	0.341890	0.610636
	C155	C	0.101685	0.339267	0.361573
	C156	C	0.880077	0.401232	0.667675
	C157	C	0.101019	0.648065	0.671993
	C158	C	0.880104	0.644331	0.309419
	C159	C	0.101432	0.397702	0.304204
	C160	C	0.368706	0.702538	0.876232
	C161	C	0.615536	0.704270	0.099120
	C162	C	0.615256	0.341306	0.875508
	C163	C	0.365779	0.338743	0.097696
	C164	C	0.675503	0.911533	0.362972
	C165	C	0.673337	0.133396	0.611604
	C166	C	0.308897	0.911046	0.612888
	C167	C	0.309998	0.132229	0.362578
	C168	C	0.867963	0.411114	0.169229
	C169	C	0.114504	0.633349	0.168962
	C170	C	0.113386	0.411798	0.807131
	C171	C	0.869001	0.633785	0.808532
	C172	C	0.174650	0.897501	0.376716
	C173	C	0.172841	0.145379	0.600038
	C174	C	0.811137	0.146852	0.375856
	C175	C	0.811523	0.900449	0.600371
	C176	C	0.381357	0.203418	0.862442
	C177	C	0.602227	0.204259	0.110457
	C178	C	0.380701	0.839474	0.111889
	C179	C	0.603060	0.840819	0.863844
	C180	C	0.381122	0.897463	0.170173
	C181	C	0.603056	0.145756	0.167942
	C182	C	0.380578	0.143527	0.806416
	C183	C	0.603635	0.899792	0.806888
	C184	C	0.870109	0.203032	0.375178
	C185	C	0.115073	0.202891	0.600021
	C186	C	0.117119	0.839916	0.376821
	C187	C	0.869633	0.843207	0.601061
	C188	C	0.173665	0.412519	0.862018
	C189	C	0.174359	0.632402	0.112829
	C190	C	0.809092	0.411625	0.112850
	C191	C	0.810723	0.633172	0.865123
	C192	C	0.395288	0.112783	0.583911
	C193	C	0.589862	0.930659	0.582843
	C194	C	0.590239	0.113323	0.391377
	C195	C	0.396566	0.931397	0.393625
	C196	C	0.586783	0.426379	0.079063
	C197	C	0.588560	0.617017	0.896067
	C198	C	0.396198	0.615633	0.079086
	C199	C	0.396266	0.426642	0.895519
	C200	C	0.082335	0.618936	0.392724
	C201	C	0.900500	0.620569	0.585373
	C202	C	0.082943	0.425441	0.584565
	C203	C	0.900848	0.424413	0.392126
	C204	C	0.893372	0.614452	0.085532
	C205	C	0.086641	0.431563	0.082517
	C206	C	0.087752	0.613766	0.894476
	C207	C	0.894602	0.430544	0.892457
	C208	C	0.087765	0.927313	0.579624
	C209	C	0.088766	0.117488	0.396347
	C210	C	0.895717	0.118821	0.579700
	C211	C	0.898011	0.927637	0.396888
	C212	C	0.582785	0.118932	0.890179
	C213	C	0.401737	0.117047	0.082984
	C214	C	0.582145	0.924360	0.082861
	C215	C	0.400538	0.923294	0.890327
	Zn216	Zn	0.491730	0.021099	0.736948
	Zn217	Zn	0.492837	0.021831	0.237697
	Zn218	Zn	0.741727	0.522361	-0.011818
	Zn219	Zn	0.241609	0.521902	-0.012607
	Zn220	Zn	-0.007673	0.773428	0.488594
	Zn221	Zn	-0.007448	0.271442	0.487805
	Zn222	Zn	-0.009069	0.523222	0.739216
	Zn223	Zn	-0.009131	0.522454	0.238258
	Zn224	Zn	0.491814	0.770346	-0.012670
	Zn225	Zn	0.491184	0.272213	-0.013130
	Zn226	Zn	0.743428	0.022831	0.487722
	Zn227	Zn	0.241946	0.021802	0.488107
	N228	N	0.405958	0.984528	0.666220
	N229	N	0.577222	0.058610	0.665550
	N230	N	0.579810	0.985877	0.307487
	N231	N	0.407362	0.058475	0.309483
	N232	N	0.672340	0.434733	0.951941
	N233	N	0.671973	0.609646	0.023840
	N234	N	0.310659	0.609780	0.952503
	N235	N	0.310041	0.433571	0.022355
	N236	N	0.956662	0.703950	0.400981
	N237	N	0.026941	0.704644	0.576913
	N238	N	0.956554	0.341635	0.575353
	N239	N	0.027123	0.340121	0.398933
	N240	N	0.955164	0.437282	0.667214
	N241	N	0.026683	0.610772	0.669576
	N242	N	0.954631	0.607392	0.310721
	N243	N	0.026760	0.434309	0.306541
	N244	N	0.406318	0.699453	0.951229
	N245	N	0.579144	0.702105	0.023506
	N246	N	0.577683	0.343105	0.950767
	N247	N	0.404216	0.341837	0.022952
	N248	N	0.674635	0.986836	0.399385
	N249	N	0.673810	0.057739	0.575765
	N250	N	0.309796	0.986654	0.576791
	N251	N	0.310925	0.057187	0.399832
	N252	N	0.904505	0.486240	0.167705
	N253	N	0.076667	0.558849	0.166574
	N254	N	0.076608	0.486711	0.810080
	N255	N	0.905388	0.558688	0.810231
	N256	N	0.172476	0.934805	0.452112
	N257	N	0.172176	0.108966	0.524232
	N258	N	0.811907	0.110515	0.451809
	N259	N	0.813225	0.936813	0.524458
	N260	N	0.456787	0.203636	0.898093
	N261	N	0.527155	0.202798	0.074359
	N262	N	0.455585	0.840255	0.074861
	N263	N	0.527481	0.840301	0.899380
	N264	N	0.456223	0.933632	0.168816
	N265	N	0.528507	0.108466	0.166859
	N266	N	0.455422	0.107131	0.807895
	N267	N	0.528373	0.935239	0.807679
	N268	N	0.906886	0.201108	0.450669
	N269	N	0.079247	0.201854	0.524012
	N270	N	0.079675	0.842128	0.452190
	N271	N	0.906937	0.844463	0.525495
	N272	N	0.173752	0.488026	0.898412
	N273	N	0.173361	0.557102	0.076387
	N274	N	0.809162	0.487418	0.077354
	N275	N	0.811390	0.557625	0.901242
	O276	O	0.690364	0.318109	0.422409
	H277	H	0.676838	0.311626	0.402577
	H278	H	0.696686	0.306884	0.413039
	O279	O	0.774164	0.340233	0.686677
	H280	H	0.772767	0.353042	0.677525
	H281	H	0.779645	0.334335	0.697860
	O282	O	0.453731	0.553866	0.528785
	H283	H	0.466045	0.563951	0.524918
	H284	H	0.470524	0.558160	0.540390
	O285	O	1.460433	1.736808	0.271744
	H286	H	1.416456	1.732170	0.283246
	H287	H	1.449421	1.768218	0.239194
	O288	O	0.910261	-0.097323	1.048644
	H289	H	0.905313	-0.094549	1.049349
	H290	H	0.899444	-0.102830	1.056051
	O291	O	0.649038	0.531972	0.276346
	H292	H	0.639474	0.518556	0.279444
	H293	H	0.641834	0.545507	0.263406
	O294	O	1.035818	1.085892	1.142083
	H295	H	1.021123	1.087230	1.126522
	H296	H	1.026143	1.081286	1.148240
	O297	O	0.563916	0.448035	0.689167
	H298	H	0.545501	0.455180	0.688178
	H299	H	0.580207	0.456379	0.680795
	O300	O	-0.729404	-0.699746	-0.489660
	H301	H	-0.737562	-0.695618	-0.467117
	H302	H	-0.750376	-0.719883	-0.469117
	O303	O	0.510469	0.482297	1.387918
	H304	H	0.510018	0.478922	1.381451
	H305	H	0.510688	0.476925	1.378425
	O306	O	0.058918	-0.110954	0.803770
	H307	H	0.082661	-0.103905	0.811500
	H308	H	0.054431	-0.099151	0.802393
	O309	O	1.001950	-0.145492	0.145575
	H310	H	1.021828	-0.128247	0.146894
	H311	H	0.999853	-0.147264	0.164460
	O312	O	0.640623	0.581617	0.453313
	H313	H	0.630428	0.582046	0.455592
	H314	H	0.627412	0.578761	0.448319
	O315	O	0.673434	0.705950	0.664249
	H316	H	0.682084	0.702373	0.623178
	H317	H	0.692206	0.685614	0.666146
	O318	O	1.182850	-0.965545	0.106353
	H319	H	1.186664	-0.959962	0.108261
	H320	H	1.186687	-0.962747	0.101472
	O321	O	0.624042	0.335891	0.308687
	H322	H	0.590855	0.329239	0.307125
	H323	H	0.625835	0.367406	0.304968
	O324	O	0.882685	0.178087	1.036365
	H325	H	0.894428	0.181464	1.036996
	H326	H	0.871151	0.173676	1.025834
	O327	O	0.028494	1.137199	1.121659
	H328	H	0.020217	1.138821	1.122536
	H329	H	0.045265	1.137949	1.121830
	O330	O	0.038685	0.946598	1.114017
	H331	H	0.035127	0.958949	1.113416
	H332	H	0.049583	0.950105	1.111189
	O333	O	0.593655	0.590366	-0.606206
	H334	H	0.582953	0.583681	-0.610054
	H335	H	0.586357	0.616337	-0.595351
	O336	O	1.052866	0.844534	-0.111979
	H337	H	1.054842	0.850638	-0.132385
	H338	H	1.045186	0.850129	-0.113505
	O339	O	-0.038990	1.182783	0.999622
	H340	H	-0.029971	1.201573	1.019497
	H341	H	-0.045734	1.182114	0.988241
	O342	O	0.460548	0.634162	0.538804
	H343	H	0.445716	0.621624	0.551662
	H344	H	0.464726	0.645499	0.537106
	O345	O	-0.006165	-0.056179	0.931914
	H346	H	-0.009979	-0.049138	0.924493
	H347	H	-0.010831	-0.066912	0.939377
	O348	O	0.305618	0.684873	0.307736
	H349	H	0.289141	0.681947	0.326818
	H350	H	0.301538	0.658884	0.320775
	O351	O	0.787003	-0.028621	0.197080
	H352	H	0.770751	-0.037528	0.217900
	H353	H	0.786886	-0.049096	0.198920
	O354	O	0.386216	0.530814	1.498079
	H355	H	0.382662	0.534816	1.496070
	H356	H	0.374424	0.517327	1.518218
	O357	O	-0.105091	0.185656	-0.204135
	H358	H	-0.107232	0.186280	-0.222324
	H359	H	-0.123311	0.198239	-0.204753
	O360	O	0.804792	-0.168799	1.143851
	H361	H	0.819860	-0.184219	1.141121
	H362	H	0.808767	-0.171588	1.133284
	O363	O	0.877499	0.073072	-0.102112
	H364	H	0.856147	0.092468	-0.098280
	H365	H	0.872778	0.056102	-0.105842
	O366	O	-0.212174	0.075623	0.850509
	H367	H	-0.223081	0.072554	0.824448
	H368	H	-0.202739	0.095661	0.858760
	O369	O	1.070780	0.012931	0.844426
	H370	H	1.067569	-0.006983	0.847445
	H371	H	1.063066	0.032958	0.833938
	O372	O	0.581028	0.355563	0.517540
	H373	H	0.581814	0.352798	0.508635
	H374	H	0.591769	0.350136	0.507509
	O375	O	-0.004845	-0.012671	0.901745
	H376	H	-0.014808	-0.019867	0.910377
	H377	H	0.009877	-0.031159	0.890025
	O378	O	0.473689	0.331615	0.677438
	H379	H	0.498854	0.332284	0.680949
	H380	H	0.479921	0.329431	0.673708
	O381	O	0.089087	0.999437	-0.086740
	H382	H	0.083702	1.002602	-0.082752
	H383	H	0.092123	1.001867	-0.072238
	O384	O	0.471855	0.473563	0.320360
	H385	H	0.478257	0.482369	0.315668
	H386	H	0.458905	0.476537	0.321965
	O387	O	0.919154	0.028975	0.905621
	H388	H	0.927265	0.029785	0.907733
	H389	H	0.911261	0.034749	0.901820
	O390	O	1.168213	0.840784	0.000648
	H391	H	1.166416	0.835858	0.002538
	H392	H	1.172220	0.836503	-0.012890
	O393	O	1.196838	0.166820	1.011067
	H394	H	1.212398	0.152631	1.005167
	H395	H	1.164044	0.169716	1.008071
	O396	O	0.280589	0.503451	0.698342
	H397	H	0.293009	0.496296	0.705534
	H398	H	0.268384	0.513495	0.718842
	O399	O	0.315596	0.583131	0.583366
	H400	H	0.337272	0.582715	0.575402
	H401	H	0.320180	0.564507	0.589593
	O402	O	1.295976	1.328747	-0.316814
	H403	H	1.320012	1.331080	-0.306212
	H404	H	1.303935	1.352280	-0.317844
	O405	O	-0.336894	-0.282244	0.498685
	H406	H	-0.373955	-0.276088	0.475627
	H407	H	-0.320539	-0.292378	0.492846
	O408	O	0.287071	0.509567	0.340451
	H409	H	0.279655	0.511177	0.310945
	H410	H	0.288211	0.504321	0.362102
	O411	O	0.429238	0.705641	1.447819
	H412	H	0.413101	0.710812	1.441455
	H413	H	0.410937	0.698358	1.451392
	O414	O	0.667075	0.524860	0.677147
	H415	H	0.656470	0.525244	0.685831
	H416	H	0.677324	0.535646	0.656131
	O417	O	0.059515	1.192319	1.072231
	H418	H	0.056703	1.175909	1.087972
	H419	H	0.063191	1.187393	1.045215
	O420	O	0.618045	1.511894	1.458129
	H421	H	0.621512	1.524381	1.458455
	H422	H	0.616133	1.504319	1.450949
	O423	O	0.131948	1.012837	-0.007978
	H424	H	0.136133	1.017425	-0.002763
	H425	H	0.130106	1.009226	0.002129
	O426	O	1.034091	0.027593	0.006882
	H427	H	1.024423	0.020638	-0.004189
	H428	H	1.039514	0.031873	0.024980
	O429	O	0.545941	0.309340	0.382081
	H430	H	0.533724	0.327870	0.386887
	H431	H	0.550145	0.286051	0.349843
	O432	O	0.322818	0.647689	0.483754
	H433	H	0.318402	0.653776	0.495480
	H434	H	0.306818	0.624659	0.495005
	O435	O	-0.207604	0.071667	0.041654
	H436	H	-0.215257	0.080351	0.027058
	H437	H	-0.212519	0.052447	0.057365
	O438	O	-0.665331	1.416496	0.400181
	H439	H	-0.643701	1.408960	0.405886
	H440	H	-0.678348	1.399203	0.410684
	O441	O	0.519768	0.738125	0.704695
	H442	H	0.560058	0.736514	0.700540
	H443	H	0.533232	0.765160	0.727528
