data_Molecule from HDF5

_cell_length_a		16.468583
_cell_length_b		16.453615
_cell_length_c		16.609837
_cell_angle_alpha	89.969256
_cell_angle_beta	89.845874
_cell_angle_gamma	89.877285
_symmetry_space_group_name_H-M	'P 1'
_symmetry_Int_Tables_number		1

loop_
	_symmetry_equiv_pos_as_xyz
	x,y,z

loop_
	_atom_site_label
	_atom_site_type_symbol
	_atom_site_fract_x
	_atom_site_fract_y
	_atom_site_fract_z
	H0	H	0.378745	0.849971	0.704323
	H1	H	0.598835	0.161224	0.699119
	H2	H	0.598366	0.847136	0.251297
	H3	H	0.386211	0.162354	0.256874
	H4	H	0.713000	0.398018	0.817557
	H5	H	0.710512	0.609240	0.130460
	H6	H	0.265630	0.613032	0.818611
	H7	H	0.269077	0.401404	0.131161
	H8	H	0.833056	0.727473	0.369021
	H9	H	0.147280	0.723707	0.577736
	H10	H	0.831704	0.284469	0.579077
	H11	H	0.148182	0.282825	0.370232
	H12	H	0.833862	0.396965	0.697844
	H13	H	0.144957	0.612576	0.696852
	H14	H	0.832469	0.609138	0.254307
	H15	H	0.147088	0.397210	0.252103
	H16	H	0.379912	0.731919	0.820223
	H17	H	0.593396	0.725075	0.130619
	H18	H	0.595956	0.281797	0.817578
	H19	H	0.386923	0.286719	0.132515
	H20	H	0.711955	0.845644	0.370543
	H21	H	0.710375	0.162845	0.578662
	H22	H	0.266318	0.847361	0.585701
	H23	H	0.270079	0.161446	0.373314
	H24	H	0.883241	0.348134	0.196831
	H25	H	0.097632	0.660421	0.197829
	H26	H	0.098531	0.349149	0.749952
	H27	H	0.880018	0.661602	0.749678
	H28	H	0.216916	0.894494	0.321951
	H29	H	0.214371	0.111618	0.630702
	H30	H	0.770104	0.108514	0.319195
	H31	H	0.765759	0.895359	0.631891
	H32	H	0.332315	0.225272	0.870951
	H33	H	0.648357	0.222276	0.076464
	H34	H	0.332827	0.782594	0.081433
	H35	H	0.646336	0.779671	0.865593
	H36	H	0.334360	0.896628	0.199069
	H37	H	0.647638	0.108329	0.194329
	H38	H	0.335728	0.115215	0.750116
	H39	H	0.646349	0.894821	0.750198
	H40	H	0.886552	0.224984	0.319037
	H41	H	0.097032	0.227099	0.630753
	H42	H	0.096962	0.782212	0.319174
	H43	H	0.881731	0.778860	0.630353
	H44	H	0.210975	0.347422	0.868967
	H45	H	0.211870	0.661488	0.080355
	H46	H	0.770805	0.346694	0.076590
	H47	H	0.766605	0.662058	0.867814
	H48	H	0.405761	0.115166	0.563264
	H49	H	0.575210	0.893812	0.561996
	H50	H	0.578967	0.116284	0.385156
	H51	H	0.406125	0.891709	0.388451
	H52	H	0.584926	0.425419	0.083144
	H53	H	0.578341	0.589894	0.863449
	H54	H	0.402972	0.590749	0.083863
	H55	H	0.402661	0.414586	0.862223
	H56	H	0.103515	0.590361	0.379959
	H57	H	0.878185	0.591232	0.559057
	H58	H	0.106260	0.420072	0.577035
	H59	H	0.877017	0.415201	0.384992
	H60	H	0.105890	0.402546	0.558974
	H61	H	0.877375	0.587065	0.562559
	H62	H	0.104354	0.596811	0.386121
	H63	H	0.877530	0.414393	0.387693
	H64	H	0.401149	0.595574	0.085491
	H65	H	0.575863	0.593438	0.863045
	H66	H	0.568868	0.411344	0.083139
	H67	H	0.399634	0.414795	0.861250
	H68	H	0.580953	0.117285	0.385102
	H69	H	0.579150	0.892534	0.562261
	H70	H	0.403925	0.114775	0.561068
	H71	H	0.401741	0.890768	0.388726
	H72	H	0.893904	0.621215	0.065037
	H73	H	0.079590	0.389275	0.068172
	H74	H	0.077348	0.619017	0.881445
	H75	H	0.904300	0.393646	0.886519
	H76	H	0.088949	0.912831	0.591561
	H77	H	0.080543	0.086974	0.365070
	H78	H	0.896166	0.089877	0.588156
	H79	H	0.899823	0.910578	0.362285
	H80	H	0.603135	0.094974	0.888105
	H81	H	0.373703	0.100985	0.068506
	H82	H	0.604666	0.914449	0.066599
	H83	H	0.376471	0.909158	0.891407
	H84	H	0.602292	0.913280	0.059170
	H85	H	0.377731	0.094412	0.063537
	H86	H	0.600681	0.089877	0.889453
	H87	H	0.385158	0.926015	0.898019
	H88	H	0.905898	0.091918	0.585953
	H89	H	0.074958	0.092099	0.365937
	H90	H	0.075075	0.925347	0.581789
	H91	H	0.898498	0.920807	0.365323
	H92	H	0.072296	0.614654	0.885791
	H93	H	0.071442	0.394529	0.062397
	H94	H	0.905746	0.617999	0.070126
	H95	H	0.900032	0.392060	0.885618
	H96	H	0.402476	0.115073	0.563609
	H97	H	0.576619	0.892496	0.565261
	H98	H	0.579730	0.117031	0.383138
	H99	H	0.404301	0.890622	0.384571
	H100	H	0.587634	0.405976	0.091440
	H101	H	0.580024	0.593478	0.861376
	H102	H	0.398128	0.591347	0.086089
	H103	H	0.400811	0.417535	0.862542
	H104	H	0.100737	0.588986	0.387941
	H105	H	0.876282	0.592671	0.564058
	H106	H	0.096452	0.425741	0.554820
	H107	H	0.878957	0.416728	0.386420
	H108	H	0.902969	0.615032	0.057783
	H109	H	0.081276	0.392129	0.057589
	H110	H	0.079340	0.617262	0.888800
	H111	H	0.903542	0.392168	0.882360
	H112	H	0.070188	0.906009	0.587437
	H113	H	0.080654	0.094278	0.362753
	H114	H	0.899485	0.098892	0.589618
	H115	H	0.907468	0.916575	0.366390
	H116	H	0.603086	0.090625	0.884095
	H117	H	0.374683	0.092820	0.072038
	H118	H	0.600685	0.920045	0.062629
	H119	H	0.378082	0.925459	0.879561
	C120	C	0.369491	0.012329	0.597555
	C121	C	0.610666	0.996500	0.595979
	C122	C	0.612660	0.012613	0.352627
	C123	C	0.370251	0.995235	0.355274
	C124	C	0.612431	0.382002	-0.017655
	C125	C	0.610839	0.625619	0.965534
	C126	C	0.367253	0.626762	-0.017427
	C127	C	0.368752	0.383795	0.965541
	C128	C	-0.001393	0.625243	0.353086
	C129	C	0.981136	0.623929	0.594303
	C130	C	-0.001038	0.382685	0.596633
	C131	C	0.981855	0.382789	0.353703
	C132	C	0.868710	0.513569	0.095783
	C133	C	0.110411	0.496015	0.095174
	C134	C	0.110589	0.513774	0.852200
	C135	C	0.868896	0.496379	0.852403
	C136	C	0.112163	0.881888	0.484440
	C137	C	0.111959	0.124944	0.467253
	C138	C	0.868590	0.125785	0.484568
	C139	C	0.868269	0.882151	0.467456
	C140	C	0.498827	0.125582	0.854177
	C141	C	0.480424	0.126778	0.097970
	C142	C	0.498538	0.883129	0.096307
	C143	C	0.482040	0.884445	0.854339
	C144	C	0.363251	0.895927	0.661717
	C145	C	0.615225	0.114452	0.657553
	C146	C	0.616423	0.894251	0.291798
	C147	C	0.367632	0.114395	0.296336
	C148	C	0.672953	0.379498	0.864606
	C149	C	0.670494	0.627625	0.083525
	C150	C	0.305822	0.631071	0.865587
	C151	C	0.308994	0.382676	0.084087
	C152	C	0.880231	0.686695	0.350702
	C153	C	0.099583	0.684450	0.596657
	C154	C	0.879850	0.323411	0.598127
	C155	C	0.100653	0.322713	0.351610
	C156	C	0.880603	0.379682	0.657029
	C157	C	0.098465	0.628914	0.655726
	C158	C	0.879780	0.627951	0.293808
	C159	C	0.100024	0.379427	0.292733
	C160	C	0.362999	0.689871	0.866189
	C161	C	0.612403	0.685374	0.083551
	C162	C	0.614630	0.321760	0.864636
	C163	C	0.367664	0.325626	0.084745
	C164	C	0.672965	0.893538	0.350892
	C165	C	0.671077	0.115248	0.597842
	C166	C	0.306768	0.894780	0.602895
	C167	C	0.309473	0.113860	0.353862
	C168	C	0.865674	0.395041	0.155997
	C169	C	0.114239	0.613733	0.156537
	C170	C	0.115447	0.396163	0.790527
	C171	C	0.863597	0.614532	0.790773
	C172	C	0.175306	0.877361	0.368146
	C173	C	0.173389	0.129119	0.584086
	C174	C	0.809719	0.127205	0.366285
	C175	C	0.806629	0.878237	0.584556
	C176	C	0.380259	0.186170	0.851873
	C177	C	0.600112	0.184158	0.096853
	C178	C	0.380482	0.822566	0.099449
	C179	C	0.599417	0.820750	0.848947
	C180	C	0.380916	0.879348	0.157986
	C181	C	0.600019	0.127436	0.155483
	C182	C	0.381838	0.130886	0.791931
	C183	C	0.599337	0.878083	0.791354
	C184	C	0.867481	0.185232	0.366312
	C185	C	0.115280	0.186878	0.583952
	C186	C	0.115527	0.821574	0.366767
	C187	C	0.864406	0.820075	0.584321
	C188	C	0.171373	0.395017	0.849867
	C189	C	0.171407	0.614108	0.098076
	C190	C	0.809708	0.394502	0.096390
	C191	C	0.807103	0.614841	0.849594
	C192	C	0.396326	0.093751	0.570343
	C193	C	0.584368	0.914364	0.570510
	C194	C	0.587237	0.095282	0.377476
	C195	C	0.396371	0.912611	0.380047
	C196	C	0.587448	0.407161	0.064423
	C197	C	0.585343	0.599932	0.883855
	C198	C	0.393437	0.600241	0.063874
	C199	C	0.393787	0.408576	0.883525
	C200	C	0.081313	0.599671	0.377666
	C201	C	0.898793	0.597786	0.569144
	C202	C	0.081399	0.408542	0.571081
	C203	C	0.899352	0.408195	0.378923
	C204	C	0.893781	0.596624	0.071267
	C205	C	0.084885	0.413371	0.069820
	C206	C	0.084060	0.595740	0.878115
	C207	C	0.895099	0.414126	0.877668
	C208	C	0.085757	0.907504	0.565827
	C209	C	0.086222	0.098453	0.385855
	C210	C	0.893329	0.100677	0.566470
	C211	C	0.894512	0.908328	0.386007
	C212	C	0.581075	0.099281	0.879964
	C213	C	0.397131	0.102749	0.074821
	C214	C	0.580998	0.908793	0.070395
	C215	C	0.401014	0.912291	0.881886
	Zn216	Zn	0.490866	0.004761	0.725758
	Zn217	Zn	0.490146	0.003537	0.225065
	Zn218	Zn	0.740429	0.504706	-0.026531
	Zn219	Zn	0.239008	0.504308	-0.026443
	Zn220	Zn	-0.010040	0.753008	0.474949
	Zn221	Zn	-0.009617	0.254360	0.475415
	Zn222	Zn	-0.010669	0.505345	0.723636
	Zn223	Zn	-0.010019	0.504036	0.224395
	Zn224	Zn	0.490000	0.755249	-0.025509
	Zn225	Zn	0.489886	0.254164	-0.025440
	Zn226	Zn	0.739734	0.003760	0.475615
	Zn227	Zn	0.241215	0.003376	0.476495
	N228	N	0.401594	0.969917	0.658655
	N229	N	0.578596	0.039500	0.656531
	N230	N	0.579699	0.969321	0.292588
	N231	N	0.404576	0.039397	0.296874
	N232	N	0.671869	0.416186	0.938884
	N233	N	0.669545	0.591074	0.009141
	N234	N	0.308298	0.592546	0.939046
	N235	N	0.309215	0.417705	0.008971
	N236	N	0.955159	0.685219	0.386705
	N237	N	0.025481	0.681612	0.559256
	N238	N	0.954657	0.325189	0.561326
	N239	N	0.026215	0.324735	0.388960
	N240	N	0.955681	0.415812	0.656392
	N241	N	0.023764	0.592010	0.654296
	N242	N	0.954504	0.590720	0.295030
	N243	N	0.025175	0.416009	0.293843
	N244	N	0.400328	0.687544	0.939981
	N245	N	0.576062	0.684100	0.009222
	N246	N	0.577784	0.323185	0.939007
	N247	N	0.403991	0.325786	0.010109
	N248	N	0.670923	0.968184	0.387870
	N249	N	0.668227	0.041007	0.560028
	N250	N	0.310882	0.968074	0.563319
	N251	N	0.310900	0.038615	0.389584
	N252	N	0.901420	0.470332	0.155941
	N253	N	0.076944	0.539117	0.154782
	N254	N	0.078398	0.471013	0.791704
	N255	N	0.901471	0.539886	0.792337
	N256	N	0.173699	0.913906	0.442391
	N257	N	0.171596	0.091424	0.510384
	N258	N	0.810228	0.090937	0.440744
	N259	N	0.809088	0.916136	0.510891
	N260	N	0.454017	0.182672	0.890078
	N261	N	0.524512	0.184432	0.062119
	N262	N	0.454722	0.824894	0.061674
	N263	N	0.525113	0.823924	0.887061
	N264	N	0.455355	0.916491	0.155887
	N265	N	0.524390	0.092687	0.156551
	N266	N	0.456741	0.094100	0.793155
	N267	N	0.525466	0.916811	0.794423
	N268	N	0.903007	0.184743	0.440968
	N269	N	0.077681	0.184454	0.510235
	N270	N	0.077053	0.823904	0.440143
	N271	N	0.902172	0.822302	0.510427
	N272	N	0.168490	0.469192	0.887659
	N273	N	0.168763	0.540009	0.060248
	N274	N	0.811437	0.469276	0.059696
	N275	N	0.810505	0.540659	0.887457
	O276	O	0.643142	0.559806	0.343618
	H277	H	0.642950	0.572665	0.353601
	H278	H	0.630311	0.549015	0.340349
	O279	O	0.435713	0.613497	0.599103
	H280	H	0.450253	0.602683	0.605041
	H281	H	0.456190	0.614355	0.582899
	O282	O	1.246198	0.828210	0.117354
	H283	H	1.250469	0.833274	0.128888
	H284	H	1.230516	0.839093	0.113946
	O285	O	0.965736	-0.208458	0.957867
	H286	H	0.966700	-0.215001	0.965643
	H287	H	0.970373	-0.205946	0.936635
	O288	O	-0.059080	0.048678	0.198737
	H289	H	-0.037861	0.065102	0.202470
	H290	H	-0.071337	0.034547	0.198192
	O291	O	1.283261	1.643291	0.497601
	H292	H	1.279355	1.666253	0.491172
	H293	H	1.306737	1.650174	0.500003
	O294	O	0.203602	1.218770	0.009665
	H295	H	0.232647	1.233267	0.001460
	H296	H	0.197669	1.206614	0.025321
	O297	O	1.052021	0.031851	-0.055844
	H298	H	1.049372	0.035589	-0.053694
	H299	H	1.056529	0.020063	-0.042845
	O300	O	-0.032924	0.825760	1.192046
	H301	H	-0.044096	0.811825	1.221455
	H302	H	-0.060790	0.834917	1.182142
	O303	O	0.526371	0.287994	0.255897
	H304	H	0.531328	0.279441	0.252154
	H305	H	0.519364	0.275603	0.249467
	O306	O	0.202897	0.792809	0.949462
	H307	H	0.211322	0.786334	0.954002
	H308	H	0.210501	0.783384	0.960054
	O309	O	0.021748	0.215755	0.190551
	H310	H	0.015421	0.229234	0.191928
	H311	H	0.043549	0.218106	0.197071
	O312	O	0.279585	0.510440	0.483090
	H313	H	0.285419	0.513737	0.460870
	H314	H	0.282166	0.513793	0.477613
	O315	O	-0.221839	-0.182870	0.996396
	H316	H	-0.231958	-0.192295	0.993664
	H317	H	-0.221223	-0.186749	0.995430
	O318	O	0.165844	0.961738	-0.065284
	H319	H	0.169021	0.957141	-0.077375
	H320	H	0.160962	0.961134	-0.062863
	O321	O	0.701197	0.473139	0.270621
	H322	H	0.696088	0.468464	0.273806
	H323	H	0.717837	0.465329	0.251673
	O324	O	0.240203	0.230821	0.222338
	H325	H	0.248948	0.249064	0.241080
	H326	H	0.247763	0.226108	0.201469
	O327	O	1.194396	0.069584	1.180623
	H328	H	1.185339	0.091750	1.187804
	H329	H	1.198820	0.056529	1.192615
	O330	O	0.966559	0.208473	-0.233107
	H331	H	0.985825	0.215524	-0.230604
	H332	H	0.980952	0.220855	-0.238543
	O333	O	0.703865	0.288525	1.441962
	H334	H	0.697420	0.292703	1.396726
	H335	H	0.733412	0.257733	1.438761
	O336	O	0.944887	0.209409	1.040659
	H337	H	0.936730	0.213368	1.033710
	H338	H	0.950151	0.208086	1.048057
	O339	O	0.695977	0.299491	1.271458
	H340	H	0.666526	0.314586	1.261706
	H341	H	0.726351	0.267284	1.237330
	O342	O	0.675772	0.705286	0.487164
	H343	H	0.690017	0.701580	0.484749
	H344	H	0.681082	0.708225	0.511734
	O345	O	-0.208855	0.031468	0.024304
	H346	H	-0.194679	0.027541	-0.003633
	H347	H	-0.205243	0.025255	0.026775
	O348	O	0.785580	0.201304	0.956367
	H349	H	0.793917	0.191344	0.942551
	H350	H	0.767400	0.203718	0.941111
	O351	O	1.106310	1.003585	0.824017
	H352	H	1.102737	0.973887	0.832493
	H353	H	1.119420	1.005884	0.812668
	O354	O	0.305790	0.314183	0.663238
	H355	H	0.292526	0.298387	0.649395
	H356	H	0.294993	0.367383	0.675130
	O357	O	1.153337	1.137108	0.781030
	H358	H	1.145474	1.130827	0.788010
	H359	H	1.166515	1.118846	0.785316
	O360	O	0.292182	0.371752	0.328885
	H361	H	0.289303	0.382131	0.328000
	H362	H	0.302701	0.393764	0.335515
	O363	O	1.035858	-0.096872	0.985029
	H364	H	1.054065	-0.099537	0.986903
	H365	H	1.024029	-0.101594	0.992117
	O366	O	1.294929	-0.698164	1.497045
	H367	H	1.281055	-0.707593	1.503795
	H368	H	1.294914	-0.693097	1.488384
	O369	O	0.443073	0.550532	0.685014
	H370	H	0.456072	0.532996	0.679735
	H371	H	0.422229	0.541335	0.690106
	O372	O	0.549543	0.446729	0.600496
	H373	H	0.550222	0.437150	0.594454
	H374	H	0.542997	0.456381	0.615960
	O375	O	-0.195381	1.187821	0.795611
	H376	H	-0.205242	1.167209	0.807043
	H377	H	-0.146272	1.198004	0.783529
	O378	O	0.433080	0.596011	0.272633
	H379	H	0.421462	0.595388	0.277953
	H380	H	0.417170	0.594282	0.271653
	O381	O	1.038341	0.218170	-0.079459
	H382	H	1.042645	0.213058	-0.065070
	H383	H	1.040656	0.224138	-0.074619
	O384	O	-0.346346	-0.404637	1.434646
	H385	H	-0.336829	-0.425783	1.424762
	H386	H	-0.351665	-0.404510	1.433364
	O387	O	-0.716522	1.477136	0.687101
	H388	H	-0.724199	1.497542	0.672268
	H389	H	-0.733358	1.489822	0.687777
	O390	O	-0.069294	-0.098013	0.807381
	H391	H	-0.080393	-0.095055	0.806694
	H392	H	-0.074921	-0.085156	0.812377
	O393	O	0.797008	0.810528	0.151022
	H394	H	0.779149	0.793810	0.136002
	H395	H	0.803757	0.836991	0.156390
	O396	O	0.799648	0.193524	1.166631
	H397	H	0.812345	0.156633	1.161267
	H398	H	0.821141	0.190258	1.133423
	O399	O	1.008079	0.923186	0.909958
	H400	H	1.016237	0.923119	0.921272
	H401	H	1.008802	0.923238	0.913724
	O402	O	-0.226402	0.027484	0.764757
	H403	H	-0.221854	0.038500	0.779163
	H404	H	-0.248501	0.027358	0.735647
	O405	O	0.174101	-0.170885	0.111971
	H406	H	0.152495	-0.162666	0.114149
	H407	H	0.173016	-0.168914	0.114826
	O408	O	0.586725	1.520820	1.427143
	H409	H	0.588089	1.509548	1.429783
	H410	H	0.587784	1.510835	1.430743
	O411	O	0.470373	0.293443	0.685748
	H412	H	0.443158	0.280333	0.692461
	H413	H	0.458469	0.274841	0.686843
	O414	O	0.244409	0.746392	0.601744
	H415	H	0.242872	0.761763	0.589481
	H416	H	0.264412	0.740299	0.631920
	O417	O	1.162099	0.995057	0.095230
	H418	H	1.148682	0.990604	0.096245
	H419	H	1.166516	0.992582	0.089460
	O420	O	0.488629	0.622232	0.499360
	H421	H	0.493362	0.623249	0.511825
	H422	H	0.527032	0.615711	0.488428
	O423	O	0.545739	1.582573	0.386951
	H424	H	0.533226	1.583820	0.393980
	H425	H	0.541924	1.565834	0.404391
	O426	O	0.934119	0.955602	1.054234
	H427	H	0.942310	0.936764	1.061323
	H428	H	0.946110	0.965198	1.046938
	O429	O	0.573399	0.317313	0.525942
	H430	H	0.573642	0.307510	0.516613
	H431	H	0.584061	0.314545	0.524745
	O432	O	0.778880	-0.015282	1.177866
	H433	H	0.786160	-0.006815	1.157757
	H434	H	0.749443	-0.027093	1.201171
	O435	O	-0.392017	-0.300614	-0.337150
	H436	H	-0.364436	-0.338311	-0.335637
	H437	H	-0.415214	-0.278231	-0.312925
	O438	O	0.846175	-0.069748	0.813183
	H439	H	0.853099	-0.080267	0.811209
	H440	H	0.855851	-0.072154	0.813801
	O441	O	0.646271	0.441615	0.654900
	H442	H	0.635621	0.422812	0.646326
	H443	H	0.651011	0.428583	0.656763
	O444	O	0.480371	1.724157	0.630889
	H445	H	0.495552	1.731707	0.651294
	H446	H	0.478259	1.705787	0.648992
	O447	O	1.110233	0.859295	-0.097642
	H448	H	1.119897	0.842792	-0.076168
	H449	H	1.087648	0.855274	-0.107902
	O450	O	0.329180	0.569505	0.288284
	H451	H	0.323247	0.575501	0.308463
	H452	H	0.354091	0.567479	0.281569
	O453	O	0.413400	0.512928	0.263492
	H454	H	0.427062	0.539846	0.266748
	H455	H	0.409656	0.505586	0.251522
	O456	O	1.055771	-0.159739	-0.149824
	H457	H	1.056153	-0.151428	-0.160723
	H458	H	1.078252	-0.163043	-0.159028
	O459	O	0.496496	0.702646	0.322324
	H460	H	0.498656	0.695047	0.306409
	H461	H	0.499708	0.709108	0.316935
	O462	O	0.457236	0.303307	0.423851
	H463	H	0.463901	0.306398	0.413541
	H464	H	0.463771	0.306825	0.444397
	O465	O	0.686634	-0.415142	-0.342170
	H466	H	0.690796	-0.439036	-0.353800
	H467	H	0.702088	-0.428090	-0.350093
