data_Molecule from HDF5

_cell_length_a		16.244675
_cell_length_b		16.224290
_cell_length_c		16.460475
_cell_angle_alpha	90.430972
_cell_angle_beta	90.086561
_cell_angle_gamma	90.242870
_symmetry_space_group_name_H-M	'P 1'
_symmetry_Int_Tables_number		1

loop_
	_symmetry_equiv_pos_as_xyz
	x,y,z

loop_
	_atom_site_label
	_atom_site_type_symbol
	_atom_site_fract_x
	_atom_site_fract_y
	_atom_site_fract_z
	H0	H	0.388495	0.834846	0.715047
	H1	H	0.590931	0.161888	0.719977
	H2	H	0.589383	0.836045	0.284501
	H3	H	0.389319	0.162064	0.287373
	H4	H	0.705551	0.396596	0.840780
	H5	H	0.705265	0.599801	0.163996
	H6	H	0.272788	0.595131	0.840826
	H7	H	0.272947	0.400211	0.164677
	H8	H	0.824995	0.710257	0.406439
	H9	H	0.153763	0.714094	0.600417
	H10	H	0.824643	0.284411	0.599015
	H11	H	0.153906	0.286379	0.405750
	H12	H	0.826563	0.396308	0.718931
	H13	H	0.152943	0.600744	0.719578
	H14	H	0.826533	0.598730	0.287108
	H15	H	0.152921	0.397764	0.286544
	H16	H	0.389100	0.712382	0.840317
	H17	H	0.589753	0.717459	0.163162
	H18	H	0.586894	0.281306	0.840459
	H19	H	0.390074	0.284344	0.165779
	H20	H	0.701375	0.834482	0.402341
	H21	H	0.703430	0.162752	0.600878
	H22	H	0.274386	0.834782	0.598034
	H23	H	0.278424	0.164490	0.407090
	H24	H	0.888267	0.335217	0.217445
	H25	H	0.090788	0.661853	0.219544
	H26	H	0.090304	0.335772	0.784187
	H27	H	0.887244	0.662643	0.787117
	H28	H	0.204576	0.898956	0.339841
	H29	H	0.205199	0.100038	0.663788
	H30	H	0.773303	0.095650	0.339689
	H31	H	0.771943	0.900046	0.663386
	H32	H	0.323717	0.208922	0.907366
	H33	H	0.652904	0.214473	0.101834
	H34	H	0.325041	0.784779	0.098498
	H35	H	0.653763	0.784488	0.904777
	H36	H	0.326112	0.896875	0.217852
	H37	H	0.651858	0.100912	0.219618
	H38	H	0.326128	0.097782	0.786946
	H39	H	0.651967	0.896366	0.784550
	H40	H	0.890389	0.212291	0.339252
	H41	H	0.088267	0.216598	0.663678
	H42	H	0.086990	0.782397	0.339465
	H43	H	0.888570	0.783079	0.663617
	H44	H	0.201345	0.333407	0.904037
	H45	H	0.203061	0.662930	0.101229
	H46	H	0.776462	0.333823	0.097248
	H47	H	0.776134	0.663172	0.906615
	H48	H	0.398779	0.117605	0.600937
	H49	H	0.582373	0.880190	0.598459
	H50	H	0.575321	0.113257	0.413030
	H51	H	0.400913	0.885582	0.412997
	H52	H	0.585876	0.407023	0.117699
	H53	H	0.580863	0.591293	0.887798
	H54	H	0.395370	0.585313	0.115388
	H55	H	0.395853	0.397691	0.886581
	H56	H	0.103862	0.588201	0.414513
	H57	H	0.875269	0.583953	0.596725
	H58	H	0.105961	0.412359	0.601142
	H59	H	0.874333	0.405192	0.412993
	H60	H	0.107167	0.401780	0.595628
	H61	H	0.871410	0.593730	0.601218
	H62	H	0.107310	0.588508	0.404689
	H63	H	0.874139	0.410943	0.407794
	H64	H	0.402427	0.595422	0.116142
	H65	H	0.582723	0.589961	0.887520
	H66	H	0.580057	0.409332	0.115707
	H67	H	0.389479	0.404874	0.887339
	H68	H	0.585997	0.116246	0.413634
	H69	H	0.574108	0.884475	0.594068
	H70	H	0.401413	0.113592	0.595154
	H71	H	0.389538	0.880970	0.409453
	H72	H	0.893139	0.615946	0.093839
	H73	H	0.078847	0.379727	0.102834
	H74	H	0.076042	0.614182	0.906042
	H75	H	0.906274	0.385964	0.908960
	H76	H	0.084319	0.907075	0.617279
	H77	H	0.089013	0.092265	0.385558
	H78	H	0.899001	0.089095	0.614632
	H79	H	0.895021	0.899583	0.384788
	H80	H	0.603711	0.088012	0.913140
	H81	H	0.371119	0.090273	0.101131
	H82	H	0.601908	0.910722	0.086448
	H83	H	0.372376	0.903618	0.911535
	H84	H	0.604921	0.915126	0.101177
	H85	H	0.371591	0.094249	0.093389
	H86	H	0.605970	0.088309	0.907845
	H87	H	0.374085	0.909758	0.907085
	H88	H	0.897282	0.097036	0.617671
	H89	H	0.081247	0.088451	0.388073
	H90	H	0.081631	0.911849	0.615344
	H91	H	0.891255	0.907053	0.387266
	H92	H	0.078322	0.611940	0.917372
	H93	H	0.074231	0.384648	0.091436
	H94	H	0.897535	0.616920	0.101990
	H95	H	0.892659	0.383356	0.916535
	H96	H	0.394067	0.116550	0.595302
	H97	H	0.582852	0.883234	0.589191
	H98	H	0.580864	0.116773	0.404511
	H99	H	0.398919	0.880989	0.400950
	H100	H	0.580889	0.403350	0.117755
	H101	H	0.580370	0.589088	0.888068
	H102	H	0.391533	0.594907	0.120527
	H103	H	0.398769	0.406531	0.890007
	H104	H	0.107854	0.596833	0.410756
	H105	H	0.874665	0.593197	0.590477
	H106	H	0.102670	0.411574	0.589811
	H107	H	0.871419	0.403328	0.405490
	H108	H	0.902312	0.613537	0.095276
	H109	H	0.086836	0.380686	0.093049
	H110	H	0.086765	0.616723	0.909767
	H111	H	0.893544	0.379360	0.901176
	H112	H	0.078864	0.905760	0.615591
	H113	H	0.081113	0.097236	0.385801
	H114	H	0.890916	0.091393	0.617206
	H115	H	0.899590	0.905717	0.389105
	H116	H	0.605928	0.092943	0.911563
	H117	H	0.374504	0.086170	0.094299
	H118	H	0.608757	0.900570	0.096052
	H119	H	0.371385	0.903429	0.904249
	C120	C	0.368103	0.007277	0.624108
	C121	C	0.609748	0.990694	0.623531
	C122	C	0.609602	0.007071	0.380629
	C123	C	0.368060	0.990705	0.380287
	C124	C	0.610384	0.376688	0.010205
	C125	C	0.610751	0.620367	0.994333
	C126	C	0.366974	0.619978	0.010549
	C127	C	0.366016	0.375081	0.994959
	C128	C	-0.002086	0.619580	0.381557
	C129	C	0.981458	0.620641	0.625070
	C130	C	-0.002672	0.378275	0.623671
	C131	C	0.981217	0.377562	0.380671
	C132	C	0.868001	0.507093	0.124621
	C133	C	0.110270	0.489841	0.124697
	C134	C	0.109236	0.506212	0.882016
	C135	C	0.867659	0.490856	0.880651
	C136	C	0.110415	0.878232	0.509429
	C137	C	0.111784	0.121914	0.493683
	C138	C	0.866837	0.120631	0.509675
	C139	C	0.865982	0.875830	0.493643
	C140	C	0.497190	0.118596	0.882195
	C141	C	0.480534	0.120604	0.125387
	C142	C	0.497463	0.878374	0.122844
	C143	C	0.480799	0.875963	0.879423
	C144	C	0.368650	0.884025	0.677947
	C145	C	0.610150	0.113084	0.681100
	C146	C	0.608506	0.884540	0.323528
	C147	C	0.369567	0.113701	0.325516
	C148	C	0.666514	0.377476	0.888808
	C149	C	0.667006	0.619636	0.115664
	C150	C	0.310755	0.616456	0.889146
	C151	C	0.311066	0.379007	0.116647
	C152	C	0.874230	0.673395	0.385197
	C153	C	0.104723	0.676281	0.621954
	C154	C	0.873909	0.322047	0.620345
	C155	C	0.104823	0.323265	0.384199
	C156	C	0.874836	0.377882	0.679721
	C157	C	0.104152	0.620062	0.681026
	C158	C	0.875144	0.618174	0.325600
	C159	C	0.104303	0.378962	0.325223
	C160	C	0.368492	0.674784	0.888916
	C161	C	0.609677	0.678145	0.115337
	C162	C	0.607695	0.320046	0.888597
	C163	C	0.369412	0.321363	0.116974
	C164	C	0.664305	0.883703	0.382158
	C165	C	0.665793	0.113766	0.621647
	C166	C	0.311886	0.883934	0.619614
	C167	C	0.314765	0.114960	0.385301
	C168	C	0.869057	0.383888	0.179056
	C169	C	0.110261	0.613091	0.181018
	C170	C	0.108728	0.383833	0.824292
	C171	C	0.868161	0.613572	0.825079
	C172	C	0.166142	0.879031	0.387854
	C173	C	0.167033	0.120406	0.615458
	C174	C	0.811517	0.116874	0.387796
	C175	C	0.810250	0.879422	0.615204
	C176	C	0.373274	0.172464	0.885479
	C177	C	0.603855	0.176615	0.122439
	C178	C	0.374048	0.822366	0.119776
	C179	C	0.604420	0.821357	0.883047
	C180	C	0.374629	0.878456	0.178776
	C181	C	0.603286	0.120494	0.181410
	C182	C	0.374650	0.117120	0.825746
	C183	C	0.603562	0.876787	0.823486
	C184	C	0.869783	0.174864	0.387782
	C185	C	0.108894	0.178237	0.615419
	C186	C	0.107792	0.821067	0.387910
	C187	C	0.868001	0.821215	0.615394
	C188	C	0.163947	0.382681	0.883889
	C189	C	0.166226	0.613387	0.122255
	C190	C	0.813128	0.383352	0.119725
	C191	C	0.812912	0.614103	0.884685
	C192	C	0.391238	0.093612	0.603241
	C193	C	0.586544	0.904807	0.600628
	C194	C	0.587255	0.093071	0.403744
	C195	C	0.389915	0.904585	0.401419
	C196	C	0.588681	0.399732	0.095103
	C197	C	0.588023	0.596839	0.909704
	C198	C	0.389709	0.598293	0.095496
	C199	C	0.388259	0.396539	0.909855
	C200	C	0.084151	0.597695	0.403619
	C201	C	0.895783	0.597308	0.602665
	C202	C	0.083088	0.401598	0.601885
	C203	C	0.895396	0.399666	0.402308
	C204	C	0.890832	0.593220	0.103192
	C205	C	0.086789	0.403858	0.102287
	C206	C	0.086898	0.592074	0.904561
	C207	C	0.890739	0.404947	0.902434
	C208	C	0.088072	0.901430	0.594133
	C209	C	0.090078	0.099275	0.408504
	C210	C	0.889120	0.098991	0.594548
	C211	C	0.888452	0.897682	0.409112
	C212	C	0.583026	0.096318	0.904527
	C213	C	0.394487	0.097032	0.103017
	C214	C	0.583017	0.901778	0.100839
	C215	C	0.394965	0.898713	0.901403
	Zn216	Zn	0.489183	-0.001932	0.752711
	Zn217	Zn	0.489222	-0.001270	0.252599
	Zn218	Zn	0.740033	0.498855	0.002204
	Zn219	Zn	0.237706	0.497971	0.003305
	Zn220	Zn	-0.010728	0.747956	0.502599
	Zn221	Zn	-0.010741	0.250189	0.501581
	Zn222	Zn	-0.011002	0.498747	0.753195
	Zn223	Zn	-0.010560	0.498718	0.252926
	Zn224	Zn	0.489060	0.749254	0.001981
	Zn225	Zn	0.488927	0.247166	0.003041
	Zn226	Zn	0.737366	-0.001264	0.501376
	Zn227	Zn	0.240472	-0.000327	0.501439
	N228	N	0.402653	0.961693	0.680892
	N229	N	0.575955	0.035408	0.682250
	N230	N	0.575229	0.962290	0.322639
	N231	N	0.401963	0.035609	0.322446
	N232	N	0.668191	0.412155	0.965355
	N233	N	0.667781	0.584394	0.039422
	N234	N	0.309726	0.583305	0.965799
	N235	N	0.308801	0.411559	0.039769
	N236	N	0.951507	0.674251	0.419298
	N237	N	0.027332	0.676851	0.588029
	N238	N	0.951103	0.322160	0.585938
	N239	N	0.027597	0.322437	0.418065
	N240	N	0.952323	0.412194	0.681766
	N241	N	0.026397	0.586073	0.683163
	N242	N	0.953260	0.585338	0.323254
	N243	N	0.026341	0.411862	0.322637
	N244	N	0.402765	0.677104	0.965471
	N245	N	0.575388	0.678572	0.038886
	N246	N	0.573657	0.319323	0.965030
	N247	N	0.402960	0.319018	0.040183
	N248	N	0.664981	0.960930	0.417336
	N249	N	0.665675	0.036624	0.586405
	N250	N	0.311454	0.961708	0.586701
	N251	N	0.313708	0.037330	0.418768
	N252	N	0.902392	0.461962	0.182259
	N253	N	0.076012	0.535417	0.182550
	N254	N	0.075408	0.461575	0.823071
	N255	N	0.901464	0.535619	0.822420
	N256	N	0.167866	0.913795	0.464211
	N257	N	0.168914	0.085928	0.538965
	N258	N	0.809516	0.084020	0.464552
	N259	N	0.808817	0.912637	0.538414
	N260	N	0.450473	0.173588	0.919982
	N261	N	0.526417	0.176803	0.088378
	N262	N	0.451208	0.822273	0.085707
	N263	N	0.526960	0.820474	0.916778
	N264	N	0.452320	0.912599	0.180926
	N265	N	0.525611	0.086254	0.183023
	N266	N	0.452631	0.084255	0.823641
	N267	N	0.525759	0.909865	0.820938
	N268	N	0.903639	0.177182	0.464517
	N269	N	0.075115	0.178981	0.538719
	N270	N	0.073822	0.820493	0.464594
	N271	N	0.901763	0.818724	0.539040
	N272	N	0.164522	0.459895	0.919065
	N273	N	0.166184	0.535820	0.087726
	N274	N	0.812424	0.460891	0.086565
	N275	N	0.812361	0.536817	0.918216
	O276	O	0.563445	0.552057	0.584788
	H277	H	0.571840	0.558401	0.590459
	H278	H	0.568926	0.555553	0.584860
	O279	O	0.586660	0.525888	0.523753
	H280	H	0.580618	0.538520	0.529059
	H281	H	0.591720	0.523117	0.514769
	O282	O	0.520685	0.486572	0.545459
	H283	H	0.533050	0.488430	0.537061
	H284	H	0.520556	0.481613	0.548622
	O285	O	0.068643	0.916928	0.951020
	H286	H	0.064489	0.917754	0.952212
	H287	H	0.070551	0.920563	0.957390
	O288	O	1.069097	0.980011	-0.095009
	H289	H	1.077844	0.976038	-0.095735
	H290	H	1.079097	0.967685	-0.104637
	O291	O	0.042480	-0.024463	0.942437
	H292	H	0.048699	-0.015392	0.952256
	H293	H	0.053385	-0.024289	0.940657
	O294	O	0.489274	0.525312	0.523738
	H295	H	0.492688	0.511666	0.529042
	H296	H	0.489610	0.523544	0.524710
	O297	O	0.462317	0.470107	0.478848
	H298	H	0.463846	0.479849	0.480018
	H299	H	0.466161	0.474530	0.474427
	O300	O	0.559490	0.465014	0.483183
	H301	H	0.560152	0.459898	0.479148
	H302	H	0.557191	0.473524	0.478717
	O303	O	0.477020	0.542342	0.473763
	H304	H	0.475133	0.556445	0.481363
	H305	H	0.473450	0.533997	0.481672
	O306	O	0.974255	0.005181	0.973757
	H307	H	0.977567	0.010886	0.974858
	H308	H	0.972998	0.002711	0.966261
	O309	O	0.554305	0.578524	0.540506
	H310	H	0.559096	0.592262	0.537034
	H311	H	0.557689	0.576149	0.549310
	O312	O	0.523356	0.550004	0.543437
	H313	H	0.528155	0.540635	0.540422
	H314	H	0.520370	0.548958	0.552975
	O315	O	1.033702	-0.046051	0.939989
	H316	H	1.039498	-0.054595	0.934304
	H317	H	1.024643	-0.046364	0.942781
	O318	O	0.037545	0.004431	-0.033258
	H319	H	0.031917	0.002955	-0.035783
	H320	H	0.045336	0.002685	-0.038449
	O321	O	0.540817	0.489721	0.478268
	H322	H	0.540746	0.494883	0.481325
	H323	H	0.536218	0.495891	0.484234
	O324	O	1.025410	0.013304	-0.035130
	H325	H	1.018737	0.028102	-0.041012
	H326	H	1.011593	0.016441	-0.038841
	O327	O	1.090641	0.954758	-0.042676
	H328	H	1.104005	0.954135	-0.042729
	H329	H	1.089863	0.951111	-0.042475
	O330	O	0.570732	0.548379	0.553034
	H331	H	0.579039	0.541365	0.550394
	H332	H	0.572518	0.542038	0.538465
	O333	O	0.534905	0.538313	0.562340
	H334	H	0.538907	0.534757	0.560122
	H335	H	0.537450	0.541369	0.559130
