data_Molecule from HDF5

_cell_length_a		16.340025
_cell_length_b		16.317080
_cell_length_c		16.329430
_cell_angle_alpha	90.067126
_cell_angle_beta	89.935234
_cell_angle_gamma	89.962862
_symmetry_space_group_name_H-M	'P 1'
_symmetry_Int_Tables_number		1

loop_
	_symmetry_equiv_pos_as_xyz
	x,y,z

loop_
	_atom_site_label
	_atom_site_type_symbol
	_atom_site_fract_x
	_atom_site_fract_y
	_atom_site_fract_z
	H0	H	0.402587	0.836509	0.713569
	H1	H	0.597738	0.163149	0.714052
	H2	H	0.598077	0.836788	0.285832
	H3	H	0.402685	0.163113	0.286181
	H4	H	0.713950	0.401409	0.836650
	H5	H	0.714016	0.598419	0.163851
	H6	H	0.285882	0.597704	0.836138
	H7	H	0.284578	0.401236	0.162769
	H8	H	0.836495	0.714350	0.402455
	H9	H	0.163881	0.714031	0.597758
	H10	H	0.835905	0.286937	0.596748
	H11	H	0.162943	0.285277	0.401418
	H12	H	0.836573	0.402471	0.714124
	H13	H	0.163088	0.597638	0.714355
	H14	H	0.836657	0.599439	0.285468
	H15	H	0.163350	0.403483	0.286553
	H16	H	0.404486	0.712291	0.835751
	H17	H	0.597873	0.714691	0.163226
	H18	H	0.597221	0.286174	0.836785
	H19	H	0.402674	0.286759	0.163832
	H20	H	0.715212	0.836816	0.400899
	H21	H	0.712478	0.163809	0.596656
	H22	H	0.285369	0.836809	0.597553
	H23	H	0.285892	0.163199	0.401411
	H24	H	0.902012	0.336160	0.214237
	H25	H	0.096629	0.664030	0.213621
	H26	H	0.098112	0.336409	0.786007
	H27	H	0.902236	0.663821	0.786956
	H28	H	0.214015	0.902296	0.336305
	H29	H	0.213892	0.097854	0.663647
	H30	H	0.785595	0.097748	0.336946
	H31	H	0.785347	0.902086	0.663119
	H32	H	0.336787	0.213920	0.902229
	H33	H	0.663129	0.214368	0.097888
	H34	H	0.336731	0.785857	0.097850
	H35	H	0.663591	0.785147	0.901702
	H36	H	0.336803	0.902744	0.213907
	H37	H	0.663005	0.099254	0.214860
	H38	H	0.337301	0.097986	0.785477
	H39	H	0.664261	0.903256	0.786633
	H40	H	0.902909	0.213245	0.336061
	H41	H	0.098401	0.215103	0.662907
	H42	H	0.097548	0.786139	0.336217
	H43	H	0.902386	0.786714	0.663215
	H44	H	0.213708	0.336376	0.902569
	H45	H	0.213839	0.663618	0.097821
	H46	H	0.785850	0.335955	0.097732
	H47	H	0.786139	0.663874	0.904366
	H48	H	0.406258	0.118297	0.599466
	H49	H	0.597844	0.883131	0.591170
	H50	H	0.588495	0.115193	0.404317
	H51	H	0.412516	0.886390	0.408769
	H52	H	0.586078	0.404914	0.114319
	H53	H	0.595045	0.594033	0.882927
	H54	H	0.408833	0.601118	0.117132
	H55	H	0.402503	0.406247	0.882507
	H56	H	0.117606	0.591436	0.398476
	H57	H	0.885804	0.587053	0.592635
	H58	H	0.114886	0.409749	0.593205
	H59	H	0.883171	0.407182	0.402294
	H60	H	0.117286	0.405887	0.596140
	H61	H	0.882034	0.595703	0.600682
	H62	H	0.117130	0.601366	0.407888
	H63	H	0.882639	0.402384	0.408070
	H64	H	0.397919	0.591416	0.117981
	H65	H	0.594508	0.590713	0.884757
	H66	H	0.597781	0.400460	0.120007
	H67	H	0.408591	0.410807	0.885900
	H68	H	0.593718	0.115048	0.412361
	H69	H	0.594081	0.882084	0.598136
	H70	H	0.411727	0.113934	0.591493
	H71	H	0.401988	0.883274	0.410318
	H72	H	0.902867	0.614958	0.087554
	H73	H	0.098653	0.385307	0.082530
	H74	H	0.088672	0.615338	0.906226
	H75	H	0.907631	0.384429	0.905603
	H76	H	0.102781	0.900734	0.620720
	H77	H	0.098078	0.081715	0.386384
	H78	H	0.903909	0.096708	0.617598
	H79	H	0.901115	0.901967	0.380936
	H80	H	0.618372	0.100283	0.905271
	H81	H	0.382645	0.095747	0.093187
	H82	H	0.617030	0.908392	0.100802
	H83	H	0.381903	0.908945	0.895908
	H84	H	0.617852	0.899047	0.090814
	H85	H	0.384702	0.092359	0.092297
	H86	H	0.614326	0.092091	0.912107
	H87	H	0.382065	0.896084	0.910153
	H88	H	0.904639	0.090985	0.616029
	H89	H	0.081709	0.096151	0.385886
	H90	H	0.094813	0.918068	0.612836
	H91	H	0.905117	0.913779	0.385250
	H92	H	0.095493	0.615424	0.910818
	H93	H	0.099215	0.379923	0.102359
	H94	H	0.904224	0.617560	0.098228
	H95	H	0.905901	0.384077	0.907506
	H96	H	0.401817	0.116204	0.590445
	H97	H	0.590613	0.885109	0.591430
	H98	H	0.597005	0.117906	0.404039
	H99	H	0.406667	0.881405	0.401089
	H100	H	0.596897	0.413486	0.115301
	H101	H	0.591338	0.593113	0.884235
	H102	H	0.411090	0.586938	0.112696
	H103	H	0.409731	0.403437	0.883627
	H104	H	0.113126	0.588951	0.411238
	H105	H	0.884153	0.598622	0.588558
	H106	H	0.115189	0.404822	0.591391
	H107	H	0.885310	0.409565	0.409030
	H108	H	0.912377	0.613788	0.092471
	H109	H	0.081772	0.387179	0.094033
	H110	H	0.095703	0.618088	0.903128
	H111	H	0.905289	0.382823	0.905617
	H112	H	0.082685	0.901586	0.614717
	H113	H	0.102159	0.101759	0.379186
	H114	H	0.908944	0.094488	0.615967
	H115	H	0.914140	0.903978	0.384389
	H116	H	0.616636	0.089729	0.901687
	H117	H	0.383636	0.092770	0.096114
	H118	H	0.613250	0.911586	0.088305
	H119	H	0.388669	0.914557	0.913433
	C120	C	0.378600	0.008349	0.621503
	C121	C	0.621872	0.991486	0.621437
	C122	C	0.621681	0.008389	0.378345
	C123	C	0.378965	0.991517	0.378569
	C124	C	0.621539	0.378038	0.008476
	C125	C	0.621501	0.621062	0.992030
	C126	C	0.378453	0.621291	0.007691
	C127	C	0.378521	0.378444	0.992100
	C128	C	0.007935	0.621865	0.378198
	C129	C	0.992086	0.621928	0.621882
	C130	C	0.007904	0.378531	0.621497
	C131	C	0.991595	0.378599	0.378476
	C132	C	0.878239	0.507451	0.121603
	C133	C	0.121311	0.492212	0.121284
	C134	C	0.121381	0.508116	0.878478
	C135	C	0.878219	0.491947	0.878781
	C136	C	0.121621	0.878477	0.507837
	C137	C	0.121775	0.121525	0.491782
	C138	C	0.878203	0.121757	0.508194
	C139	C	0.878704	0.878794	0.491718
	C140	C	0.508520	0.122175	0.878213
	C141	C	0.491711	0.121746	0.121998
	C142	C	0.508385	0.878615	0.121442
	C143	C	0.492142	0.878287	0.878178
	C144	C	0.381761	0.885208	0.676003
	C145	C	0.618784	0.114525	0.676368
	C146	C	0.618904	0.885386	0.323240
	C147	C	0.381740	0.114326	0.323583
	C148	C	0.675896	0.381099	0.885549
	C149	C	0.675977	0.618515	0.115051
	C150	C	0.323984	0.618474	0.884975
	C151	C	0.322650	0.380906	0.114266
	C152	C	0.885094	0.676569	0.381806
	C153	C	0.114939	0.676269	0.618505
	C154	C	0.884978	0.324119	0.618096
	C155	C	0.114184	0.323246	0.380633
	C156	C	0.885072	0.381777	0.676146
	C157	C	0.114861	0.618389	0.676382
	C158	C	0.885000	0.619130	0.324004
	C159	C	0.114477	0.381735	0.323618
	C160	C	0.382388	0.675693	0.884898
	C161	C	0.618463	0.676298	0.114867
	C162	C	0.618210	0.323673	0.885439
	C163	C	0.381440	0.324148	0.114860
	C164	C	0.676650	0.885380	0.380693
	C165	C	0.675404	0.114745	0.617834
	C166	C	0.323722	0.885512	0.618304
	C167	C	0.323861	0.114421	0.380919
	C168	C	0.880922	0.384711	0.176619
	C169	C	0.117820	0.615137	0.176116
	C170	C	0.118897	0.385353	0.823555
	C171	C	0.881269	0.615008	0.824385
	C172	C	0.176214	0.881672	0.385008
	C173	C	0.176012	0.118438	0.614722
	C174	C	0.823666	0.118468	0.385195
	C175	C	0.823476	0.881535	0.614314
	C176	C	0.385506	0.176278	0.881517
	C177	C	0.614533	0.176527	0.118774
	C178	C	0.385451	0.823929	0.118582
	C179	C	0.614921	0.823037	0.880899
	C180	C	0.385447	0.881581	0.176468
	C181	C	0.614505	0.119295	0.176791
	C182	C	0.385719	0.118529	0.823749
	C183	C	0.615288	0.881378	0.823639
	C184	C	0.881812	0.175904	0.385118
	C185	C	0.118545	0.176593	0.614529
	C186	C	0.118659	0.823723	0.385098
	C187	C	0.881792	0.824376	0.614633
	C188	C	0.176213	0.385068	0.881480
	C189	C	0.175845	0.614981	0.118470
	C190	C	0.823245	0.384811	0.118741
	C191	C	0.823498	0.614989	0.882417
	C192	C	0.400359	0.094040	0.600174
	C193	C	0.600458	0.905440	0.599995
	C194	C	0.599764	0.093964	0.400407
	C195	C	0.400683	0.905949	0.400514
	C196	C	0.599940	0.399791	0.094454
	C197	C	0.599921	0.599151	0.906127
	C198	C	0.399503	0.599477	0.093838
	C199	C	0.400591	0.400281	0.906144
	C200	C	0.093767	0.600305	0.399524
	C201	C	0.906166	0.600259	0.600334
	C202	C	0.093651	0.400215	0.599913
	C203	C	0.905921	0.400252	0.400240
	C204	C	0.900171	0.593369	0.099664
	C205	C	0.099544	0.406410	0.099247
	C206	C	0.099620	0.594078	0.900418
	C207	C	0.899746	0.406023	0.900089
	C208	C	0.099812	0.900313	0.593895
	C209	C	0.100239	0.099572	0.405891
	C210	C	0.899394	0.100292	0.594144
	C211	C	0.900378	0.900325	0.405640
	C212	C	0.594372	0.100593	0.899901
	C213	C	0.405903	0.100157	0.100129
	C214	C	0.593937	0.900097	0.099605
	C215	C	0.406575	0.900061	0.899921
	Zn216	Zn	0.500708	0.000010	0.750061
	Zn217	Zn	0.500271	-0.000155	0.250067
	Zn218	Zn	0.749476	0.499750	0.000468
	Zn219	Zn	0.249837	0.499901	-0.000508
	Zn220	Zn	0.000194	0.750291	0.499887
	Zn221	Zn	-0.000264	0.250042	0.500195
	Zn222	Zn	0.000087	0.499941	0.750465
	Zn223	Zn	-0.000625	0.500111	0.250053
	Zn224	Zn	0.500304	0.749544	0.000314
	Zn225	Zn	0.500235	0.249869	0.000437
	Zn226	Zn	0.749824	0.000057	0.499671
	Zn227	Zn	0.250174	-0.000057	0.499797
	N228	N	0.415359	0.962590	0.678048
	N229	N	0.585795	0.036886	0.678485
	N230	N	0.585175	0.962684	0.321788
	N231	N	0.415127	0.036995	0.321982
	N232	N	0.677937	0.414297	0.963039
	N233	N	0.677720	0.584754	0.037728
	N234	N	0.321651	0.585195	0.962342
	N235	N	0.320859	0.414047	0.036799
	N236	N	0.962455	0.678153	0.415186
	N237	N	0.037618	0.678478	0.585306
	N238	N	0.962251	0.322167	0.584821
	N239	N	0.036863	0.321299	0.414060
	N240	N	0.962540	0.414894	0.678361
	N241	N	0.037372	0.585333	0.678523
	N242	N	0.962334	0.585818	0.321608
	N243	N	0.037343	0.415674	0.322314
	N244	N	0.415477	0.677491	0.962357
	N245	N	0.585125	0.677758	0.037583
	N246	N	0.584871	0.321868	0.962843
	N247	N	0.415623	0.322745	0.037840
	N248	N	0.678641	0.962809	0.414203
	N249	N	0.677565	0.037341	0.584541
	N250	N	0.321848	0.962796	0.585035
	N251	N	0.321896	0.037096	0.414473
	N252	N	0.914447	0.462042	0.178193
	N253	N	0.084487	0.537766	0.177855
	N254	N	0.085745	0.462796	0.821626
	N255	N	0.914581	0.537519	0.822126
	N256	N	0.178272	0.914930	0.462536
	N257	N	0.178293	0.085030	0.537293
	N258	N	0.821327	0.085652	0.462745
	N259	N	0.821712	0.914864	0.536846
	N260	N	0.462830	0.178338	0.914899
	N261	N	0.537237	0.178222	0.085444
	N262	N	0.462813	0.821748	0.085259
	N263	N	0.537554	0.820928	0.914160
	N264	N	0.462697	0.915135	0.178048
	N265	N	0.537200	0.085815	0.178769
	N266	N	0.463191	0.085762	0.821459
	N267	N	0.538050	0.915061	0.821909
	N268	N	0.915104	0.177993	0.462453
	N269	N	0.085507	0.178484	0.537102
	N270	N	0.085459	0.821869	0.462432
	N271	N	0.915196	0.822336	0.537386
	N272	N	0.177765	0.462414	0.915014
	N273	N	0.178187	0.537536	0.085113
	N274	N	0.821384	0.462180	0.085445
	N275	N	0.821326	0.537592	0.915392
