data_Molecule from HDF5

_cell_length_a		16.574701
_cell_length_b		16.656770
_cell_length_c		16.575028
_cell_angle_alpha	90.064907
_cell_angle_beta	90.009277
_cell_angle_gamma	89.969593
_symmetry_space_group_name_H-M	'P 1'
_symmetry_Int_Tables_number		1

loop_
	_symmetry_equiv_pos_as_xyz
	x,y,z

loop_
	_atom_site_label
	_atom_site_type_symbol
	_atom_site_fract_x
	_atom_site_fract_y
	_atom_site_fract_z
	H0	H	0.397620	0.848267	0.701293
	H1	H	0.606575	0.159580	0.703273
	H2	H	0.604557	0.846928	0.261159
	H3	H	0.391612	0.158517	0.257409
	H4	H	0.719689	0.402069	0.825084
	H5	H	0.722327	0.609856	0.138221
	H6	H	0.276097	0.612675	0.828753
	H7	H	0.279728	0.399526	0.138653
	H8	H	0.846080	0.727577	0.374091
	H9	H	0.155847	0.726925	0.589367
	H10	H	0.845642	0.282615	0.586530
	H11	H	0.155731	0.278591	0.371272
	H12	H	0.845842	0.399112	0.701723
	H13	H	0.156063	0.610721	0.704807
	H14	H	0.845085	0.609588	0.260149
	H15	H	0.157099	0.397842	0.258730
	H16	H	0.395654	0.725034	0.826186
	H17	H	0.607575	0.726976	0.137904
	H18	H	0.607040	0.282696	0.826992
	H19	H	0.394770	0.282344	0.138396
	H20	H	0.721682	0.847037	0.376633
	H21	H	0.721683	0.160057	0.585575
	H22	H	0.279646	0.849547	0.586816
	H23	H	0.276762	0.159048	0.374584
	H24	H	0.897149	0.348566	0.201946
	H25	H	0.105151	0.659596	0.202685
	H26	H	0.108840	0.349750	0.758006
	H27	H	0.896745	0.658081	0.759472
	H28	H	0.225790	0.895686	0.327586
	H29	H	0.221067	0.109326	0.637708
	H30	H	0.780079	0.107970	0.323736
	H31	H	0.782098	0.901208	0.637916
	H32	H	0.345748	0.228092	0.874048
	H33	H	0.655921	0.228217	0.090436
	H34	H	0.345569	0.784214	0.083945
	H35	H	0.659389	0.786439	0.878517
	H36	H	0.343210	0.902143	0.199168
	H37	H	0.656173	0.111110	0.205234
	H38	H	0.345951	0.110736	0.759616
	H39	H	0.659481	0.903521	0.763556
	H40	H	0.895713	0.224642	0.324611
	H41	H	0.106206	0.226203	0.636688
	H42	H	0.110932	0.779578	0.327509
	H43	H	0.897368	0.784808	0.637878
	H44	H	0.226872	0.350781	0.873558
	H45	H	0.222727	0.658355	0.086959
	H46	H	0.782650	0.347484	0.083268
	H47	H	0.780236	0.658582	0.876351
	H48	H	0.408285	0.116406	0.566974
	H49	H	0.590211	0.893066	0.571826
	H50	H	0.591857	0.116085	0.389928
	H51	H	0.414815	0.894419	0.391025
	H52	H	0.600428	0.415006	0.096645
	H53	H	0.601157	0.595905	0.865328
	H54	H	0.408441	0.594520	0.096143
	H55	H	0.411645	0.414971	0.870405
	H56	H	0.114121	0.594959	0.392143
	H57	H	0.890607	0.589418	0.569874
	H58	H	0.111188	0.417776	0.566488
	H59	H	0.888158	0.413486	0.388571
	H60	H	0.114274	0.415252	0.571560
	H61	H	0.887371	0.595532	0.573599
	H62	H	0.111396	0.592402	0.396630
	H63	H	0.891073	0.412045	0.397126
	H64	H	0.415543	0.586236	0.091159
	H65	H	0.587793	0.586390	0.874006
	H66	H	0.587295	0.422786	0.092436
	H67	H	0.414387	0.418506	0.872517
	H68	H	0.586114	0.112867	0.392291
	H69	H	0.592246	0.892067	0.570974
	H70	H	0.411348	0.117579	0.575495
	H71	H	0.413049	0.894930	0.395976
	H72	H	0.915670	0.615390	0.072610
	H73	H	0.088732	0.393155	0.067899
	H74	H	0.090552	0.613910	0.897268
	H75	H	0.910445	0.391502	0.891758
	H76	H	0.085930	0.912470	0.593119
	H77	H	0.090768	0.085649	0.370920
	H78	H	0.913271	0.093621	0.592246
	H79	H	0.915202	0.918532	0.371414
	H80	H	0.614854	0.091439	0.885846
	H81	H	0.389911	0.092015	0.068029
	H82	H	0.612907	0.922416	0.076598
	H83	H	0.388522	0.912767	0.892294
	H84	H	0.617691	0.907163	0.074769
	H85	H	0.390498	0.092212	0.069805
	H86	H	0.614591	0.101521	0.896901
	H87	H	0.388267	0.914730	0.891962
	H88	H	0.910884	0.094805	0.592998
	H89	H	0.082424	0.093214	0.371682
	H90	H	0.092812	0.915058	0.594838
	H91	H	0.914444	0.908004	0.367657
	H92	H	0.088722	0.614911	0.891891
	H93	H	0.090676	0.391479	0.070789
	H94	H	0.910311	0.615220	0.066869
	H95	H	0.910052	0.390686	0.890058
	H96	H	0.417069	0.113951	0.568751
	H97	H	0.590969	0.891832	0.572975
	H98	H	0.591591	0.113822	0.396869
	H99	H	0.410465	0.892541	0.392775
	H100	H	0.586585	0.407753	0.095780
	H101	H	0.585348	0.604349	0.868593
	H102	H	0.420043	0.597174	0.092968
	H103	H	0.416923	0.414481	0.871190
	H104	H	0.112538	0.589417	0.391518
	H105	H	0.890032	0.596357	0.566298
	H106	H	0.113469	0.411768	0.566075
	H107	H	0.891413	0.419697	0.393108
	H108	H	0.908445	0.617866	0.074303
	H109	H	0.087369	0.393035	0.071540
	H110	H	0.084939	0.613455	0.895528
	H111	H	0.911509	0.390797	0.890347
	H112	H	0.088099	0.919234	0.590317
	H113	H	0.091949	0.095511	0.366439
	H114	H	0.910598	0.091975	0.592405
	H115	H	0.905258	0.915375	0.367039
	H116	H	0.608911	0.087538	0.899124
	H117	H	0.390153	0.093394	0.068941
	H118	H	0.611520	0.915347	0.062547
	H119	H	0.389064	0.913632	0.890483
	C120	C	0.380086	0.013126	0.602802
	C121	C	0.623033	0.995513	0.603550
	C122	C	0.621876	0.011489	0.360360
	C123	C	0.378890	0.996079	0.359903
	C124	C	0.622372	0.383531	-0.008857
	C125	C	0.623337	0.626948	0.972914
	C126	C	0.381232	0.625165	-0.009452
	C127	C	0.380300	0.383052	0.973977
	C128	C	0.009895	0.625325	0.360198
	C129	C	0.992126	0.626006	0.603131
	C130	C	0.010097	0.382963	0.600929
	C131	C	0.992904	0.382369	0.359826
	C132	C	0.879711	0.513001	0.103095
	C133	C	0.121671	0.495249	0.102957
	C134	C	0.122309	0.512058	0.860826
	C135	C	0.879464	0.494252	0.859426
	C136	C	0.122673	0.882444	0.490406
	C137	C	0.121271	0.124528	0.472777
	C138	C	0.879279	0.125267	0.489212
	C139	C	0.880667	0.883161	0.472754
	C140	C	0.509808	0.125807	0.861038
	C141	C	0.492736	0.125637	0.102987
	C142	C	0.509912	0.883812	0.101974
	C143	C	0.493075	0.883526	0.860787
	C144	C	0.378720	0.895553	0.661920
	C145	C	0.625135	0.112688	0.663357
	C146	C	0.623438	0.893930	0.300431
	C147	C	0.374579	0.112184	0.298112
	C148	C	0.680920	0.382391	0.872723
	C149	C	0.682730	0.628476	0.091056
	C150	C	0.318154	0.629521	0.874557
	C151	C	0.319824	0.381084	0.091591
	C152	C	0.892864	0.686556	0.356748
	C153	C	0.109287	0.686400	0.606785
	C154	C	0.892754	0.322748	0.604179
	C155	C	0.109534	0.320190	0.354959
	C156	C	0.892782	0.380745	0.661557
	C157	C	0.109380	0.628637	0.664126
	C158	C	0.892137	0.627804	0.300132
	C159	C	0.110415	0.379456	0.298920
	C160	C	0.377459	0.685521	0.873342
	C161	C	0.625605	0.686637	0.090820
	C162	C	0.624852	0.323179	0.873707
	C163	C	0.376916	0.322706	0.091550
	C164	C	0.681511	0.893868	0.358079
	C165	C	0.682182	0.112976	0.604653
	C166	C	0.320048	0.896071	0.604966
	C167	C	0.317351	0.112434	0.356562
	C168	C	0.878279	0.395298	0.162169
	C169	C	0.123796	0.612720	0.162613
	C170	C	0.126733	0.396166	0.798753
	C171	C	0.878060	0.611540	0.799807
	C172	C	0.185071	0.878326	0.374171
	C173	C	0.181229	0.127381	0.590606
	C174	C	0.819752	0.126586	0.370996
	C175	C	0.821894	0.882401	0.590995
	C176	C	0.392785	0.187232	0.856820
	C177	C	0.609324	0.187312	0.107754
	C178	C	0.391953	0.824257	0.102949
	C179	C	0.611935	0.825563	0.859520
	C180	C	0.390984	0.882829	0.159894
	C181	C	0.609271	0.129096	0.164945
	C182	C	0.392648	0.128792	0.799700
	C183	C	0.612014	0.883720	0.802438
	C184	C	0.877303	0.184550	0.371313
	C185	C	0.124037	0.185439	0.589932
	C186	C	0.127401	0.820639	0.374055
	C187	C	0.879160	0.824312	0.590743
	C188	C	0.185198	0.396710	0.856253
	C189	C	0.181949	0.612249	0.105081
	C190	C	0.821309	0.394897	0.103364
	C191	C	0.820258	0.611864	0.857847
	C192	C	0.405202	0.094742	0.577733
	C193	C	0.598237	0.913409	0.578817
	C194	C	0.597109	0.092876	0.385799
	C195	C	0.405207	0.914978	0.385861
	C196	C	0.598211	0.407980	0.073541
	C197	C	0.598621	0.602486	0.890632
	C198	C	0.407326	0.599876	0.072167
	C199	C	0.406764	0.408631	0.892535
	C200	C	0.091405	0.599532	0.385892
	C201	C	0.910534	0.600905	0.577427
	C202	C	0.091861	0.407980	0.575400
	C203	C	0.911338	0.407928	0.385629
	C204	C	0.904325	0.594931	0.078403
	C205	C	0.096182	0.413738	0.077450
	C206	C	0.095583	0.593123	0.887115
	C207	C	0.903661	0.412247	0.883605
	C208	C	0.096487	0.908308	0.571742
	C209	C	0.095835	0.098743	0.390999
	C210	C	0.904432	0.100702	0.571283
	C211	C	0.904832	0.906975	0.390128
	C212	C	0.591444	0.100618	0.886788
	C213	C	0.411299	0.100010	0.076404
	C214	C	0.592465	0.908061	0.078206
	C215	C	0.410331	0.906893	0.884764
	Zn216	Zn	0.501187	0.004434	0.731817
	Zn217	Zn	0.500706	0.004388	0.231510
	Zn218	Zn	0.750979	0.504481	-0.018083
	Zn219	Zn	0.251621	0.504569	-0.017927
	Zn220	Zn	0.001313	0.754111	0.481744
	Zn221	Zn	0.000901	0.253620	0.480069
	Zn222	Zn	0.001881	0.503571	0.730705
	Zn223	Zn	0.000959	0.503739	0.232071
	Zn224	Zn	0.501796	0.754426	-0.019117
	Zn225	Zn	0.501280	0.254475	-0.017209
	Zn226	Zn	0.751115	0.003473	0.480986
	Zn227	Zn	0.250394	0.004559	0.481913
	N228	N	0.415014	0.969501	0.660967
	N229	N	0.588935	0.038518	0.662601
	N230	N	0.586991	0.967970	0.301643
	N231	N	0.412052	0.038624	0.299997
	N232	N	0.679548	0.419361	0.946762
	N233	N	0.681793	0.592327	0.016583
	N234	N	0.320511	0.592296	0.948361
	N235	N	0.321460	0.417622	0.017352
	N236	N	0.967277	0.685554	0.393296
	N237	N	0.035329	0.685019	0.569455
	N238	N	0.966609	0.324058	0.566905
	N239	N	0.035609	0.322076	0.392201
	N240	N	0.966711	0.417593	0.659741
	N241	N	0.035456	0.591791	0.662077
	N242	N	0.965887	0.590500	0.302222
	N243	N	0.036903	0.417501	0.301629
	N244	N	0.416293	0.682801	0.946381
	N245	N	0.589371	0.685952	0.016361
	N246	N	0.589371	0.323585	0.948486
	N247	N	0.413722	0.323718	0.017272
	N248	N	0.680840	0.967960	0.394499
	N249	N	0.681087	0.038919	0.568224
	N250	N	0.320545	0.970235	0.568919
	N251	N	0.319691	0.039139	0.394278
	N252	N	0.913481	0.469951	0.162336
	N253	N	0.087197	0.538923	0.161460
	N254	N	0.088365	0.469158	0.801467
	N255	N	0.914192	0.537421	0.800560
	N256	N	0.182152	0.916224	0.447570
	N257	N	0.179800	0.090331	0.516581
	N258	N	0.820811	0.090275	0.445416
	N259	N	0.822446	0.918026	0.516536
	N260	N	0.466772	0.185923	0.894089
	N261	N	0.535644	0.185451	0.070118
	N262	N	0.467052	0.824540	0.067912
	N263	N	0.537084	0.825208	0.894998
	N264	N	0.465462	0.919006	0.159628
	N265	N	0.535598	0.091604	0.162306
	N266	N	0.466430	0.091395	0.801971
	N267	N	0.536904	0.918708	0.802526
	N268	N	0.913529	0.183849	0.445811
	N269	N	0.087547	0.183849	0.515665
	N270	N	0.089332	0.822965	0.447426
	N271	N	0.914881	0.824543	0.516048
	N272	N	0.182527	0.469962	0.894046
	N273	N	0.180983	0.538069	0.068894
	N274	N	0.821904	0.469127	0.067517
	N275	N	0.820854	0.537937	0.894187
	O276	O	-0.209977	1.154486	-0.042903
	H277	H	-0.219430	1.144300	-0.021368
	H278	H	-0.216006	1.153533	-0.053098
	O279	O	0.707770	0.298675	0.316773
	H280	H	0.707882	0.274011	0.301500
	H281	H	0.703022	0.297752	0.329311
	O282	O	1.062970	0.054297	0.763606
	H283	H	1.081403	0.048859	0.765956
	H284	H	1.059120	0.062479	0.756157
	O285	O	0.409811	0.561938	0.670458
	H286	H	0.404202	0.555652	0.662358
	H287	H	0.421344	0.556212	0.651831
	O288	O	0.604258	0.523159	0.520308
	H289	H	0.604076	0.520618	0.504882
	H290	H	0.616274	0.536620	0.523995
	O291	O	-0.029922	-0.215055	0.199869
	H292	H	-0.019845	-0.228878	0.227109
	H293	H	-0.007459	-0.190278	0.211719
	O294	O	1.184413	0.186119	0.796515
	H295	H	1.166748	0.175497	0.804085
	H296	H	1.182985	0.189872	0.789935
	O297	O	0.065243	0.796176	0.848754
	H298	H	0.046647	0.795632	0.848018
	H299	H	0.078042	0.787390	0.841231
	O300	O	-0.048614	0.052322	1.168243
	H301	H	-0.064479	0.037301	1.162163
	H302	H	-0.065265	0.064745	1.157222
	O303	O	0.672115	0.474270	0.266142
	H304	H	0.672421	0.459384	0.261240
	H305	H	0.677995	0.476086	0.252068
	O306	O	0.282168	0.283415	0.513293
	H307	H	0.274460	0.275966	0.514115
	H308	H	0.266980	0.283353	0.506210
	O309	O	0.548597	0.289003	0.404709
	H310	H	0.546190	0.277266	0.387348
	H311	H	0.539903	0.294045	0.424352
	O312	O	0.442528	0.596875	0.558448
	H313	H	0.447243	0.598984	0.577124
	H314	H	0.445652	0.605883	0.553673
	O315	O	1.199767	0.801121	0.975178
	H316	H	1.206271	0.815807	0.953995
	H317	H	1.204886	0.793015	0.955192
	O318	O	0.581109	0.706713	0.401526
	H319	H	0.577100	0.711672	0.385730
	H320	H	0.607285	0.712829	0.404403
	O321	O	-0.198123	1.043964	0.901788
	H322	H	-0.197442	1.054411	0.919132
	H323	H	-0.208144	1.051463	0.906360
	O324	O	0.778335	0.974503	0.201007
	H325	H	0.776384	0.945857	0.207529
	H326	H	0.762082	0.949059	0.219047
	O327	O	-0.202434	0.093333	0.775780
	H328	H	-0.198812	0.116386	0.783995
	H329	H	-0.222621	0.102438	0.772185
	O330	O	0.694874	0.577149	0.353282
	H331	H	0.690995	0.576268	0.347881
	H332	H	0.687930	0.568447	0.355206
	O333	O	0.510187	0.404354	0.463488
	H334	H	0.504768	0.403673	0.455941
	H335	H	0.515892	0.400589	0.451439
	O336	O	1.148206	0.196209	0.122394
	H337	H	1.138366	0.203330	0.108731
	H338	H	1.151753	0.186841	0.127412
	O339	O	0.718042	-0.410442	0.648797
	H340	H	0.718459	-0.419010	0.631759
	H341	H	0.729301	-0.419354	0.682952
	O342	O	-0.009547	0.196408	-0.184631
	H343	H	-0.019794	0.197565	-0.184089
	H344	H	-0.012981	0.209961	-0.194649
	O345	O	0.292578	0.712379	1.270709
	H346	H	0.261693	0.745235	1.237309
	H347	H	0.325031	0.712000	1.276579
	O348	O	0.230561	0.069278	-0.069212
	H349	H	0.235571	0.076684	-0.078336
	H350	H	0.225160	0.067563	-0.082425
	O351	O	0.290876	0.296320	0.687225
	H352	H	0.292177	0.311845	0.662213
	H353	H	0.289451	0.292813	0.696626
	O354	O	-0.211765	0.225434	1.200701
	H355	H	-0.197379	0.222710	1.203480
	H356	H	-0.209139	0.225272	1.196652
	O357	O	0.288915	0.395299	0.387544
	H358	H	0.293959	0.407464	0.368045
	H359	H	0.284254	0.402769	0.403446
	O360	O	0.356998	0.389062	0.335747
	H361	H	0.350256	0.398400	0.332379
	H362	H	0.362993	0.400521	0.352127
	O363	O	0.019435	0.177141	0.144364
	H364	H	0.030882	0.177518	0.129899
	H365	H	0.031108	0.183526	0.148857
	O366	O	0.623954	0.578731	0.458780
	H367	H	0.616290	0.557989	0.456919
	H368	H	0.639475	0.602384	0.464094
	O369	O	1.220830	0.223689	0.055650
	H370	H	1.243428	0.244009	0.042673
	H371	H	1.222342	0.232077	0.080037
	O372	O	0.978588	0.972209	0.017169
	H373	H	0.996061	0.982805	0.014708
	H374	H	0.957662	0.976168	0.007208
	O375	O	0.807978	-0.187834	0.175563
	H376	H	0.861409	-0.199101	0.184578
	H377	H	0.793544	-0.204408	0.146795
	O378	O	0.613785	0.631619	0.458470
	H379	H	0.622588	0.643339	0.473607
	H380	H	0.622846	0.628485	0.474047
	O381	O	-0.079832	1.216814	1.006644
	H382	H	-0.078967	1.216555	1.007623
	H383	H	-0.084764	1.207890	0.997461
	O384	O	1.223540	-0.028339	0.761200
	H385	H	1.248960	-0.036468	0.731437
	H386	H	1.221462	-0.061759	0.766315
	O387	O	0.826444	1.209926	-0.157002
	H388	H	0.823420	1.197085	-0.137954
	H389	H	0.801893	1.233228	-0.170965
	O390	O	0.438151	0.393549	0.610546
	H391	H	0.464193	0.388859	0.624489
	H392	H	0.442395	0.391022	0.599777
	O393	O	0.853899	0.850813	0.916411
	H394	H	0.868355	0.867054	0.939397
	H395	H	0.857950	0.853809	0.907204
	O396	O	0.212255	1.027474	1.200640
	H397	H	0.217270	1.044256	1.185563
	H398	H	0.237102	1.040456	1.214995
	O399	O	-0.060951	-0.047154	0.764386
	H400	H	-0.053266	-0.031594	0.768547
	H401	H	-0.071819	-0.027284	0.758440
	O402	O	0.573008	0.529760	0.692387
	H403	H	0.575990	0.530502	0.683750
	H404	H	0.569959	0.540262	0.698955
	O405	O	1.192021	-0.186278	1.169328
	H406	H	1.176852	-0.165831	1.149365
	H407	H	1.175922	-0.166455	1.150400
	O408	O	0.039578	-0.222172	0.036317
	H409	H	0.041728	-0.222148	0.050164
	H410	H	0.056838	-0.219055	0.045693
	O411	O	0.516434	0.339872	0.695729
	H412	H	0.498454	0.331264	0.701604
	H413	H	0.510723	0.336058	0.694774
	O414	O	0.537833	0.722531	0.698597
	H415	H	0.546703	0.743733	0.716952
	H416	H	0.551262	0.727258	0.690702
	O417	O	0.154569	0.832753	0.809194
	H418	H	0.157708	0.824928	0.802374
	H419	H	0.158440	0.811221	0.805112
	O420	O	-0.208661	1.062928	1.044003
	H421	H	-0.191478	1.070273	1.036886
	H422	H	-0.223109	1.053893	1.064883
	O423	O	0.038459	-0.210118	0.770363
	H424	H	0.020630	-0.204957	0.768829
	H425	H	0.020641	-0.214441	0.756192
	O426	O	0.710711	0.322952	0.462817
	H427	H	0.720611	0.301350	0.452658
	H428	H	0.709415	0.333768	0.453728
	O429	O	0.807691	0.806989	0.787579
	H430	H	0.823492	0.805906	0.810860
	H431	H	0.817852	0.840958	0.788780
	O432	O	0.322649	0.719430	0.479208
	H433	H	0.303759	0.737333	0.472637
	H434	H	0.338228	0.714919	0.455689
	O435	O	-0.215191	0.785423	0.012930
	H436	H	-0.208421	0.787973	0.005329
	H437	H	-0.237151	0.764260	0.012624
	O438	O	0.003390	-0.035065	-0.050064
	H439	H	0.001220	-0.039477	-0.055924
	H440	H	0.001010	-0.033267	-0.055102
	O441	O	0.216382	-0.038731	0.034759
	H442	H	0.223674	-0.024676	0.043125
	H443	H	0.205058	-0.035443	0.017369
	O444	O	0.500086	0.670549	0.418907
	H445	H	0.511931	0.682981	0.406467
	H446	H	0.494534	0.679307	0.425608
	O447	O	0.436312	1.289823	1.544623
	H448	H	0.424013	1.291242	1.548046
	H449	H	0.423221	1.271684	1.568152
	O450	O	0.029062	1.061730	1.025394
	H451	H	0.028410	1.065740	1.014890
	H452	H	0.026275	1.065536	1.011455
	O453	O	0.707743	0.708474	0.680939
	H454	H	0.709212	0.705690	0.699388
	H455	H	0.724057	0.693270	0.694315
	O456	O	0.100671	0.230800	0.939255
	H457	H	0.106223	0.234303	0.941645
	H458	H	0.108463	0.226463	0.934111
	O459	O	0.486375	0.505326	0.499772
	H460	H	0.482048	0.500182	0.505098
	H461	H	0.481752	0.497226	0.493170
	O462	O	0.701030	0.309321	0.678290
	H463	H	0.686869	0.309136	0.666895
	H464	H	0.690897	0.340466	0.660490
	O465	O	1.040864	-0.046433	0.213737
	H466	H	1.032875	-0.026163	0.211526
	H467	H	1.047977	-0.027601	0.215002
	O468	O	0.320962	0.528770	0.293931
	H469	H	0.309554	0.531894	0.276790
	H470	H	0.319505	0.555362	0.295253
	O471	O	0.700082	0.479167	0.531576
	H472	H	0.701972	0.489415	0.532022
	H473	H	0.701364	0.482614	0.520732
	O474	O	0.285330	0.593806	0.410710
	H475	H	0.269206	0.597875	0.399781
	H476	H	0.290257	0.609002	0.407513
	O477	O	0.253819	0.677993	1.669599
	H478	H	0.259380	0.669610	1.644702
	H479	H	0.243691	0.681665	1.662526
	O480	O	0.521682	0.530999	0.261051
	H481	H	0.517666	0.526365	0.274765
	H482	H	0.521686	0.542957	0.261345
	O483	O	0.281748	0.492399	0.646281
	H484	H	0.294134	0.505898	0.640927
	H485	H	0.261177	0.482886	0.671625
	O486	O	1.464644	-0.274169	1.259790
	H487	H	1.476460	-0.279288	1.254584
	H488	H	1.458808	-0.262039	1.242856
	O489	O	1.524115	0.353694	0.291223
	H490	H	1.522409	0.337132	0.278291
	H491	H	1.528475	0.375090	0.289178
