data_Molecule from HDF5

_cell_length_a		16.348737
_cell_length_b		16.256498
_cell_length_c		16.245250
_cell_angle_alpha	89.602457
_cell_angle_beta	90.465929
_cell_angle_gamma	89.964684
_symmetry_space_group_name_H-M	'P 1'
_symmetry_Int_Tables_number		1

loop_
	_symmetry_equiv_pos_as_xyz
	x,y,z

loop_
	_atom_site_label
	_atom_site_type_symbol
	_atom_site_fract_x
	_atom_site_fract_y
	_atom_site_fract_z
	H0	H	0.398213	0.837340	0.708900
	H1	H	0.597657	0.163730	0.706283
	H2	H	0.596005	0.836297	0.279437
	H3	H	0.395900	0.162623	0.272748
	H4	H	0.714532	0.402164	0.828615
	H5	H	0.715601	0.598606	0.156935
	H6	H	0.280557	0.603235	0.829989
	H7	H	0.284378	0.397709	0.155752
	H8	H	0.835026	0.717115	0.390499
	H9	H	0.160650	0.716518	0.594286
	H10	H	0.835268	0.282903	0.593902
	H11	H	0.160617	0.284739	0.395281
	H12	H	0.834700	0.401269	0.708324
	H13	H	0.161320	0.599028	0.708597
	H14	H	0.836156	0.601374	0.274367
	H15	H	0.161613	0.401420	0.280702
	H16	H	0.399664	0.715637	0.828409
	H17	H	0.599763	0.714743	0.156567
	H18	H	0.597586	0.286647	0.827973
	H19	H	0.402044	0.283538	0.155728
	H20	H	0.713148	0.837508	0.393021
	H21	H	0.713276	0.163200	0.592471
	H22	H	0.281821	0.837277	0.593817
	H23	H	0.279809	0.162085	0.388087
	H24	H	0.901606	0.337404	0.208086
	H25	H	0.098857	0.664867	0.206789
	H26	H	0.096868	0.336741	0.780988
	H27	H	0.899234	0.665242	0.777012
	H28	H	0.212633	0.900744	0.328819
	H29	H	0.217487	0.100699	0.654144
	H30	H	0.779486	0.102753	0.329230
	H31	H	0.783471	0.899480	0.656140
	H32	H	0.336200	0.217977	0.889302
	H33	H	0.662220	0.212531	0.091505
	H34	H	0.335745	0.782825	0.092198
	H35	H	0.661641	0.785344	0.895275
	H36	H	0.334954	0.899764	0.206204
	H37	H	0.659509	0.099577	0.210196
	H38	H	0.334659	0.100237	0.775006
	H39	H	0.661184	0.900700	0.777872
	H40	H	0.896628	0.217645	0.328709
	H41	H	0.097079	0.212404	0.657164
	H42	H	0.094411	0.787452	0.328530
	H43	H	0.900927	0.786021	0.656736
	H44	H	0.213181	0.337974	0.895395
	H45	H	0.215260	0.663975	0.092641
	H46	H	0.785499	0.337000	0.093262
	H47	H	0.782186	0.664422	0.891302
	H48	H	0.403367	0.116679	0.578561
	H49	H	0.590465	0.883308	0.588327
	H50	H	0.584231	0.113049	0.407643
	H51	H	0.404164	0.884572	0.404873
	H52	H	0.579560	0.402478	0.106169
	H53	H	0.598288	0.587147	0.877103
	H54	H	0.414965	0.595878	0.107176
	H55	H	0.412769	0.409867	0.877625
	H56	H	0.110691	0.590073	0.406268
	H57	H	0.882517	0.588953	0.588233
	H58	H	0.112235	0.402431	0.580789
	H59	H	0.883796	0.409076	0.405464
	H60	H	0.111431	0.414365	0.587058
	H61	H	0.880621	0.598148	0.585893
	H62	H	0.114591	0.592080	0.394943
	H63	H	0.884322	0.414041	0.397185
	H64	H	0.400568	0.595524	0.112695
	H65	H	0.582338	0.589471	0.880215
	H66	H	0.603187	0.395718	0.114307
	H67	H	0.401332	0.404002	0.873396
	H68	H	0.597183	0.119239	0.400910
	H69	H	0.589095	0.884734	0.584273
	H70	H	0.404913	0.117148	0.584921
	H71	H	0.400156	0.881713	0.398409
	H72	H	0.915384	0.613712	0.079543
	H73	H	0.091391	0.382275	0.098168
	H74	H	0.095979	0.620721	0.897289
	H75	H	0.910272	0.386940	0.901025
	H76	H	0.085309	0.906892	0.606806
	H77	H	0.094776	0.096958	0.372961
	H78	H	0.907376	0.080254	0.604072
	H79	H	0.908067	0.906110	0.376108
	H80	H	0.613487	0.098351	0.905226
	H81	H	0.380353	0.096133	0.084714
	H82	H	0.614721	0.905018	0.088798
	H83	H	0.385880	0.904436	0.911065
	H84	H	0.612727	0.907376	0.083230
	H85	H	0.383301	0.093965	0.077339
	H86	H	0.611309	0.086638	0.898828
	H87	H	0.384387	0.919954	0.895549
	H88	H	0.913956	0.100248	0.608597
	H89	H	0.087848	0.084170	0.378509
	H90	H	0.094531	0.904549	0.611176
	H91	H	0.898613	0.907217	0.373485
	H92	H	0.083752	0.616218	0.896787
	H93	H	0.084137	0.387963	0.081206
	H94	H	0.899298	0.617844	0.077860
	H95	H	0.903367	0.385512	0.905443
	H96	H	0.409433	0.114440	0.580988
	H97	H	0.592916	0.883421	0.584702
	H98	H	0.583869	0.116666	0.391842
	H99	H	0.408048	0.883872	0.396870
	H100	H	0.598082	0.419939	0.105792
	H101	H	0.591553	0.601680	0.873825
	H102	H	0.407388	0.582302	0.106331
	H103	H	0.401259	0.417122	0.877691
	H104	H	0.115123	0.601069	0.402929
	H105	H	0.884716	0.592531	0.578688
	H106	H	0.116209	0.403511	0.594263
	H107	H	0.880527	0.405447	0.397641
	H108	H	0.907273	0.619586	0.091808
	H109	H	0.102368	0.382622	0.082674
	H110	H	0.090702	0.615481	0.907466
	H111	H	0.903195	0.382786	0.897623
	H112	H	0.092004	0.914073	0.607601
	H113	H	0.080201	0.097489	0.377621
	H114	H	0.893992	0.094561	0.613154
	H115	H	0.904454	0.914403	0.378017
	H116	H	0.616649	0.097252	0.891834
	H117	H	0.383614	0.088053	0.083231
	H118	H	0.612685	0.911315	0.087442
	H119	H	0.378048	0.899131	0.890636
	C120	C	0.377169	0.008254	0.612016
	C121	C	0.619668	0.991651	0.614270
	C122	C	0.617692	0.008466	0.371367
	C123	C	0.374836	0.991094	0.369396
	C124	C	0.621719	0.378472	0.000221
	C125	C	0.620626	0.621718	0.985176
	C126	C	0.377503	0.621911	0.000830
	C127	C	0.377634	0.379628	0.984225
	C128	C	0.006174	0.623663	0.370781
	C129	C	0.989818	0.622241	0.614110
	C130	C	0.006091	0.377799	0.616081
	C131	C	0.990284	0.380096	0.372313
	C132	C	0.878456	0.509366	0.113352
	C133	C	0.121552	0.492239	0.115647
	C134	C	0.119317	0.509354	0.872435
	C135	C	0.876368	0.492760	0.870970
	C136	C	0.119209	0.879349	0.500757
	C137	C	0.118453	0.121364	0.484324
	C138	C	0.874995	0.122789	0.500941
	C139	C	0.875516	0.879228	0.484013
	C140	C	0.506524	0.123013	0.868977
	C141	C	0.489922	0.121581	0.112674
	C142	C	0.506235	0.877829	0.114795
	C143	C	0.490216	0.878971	0.870780
	C144	C	0.378750	0.885646	0.669600
	C145	C	0.617826	0.114562	0.669060
	C146	C	0.616103	0.885548	0.316575
	C147	C	0.376177	0.113857	0.311861
	C148	C	0.676425	0.381814	0.877527
	C149	C	0.677396	0.619363	0.107924
	C150	C	0.319758	0.622086	0.878488
	C151	C	0.322159	0.378566	0.106815
	C152	C	0.883812	0.679072	0.371134
	C153	C	0.112077	0.678159	0.613523
	C154	C	0.883698	0.321769	0.613861
	C155	C	0.112249	0.323196	0.375108
	C156	C	0.883491	0.380429	0.670949
	C157	C	0.112390	0.619795	0.670730
	C158	C	0.884563	0.621820	0.312952
	C159	C	0.112602	0.381409	0.318040
	C160	C	0.378917	0.678130	0.877748
	C161	C	0.619593	0.676928	0.107786
	C162	C	0.618421	0.324209	0.877099
	C163	C	0.380726	0.321627	0.106663
	C164	C	0.674413	0.885974	0.373106
	C165	C	0.675350	0.114351	0.612351
	C166	C	0.320676	0.885722	0.612368
	C167	C	0.318222	0.113656	0.368858
	C168	C	0.881092	0.386167	0.170047
	C169	C	0.119308	0.615663	0.169893
	C170	C	0.117327	0.386090	0.818045
	C171	C	0.878348	0.615952	0.814418
	C172	C	0.174401	0.880910	0.377769
	C173	C	0.177338	0.119944	0.606160
	C174	C	0.818216	0.122224	0.377986
	C175	C	0.820968	0.880123	0.607162
	C176	C	0.384375	0.179532	0.869524
	C177	C	0.612664	0.176006	0.111870
	C178	C	0.384104	0.821241	0.112233
	C179	C	0.612966	0.823409	0.874062
	C180	C	0.383504	0.879683	0.168650
	C181	C	0.611563	0.119507	0.170756
	C182	C	0.383974	0.121093	0.812555
	C183	C	0.612620	0.880742	0.815819
	C184	C	0.876313	0.179657	0.377864
	C185	C	0.117713	0.175723	0.607646
	C186	C	0.115815	0.824690	0.377396
	C187	C	0.879195	0.823351	0.607426
	C188	C	0.175233	0.386778	0.875040
	C189	C	0.177048	0.615270	0.112858
	C190	C	0.823108	0.385979	0.113046
	C191	C	0.820287	0.615783	0.871199
	C192	C	0.399574	0.093716	0.588264
	C193	C	0.597402	0.905990	0.592125
	C194	C	0.594919	0.094134	0.393567
	C195	C	0.397537	0.905551	0.392981
	C196	C	0.600021	0.399819	0.086456
	C197	C	0.597383	0.599176	0.899184
	C198	C	0.400746	0.597991	0.086623
	C199	C	0.398893	0.403419	0.898377
	C200	C	0.091423	0.601102	0.394669
	C201	C	0.904657	0.599804	0.590971
	C202	C	0.091162	0.400103	0.593835
	C203	C	0.904919	0.402770	0.393794
	C204	C	0.900628	0.594816	0.089858
	C205	C	0.099232	0.406508	0.093729
	C206	C	0.096808	0.595284	0.894241
	C207	C	0.898945	0.407323	0.894388
	C208	C	0.097154	0.901927	0.586458
	C209	C	0.094567	0.099267	0.398656
	C210	C	0.898253	0.098801	0.586641
	C211	C	0.897249	0.902586	0.398138
	C212	C	0.591701	0.100621	0.892045
	C213	C	0.404527	0.099176	0.088803
	C214	C	0.591299	0.900946	0.093024
	C215	C	0.405100	0.901309	0.892609
	Zn216	Zn	0.498384	0.000389	0.741154
	Zn217	Zn	0.496935	-0.000303	0.242260
	Zn218	Zn	0.749483	0.500759	-0.007124
	Zn219	Zn	0.248458	0.500752	-0.006517
	Zn220	Zn	-0.002230	0.751566	0.492594
	Zn221	Zn	-0.002360	0.250328	0.493001
	Zn222	Zn	-0.001785	0.500833	0.743531
	Zn223	Zn	-0.000547	0.501626	0.242577
	Zn224	Zn	0.498800	0.750375	-0.007084
	Zn225	Zn	0.499210	0.250462	-0.008674
	Zn226	Zn	0.746927	0.000222	0.492483
	Zn227	Zn	0.247479	0.000223	0.491472
	N228	N	0.413067	0.962820	0.669517
	N229	N	0.583851	0.037129	0.670533
	N230	N	0.581531	0.962775	0.315565
	N231	N	0.410667	0.036703	0.312202
	N232	N	0.678518	0.414527	0.955325
	N233	N	0.677960	0.585759	0.030434
	N234	N	0.318687	0.587862	0.956337
	N235	N	0.320311	0.414027	0.029808
	N236	N	0.960551	0.680149	0.406521
	N237	N	0.034914	0.679774	0.579164
	N238	N	0.960811	0.319744	0.580617
	N239	N	0.034977	0.322324	0.408430
	N240	N	0.960537	0.414418	0.672557
	N241	N	0.035414	0.585724	0.671204
	N242	N	0.961716	0.588012	0.312736
	N243	N	0.035877	0.416022	0.316106
	N244	N	0.414266	0.677864	0.954757
	N245	N	0.584977	0.678468	0.030294
	N246	N	0.584897	0.322270	0.954542
	N247	N	0.414648	0.322192	0.029341
	N248	N	0.675468	0.963460	0.406676
	N249	N	0.676724	0.036913	0.579044
	N250	N	0.319387	0.963126	0.577461
	N251	N	0.317268	0.036378	0.403874
	N252	N	0.914737	0.463739	0.170514
	N253	N	0.085597	0.538103	0.171877
	N254	N	0.083107	0.463363	0.816367
	N255	N	0.912355	0.538411	0.813982
	N256	N	0.176490	0.914192	0.455432
	N257	N	0.177992	0.087165	0.528248
	N258	N	0.817399	0.087621	0.455532
	N259	N	0.818480	0.914081	0.529321
	N260	N	0.461559	0.181020	0.903774
	N261	N	0.535863	0.177277	0.076366
	N262	N	0.461488	0.819872	0.079543
	N263	N	0.535950	0.822010	0.907472
	N264	N	0.460365	0.913928	0.170629
	N265	N	0.534182	0.086498	0.171380
	N266	N	0.460946	0.086747	0.811932
	N267	N	0.535387	0.914551	0.813640
	N268	N	0.910998	0.180087	0.455352
	N269	N	0.081751	0.176586	0.530851
	N270	N	0.082301	0.823438	0.454842
	N271	N	0.912376	0.822635	0.529854
	N272	N	0.176435	0.464464	0.908182
	N273	N	0.178699	0.537601	0.080072
	N274	N	0.821409	0.463431	0.078538
	N275	N	0.818937	0.538372	0.905799
	O276	O	0.030433	0.029370	-0.081331
	H277	H	0.032123	0.029081	-0.073133
	H278	H	0.034345	0.033606	-0.081640
	O279	O	0.938446	0.097474	0.981559
	H280	H	0.943363	0.099156	0.978878
	H281	H	0.930219	0.099658	0.989214
	O282	O	0.392641	0.582294	0.384639
	H283	H	0.367436	0.587429	0.388642
	H284	H	0.393382	0.580829	0.373845
	O285	O	-0.041042	1.000070	1.000135
	H286	H	-0.043818	0.993368	1.004629
	H287	H	-0.050568	0.997778	0.998945
	O288	O	0.488492	0.482503	0.564642
	H289	H	0.484565	0.490491	0.577950
	H290	H	0.483307	0.463770	0.564646
	O291	O	0.438997	0.502857	1.455094
	H292	H	0.442524	0.502901	1.466577
	H293	H	0.447068	0.488565	1.452371
	O294	O	0.920052	0.978904	1.055596
	H295	H	0.927459	0.981376	1.056541
	H296	H	0.911005	0.973776	1.049944
	O297	O	0.986829	0.021755	0.976598
	H298	H	0.985264	0.034730	0.981847
	H299	H	0.979710	0.019326	0.982700
	O300	O	0.577704	0.474345	0.407536
	H301	H	0.573066	0.472075	0.393850
	H302	H	0.583855	0.480870	0.405144
	O303	O	0.957500	-0.000405	-0.034953
	H304	H	0.944470	-0.001824	-0.032619
	H305	H	0.960588	0.002428	-0.041381
	O306	O	-0.395740	1.479761	0.505641
	H307	H	-0.393186	1.484002	0.504145
	H308	H	-0.395791	1.485523	0.502233
	O309	O	0.535975	0.561513	0.485740
	H310	H	0.537659	0.563915	0.481124
	H311	H	0.527683	0.565119	0.483107
	O312	O	1.527930	0.562351	1.350093
	H313	H	1.526710	0.574070	1.350973
	H314	H	1.517899	0.575309	1.357254
	O315	O	0.399629	0.497068	0.532513
	H316	H	0.400967	0.499088	0.537650
	H317	H	0.405299	0.502844	0.539537
	O318	O	0.556570	0.561699	0.491572
	H319	H	0.550055	0.564846	0.490150
	H320	H	0.554068	0.554300	0.496057
	O321	O	0.949684	1.008530	0.926397
	H322	H	0.945632	1.018407	0.931498
	H323	H	0.949535	1.002688	0.934125
	O324	O	0.449154	0.439221	0.545386
	H325	H	0.452747	0.443458	0.539085
	H326	H	0.456639	0.435022	0.555100
	O327	O	0.462728	0.435909	0.561416
	H328	H	0.457295	0.440349	0.550853
	H329	H	0.472702	0.430304	0.563214
	O330	O	0.986931	0.058107	0.894520
	H331	H	0.980035	0.066154	0.895384
	H332	H	0.986010	0.063519	0.889719
	O333	O	1.018575	0.956300	-0.032195
	H334	H	1.025440	0.959450	-0.043760
	H335	H	1.012719	0.955518	-0.042884
	O336	O	0.519704	0.471629	0.594548
	H337	H	0.521050	0.464609	0.592082
	H338	H	0.521600	0.476247	0.597405
	O339	O	0.524600	0.404289	0.588703
	H340	H	0.533733	0.417090	0.590140
	H341	H	0.530088	0.398922	0.581946
	O342	O	0.006476	1.099727	-0.029451
	H343	H	0.017084	1.100777	-0.024059
	H344	H	0.008133	1.107959	-0.043333
	O345	O	-0.030108	-0.008202	0.091425
	H346	H	-0.017829	-0.009375	0.091987
	H347	H	-0.032046	-0.007371	0.094507
	O348	O	0.431275	0.460716	0.420521
	H349	H	0.427803	0.449981	0.427876
	H350	H	0.429363	0.453107	0.426962
	O351	O	0.504470	0.499491	0.358581
	H352	H	0.499193	0.510259	0.356147
	H353	H	0.510416	0.502752	0.347228
	O354	O	0.399283	0.561404	0.457426
	H355	H	0.409183	0.559530	0.461691
	H356	H	0.398267	0.555570	0.449705
	O357	O	0.484790	0.489020	0.492412
	H358	H	0.480837	0.492419	0.494757
	H359	H	0.500452	0.487463	0.493199
	O360	O	0.091783	0.047043	-0.011058
	H361	H	0.097802	0.049434	-0.016290
	H362	H	0.083511	0.046738	-0.017354
	O363	O	0.533725	0.471397	0.532127
	H364	H	0.537730	0.471678	0.524674
	H365	H	0.529538	0.467639	0.531864
	O366	O	0.090181	0.054851	1.001669
	H367	H	0.104632	0.064939	1.003491
	H368	H	0.093685	0.048354	0.998750
	O369	O	0.514086	0.468274	0.543096
	H370	H	0.515100	0.474325	0.540167
	H371	H	0.505308	0.470823	0.542327
