data_Molecule from HDF5

_cell_length_a		16.297680
_cell_length_b		16.355765
_cell_length_c		16.250317
_cell_angle_alpha	89.962462
_cell_angle_beta	89.903321
_cell_angle_gamma	89.964737
_symmetry_space_group_name_H-M	'P 1'
_symmetry_Int_Tables_number		1

loop_
	_symmetry_equiv_pos_as_xyz
	x,y,z

loop_
	_atom_site_label
	_atom_site_type_symbol
	_atom_site_fract_x
	_atom_site_fract_y
	_atom_site_fract_z
	H0	H	0.395188	0.838923	0.719292
	H1	H	0.593612	0.165517	0.716877
	H2	H	0.595020	0.839109	0.287704
	H3	H	0.396409	0.164846	0.287544
	H4	H	0.710414	0.402239	0.839270
	H5	H	0.709087	0.599395	0.167185
	H6	H	0.280812	0.599102	0.838796
	H7	H	0.280979	0.401686	0.167264
	H8	H	0.831257	0.717225	0.403585
	H9	H	0.156972	0.718791	0.604444
	H10	H	0.831802	0.286389	0.602874
	H11	H	0.157167	0.285201	0.403521
	H12	H	0.830486	0.404449	0.716357
	H13	H	0.158493	0.599645	0.718706
	H14	H	0.831059	0.599000	0.288881
	H15	H	0.157597	0.401301	0.288268
	H16	H	0.394992	0.717521	0.839276
	H17	H	0.595360	0.717090	0.166681
	H18	H	0.595300	0.285872	0.839453
	H19	H	0.395471	0.285145	0.166154
	H20	H	0.710524	0.838980	0.403690
	H21	H	0.710341	0.164826	0.600707
	H22	H	0.278066	0.839126	0.603338
	H23	H	0.279308	0.164220	0.402486
	H24	H	0.896308	0.337482	0.218381
	H25	H	0.092637	0.663983	0.218656
	H26	H	0.093953	0.337886	0.788003
	H27	H	0.894884	0.663496	0.788219
	H28	H	0.209662	0.902539	0.337718
	H29	H	0.209925	0.100436	0.665607
	H30	H	0.782647	0.098878	0.338515
	H31	H	0.779530	0.903631	0.666443
	H32	H	0.331575	0.216809	0.903469
	H33	H	0.658185	0.216703	0.102019
	H34	H	0.332232	0.785498	0.104184
	H35	H	0.658938	0.785440	0.902632
	H36	H	0.331884	0.903822	0.218130
	H37	H	0.659462	0.098821	0.215567
	H38	H	0.331454	0.100426	0.787745
	H39	H	0.659637	0.903481	0.787733
	H40	H	0.895486	0.216386	0.339177
	H41	H	0.094391	0.216188	0.665986
	H42	H	0.094670	0.785017	0.338444
	H43	H	0.894283	0.786304	0.666690
	H44	H	0.209111	0.336914	0.906354
	H45	H	0.211051	0.662850	0.104470
	H46	H	0.779965	0.337184	0.101848
	H47	H	0.779012	0.663068	0.904230
	H48	H	0.397004	0.118642	0.596657
	H49	H	0.590674	0.885633	0.595607
	H50	H	0.598866	0.121816	0.405057
	H51	H	0.401129	0.887030	0.413502
	H52	H	0.580601	0.411721	0.116275
	H53	H	0.592959	0.595429	0.884971
	H54	H	0.396589	0.599177	0.122469
	H55	H	0.396366	0.411240	0.886354
	H56	H	0.107679	0.592814	0.418624
	H57	H	0.873268	0.610828	0.597735
	H58	H	0.111248	0.402174	0.591859
	H59	H	0.880104	0.402420	0.421325
	H60	H	0.108495	0.414158	0.592684
	H61	H	0.885158	0.589191	0.581528
	H62	H	0.109075	0.587432	0.407955
	H63	H	0.880829	0.419248	0.410582
	H64	H	0.401722	0.584853	0.117328
	H65	H	0.586352	0.586797	0.889221
	H66	H	0.586133	0.399618	0.121648
	H67	H	0.408038	0.412823	0.889441
	H68	H	0.581198	0.117854	0.401651
	H69	H	0.586006	0.886221	0.597404
	H70	H	0.406942	0.116215	0.598286
	H71	H	0.402035	0.885617	0.407976
	H72	H	0.904028	0.617761	0.103927
	H73	H	0.097077	0.383627	0.093530
	H74	H	0.077276	0.613393	0.910950
	H75	H	0.895766	0.383412	0.914197
	H76	H	0.080157	0.918038	0.613088
	H77	H	0.091238	0.089136	0.385985
	H78	H	0.906013	0.096754	0.619264
	H79	H	0.903784	0.907158	0.386392
	H80	H	0.612106	0.100990	0.911798
	H81	H	0.378971	0.095313	0.094546
	H82	H	0.607732	0.915720	0.089647
	H83	H	0.380656	0.913685	0.908152
	H84	H	0.613976	0.909966	0.104282
	H85	H	0.380061	0.093082	0.094550
	H86	H	0.608616	0.090109	0.914396
	H87	H	0.378272	0.903784	0.909563
	H88	H	0.897624	0.096623	0.621752
	H89	H	0.080627	0.093217	0.388211
	H90	H	0.081552	0.900027	0.618330
	H91	H	0.902141	0.907905	0.386480
	H92	H	0.091881	0.614155	0.921283
	H93	H	0.086570	0.382939	0.105952
	H94	H	0.907030	0.612548	0.091264
	H95	H	0.900190	0.382427	0.903192
	H96	H	0.403054	0.115116	0.588963
	H97	H	0.587053	0.887892	0.591976
	H98	H	0.588162	0.114648	0.418275
	H99	H	0.406636	0.887794	0.410810
	H100	H	0.594310	0.411454	0.120781
	H101	H	0.581783	0.597510	0.888035
	H102	H	0.411441	0.597410	0.117159
	H103	H	0.403968	0.402384	0.885271
	H104	H	0.112362	0.598377	0.408944
	H105	H	0.878009	0.584229	0.609167
	H106	H	0.112966	0.408127	0.602998
	H107	H	0.873541	0.402095	0.402366
	H108	H	0.894652	0.617402	0.094301
	H109	H	0.082297	0.387872	0.091180
	H110	H	0.092482	0.619269	0.903754
	H111	H	0.907401	0.387472	0.911915
	H112	H	0.096877	0.910977	0.620038
	H113	H	0.089194	0.099811	0.383740
	H114	H	0.901619	0.089444	0.618247
	H115	H	0.903663	0.909382	0.387115
	H116	H	0.612943	0.093384	0.903368
	H117	H	0.379134	0.093935	0.096367
	H118	H	0.612358	0.899273	0.091023
	H119	H	0.382082	0.909626	0.917421
	C120	C	0.373018	0.009541	0.624515
	C121	C	0.616580	0.994241	0.623700
	C122	C	0.617841	0.010181	0.380348
	C123	C	0.373994	0.993848	0.381125
	C124	C	0.616276	0.379356	0.011308
	C125	C	0.616083	0.622090	0.995470
	C126	C	0.373633	0.623158	0.011251
	C127	C	0.373733	0.379706	0.994882
	C128	C	0.002418	0.622222	0.382364
	C129	C	0.986461	0.623691	0.625561
	C130	C	0.002895	0.379644	0.624702
	C131	C	0.985915	0.379000	0.382115
	C132	C	0.873100	0.508400	0.124891
	C133	C	0.117152	0.492408	0.125859
	C134	C	0.116351	0.508395	0.882524
	C135	C	0.872876	0.492303	0.881608
	C136	C	0.116260	0.879894	0.509544
	C137	C	0.116344	0.123015	0.494075
	C138	C	0.873174	0.123219	0.511345
	C139	C	0.873459	0.879712	0.494760
	C140	C	0.503077	0.123432	0.880912
	C141	C	0.487183	0.122658	0.123807
	C142	C	0.503875	0.879442	0.124927
	C143	C	0.487974	0.880195	0.881860
	C144	C	0.374568	0.887442	0.680938
	C145	C	0.614058	0.116595	0.678992
	C146	C	0.615096	0.887435	0.325831
	C147	C	0.376218	0.116215	0.325417
	C148	C	0.672144	0.381956	0.888126
	C149	C	0.671419	0.619906	0.118415
	C150	C	0.318236	0.620354	0.887919
	C151	C	0.318948	0.381924	0.118442
	C152	C	0.879898	0.678439	0.383935
	C153	C	0.108998	0.679574	0.624228
	C154	C	0.880367	0.324387	0.622874
	C155	C	0.108616	0.323613	0.383617
	C156	C	0.879669	0.383390	0.679079
	C157	C	0.109385	0.620916	0.681316
	C158	C	0.879789	0.620081	0.326793
	C159	C	0.108686	0.381323	0.326257
	C160	C	0.375077	0.679006	0.887964
	C161	C	0.615116	0.678775	0.117798
	C162	C	0.615213	0.323910	0.888165
	C163	C	0.375641	0.323646	0.117757
	C164	C	0.672803	0.887613	0.383207
	C165	C	0.671944	0.116489	0.621172
	C166	C	0.316524	0.887608	0.623137
	C167	C	0.317803	0.116001	0.382534
	C168	C	0.875677	0.385713	0.180055
	C169	C	0.113602	0.615165	0.180879
	C170	C	0.114240	0.386240	0.826462
	C171	C	0.874744	0.614665	0.826067
	C172	C	0.171937	0.881807	0.386777
	C173	C	0.172189	0.120857	0.616752
	C174	C	0.819476	0.120116	0.387534
	C175	C	0.817530	0.882798	0.617620
	C176	C	0.380297	0.178746	0.883224
	C177	C	0.609905	0.177808	0.121434
	C178	C	0.381078	0.823628	0.123767
	C179	C	0.610306	0.823836	0.882458
	C180	C	0.380657	0.882461	0.180436
	C181	C	0.610441	0.119375	0.178215
	C182	C	0.380289	0.121128	0.825528
	C183	C	0.610833	0.882772	0.825732
	C184	C	0.875912	0.178393	0.388147
	C185	C	0.114371	0.178033	0.617219
	C186	C	0.114872	0.823437	0.387075
	C187	C	0.874687	0.824611	0.617793
	C188	C	0.171950	0.385984	0.884702
	C189	C	0.172492	0.614699	0.124214
	C190	C	0.817726	0.385879	0.122526
	C191	C	0.816925	0.614587	0.883619
	C192	C	0.395788	0.094627	0.601387
	C193	C	0.594411	0.908722	0.601565
	C194	C	0.595920	0.095907	0.402060
	C195	C	0.396630	0.908723	0.404058
	C196	C	0.593540	0.401275	0.097289
	C197	C	0.593351	0.599690	0.909705
	C198	C	0.396548	0.600599	0.096755
	C199	C	0.396166	0.402241	0.909300
	C200	C	0.087628	0.599563	0.405166
	C201	C	0.901068	0.601399	0.602830
	C202	C	0.088889	0.401641	0.602324
	C203	C	0.900325	0.401403	0.404717
	C204	C	0.895326	0.593857	0.102833
	C205	C	0.095106	0.406918	0.103589
	C206	C	0.093801	0.593450	0.905235
	C207	C	0.894684	0.406516	0.903444
	C208	C	0.092963	0.902890	0.595104
	C209	C	0.093678	0.100715	0.408233
	C210	C	0.895248	0.100904	0.597628
	C211	C	0.896538	0.901691	0.408781
	C212	C	0.589145	0.101157	0.903132
	C213	C	0.401316	0.100655	0.101572
	C214	C	0.589181	0.901640	0.101898
	C215	C	0.402528	0.902600	0.904909
	Zn216	Zn	0.495422	0.001795	0.752710
	Zn217	Zn	0.495831	0.001942	0.252338
	Zn218	Zn	0.744327	0.500611	0.003630
	Zn219	Zn	0.245759	0.501008	0.003818
	Zn220	Zn	-0.004930	0.751582	0.503053
	Zn221	Zn	-0.005333	0.251136	0.503176
	Zn222	Zn	-0.005094	0.500974	0.753423
	Zn223	Zn	-0.005895	0.500436	0.253665
	Zn224	Zn	0.495425	0.751238	0.003012
	Zn225	Zn	0.495048	0.251436	0.002540
	Zn226	Zn	0.745566	0.001869	0.502120
	Zn227	Zn	0.244910	0.001705	0.501935
	N228	N	0.408943	0.964180	0.681938
	N229	N	0.580119	0.039481	0.680406
	N230	N	0.581594	0.964632	0.323905
	N231	N	0.410685	0.039392	0.324745
	N232	N	0.672837	0.415632	0.965644
	N233	N	0.672341	0.585562	0.041275
	N234	N	0.317016	0.586552	0.965482
	N235	N	0.317855	0.416145	0.041152
	N236	N	0.957190	0.679795	0.417862
	N237	N	0.031618	0.681711	0.590572
	N238	N	0.958037	0.322207	0.589744
	N239	N	0.031522	0.322383	0.417669
	N240	N	0.956939	0.417241	0.680276
	N241	N	0.032232	0.586894	0.682120
	N242	N	0.956817	0.585733	0.325682
	N243	N	0.031157	0.415227	0.325076
	N244	N	0.408718	0.680948	0.965596
	N245	N	0.581318	0.680158	0.040259
	N246	N	0.581079	0.322218	0.965770
	N247	N	0.409040	0.322089	0.040009
	N248	N	0.674499	0.964930	0.416361
	N249	N	0.673420	0.039426	0.587317
	N250	N	0.315494	0.964672	0.588790
	N251	N	0.316409	0.038976	0.416453
	N252	N	0.909209	0.462803	0.181838
	N253	N	0.080013	0.537956	0.182206
	N254	N	0.080445	0.463314	0.825115
	N255	N	0.908661	0.537678	0.824543
	N256	N	0.172691	0.916286	0.463954
	N257	N	0.173532	0.087256	0.539146
	N258	N	0.817737	0.086373	0.465039
	N259	N	0.816920	0.916455	0.540049
	N260	N	0.457785	0.180290	0.916753
	N261	N	0.532248	0.180008	0.088364
	N262	N	0.458685	0.821643	0.089957
	N263	N	0.533121	0.822344	0.916781
	N264	N	0.457803	0.916359	0.181419
	N265	N	0.533125	0.085511	0.179346
	N266	N	0.457594	0.087272	0.824318
	N267	N	0.533622	0.916968	0.825014
	N268	N	0.908374	0.180544	0.466332
	N269	N	0.080289	0.179371	0.539979
	N270	N	0.080972	0.822097	0.464758
	N271	N	0.908840	0.822588	0.540336
	N272	N	0.173560	0.463014	0.918766
	N273	N	0.174850	0.537490	0.090902
	N274	N	0.816233	0.463089	0.088904
	N275	N	0.815639	0.537393	0.917275
	O276	O	0.463440	0.516316	0.511727
	H277	H	0.468147	0.523220	0.508008
	H278	H	0.461085	0.508012	0.506383
	O279	O	0.525022	0.613908	0.565362
	H280	H	0.520973	0.609072	0.572589
	H281	H	0.524036	0.624849	0.561692
	O282	O	0.451279	0.537109	0.471856
	H283	H	0.452256	0.550822	0.472166
	H284	H	0.451639	0.537518	0.474023
	O285	O	0.049228	0.920259	0.939967
	H286	H	0.041770	0.918887	0.949254
	H287	H	0.054249	0.912604	0.945669
	O288	O	1.075956	0.913710	-0.051664
	H289	H	1.086578	0.908529	-0.045900
	H290	H	1.074544	0.905984	-0.048210
	O291	O	0.037637	-0.072776	0.974781
	H292	H	0.038217	-0.066884	0.978187
	H293	H	0.042322	-0.071924	0.972025
	O294	O	0.540154	0.507216	0.564877
	H295	H	0.539614	0.505366	0.575847
	H296	H	0.546189	0.513276	0.569866
	O297	O	0.523402	0.483259	0.544985
	H298	H	0.522529	0.482354	0.545756
	H299	H	0.519512	0.485036	0.542737
	O300	O	0.461600	0.538061	0.558367
	H301	H	0.453941	0.533211	0.564105
	H302	H	0.461110	0.541590	0.554178
	O303	O	0.420836	0.556131	0.485147
	H304	H	0.429986	0.558121	0.488612
	H305	H	0.415181	0.546012	0.488325
	O306	O	1.013746	-0.064201	0.915168
	H307	H	1.015760	-0.068661	0.904445
	H308	H	1.014596	-0.070168	0.904211
	O309	O	0.427638	0.541079	0.483163
	H310	H	0.427842	0.534011	0.475232
	H311	H	0.420581	0.538745	0.481666
	O312	O	0.391810	0.473410	0.473180
	H313	H	0.383830	0.475466	0.463899
	H314	H	0.401200	0.477155	0.461117
	O315	O	1.028467	-0.036148	0.968442
	H316	H	1.033360	-0.040406	0.960434
	H317	H	1.033562	-0.035823	0.961062
	O318	O	0.008251	-0.057693	-0.077867
	H319	H	0.009888	-0.060326	-0.074909
	H320	H	0.004100	-0.063497	-0.079738
	O321	O	0.508628	0.532047	0.445983
	H322	H	0.508558	0.527708	0.454663
	H323	H	0.513653	0.536342	0.447640
	O324	O	1.014694	-0.098893	0.021510
	H325	H	1.002637	-0.096618	0.022554
	H326	H	1.021170	-0.101229	0.015176
	O327	O	1.013529	0.876939	-0.063099
	H328	H	1.010238	0.880065	-0.067545
	H329	H	1.023201	0.867825	-0.063745
	O330	O	0.431737	0.565546	0.478252
	H331	H	0.422275	0.562708	0.479167
	H332	H	0.440497	0.573242	0.466527
	O333	O	0.430169	0.439773	0.590485
	H334	H	0.432908	0.434106	0.589480
	H335	H	0.422353	0.433611	0.597695
