data_Molecule from HDF5

_cell_length_a		16.322523
_cell_length_b		16.383193
_cell_length_c		16.243481
_cell_angle_alpha	89.950643
_cell_angle_beta	89.929271
_cell_angle_gamma	90.228927
_symmetry_space_group_name_H-M	'P 1'
_symmetry_Int_Tables_number		1

loop_
	_symmetry_equiv_pos_as_xyz
	x,y,z

loop_
	_atom_site_label
	_atom_site_type_symbol
	_atom_site_fract_x
	_atom_site_fract_y
	_atom_site_fract_z
	H0	H	0.398276	0.845073	0.703825
	H1	H	0.597456	0.170638	0.700802
	H2	H	0.595903	0.844248	0.271933
	H3	H	0.401505	0.170462	0.273529
	H4	H	0.712990	0.410411	0.823628
	H5	H	0.714667	0.607618	0.151146
	H6	H	0.285361	0.605172	0.824097
	H7	H	0.285997	0.410156	0.152022
	H8	H	0.835799	0.721157	0.387472
	H9	H	0.161382	0.724245	0.587910
	H10	H	0.837060	0.289194	0.589426
	H11	H	0.161093	0.291385	0.387218
	H12	H	0.836180	0.407874	0.703029
	H13	H	0.163394	0.604841	0.701856
	H14	H	0.836502	0.603857	0.272238
	H15	H	0.162703	0.409177	0.274208
	H16	H	0.400765	0.723099	0.823841
	H17	H	0.599749	0.724269	0.150794
	H18	H	0.599909	0.293100	0.823588
	H19	H	0.398924	0.291716	0.150358
	H20	H	0.713289	0.844437	0.387179
	H21	H	0.716645	0.168346	0.588626
	H22	H	0.281557	0.845070	0.587353
	H23	H	0.284382	0.170071	0.388609
	H24	H	0.901479	0.342211	0.201381
	H25	H	0.097907	0.668775	0.202529
	H26	H	0.096933	0.343545	0.774596
	H27	H	0.901136	0.668880	0.771597
	H28	H	0.211762	0.908578	0.322940
	H29	H	0.213689	0.106565	0.650354
	H30	H	0.784649	0.105094	0.323414
	H31	H	0.782331	0.906637	0.651876
	H32	H	0.336528	0.222944	0.887500
	H33	H	0.661977	0.224523	0.086386
	H34	H	0.337991	0.790054	0.089764
	H35	H	0.661254	0.792307	0.885445
	H36	H	0.335277	0.909457	0.200490
	H37	H	0.662200	0.106468	0.201549
	H38	H	0.335929	0.105788	0.774080
	H39	H	0.661716	0.910743	0.772073
	H40	H	0.898935	0.222101	0.324181
	H41	H	0.097043	0.221082	0.650932
	H42	H	0.097325	0.792011	0.324532
	H43	H	0.896956	0.789976	0.651265
	H44	H	0.214708	0.344299	0.889453
	H45	H	0.216045	0.668896	0.088346
	H46	H	0.780687	0.344652	0.088529
	H47	H	0.785027	0.669164	0.887349
	H48	H	0.412458	0.116394	0.567895
	H49	H	0.588394	0.892512	0.580034
	H50	H	0.586851	0.119782	0.397243
	H51	H	0.410407	0.892985	0.393375
	H52	H	0.580982	0.414545	0.100648
	H53	H	0.593672	0.601602	0.871551
	H54	H	0.412170	0.601599	0.103408
	H55	H	0.396212	0.415997	0.868021
	H56	H	0.117317	0.601040	0.388025
	H57	H	0.882278	0.603011	0.581517
	H58	H	0.114775	0.413665	0.578354
	H59	H	0.883846	0.418301	0.394620
	H60	H	0.115329	0.414490	0.581171
	H61	H	0.885674	0.596776	0.576062
	H62	H	0.115251	0.607441	0.400277
	H63	H	0.881348	0.409978	0.392129
	H64	H	0.404617	0.603841	0.105462
	H65	H	0.591597	0.599816	0.872246
	H66	H	0.594511	0.408915	0.106900
	H67	H	0.411562	0.423413	0.874275
	H68	H	0.598230	0.123028	0.398789
	H69	H	0.589522	0.892617	0.578297
	H70	H	0.390500	0.127113	0.578877
	H71	H	0.401354	0.892214	0.399200
	H72	H	0.903133	0.620386	0.073014
	H73	H	0.089345	0.391431	0.083878
	H74	H	0.090907	0.623183	0.890402
	H75	H	0.898419	0.385240	0.881509
	H76	H	0.088759	0.917580	0.602903
	H77	H	0.086916	0.106611	0.370145
	H78	H	0.901467	0.092685	0.603216
	H79	H	0.914529	0.905958	0.372067
	H80	H	0.615127	0.104586	0.896707
	H81	H	0.384865	0.099656	0.075025
	H82	H	0.615064	0.918563	0.081196
	H83	H	0.385300	0.920574	0.899140
	H84	H	0.615670	0.914370	0.080862
	H85	H	0.381899	0.098403	0.083909
	H86	H	0.614511	0.099480	0.895416
	H87	H	0.381568	0.914427	0.890286
	H88	H	0.914194	0.096446	0.600270
	H89	H	0.098447	0.099282	0.368374
	H90	H	0.088767	0.913304	0.603462
	H91	H	0.895004	0.908841	0.367255
	H92	H	0.088981	0.619085	0.899577
	H93	H	0.091616	0.391697	0.077391
	H94	H	0.904452	0.624428	0.087305
	H95	H	0.921929	0.395748	0.896049
	H96	H	0.412604	0.123989	0.593871
	H97	H	0.589675	0.892130	0.579727
	H98	H	0.593221	0.124359	0.388687
	H99	H	0.400885	0.888829	0.389412
	H100	H	0.593376	0.423475	0.102436
	H101	H	0.590542	0.602496	0.871257
	H102	H	0.405825	0.595889	0.103549
	H103	H	0.411390	0.405848	0.869191
	H104	H	0.111785	0.593784	0.399233
	H105	H	0.884138	0.595309	0.584326
	H106	H	0.115390	0.411537	0.580717
	H107	H	0.883754	0.412097	0.400065
	H108	H	0.915612	0.618804	0.079979
	H109	H	0.095547	0.389663	0.082789
	H110	H	0.098421	0.623147	0.897272
	H111	H	0.896369	0.393255	0.910520
	H112	H	0.092161	0.915371	0.604307
	H113	H	0.087555	0.093198	0.373686
	H114	H	0.905408	0.105543	0.606512
	H115	H	0.906349	0.924290	0.374603
	H116	H	0.615958	0.102381	0.891935
	H117	H	0.381941	0.107228	0.080485
	H118	H	0.614794	0.916153	0.077900
	H119	H	0.383068	0.909185	0.900555
	C120	C	0.375658	0.015456	0.609786
	C121	C	0.619280	0.999278	0.608611
	C122	C	0.620400	0.015144	0.365496
	C123	C	0.376567	0.999024	0.365486
	C124	C	0.619133	0.387226	-0.004837
	C125	C	0.621414	0.630428	0.979405
	C126	C	0.378300	0.629232	-0.003829
	C127	C	0.377687	0.386298	0.979015
	C128	C	0.007311	0.628676	0.366370
	C129	C	0.991148	0.628034	0.609982
	C130	C	0.007602	0.384514	0.609566
	C131	C	0.990816	0.385413	0.366524
	C132	C	0.877567	0.514230	0.109448
	C133	C	0.121258	0.498058	0.110015
	C134	C	0.121427	0.514767	0.866464
	C135	C	0.877342	0.498422	0.866288
	C136	C	0.119110	0.886168	0.495545
	C137	C	0.119798	0.128524	0.478808
	C138	C	0.877735	0.127494	0.495775
	C139	C	0.876084	0.884181	0.479706
	C140	C	0.507455	0.129779	0.866058
	C141	C	0.490546	0.130747	0.108967
	C142	C	0.507426	0.887257	0.108708
	C143	C	0.490550	0.886241	0.866259
	C144	C	0.377452	0.893770	0.666100
	C145	C	0.618118	0.121628	0.663881
	C146	C	0.616891	0.892805	0.309959
	C147	C	0.380235	0.121754	0.311165
	C148	C	0.675218	0.389503	0.872433
	C149	C	0.677181	0.628280	0.102238
	C150	C	0.322786	0.626744	0.873042
	C151	C	0.323122	0.389023	0.102680
	C152	C	0.884531	0.683089	0.367939
	C153	C	0.113260	0.685279	0.608267
	C154	C	0.885351	0.328268	0.608618
	C155	C	0.113012	0.330062	0.367829
	C156	C	0.884902	0.387040	0.664983
	C157	C	0.114238	0.626127	0.664811
	C158	C	0.884730	0.624983	0.310507
	C159	C	0.113890	0.388927	0.311941
	C160	C	0.380528	0.684795	0.872858
	C161	C	0.620159	0.686399	0.102030
	C162	C	0.619046	0.331203	0.872543
	C163	C	0.379100	0.330168	0.101761
	C164	C	0.675131	0.892737	0.367331
	C165	C	0.677162	0.120535	0.607732
	C166	C	0.319653	0.893502	0.607955
	C167	C	0.321959	0.121499	0.368084
	C168	C	0.880147	0.391408	0.164419
	C169	C	0.118794	0.620433	0.164959
	C170	C	0.118141	0.392435	0.811716
	C171	C	0.880341	0.620243	0.809641
	C172	C	0.174094	0.888674	0.372321
	C173	C	0.175428	0.126816	0.601634
	C174	C	0.822386	0.125518	0.372499
	C175	C	0.820244	0.886379	0.602925
	C176	C	0.385090	0.184878	0.867798
	C177	C	0.613155	0.186428	0.106954
	C178	C	0.385918	0.829573	0.108365
	C179	C	0.612697	0.830517	0.866173
	C180	C	0.384601	0.888784	0.163664
	C181	C	0.613320	0.127659	0.164081
	C182	C	0.384837	0.126891	0.811042
	C183	C	0.612985	0.889316	0.809804
	C184	C	0.879100	0.183720	0.372829
	C185	C	0.117554	0.183865	0.601801
	C186	C	0.117159	0.830665	0.373067
	C187	C	0.877380	0.828424	0.602553
	C188	C	0.176526	0.392752	0.868977
	C189	C	0.177471	0.620506	0.108327
	C190	C	0.820292	0.392506	0.108170
	C191	C	0.822488	0.620375	0.867221
	C192	C	0.398287	0.100700	0.586836
	C193	C	0.595947	0.914386	0.585935
	C194	C	0.599042	0.100169	0.388114
	C195	C	0.397943	0.913494	0.387598
	C196	C	0.596324	0.409306	0.081187
	C197	C	0.598573	0.607968	0.893690
	C198	C	0.400968	0.607050	0.081874
	C199	C	0.399732	0.408655	0.892839
	C200	C	0.092667	0.607172	0.389071
	C201	C	0.905987	0.605012	0.587310
	C202	C	0.092992	0.406706	0.586724
	C203	C	0.905108	0.407155	0.389035
	C204	C	0.900797	0.599053	0.086741
	C205	C	0.098913	0.413022	0.087703
	C206	C	0.099283	0.599934	0.889136
	C207	C	0.899225	0.413334	0.889308
	C208	C	0.096455	0.908718	0.581662
	C209	C	0.097558	0.106023	0.392843
	C210	C	0.900386	0.105015	0.581122
	C211	C	0.898481	0.906497	0.393636
	C212	C	0.593005	0.108264	0.888147
	C213	C	0.405094	0.108340	0.086450
	C214	C	0.593080	0.909869	0.086440
	C215	C	0.405484	0.908212	0.889838
	Zn216	Zn	0.498544	0.008013	0.738075
	Zn217	Zn	0.498434	0.007416	0.236980
	Zn218	Zn	0.748112	0.507394	-0.011979
	Zn219	Zn	0.249674	0.507257	-0.011526
	Zn220	Zn	-0.001759	0.757389	0.488193
	Zn221	Zn	-0.001229	0.256525	0.486993
	Zn222	Zn	-0.000223	0.505856	0.738219
	Zn223	Zn	-0.000358	0.506077	0.238132
	Zn224	Zn	0.499799	0.758553	-0.011820
	Zn225	Zn	0.499298	0.258566	-0.013637
	Zn226	Zn	0.749244	0.006161	0.487813
	Zn227	Zn	0.247599	0.007156	0.486893
	N228	N	0.411552	0.970643	0.667262
	N229	N	0.582471	0.045315	0.664265
	N230	N	0.583734	0.969895	0.308736
	N231	N	0.413411	0.044779	0.309283
	N232	N	0.675286	0.423843	0.949720
	N233	N	0.678177	0.594331	0.024808
	N234	N	0.321471	0.592822	0.950479
	N235	N	0.322062	0.423222	0.025262
	N236	N	0.961754	0.685658	0.401764
	N237	N	0.035707	0.686761	0.575031
	N238	N	0.962590	0.326763	0.574499
	N239	N	0.035489	0.327746	0.401017
	N240	N	0.961901	0.421238	0.665818
	N241	N	0.037474	0.591233	0.665953
	N242	N	0.961872	0.591802	0.309305
	N243	N	0.036834	0.422620	0.311132
	N244	N	0.414233	0.686585	0.950514
	N245	N	0.586035	0.687619	0.024771
	N246	N	0.584677	0.330008	0.949876
	N247	N	0.412522	0.328772	0.023914
	N248	N	0.677429	0.969679	0.401289
	N249	N	0.677982	0.043579	0.573890
	N250	N	0.318527	0.970284	0.573709
	N251	N	0.319530	0.044157	0.401288
	N252	N	0.915047	0.468123	0.165485
	N253	N	0.084724	0.543551	0.166183
	N254	N	0.084675	0.469358	0.810259
	N255	N	0.913898	0.543329	0.809004
	N256	N	0.175391	0.922638	0.449811
	N257	N	0.176668	0.092942	0.524403
	N258	N	0.821277	0.091000	0.449828
	N259	N	0.819319	0.920218	0.525334
	N260	N	0.462339	0.186703	0.901252
	N261	N	0.535942	0.188249	0.073409
	N262	N	0.463298	0.828503	0.074709
	N263	N	0.535600	0.828583	0.900669
	N264	N	0.461179	0.924103	0.163672
	N265	N	0.536082	0.093690	0.165526
	N266	N	0.461809	0.093044	0.809793
	N267	N	0.536056	0.923243	0.809686
	N268	N	0.912857	0.185120	0.450274
	N269	N	0.083747	0.185120	0.524114
	N270	N	0.083301	0.829492	0.450716
	N271	N	0.911243	0.827036	0.524959
	N272	N	0.178608	0.469853	0.902338
	N273	N	0.179165	0.543434	0.074833
	N274	N	0.818762	0.469677	0.074810
	N275	N	0.820473	0.543700	0.901763
	O276	O	2.021247	-0.012733	0.933170
	H277	H	2.034245	-0.018463	0.927698
	H278	H	2.014288	-0.014632	0.933885
	O279	O	0.091454	0.021179	-0.069648
	H280	H	0.097635	0.007576	-0.061123
	H281	H	0.099229	0.019825	-0.078160
	O282	O	-0.025451	-0.035742	0.962176
	H283	H	-0.032854	-0.032837	0.945257
	H284	H	-0.026120	-0.032198	0.973691
	O285	O	0.616550	0.507909	0.461244
	H286	H	0.630973	0.505317	0.450163
	H287	H	0.615040	0.510662	0.458042
	O288	O	0.581729	0.539801	0.465282
	H289	H	0.576379	0.545257	0.476588
	H290	H	0.594022	0.556779	0.475882
	O291	O	-0.116114	0.888822	1.020068
	H292	H	-0.122459	0.883380	1.034375
	H293	H	-0.123606	0.877672	1.015430
	O294	O	-0.075176	-0.022365	0.077750
	H295	H	-0.076168	-0.017165	0.085592
	H296	H	-0.079646	-0.030506	0.075721
	O297	O	-0.054471	-0.043577	1.049244
	H298	H	-0.047316	-0.047523	1.049047
	H299	H	-0.048880	-0.042112	1.049895
	O300	O	0.019497	0.913584	1.044199
	H301	H	0.025252	0.916219	1.043486
	H302	H	0.025972	0.912431	1.034167
	O303	O	0.593905	0.445489	0.477803
	H304	H	0.582729	0.449186	0.481406
	H305	H	0.589069	0.439152	0.481997
	O306	O	-0.057555	-0.052819	0.937185
	H307	H	-0.060436	-0.048860	0.940912
	H308	H	-0.066923	-0.049096	0.929164
	O309	O	0.968040	0.946151	1.017112
	H310	H	0.964681	0.948687	1.008738
	H311	H	0.976404	0.946433	1.006591
	O312	O	0.624719	0.468918	0.479200
	H313	H	0.624637	0.471553	0.483456
	H314	H	0.627471	0.464391	0.476861
	O315	O	0.639994	0.544778	0.511438
	H316	H	0.647315	0.530607	0.506873
	H317	H	0.643875	0.535044	0.507588
	O318	O	0.058919	0.983841	-0.014332
	H319	H	0.058745	0.969705	-0.012438
	H320	H	0.060672	0.981890	-0.014853
	O321	O	0.943923	0.956489	-0.030337
	H322	H	0.922191	0.947054	-0.012486
	H323	H	0.953250	0.963708	-0.031226
