data_Molecule from HDF5

_cell_length_a		16.662529
_cell_length_b		16.579180
_cell_length_c		16.559279
_cell_angle_alpha	89.904798
_cell_angle_beta	89.839540
_cell_angle_gamma	89.990596
_symmetry_space_group_name_H-M	'P 1'
_symmetry_Int_Tables_number		1

loop_
	_symmetry_equiv_pos_as_xyz
	x,y,z

loop_
	_atom_site_label
	_atom_site_type_symbol
	_atom_site_fract_x
	_atom_site_fract_y
	_atom_site_fract_z
	H0	H	0.401846	0.855541	0.710542
	H1	H	0.609367	0.169145	0.711621
	H2	H	0.609374	0.856923	0.270495
	H3	H	0.399286	0.169031	0.268636
	H4	H	0.722310	0.411502	0.832753
	H5	H	0.723594	0.614788	0.149152
	H6	H	0.284834	0.618100	0.835481
	H7	H	0.281923	0.404462	0.147536
	H8	H	0.848320	0.733761	0.387006
	H9	H	0.161939	0.733497	0.593476
	H10	H	0.850515	0.291376	0.597510
	H11	H	0.159107	0.290169	0.384229
	H12	H	0.849332	0.410301	0.711535
	H13	H	0.160206	0.620621	0.713365
	H14	H	0.847991	0.616852	0.271094
	H15	H	0.159505	0.407794	0.267985
	H16	H	0.401116	0.732859	0.835055
	H17	H	0.607036	0.730244	0.149885
	H18	H	0.603771	0.297337	0.831382
	H19	H	0.399875	0.290953	0.148102
	H20	H	0.726280	0.857272	0.386282
	H21	H	0.726753	0.168286	0.596306
	H22	H	0.284250	0.855952	0.595937
	H23	H	0.283516	0.168878	0.385749
	H24	H	0.902952	0.355202	0.209873
	H25	H	0.105847	0.671125	0.207770
	H26	H	0.108281	0.355922	0.771377
	H27	H	0.904303	0.670982	0.773895
	H28	H	0.225798	0.910242	0.333862
	H29	H	0.225528	0.118575	0.647835
	H30	H	0.781826	0.121322	0.336592
	H31	H	0.783098	0.907034	0.646839
	H32	H	0.347830	0.231764	0.888637
	H33	H	0.661710	0.233046	0.094385
	H34	H	0.350082	0.790267	0.097830
	H35	H	0.661561	0.793959	0.888241
	H36	H	0.349886	0.908002	0.213432
	H37	H	0.661081	0.117097	0.211163
	H38	H	0.347458	0.114662	0.772745
	H39	H	0.662126	0.911597	0.772910
	H40	H	0.898536	0.236603	0.336821
	H41	H	0.107497	0.232668	0.648918
	H42	H	0.108725	0.794993	0.332986
	H43	H	0.899068	0.790249	0.646282
	H44	H	0.225229	0.355543	0.886803
	H45	H	0.225764	0.669083	0.095440
	H46	H	0.787491	0.354072	0.092971
	H47	H	0.784838	0.668959	0.887905
	H48	H	0.410243	0.126910	0.581423
	H49	H	0.592875	0.901691	0.580362
	H50	H	0.592684	0.124918	0.403339
	H51	H	0.420280	0.901883	0.399627
	H52	H	0.597841	0.419289	0.105246
	H53	H	0.596074	0.606493	0.878207
	H54	H	0.412966	0.601034	0.104966
	H55	H	0.406383	0.427713	0.877921
	H56	H	0.112738	0.599252	0.404227
	H57	H	0.896490	0.598366	0.577966
	H58	H	0.117357	0.427010	0.584466
	H59	H	0.890757	0.418054	0.401340
	H60	H	0.119056	0.418194	0.580182
	H61	H	0.892753	0.601738	0.587387
	H62	H	0.118075	0.601053	0.392873
	H63	H	0.895943	0.425700	0.409121
	H64	H	0.416433	0.597269	0.102918
	H65	H	0.599176	0.600566	0.878960
	H66	H	0.596599	0.423647	0.103834
	H67	H	0.422426	0.429469	0.883535
	H68	H	0.595438	0.124984	0.403056
	H69	H	0.596732	0.900511	0.579609
	H70	H	0.416118	0.125410	0.584746
	H71	H	0.418205	0.903765	0.408009
	H72	H	0.912003	0.627430	0.084681
	H73	H	0.092903	0.403413	0.073816
	H74	H	0.092614	0.625094	0.898231
	H75	H	0.912341	0.397512	0.895311
	H76	H	0.093655	0.917625	0.604610
	H77	H	0.097532	0.100346	0.378520
	H78	H	0.913810	0.095688	0.602106
	H79	H	0.916789	0.919532	0.377188
	H80	H	0.616188	0.106769	0.904753
	H81	H	0.391667	0.101167	0.088057
	H82	H	0.617998	0.919418	0.083726
	H83	H	0.393160	0.927793	0.896820
	H84	H	0.615897	0.921695	0.075984
	H85	H	0.393520	0.108900	0.075297
	H86	H	0.614528	0.098486	0.900044
	H87	H	0.389663	0.914782	0.898931
	H88	H	0.921484	0.100034	0.601181
	H89	H	0.090909	0.099119	0.381478
	H90	H	0.099957	0.924355	0.604215
	H91	H	0.910949	0.927819	0.378689
	H92	H	0.093366	0.622137	0.906216
	H93	H	0.098396	0.399583	0.080995
	H94	H	0.918347	0.623568	0.079092
	H95	H	0.918129	0.401122	0.901153
	H96	H	0.415369	0.124190	0.577919
	H97	H	0.594965	0.899511	0.582967
	H98	H	0.593846	0.125002	0.401039
	H99	H	0.411991	0.899658	0.402606
	H100	H	0.593713	0.420478	0.103642
	H101	H	0.592694	0.601288	0.880522
	H102	H	0.418175	0.603001	0.103133
	H103	H	0.417318	0.414362	0.877675
	H104	H	0.117517	0.610378	0.401229
	H105	H	0.892952	0.608386	0.578750
	H106	H	0.114848	0.425132	0.575432
	H107	H	0.894256	0.428874	0.397894
	H108	H	0.909446	0.624553	0.076273
	H109	H	0.088649	0.401757	0.082475
	H110	H	0.099817	0.625953	0.902254
	H111	H	0.909837	0.399482	0.904098
	H112	H	0.091433	0.925909	0.601169
	H113	H	0.092948	0.105090	0.378725
	H114	H	0.914312	0.104172	0.605075
	H115	H	0.920908	0.927950	0.381708
	H116	H	0.619079	0.105880	0.895577
	H117	H	0.397566	0.094271	0.075593
	H118	H	0.615442	0.927179	0.081940
	H119	H	0.395389	0.922030	0.909061
	C120	C	0.382679	0.021639	0.612937
	C121	C	0.626416	1.004035	0.612514
	C122	C	0.626430	0.021752	0.369925
	C123	C	0.383965	1.004643	0.370303
	C124	C	0.625751	0.391039	-0.000460
	C125	C	0.626533	0.633562	0.983390
	C126	C	0.384012	0.633434	0.000163
	C127	C	0.383317	0.390938	0.982941
	C128	C	0.012996	0.635191	0.368443
	C129	C	0.997131	0.634987	0.612353
	C130	C	0.013979	0.391992	0.612333
	C131	C	0.996200	0.391831	0.369939
	C132	C	0.883176	0.520703	0.111799
	C133	C	0.125784	0.504469	0.111833
	C134	C	0.126482	0.520611	0.870280
	C135	C	0.883621	0.503855	0.869878
	C136	C	0.126105	0.892276	0.499023
	C137	C	0.125875	0.133958	0.483239
	C138	C	0.883644	0.133882	0.500207
	C139	C	0.884042	0.892017	0.482384
	C140	C	0.512666	0.133983	0.869619
	C141	C	0.497041	0.133782	0.111784
	C142	C	0.513899	0.890700	0.113530
	C143	C	0.496215	0.891032	0.869998
	C144	C	0.382328	0.902814	0.671480
	C145	C	0.627921	0.121955	0.671981
	C146	C	0.628346	0.904049	0.310077
	C147	C	0.381357	0.122149	0.309477
	C148	C	0.682940	0.392037	0.880032
	C149	C	0.684290	0.633601	0.101926
	C150	C	0.324476	0.636164	0.882701
	C151	C	0.322840	0.387575	0.100745
	C152	C	0.895433	0.694418	0.367547
	C153	C	0.114567	0.694498	0.613065
	C154	C	0.896863	0.331934	0.615302
	C155	C	0.112727	0.330760	0.366222
	C156	C	0.896243	0.390909	0.671986
	C157	C	0.113874	0.638087	0.672455
	C158	C	0.895196	0.636176	0.310064
	C159	C	0.112803	0.389049	0.308533
	C160	C	0.382446	0.693344	0.882492
	C161	C	0.626198	0.690903	0.102440
	C162	C	0.624105	0.335288	0.879433
	C163	C	0.381371	0.330780	0.100924
	C164	C	0.686254	0.904086	0.367591
	C165	C	0.686378	0.121527	0.614799
	C166	C	0.324024	0.903110	0.614452
	C167	C	0.323498	0.122184	0.367347
	C168	C	0.883566	0.402174	0.170412
	C169	C	0.125877	0.623184	0.169599
	C170	C	0.127363	0.402880	0.810865
	C171	C	0.884094	0.623218	0.812442
	C172	C	0.185634	0.891393	0.380968
	C173	C	0.185387	0.136397	0.600953
	C174	C	0.822366	0.138398	0.383388
	C175	C	0.823272	0.888759	0.599763
	C176	C	0.394724	0.192136	0.869470
	C177	C	0.614564	0.193495	0.113265
	C178	C	0.396657	0.830752	0.115735
	C179	C	0.614668	0.833644	0.869743
	C180	C	0.396513	0.889171	0.173247
	C181	C	0.614426	0.135876	0.171405
	C182	C	0.394666	0.133926	0.811813
	C183	C	0.614581	0.891653	0.811969
	C184	C	0.880181	0.196080	0.383543
	C185	C	0.127010	0.193468	0.601288
	C186	C	0.127307	0.834229	0.380392
	C187	C	0.881024	0.830941	0.599636
	C188	C	0.185387	0.402802	0.868502
	C189	C	0.185540	0.622302	0.113741
	C190	C	0.826255	0.401760	0.112269
	C191	C	0.824936	0.622319	0.869067
	C192	C	0.406820	0.103864	0.588428
	C193	C	0.601766	0.921923	0.588019
	C194	C	0.601245	0.103773	0.395214
	C195	C	0.409445	0.923060	0.396252
	C196	C	0.602665	0.414315	0.082534
	C197	C	0.602901	0.609783	0.900763
	C198	C	0.408756	0.607696	0.082353
	C199	C	0.408294	0.416423	0.901114
	C200	C	0.094842	0.610750	0.392739
	C201	C	0.915372	0.610021	0.588187
	C202	C	0.095752	0.416402	0.587172
	C203	C	0.914892	0.417042	0.395600
	C204	C	0.906494	0.603525	0.087320
	C205	C	0.100631	0.422838	0.086288
	C206	C	0.102234	0.602869	0.895105
	C207	C	0.906965	0.421008	0.893401
	C208	C	0.101879	0.915979	0.581815
	C209	C	0.101013	0.108709	0.401091
	C210	C	0.909486	0.107492	0.581519
	C211	C	0.909226	0.917657	0.400561
	C212	C	0.595241	0.110430	0.893428
	C213	C	0.415545	0.108575	0.086913
	C214	C	0.595355	0.915823	0.087906
	C215	C	0.414064	0.914733	0.894327
	Zn216	Zn	0.504218	0.012806	0.740901
	Zn217	Zn	0.505111	0.013407	0.241699
	Zn218	Zn	0.754530	0.512195	-0.008688
	Zn219	Zn	0.255515	0.512618	-0.008780
	Zn220	Zn	0.005154	0.763162	0.490118
	Zn221	Zn	0.004626	0.262625	0.491604
	Zn222	Zn	0.005465	0.513314	0.741033
	Zn223	Zn	0.003993	0.513083	0.240361
	Zn224	Zn	0.505543	0.761948	-0.008350
	Zn225	Zn	0.504540	0.262785	-0.008830
	Zn226	Zn	0.754965	0.013053	0.490736
	Zn227	Zn	0.254853	0.013053	0.491524
	N228	N	0.418002	0.977498	0.670913
	N229	N	0.590962	0.047867	0.670747
	N230	N	0.592038	0.978433	0.311138
	N231	N	0.417899	0.047935	0.310863
	N232	N	0.684418	0.425759	0.955821
	N233	N	0.684768	0.598584	0.026902
	N234	N	0.324995	0.599820	0.957208
	N235	N	0.323668	0.424265	0.026321
	N236	N	0.969822	0.693838	0.403109
	N237	N	0.040745	0.692891	0.576460
	N238	N	0.970990	0.332445	0.578990
	N239	N	0.039139	0.332279	0.403875
	N240	N	0.970209	0.427457	0.670423
	N241	N	0.039860	0.601732	0.672185
	N242	N	0.969391	0.600184	0.310232
	N243	N	0.039355	0.426212	0.310637
	N244	N	0.418697	0.692103	0.956933
	N245	N	0.590909	0.691075	0.027624
	N246	N	0.589547	0.334271	0.954843
	N247	N	0.418137	0.332510	0.026714
	N248	N	0.685393	0.978516	0.403875
	N249	N	0.685524	0.047152	0.578601
	N250	N	0.323640	0.978098	0.579082
	N251	N	0.324780	0.048036	0.404428
	N252	N	0.918016	0.477400	0.170431
	N253	N	0.089524	0.548860	0.168739
	N254	N	0.091566	0.477356	0.811684
	N255	N	0.919809	0.548580	0.812648
	N256	N	0.185200	0.926557	0.455922
	N257	N	0.184907	0.100223	0.526347
	N258	N	0.824291	0.100277	0.456971
	N259	N	0.824937	0.926160	0.525801
	N260	N	0.469285	0.192345	0.904556
	N261	N	0.540494	0.192332	0.076813
	N262	N	0.470853	0.831401	0.079329
	N263	N	0.539915	0.832699	0.905001
	N264	N	0.470288	0.925817	0.171803
	N265	N	0.540359	0.099677	0.170773
	N266	N	0.469153	0.098642	0.811717
	N267	N	0.539773	0.926208	0.811564
	N268	N	0.917645	0.193260	0.457099
	N269	N	0.090696	0.192148	0.526890
	N270	N	0.091165	0.834317	0.455053
	N271	N	0.918251	0.833024	0.525744
	N272	N	0.184870	0.477042	0.904853
	N273	N	0.185869	0.547275	0.078766
	N274	N	0.825631	0.476586	0.076861
	N275	N	0.824315	0.547098	0.903901
	O276	O	0.034890	0.809102	0.050679
	H277	H	0.029106	0.816811	0.044608
	H278	H	0.044018	0.808473	0.049322
	O279	O	0.458003	0.431624	0.270751
	H280	H	0.485446	0.425383	0.262776
	H281	H	0.469359	0.424440	0.271016
	O282	O	0.834227	0.162582	1.161590
	H283	H	0.843727	0.162402	1.152913
	H284	H	0.838887	0.152219	1.142546
	O285	O	0.494894	0.377566	0.498295
	H286	H	0.491787	0.380719	0.487640
	H287	H	0.493926	0.375521	0.490697
	O288	O	0.312009	0.354621	0.694868
	H289	H	0.338143	0.351929	0.681985
	H290	H	0.293992	0.346317	0.672795
	O291	O	0.152058	0.214617	-0.095862
	H292	H	0.143795	0.218121	-0.097442
	H293	H	0.149423	0.225011	-0.120777
	O294	O	0.802322	0.222280	0.784969
	H295	H	0.784747	0.244293	0.754925
	H296	H	0.794584	0.174550	0.778901
	O297	O	0.294476	0.490378	0.685177
	H298	H	0.265810	0.474794	0.704598
	H299	H	0.302773	0.456490	0.672483
	O300	O	-0.219351	0.236589	0.951713
	H301	H	-0.249892	0.270042	0.945720
	H302	H	-0.211887	0.230648	0.909984
	O303	O	0.624138	0.401454	0.488592
	H304	H	0.636666	0.407422	0.496987
	H305	H	0.616949	0.399045	0.480211
	O306	O	0.542149	0.308461	0.305619
	H307	H	0.541672	0.280869	0.282460
	H308	H	0.578028	0.311211	0.313237
	O309	O	0.723304	0.551066	0.450991
	H310	H	0.720471	0.555461	0.444987
	H311	H	0.705392	0.553691	0.462663
	O312	O	0.539712	0.372877	0.623548
	H313	H	0.536192	0.358356	0.626875
	H314	H	0.526681	0.398430	0.615619
	O315	O	1.106848	0.951618	0.943408
	H316	H	1.099694	0.954455	0.933506
	H317	H	1.093245	0.954157	0.956459
	O318	O	0.282300	0.553227	0.269291
	H319	H	0.309428	0.526081	0.262779
	H320	H	0.265270	0.543293	0.238638
	O321	O	0.222361	1.041587	1.206601
	H322	H	0.239052	1.041651	1.212218
	H323	H	0.227862	1.050139	1.203930
	O324	O	1.233052	0.957936	0.058239
	H325	H	1.232985	0.970858	0.051177
	H326	H	1.230004	0.979471	0.040981
	O327	O	-0.025033	0.222729	0.779702
	H328	H	-0.029810	0.236611	0.752928
	H329	H	-0.054159	0.216641	0.788745
	O330	O	0.304898	0.369355	0.358487
	H331	H	0.311770	0.370861	0.348373
	H332	H	0.297156	0.395659	0.366502
	O333	O	0.698799	0.323692	0.677998
	H334	H	0.692192	0.344199	0.650904
	H335	H	0.681936	0.338404	0.666741
	O336	O	1.098482	0.178447	0.020699
	H337	H	1.096797	0.195837	0.012601
	H338	H	1.100743	0.181373	0.029315
	O339	O	0.715847	-0.305314	0.702099
	H340	H	0.734543	-0.280067	0.726756
	H341	H	0.727562	-0.302550	0.662525
	O342	O	0.036584	0.224289	0.208131
	H343	H	0.031186	0.234552	0.212211
	H344	H	0.039605	0.220676	0.212410
	O345	O	-0.147452	0.933837	0.965032
	H346	H	-0.152620	0.955407	0.966953
	H347	H	-0.130898	0.926356	0.982494
	O348	O	-0.096667	0.005416	-0.076670
	H349	H	-0.087514	0.008469	-0.070878
	H350	H	-0.091559	-0.006685	-0.053857
	O351	O	0.351757	0.644333	0.674325
	H352	H	0.346590	0.621122	0.686717
	H353	H	0.349053	0.640557	0.658670
	O354	O	-0.059232	0.083370	1.213590
	H355	H	-0.061485	0.077238	1.212452
	H356	H	-0.064671	0.082632	1.215906
	O357	O	0.421286	0.615030	0.465259
	H358	H	0.407975	0.611894	0.482625
	H359	H	0.409676	0.615869	0.468628
	O360	O	0.483679	0.483192	0.658140
	H361	H	0.491577	0.485961	0.661869
	H362	H	0.481139	0.492848	0.645862
	O363	O	-0.209952	-0.020460	0.209442
	H364	H	-0.223382	-0.029932	0.205959
	H365	H	-0.224411	-0.026534	0.227413
	O366	O	0.725246	0.473986	0.272583
	H367	H	0.721118	0.468828	0.284280
	H368	H	0.748584	0.480607	0.249426
	O369	O	1.118155	0.119528	0.040651
	H370	H	1.128464	0.133143	0.036950
	H371	H	1.120388	0.111801	0.044295
	O372	O	0.996873	0.856414	0.196969
	H373	H	0.994448	0.838959	0.222502
	H374	H	0.987258	0.866879	0.190922
	O375	O	0.690441	-0.307865	0.314847
	H376	H	0.671393	-0.322333	0.330801
	H377	H	0.674241	-0.308350	0.337991
	O378	O	0.545859	0.545113	0.370529
	H379	H	0.523596	0.534681	0.359330
	H380	H	0.557299	0.540794	0.359230
	O381	O	-0.006014	1.226008	0.988824
	H382	H	0.009678	1.213698	0.987933
	H383	H	-0.025010	1.231914	0.978812
	O384	O	0.787584	-0.198648	1.015410
	H385	H	0.788658	-0.214610	1.021054
	H386	H	0.782004	-0.198979	1.040533
	O387	O	1.190929	1.032406	-0.074457
	H388	H	1.190499	1.031661	-0.085028
	H389	H	1.179210	1.048584	-0.088965
	O390	O	0.720822	0.722266	0.529970
	H391	H	0.707829	0.717186	0.517821
	H392	H	0.727148	0.736663	0.519191
	O393	O	0.800486	0.807939	0.785436
	H394	H	0.798029	0.814354	0.819910
	H395	H	0.819975	0.825128	0.782932
	O396	O	0.095737	1.026922	1.198511
	H397	H	0.099215	1.019770	1.201941
	H398	H	0.094777	1.023567	1.185411
	O399	O	-0.068769	-0.095537	0.984495
	H400	H	-0.078228	-0.091728	0.978487
	H401	H	-0.072810	-0.092500	0.985951
	O402	O	0.529828	0.572065	0.290390
	H403	H	0.525746	0.588803	0.306795
	H404	H	0.525012	0.585370	0.292603
	O405	O	1.025357	-0.000778	0.976357
	H406	H	1.026248	-0.006586	0.976749
	H407	H	1.018307	-0.003891	0.985304
	O408	O	0.123335	0.123989	-0.201285
	H409	H	0.117873	0.118652	-0.196350
	H410	H	0.112421	0.115407	-0.189935
	O411	O	0.466772	0.678927	0.606004
	H412	H	0.463966	0.681357	0.608812
	H413	H	0.463782	0.688255	0.623124
	O414	O	0.562900	0.740804	0.454137
	H415	H	0.546335	0.727785	0.466138
	H416	H	0.535805	0.739666	0.443744
	O417	O	0.291449	0.492663	0.443967
	H418	H	0.292080	0.507538	0.459728
	H419	H	0.296135	0.504930	0.443658
	O420	O	0.119898	0.849371	0.968111
	H421	H	0.121533	0.850790	0.978725
	H422	H	0.120414	0.854951	0.969867
	O423	O	0.037330	-0.202015	0.771886
	H424	H	0.059822	-0.201001	0.779573
	H425	H	0.043219	-0.224491	0.746665
	O426	O	0.283699	0.296290	0.564403
	H427	H	0.271650	0.287487	0.552020
	H428	H	0.278587	0.291051	0.543540
	O429	O	0.999114	0.997985	0.761988
	H430	H	0.997505	0.999201	0.767789
	H431	H	0.993611	0.996598	0.758995
	O432	O	0.286110	0.733191	0.459399
	H433	H	0.277393	0.745349	0.453583
	H434	H	0.282343	0.748928	0.439588
	O435	O	-0.203569	0.812516	0.190983
	H436	H	-0.209311	0.786737	0.216167
	H437	H	-0.197510	0.822636	0.189435
	O438	O	0.222020	-0.019710	-0.228782
	H439	H	0.230987	-0.030295	-0.247491
	H440	H	0.224278	-0.017775	-0.238114
	O441	O	-0.160564	0.024520	-0.218120
	H442	H	-0.169811	0.007305	-0.200658
	H443	H	-0.149343	0.003824	-0.223110
	O444	O	0.541728	0.733699	0.713258
	H445	H	0.562503	0.738585	0.714963
	H446	H	0.557130	0.752913	0.735218
	O447	O	0.206890	0.809606	0.788978
	H448	H	0.230119	0.809733	0.775002
	H449	H	0.196561	0.810906	0.818307
	O450	O	-0.122553	0.952674	0.995176
	H451	H	-0.124605	0.955464	0.992346
	H452	H	-0.115272	0.946278	1.003523
	O453	O	0.296117	0.605812	0.568701
	H454	H	0.315394	0.601406	0.572157
	H455	H	0.294928	0.616666	0.559343
	O456	O	0.200136	-0.178773	1.139821
	H457	H	0.205208	-0.156952	1.114433
	H458	H	0.176606	-0.170110	1.126364
	O459	O	0.449257	0.303906	0.710147
	H460	H	0.452753	0.282385	0.742502
	H461	H	0.436804	0.309049	0.692771
	O462	O	0.709739	0.307997	0.287601
	H463	H	0.722992	0.293918	0.282463
	H464	H	0.716035	0.333335	0.306213
	O465	O	0.802872	0.072409	0.029254
	H466	H	0.807350	0.080355	0.021297
	H467	H	0.805160	0.087061	0.022876
	O468	O	0.713788	0.303125	0.460728
	H469	H	0.716792	0.315481	0.461241
	H470	H	0.722118	0.299897	0.468785
	O471	O	0.693734	0.541508	0.704878
	H472	H	0.690765	0.567238	0.705013
	H473	H	0.700825	0.554151	0.728231
	O474	O	0.235312	0.241986	0.221421
	H475	H	0.226680	0.247419	0.237274
	H476	H	0.230550	0.225785	0.196889
	O477	O	0.467561	0.292084	1.464373
	H478	H	0.471266	0.286627	1.459863
	H479	H	0.471572	0.299249	1.463242
	O480	O	0.652057	0.515779	0.546461
	H481	H	0.649784	0.532884	0.559427
	H482	H	0.648831	0.520622	0.548770
	O483	O	0.537585	0.543141	0.542848
	H484	H	0.526168	0.527894	0.551560
	H485	H	0.532743	0.540619	0.550507
	O486	O	1.302261	-0.281115	1.288884
	H487	H	1.292047	-0.335592	1.279994
	H488	H	1.274811	-0.257297	1.278872
	O489	O	1.470821	0.728826	0.277954
	H490	H	1.447620	0.740379	0.267337
	H491	H	1.440825	0.736559	0.269363
