data_Molecule from HDF5

_cell_length_a		16.451856
_cell_length_b		16.422685
_cell_length_c		16.290974
_cell_angle_alpha	90.324371
_cell_angle_beta	89.957538
_cell_angle_gamma	89.941915
_symmetry_space_group_name_H-M	'P 1'
_symmetry_Int_Tables_number		1

loop_
	_symmetry_equiv_pos_as_xyz
	x,y,z

loop_
	_atom_site_label
	_atom_site_type_symbol
	_atom_site_fract_x
	_atom_site_fract_y
	_atom_site_fract_z
	H0	H	0.397630	0.836949	0.716949
	H1	H	0.603964	0.155608	0.720457
	H2	H	0.605813	0.838582	0.276440
	H3	H	0.397385	0.156768	0.280814
	H4	H	0.724131	0.392632	0.843188
	H5	H	0.719409	0.605324	0.163005
	H6	H	0.278325	0.601680	0.843631
	H7	H	0.281820	0.391942	0.161979
	H8	H	0.843401	0.718862	0.397491
	H9	H	0.159053	0.720736	0.611354
	H10	H	0.842857	0.276023	0.609206
	H11	H	0.159387	0.274791	0.395957
	H12	H	0.841139	0.395796	0.722591
	H13	H	0.158966	0.603289	0.726720
	H14	H	0.841575	0.600326	0.283609
	H15	H	0.159332	0.391674	0.280803
	H16	H	0.396606	0.714161	0.839814
	H17	H	0.607059	0.723908	0.158050
	H18	H	0.606967	0.277785	0.839716
	H19	H	0.395895	0.275920	0.159931
	H20	H	0.724989	0.839432	0.389590
	H21	H	0.723245	0.154614	0.608401
	H22	H	0.280238	0.838419	0.603714
	H23	H	0.277355	0.154810	0.392059
	H24	H	0.900303	0.335610	0.218527
	H25	H	0.100142	0.657953	0.220874
	H26	H	0.104467	0.337583	0.782382
	H27	H	0.897176	0.657610	0.786628
	H28	H	0.219899	0.890569	0.339710
	H29	H	0.221141	0.100375	0.661421
	H30	H	0.783253	0.099733	0.339625
	H31	H	0.779386	0.893899	0.660616
	H32	H	0.341751	0.217608	0.896460
	H33	H	0.660441	0.217235	0.104401
	H34	H	0.341817	0.778851	0.102196
	H35	H	0.659797	0.776654	0.893336
	H36	H	0.341721	0.894478	0.219032
	H37	H	0.658957	0.103084	0.221887
	H38	H	0.340022	0.096859	0.782852
	H39	H	0.660389	0.894211	0.779759
	H40	H	0.899242	0.215067	0.340390
	H41	H	0.106162	0.217033	0.662654
	H42	H	0.105048	0.774230	0.341653
	H43	H	0.896202	0.779441	0.663005
	H44	H	0.222939	0.338662	0.896357
	H45	H	0.221229	0.656291	0.110586
	H46	H	0.777599	0.339208	0.110454
	H47	H	0.783261	0.657731	0.903466
	H48	H	0.406755	0.111957	0.590522
	H49	H	0.589630	0.882722	0.589464
	H50	H	0.595104	0.111450	0.413449
	H51	H	0.416754	0.884696	0.406195
	H52	H	0.591265	0.407745	0.116433
	H53	H	0.585445	0.581520	0.891038
	H54	H	0.411456	0.585654	0.114795
	H55	H	0.413716	0.403364	0.886088
	H56	H	0.115151	0.589228	0.414632
	H57	H	0.883449	0.594581	0.600654
	H58	H	0.113652	0.406367	0.589790
	H59	H	0.889618	0.408281	0.417233
	H60	H	0.113116	0.410389	0.592410
	H61	H	0.889192	0.592227	0.585166
	H62	H	0.111854	0.584369	0.416670
	H63	H	0.886347	0.408942	0.408290
	H64	H	0.416955	0.588920	0.114712
	H65	H	0.591596	0.593003	0.884118
	H66	H	0.587398	0.410024	0.114467
	H67	H	0.406703	0.409526	0.885468
	H68	H	0.591842	0.111118	0.407956
	H69	H	0.588697	0.885376	0.584446
	H70	H	0.412777	0.111502	0.593070
	H71	H	0.411709	0.886034	0.415945
	H72	H	0.903815	0.611681	0.090850
	H73	H	0.091096	0.380847	0.099457
	H74	H	0.093851	0.609434	0.920465
	H75	H	0.918529	0.389521	0.923768
	H76	H	0.098881	0.914878	0.615405
	H77	H	0.089994	0.085019	0.387326
	H78	H	0.902616	0.091832	0.620241
	H79	H	0.906800	0.909942	0.386026
	H80	H	0.615012	0.085148	0.907298
	H81	H	0.385592	0.093591	0.088005
	H82	H	0.614268	0.911714	0.089427
	H83	H	0.386728	0.910173	0.904544
	H84	H	0.614777	0.906273	0.085529
	H85	H	0.391518	0.085302	0.084136
	H86	H	0.616035	0.090909	0.908813
	H87	H	0.383600	0.899371	0.904699
	H88	H	0.910264	0.076475	0.612700
	H89	H	0.088578	0.086562	0.388727
	H90	H	0.083534	0.914069	0.609863
	H91	H	0.918442	0.911837	0.390568
	H92	H	0.091144	0.612065	0.912840
	H93	H	0.086731	0.387313	0.086842
	H94	H	0.910332	0.612956	0.100844
	H95	H	0.900118	0.380635	0.917243
	H96	H	0.411362	0.109196	0.586325
	H97	H	0.593639	0.882354	0.585456
	H98	H	0.588957	0.109352	0.413399
	H99	H	0.406043	0.880769	0.407007
	H100	H	0.587282	0.405152	0.115504
	H101	H	0.599534	0.581021	0.886157
	H102	H	0.411797	0.591332	0.117680
	H103	H	0.414461	0.412393	0.889498
	H104	H	0.114601	0.584259	0.411052
	H105	H	0.889936	0.579978	0.596143
	H106	H	0.115491	0.406977	0.593666
	H107	H	0.886434	0.400995	0.413096
	H108	H	0.914750	0.608535	0.091280
	H109	H	0.100569	0.382120	0.088065
	H110	H	0.086119	0.607882	0.917887
	H111	H	0.916561	0.382030	0.903159
	H112	H	0.089844	0.901222	0.618144
	H113	H	0.089909	0.086869	0.386955
	H114	H	0.920814	0.091932	0.614519
	H115	H	0.915689	0.900085	0.385954
	H116	H	0.613000	0.087427	0.912944
	H117	H	0.386897	0.084948	0.093371
	H118	H	0.611356	0.911993	0.083139
	H119	H	0.388219	0.904223	0.913972
	C120	C	0.379201	0.005557	0.620828
	C121	C	0.622393	0.988256	0.620270
	C122	C	0.623589	0.005838	0.377632
	C123	C	0.379141	0.988663	0.377903
	C124	C	0.622041	0.376050	0.009745
	C125	C	0.622860	0.618768	0.992786
	C126	C	0.380288	0.619201	0.010201
	C127	C	0.380427	0.376499	0.993051
	C128	C	0.009128	0.617779	0.381928
	C129	C	0.992283	0.620545	0.626270
	C130	C	0.008947	0.376597	0.624182
	C131	C	0.992766	0.374779	0.380707
	C132	C	0.878264	0.505808	0.125662
	C133	C	0.123422	0.488529	0.124977
	C134	C	0.122711	0.505372	0.882738
	C135	C	0.880268	0.489312	0.883585
	C136	C	0.122714	0.875842	0.509236
	C137	C	0.122422	0.118294	0.493112
	C138	C	0.879941	0.118167	0.509435
	C139	C	0.880549	0.876044	0.493173
	C140	C	0.509029	0.118539	0.878399
	C141	C	0.492724	0.119966	0.121517
	C142	C	0.509003	0.877521	0.118907
	C143	C	0.491598	0.873884	0.875775
	C144	C	0.378440	0.885169	0.678384
	C145	C	0.623503	0.107754	0.681201
	C146	C	0.625205	0.886604	0.315924
	C147	C	0.378060	0.108778	0.319634
	C148	C	0.683443	0.374091	0.890204
	C149	C	0.680649	0.622601	0.113881
	C150	C	0.318883	0.620449	0.890744
	C151	C	0.321137	0.373906	0.113464
	C152	C	0.890379	0.678307	0.379273
	C153	C	0.111500	0.680637	0.629154
	C154	C	0.890095	0.316650	0.626858
	C155	C	0.111933	0.315000	0.378148
	C156	C	0.889382	0.375868	0.683733
	C157	C	0.111425	0.622313	0.686789
	C158	C	0.889637	0.619172	0.322641
	C159	C	0.111979	0.372896	0.320517
	C160	C	0.377902	0.676256	0.888718
	C161	C	0.624809	0.681905	0.111677
	C162	C	0.625284	0.316884	0.888768
	C163	C	0.378109	0.316037	0.112600
	C164	C	0.684223	0.886779	0.372755
	C165	C	0.682863	0.107179	0.625257
	C166	C	0.319943	0.886061	0.622004
	C167	C	0.318181	0.107649	0.374972
	C168	C	0.879524	0.384489	0.181496
	C169	C	0.121406	0.609379	0.183070
	C170	C	0.123821	0.385700	0.821928
	C171	C	0.878877	0.609752	0.825755
	C172	C	0.181066	0.872400	0.388289
	C173	C	0.181591	0.119203	0.613520
	C174	C	0.822072	0.118858	0.388306
	C175	C	0.819800	0.875116	0.613050
	C176	C	0.389087	0.177463	0.877210
	C177	C	0.612284	0.178646	0.123206
	C178	C	0.389396	0.818442	0.120916
	C179	C	0.611939	0.815620	0.874425
	C180	C	0.389213	0.876316	0.178759
	C181	C	0.611538	0.121640	0.181696
	C182	C	0.388194	0.117308	0.821166
	C183	C	0.612369	0.874324	0.818081
	C184	C	0.879872	0.176388	0.388729
	C185	C	0.124301	0.177240	0.613981
	C186	C	0.123950	0.814258	0.389447
	C187	C	0.877814	0.818132	0.614318
	C188	C	0.182526	0.385903	0.879003
	C189	C	0.181738	0.608520	0.128068
	C190	C	0.818194	0.386423	0.127876
	C191	C	0.821996	0.609735	0.883935
	C192	C	0.403356	0.089086	0.596987
	C193	C	0.597701	0.905215	0.594059
	C194	C	0.598992	0.088814	0.403958
	C195	C	0.404223	0.905712	0.402558
	C196	C	0.596087	0.400557	0.093664
	C197	C	0.598945	0.592657	0.908903
	C198	C	0.406003	0.595512	0.093906
	C199	C	0.404884	0.401356	0.908928
	C200	C	0.092232	0.593095	0.407049
	C201	C	0.909226	0.595959	0.601204
	C202	C	0.092301	0.400966	0.599222
	C203	C	0.909347	0.399223	0.405655
	C204	C	0.902402	0.589360	0.101612
	C205	C	0.099707	0.405013	0.098950
	C206	C	0.097649	0.588137	0.909231
	C207	C	0.904717	0.405859	0.907655
	C208	C	0.097959	0.902404	0.592941
	C209	C	0.096983	0.093318	0.409225
	C210	C	0.904091	0.093890	0.593965
	C211	C	0.906240	0.900127	0.409212
	C212	C	0.592641	0.094719	0.902746
	C213	C	0.409489	0.095046	0.095939
	C214	C	0.591781	0.902807	0.093487
	C215	C	0.407971	0.897534	0.900456
	Zn216	Zn	0.500856	-0.003697	0.749306
	Zn217	Zn	0.500648	-0.002037	0.249426
	Zn218	Zn	0.750768	0.497411	0.003605
	Zn219	Zn	0.252591	0.497854	0.003341
	Zn220	Zn	0.001060	0.747532	0.503097
	Zn221	Zn	0.001106	0.246946	0.502827
	Zn222	Zn	0.000371	0.498161	0.754023
	Zn223	Zn	0.000716	0.496396	0.252337
	Zn224	Zn	0.501486	0.747281	-0.001444
	Zn225	Zn	0.501035	0.247801	-0.000366
	Zn226	Zn	0.751672	-0.003320	0.500017
	Zn227	Zn	0.251250	-0.003073	0.499398
	N228	N	0.414775	0.960435	0.677949
	N229	N	0.586648	0.032797	0.678494
	N230	N	0.587998	0.961501	0.318998
	N231	N	0.415252	0.033895	0.321208
	N232	N	0.681935	0.409865	0.966689
	N233	N	0.679511	0.583814	0.038925
	N234	N	0.320318	0.585769	0.967189
	N235	N	0.322480	0.411063	0.038079
	N236	N	0.965460	0.677211	0.415789
	N237	N	0.036274	0.679852	0.592333
	N238	N	0.965658	0.316856	0.590597
	N239	N	0.036653	0.315870	0.414628
	N240	N	0.964442	0.412469	0.682043
	N241	N	0.036322	0.586072	0.685238
	N242	N	0.964516	0.582013	0.324206
	N243	N	0.036794	0.409349	0.321869
	N244	N	0.415574	0.675721	0.964034
	N245	N	0.589377	0.679510	0.035560
	N246	N	0.587899	0.318034	0.964303
	N247	N	0.414247	0.317464	0.036593
	N248	N	0.683595	0.961983	0.410212
	N249	N	0.682184	0.031895	0.587953
	N250	N	0.320393	0.961833	0.586816
	N251	N	0.318666	0.031862	0.410311
	N252	N	0.915781	0.459734	0.180332
	N253	N	0.086318	0.533536	0.181580
	N254	N	0.087472	0.461114	0.823870
	N255	N	0.914507	0.533953	0.825408
	N256	N	0.180328	0.910062	0.463855
	N257	N	0.180686	0.083328	0.537157
	N258	N	0.822041	0.083551	0.464638
	N259	N	0.821198	0.910132	0.536573
	N260	N	0.465053	0.178295	0.911964
	N261	N	0.536978	0.177792	0.086668
	N262	N	0.464655	0.819132	0.084308
	N263	N	0.535873	0.815156	0.909514
	N264	N	0.464712	0.912355	0.177734
	N265	N	0.536033	0.086090	0.180773
	N266	N	0.463995	0.081771	0.821547
	N267	N	0.536732	0.909731	0.818637
	N268	N	0.914903	0.176128	0.465364
	N269	N	0.088472	0.176932	0.537867
	N270	N	0.088418	0.816238	0.465823
	N271	N	0.914973	0.818715	0.538700
	N272	N	0.182182	0.461377	0.915969
	N273	N	0.183258	0.532171	0.092793
	N274	N	0.817096	0.462859	0.093913
	N275	N	0.822742	0.533949	0.919323
	O276	O	0.525122	0.519900	0.483046
	H277	H	0.523778	0.527482	0.478270
	H278	H	0.545086	0.514050	0.475126
	O279	O	0.341768	0.336615	0.621354
	H280	H	0.338332	0.344798	0.616427
	H281	H	0.341971	0.331916	0.614697
	O282	O	0.427403	0.670654	0.563393
	H283	H	0.432559	0.658751	0.559251
	H284	H	0.407286	0.670671	0.552342
	O285	O	0.971196	-0.107738	-0.118399
	H286	H	0.979321	-0.112868	-0.110550
	H287	H	0.973614	-0.121212	-0.127041
	O288	O	-0.045129	-0.070987	0.906274
	H289	H	-0.053038	-0.076802	0.910308
	H290	H	-0.030527	-0.077681	0.917397
	O291	O	0.394657	0.665650	0.325221
	H292	H	0.377896	0.637240	0.321966
	H293	H	0.387996	0.675453	0.363779
	O294	O	0.511337	0.426873	0.702752
	H295	H	0.494399	0.432931	0.710865
	H296	H	0.506350	0.421789	0.705856
	O297	O	1.094069	0.936771	1.027548
	H298	H	1.082777	0.942113	1.029147
	H299	H	1.104422	0.947932	1.037093
	O300	O	0.067660	-0.112064	-0.000692
	H301	H	0.074349	-0.102981	-0.005929
	H302	H	0.071014	-0.108940	0.023033
	O303	O	0.507436	0.454886	0.512625
	H304	H	0.513221	0.443860	0.520558
	H305	H	0.517544	0.459406	0.503883
	O306	O	0.898255	0.099731	-0.084093
	H307	H	0.895291	0.080300	-0.078652
	H308	H	0.898522	0.102189	-0.075122
	O309	O	0.353471	0.485839	0.533034
	H310	H	0.362591	0.500208	0.540887
	H311	H	0.362510	0.474366	0.514782
	O312	O	0.372561	1.360951	-0.506549
	H313	H	0.364724	1.346131	-0.501513
	H314	H	0.384308	1.363016	-0.489907
	O315	O	0.623099	0.330375	0.572054
	H316	H	0.622255	0.317629	0.541417
	H317	H	0.627540	0.314020	0.590711
	O318	O	0.671947	0.582896	0.664578
	H319	H	0.675688	0.545058	0.662960
	H320	H	0.648223	0.590178	0.681365
	O321	O	0.990889	0.090055	0.909834
	H322	H	0.984491	0.089438	0.899023
	H323	H	0.986733	0.097251	0.918564
	O324	O	0.126657	-0.051186	0.959597
	H325	H	0.145118	-0.043078	0.973846
	H326	H	0.131488	-0.040935	0.939077
	O327	O	0.716002	0.468902	0.288651
	H328	H	0.722050	0.484564	0.267348
	H329	H	0.710964	0.477902	0.271043
	O330	O	0.426281	0.499464	0.324469
	H331	H	0.448908	0.501457	0.340692
	H332	H	0.425444	0.501684	0.326303
	O333	O	1.030455	0.861898	1.039918
	H334	H	1.043877	0.863821	1.030140
	H335	H	1.029573	0.852142	1.043689
	O336	O	0.599243	0.686137	0.695440
	H337	H	0.579663	0.668416	0.696308
	H338	H	0.586889	0.692942	0.714275
	O339	O	1.272325	-0.398119	1.272637
	H340	H	1.292052	-0.404936	1.271409
	H341	H	1.246668	-0.388641	1.243860
	O342	O	0.018260	1.158480	1.056567
	H343	H	0.012386	1.159790	1.058077
	H344	H	0.009171	1.147191	1.059830
	O345	O	-0.054125	1.100658	0.944699
	H346	H	-0.059938	1.087856	0.946996
	H347	H	-0.063657	1.101952	0.949918
	O348	O	0.468835	0.561629	0.494306
	H349	H	0.476726	0.558184	0.504204
	H350	H	0.468582	0.577051	0.492178
	O351	O	0.015466	0.085124	-0.015426
	H352	H	0.013523	0.083971	-0.020114
	H353	H	0.006254	0.094023	-0.024210
	O354	O	1.174389	1.107602	0.026518
	H355	H	1.162887	1.120523	0.031262
	H356	H	1.165576	1.118083	0.019830
	O357	O	-0.015212	1.040010	0.175959
	H358	H	-0.028360	1.039218	0.173390
	H359	H	-0.007219	1.045170	0.183881
	O360	O	0.307295	0.686725	0.487151
	H361	H	0.293921	0.684076	0.493364
	H362	H	0.293250	0.673583	0.496800
	O363	O	0.533410	0.575397	0.318793
	H364	H	0.532424	0.590304	0.340817
	H365	H	0.517092	0.598491	0.312828
	O366	O	0.080988	1.060355	0.193712
	H367	H	0.068930	1.066401	0.187099
	H368	H	0.077422	1.050953	0.201506
	O369	O	0.491826	0.671332	0.306346
	H370	H	0.460196	0.677595	0.309898
	H371	H	0.478410	0.685852	0.308773
	O372	O	0.418602	0.464799	0.693433
	H373	H	0.415549	0.457178	0.688120
	H374	H	0.435431	0.471469	0.704965
	O375	O	0.677390	0.282225	0.493181
	H376	H	0.696057	0.264285	0.476499
	H377	H	0.677239	0.280480	0.466155
	O378	O	0.676277	0.504249	0.460147
	H379	H	0.693812	0.505335	0.433932
	H380	H	0.679975	0.501552	0.452810
	O381	O	0.484526	0.333621	0.325700
	H382	H	0.479130	0.333453	0.335090
	H383	H	0.484407	0.336978	0.316167
	O384	O	-0.121185	0.930686	0.972852
	H385	H	-0.115761	0.929944	0.974751
	H386	H	-0.126568	0.925410	0.987064
	O387	O	1.081325	0.736838	-0.131502
	H388	H	1.093960	0.719742	-0.147164
	H389	H	1.072361	0.733761	-0.107365
	O390	O	0.561699	0.504315	0.601395
	H391	H	0.569213	0.497761	0.595089
	H392	H	0.564159	0.526316	0.595326
	O393	O	1.023179	0.144059	1.011594
	H394	H	1.008519	0.151989	1.003316
	H395	H	1.033275	0.145305	1.020448
	O396	O	0.061363	1.137251	0.874191
	H397	H	0.049786	1.152489	0.870299
	H398	H	0.046074	1.124647	0.877764
	O399	O	0.340982	0.473308	0.482920
	H400	H	0.365918	0.465618	0.491712
	H401	H	0.340667	0.467133	0.485751
	O402	O	1.037026	-0.139261	0.937450
	H403	H	1.064759	-0.128484	0.935641
	H404	H	1.038720	-0.157005	0.924897
	O405	O	0.052150	-0.033157	-0.056263
	H406	H	0.041078	-0.007622	-0.061159
	H407	H	0.075782	-0.052394	-0.057229
	O408	O	0.844629	0.952691	1.052521
	H409	H	0.855288	0.951135	1.050012
	H410	H	0.842352	0.944509	1.049871
	O411	O	0.594233	0.446234	0.623389
	H412	H	0.601825	0.429358	0.614513
	H413	H	0.607122	0.450833	0.627865
	O414	O	0.008939	0.096757	1.028397
	H415	H	0.020034	0.095574	1.013525
	H416	H	0.009636	0.095103	1.027722
	O417	O	0.339868	0.312721	0.605496
	H418	H	0.340776	0.320215	0.596171
	H419	H	0.339473	0.292002	0.599715
	O420	O	0.688197	1.709029	-0.448198
	H421	H	0.687761	1.709264	-0.413809
	H422	H	0.708061	1.723948	-0.446260
	O423	O	0.889145	-0.177008	0.021126
	H424	H	0.887329	-0.180679	0.008677
	H425	H	0.903177	-0.173653	0.008729
	O426	O	-0.033293	0.032858	1.001232
	H427	H	-0.039629	0.029243	1.006369
	H428	H	-0.024677	0.041336	1.008460
	O429	O	0.674933	0.309900	0.320772
	H430	H	0.673019	0.339687	0.314102
	H431	H	0.644408	0.314979	0.307371
