data_Molecule from HDF5

_cell_length_a		16.533147
_cell_length_b		16.490932
_cell_length_c		16.504134
_cell_angle_alpha	89.953521
_cell_angle_beta	89.983235
_cell_angle_gamma	90.065724
_symmetry_space_group_name_H-M	'P 1'
_symmetry_Int_Tables_number		1

loop_
	_symmetry_equiv_pos_as_xyz
	x,y,z

loop_
	_atom_site_label
	_atom_site_type_symbol
	_atom_site_fract_x
	_atom_site_fract_y
	_atom_site_fract_z
	H0	H	0.392990	0.842714	0.725646
	H1	H	0.605031	0.156011	0.722428
	H2	H	0.606142	0.841370	0.280473
	H3	H	0.397350	0.157432	0.280530
	H4	H	0.721098	0.396860	0.844653
	H5	H	0.723545	0.606549	0.158104
	H6	H	0.277367	0.609772	0.845321
	H7	H	0.280811	0.397263	0.159611
	H8	H	0.845061	0.722316	0.395707
	H9	H	0.158461	0.723096	0.608650
	H10	H	0.843572	0.281774	0.604303
	H11	H	0.159217	0.279773	0.397253
	H12	H	0.844443	0.397492	0.721638
	H13	H	0.158253	0.607076	0.724302
	H14	H	0.845099	0.605967	0.279034
	H15	H	0.157747	0.393765	0.278721
	H16	H	0.395377	0.723127	0.844926
	H17	H	0.606483	0.722223	0.158471
	H18	H	0.603910	0.281578	0.843992
	H19	H	0.395256	0.279230	0.159296
	H20	H	0.722049	0.841085	0.397209
	H21	H	0.723241	0.155341	0.607019
	H22	H	0.277883	0.842206	0.608467
	H23	H	0.280595	0.157431	0.396702
	H24	H	0.897557	0.342308	0.222327
	H25	H	0.106881	0.658944	0.223472
	H26	H	0.106337	0.343307	0.781013
	H27	H	0.893751	0.657132	0.777826
	H28	H	0.220354	0.896513	0.342419
	H29	H	0.223497	0.104646	0.658681
	H30	H	0.782431	0.102187	0.343379
	H31	H	0.778980	0.893648	0.659231
	H32	H	0.343311	0.220555	0.896989
	H33	H	0.658936	0.219416	0.103275
	H34	H	0.344752	0.776745	0.108465
	H35	H	0.658809	0.778814	0.896905
	H36	H	0.343942	0.894109	0.222967
	H37	H	0.659627	0.102267	0.220025
	H38	H	0.343785	0.104684	0.779987
	H39	H	0.658184	0.895364	0.780895
	H40	H	0.899233	0.218687	0.343836
	H41	H	0.104783	0.218719	0.660377
	H42	H	0.104089	0.779658	0.343631
	H43	H	0.896102	0.777565	0.659103
	H44	H	0.222928	0.343454	0.897492
	H45	H	0.223121	0.659021	0.107146
	H46	H	0.779526	0.343683	0.107722
	H47	H	0.778291	0.657201	0.894688
	H48	H	0.416862	0.109665	0.590153
	H49	H	0.588839	0.885274	0.592690
	H50	H	0.595503	0.112450	0.412525
	H51	H	0.410516	0.883802	0.404479
	H52	H	0.585903	0.412263	0.113431
	H53	H	0.587876	0.590275	0.889435
	H54	H	0.415266	0.591789	0.113646
	H55	H	0.421065	0.407343	0.891006
	H56	H	0.112582	0.588529	0.415861
	H57	H	0.893585	0.579971	0.587296
	H58	H	0.116462	0.408983	0.593997
	H59	H	0.888642	0.414808	0.405873
	H60	H	0.114957	0.408315	0.589836
	H61	H	0.886743	0.589386	0.598513
	H62	H	0.113605	0.586671	0.411136
	H63	H	0.886736	0.403082	0.411222
	H64	H	0.409466	0.586530	0.113545
	H65	H	0.592719	0.588580	0.888812
	H66	H	0.591627	0.403843	0.117286
	H67	H	0.403733	0.405083	0.884801
	H68	H	0.591512	0.112778	0.407485
	H69	H	0.589310	0.886799	0.589276
	H70	H	0.410550	0.109824	0.586695
	H71	H	0.419084	0.890750	0.414993
	H72	H	0.915042	0.613083	0.091234
	H73	H	0.093600	0.387464	0.093781
	H74	H	0.085822	0.611119	0.915651
	H75	H	0.915130	0.388807	0.909855
	H76	H	0.090028	0.914234	0.612108
	H77	H	0.098281	0.089540	0.387132
	H78	H	0.913453	0.081280	0.612152
	H79	H	0.912111	0.912588	0.390372
	H80	H	0.612459	0.084199	0.907075
	H81	H	0.390772	0.084310	0.089701
	H82	H	0.613512	0.912929	0.092559
	H83	H	0.393305	0.913861	0.920738
	H84	H	0.614027	0.908653	0.091107
	H85	H	0.385483	0.090254	0.097845
	H86	H	0.616475	0.096255	0.908992
	H87	H	0.389462	0.916980	0.909233
	H88	H	0.916758	0.095910	0.615129
	H89	H	0.089147	0.084713	0.391682
	H90	H	0.088113	0.911034	0.613522
	H91	H	0.913767	0.910763	0.390272
	H92	H	0.092301	0.613299	0.916152
	H93	H	0.086697	0.389721	0.090909
	H94	H	0.913459	0.611613	0.088128
	H95	H	0.913565	0.390475	0.917022
	H96	H	0.411216	0.112434	0.593064
	H97	H	0.592326	0.885653	0.590996
	H98	H	0.589299	0.110747	0.413409
	H99	H	0.405332	0.886636	0.418329
	H100	H	0.596113	0.413472	0.116015
	H101	H	0.588765	0.585546	0.891007
	H102	H	0.416389	0.584380	0.110684
	H103	H	0.409454	0.421295	0.891402
	H104	H	0.114510	0.591724	0.412026
	H105	H	0.889642	0.595116	0.583750
	H106	H	0.114641	0.412531	0.591439
	H107	H	0.891875	0.412886	0.418511
	H108	H	0.911293	0.613171	0.090536
	H109	H	0.092760	0.389807	0.086715
	H110	H	0.088989	0.613825	0.910305
	H111	H	0.908479	0.387505	0.912307
	H112	H	0.091832	0.911309	0.614337
	H113	H	0.088289	0.095329	0.386979
	H114	H	0.902632	0.090333	0.618181
	H115	H	0.911643	0.910595	0.389665
	H116	H	0.610992	0.089807	0.918361
	H117	H	0.387503	0.095034	0.087818
	H118	H	0.611850	0.911518	0.088229
	H119	H	0.386952	0.905213	0.913686
	C120	C	0.379591	0.007149	0.623031
	C121	C	0.621982	0.990221	0.622900
	C122	C	0.623148	0.007263	0.379974
	C123	C	0.380104	0.991253	0.380312
	C124	C	0.622472	0.378971	0.010915
	C125	C	0.622451	0.621482	0.993341
	C126	C	0.380140	0.621736	0.009437
	C127	C	0.379270	0.379098	0.993009
	C128	C	0.010010	0.621520	0.380377
	C129	C	0.993471	0.621488	0.622856
	C130	C	0.010721	0.378809	0.623226
	C131	C	0.992879	0.378358	0.379535
	C132	C	0.880802	0.508772	0.122597
	C133	C	0.123384	0.493085	0.123433
	C134	C	0.122008	0.509110	0.881382
	C135	C	0.880405	0.492693	0.880582
	C136	C	0.121829	0.879526	0.509323
	C137	C	0.123465	0.121397	0.493033
	C138	C	0.879821	0.120589	0.510667
	C139	C	0.879658	0.878059	0.493897
	C140	C	0.509252	0.121632	0.879935
	C141	C	0.492446	0.121030	0.122824
	C142	C	0.509538	0.878219	0.123207
	C143	C	0.492939	0.878994	0.881371
	C144	C	0.375712	0.889499	0.684624
	C145	C	0.624188	0.108649	0.682935
	C146	C	0.624638	0.888597	0.320448
	C147	C	0.378726	0.110185	0.320671
	C148	C	0.681350	0.378019	0.892030
	C149	C	0.683074	0.624606	0.111258
	C150	C	0.318108	0.626658	0.892332
	C151	C	0.320305	0.378049	0.112119
	C152	C	0.892142	0.681956	0.377372
	C153	C	0.111581	0.682652	0.626088
	C154	C	0.891257	0.320674	0.623844
	C155	C	0.111340	0.318918	0.378209
	C156	C	0.891832	0.378006	0.682268
	C157	C	0.111178	0.625291	0.684145
	C158	C	0.892101	0.624337	0.319287
	C159	C	0.110747	0.375646	0.319170
	C160	C	0.376750	0.683327	0.892091
	C161	C	0.624909	0.681954	0.111271
	C162	C	0.622955	0.320721	0.891679
	C163	C	0.377133	0.319244	0.111789
	C164	C	0.682072	0.888344	0.378669
	C165	C	0.682606	0.108401	0.625368
	C166	C	0.318329	0.889264	0.626346
	C167	C	0.320618	0.110254	0.378280
	C168	C	0.879152	0.389987	0.182454
	C169	C	0.125386	0.611473	0.183759
	C170	C	0.124573	0.390441	0.821225
	C171	C	0.876966	0.610294	0.818881
	C172	C	0.180778	0.877980	0.390018
	C173	C	0.183176	0.123100	0.611609
	C174	C	0.821834	0.121230	0.391020
	C175	C	0.819574	0.875573	0.612188
	C176	C	0.390584	0.180677	0.878353
	C177	C	0.611711	0.179787	0.122944
	C178	C	0.391836	0.816951	0.126538
	C179	C	0.611505	0.818805	0.878825
	C180	C	0.391355	0.875560	0.183399
	C181	C	0.611906	0.121639	0.180812
	C182	C	0.390848	0.123171	0.820058
	C183	C	0.611370	0.876660	0.820978
	C184	C	0.879831	0.179101	0.391234
	C185	C	0.124254	0.179745	0.612406
	C186	C	0.122989	0.819861	0.390618
	C187	C	0.877254	0.817438	0.611971
	C188	C	0.182710	0.390548	0.878802
	C189	C	0.183388	0.611538	0.125967
	C190	C	0.820468	0.390495	0.125542
	C191	C	0.819412	0.610447	0.877093
	C192	C	0.405414	0.089354	0.597451
	C193	C	0.597214	0.907399	0.598238
	C194	C	0.599044	0.090416	0.404190
	C195	C	0.404539	0.908734	0.405343
	C196	C	0.598258	0.403069	0.093960
	C197	C	0.596971	0.595547	0.911167
	C198	C	0.406458	0.595252	0.091495
	C199	C	0.404207	0.404173	0.910467
	C200	C	0.092149	0.596245	0.405685
	C201	C	0.911506	0.595696	0.596996
	C202	C	0.093627	0.402846	0.598854
	C203	C	0.910545	0.403254	0.404424
	C204	C	0.906132	0.591248	0.097327
	C205	C	0.098163	0.410500	0.097855
	C206	C	0.096536	0.591355	0.906765
	C207	C	0.905424	0.410251	0.906130
	C208	C	0.096985	0.904868	0.591829
	C209	C	0.098955	0.096939	0.410079
	C210	C	0.903974	0.096262	0.593472
	C211	C	0.905104	0.903897	0.411574
	C212	C	0.591783	0.097125	0.904487
	C213	C	0.409422	0.096779	0.098592
	C214	C	0.591643	0.903701	0.097734
	C215	C	0.411214	0.904562	0.907157
	Zn216	Zn	0.500616	-0.001071	0.752073
	Zn217	Zn	0.501557	-0.000686	0.251448
	Zn218	Zn	0.751327	0.500480	0.001864
	Zn219	Zn	0.251644	0.501627	0.001574
	Zn220	Zn	0.001416	0.749810	0.502327
	Zn221	Zn	0.001676	0.249679	0.501968
	Zn222	Zn	0.001800	0.500825	0.751308
	Zn223	Zn	0.001590	0.500659	0.251509
	Zn224	Zn	0.501117	0.749838	0.001353
	Zn225	Zn	0.500515	0.250449	0.001590
	Zn226	Zn	0.751224	-0.001178	0.501808
	Zn227	Zn	0.251486	-0.000795	0.501462
	N228	N	0.413249	0.963876	0.682659
	N229	N	0.587306	0.034100	0.681532
	N230	N	0.588660	0.963730	0.321218
	N231	N	0.414886	0.035358	0.321738
	N232	N	0.681366	0.413358	0.967389
	N233	N	0.681572	0.587438	0.036783
	N234	N	0.320210	0.588989	0.966608
	N235	N	0.321227	0.414536	0.037235
	N236	N	0.966309	0.680359	0.414557
	N237	N	0.037087	0.680537	0.588925
	N238	N	0.966296	0.320738	0.587968
	N239	N	0.036843	0.320193	0.414963
	N240	N	0.967129	0.413204	0.682021
	N241	N	0.036859	0.588187	0.682416
	N242	N	0.966612	0.587586	0.320820
	N243	N	0.036078	0.411861	0.319742
	N244	N	0.414471	0.680293	0.966072
	N245	N	0.588047	0.680096	0.036788
	N246	N	0.587372	0.320824	0.966761
	N247	N	0.413015	0.319701	0.036818
	N248	N	0.681302	0.963258	0.414949
	N249	N	0.681427	0.033587	0.588910
	N250	N	0.320692	0.963512	0.588657
	N251	N	0.321343	0.035307	0.414676
	N252	N	0.916003	0.464643	0.180571
	N253	N	0.089077	0.536510	0.182577
	N254	N	0.087785	0.465034	0.822554
	N255	N	0.914526	0.536071	0.821262
	N256	N	0.180343	0.914110	0.465074
	N257	N	0.182830	0.087710	0.536376
	N258	N	0.821336	0.085769	0.466336
	N259	N	0.821013	0.912344	0.537582
	N260	N	0.465216	0.179821	0.914769
	N261	N	0.536337	0.179684	0.087778
	N262	N	0.466334	0.818274	0.089731
	N263	N	0.536929	0.820260	0.915799
	N264	N	0.465591	0.912929	0.181344
	N265	N	0.536799	0.086025	0.180939
	N266	N	0.465761	0.087055	0.820968
	N267	N	0.536820	0.913189	0.822359
	N268	N	0.914971	0.179051	0.466542
	N269	N	0.088002	0.179008	0.537526
	N270	N	0.087388	0.820578	0.465737
	N271	N	0.913990	0.818986	0.537318
	N272	N	0.181223	0.465321	0.915653
	N273	N	0.182203	0.536844	0.089155
	N274	N	0.821327	0.465279	0.088945
	N275	N	0.821463	0.536332	0.914984
	O276	O	0.710629	0.470089	0.291871
	H277	H	0.714603	0.477891	0.305376
	H278	H	0.719696	0.476818	0.287907
	O279	O	0.520120	0.692991	0.506789
	H280	H	0.505487	0.691443	0.484321
	H281	H	0.513739	0.695173	0.509874
	O282	O	0.796296	0.797933	0.093553
	H283	H	0.790705	0.800239	0.091518
	H284	H	0.775020	0.780115	0.110751
	O285	O	0.523121	0.438323	0.344464
	H286	H	0.517559	0.431133	0.357314
	H287	H	0.523981	0.441186	0.344562
	O288	O	-0.179140	0.013393	-0.050494
	H289	H	-0.185512	0.026773	-0.058893
	H290	H	-0.186056	0.024888	-0.049091
	O291	O	0.937692	1.018515	-0.011420
	H292	H	0.934022	1.026376	-0.007971
	H293	H	0.925137	1.015835	-0.013926
	O294	O	0.204214	0.813475	-0.007745
	H295	H	0.211400	0.823833	0.014863
	H296	H	0.202507	0.810065	-0.003583
	O297	O	0.338627	0.532533	0.366353
	H298	H	0.336082	0.520563	0.375694
	H299	H	0.331473	0.534730	0.366532
	O300	O	0.462500	0.542005	0.662182
	H301	H	0.459257	0.542422	0.659672
	H302	H	0.452235	0.545750	0.664873
	O303	O	0.319761	0.513839	0.684163
	H304	H	0.336634	0.489115	0.682907
	H305	H	0.289478	0.511144	0.710377
	O306	O	0.125000	1.094044	1.005733
	H307	H	0.115329	1.085405	1.016600
	H308	H	0.141317	1.103221	1.015394
	O309	O	0.716849	0.701892	0.532068
	H310	H	0.719596	0.722787	0.519716
	H311	H	0.723430	0.703875	0.544305
	O312	O	0.491470	0.612920	0.299990
	H313	H	0.485967	0.621927	0.292042
	H314	H	0.499164	0.597762	0.293708
	O315	O	-0.116520	-0.164965	1.178675
	H316	H	-0.136424	-0.143617	1.171920
	H317	H	-0.106586	-0.171781	1.193627
	O318	O	0.019296	0.833415	0.192181
	H319	H	0.024414	0.832654	0.190913
	H320	H	0.010940	0.813361	0.194140
	O321	O	0.500200	0.676538	0.392719
	H322	H	0.513237	0.684146	0.384919
	H323	H	0.488652	0.668789	0.380294
	O324	O	0.483184	0.288878	0.494571
	H325	H	0.484981	0.299056	0.495544
	H326	H	0.493265	0.288656	0.490950
	O327	O	0.787090	0.216912	0.975748
	H328	H	0.776392	0.220720	0.957473
	H329	H	0.773014	0.226142	0.946537
	O330	O	0.871069	-0.003869	0.085623
	H331	H	0.865881	-0.013408	0.093494
	H332	H	0.869266	-0.016872	0.083794
	O333	O	0.893020	0.826704	0.900335
	H334	H	0.889855	0.834267	0.900726
	H335	H	0.894361	0.826872	0.915907
	O336	O	0.803919	0.201796	0.801594
	H337	H	0.796605	0.216215	0.778220
	H338	H	0.841585	0.196596	0.794863
	O339	O	0.302950	0.308023	0.697446
	H340	H	0.341597	0.306177	0.696545
	H341	H	0.282455	0.286846	0.687774
	O342	O	0.661908	0.517330	0.519547
	H343	H	0.664698	0.506325	0.527394
	H344	H	0.660410	0.527203	0.533456
	O345	O	0.201542	0.197126	0.203994
	H346	H	0.169959	0.182573	0.207984
	H347	H	0.212994	0.217983	0.208997
	O348	O	0.891467	-0.069157	0.808855
	H349	H	0.901141	-0.061138	0.812161
	H350	H	0.895773	-0.080549	0.797799
	O351	O	1.186182	0.989861	0.162214
	H352	H	1.190094	0.996542	0.174526
	H353	H	1.192628	1.002580	0.168777
	O354	O	0.684290	0.299026	0.319263
	H355	H	0.676859	0.332340	0.315666
	H356	H	0.689081	0.280933	0.296022
	O357	O	0.972644	0.795082	0.982549
	H358	H	0.972520	0.794279	0.970516
	H359	H	0.977228	0.784756	0.961234
	O360	O	0.299453	0.279504	0.528199
	H361	H	0.284362	0.256729	0.523983
	H362	H	0.310078	0.269716	0.532434
	O363	O	0.556073	0.504114	0.528126
	H364	H	0.541965	0.489543	0.545307
	H365	H	0.565171	0.524860	0.532644
	O366	O	0.899922	-0.002487	0.839102
	H367	H	0.910757	-0.008811	0.850653
	H368	H	0.888501	0.001010	0.817182
	O369	O	0.474505	0.342307	0.286586
	H370	H	0.478478	0.327909	0.260049
	H371	H	0.481111	0.341513	0.290138
	O372	O	0.468721	0.291821	0.711290
	H373	H	0.481084	0.272439	0.706157
	H374	H	0.473050	0.286707	0.713480
	O375	O	0.194604	1.006595	0.856244
	H376	H	0.194902	0.996026	0.867475
	H377	H	0.198702	1.005054	0.855241
	O378	O	0.715247	0.281991	0.432181
	H379	H	0.727460	0.262013	0.423813
	H380	H	0.720612	0.291736	0.403725
	O381	O	1.149463	0.019234	0.048027
	H382	H	1.125521	0.029053	0.054108
	H383	H	1.159748	0.040834	0.060628
	O384	O	-0.032922	0.206956	0.792155
	H385	H	-0.019293	0.225161	0.773761
	H386	H	-0.012731	0.199398	0.802898
	O387	O	0.070667	0.807310	0.799656
	H388	H	0.080104	0.799107	0.817962
	H389	H	0.077012	0.814230	0.792839
	O390	O	0.190098	0.135129	0.861871
	H391	H	0.176135	0.121272	0.870635
	H392	H	0.178808	0.145655	0.888290
	O393	O	0.943240	0.980466	0.126483
	H394	H	0.951089	0.980407	0.124125
	H395	H	0.945940	0.965123	0.114667
	O396	O	0.449463	0.521078	0.412907
	H397	H	0.450225	0.523155	0.405478
	H398	H	0.444510	0.517493	0.430894
	O399	O	0.664092	0.344241	0.694035
	H400	H	0.657606	0.353963	0.688332
	H401	H	0.656580	0.358311	0.683243
	O402	O	0.030245	0.222224	0.971017
	H403	H	0.026162	0.227782	0.978581
	H404	H	0.019794	0.224936	0.980435
	O405	O	0.140858	0.139530	0.053823
	H406	H	0.150679	0.155496	0.067552
	H407	H	0.144728	0.139025	0.056414
	O408	O	0.693041	0.683674	0.699716
	H409	H	0.681472	0.694726	0.718158
	H410	H	0.677678	0.693549	0.671569
	O411	O	0.398481	0.584376	0.569597
	H412	H	0.387701	0.562855	0.579059
	H413	H	0.388896	0.581491	0.567309
	O414	O	0.313132	0.698050	0.312777
	H415	H	0.336324	0.707326	0.311744
	H416	H	0.309606	0.649847	0.302102
	O417	O	0.455613	0.487217	0.541428
	H418	H	0.444825	0.490603	0.551906
	H419	H	0.469700	0.491593	0.553545
	O420	O	0.643205	0.633527	0.315534
	H421	H	0.630570	0.621210	0.327048
	H422	H	0.631131	0.623364	0.326321
	O423	O	-0.104873	1.173016	0.129663
	H424	H	-0.109504	1.155636	0.113425
	H425	H	-0.107430	1.168643	0.125151
	O426	O	1.025112	0.977030	0.872323
	H427	H	1.018582	0.960618	0.882112
	H428	H	1.026100	0.972338	0.861563
	O429	O	0.280782	0.721526	0.472276
	H430	H	0.254853	0.744519	0.473112
	H431	H	0.283558	0.718164	0.432695
	O432	O	0.351935	0.527628	0.534650
	H433	H	0.348634	0.533120	0.558200
	H434	H	0.347367	0.544629	0.522044
	O435	O	0.089018	0.151963	0.194335
	H436	H	0.076777	0.142095	0.192365
	H437	H	0.079634	0.158222	0.180298
	O438	O	1.072262	0.012459	0.201221
	H439	H	1.070704	0.002100	0.203906
	H440	H	1.080355	0.014959	0.210419
	O441	O	0.315321	0.347987	0.340794
	H442	H	0.305850	0.363870	0.354411
	H443	H	0.328934	0.349108	0.353586
	O444	O	0.181845	0.881382	0.815831
	H445	H	0.176558	0.903116	0.799638
	H446	H	0.182487	0.871494	0.857563
	O447	O	0.527874	0.663271	0.711437
	H448	H	0.504976	0.665349	0.707344
	H449	H	0.517063	0.668345	0.705649
	O450	O	0.335589	0.459639	0.502879
	H451	H	0.332705	0.448708	0.519783
	H452	H	0.333231	0.461957	0.518942
	O453	O	0.709774	0.504879	0.589462
	H454	H	0.693182	0.499641	0.598920
	H455	H	0.721211	0.512792	0.603707
	O456	O	0.790071	-0.014682	0.112090
	H457	H	0.779552	-0.007226	0.109865
	H458	H	0.785604	-0.019613	0.113089
	O459	O	0.590315	0.308221	0.569533
	H460	H	0.599618	0.306839	0.555901
	H461	H	0.594813	0.306092	0.564043
	O462	O	0.664103	0.496834	0.624803
	H463	H	0.660068	0.497923	0.635090
	H464	H	0.672411	0.521174	0.633899
	O465	O	0.871446	-0.059641	0.081863
	H466	H	0.883979	-0.065837	0.075143
	H467	H	0.871071	-0.057985	0.071257
