data_Molecule from HDF5

_cell_length_a		16.292642
_cell_length_b		16.325284
_cell_length_c		16.233251
_cell_angle_alpha	90.265654
_cell_angle_beta	90.083435
_cell_angle_gamma	89.788629
_symmetry_space_group_name_H-M	'P 1'
_symmetry_Int_Tables_number		1

loop_
	_symmetry_equiv_pos_as_xyz
	x,y,z

loop_
	_atom_site_label
	_atom_site_type_symbol
	_atom_site_fract_x
	_atom_site_fract_y
	_atom_site_fract_z
	H0	H	0.398168	0.837411	0.706219
	H1	H	0.594389	0.164143	0.709050
	H2	H	0.596263	0.837700	0.275671
	H3	H	0.394760	0.163907	0.275179
	H4	H	0.713252	0.400341	0.827538
	H5	H	0.713087	0.601125	0.154866
	H6	H	0.281237	0.601952	0.827828
	H7	H	0.281265	0.401297	0.153610
	H8	H	0.834296	0.716691	0.390211
	H9	H	0.159379	0.717520	0.592778
	H10	H	0.833711	0.287660	0.589792
	H11	H	0.159420	0.281771	0.388704
	H12	H	0.833314	0.403968	0.704715
	H13	H	0.159751	0.601160	0.706799
	H14	H	0.834102	0.598624	0.276564
	H15	H	0.160925	0.400190	0.275430
	H16	H	0.398471	0.715292	0.827172
	H17	H	0.597240	0.716294	0.154655
	H18	H	0.598524	0.284107	0.828110
	H19	H	0.397648	0.286181	0.153889
	H20	H	0.713502	0.838150	0.390820
	H21	H	0.711771	0.164669	0.593018
	H22	H	0.280445	0.838626	0.592440
	H23	H	0.279959	0.164389	0.393077
	H24	H	0.899333	0.337931	0.204741
	H25	H	0.097359	0.663520	0.208445
	H26	H	0.096095	0.338754	0.774285
	H27	H	0.898169	0.664929	0.777606
	H28	H	0.212231	0.900469	0.328074
	H29	H	0.211678	0.101856	0.655575
	H30	H	0.780576	0.100278	0.327657
	H31	H	0.783648	0.904303	0.656018
	H32	H	0.336022	0.219503	0.889426
	H33	H	0.661315	0.217133	0.092774
	H34	H	0.334241	0.785771	0.090516
	H35	H	0.660912	0.785352	0.890943
	H36	H	0.333454	0.902488	0.205569
	H37	H	0.660376	0.099833	0.208459
	H38	H	0.332714	0.098589	0.779338
	H39	H	0.660273	0.902696	0.777184
	H40	H	0.895067	0.216416	0.327324
	H41	H	0.095076	0.217354	0.655246
	H42	H	0.096383	0.785193	0.328035
	H43	H	0.896575	0.786547	0.654693
	H44	H	0.213890	0.339032	0.888759
	H45	H	0.213037	0.663960	0.091944
	H46	H	0.782762	0.338945	0.089664
	H47	H	0.781583	0.664237	0.891924
	H48	H	0.404009	0.114637	0.580519
	H49	H	0.579893	0.889385	0.583609
	H50	H	0.590779	0.116132	0.401486
	H51	H	0.404690	0.884081	0.392187
	H52	H	0.595091	0.408859	0.109368
	H53	H	0.590409	0.604395	0.871002
	H54	H	0.410952	0.599896	0.107775
	H55	H	0.402039	0.414212	0.874273
	H56	H	0.114044	0.596710	0.400366
	H57	H	0.881196	0.595980	0.578842
	H58	H	0.114672	0.405620	0.588947
	H59	H	0.883019	0.406330	0.404078
	H60	H	0.112441	0.405237	0.575312
	H61	H	0.881637	0.591094	0.586015
	H62	H	0.112120	0.591517	0.402337
	H63	H	0.882637	0.415150	0.396081
	H64	H	0.398484	0.595037	0.109464
	H65	H	0.599789	0.586907	0.873305
	H66	H	0.588327	0.414570	0.105414
	H67	H	0.413122	0.411905	0.877952
	H68	H	0.588013	0.116973	0.397693
	H69	H	0.596917	0.886033	0.574899
	H70	H	0.400856	0.117874	0.587084
	H71	H	0.410260	0.888880	0.401905
	H72	H	0.904355	0.615188	0.076504
	H73	H	0.096813	0.384796	0.080578
	H74	H	0.091108	0.617735	0.898804
	H75	H	0.899725	0.383017	0.893226
	H76	H	0.090551	0.909171	0.608933
	H77	H	0.083332	0.089253	0.377922
	H78	H	0.900442	0.097860	0.609697
	H79	H	0.905474	0.901480	0.373233
	H80	H	0.613951	0.093793	0.899662
	H81	H	0.381618	0.094932	0.083877
	H82	H	0.608126	0.912442	0.073842
	H83	H	0.379119	0.899968	0.901246
	H84	H	0.613123	0.914989	0.092100
	H85	H	0.382597	0.095587	0.081195
	H86	H	0.612670	0.092151	0.902623
	H87	H	0.383675	0.912010	0.902770
	H88	H	0.904353	0.091026	0.606077
	H89	H	0.086902	0.097532	0.374015
	H90	H	0.088202	0.911922	0.607575
	H91	H	0.897301	0.911765	0.373523
	H92	H	0.088982	0.617555	0.898770
	H93	H	0.087760	0.385142	0.087581
	H94	H	0.898231	0.620240	0.087819
	H95	H	0.910114	0.385730	0.894496
	H96	H	0.408434	0.115549	0.586622
	H97	H	0.594509	0.881982	0.593328
	H98	H	0.586215	0.115689	0.401995
	H99	H	0.399221	0.885536	0.403326
	H100	H	0.586174	0.405146	0.107116
	H101	H	0.579958	0.588669	0.878626
	H102	H	0.408567	0.587125	0.104820
	H103	H	0.406453	0.402934	0.872742
	H104	H	0.113500	0.592320	0.397286
	H105	H	0.878052	0.598761	0.585813
	H106	H	0.110328	0.416696	0.581883
	H107	H	0.879053	0.403799	0.392748
	H108	H	0.911069	0.616783	0.087888
	H109	H	0.086477	0.387746	0.076382
	H110	H	0.090212	0.617537	0.900890
	H111	H	0.903261	0.386111	0.902826
	H112	H	0.087026	0.908277	0.607316
	H113	H	0.093520	0.090418	0.375174
	H114	H	0.908491	0.098033	0.607103
	H115	H	0.909580	0.913121	0.377891
	H116	H	0.613181	0.090023	0.898701
	H117	H	0.382920	0.092715	0.082691
	H118	H	0.616699	0.898016	0.084056
	H119	H	0.378397	0.908233	0.891784
	C120	C	0.375137	0.008906	0.613717
	C121	C	0.619054	0.992990	0.613951
	C122	C	0.617916	0.008772	0.370373
	C123	C	0.374301	0.993394	0.369697
	C124	C	0.619643	0.379539	-0.000625
	C125	C	0.619048	0.622457	0.982536
	C126	C	0.376727	0.622663	-0.000635
	C127	C	0.376981	0.380425	0.982646
	C128	C	0.005726	0.622406	0.369993
	C129	C	0.988106	0.624000	0.613084
	C130	C	0.005073	0.380736	0.611482
	C131	C	0.988998	0.378090	0.367983
	C132	C	0.876347	0.509689	0.112318
	C133	C	0.119714	0.492973	0.112178
	C134	C	0.119061	0.510053	0.868849
	C135	C	0.875369	0.493110	0.868918
	C136	C	0.118145	0.879775	0.499930
	C137	C	0.117241	0.122180	0.483634
	C138	C	0.874462	0.123849	0.499652
	C139	C	0.875475	0.880487	0.483322
	C140	C	0.505799	0.121736	0.870880
	C141	C	0.489698	0.123499	0.113052
	C142	C	0.505407	0.879404	0.112858
	C143	C	0.488577	0.878217	0.869350
	C144	C	0.377633	0.886168	0.668584
	C145	C	0.615852	0.115458	0.670725
	C146	C	0.616555	0.886461	0.313805
	C147	C	0.375240	0.115313	0.313773
	C148	C	0.675407	0.380580	0.876530
	C149	C	0.674882	0.620816	0.105876
	C150	C	0.320114	0.620986	0.876495
	C151	C	0.319772	0.381418	0.104940
	C152	C	0.882984	0.678346	0.370852
	C153	C	0.110685	0.679511	0.612032
	C154	C	0.882241	0.325766	0.609688
	C155	C	0.110925	0.320781	0.369281
	C156	C	0.882247	0.383639	0.666800
	C157	C	0.110852	0.621619	0.668868
	C158	C	0.882841	0.619631	0.314250
	C159	C	0.111864	0.379716	0.313079
	C160	C	0.378215	0.677672	0.876292
	C161	C	0.617657	0.678466	0.105722
	C162	C	0.618299	0.322633	0.876784
	C163	C	0.377756	0.324355	0.105265
	C164	C	0.674697	0.886647	0.371191
	C165	C	0.674327	0.115621	0.613279
	C166	C	0.318915	0.886895	0.612066
	C167	C	0.317675	0.115399	0.372031
	C168	C	0.878910	0.386780	0.166900
	C169	C	0.117761	0.615140	0.169399
	C170	C	0.116598	0.387400	0.812508
	C171	C	0.877725	0.615805	0.814732
	C172	C	0.174025	0.880934	0.377052
	C173	C	0.173436	0.121633	0.606741
	C174	C	0.818579	0.120846	0.376511
	C175	C	0.820641	0.883523	0.606641
	C176	C	0.383798	0.179726	0.870892
	C177	C	0.612427	0.178914	0.112306
	C178	C	0.382855	0.823906	0.110779
	C179	C	0.611861	0.823280	0.871304
	C180	C	0.382446	0.881870	0.168116
	C181	C	0.612031	0.120845	0.169791
	C182	C	0.382332	0.119786	0.816058
	C183	C	0.611492	0.880861	0.814024
	C184	C	0.875566	0.178671	0.376330
	C185	C	0.115572	0.178947	0.606582
	C186	C	0.116634	0.823295	0.376977
	C187	C	0.876880	0.824945	0.606113
	C188	C	0.175289	0.387645	0.869319
	C189	C	0.175659	0.615057	0.112175
	C190	C	0.820616	0.387369	0.110122
	C191	C	0.819522	0.615443	0.871466
	C192	C	0.397798	0.094017	0.591268
	C193	C	0.596920	0.907833	0.590723
	C194	C	0.594811	0.094189	0.393681
	C195	C	0.397905	0.908143	0.392464
	C196	C	0.596538	0.402660	0.085185
	C197	C	0.596674	0.600000	0.896698
	C198	C	0.399370	0.600447	0.085261
	C199	C	0.400401	0.403013	0.897191
	C200	C	0.091231	0.600052	0.393158
	C201	C	0.902612	0.601831	0.590132
	C202	C	0.090169	0.402665	0.588697
	C203	C	0.903711	0.401675	0.390838
	C204	C	0.898192	0.595196	0.090603
	C205	C	0.096949	0.407922	0.088493
	C206	C	0.096654	0.595489	0.892504
	C207	C	0.897714	0.407166	0.890629
	C208	C	0.095211	0.902990	0.585674
	C209	C	0.094614	0.099201	0.398148
	C210	C	0.897638	0.102030	0.585489
	C211	C	0.897755	0.902428	0.397067
	C212	C	0.591222	0.098661	0.893753
	C213	C	0.404473	0.101209	0.089495
	C214	C	0.590525	0.901893	0.090116
	C215	C	0.402669	0.900286	0.891875
	Zn216	Zn	0.496454	0.000311	0.742660
	Zn217	Zn	0.496781	0.001022	0.241344
	Zn218	Zn	0.747407	0.501457	-0.009033
	Zn219	Zn	0.248273	0.501563	-0.009400
	Zn220	Zn	-0.003052	0.751812	0.491295
	Zn221	Zn	-0.003367	0.251317	0.490745
	Zn222	Zn	-0.003209	0.501905	0.740449
	Zn223	Zn	-0.001771	0.500773	0.240927
	Zn224	Zn	0.497873	0.750829	-0.008702
	Zn225	Zn	0.498041	0.251477	-0.008951
	Zn226	Zn	0.747070	0.001688	0.491612
	Zn227	Zn	0.246053	0.001204	0.492450
	N228	N	0.411973	0.963144	0.669791
	N229	N	0.582193	0.038356	0.671405
	N230	N	0.582038	0.963597	0.313277
	N231	N	0.409776	0.038406	0.312367
	N232	N	0.676201	0.415399	0.953816
	N233	N	0.675811	0.586708	0.028319
	N234	N	0.319049	0.587391	0.954176
	N235	N	0.319262	0.415637	0.027629
	N236	N	0.960295	0.680088	0.404950
	N237	N	0.033212	0.681273	0.578020
	N238	N	0.959459	0.323893	0.575733
	N239	N	0.033358	0.319650	0.402556
	N240	N	0.959512	0.417286	0.668016
	N241	N	0.033819	0.587840	0.669667
	N242	N	0.960198	0.585679	0.313511
	N243	N	0.034874	0.414585	0.312042
	N244	N	0.412666	0.678838	0.953549
	N245	N	0.583594	0.679543	0.028105
	N246	N	0.584503	0.321825	0.954342
	N247	N	0.412476	0.323466	0.028130
	N248	N	0.675792	0.963826	0.405539
	N249	N	0.676345	0.038576	0.578727
	N250	N	0.317454	0.964089	0.578636
	N251	N	0.316851	0.038374	0.405878
	N252	N	0.913027	0.463791	0.168451
	N253	N	0.083835	0.538095	0.169797
	N254	N	0.082263	0.464528	0.812284
	N255	N	0.911575	0.538466	0.812971
	N256	N	0.175277	0.915096	0.454632
	N257	N	0.174778	0.087063	0.529315
	N258	N	0.817828	0.087607	0.454101
	N259	N	0.819687	0.917440	0.529132
	N260	N	0.461534	0.181122	0.904096
	N261	N	0.535237	0.180497	0.077578
	N262	N	0.460169	0.822311	0.077150
	N263	N	0.534276	0.821511	0.904832
	N264	N	0.459539	0.915912	0.169439
	N265	N	0.534776	0.087188	0.170449
	N266	N	0.459083	0.084281	0.815917
	N267	N	0.534118	0.914535	0.813017
	N268	N	0.909761	0.180663	0.453983
	N269	N	0.081414	0.179484	0.529085
	N270	N	0.082765	0.822494	0.454543
	N271	N	0.910367	0.822961	0.528487
	N272	N	0.176979	0.464788	0.903692
	N273	N	0.176798	0.538169	0.077173
	N274	N	0.818875	0.464645	0.076973
	N275	N	0.817861	0.537907	0.904431
	O276	O	-0.005154	-0.016688	-0.003724
	H277	H	-0.003092	-0.014335	-0.006571
	H278	H	-0.000528	-0.010093	-0.000577
	O279	O	0.515347	0.608879	0.505291
	H280	H	0.514584	0.597721	0.507230
	H281	H	0.516521	0.611897	0.507620
	O282	O	0.451290	0.595929	0.545442
	H283	H	0.455356	0.589190	0.544889
	H284	H	0.441528	0.590815	0.546412
	O285	O	0.024516	1.050017	0.997129
	H286	H	0.026148	1.047111	1.003130
	H287	H	0.018151	1.056783	0.994149
	O288	O	0.542962	0.509805	0.643480
	H289	H	0.548880	0.516581	0.646860
	H290	H	0.546210	0.507917	0.639592
	O291	O	0.539260	0.472573	1.407501
	H292	H	0.539403	0.485554	1.415621
	H293	H	0.535790	0.471555	1.390803
	O294	O	0.992687	1.059578	1.025991
	H295	H	0.991647	1.061320	1.031984
	H296	H	0.998486	1.062823	1.026117
	O297	O	0.972388	-0.076459	0.976833
	H298	H	0.964845	-0.079155	0.977155
	H299	H	0.978364	-0.075693	0.976204
	O300	O	0.397033	0.531446	0.433199
	H301	H	0.401641	0.543177	0.443560
	H302	H	0.388214	0.540106	0.422677
	O303	O	0.987291	-0.034785	-0.021941
	H304	H	0.988453	-0.016404	-0.025507
	H305	H	0.984126	-0.034257	-0.026626
	O306	O	0.073465	1.014731	1.021328
	H307	H	0.078051	1.006403	1.033030
	H308	H	0.081565	1.020172	1.029811
	O309	O	0.369327	0.463390	0.510364
	H310	H	0.366079	0.457451	0.517836
	H311	H	0.375359	0.473669	0.517460
	O312	O	1.362425	0.461069	1.559254
	H313	H	1.354650	0.464381	1.549190
	H314	H	1.361757	0.455817	1.567660
	O315	O	0.396720	0.580837	0.481123
	H316	H	0.402228	0.572866	0.481586
	H317	H	0.387302	0.588894	0.480268
	O318	O	0.516966	0.602447	0.524926
	H319	H	0.516048	0.604748	0.517638
	H320	H	0.514085	0.604251	0.515472
	O321	O	1.005589	1.026973	0.998340
	H322	H	0.999361	1.016882	0.997186
	H323	H	1.014524	1.027405	1.002009
	O324	O	0.528616	0.432522	0.459362
	H325	H	0.522483	0.433824	0.454300
	H326	H	0.524932	0.424232	0.446104
	O327	O	0.588236	0.421744	0.455710
	H328	H	0.586786	0.423920	0.448406
	H329	H	0.593782	0.411109	0.450173
	O330	O	1.027123	0.038702	0.997229
	H331	H	1.025145	0.032634	0.996043
	H332	H	1.029802	0.044858	0.995713
	O333	O	0.954291	1.014218	0.000914
	H334	H	0.943095	1.008038	-0.002639
	H335	H	0.945231	1.008639	-0.001489
	O336	O	0.371962	0.608932	0.346473
	H337	H	0.377650	0.601646	0.351004
	H338	H	0.380708	0.614103	0.342241
	O339	O	0.540469	0.501677	0.603542
	H340	H	0.559674	0.505340	0.606680
	H341	H	0.545118	0.488754	0.608469
	O342	O	0.018562	1.008571	0.017620
	H343	H	0.016246	1.010308	0.011929
	H344	H	0.015503	1.015291	0.017218
	O345	O	0.071821	0.072341	0.061266
	H346	H	0.074302	0.070790	0.069088
	H347	H	0.065790	0.075180	0.060760
	O348	O	0.600407	0.459101	0.352960
	H349	H	0.620657	0.460897	0.355305
	H350	H	0.596722	0.451603	0.348054
	O351	O	0.474529	0.415184	0.451759
	H352	H	0.468486	0.414223	0.455240
	H353	H	0.462446	0.408638	0.450642
	O354	O	0.554074	0.467097	0.451148
	H355	H	0.549361	0.476736	0.453424
	H356	H	0.561688	0.479603	0.451474
	O357	O	0.490157	0.466328	0.528453
	H358	H	0.480924	0.460992	0.529064
	H359	H	0.476469	0.456647	0.527720
	O360	O	-0.026926	-0.031219	0.011567
	H361	H	-0.011862	-0.028387	0.009670
	H362	H	-0.025331	-0.037611	0.014407
	O363	O	0.504776	0.496299	0.409439
	H364	H	0.503058	0.499231	0.415858
	H365	H	0.501495	0.498615	0.423136
	O366	O	0.011411	0.034045	0.955812
	H367	H	0.002157	0.035428	0.960879
	H368	H	0.017298	0.038953	0.953170
	O369	O	0.556052	0.389080	0.490157
	H370	H	0.561068	0.399609	0.494322
	H371	H	0.557277	0.385409	0.487012
