data_Molecule from HDF5

_cell_length_a		16.469989
_cell_length_b		16.546531
_cell_length_c		16.533964
_cell_angle_alpha	89.946154
_cell_angle_beta	90.080916
_cell_angle_gamma	90.061857
_symmetry_space_group_name_H-M	'P 1'
_symmetry_Int_Tables_number		1

loop_
	_symmetry_equiv_pos_as_xyz
	x,y,z

loop_
	_atom_site_label
	_atom_site_type_symbol
	_atom_site_fract_x
	_atom_site_fract_y
	_atom_site_fract_z
	H0	H	0.370114	0.834789	0.698549
	H1	H	0.580853	0.147465	0.699804
	H2	H	0.581284	0.834580	0.256837
	H3	H	0.364727	0.146092	0.249783
	H4	H	0.694718	0.388606	0.820009
	H5	H	0.700084	0.597001	0.134109
	H6	H	0.258499	0.590802	0.820502
	H7	H	0.252341	0.380588	0.136356
	H8	H	0.818588	0.709929	0.375610
	H9	H	0.135204	0.711832	0.581925
	H10	H	0.819099	0.271661	0.581026
	H11	H	0.133755	0.266835	0.369291
	H12	H	0.819389	0.387710	0.698720
	H13	H	0.136567	0.594528	0.697226
	H14	H	0.819080	0.593903	0.258265
	H15	H	0.134374	0.384084	0.255494
	H16	H	0.372298	0.709405	0.820794
	H17	H	0.582287	0.712140	0.134489
	H18	H	0.580230	0.270358	0.822147
	H19	H	0.368992	0.265052	0.135545
	H20	H	0.697771	0.834947	0.373544
	H21	H	0.698595	0.146812	0.584398
	H22	H	0.254987	0.834719	0.580513
	H23	H	0.252138	0.148680	0.369271
	H24	H	0.867866	0.334188	0.202353
	H25	H	0.081441	0.647899	0.198809
	H26	H	0.080375	0.331870	0.759388
	H27	H	0.875007	0.648402	0.758600
	H28	H	0.198161	0.885621	0.320216
	H29	H	0.195879	0.095695	0.634918
	H30	H	0.753370	0.095654	0.319626
	H31	H	0.757781	0.888907	0.636781
	H32	H	0.319919	0.213910	0.872666
	H33	H	0.635556	0.212159	0.085859
	H34	H	0.318503	0.769045	0.083001
	H35	H	0.633156	0.769601	0.872669
	H36	H	0.319113	0.883689	0.200200
	H37	H	0.633934	0.096771	0.201626
	H38	H	0.319120	0.097098	0.757187
	H39	H	0.634230	0.888052	0.759339
	H40	H	0.867649	0.214559	0.319962
	H41	H	0.080178	0.212132	0.633837
	H42	H	0.080766	0.770178	0.320372
	H43	H	0.872011	0.770573	0.635994
	H44	H	0.195041	0.331090	0.878201
	H45	H	0.198468	0.647607	0.083207
	H46	H	0.753363	0.334122	0.084731
	H47	H	0.758707	0.649008	0.875010
	H48	H	0.386911	0.104396	0.568063
	H49	H	0.570510	0.875083	0.573469
	H50	H	0.558024	0.099764	0.394347
	H51	H	0.381251	0.880856	0.394508
	H52	H	0.561057	0.401331	0.090006
	H53	H	0.566957	0.589176	0.862687
	H54	H	0.387427	0.579296	0.092177
	H55	H	0.386070	0.400177	0.868203
	H56	H	0.090373	0.578773	0.386769
	H57	H	0.865494	0.581076	0.563840
	H58	H	0.092497	0.396037	0.569737
	H59	H	0.863532	0.404812	0.385099
	H60	H	0.088338	0.401020	0.562356
	H61	H	0.864125	0.576972	0.573127
	H62	H	0.090331	0.583457	0.389698
	H63	H	0.864807	0.398960	0.391262
	H64	H	0.388416	0.580984	0.090733
	H65	H	0.573648	0.575667	0.864617
	H66	H	0.568452	0.398896	0.092928
	H67	H	0.387054	0.403869	0.868223
	H68	H	0.568992	0.103983	0.392831
	H69	H	0.560289	0.879324	0.571920
	H70	H	0.387184	0.103651	0.567231
	H71	H	0.387781	0.878774	0.383272
	H72	H	0.882879	0.604193	0.067429
	H73	H	0.058731	0.380340	0.068647
	H74	H	0.065985	0.600600	0.894450
	H75	H	0.889213	0.380521	0.893818
	H76	H	0.065267	0.900002	0.589340
	H77	H	0.061806	0.083847	0.363916
	H78	H	0.887595	0.088081	0.591023
	H79	H	0.891175	0.901394	0.367420
	H80	H	0.590350	0.075597	0.882954
	H81	H	0.365993	0.071974	0.069685
	H82	H	0.588513	0.898607	0.063788
	H83	H	0.361734	0.904277	0.884206
	H84	H	0.587573	0.906030	0.067180
	H85	H	0.363271	0.083661	0.064403
	H86	H	0.591059	0.087243	0.890835
	H87	H	0.360421	0.894970	0.886265
	H88	H	0.881634	0.078726	0.589659
	H89	H	0.068203	0.076972	0.364046
	H90	H	0.066644	0.902798	0.589695
	H91	H	0.885509	0.898002	0.364446
	H92	H	0.076228	0.605953	0.886000
	H93	H	0.066816	0.380158	0.061786
	H94	H	0.894252	0.602027	0.072283
	H95	H	0.879452	0.375549	0.887449
	H96	H	0.386386	0.104430	0.567479
	H97	H	0.567362	0.879161	0.563620
	H98	H	0.561252	0.104515	0.384156
	H99	H	0.393952	0.885258	0.393063
	H100	H	0.567493	0.406842	0.090014
	H101	H	0.558746	0.577653	0.868027
	H102	H	0.387235	0.581147	0.092314
	H103	H	0.389368	0.401137	0.869381
	H104	H	0.088397	0.578962	0.392027
	H105	H	0.861266	0.586388	0.571332
	H106	H	0.090713	0.405585	0.570688
	H107	H	0.868404	0.406424	0.392628
	H108	H	0.891724	0.599036	0.060923
	H109	H	0.068192	0.375976	0.071495
	H110	H	0.062819	0.603846	0.880929
	H111	H	0.891233	0.376787	0.882322
	H112	H	0.064003	0.902871	0.589430
	H113	H	0.059679	0.075528	0.367546
	H114	H	0.892466	0.078615	0.586835
	H115	H	0.884277	0.905061	0.365772
	H116	H	0.585420	0.075594	0.896300
	H117	H	0.369524	0.074268	0.056971
	H118	H	0.591167	0.899232	0.071733
	H119	H	0.363624	0.900831	0.893266
	C120	C	0.354285	0.000317	0.599491
	C121	C	0.597961	0.981681	0.600931
	C122	C	0.595863	-0.000660	0.358136
	C123	C	0.353503	0.983719	0.355550
	C124	C	0.597315	0.370522	-0.013056
	C125	C	0.598577	0.612798	0.969027
	C126	C	0.355861	0.611092	-0.012798
	C127	C	0.354967	0.367980	0.971856
	C128	C	-0.014678	0.611513	0.357651
	C129	C	0.968769	0.612647	0.600123
	C130	C	-0.014277	0.370094	0.598736
	C131	C	0.968920	0.369511	0.355975
	C132	C	0.855558	0.498666	0.099771
	C133	C	0.097886	0.482293	0.100005
	C134	C	0.098743	0.498420	0.857098
	C135	C	0.856156	0.482323	0.856850
	C136	C	0.097915	0.869581	0.485727
	C137	C	0.096241	0.112031	0.468768
	C138	C	0.853778	0.113525	0.485556
	C139	C	0.855125	0.869743	0.470229
	C140	C	0.484994	0.112505	0.857449
	C141	C	0.469220	0.111002	0.098814
	C142	C	0.484511	0.869102	0.099620
	C143	C	0.466688	0.869193	0.856680
	C144	C	0.351799	0.882166	0.658863
	C145	C	0.600003	0.100257	0.660328
	C146	C	0.599094	0.881597	0.297124
	C147	C	0.348214	0.099931	0.291725
	C148	C	0.655613	0.369498	0.867954
	C149	C	0.658966	0.614878	0.087247
	C150	C	0.297358	0.610442	0.868078
	C151	C	0.293534	0.363933	0.089298
	C152	C	0.865995	0.670256	0.356409
	C153	C	0.087920	0.671962	0.601077
	C154	C	0.866303	0.311411	0.599892
	C155	C	0.086645	0.307570	0.352328
	C156	C	0.866814	0.368767	0.658408
	C157	C	0.088473	0.613297	0.658132
	C158	C	0.866144	0.612471	0.298385
	C159	C	0.087015	0.365796	0.295278
	C160	C	0.353774	0.669715	0.868383
	C161	C	0.600744	0.672319	0.087422
	C162	C	0.598546	0.310724	0.868731
	C163	C	0.351397	0.305918	0.088876
	C164	C	0.656821	0.881596	0.355364
	C165	C	0.658145	0.099849	0.602757
	C166	C	0.294662	0.882034	0.600071
	C167	C	0.291762	0.101127	0.351005
	C168	C	0.851256	0.380902	0.161294
	C169	C	0.100314	0.600615	0.159675
	C170	C	0.099230	0.379219	0.798974
	C171	C	0.855671	0.601142	0.798142
	C172	C	0.157990	0.867408	0.367606
	C173	C	0.156063	0.114239	0.587275
	C174	C	0.793096	0.114666	0.367048
	C175	C	0.796649	0.869365	0.589015
	C176	C	0.366928	0.173391	0.854784
	C177	C	0.587702	0.172002	0.103014
	C178	C	0.366007	0.808895	0.101351
	C179	C	0.585800	0.809892	0.854827
	C180	C	0.366253	0.866107	0.159809
	C181	C	0.587163	0.114645	0.160766
	C182	C	0.366590	0.115481	0.797079
	C183	C	0.586009	0.868469	0.797930
	C184	C	0.850275	0.173580	0.367139
	C185	C	0.098595	0.172211	0.586877
	C186	C	0.099527	0.810000	0.367466
	C187	C	0.853746	0.810689	0.588909
	C188	C	0.156113	0.378657	0.858039
	C189	C	0.158208	0.600496	0.101918
	C190	C	0.794037	0.380866	0.102737
	C191	C	0.797871	0.601266	0.856045
	C192	C	0.379641	0.082718	0.574639
	C193	C	0.572941	0.899408	0.576575
	C194	C	0.570066	0.081304	0.383454
	C195	C	0.380216	0.902731	0.382594
	C196	C	0.572737	0.395268	0.069666
	C197	C	0.573566	0.588051	0.886559
	C198	C	0.380589	0.587384	0.070118
	C199	C	0.380427	0.394225	0.889794
	C200	C	0.068217	0.587345	0.382496
	C201	C	0.885361	0.588597	0.576095
	C202	C	0.068872	0.394081	0.574353
	C203	C	0.886931	0.395771	0.382199
	C204	C	0.881892	0.580378	0.074241
	C205	C	0.072046	0.400283	0.074636
	C206	C	0.075145	0.581601	0.880496
	C207	C	0.879935	0.399173	0.880989
	C208	C	0.072584	0.894670	0.568086
	C209	C	0.070516	0.086261	0.386689
	C210	C	0.879680	0.088848	0.567705
	C211	C	0.879946	0.894359	0.387438
	C212	C	0.567459	0.086841	0.882956
	C213	C	0.387605	0.084373	0.071599
	C214	C	0.567513	0.894223	0.074692
	C215	C	0.383638	0.893169	0.881062
	Zn216	Zn	0.475715	-0.008447	0.728801
	Zn217	Zn	0.476144	-0.008627	0.227730
	Zn218	Zn	0.727134	0.490630	-0.021735
	Zn219	Zn	0.226546	0.489693	-0.020348
	Zn220	Zn	-0.023467	0.740944	0.478371
	Zn221	Zn	-0.024175	0.241504	0.476597
	Zn222	Zn	-0.022461	0.490699	0.728195
	Zn223	Zn	-0.023034	0.490537	0.228710
	Zn224	Zn	0.476145	0.740567	-0.022179
	Zn225	Zn	0.477300	0.240371	-0.020609
	Zn226	Zn	0.726110	-0.009065	0.478113
	Zn227	Zn	0.225583	-0.007697	0.477020
	N228	N	0.388155	0.956863	0.658522
	N229	N	0.563246	0.025827	0.659297
	N230	N	0.561953	0.955892	0.298558
	N231	N	0.386016	0.025925	0.294273
	N232	N	0.655029	0.405824	0.942640
	N233	N	0.657807	0.578710	0.012610
	N234	N	0.298090	0.575004	0.943270
	N235	N	0.295669	0.402084	0.015461
	N236	N	0.940997	0.669891	0.392491
	N237	N	0.012484	0.671623	0.565600
	N238	N	0.941258	0.312030	0.563465
	N239	N	0.011891	0.309761	0.389284
	N240	N	0.941947	0.404607	0.657645
	N241	N	0.013366	0.577062	0.657621
	N242	N	0.941475	0.576843	0.298937
	N243	N	0.012827	0.403454	0.297356
	N244	N	0.389396	0.670183	0.943486
	N245	N	0.563775	0.671235	0.012914
	N246	N	0.563294	0.311122	0.943918
	N247	N	0.388875	0.308560	0.014897
	N248	N	0.654932	0.955759	0.392423
	N249	N	0.657269	0.025225	0.566642
	N250	N	0.295900	0.956747	0.563864
	N251	N	0.294954	0.027878	0.389935
	N252	N	0.888947	0.455132	0.159550
	N253	N	0.063457	0.526032	0.158661
	N254	N	0.064554	0.454851	0.798015
	N255	N	0.891014	0.526064	0.798373
	N256	N	0.156833	0.903915	0.442152
	N257	N	0.154908	0.077733	0.512687
	N258	N	0.795106	0.078193	0.441812
	N259	N	0.797451	0.905448	0.514216
	N260	N	0.441653	0.171547	0.891589
	N261	N	0.513068	0.169948	0.065234
	N262	N	0.440785	0.810535	0.064652
	N263	N	0.510569	0.809934	0.890453
	N264	N	0.441029	0.902684	0.158970
	N265	N	0.512702	0.077477	0.158320
	N266	N	0.441038	0.078114	0.798715
	N267	N	0.510799	0.904493	0.798740
	N268	N	0.887135	0.173126	0.441691
	N269	N	0.062247	0.171104	0.511985
	N270	N	0.062899	0.811114	0.442096
	N271	N	0.889390	0.810865	0.513777
	N272	N	0.156120	0.453758	0.893207
	N273	N	0.157141	0.525858	0.066118
	N274	N	0.796609	0.454869	0.065097
	N275	N	0.798038	0.526289	0.891824
	O276	O	0.487310	0.677331	0.687130
	H277	H	0.495981	0.679335	0.697925
	H278	H	0.470073	0.668380	0.690481
	O279	O	0.686604	0.705403	0.502321
	H280	H	0.677269	0.714411	0.512206
	H281	H	0.700480	0.723881	0.525248
	O282	O	0.849237	0.778072	0.016688
	H283	H	0.844829	0.765985	0.031354
	H284	H	0.838295	0.778365	0.024699
	O285	O	1.093996	-0.045515	1.025681
	H286	H	1.101262	-0.040768	1.019866
	H287	H	1.078439	-0.031104	1.019306
	O288	O	0.172442	-0.085126	0.043209
	H289	H	0.165395	-0.069651	0.040695
	H290	H	0.160391	-0.079793	0.024199
	O291	O	1.285102	1.680188	0.290173
	H292	H	1.285853	1.669019	0.306501
	H293	H	1.268533	1.698135	0.309626
	O294	O	0.007450	1.191458	0.186659
	H295	H	0.008272	1.184138	0.171719
	H296	H	0.004736	1.217646	0.206185
	O297	O	0.662056	0.311512	0.294305
	H298	H	0.619585	0.308799	0.281136
	H299	H	0.664613	0.350053	0.289192
	O300	O	0.013199	0.895054	0.965149
	H301	H	0.005632	0.904334	0.975312
	H302	H	0.016981	0.893941	0.982772
	O303	O	0.264254	0.275039	0.503324
	H304	H	0.256771	0.274766	0.510225
	H305	H	0.244829	0.269982	0.518648
	O306	O	0.172982	0.790389	0.779488
	H307	H	0.173060	0.815543	0.795206
	H308	H	0.156039	0.787252	0.806671
	O309	O	0.333728	0.420798	0.374979
	H310	H	0.338616	0.438581	0.371688
	H311	H	0.339872	0.399734	0.380576
	O312	O	0.446914	0.557029	0.458859
	H313	H	0.446701	0.567646	0.454415
	H314	H	0.443920	0.558809	0.462487
	O315	O	-0.169683	0.186325	1.013550
	H316	H	-0.156598	0.188718	0.991993
	H317	H	-0.184225	0.203785	1.000119
	O318	O	-0.156237	0.791301	-0.154580
	H319	H	-0.146308	0.799286	-0.142999
	H320	H	-0.167770	0.793760	-0.136226
	O321	O	0.676414	0.534170	0.453520
	H322	H	0.679026	0.530674	0.449044
	H323	H	0.688430	0.554074	0.450693
	O324	O	0.520217	0.448363	0.690242
	H325	H	0.539676	0.456217	0.694929
	H326	H	0.511472	0.457573	0.678216
	O327	O	0.875142	0.102913	1.019781
	H328	H	0.865533	0.119115	1.023406
	H329	H	0.870675	0.116413	1.014716
	O330	O	0.932636	0.170240	-0.042541
	H331	H	0.920256	0.163771	-0.045493
	H332	H	0.910625	0.175639	-0.062344
	O333	O	0.286716	0.297008	1.671328
	H334	H	0.320226	0.306517	1.677849
	H335	H	0.277793	0.281089	1.668933
	O336	O	1.160458	0.171072	1.136159
	H337	H	1.173495	0.134258	1.142336
	H338	H	1.139697	0.178830	1.123623
	O339	O	0.811838	0.960312	1.053567
	H340	H	0.812152	0.971262	1.049282
	H341	H	0.816896	0.976619	1.062273
	O342	O	0.476040	0.272047	0.465880
	H343	H	0.481236	0.277008	0.460240
	H344	H	0.468407	0.270454	0.474264
	O345	O	-0.089494	0.005239	-0.153487
	H346	H	-0.096788	0.020229	-0.142309
	H347	H	-0.083867	-0.006835	-0.167621
	O348	O	1.006048	-0.207276	0.780971
	H349	H	1.010164	-0.200813	0.794570
	H350	H	1.003798	-0.217790	0.761430
	O351	O	1.156659	1.162056	0.966815
	H352	H	1.143694	1.156434	0.972667
	H353	H	1.169956	1.177923	0.967434
	O354	O	0.261942	0.455578	0.688682
	H355	H	0.238769	0.456090	0.700032
	H356	H	0.271111	0.427459	0.691699
	O357	O	1.494759	1.290691	0.671477
	H358	H	1.499029	1.289527	0.653325
	H359	H	1.496303	1.305234	0.672104
	O360	O	0.273096	0.695818	0.455289
	H361	H	0.274359	0.681709	0.477407
	H362	H	0.269789	0.704018	0.468611
	O363	O	0.772948	0.200729	0.808543
	H364	H	0.764290	0.160336	0.798591
	H365	H	0.744547	0.225038	0.776596
	O366	O	1.477610	-0.656547	1.325579
	H367	H	1.470150	-0.670809	1.321530
	H368	H	1.465083	-0.649272	1.318895
	O369	O	0.473171	0.312103	0.481501
	H370	H	0.477187	0.315959	0.490543
	H371	H	0.479216	0.310942	0.475467
	O372	O	0.512954	0.534469	0.266195
	H373	H	0.498320	0.540316	0.268595
	H374	H	0.485490	0.538806	0.262472
	O375	O	-0.058017	1.088270	0.792040
	H376	H	-0.063789	1.088638	0.803189
	H377	H	-0.083094	1.096228	0.779912
	O378	O	0.451668	0.448992	0.390335
	H379	H	0.438615	0.459903	0.397528
	H380	H	0.445527	0.447636	0.385364
	O381	O	0.774920	0.005745	0.161209
	H382	H	0.767874	0.006526	0.157362
	H383	H	0.778440	0.013471	0.168695
	O384	O	0.169749	0.035445	1.176055
	H385	H	0.167528	0.025510	1.177326
	H386	H	0.182742	0.024386	1.180283
	O387	O	-0.314523	1.280437	0.690883
	H388	H	-0.333836	1.298804	0.673040
	H389	H	-0.332123	1.284780	0.673763
	O390	O	-0.001004	0.020849	1.119611
	H391	H	-0.000471	0.026205	1.117475
	H392	H	-0.005739	0.029648	1.119642
	O393	O	0.770236	0.793260	0.129351
	H394	H	0.749471	0.774104	0.154841
	H395	H	0.759648	0.818902	0.135227
	O396	O	1.158363	0.034842	0.804584
	H397	H	1.157253	0.030230	0.819804
	H398	H	1.157039	0.024655	0.793523
	O399	O	0.890813	1.084386	0.870232
	H400	H	0.885066	1.078703	0.883656
	H401	H	0.886793	1.074481	0.868212
	O402	O	0.063418	-0.168357	1.019250
	H403	H	0.043988	-0.164374	1.024365
	H404	H	0.046122	-0.155952	1.014764
	O405	O	0.087444	-0.018073	-0.168842
	H406	H	0.101584	-0.022427	-0.189659
	H407	H	0.085442	-0.000564	-0.168410
	O408	O	0.674576	1.607300	1.278898
	H409	H	0.673369	1.600742	1.282628
	H410	H	0.647905	1.599055	1.281536
	O411	O	0.689026	0.451533	0.532298
	H412	H	0.695969	0.461938	0.526675
	H413	H	0.690920	0.451020	0.511021
	O414	O	0.563533	0.708332	0.388515
	H415	H	0.550201	0.711079	0.397828
	H416	H	0.555216	0.708302	0.395872
	O417	O	0.887238	0.780318	0.193901
	H418	H	0.863307	0.769278	0.198849
	H419	H	0.891616	0.764680	0.208795
	O420	O	0.611217	0.411094	0.275586
	H421	H	0.605288	0.412391	0.292171
	H422	H	0.590808	0.405304	0.267144
	O423	O	0.341311	1.679730	0.632456
	H424	H	0.325298	1.694370	0.650615
	H425	H	0.340284	1.669940	0.619023
	O426	O	0.974156	0.918903	0.901614
	H427	H	0.982751	0.916871	0.904143
	H428	H	0.983216	0.924044	0.902581
	O429	O	0.279103	0.467847	0.475259
	H430	H	0.268337	0.459771	0.488276
	H431	H	0.287665	0.460534	0.470378
	O432	O	1.112795	0.136685	0.826500
	H433	H	1.117561	0.120692	0.836453
	H434	H	1.093330	0.140828	0.829215
	O435	O	-0.325682	-0.311650	-0.327701
	H436	H	-0.332033	-0.337056	-0.332043
	H437	H	-0.341330	-0.291161	-0.306514
	O438	O	1.458975	-0.327773	0.571387
	H439	H	1.451686	-0.326319	0.593050
	H440	H	1.449325	-0.338520	0.581952
	O441	O	0.692277	0.269292	0.449156
	H442	H	0.711305	0.250541	0.427363
	H443	H	0.693674	0.263004	0.422371
	O444	O	0.352295	1.544937	0.635831
	H445	H	0.339033	1.533212	0.646262
	H446	H	0.342880	1.552117	0.621506
	O447	O	1.112016	0.836654	0.028823
	H448	H	1.121497	0.820242	0.024307
	H449	H	1.103693	0.853186	0.047977
	O450	O	0.258952	0.517623	0.260480
	H451	H	0.259491	0.538626	0.262935
	H452	H	0.240820	0.518057	0.237039
	O453	O	0.488463	0.466634	0.445634
	H454	H	0.491712	0.460168	0.436862
	H455	H	0.501480	0.465489	0.450777
	O456	O	1.032507	-0.020082	0.085512
	H457	H	1.037785	-0.022949	0.082418
	H458	H	1.020387	-0.011795	0.072314
	O459	O	0.688192	0.524061	0.690545
	H460	H	0.683784	0.530841	0.674525
	H461	H	0.714232	0.519342	0.705259
	O462	O	0.447184	0.707030	0.260811
	H463	H	0.415901	0.712918	0.268684
	H464	H	0.443120	0.734956	0.242928
	O465	O	0.769948	0.006694	-0.192584
	H466	H	0.758663	-0.016850	-0.197982
	H467	H	0.781185	-0.001700	-0.176931
