data_Molecule from HDF5

_cell_length_a		16.520492
_cell_length_b		16.495776
_cell_length_c		16.517363
_cell_angle_alpha	90.047481
_cell_angle_beta	89.924835
_cell_angle_gamma	89.968371
_symmetry_space_group_name_H-M	'P 1'
_symmetry_Int_Tables_number		1

loop_
	_symmetry_equiv_pos_as_xyz
	x,y,z

loop_
	_atom_site_label
	_atom_site_type_symbol
	_atom_site_fract_x
	_atom_site_fract_y
	_atom_site_fract_z
	H0	H	0.391445	0.843416	0.722173
	H1	H	0.602819	0.157663	0.720556
	H2	H	0.605702	0.842907	0.276629
	H3	H	0.393021	0.156234	0.277611
	H4	H	0.721187	0.393447	0.842889
	H5	H	0.720727	0.606747	0.156113
	H6	H	0.276163	0.606931	0.842024
	H7	H	0.277122	0.394605	0.155731
	H8	H	0.841942	0.721922	0.396029
	H9	H	0.155709	0.724435	0.607955
	H10	H	0.839858	0.280773	0.603444
	H11	H	0.155478	0.278601	0.393934
	H12	H	0.841047	0.395394	0.721415
	H13	H	0.155083	0.607761	0.724026
	H14	H	0.842051	0.606061	0.278426
	H15	H	0.156618	0.395572	0.278532
	H16	H	0.393560	0.721365	0.841308
	H17	H	0.604630	0.723307	0.155403
	H18	H	0.606480	0.276384	0.842943
	H19	H	0.393538	0.277971	0.155825
	H20	H	0.723426	0.844221	0.391507
	H21	H	0.719644	0.158096	0.604946
	H22	H	0.274523	0.844010	0.606958
	H23	H	0.279080	0.157534	0.396112
	H24	H	0.897019	0.341501	0.218373
	H25	H	0.104274	0.657337	0.220796
	H26	H	0.101681	0.341398	0.779358
	H27	H	0.891122	0.656155	0.776072
	H28	H	0.220229	0.894791	0.342803
	H29	H	0.220165	0.107299	0.656130
	H30	H	0.777991	0.105830	0.340859
	H31	H	0.774758	0.894393	0.655873
	H32	H	0.343189	0.222558	0.894535
	H33	H	0.656571	0.219508	0.104106
	H34	H	0.341190	0.777092	0.105639
	H35	H	0.656852	0.779431	0.894255
	H36	H	0.342268	0.892521	0.223410
	H37	H	0.656562	0.103404	0.220550
	H38	H	0.343158	0.108715	0.775753
	H39	H	0.656074	0.895278	0.777243
	H40	H	0.894076	0.221340	0.341425
	H41	H	0.099621	0.220099	0.657904
	H42	H	0.103877	0.778834	0.343487
	H43	H	0.890667	0.777673	0.656074
	H44	H	0.219025	0.341370	0.894059
	H45	H	0.221942	0.656386	0.105834
	H46	H	0.778673	0.341678	0.104914
	H47	H	0.776002	0.656602	0.894762
	H48	H	0.415468	0.110341	0.589923
	H49	H	0.588894	0.888915	0.585722
	H50	H	0.594991	0.115691	0.406037
	H51	H	0.409747	0.886270	0.409437
	H52	H	0.591108	0.406387	0.114409
	H53	H	0.588954	0.584541	0.887969
	H54	H	0.411435	0.585485	0.108911
	H55	H	0.410926	0.408833	0.886652
	H56	H	0.112018	0.594071	0.413072
	H57	H	0.888951	0.586568	0.588180
	H58	H	0.110297	0.411715	0.586984
	H59	H	0.884767	0.411624	0.405953
	H60	H	0.110735	0.411751	0.590289
	H61	H	0.887738	0.589447	0.589574
	H62	H	0.109905	0.585195	0.412497
	H63	H	0.885695	0.408507	0.410986
	H64	H	0.412285	0.589139	0.109991
	H65	H	0.584183	0.587416	0.888722
	H66	H	0.589078	0.415311	0.110941
	H67	H	0.409190	0.410544	0.885964
	H68	H	0.579959	0.111129	0.405384
	H69	H	0.587841	0.887104	0.588451
	H70	H	0.407689	0.110870	0.582085
	H71	H	0.412256	0.887902	0.412032
	H72	H	0.911194	0.613178	0.092198
	H73	H	0.081820	0.389702	0.088138
	H74	H	0.082500	0.610924	0.908015
	H75	H	0.906973	0.386790	0.913101
	H76	H	0.086761	0.913020	0.612666
	H77	H	0.084913	0.088719	0.389153
	H78	H	0.907274	0.087186	0.610947
	H79	H	0.908851	0.915024	0.388618
	H80	H	0.608911	0.085996	0.914227
	H81	H	0.385559	0.092802	0.085787
	H82	H	0.610895	0.907188	0.085025
	H83	H	0.387028	0.911911	0.909677
	H84	H	0.608556	0.914991	0.086082
	H85	H	0.389005	0.084569	0.085410
	H86	H	0.611998	0.083765	0.904990
	H87	H	0.386273	0.910740	0.911062
	H88	H	0.911014	0.091162	0.610517
	H89	H	0.088458	0.095724	0.385118
	H90	H	0.087021	0.915754	0.611223
	H91	H	0.914684	0.912598	0.389875
	H92	H	0.086715	0.609589	0.917051
	H93	H	0.092543	0.387911	0.082544
	H94	H	0.911471	0.611264	0.085759
	H95	H	0.911793	0.386962	0.907577
	H96	H	0.405775	0.114825	0.592533
	H97	H	0.586414	0.888601	0.586582
	H98	H	0.588254	0.109549	0.418841
	H99	H	0.408625	0.887239	0.413148
	H100	H	0.582693	0.408148	0.110716
	H101	H	0.588215	0.589872	0.886494
	H102	H	0.408818	0.587684	0.111118
	H103	H	0.411356	0.411610	0.886869
	H104	H	0.113005	0.589610	0.405254
	H105	H	0.887901	0.589363	0.585572
	H106	H	0.110781	0.408993	0.588726
	H107	H	0.887183	0.414105	0.410661
	H108	H	0.906156	0.613691	0.087751
	H109	H	0.090287	0.384525	0.094272
	H110	H	0.091956	0.613946	0.909912
	H111	H	0.913334	0.389960	0.914019
	H112	H	0.084517	0.914502	0.611447
	H113	H	0.093029	0.087994	0.385561
	H114	H	0.906574	0.092299	0.613235
	H115	H	0.910480	0.908885	0.386578
	H116	H	0.613475	0.092590	0.909320
	H117	H	0.385540	0.087848	0.093304
	H118	H	0.611329	0.910638	0.092228
	H119	H	0.387634	0.911936	0.911464
	C120	C	0.376275	0.008933	0.621702
	C121	C	0.619552	0.992124	0.619652
	C122	C	0.620540	0.008492	0.377310
	C123	C	0.378202	0.991321	0.379433
	C124	C	0.620537	0.377616	0.008263
	C125	C	0.620190	0.620763	0.991047
	C126	C	0.377312	0.621159	0.006934
	C127	C	0.377766	0.377771	0.990160
	C128	C	0.007476	0.621964	0.378440
	C129	C	0.991055	0.621973	0.621794
	C130	C	0.006386	0.379141	0.620483
	C131	C	0.990312	0.379277	0.377685
	C132	C	0.877852	0.508406	0.120861
	C133	C	0.120730	0.491370	0.120501
	C134	C	0.119693	0.507506	0.878619
	C135	C	0.877281	0.491322	0.878621
	C136	C	0.119574	0.880465	0.508272
	C137	C	0.119983	0.122493	0.490929
	C138	C	0.876582	0.122316	0.507302
	C139	C	0.877391	0.879258	0.491524
	C140	C	0.507805	0.120970	0.877541
	C141	C	0.490596	0.119999	0.120253
	C142	C	0.506579	0.877982	0.120674
	C143	C	0.490741	0.879004	0.877926
	C144	C	0.373464	0.890731	0.682162
	C145	C	0.621361	0.110516	0.680359
	C146	C	0.624292	0.890398	0.316349
	C147	C	0.375313	0.109249	0.318472
	C148	C	0.680965	0.375126	0.889959
	C149	C	0.680842	0.624534	0.108777
	C150	C	0.316257	0.624514	0.889224
	C151	C	0.317434	0.375980	0.108630
	C152	C	0.889133	0.681958	0.376966
	C153	C	0.108490	0.683976	0.625774
	C154	C	0.887524	0.320210	0.622212
	C155	C	0.108376	0.318724	0.375549
	C156	C	0.887923	0.377429	0.680758
	C157	C	0.108314	0.625938	0.683579
	C158	C	0.889195	0.624219	0.318774
	C159	C	0.108923	0.376885	0.318108
	C160	C	0.374805	0.681525	0.888643
	C161	C	0.622927	0.682449	0.108539
	C162	C	0.623764	0.316870	0.890034
	C163	C	0.375367	0.317984	0.108756
	C164	C	0.682510	0.890913	0.373775
	C165	C	0.679437	0.110733	0.622689
	C166	C	0.315059	0.890981	0.625029
	C167	C	0.318706	0.109976	0.377531
	C168	C	0.877194	0.389360	0.179902
	C169	C	0.122873	0.609922	0.180688
	C170	C	0.121026	0.388955	0.818605
	C171	C	0.873455	0.609337	0.817121
	C172	C	0.180217	0.876857	0.390054
	C173	C	0.179388	0.124726	0.609366
	C174	C	0.817536	0.124218	0.388548
	C175	C	0.815397	0.876368	0.608846
	C176	C	0.389939	0.182179	0.875367
	C177	C	0.609491	0.179570	0.122232
	C178	C	0.388625	0.817104	0.123786
	C179	C	0.609308	0.819055	0.875831
	C180	C	0.388939	0.874621	0.182212
	C181	C	0.609305	0.121936	0.180361
	C182	C	0.390077	0.125251	0.816751
	C183	C	0.608961	0.876672	0.817535
	C184	C	0.875463	0.181580	0.388533
	C185	C	0.119861	0.181065	0.610149
	C186	C	0.122516	0.818996	0.390648
	C187	C	0.873233	0.818369	0.609267
	C188	C	0.179340	0.388923	0.875937
	C189	C	0.181077	0.609656	0.123150
	C190	C	0.818457	0.389411	0.123184
	C191	C	0.816158	0.609482	0.875822
	C192	C	0.402173	0.090790	0.595698
	C193	C	0.594790	0.909733	0.594190
	C194	C	0.594943	0.090817	0.402682
	C195	C	0.403157	0.908701	0.404321
	C196	C	0.595083	0.402946	0.090487
	C197	C	0.594491	0.594768	0.908995
	C198	C	0.403240	0.595074	0.088707
	C199	C	0.403053	0.403159	0.907860
	C200	C	0.089989	0.596993	0.403228
	C201	C	0.909426	0.595974	0.595378
	C202	C	0.089082	0.403890	0.595606
	C203	C	0.907478	0.404260	0.402208
	C204	C	0.902478	0.591137	0.095817
	C205	C	0.095438	0.409081	0.095424
	C206	C	0.094344	0.590060	0.904257
	C207	C	0.903420	0.409398	0.904262
	C208	C	0.093618	0.906924	0.590460
	C209	C	0.095812	0.097885	0.408220
	C210	C	0.901128	0.097439	0.589946
	C211	C	0.903918	0.904688	0.409710
	C212	C	0.589958	0.095016	0.902440
	C213	C	0.408207	0.095432	0.095397
	C214	C	0.588869	0.903579	0.094948
	C215	C	0.408274	0.904232	0.903439
	Zn216	Zn	0.498713	-0.000096	0.748784
	Zn217	Zn	0.498489	-0.000392	0.249454
	Zn218	Zn	0.748948	0.499233	0.000125
	Zn219	Zn	0.249103	0.499436	-0.001113
	Zn220	Zn	-0.000683	0.750810	0.500610
	Zn221	Zn	-0.002042	0.250841	0.498966
	Zn222	Zn	-0.001064	0.499875	0.749859
	Zn223	Zn	-0.000801	0.500307	0.249044
	Zn224	Zn	0.498456	0.749693	-0.001531
	Zn225	Zn	0.499573	0.248915	-0.000506
	Zn226	Zn	0.748735	0.000960	0.498939
	Zn227	Zn	0.248582	-0.000040	0.499959
	N228	N	0.410774	0.965095	0.680219
	N229	N	0.585032	0.035701	0.678677
	N230	N	0.586333	0.964500	0.318574
	N231	N	0.411745	0.034329	0.319519
	N232	N	0.679046	0.412198	0.964530
	N233	N	0.679164	0.586929	0.034622
	N234	N	0.317494	0.587755	0.963982
	N235	N	0.318655	0.412069	0.033892
	N236	N	0.963798	0.680689	0.413469
	N237	N	0.034367	0.681610	0.588106
	N238	N	0.962128	0.321214	0.585584
	N239	N	0.033499	0.319999	0.411917
	N240	N	0.962978	0.413540	0.679896
	N241	N	0.034286	0.588265	0.681412
	N242	N	0.963876	0.587899	0.319254
	N243	N	0.034531	0.413971	0.319476
	N244	N	0.411917	0.679750	0.962887
	N245	N	0.585943	0.680350	0.034189
	N246	N	0.586843	0.318282	0.964693
	N247	N	0.412169	0.318922	0.034030
	N248	N	0.680533	0.965491	0.410772
	N249	N	0.678546	0.036098	0.585726
	N250	N	0.316630	0.965524	0.588146
	N251	N	0.320367	0.035577	0.414513
	N252	N	0.913219	0.464436	0.178655
	N253	N	0.086157	0.535373	0.179175
	N254	N	0.084872	0.463847	0.820043
	N255	N	0.910721	0.534817	0.818638
	N256	N	0.178449	0.914290	0.464400
	N257	N	0.179683	0.089154	0.534235
	N258	N	0.818162	0.087832	0.463326
	N259	N	0.817751	0.913555	0.534464
	N260	N	0.464148	0.179683	0.912511
	N261	N	0.534740	0.178677	0.085843
	N262	N	0.463054	0.819079	0.086331
	N263	N	0.534520	0.820317	0.912501
	N264	N	0.463308	0.911582	0.180479
	N265	N	0.534422	0.085763	0.179466
	N266	N	0.464358	0.087926	0.817998
	N267	N	0.534149	0.912932	0.818590
	N268	N	0.911377	0.180459	0.463440
	N269	N	0.083630	0.180037	0.535320
	N270	N	0.085508	0.821152	0.465185
	N271	N	0.910923	0.819941	0.535328
	N272	N	0.178633	0.463839	0.912396
	N273	N	0.179940	0.535130	0.086480
	N274	N	0.818499	0.464614	0.087408
	N275	N	0.818372	0.535126	0.913128
	O276	O	0.532675	0.295773	0.285161
	H277	H	0.541808	0.279190	0.271073
	H278	H	0.560685	0.295690	0.286798
	O279	O	0.564756	0.557578	0.296075
	H280	H	0.549650	0.561104	0.293972
	H281	H	0.540176	0.572259	0.300831
	O282	O	0.789520	0.792452	0.028647
	H283	H	0.777446	0.779949	0.020133
	H284	H	0.780010	0.789496	0.055649
	O285	O	0.474298	0.716334	0.280211
	H286	H	0.446009	0.728929	0.270632
	H287	H	0.457200	0.730597	0.276912
	O288	O	-0.141715	0.148763	-0.031649
	H289	H	-0.133004	0.154412	-0.046565
	H290	H	-0.168250	0.153015	-0.031258
	O291	O	0.973761	1.178310	-0.199971
	H292	H	0.991195	1.180042	-0.190737
	H293	H	0.968130	1.172395	-0.202824
	O294	O	0.211599	0.787453	-0.026293
	H295	H	0.219537	0.784073	-0.033981
	H296	H	0.214206	0.766413	-0.020065
	O297	O	0.472515	0.351350	0.677877
	H298	H	0.465023	0.342953	0.686244
	H299	H	0.480954	0.364353	0.694216
	O300	O	0.618255	0.550190	0.528344
	H301	H	0.613397	0.550925	0.535713
	H302	H	0.613182	0.554383	0.516025
	O303	O	0.492801	0.601767	0.448433
	H304	H	0.489966	0.613749	0.443772
	H305	H	0.493376	0.580697	0.467751
	O306	O	0.149269	1.186525	0.985764
	H307	H	0.147565	1.196972	1.000848
	H308	H	0.171361	1.189661	0.986835
	O309	O	0.709063	0.702452	0.518427
	H310	H	0.707227	0.707976	0.520506
	H311	H	0.713349	0.718350	0.512396
	O312	O	0.322535	0.317710	0.313618
	H313	H	0.323357	0.317325	0.315929
	H314	H	0.343626	0.326762	0.329876
	O315	O	-0.189160	-0.195727	1.197683
	H316	H	-0.170423	-0.202587	1.208614
	H317	H	-0.201123	-0.199336	1.197387
	O318	O	-0.028775	0.788609	0.194818
	H319	H	-0.016261	0.800361	0.203108
	H320	H	-0.047135	0.780640	0.214340
	O321	O	0.695445	0.461684	0.298875
	H322	H	0.702248	0.474176	0.278525
	H323	H	0.682479	0.480839	0.291151
	O324	O	0.331211	0.290444	0.510211
	H325	H	0.342473	0.301727	0.512527
	H326	H	0.319510	0.262998	0.509644
	O327	O	0.789506	0.054013	0.836004
	H328	H	0.778740	0.041619	0.832439
	H329	H	0.791356	0.049439	0.821887
	O330	O	0.913865	-0.129753	-0.209150
	H331	H	0.927048	-0.130609	-0.192465
	H332	H	0.921395	-0.116226	-0.213473
	O333	O	0.818248	0.962613	1.160895
	H334	H	0.824495	0.947093	1.151091
	H335	H	0.798901	0.948536	1.180909
	O336	O	0.810283	0.162044	0.973710
	H337	H	0.820745	0.159004	0.946139
	H338	H	0.799209	0.185288	0.966796
	O339	O	0.278687	0.489461	0.631716
	H340	H	0.280829	0.466476	0.638872
	H341	H	0.270949	0.471801	0.630881
	O342	O	0.525363	0.720509	0.717495
	H343	H	0.551972	0.716514	0.725065
	H344	H	0.547884	0.739071	0.738881
	O345	O	0.199757	0.200090	0.200231
	H346	H	0.176067	0.212711	0.213518
	H347	H	0.196863	0.188687	0.205285
	O348	O	0.990030	-0.168217	0.795472
	H349	H	0.983535	-0.173319	0.802149
	H350	H	0.985799	-0.186448	0.788679
	O351	O	1.233629	0.782642	0.227395
	H352	H	1.220324	0.795595	0.243877
	H353	H	1.220402	0.771841	0.226755
	O354	O	0.685914	0.307743	0.306945
	H355	H	0.689358	0.325891	0.324237
	H356	H	0.709932	0.322461	0.284343
	O357	O	0.913687	0.797346	0.926145
	H358	H	0.913037	0.792914	0.946234
	H359	H	0.920438	0.792478	0.931418
	O360	O	0.277391	0.388363	0.479580
	H361	H	0.279408	0.382537	0.478626
	H362	H	0.277296	0.386006	0.474597
	O363	O	0.504247	0.482663	0.577919
	H364	H	0.495174	0.488000	0.575312
	H365	H	0.514715	0.483039	0.570460
	O366	O	1.133013	0.060333	0.956902
	H367	H	1.141724	0.084036	0.956986
	H368	H	1.139607	0.046301	0.944655
	O369	O	0.446678	0.398302	0.330113
	H370	H	0.449808	0.389592	0.329603
	H371	H	0.460687	0.396219	0.328333
	O372	O	0.325971	0.299918	0.697884
	H373	H	0.348974	0.286005	0.703603
	H374	H	0.323491	0.299755	0.671760
	O375	O	0.049297	0.942729	1.189579
	H376	H	0.059900	0.951146	1.192143
	H377	H	0.049617	0.955256	1.176180
	O378	O	0.541159	0.380179	0.461967
	H379	H	0.533711	0.373266	0.458925
	H380	H	0.548796	0.382276	0.437917
	O381	O	1.129752	-0.027975	-0.036398
	H382	H	1.135933	-0.031518	-0.043232
	H383	H	1.112102	-0.024753	-0.045691
	O384	O	0.074507	0.100867	0.849282
	H385	H	0.061402	0.096207	0.865802
	H386	H	0.096313	0.101931	0.851570
	O387	O	0.172208	0.832043	0.815346
	H388	H	0.175318	0.837321	0.841426
	H389	H	0.136911	0.827315	0.811455
	O390	O	0.216848	0.029054	0.823441
	H391	H	0.229492	0.014575	0.810058
	H392	H	0.213092	-0.003612	0.820158
	O393	O	0.989832	1.200743	0.025112
	H394	H	0.978051	1.202547	0.011223
	H395	H	0.999890	1.204899	0.030590
	O396	O	0.354975	0.585447	0.642384
	H397	H	0.360778	0.578421	0.660258
	H398	H	0.354972	0.580341	0.647621
	O399	O	0.667130	0.432443	0.608895
	H400	H	0.658168	0.437787	0.591822
	H401	H	0.661136	0.417622	0.593177
	O402	O	-0.157092	0.189929	0.822004
	H403	H	-0.142062	0.180357	0.807075
	H404	H	-0.156012	0.162572	0.807113
	O405	O	0.095480	0.041822	0.214531
	H406	H	0.097292	0.050731	0.214193
	H407	H	0.099738	0.050768	0.211755
	O408	O	0.833990	0.834984	0.847967
	H409	H	0.844662	0.816765	0.843915
	H410	H	0.846521	0.841779	0.857023
	O411	O	0.295832	0.526248	0.290811
	H412	H	0.312435	0.535858	0.295418
	H413	H	0.280162	0.519523	0.264788
	O414	O	0.387895	0.689314	0.365900
	H415	H	0.370305	0.690998	0.348779
	H416	H	0.380298	0.698715	0.410353
	O417	O	0.529340	0.509728	0.667808
	H418	H	0.544894	0.538955	0.681530
	H419	H	0.518605	0.505672	0.664149
	O420	O	0.609825	0.604187	0.310436
	H421	H	0.596012	0.594097	0.326800
	H422	H	0.598181	0.596455	0.329832
	O423	O	0.214633	0.990436	0.116942
	H424	H	0.220898	0.980855	0.104940
	H425	H	0.229886	0.988383	0.125320
	O426	O	1.048587	0.787868	1.029973
	H427	H	1.062419	0.787035	1.040167
	H428	H	1.043688	0.795284	1.036890
	O429	O	0.424846	0.714804	0.486739
	H430	H	0.412821	0.719054	0.503421
	H431	H	0.421048	0.712553	0.481764
	O432	O	0.698301	0.317221	0.496633
	H433	H	0.718601	0.305345	0.481135
	H434	H	0.692209	0.318107	0.498889
	O435	O	0.029473	0.201505	0.198420
	H436	H	0.010089	0.187680	0.198205
	H437	H	0.021001	0.205993	0.205789
	O438	O	1.049764	0.019790	0.114204
	H439	H	1.050450	0.024037	0.095290
	H440	H	1.048800	0.021317	0.098842
	O441	O	0.455539	0.375282	0.481232
	H442	H	0.448660	0.384596	0.474254
	H443	H	0.446581	0.370966	0.489997
	O444	O	0.112982	1.082297	0.950341
	H445	H	0.126053	1.097239	0.958316
	H446	H	0.095752	1.070656	0.972479
	O447	O	0.651194	0.610198	0.647708
	H448	H	0.650412	0.613543	0.627526
	H449	H	0.646366	0.584570	0.650529
	O450	O	0.305979	0.675739	0.512647
	H451	H	0.312479	0.669519	0.527588
	H452	H	0.309424	0.663863	0.525963
	O453	O	0.625813	0.467343	0.544598
	H454	H	0.623347	0.464141	0.534078
	H455	H	0.629282	0.486037	0.556815
	O456	O	0.796857	-0.033793	-0.023635
	H457	H	0.788483	-0.031286	-0.018819
	H458	H	0.801575	-0.034135	-0.006364
	O459	O	0.375516	0.438479	0.678976
	H460	H	0.361349	0.434814	0.685661
	H461	H	0.376872	0.424605	0.671034
	O462	O	0.701250	0.522089	0.711728
	H463	H	0.704665	0.516137	0.729387
	H464	H	0.708994	0.511575	0.691435
	O465	O	0.796018	0.093802	0.149781
	H466	H	0.791154	0.091196	0.155371
	H467	H	0.809157	0.099686	0.133734
