data_Molecule from HDF5

_cell_length_a		16.385140
_cell_length_b		16.272423
_cell_length_c		16.323829
_cell_angle_alpha	89.971051
_cell_angle_beta	90.062123
_cell_angle_gamma	90.139196
_symmetry_space_group_name_H-M	'P 1'
_symmetry_Int_Tables_number		1

loop_
	_symmetry_equiv_pos_as_xyz
	x,y,z

loop_
	_atom_site_label
	_atom_site_type_symbol
	_atom_site_fract_x
	_atom_site_fract_y
	_atom_site_fract_z
	H0	H	0.413374	0.840475	0.720090
	H1	H	0.611395	0.167664	0.719816
	H2	H	0.609130	0.840735	0.291327
	H3	H	0.413887	0.168292	0.290749
	H4	H	0.727494	0.404608	0.842384
	H5	H	0.728180	0.603976	0.167934
	H6	H	0.294329	0.605665	0.843988
	H7	H	0.296074	0.402101	0.168258
	H8	H	0.848384	0.716475	0.409081
	H9	H	0.173743	0.719518	0.604255
	H10	H	0.848695	0.288857	0.602834
	H11	H	0.174659	0.290204	0.406932
	H12	H	0.848946	0.404915	0.719932
	H13	H	0.173651	0.604010	0.721721
	H14	H	0.849019	0.602702	0.289869
	H15	H	0.174174	0.405349	0.290288
	H16	H	0.413543	0.718987	0.842386
	H17	H	0.609705	0.718651	0.168146
	H18	H	0.608698	0.290937	0.841514
	H19	H	0.415155	0.289729	0.168422
	H20	H	0.725871	0.840318	0.406435
	H21	H	0.727663	0.167062	0.603780
	H22	H	0.296446	0.840720	0.604755
	H23	H	0.296409	0.167574	0.404727
	H24	H	0.913634	0.339837	0.218869
	H25	H	0.109094	0.668094	0.218913
	H26	H	0.110145	0.340236	0.790810
	H27	H	0.913747	0.668068	0.791558
	H28	H	0.225735	0.905668	0.341671
	H29	H	0.227767	0.103974	0.668630
	H30	H	0.797063	0.102237	0.341981
	H31	H	0.795876	0.903676	0.667963
	H32	H	0.348937	0.219682	0.906318
	H33	H	0.674777	0.219895	0.103219
	H34	H	0.349796	0.787966	0.105036
	H35	H	0.674060	0.790466	0.907576
	H36	H	0.349436	0.904953	0.220391
	H37	H	0.674144	0.105323	0.221653
	H38	H	0.349734	0.103577	0.789214
	H39	H	0.674148	0.905862	0.790510
	H40	H	0.915170	0.217107	0.340819
	H41	H	0.110030	0.219527	0.668123
	H42	H	0.107349	0.790863	0.341353
	H43	H	0.914283	0.789246	0.668659
	H44	H	0.227495	0.340764	0.906408
	H45	H	0.226830	0.667834	0.104446
	H46	H	0.796828	0.340987	0.103600
	H47	H	0.797703	0.667626	0.906169
	H48	H	0.418524	0.120080	0.596601
	H49	H	0.595792	0.890150	0.598557
	H50	H	0.601578	0.121370	0.405547
	H51	H	0.420971	0.890071	0.415409
	H52	H	0.601040	0.404709	0.121823
	H53	H	0.612714	0.598623	0.886773
	H54	H	0.405582	0.592360	0.124285
	H55	H	0.426067	0.411599	0.891556
	H56	H	0.128664	0.599307	0.409685
	H57	H	0.895934	0.594450	0.602367
	H58	H	0.124368	0.413808	0.594708
	H59	H	0.897307	0.413136	0.415142
	H60	H	0.127032	0.415276	0.602603
	H61	H	0.894479	0.600710	0.599798
	H62	H	0.126583	0.598233	0.414814
	H63	H	0.895706	0.412171	0.407892
	H64	H	0.427762	0.586494	0.116268
	H65	H	0.604267	0.591096	0.890751
	H66	H	0.614318	0.412611	0.123175
	H67	H	0.414132	0.406982	0.887419
	H68	H	0.600291	0.117314	0.418526
	H69	H	0.607236	0.889258	0.590305
	H70	H	0.421424	0.119356	0.598498
	H71	H	0.413849	0.886770	0.412958
	H72	H	0.920621	0.622563	0.107374
	H73	H	0.109118	0.384617	0.103346
	H74	H	0.099120	0.620151	0.905715
	H75	H	0.921632	0.391200	0.922807
	H76	H	0.103205	0.916389	0.619063
	H77	H	0.114445	0.088560	0.389181
	H78	H	0.919829	0.095923	0.620377
	H79	H	0.918562	0.921183	0.392437
	H80	H	0.629750	0.095280	0.900557
	H81	H	0.398301	0.093788	0.097839
	H82	H	0.626725	0.910503	0.096607
	H83	H	0.396818	0.911816	0.914554
	H84	H	0.626044	0.915169	0.098232
	H85	H	0.395486	0.098153	0.102422
	H86	H	0.630091	0.109772	0.915911
	H87	H	0.396285	0.913879	0.910790
	H88	H	0.919738	0.097120	0.620705
	H89	H	0.094038	0.094435	0.393861
	H90	H	0.102213	0.908931	0.620904
	H91	H	0.926172	0.903930	0.389615
	H92	H	0.099574	0.615440	0.922044
	H93	H	0.099160	0.388838	0.099987
	H94	H	0.926066	0.616864	0.093901
	H95	H	0.908404	0.383894	0.910533
	H96	H	0.420816	0.119053	0.595720
	H97	H	0.607988	0.885113	0.603756
	H98	H	0.612708	0.122671	0.414408
	H99	H	0.420355	0.887249	0.407850
	H100	H	0.601578	0.420198	0.117855
	H101	H	0.601329	0.602961	0.888565
	H102	H	0.423288	0.609232	0.123683
	H103	H	0.415282	0.419343	0.890471
	H104	H	0.126034	0.594031	0.410693
	H105	H	0.896760	0.595916	0.595925
	H106	H	0.127987	0.407280	0.598676
	H107	H	0.895529	0.406882	0.412903
	H108	H	0.911225	0.622127	0.095246
	H109	H	0.107651	0.389012	0.093298
	H110	H	0.113835	0.622434	0.914549
	H111	H	0.926395	0.387643	0.904201
	H112	H	0.109060	0.912465	0.622235
	H113	H	0.108318	0.108793	0.384881
	H114	H	0.918130	0.096585	0.620975
	H115	H	0.908305	0.906999	0.385462
	H116	H	0.622685	0.090403	0.919357
	H117	H	0.396686	0.099980	0.096427
	H118	H	0.628659	0.911574	0.101742
	H119	H	0.395375	0.909512	0.910877
	C120	C	0.390700	0.011968	0.626418
	C121	C	0.633221	0.996041	0.626741
	C122	C	0.633343	0.012475	0.383993
	C123	C	0.390114	0.996172	0.383302
	C124	C	0.633404	0.383481	0.013309
	C125	C	0.634338	0.626029	0.996708
	C126	C	0.390298	0.625344	0.013794
	C127	C	0.390336	0.383122	0.997361
	C128	C	0.019842	0.625088	0.383452
	C129	C	1.003196	0.625933	0.627948
	C130	C	0.019269	0.382594	0.626981
	C131	C	1.003623	0.382412	0.383340
	C132	C	0.890497	0.512195	0.126718
	C133	C	0.133276	0.495908	0.127127
	C134	C	0.133405	0.511943	0.884539
	C135	C	0.890458	0.495823	0.884237
	C136	C	0.133002	0.883195	0.513276
	C137	C	0.133938	0.126076	0.497033
	C138	C	0.890806	0.125037	0.513062
	C139	C	0.889419	0.881917	0.497056
	C140	C	0.520126	0.126757	0.883351
	C141	C	0.504099	0.126555	0.127239
	C142	C	0.520113	0.882760	0.127708
	C143	C	0.503268	0.882969	0.883513
	C144	C	0.392645	0.889261	0.682193
	C145	C	0.631602	0.118713	0.682251
	C146	C	0.630350	0.889537	0.328912
	C147	C	0.393361	0.119366	0.328445
	C148	C	0.688731	0.384903	0.890614
	C149	C	0.689527	0.623916	0.119404
	C150	C	0.333693	0.624884	0.891943
	C151	C	0.334718	0.383533	0.119701
	C152	C	0.897064	0.679133	0.387672
	C153	C	0.125296	0.681531	0.625184
	C154	C	0.897317	0.326802	0.623804
	C155	C	0.126250	0.328099	0.386506
	C156	C	0.897334	0.384460	0.682073
	C157	C	0.125211	0.624589	0.683647
	C158	C	0.897354	0.622712	0.328522
	C159	C	0.125779	0.385091	0.328399
	C160	C	0.392814	0.681265	0.891378
	C161	C	0.630812	0.680779	0.119575
	C162	C	0.629694	0.328588	0.890293
	C163	C	0.393816	0.327459	0.119830
	C164	C	0.687868	0.889277	0.386457
	C165	C	0.689089	0.118636	0.624295
	C166	C	0.334465	0.889595	0.624885
	C167	C	0.334972	0.119028	0.385051
	C168	C	0.892954	0.388970	0.181384
	C169	C	0.130307	0.619032	0.181817
	C170	C	0.130954	0.389114	0.828654
	C171	C	0.893297	0.619096	0.829224
	C172	C	0.187813	0.884931	0.390522
	C173	C	0.189766	0.124323	0.619722
	C174	C	0.835267	0.122989	0.390438
	C175	C	0.834261	0.883767	0.619582
	C176	C	0.397671	0.181719	0.886006
	C177	C	0.626295	0.181810	0.124094
	C178	C	0.398176	0.826640	0.124918
	C179	C	0.625613	0.827901	0.886402
	C180	C	0.397929	0.884630	0.182569
	C181	C	0.625947	0.124677	0.182763
	C182	C	0.397851	0.124258	0.827700
	C183	C	0.625694	0.885320	0.828448
	C184	C	0.893819	0.179974	0.389965
	C185	C	0.131020	0.181278	0.619765
	C186	C	0.128953	0.828216	0.390379
	C187	C	0.893027	0.826967	0.619950
	C188	C	0.189150	0.389311	0.886122
	C189	C	0.188550	0.618958	0.124675
	C190	C	0.834921	0.389540	0.124153
	C191	C	0.835684	0.619031	0.886366
	C192	C	0.413771	0.097455	0.603627
	C193	C	0.610314	0.910156	0.604225
	C194	C	0.611390	0.098450	0.406306
	C195	C	0.412001	0.910227	0.405592
	C196	C	0.612041	0.405930	0.098782
	C197	C	0.612583	0.603885	0.911024
	C198	C	0.412352	0.602608	0.099360
	C199	C	0.412086	0.406189	0.911812
	C200	C	0.105131	0.603473	0.405120
	C201	C	0.917769	0.603578	0.605787
	C202	C	0.104434	0.405414	0.605125
	C203	C	0.918276	0.404372	0.405509
	C204	C	0.912664	0.598343	0.105060
	C205	C	0.111636	0.409687	0.105302
	C206	C	0.110819	0.597202	0.907369
	C207	C	0.912257	0.409869	0.906151
	C208	C	0.111244	0.905919	0.598758
	C209	C	0.112152	0.103742	0.411471
	C210	C	0.912709	0.103080	0.598551
	C211	C	0.911177	0.904112	0.411484
	C212	C	0.605447	0.104865	0.905301
	C213	C	0.418930	0.103909	0.105428
	C214	C	0.605183	0.905776	0.105431
	C215	C	0.418181	0.905152	0.905683
	Zn216	Zn	0.511829	0.004333	0.755445
	Zn217	Zn	0.511968	0.004570	0.255858
	Zn218	Zn	0.762712	0.504417	0.004768
	Zn219	Zn	0.261933	0.503792	0.006179
	Zn220	Zn	0.011558	0.753805	0.505461
	Zn221	Zn	0.012286	0.254541	0.504861
	Zn222	Zn	0.011433	0.504114	0.755933
	Zn223	Zn	0.011660	0.503764	0.255123
	Zn224	Zn	0.512039	0.754232	0.004984
	Zn225	Zn	0.511810	0.255212	0.005166
	Zn226	Zn	0.761529	0.003909	0.505051
	Zn227	Zn	0.262119	0.004332	0.504677
	N228	N	0.426971	0.966481	0.683342
	N229	N	0.597385	0.041438	0.683620
	N230	N	0.597031	0.966935	0.327385
	N231	N	0.427057	0.041778	0.327455
	N232	N	0.691227	0.418414	0.968004
	N233	N	0.691833	0.590608	0.041925
	N234	N	0.332122	0.590889	0.969139
	N235	N	0.332536	0.417460	0.042336
	N236	N	0.974269	0.681085	0.420973
	N237	N	0.048482	0.682354	0.591087
	N238	N	0.974178	0.325781	0.590162
	N239	N	0.049243	0.326258	0.420003
	N240	N	0.974226	0.418437	0.684121
	N241	N	0.048250	0.590664	0.685275
	N242	N	0.974458	0.589527	0.326267
	N243	N	0.048704	0.418141	0.326444
	N244	N	0.427600	0.681379	0.968155
	N245	N	0.597436	0.682442	0.042259
	N246	N	0.596259	0.327397	0.967401
	N247	N	0.427381	0.327015	0.042900
	N248	N	0.689789	0.966878	0.419865
	N249	N	0.690392	0.041259	0.590688
	N250	N	0.333499	0.966845	0.590672
	N251	N	0.332867	0.041513	0.418514
	N252	N	0.926942	0.466338	0.182888
	N253	N	0.096657	0.541549	0.183316
	N254	N	0.096844	0.466330	0.827582
	N255	N	0.926565	0.541542	0.827608
	N256	N	0.190241	0.918517	0.467787
	N257	N	0.191666	0.090837	0.542288
	N258	N	0.833167	0.089652	0.467716
	N259	N	0.831992	0.917309	0.542228
	N260	N	0.474715	0.183441	0.919740
	N261	N	0.549632	0.183002	0.090278
	N262	N	0.475296	0.825413	0.091434
	N263	N	0.548687	0.826491	0.920131
	N264	N	0.474797	0.918718	0.184487
	N265	N	0.548913	0.090800	0.184621
	N266	N	0.474754	0.090728	0.825976
	N267	N	0.548727	0.918815	0.826699
	N268	N	0.927949	0.181264	0.467156
	N269	N	0.097356	0.182759	0.542667
	N270	N	0.095524	0.826928	0.467767
	N271	N	0.926564	0.825771	0.542830
	N272	N	0.190653	0.466572	0.920129
	N273	N	0.190683	0.541163	0.091680
	N274	N	0.833358	0.467122	0.090836
	N275	N	0.833898	0.541373	0.919833
	O276	O	0.483961	0.544865	0.535927
	H277	H	0.477896	0.544966	0.540857
	H278	H	0.485512	0.549446	0.529076
	O279	O	-0.017475	-0.005744	-0.019851
	H280	H	-0.012217	-0.004452	-0.015029
	H281	H	-0.017118	-0.000524	-0.019080
	O282	O	0.508875	0.486136	0.573950
	H283	H	0.514266	0.476247	0.571904
	H284	H	0.505936	0.482582	0.578185
	O285	O	0.430385	0.509470	0.520051
	H286	H	0.430872	0.520188	0.525205
	H287	H	0.442730	0.505458	0.510233
	O288	O	0.974884	-0.035298	-0.026123
	H289	H	0.970232	-0.028000	-0.025124
	H290	H	0.975516	-0.035786	-0.028686
	O291	O	-0.544341	0.444186	-0.393116
	H292	H	-0.545045	0.442649	-0.379649
	H293	H	-0.545598	0.451178	-0.401276
	O294	O	0.458308	0.460469	0.439410
	H295	H	0.451402	0.466219	0.440636
	H296	H	0.455540	0.454739	0.436339
	O297	O	0.000394	0.989585	-0.000530
	H298	H	0.002498	0.989325	-0.001422
	H299	H	-0.004556	0.981183	-0.001933
	O300	O	0.382618	0.444561	0.510142
	H301	H	0.369986	0.429763	0.510220
	H302	H	0.389772	0.451195	0.523842
	O303	O	0.423089	0.451794	0.499528
	H304	H	0.422280	0.461074	0.497327
	H305	H	0.421117	0.452335	0.503085
	O306	O	-0.001948	0.954857	0.992268
	H307	H	0.002136	0.951843	0.993799
	H308	H	-0.007311	0.949263	0.989597
	O309	O	0.467521	0.483322	0.516068
	H310	H	0.461089	0.478600	0.524150
	H311	H	0.470296	0.480998	0.515914
