data_Molecule from HDF5

_cell_length_a		16.341699
_cell_length_b		16.347429
_cell_length_c		16.306850
_cell_angle_alpha	89.809994
_cell_angle_beta	89.791942
_cell_angle_gamma	90.011552
_symmetry_space_group_name_H-M	'P 1'
_symmetry_Int_Tables_number		1

loop_
	_symmetry_equiv_pos_as_xyz
	x,y,z

loop_
	_atom_site_label
	_atom_site_type_symbol
	_atom_site_fract_x
	_atom_site_fract_y
	_atom_site_fract_z
	H0	H	0.404312	0.837836	0.722722
	H1	H	0.598135	0.165263	0.719065
	H2	H	0.600008	0.836398	0.294261
	H3	H	0.404606	0.164404	0.291667
	H4	H	0.718809	0.402120	0.843965
	H5	H	0.718612	0.599084	0.169371
	H6	H	0.289931	0.598864	0.842804
	H7	H	0.288534	0.402857	0.169605
	H8	H	0.839092	0.715226	0.409325
	H9	H	0.166206	0.717029	0.603241
	H10	H	0.840150	0.287138	0.606040
	H11	H	0.165820	0.285994	0.407362
	H12	H	0.840607	0.403977	0.721886
	H13	H	0.167970	0.598351	0.718349
	H14	H	0.840013	0.600904	0.290854
	H15	H	0.166485	0.402646	0.291142
	H16	H	0.404663	0.716964	0.843568
	H17	H	0.601472	0.714107	0.170539
	H18	H	0.602026	0.287725	0.843546
	H19	H	0.404297	0.285961	0.170107
	H20	H	0.718242	0.838037	0.409002
	H21	H	0.716525	0.164560	0.604248
	H22	H	0.286480	0.838453	0.607118
	H23	H	0.289219	0.165645	0.409575
	H24	H	0.905554	0.337755	0.222577
	H25	H	0.101566	0.664639	0.219974
	H26	H	0.103319	0.338224	0.791861
	H27	H	0.907485	0.663910	0.793193
	H28	H	0.217917	0.905373	0.342840
	H29	H	0.216552	0.100821	0.669787
	H30	H	0.788097	0.099839	0.342941
	H31	H	0.788775	0.904083	0.670321
	H32	H	0.340916	0.216550	0.908831
	H33	H	0.667134	0.214538	0.103839
	H34	H	0.340728	0.784250	0.108401
	H35	H	0.666152	0.786542	0.908166
	H36	H	0.339020	0.903548	0.221868
	H37	H	0.666336	0.097913	0.221231
	H38	H	0.339516	0.099689	0.794076
	H39	H	0.666168	0.903758	0.792874
	H40	H	0.903700	0.217150	0.343002
	H41	H	0.099798	0.215723	0.669817
	H42	H	0.101679	0.788393	0.342076
	H43	H	0.902472	0.785534	0.669406
	H44	H	0.218683	0.337383	0.908446
	H45	H	0.218274	0.664119	0.103685
	H46	H	0.788384	0.337731	0.106712
	H47	H	0.789050	0.662737	0.907638
	H48	H	0.421995	0.112570	0.600137
	H49	H	0.593876	0.883121	0.609919
	H50	H	0.603026	0.117229	0.417472
	H51	H	0.410990	0.885604	0.413102
	H52	H	0.598645	0.406507	0.124204
	H53	H	0.599983	0.594771	0.889355
	H54	H	0.417966	0.592170	0.119694
	H55	H	0.406662	0.407067	0.888544
	H56	H	0.114162	0.591050	0.420780
	H57	H	0.889138	0.591862	0.597761
	H58	H	0.116778	0.410537	0.594113
	H59	H	0.884468	0.407371	0.406052
	H60	H	0.120838	0.410726	0.605855
	H61	H	0.886858	0.593298	0.605337
	H62	H	0.119251	0.589578	0.405614
	H63	H	0.887958	0.402249	0.421304
	H64	H	0.408215	0.600318	0.125641
	H65	H	0.595355	0.591336	0.892254
	H66	H	0.595090	0.410422	0.122157
	H67	H	0.412182	0.412638	0.892079
	H68	H	0.595769	0.118184	0.404597
	H69	H	0.589534	0.888955	0.595254
	H70	H	0.400361	0.116472	0.589594
	H71	H	0.410273	0.887227	0.418084
	H72	H	0.904402	0.618681	0.101990
	H73	H	0.094463	0.385387	0.101755
	H74	H	0.095032	0.617043	0.907808
	H75	H	0.907485	0.384055	0.917886
	H76	H	0.096163	0.906100	0.622278
	H77	H	0.097588	0.094142	0.390389
	H78	H	0.910941	0.092996	0.620996
	H79	H	0.903284	0.916004	0.390452
	H80	H	0.620900	0.099675	0.913877
	H81	H	0.384734	0.098177	0.103019
	H82	H	0.617233	0.908281	0.094733
	H83	H	0.388790	0.908427	0.917653
	H84	H	0.619553	0.911893	0.106461
	H85	H	0.388724	0.095888	0.096249
	H86	H	0.617152	0.091185	0.916232
	H87	H	0.387335	0.909187	0.914421
	H88	H	0.908910	0.098162	0.623313
	H89	H	0.094725	0.094043	0.391312
	H90	H	0.095188	0.911698	0.621064
	H91	H	0.918262	0.910318	0.393473
	H92	H	0.094589	0.614361	0.918264
	H93	H	0.096801	0.386158	0.098255
	H94	H	0.916525	0.616065	0.102991
	H95	H	0.908424	0.382189	0.909535
	H96	H	0.403863	0.122609	0.613621
	H97	H	0.604174	0.883807	0.597409
	H98	H	0.588451	0.113516	0.416989
	H99	H	0.406927	0.885783	0.415548
	H100	H	0.593225	0.405029	0.122831
	H101	H	0.594640	0.597598	0.890467
	H102	H	0.405284	0.587226	0.121996
	H103	H	0.414821	0.405079	0.890290
	H104	H	0.121255	0.604280	0.413303
	H105	H	0.886547	0.599583	0.600380
	H106	H	0.121101	0.400331	0.598970
	H107	H	0.891297	0.417931	0.416598
	H108	H	0.910236	0.613680	0.092278
	H109	H	0.098738	0.384213	0.101464
	H110	H	0.103616	0.617943	0.913908
	H111	H	0.915044	0.385644	0.913871
	H112	H	0.090955	0.907833	0.621392
	H113	H	0.095741	0.096282	0.390233
	H114	H	0.905404	0.093229	0.623455
	H115	H	0.906886	0.900377	0.387430
	H116	H	0.620662	0.092741	0.907443
	H117	H	0.388199	0.090806	0.102451
	H118	H	0.621321	0.899643	0.103337
	H119	H	0.386916	0.905844	0.915955
	C120	C	0.380265	0.009376	0.629791
	C121	C	0.623834	0.993114	0.628620
	C122	C	0.624235	0.008578	0.385234
	C123	C	0.381447	0.993957	0.386639
	C124	C	0.624539	0.379379	0.015252
	C125	C	0.625189	0.622476	0.998635
	C126	C	0.382009	0.622135	0.014337
	C127	C	0.382288	0.379301	0.998286
	C128	C	0.010748	0.623512	0.384601
	C129	C	0.995509	0.623262	0.628585
	C130	C	0.011611	0.379315	0.628517
	C131	C	0.995212	0.380264	0.385406
	C132	C	0.882011	0.508733	0.128399
	C133	C	0.125342	0.492912	0.128552
	C134	C	0.126026	0.508825	0.884876
	C135	C	0.882669	0.491952	0.885452
	C136	C	0.123637	0.880189	0.513952
	C137	C	0.123689	0.123206	0.498349
	C138	C	0.880552	0.123281	0.514586
	C139	C	0.880904	0.880383	0.498316
	C140	C	0.511598	0.122843	0.884802
	C141	C	0.495045	0.122753	0.128650
	C142	C	0.511179	0.878830	0.129620
	C143	C	0.495115	0.879504	0.886355
	C144	C	0.383133	0.886532	0.684966
	C145	C	0.619473	0.116457	0.681926
	C146	C	0.621176	0.885547	0.331416
	C147	C	0.384045	0.116118	0.330386
	C148	C	0.680629	0.382022	0.892460
	C149	C	0.680121	0.619260	0.121130
	C150	C	0.327399	0.619553	0.891678
	C151	C	0.326517	0.381781	0.121020
	C152	C	0.887880	0.677828	0.387924
	C153	C	0.117772	0.678830	0.624541
	C154	C	0.888744	0.324968	0.626144
	C155	C	0.117494	0.324308	0.386938
	C156	C	0.889312	0.382436	0.684186
	C157	C	0.118705	0.619755	0.681603
	C158	C	0.888420	0.620919	0.329278
	C159	C	0.117764	0.382374	0.329454
	C160	C	0.384492	0.678092	0.892175
	C161	C	0.621993	0.676813	0.121539
	C162	C	0.622802	0.325011	0.892204
	C163	C	0.384248	0.324022	0.121185
	C164	C	0.679754	0.886255	0.388535
	C165	C	0.677917	0.116207	0.624666
	C166	C	0.324929	0.886779	0.627309
	C167	C	0.326943	0.116824	0.389145
	C168	C	0.884743	0.386253	0.184144
	C169	C	0.122502	0.615909	0.182789
	C170	C	0.123730	0.386516	0.829956
	C171	C	0.886313	0.615097	0.830602
	C172	C	0.180088	0.883634	0.391579
	C173	C	0.178532	0.120999	0.621212
	C174	C	0.825980	0.120480	0.391603
	C175	C	0.826151	0.883058	0.621517
	C176	C	0.389212	0.178026	0.888549
	C177	C	0.618423	0.176630	0.124846
	C178	C	0.388770	0.823216	0.127858
	C179	C	0.617593	0.824497	0.887852
	C180	C	0.388167	0.881853	0.184806
	C181	C	0.618006	0.118746	0.182999
	C182	C	0.388639	0.120367	0.830989
	C183	C	0.617518	0.882634	0.830682
	C184	C	0.883478	0.178709	0.391565
	C185	C	0.120262	0.177845	0.621405
	C186	C	0.122037	0.826007	0.390896
	C187	C	0.883240	0.824737	0.621171
	C188	C	0.181272	0.386294	0.887701
	C189	C	0.180476	0.615496	0.125070
	C190	C	0.826463	0.386433	0.126846
	C191	C	0.827329	0.614483	0.887184
	C192	C	0.402301	0.095144	0.607721
	C193	C	0.602265	0.907515	0.607145
	C194	C	0.602293	0.094056	0.406835
	C195	C	0.403143	0.908289	0.409177
	C196	C	0.602109	0.400975	0.100769
	C197	C	0.603269	0.600700	0.912729
	C198	C	0.404011	0.599776	0.100365
	C199	C	0.404792	0.401616	0.912466
	C200	C	0.096174	0.601446	0.406690
	C201	C	0.909587	0.601310	0.607475
	C202	C	0.097427	0.400932	0.606107
	C203	C	0.909839	0.402614	0.408041
	C204	C	0.903996	0.594028	0.105678
	C205	C	0.103143	0.407448	0.106791
	C206	C	0.104057	0.594330	0.906807
	C207	C	0.904058	0.406174	0.907351
	C208	C	0.100797	0.902049	0.599403
	C209	C	0.102259	0.101296	0.412673
	C210	C	0.902176	0.101295	0.600209
	C211	C	0.902969	0.902436	0.412521
	C212	C	0.597415	0.100967	0.906311
	C213	C	0.409484	0.101270	0.107070
	C214	C	0.597020	0.900494	0.107927
	C215	C	0.409849	0.901512	0.909363
	Zn216	Zn	0.502429	0.000962	0.757622
	Zn217	Zn	0.502643	0.000691	0.257500
	Zn218	Zn	0.753224	0.500102	0.006570
	Zn219	Zn	0.253790	0.500564	0.006412
	Zn220	Zn	0.002101	0.751759	0.505663
	Zn221	Zn	0.002878	0.251413	0.506191
	Zn222	Zn	0.004465	0.500684	0.757194
	Zn223	Zn	0.003315	0.501778	0.256686
	Zn224	Zn	0.503403	0.750920	0.007378
	Zn225	Zn	0.504137	0.250989	0.006542
	Zn226	Zn	0.752349	0.001427	0.506883
	Zn227	Zn	0.252131	0.002120	0.507609
	N228	N	0.416513	0.963762	0.686608
	N229	N	0.586308	0.039082	0.684337
	N230	N	0.587633	0.962684	0.329177
	N231	N	0.417145	0.038870	0.328949
	N232	N	0.681783	0.415197	0.969894
	N233	N	0.682213	0.586407	0.043589
	N234	N	0.325884	0.585437	0.968886
	N235	N	0.325477	0.415716	0.043943
	N236	N	0.964822	0.679389	0.421698
	N237	N	0.040074	0.681108	0.592289
	N238	N	0.965998	0.322779	0.592342
	N239	N	0.040201	0.322746	0.420714
	N240	N	0.966570	0.415807	0.685321
	N241	N	0.041722	0.585853	0.684019
	N242	N	0.965814	0.587877	0.327204
	N243	N	0.040775	0.416533	0.328573
	N244	N	0.417567	0.679800	0.969616
	N245	N	0.588516	0.678794	0.044205
	N246	N	0.588602	0.323350	0.969281
	N247	N	0.418351	0.322508	0.043776
	N248	N	0.681883	0.963884	0.421085
	N249	N	0.680883	0.038538	0.592547
	N250	N	0.322964	0.964135	0.593804
	N251	N	0.325170	0.039660	0.423323
	N252	N	0.918519	0.463330	0.185370
	N253	N	0.089192	0.538522	0.185252
	N254	N	0.090320	0.463625	0.828091
	N255	N	0.919938	0.537887	0.829428
	N256	N	0.180981	0.916742	0.468974
	N257	N	0.180525	0.087635	0.543932
	N258	N	0.823676	0.087097	0.469061
	N259	N	0.824704	0.916970	0.544259
	N260	N	0.466680	0.179757	0.921147
	N261	N	0.541170	0.179154	0.091844
	N262	N	0.466186	0.821187	0.094249
	N263	N	0.540439	0.822544	0.921880
	N264	N	0.465314	0.915464	0.186070
	N265	N	0.540400	0.085870	0.185433
	N266	N	0.465678	0.086271	0.829052
	N267	N	0.540386	0.916066	0.829487
	N268	N	0.916767	0.180503	0.468933
	N269	N	0.086837	0.179267	0.544052
	N270	N	0.087763	0.823547	0.468037
	N271	N	0.916538	0.822995	0.543460
	N272	N	0.182502	0.463302	0.921487
	N273	N	0.182503	0.538117	0.092280
	N274	N	0.824813	0.463495	0.092794
	N275	N	0.825064	0.537239	0.920743
	O276	O	0.061949	-0.087128	0.939842
	H277	H	0.063740	-0.078559	0.935897
	H278	H	0.070789	-0.092109	0.934299
	O279	O	0.488404	0.529162	0.363279
	H280	H	0.489765	0.531333	0.355545
	H281	H	0.493733	0.531212	0.365856
	O282	O	0.521774	0.502240	0.387096
	H283	H	0.527026	0.494576	0.380866
	H284	H	0.517904	0.496942	0.383050
	O285	O	0.479341	0.526880	0.385064
	H286	H	0.479688	0.524391	0.393216
	H287	H	0.480545	0.535156	0.387908
	O288	O	0.038529	0.897570	-0.052436
	H289	H	0.034722	0.891292	-0.052520
	H290	H	0.033477	0.897348	-0.051385
	O291	O	0.046421	0.882344	0.947710
	H292	H	0.048046	0.876634	0.944650
	H293	H	0.047080	0.886701	0.952248
	O294	O	0.494800	0.486237	0.358709
	H295	H	0.484291	0.489894	0.349658
	H296	H	0.492614	0.488134	0.356450
	O297	O	1.062444	-0.099961	-0.073119
	H298	H	1.048817	-0.109957	-0.069443
	H299	H	1.067988	-0.108033	-0.079616
