data_Molecule from HDF5

_cell_length_a		16.280002
_cell_length_b		16.282292
_cell_length_c		16.298350
_cell_angle_alpha	90.175810
_cell_angle_beta	90.213785
_cell_angle_gamma	90.125864
_symmetry_space_group_name_H-M	'P 1'
_symmetry_Int_Tables_number		1

loop_
	_symmetry_equiv_pos_as_xyz
	x,y,z

loop_
	_atom_site_label
	_atom_site_type_symbol
	_atom_site_fract_x
	_atom_site_fract_y
	_atom_site_fract_z
	H0	H	0.407466	0.833858	0.719004
	H1	H	0.609002	0.159528	0.722964
	H2	H	0.605257	0.834036	0.290694
	H3	H	0.407100	0.160507	0.290096
	H4	H	0.720920	0.397199	0.841844
	H5	H	0.722305	0.597080	0.169245
	H6	H	0.290174	0.595114	0.841969
	H7	H	0.290523	0.398132	0.168744
	H8	H	0.843212	0.711829	0.405659
	H9	H	0.169945	0.712533	0.605119
	H10	H	0.842942	0.280285	0.603525
	H11	H	0.169592	0.281716	0.405441
	H12	H	0.841876	0.397559	0.719067
	H13	H	0.169837	0.596917	0.721347
	H14	H	0.842338	0.594265	0.290650
	H15	H	0.168253	0.395244	0.288511
	H16	H	0.407290	0.710113	0.841253
	H17	H	0.607239	0.713773	0.168401
	H18	H	0.604878	0.281198	0.842031
	H19	H	0.408187	0.283058	0.169796
	H20	H	0.720079	0.833677	0.406846
	H21	H	0.723385	0.160355	0.605646
	H22	H	0.290914	0.834217	0.604187
	H23	H	0.290081	0.159616	0.403644
	H24	H	0.903522	0.334172	0.221118
	H25	H	0.105582	0.659895	0.221677
	H26	H	0.103772	0.333487	0.789982
	H27	H	0.905737	0.660918	0.789479
	H28	H	0.220923	0.896028	0.341310
	H29	H	0.223450	0.096593	0.667803
	H30	H	0.790014	0.096962	0.342086
	H31	H	0.792504	0.897916	0.668298
	H32	H	0.342728	0.211687	0.905012
	H33	H	0.669379	0.213089	0.105326
	H34	H	0.342690	0.782006	0.102984
	H35	H	0.670248	0.781952	0.906904
	H36	H	0.343097	0.898137	0.219606
	H37	H	0.669536	0.097691	0.221165
	H38	H	0.343660	0.096389	0.788595
	H39	H	0.670122	0.897229	0.790207
	H40	H	0.906456	0.210881	0.341652
	H41	H	0.107357	0.213218	0.667598
	H42	H	0.104692	0.781157	0.342291
	H43	H	0.909298	0.783200	0.668846
	H44	H	0.220822	0.333968	0.905388
	H45	H	0.221024	0.660503	0.105306
	H46	H	0.789834	0.334348	0.103983
	H47	H	0.792080	0.661374	0.907655
	H48	H	0.416556	0.110371	0.590788
	H49	H	0.599835	0.880223	0.600859
	H50	H	0.597193	0.115845	0.406766
	H51	H	0.410009	0.881088	0.415670
	H52	H	0.600510	0.402560	0.122767
	H53	H	0.598721	0.594921	0.887744
	H54	H	0.423401	0.583801	0.116670
	H55	H	0.412782	0.389330	0.886430
	H56	H	0.121207	0.581165	0.410224
	H57	H	0.889899	0.592257	0.596748
	H58	H	0.119367	0.407466	0.592490
	H59	H	0.894181	0.413564	0.413025
	H60	H	0.122318	0.409054	0.603272
	H61	H	0.890942	0.588555	0.597829
	H62	H	0.125234	0.595440	0.408565
	H63	H	0.885798	0.400054	0.405380
	H64	H	0.415430	0.602588	0.124271
	H65	H	0.604547	0.586040	0.889198
	H66	H	0.600532	0.408111	0.120716
	H67	H	0.400623	0.412146	0.888846
	H68	H	0.594497	0.111187	0.417470
	H69	H	0.598607	0.881501	0.596501
	H70	H	0.410439	0.115425	0.599379
	H71	H	0.413698	0.879616	0.406955
	H72	H	0.914013	0.611169	0.092270
	H73	H	0.101664	0.380049	0.096046
	H74	H	0.098399	0.612705	0.913852
	H75	H	0.904631	0.379487	0.912872
	H76	H	0.113967	0.904121	0.625369
	H77	H	0.099425	0.093891	0.387244
	H78	H	0.909672	0.092271	0.623720
	H79	H	0.910601	0.901394	0.387687
	H80	H	0.618840	0.084887	0.920927
	H81	H	0.391699	0.085801	0.097898
	H82	H	0.625613	0.901813	0.104988
	H83	H	0.389360	0.901746	0.912108
	H84	H	0.621878	0.901019	0.091775
	H85	H	0.388364	0.091826	0.101370
	H86	H	0.622040	0.084267	0.907263
	H87	H	0.392309	0.904970	0.913443
	H88	H	0.914996	0.080713	0.618133
	H89	H	0.102997	0.087811	0.387692
	H90	H	0.096833	0.917230	0.616100
	H91	H	0.912537	0.906722	0.389397
	H92	H	0.099084	0.613856	0.912092
	H93	H	0.098932	0.379150	0.101262
	H94	H	0.910097	0.615499	0.101685
	H95	H	0.915718	0.380159	0.902836
	H96	H	0.421786	0.112474	0.600110
	H97	H	0.602704	0.880265	0.597124
	H98	H	0.606089	0.114956	0.415058
	H99	H	0.419771	0.882999	0.413804
	H100	H	0.595817	0.404963	0.119557
	H101	H	0.594691	0.586237	0.892150
	H102	H	0.402561	0.584413	0.123602
	H103	H	0.425631	0.410237	0.895403
	H104	H	0.120812	0.590751	0.422305
	H105	H	0.889374	0.590847	0.600223
	H106	H	0.123350	0.399736	0.598603
	H107	H	0.891507	0.398738	0.421557
	H108	H	0.920230	0.612168	0.101222
	H109	H	0.095592	0.381871	0.096430
	H110	H	0.097389	0.613309	0.912583
	H111	H	0.918114	0.384467	0.917727
	H112	H	0.092259	0.894934	0.621802
	H113	H	0.096267	0.088197	0.389703
	H114	H	0.923202	0.092420	0.619108
	H115	H	0.916010	0.902675	0.389012
	H116	H	0.624306	0.096929	0.915278
	H117	H	0.389997	0.091751	0.094323
	H118	H	0.620426	0.912540	0.097997
	H119	H	0.390332	0.904795	0.908966
	C120	C	0.386447	0.005098	0.625633
	C121	C	0.629740	0.988588	0.627923
	C122	C	0.627692	0.005855	0.384115
	C123	C	0.384808	0.988699	0.382669
	C124	C	0.627813	0.375760	0.013300
	C125	C	0.628539	0.618613	0.997471
	C126	C	0.384478	0.618439	0.013444
	C127	C	0.384026	0.375304	0.997779
	C128	C	0.014379	0.617500	0.384512
	C129	C	0.998305	0.618726	0.627216
	C130	C	0.014018	0.375363	0.626826
	C131	C	0.997898	0.374750	0.383431
	C132	C	0.884961	0.505377	0.126904
	C133	C	0.127355	0.488595	0.127109
	C134	C	0.126647	0.505345	0.884351
	C135	C	0.884092	0.489250	0.882939
	C136	C	0.128871	0.875769	0.513538
	C137	C	0.128997	0.118944	0.496173
	C138	C	0.885639	0.117782	0.512906
	C139	C	0.884832	0.874953	0.496834
	C140	C	0.514404	0.118186	0.884026
	C141	C	0.497900	0.118978	0.127181
	C142	C	0.514540	0.876120	0.126482
	C143	C	0.498519	0.875016	0.883163
	C144	C	0.387685	0.882595	0.681025
	C145	C	0.628460	0.110884	0.684473
	C146	C	0.625720	0.883057	0.328059
	C147	C	0.386778	0.111639	0.327589
	C148	C	0.683092	0.377530	0.890638
	C149	C	0.684357	0.617150	0.120226
	C150	C	0.328148	0.615774	0.890838
	C151	C	0.328572	0.377551	0.120306
	C152	C	0.891605	0.673028	0.386188
	C153	C	0.121232	0.674292	0.625437
	C154	C	0.891570	0.318660	0.624454
	C155	C	0.120550	0.319412	0.385362
	C156	C	0.890978	0.377358	0.681643
	C157	C	0.121117	0.616761	0.683060
	C158	C	0.891364	0.615005	0.328533
	C159	C	0.119950	0.375970	0.327200
	C160	C	0.386656	0.672862	0.890340
	C161	C	0.626847	0.674976	0.119967
	C162	C	0.625292	0.319669	0.890712
	C163	C	0.386869	0.320225	0.120700
	C164	C	0.682621	0.882695	0.386168
	C165	C	0.685753	0.111273	0.626477
	C166	C	0.330067	0.882722	0.623517
	C167	C	0.328635	0.111075	0.384044
	C168	C	0.885078	0.382539	0.182154
	C169	C	0.125545	0.611276	0.183416
	C170	C	0.124642	0.382302	0.828337
	C171	C	0.885974	0.612351	0.827966
	C172	C	0.183169	0.876950	0.390199
	C173	C	0.185388	0.117083	0.618869
	C174	C	0.828703	0.116352	0.390670
	C175	C	0.830367	0.877782	0.619514
	C176	C	0.391722	0.174055	0.884939
	C177	C	0.620730	0.174911	0.125407
	C178	C	0.391645	0.820296	0.123543
	C179	C	0.621583	0.820001	0.886207
	C180	C	0.391854	0.877714	0.181769
	C181	C	0.620759	0.117749	0.183206
	C182	C	0.392052	0.116235	0.827428
	C183	C	0.621584	0.877469	0.828532
	C184	C	0.886504	0.173356	0.390563
	C185	C	0.127962	0.175256	0.618828
	C186	C	0.125388	0.819560	0.390634
	C187	C	0.888272	0.820471	0.619793
	C188	C	0.182305	0.382507	0.885919
	C189	C	0.183005	0.611575	0.125682
	C190	C	0.828156	0.382789	0.124445
	C191	C	0.828991	0.612459	0.886131
	C192	C	0.409490	0.090687	0.603278
	C193	C	0.607115	0.902899	0.604955
	C194	C	0.605721	0.091707	0.406490
	C195	C	0.407612	0.903300	0.405437
	C196	C	0.605643	0.398555	0.098865
	C197	C	0.605848	0.595789	0.911800
	C198	C	0.407171	0.596614	0.099268
	C199	C	0.406514	0.397421	0.912369
	C200	C	0.100211	0.595339	0.407026
	C201	C	0.912230	0.596857	0.604854
	C202	C	0.099515	0.398496	0.604598
	C203	C	0.912406	0.397462	0.406521
	C204	C	0.908120	0.590758	0.104911
	C205	C	0.105225	0.402711	0.104570
	C206	C	0.104678	0.591044	0.906419
	C207	C	0.906299	0.403658	0.904755
	C208	C	0.107294	0.898643	0.599023
	C209	C	0.106144	0.096621	0.410555
	C210	C	0.909235	0.095051	0.598365
	C211	C	0.906835	0.897066	0.410829
	C212	C	0.599674	0.095423	0.907754
	C213	C	0.412199	0.096226	0.104479
	C214	C	0.600373	0.898475	0.104580
	C215	C	0.412791	0.897252	0.905105
	Zn216	Zn	0.507231	-0.003081	0.755097
	Zn217	Zn	0.506564	-0.002247	0.255516
	Zn218	Zn	0.756893	0.497637	0.005363
	Zn219	Zn	0.255755	0.497196	0.005886
	Zn220	Zn	0.007000	0.747162	0.505551
	Zn221	Zn	0.006542	0.246770	0.504546
	Zn222	Zn	0.005791	0.497448	0.755329
	Zn223	Zn	0.005916	0.495903	0.255510
	Zn224	Zn	0.506493	0.746912	0.004933
	Zn225	Zn	0.505923	0.246717	0.005737
	Zn226	Zn	0.756639	-0.002930	0.505168
	Zn227	Zn	0.257262	-0.003249	0.504044
	N228	N	0.422183	0.959697	0.682203
	N229	N	0.594498	0.033478	0.685319
	N230	N	0.592242	0.960568	0.326833
	N231	N	0.420875	0.034490	0.326604
	N232	N	0.684631	0.411840	0.967955
	N233	N	0.685406	0.582716	0.043093
	N234	N	0.327013	0.582578	0.968346
	N235	N	0.326893	0.410962	0.042946
	N236	N	0.969151	0.674744	0.420121
	N237	N	0.043766	0.675619	0.591287
	N238	N	0.968908	0.317654	0.590711
	N239	N	0.043437	0.318277	0.419391
	N240	N	0.968142	0.411839	0.683112
	N241	N	0.043706	0.583116	0.684271
	N242	N	0.968705	0.581222	0.327407
	N243	N	0.042600	0.409641	0.325993
	N244	N	0.420770	0.674832	0.967730
	N245	N	0.592781	0.675893	0.042445
	N246	N	0.591710	0.318477	0.967907
	N247	N	0.420490	0.318508	0.043326
	N248	N	0.684019	0.960026	0.420331
	N249	N	0.686642	0.034118	0.591924
	N250	N	0.328911	0.960100	0.589824
	N251	N	0.327264	0.033673	0.417571
	N252	N	0.919587	0.459748	0.183933
	N253	N	0.091653	0.533741	0.184503
	N254	N	0.090614	0.459453	0.827157
	N255	N	0.919166	0.534827	0.825680
	N256	N	0.185330	0.911235	0.467398
	N257	N	0.186205	0.082824	0.541610
	N258	N	0.828271	0.082150	0.467741
	N259	N	0.827760	0.910584	0.541761
	N260	N	0.468911	0.175262	0.919638
	N261	N	0.543504	0.175621	0.091068
	N262	N	0.469135	0.819057	0.090122
	N263	N	0.544166	0.818424	0.919577
	N264	N	0.469138	0.911969	0.183460
	N265	N	0.543273	0.083733	0.184429
	N266	N	0.469383	0.082274	0.826772
	N267	N	0.544073	0.910878	0.826430
	N268	N	0.921346	0.174281	0.467583
	N269	N	0.093583	0.176491	0.541624
	N270	N	0.092314	0.818616	0.468141
	N271	N	0.921358	0.818772	0.542328
	N272	N	0.183906	0.460057	0.919750
	N273	N	0.184293	0.534307	0.091489
	N274	N	0.828090	0.459948	0.090540
	N275	N	0.827886	0.535030	0.919829
	O276	O	0.000765	0.091204	-0.026842
	H277	H	-0.003232	0.099525	-0.035658
	H278	H	-0.005237	0.099162	-0.031406
	O279	O	0.445029	0.534803	0.478331
	H280	H	0.431398	0.532558	0.468078
	H281	H	0.437725	0.526768	0.486846
	O282	O	0.487144	0.515990	0.572632
	H283	H	0.482339	0.522036	0.575567
	H284	H	0.475186	0.510650	0.576792
	O285	O	0.962623	-0.044904	1.055439
	H286	H	0.949589	-0.050342	1.057857
	H287	H	0.954012	-0.042443	1.053578
	O288	O	1.048511	0.023995	0.021021
	H289	H	1.037960	0.026285	0.012080
	H290	H	1.051337	0.023766	0.021607
	O291	O	0.533238	0.511765	0.567230
	H292	H	0.539944	0.511912	0.566643
	H293	H	0.539052	0.514620	0.560184
	O294	O	1.475697	0.598667	0.515948
	H295	H	1.469572	0.607613	0.511921
	H296	H	1.472957	0.602919	0.511340
	O297	O	-0.015044	0.056270	-0.007046
	H298	H	-0.012387	0.058422	-0.014893
	H299	H	-0.012310	0.042274	-0.004944
	O300	O	0.521914	0.474563	0.366963
	H301	H	0.527291	0.481606	0.359318
	H302	H	0.522552	0.475516	0.371703
	O303	O	0.431607	0.511294	0.440414
	H304	H	0.423561	0.497622	0.446105
	H305	H	0.436251	0.503529	0.437683
	O306	O	1.066189	0.050478	0.027696
	H307	H	1.070231	0.054128	0.027609
	H308	H	1.069287	0.052706	0.032671
	O309	O	-0.082946	-0.000235	1.028367
	H310	H	-0.077421	0.007666	1.036851
	H311	H	-0.087238	0.002397	1.029224
	O312	O	0.997558	1.045011	1.079282
	H313	H	0.996994	1.047328	1.083121
	H314	H	1.015519	1.040506	1.075821
	O315	O	0.456497	0.464810	0.569633
	H316	H	0.453043	0.469913	0.563174
	H317	H	0.461618	0.474967	0.567897
	O318	O	0.455480	0.419988	0.584505
	H319	H	0.461988	0.418796	0.585381
	H320	H	0.461622	0.413650	0.592701
	O321	O	-0.009227	1.056020	1.059595
	H322	H	-0.017415	1.042405	1.060041
	H323	H	-0.005834	1.059539	1.053594
	O324	O	0.479596	0.394508	0.499085
	H325	H	0.481797	0.397968	0.503137
	H326	H	0.480101	0.384641	0.513949
	O327	O	0.900668	0.880376	0.140368
	H328	H	0.896643	0.872365	0.142885
	H329	H	0.887906	0.879359	0.148768
	O330	O	0.379842	0.555466	0.431338
	H331	H	0.378512	0.545839	0.436112
	H332	H	0.376469	0.549560	0.439878
	O333	O	0.526818	0.509639	0.417961
	H334	H	0.531183	0.509577	0.417288
	H335	H	0.524448	0.511829	0.420413
	O336	O	0.516316	0.583761	0.540755
	H337	H	0.514453	0.576378	0.535026
	H338	H	0.517687	0.594912	0.544205
	O339	O	1.005380	1.043503	0.028090
	H340	H	1.005236	1.049887	0.033437
	H341	H	1.007278	1.053019	0.037191
	O342	O	0.539561	0.498245	0.571773
	H343	H	0.549784	0.508484	0.574144
	H344	H	0.542975	0.492143	0.554478
	O345	O	0.551224	0.519215	0.593233
	H346	H	0.558899	0.535482	0.583889
	H347	H	0.537156	0.525310	0.596395
	O348	O	0.026165	0.061700	0.015257
	H349	H	0.027773	0.060455	0.009941
	H350	H	0.021371	0.067249	0.018379
	O351	O	-0.450954	0.516236	0.558879
	H352	H	-0.467359	0.527135	0.557935
	H353	H	-0.454672	0.499667	0.552056
	O354	O	0.543234	0.499259	0.509139
	H355	H	0.548270	0.493551	0.512642
	H356	H	0.548755	0.501549	0.514312
	O357	O	-0.412432	1.403474	0.521578
	H358	H	-0.408433	1.417656	0.524558
	H359	H	-0.408788	1.410819	0.523653
