data_Molecule from HDF5

_cell_length_a		16.320511
_cell_length_b		16.297453
_cell_length_c		16.263556
_cell_angle_alpha	90.042370
_cell_angle_beta	89.920782
_cell_angle_gamma	90.251990
_symmetry_space_group_name_H-M	'P 1'
_symmetry_Int_Tables_number		1

loop_
	_symmetry_equiv_pos_as_xyz
	x,y,z

loop_
	_atom_site_label
	_atom_site_type_symbol
	_atom_site_fract_x
	_atom_site_fract_y
	_atom_site_fract_z
	H0	H	0.408937	0.836076	0.705203
	H1	H	0.607076	0.163722	0.707482
	H2	H	0.604141	0.836279	0.279640
	H3	H	0.411129	0.163498	0.277424
	H4	H	0.722336	0.400278	0.829003
	H5	H	0.721024	0.597938	0.156460
	H6	H	0.294376	0.596879	0.828891
	H7	H	0.293250	0.400323	0.156622
	H8	H	0.844351	0.714902	0.395291
	H9	H	0.171475	0.717196	0.591032
	H10	H	0.845119	0.284473	0.593850
	H11	H	0.170625	0.287666	0.392918
	H12	H	0.844811	0.402283	0.708233
	H13	H	0.171127	0.601814	0.708102
	H14	H	0.844152	0.599693	0.278332
	H15	H	0.171442	0.405596	0.278691
	H16	H	0.408787	0.714431	0.829100
	H17	H	0.606800	0.715339	0.156311
	H18	H	0.606186	0.286270	0.828652
	H19	H	0.408788	0.284660	0.156005
	H20	H	0.721637	0.836963	0.393684
	H21	H	0.722816	0.163608	0.591373
	H22	H	0.290595	0.837494	0.590784
	H23	H	0.295635	0.165025	0.394059
	H24	H	0.907854	0.338090	0.208636
	H25	H	0.105146	0.665007	0.205105
	H26	H	0.106006	0.337376	0.775794
	H27	H	0.909089	0.664491	0.778171
	H28	H	0.220626	0.904052	0.328509
	H29	H	0.223593	0.102244	0.655512
	H30	H	0.794000	0.099039	0.328487
	H31	H	0.791120	0.901302	0.655954
	H32	H	0.344219	0.214102	0.893541
	H33	H	0.671134	0.215726	0.090513
	H34	H	0.344601	0.785156	0.089981
	H35	H	0.670433	0.785557	0.892761
	H36	H	0.344183	0.900347	0.206642
	H37	H	0.671794	0.098930	0.206042
	H38	H	0.343844	0.096581	0.778893
	H39	H	0.670694	0.901600	0.776789
	H40	H	0.909425	0.215552	0.328689
	H41	H	0.106958	0.217347	0.655495
	H42	H	0.106238	0.788268	0.329010
	H43	H	0.907765	0.786539	0.656458
	H44	H	0.221260	0.336171	0.893385
	H45	H	0.225076	0.662897	0.092566
	H46	H	0.792208	0.336862	0.091916
	H47	H	0.790439	0.662494	0.891199
	H48	H	0.420819	0.119075	0.598819
	H49	H	0.599453	0.885433	0.581919
	H50	H	0.589224	0.114068	0.397027
	H51	H	0.414384	0.883792	0.396899
	H52	H	0.598802	0.410527	0.107445
	H53	H	0.608460	0.592593	0.873950
	H54	H	0.414313	0.597668	0.110844
	H55	H	0.416565	0.408329	0.877509
	H56	H	0.126558	0.602093	0.396277
	H57	H	0.893884	0.597127	0.576261
	H58	H	0.124208	0.409448	0.586370
	H59	H	0.890670	0.415456	0.389089
	H60	H	0.123133	0.408303	0.581460
	H61	H	0.894429	0.585126	0.588896
	H62	H	0.121773	0.595493	0.405379
	H63	H	0.888023	0.396153	0.399279
	H64	H	0.411058	0.588663	0.109294
	H65	H	0.596742	0.585320	0.879547
	H66	H	0.598678	0.402565	0.110575
	H67	H	0.414698	0.403715	0.875476
	H68	H	0.606581	0.115075	0.409726
	H69	H	0.600774	0.883787	0.584221
	H70	H	0.422593	0.111622	0.576321
	H71	H	0.413138	0.885000	0.401191
	H72	H	0.912758	0.617233	0.084256
	H73	H	0.093550	0.386154	0.085245
	H74	H	0.100491	0.616327	0.899506
	H75	H	0.913541	0.385519	0.903293
	H76	H	0.105986	0.906700	0.612117
	H77	H	0.108413	0.096792	0.373518
	H78	H	0.912899	0.094890	0.610316
	H79	H	0.910186	0.909731	0.375844
	H80	H	0.622652	0.088837	0.897082
	H81	H	0.392630	0.091733	0.082347
	H82	H	0.625471	0.906914	0.089410
	H83	H	0.391160	0.898173	0.904825
	H84	H	0.623939	0.904991	0.081803
	H85	H	0.392390	0.089706	0.087432
	H86	H	0.625569	0.097165	0.896685
	H87	H	0.394302	0.913347	0.903086
	H88	H	0.914693	0.089629	0.606821
	H89	H	0.101334	0.088660	0.377961
	H90	H	0.100663	0.916537	0.606643
	H91	H	0.918237	0.910770	0.378075
	H92	H	0.101382	0.614952	0.902496
	H93	H	0.104413	0.384110	0.080280
	H94	H	0.914178	0.617456	0.087159
	H95	H	0.913102	0.383411	0.897858
	H96	H	0.402274	0.119462	0.584376
	H97	H	0.597657	0.884755	0.584679
	H98	H	0.607823	0.121480	0.389635
	H99	H	0.410281	0.882734	0.399066
	H100	H	0.605279	0.407310	0.110281
	H101	H	0.594752	0.600055	0.875823
	H102	H	0.419981	0.591015	0.107420
	H103	H	0.411213	0.407144	0.875334
	H104	H	0.123287	0.590424	0.394740
	H105	H	0.888566	0.600897	0.592083
	H106	H	0.121950	0.413245	0.583594
	H107	H	0.895995	0.412875	0.410462
	H108	H	0.916350	0.615965	0.084030
	H109	H	0.102886	0.381677	0.091867
	H110	H	0.104086	0.616592	0.901064
	H111	H	0.918554	0.385635	0.899226
	H112	H	0.093614	0.905900	0.608423
	H113	H	0.096846	0.100033	0.375396
	H114	H	0.918697	0.094369	0.607577
	H115	H	0.914684	0.903145	0.375190
	H116	H	0.622483	0.093761	0.903621
	H117	H	0.391096	0.095657	0.086425
	H118	H	0.622328	0.911804	0.084447
	H119	H	0.388878	0.905340	0.890855
	C120	C	0.385811	0.008731	0.614064
	C121	C	0.628753	0.992173	0.613540
	C122	C	0.629403	0.008838	0.370453
	C123	C	0.385730	0.992027	0.370794
	C124	C	0.629039	0.378255	0.000999
	C125	C	0.629023	0.621613	0.984433
	C126	C	0.386575	0.620893	0.001058
	C127	C	0.385664	0.377657	0.984056
	C128	C	0.016067	0.623649	0.370729
	C129	C	0.999905	0.623592	0.614843
	C130	C	0.015969	0.380345	0.613872
	C131	C	0.999198	0.380042	0.370934
	C132	C	0.885332	0.509089	0.114343
	C133	C	0.129313	0.491986	0.114207
	C134	C	0.129956	0.508368	0.871252
	C135	C	0.885926	0.492327	0.871148
	C136	C	0.128289	0.881164	0.500803
	C137	C	0.130415	0.124079	0.483781
	C138	C	0.886687	0.122068	0.500372
	C139	C	0.885628	0.879408	0.484566
	C140	C	0.515675	0.121407	0.870600
	C141	C	0.500033	0.121362	0.113717
	C142	C	0.516083	0.878500	0.113652
	C143	C	0.499195	0.877655	0.870493
	C144	C	0.387881	0.885311	0.668201
	C145	C	0.627027	0.114745	0.669606
	C146	C	0.625781	0.885327	0.316364
	C147	C	0.389638	0.114882	0.315217
	C148	C	0.684182	0.380776	0.877763
	C149	C	0.683821	0.619137	0.107541
	C150	C	0.331801	0.618097	0.877886
	C151	C	0.330922	0.379863	0.107548
	C152	C	0.893204	0.677834	0.374059
	C153	C	0.122730	0.679069	0.611677
	C154	C	0.893793	0.323369	0.613064
	C155	C	0.122025	0.325382	0.372614
	C156	C	0.893482	0.382058	0.669839
	C157	C	0.122594	0.621624	0.669702
	C158	C	0.893033	0.620521	0.316072
	C159	C	0.122290	0.383624	0.315526
	C160	C	0.388833	0.676233	0.877906
	C161	C	0.627060	0.677342	0.107239
	C162	C	0.626685	0.323640	0.877737
	C163	C	0.388569	0.322706	0.107353
	C164	C	0.683998	0.885834	0.373359
	C165	C	0.684652	0.114934	0.611985
	C166	C	0.329354	0.886063	0.611151
	C167	C	0.332424	0.115530	0.373173
	C168	C	0.887462	0.386506	0.170154
	C169	C	0.126446	0.615601	0.168115
	C170	C	0.126940	0.385839	0.814322
	C171	C	0.888491	0.615349	0.815823
	C172	C	0.183119	0.883563	0.377552
	C173	C	0.185420	0.121973	0.606820
	C174	C	0.831302	0.120090	0.377480
	C175	C	0.829167	0.881051	0.607062
	C176	C	0.393054	0.176235	0.873271
	C177	C	0.622623	0.177291	0.111085
	C178	C	0.393281	0.822931	0.110884
	C179	C	0.621866	0.823108	0.872398
	C180	C	0.393001	0.880567	0.168506
	C181	C	0.622758	0.119685	0.168853
	C182	C	0.392742	0.117970	0.816255
	C183	C	0.621879	0.880655	0.814668
	C184	C	0.888884	0.177746	0.377632
	C185	C	0.127570	0.179358	0.606878
	C186	C	0.126073	0.825901	0.377855
	C187	C	0.887753	0.824420	0.607609
	C188	C	0.184266	0.385363	0.872748
	C189	C	0.185769	0.614527	0.112050
	C190	C	0.830038	0.386011	0.112235
	C191	C	0.829639	0.614410	0.872209
	C192	C	0.408451	0.094560	0.592807
	C193	C	0.605700	0.906687	0.590490
	C194	C	0.607772	0.094714	0.392380
	C195	C	0.406489	0.906161	0.392648
	C196	C	0.607358	0.400345	0.087164
	C197	C	0.606855	0.599265	0.898592
	C198	C	0.408709	0.598926	0.086962
	C199	C	0.407717	0.399714	0.898212
	C200	C	0.101761	0.602200	0.392357
	C201	C	0.914343	0.600872	0.592473
	C202	C	0.101256	0.403638	0.590585
	C203	C	0.913741	0.401812	0.393176
	C204	C	0.907723	0.594802	0.091676
	C205	C	0.106902	0.406029	0.092142
	C206	C	0.108238	0.593995	0.893970
	C207	C	0.908480	0.407050	0.893591
	C208	C	0.106472	0.903128	0.587015
	C209	C	0.108608	0.101756	0.397861
	C210	C	0.909056	0.099533	0.586136
	C211	C	0.907950	0.901589	0.398707
	C212	C	0.601374	0.099684	0.892449
	C213	C	0.414156	0.099000	0.091796
	C214	C	0.601897	0.901160	0.091685
	C215	C	0.413575	0.899342	0.892954
	Zn216	Zn	0.507694	-0.000387	0.742255
	Zn217	Zn	0.507606	-0.000531	0.242413
	Zn218	Zn	0.757198	0.500044	-0.007409
	Zn219	Zn	0.258370	0.499117	-0.006760
	Zn220	Zn	0.007936	0.752125	0.493058
	Zn221	Zn	0.007759	0.251156	0.492401
	Zn222	Zn	0.007887	0.501484	0.743199
	Zn223	Zn	0.007336	0.501565	0.242437
	Zn224	Zn	0.508055	0.749783	-0.007172
	Zn225	Zn	0.507737	0.250495	-0.007648
	Zn226	Zn	0.757372	0.001028	0.492465
	Zn227	Zn	0.257290	0.001528	0.492154
	N228	N	0.422351	0.962437	0.670029
	N229	N	0.593142	0.037217	0.670686
	N230	N	0.592430	0.962613	0.314533
	N231	N	0.422008	0.037093	0.313513
	N232	N	0.685965	0.414060	0.955689
	N233	N	0.685123	0.585025	0.030096
	N234	N	0.330351	0.584345	0.955342
	N235	N	0.329223	0.413475	0.030039
	N236	N	0.970685	0.679985	0.407437
	N237	N	0.045310	0.680703	0.578622
	N238	N	0.970926	0.322472	0.578780
	N239	N	0.044619	0.322846	0.406241
	N240	N	0.970522	0.416724	0.670554
	N241	N	0.045156	0.587882	0.671835
	N242	N	0.970612	0.587839	0.313621
	N243	N	0.045052	0.416974	0.314488
	N244	N	0.422365	0.678027	0.955549
	N245	N	0.593760	0.678833	0.029603
	N246	N	0.592959	0.322198	0.955041
	N247	N	0.421785	0.321029	0.029502
	N248	N	0.686350	0.963741	0.406147
	N249	N	0.685837	0.037807	0.577720
	N250	N	0.327765	0.963862	0.578480
	N251	N	0.329736	0.038268	0.407004
	N252	N	0.921193	0.463929	0.171463
	N253	N	0.091955	0.538393	0.169613
	N254	N	0.093946	0.463418	0.813401
	N255	N	0.922968	0.538529	0.815132
	N256	N	0.184533	0.917329	0.455075
	N257	N	0.187333	0.088518	0.529172
	N258	N	0.830065	0.085938	0.454755
	N259	N	0.827726	0.914570	0.529466
	N260	N	0.470578	0.178518	0.906561
	N261	N	0.545234	0.178542	0.077593
	N262	N	0.470718	0.821858	0.077376
	N263	N	0.544600	0.820983	0.906332
	N264	N	0.470398	0.914475	0.170302
	N265	N	0.545508	0.085458	0.170600
	N266	N	0.469914	0.084756	0.814414
	N267	N	0.544646	0.913885	0.813364
	N268	N	0.922454	0.179227	0.455146
	N269	N	0.094005	0.180737	0.529378
	N270	N	0.092849	0.824412	0.455624
	N271	N	0.922071	0.823253	0.530380
	N272	N	0.186282	0.462389	0.907336
	N273	N	0.187436	0.536634	0.079321
	N274	N	0.828581	0.463433	0.078281
	N275	N	0.827827	0.536952	0.905798
	O276	O	0.970848	0.975861	0.013991
	H277	H	0.968533	0.967492	0.005941
	H278	H	0.959654	0.987643	0.021021
	O279	O	0.021397	-0.034600	0.950745
	H280	H	0.024115	-0.031204	0.947986
	H281	H	0.022036	-0.030713	0.959202
	O282	O	0.021038	-0.099873	-0.052615
	H283	H	0.030489	-0.094989	-0.052162
	H284	H	0.029762	-0.102367	-0.066256
	O285	O	0.468046	0.536411	0.531580
	H286	H	0.466685	0.532586	0.538536
	H287	H	0.470102	0.529933	0.528265
	O288	O	0.081843	-0.064310	0.020172
	H289	H	0.092486	-0.060769	0.016436
	H290	H	0.082902	-0.052324	0.027011
	O291	O	-0.042303	0.980002	0.031202
	H292	H	-0.048767	0.970027	0.026955
	H293	H	-0.031967	0.981002	0.029337
	O294	O	0.044610	0.993203	0.043882
	H295	H	0.049892	0.986150	0.053329
	H296	H	0.043731	0.987044	0.027589
	O297	O	0.508445	0.505343	0.577730
	H298	H	0.508310	0.503269	0.568261
	H299	H	0.506846	0.504881	0.584952
	O300	O	0.574644	0.476206	0.596763
	H301	H	0.573927	0.476073	0.590945
	H302	H	0.572972	0.471361	0.597529
	O303	O	0.964023	-0.005478	1.075722
	H304	H	0.969089	-0.014385	1.075116
	H305	H	0.965427	-0.001057	1.087601
	O306	O	0.113654	1.051796	0.985045
	H307	H	0.106693	1.064102	0.990352
	H308	H	0.111835	1.061593	0.983220
	O309	O	0.024578	0.996832	1.063607
	H310	H	0.020644	0.994807	1.053894
	H311	H	0.027864	0.995316	1.062043
	O312	O	-0.018160	-0.017723	1.006651
	H313	H	-0.011316	-0.024900	1.009656
	H314	H	-0.027074	-0.013920	1.020182
	O315	O	0.486387	0.472603	0.561030
	H316	H	0.485836	0.469938	0.555819
	H317	H	0.487618	0.474311	0.563174
	O318	O	-0.030917	-0.001305	0.998256
	H319	H	-0.033371	-0.003244	0.994456
	H320	H	-0.036344	-0.007114	0.993281
	O321	O	0.477203	0.394130	0.532555
	H322	H	0.483985	0.393277	0.535799
	H323	H	0.467297	0.385903	0.533832
	O324	O	1.046371	0.049353	0.888963
	H325	H	1.038799	0.048094	0.884427
	H326	H	1.054429	0.045672	0.889788
	O327	O	0.980268	1.043022	0.958535
	H328	H	0.976287	1.038270	0.956019
	H329	H	0.979915	1.032455	0.964533
	O330	O	0.516924	0.401115	0.540406
	H331	H	0.516365	0.411038	0.545527
	H332	H	0.525595	0.403825	0.544916
	O333	O	0.014318	-0.044768	0.878127
	H334	H	0.017241	-0.029605	0.880691
	H335	H	0.013910	-0.038286	0.884995
	O336	O	0.560069	0.463553	0.436602
	H337	H	0.562869	0.462467	0.432496
	H338	H	0.557566	0.471123	0.446789
	O339	O	0.542397	0.481271	0.544483
	H340	H	0.543206	0.489498	0.556579
	H341	H	0.543016	0.483504	0.549214
	O342	O	0.020255	0.997482	0.035201
	H343	H	0.024520	0.993122	0.029904
	H344	H	0.019548	0.998430	0.023108
	O345	O	0.518735	0.516184	0.516709
	H346	H	0.512180	0.516050	0.513746
	H347	H	0.514228	0.511891	0.514065
