data_Molecule from HDF5

_cell_length_a		16.232425
_cell_length_b		16.425676
_cell_length_c		16.276672
_cell_angle_alpha	90.012103
_cell_angle_beta	90.118319
_cell_angle_gamma	89.940184
_symmetry_space_group_name_H-M	'P 1'
_symmetry_Int_Tables_number		1

loop_
	_symmetry_equiv_pos_as_xyz
	x,y,z

loop_
	_atom_site_label
	_atom_site_type_symbol
	_atom_site_fract_x
	_atom_site_fract_y
	_atom_site_fract_z
	H0	H	0.397513	0.835531	0.704692
	H1	H	0.594569	0.160426	0.706727
	H2	H	0.593983	0.835445	0.276741
	H3	H	0.394902	0.160353	0.272861
	H4	H	0.709492	0.400836	0.825869
	H5	H	0.710945	0.594544	0.153969
	H6	H	0.282863	0.594945	0.826238
	H7	H	0.282548	0.400069	0.153814
	H8	H	0.833011	0.714245	0.387853
	H9	H	0.159889	0.713502	0.589525
	H10	H	0.832332	0.283401	0.589273
	H11	H	0.159725	0.281445	0.389438
	H12	H	0.831785	0.401983	0.702733
	H13	H	0.161222	0.595936	0.703101
	H14	H	0.832213	0.594748	0.276099
	H15	H	0.161188	0.400485	0.276411
	H16	H	0.396291	0.713241	0.826866
	H17	H	0.597783	0.712925	0.153304
	H18	H	0.596333	0.282326	0.826962
	H19	H	0.396412	0.281768	0.152937
	H20	H	0.711505	0.836223	0.392771
	H21	H	0.710076	0.161392	0.589216
	H22	H	0.281781	0.835669	0.587382
	H23	H	0.279860	0.161028	0.391550
	H24	H	0.898042	0.335838	0.205033
	H25	H	0.096229	0.660292	0.205873
	H26	H	0.095203	0.336938	0.774215
	H27	H	0.896916	0.660902	0.774189
	H28	H	0.209283	0.901005	0.326128
	H29	H	0.210314	0.096037	0.653775
	H30	H	0.781094	0.095949	0.326671
	H31	H	0.783952	0.901514	0.655102
	H32	H	0.332815	0.213827	0.888215
	H33	H	0.659086	0.213324	0.091837
	H34	H	0.332080	0.783331	0.088471
	H35	H	0.660373	0.782209	0.891283
	H36	H	0.331644	0.900044	0.203458
	H37	H	0.660232	0.094710	0.204249
	H38	H	0.331486	0.093663	0.777569
	H39	H	0.660824	0.899205	0.776675
	H40	H	0.893959	0.215186	0.327606
	H41	H	0.097186	0.214546	0.652928
	H42	H	0.096574	0.782173	0.327582
	H43	H	0.896613	0.782216	0.653010
	H44	H	0.210306	0.335613	0.892126
	H45	H	0.212361	0.660654	0.089159
	H46	H	0.782117	0.335390	0.087522
	H47	H	0.780359	0.660337	0.890993
	H48	H	0.416843	0.111378	0.593652
	H49	H	0.588898	0.883431	0.585532
	H50	H	0.578909	0.112201	0.392740
	H51	H	0.393911	0.880794	0.397018
	H52	H	0.585526	0.403091	0.105925
	H53	H	0.592424	0.583052	0.874497
	H54	H	0.406506	0.590028	0.104901
	H55	H	0.413387	0.408184	0.877754
	H56	H	0.114938	0.586746	0.387406
	H57	H	0.879721	0.596658	0.577678
	H58	H	0.113512	0.405126	0.582768
	H59	H	0.879989	0.409004	0.395382
	H60	H	0.112909	0.404184	0.580787
	H61	H	0.881251	0.586484	0.580020
	H62	H	0.115802	0.602484	0.400065
	H63	H	0.878499	0.401135	0.394847
	H64	H	0.404319	0.594314	0.107687
	H65	H	0.579388	0.591798	0.875741
	H66	H	0.591653	0.401836	0.107638
	H67	H	0.403135	0.392528	0.870210
	H68	H	0.588033	0.110486	0.406693
	H69	H	0.589986	0.884042	0.582091
	H70	H	0.402398	0.108943	0.568113
	H71	H	0.407519	0.882637	0.388610
	H72	H	0.912304	0.612528	0.090466
	H73	H	0.080642	0.386468	0.082763
	H74	H	0.100331	0.617778	0.894280
	H75	H	0.895653	0.380232	0.894223
	H76	H	0.085067	0.906460	0.605116
	H77	H	0.090427	0.091747	0.372650
	H78	H	0.905159	0.094573	0.606647
	H79	H	0.901002	0.903411	0.372782
	H80	H	0.613431	0.092675	0.898564
	H81	H	0.376946	0.093450	0.088173
	H82	H	0.614863	0.901516	0.087551
	H83	H	0.380713	0.900861	0.903104
	H84	H	0.612068	0.902102	0.078615
	H85	H	0.379845	0.095743	0.074278
	H86	H	0.611706	0.090009	0.900793
	H87	H	0.381268	0.910318	0.897095
	H88	H	0.901534	0.091661	0.607671
	H89	H	0.085892	0.087197	0.375262
	H90	H	0.088446	0.901218	0.607534
	H91	H	0.903178	0.907750	0.374943
	H92	H	0.081496	0.613573	0.888023
	H93	H	0.095004	0.384147	0.075004
	H94	H	0.905811	0.609430	0.071926
	H95	H	0.909263	0.383050	0.889553
	H96	H	0.388649	0.120084	0.591883
	H97	H	0.592132	0.882632	0.584707
	H98	H	0.594984	0.117016	0.392868
	H99	H	0.406958	0.887480	0.403778
	H100	H	0.590347	0.406995	0.105347
	H101	H	0.592893	0.598614	0.871180
	H102	H	0.401867	0.589767	0.108098
	H103	H	0.393776	0.410560	0.872776
	H104	H	0.108529	0.584992	0.407250
	H105	H	0.877872	0.593379	0.587253
	H106	H	0.111858	0.406348	0.581236
	H107	H	0.881086	0.404235	0.402191
	H108	H	0.893049	0.616995	0.085360
	H109	H	0.093448	0.380335	0.091166
	H110	H	0.086694	0.610258	0.907211
	H111	H	0.905202	0.386345	0.902821
	H112	H	0.092247	0.906789	0.607158
	H113	H	0.083967	0.094079	0.374549
	H114	H	0.905323	0.089742	0.605329
	H115	H	0.906196	0.904033	0.374175
	H116	H	0.612570	0.089725	0.896825
	H117	H	0.381615	0.082839	0.080362
	H118	H	0.611321	0.909410	0.084589
	H119	H	0.376950	0.900570	0.892350
	C120	C	0.374138	0.006216	0.612200
	C121	C	0.618778	0.990265	0.613230
	C122	C	0.616958	0.006271	0.369015
	C123	C	0.373486	0.990626	0.367718
	C124	C	0.617799	0.375816	-0.001826
	C125	C	0.617598	0.619086	0.981748
	C126	C	0.375182	0.619552	-0.001373
	C127	C	0.374765	0.375740	0.981714
	C128	C	0.005007	0.619898	0.368633
	C129	C	0.988163	0.620153	0.610795
	C130	C	0.004417	0.377001	0.610707
	C131	C	0.988242	0.376232	0.368645
	C132	C	0.874917	0.506103	0.111297
	C133	C	0.118769	0.490381	0.111942
	C134	C	0.118130	0.506703	0.868172
	C135	C	0.874191	0.490072	0.867069
	C136	C	0.117199	0.876877	0.498363
	C137	C	0.116535	0.119643	0.482019
	C138	C	0.874535	0.120554	0.498692
	C139	C	0.874741	0.876747	0.482324
	C140	C	0.504406	0.119038	0.869131
	C141	C	0.487573	0.118987	0.110923
	C142	C	0.504313	0.876056	0.111854
	C143	C	0.488199	0.875628	0.868825
	C144	C	0.376885	0.884010	0.666882
	C145	C	0.615505	0.112282	0.668625
	C146	C	0.614720	0.884070	0.314259
	C147	C	0.375137	0.112118	0.311720
	C148	C	0.672411	0.379002	0.874967
	C149	C	0.673196	0.615623	0.105026
	C150	C	0.320547	0.615904	0.874892
	C151	C	0.320495	0.379522	0.105104
	C152	C	0.881688	0.675622	0.369224
	C153	C	0.111332	0.674958	0.608984
	C154	C	0.881245	0.321754	0.608956
	C155	C	0.111293	0.320258	0.370150
	C156	C	0.880913	0.380559	0.665317
	C157	C	0.111790	0.616900	0.665751
	C158	C	0.881221	0.616357	0.313520
	C159	C	0.111930	0.379220	0.313851
	C160	C	0.376605	0.674966	0.875531
	C161	C	0.616671	0.674294	0.104796
	C162	C	0.615925	0.320370	0.875583
	C163	C	0.376890	0.320550	0.104549
	C164	C	0.672906	0.884342	0.372025
	C165	C	0.673030	0.112620	0.610527
	C166	C	0.319399	0.883964	0.608507
	C167	C	0.317854	0.112688	0.370495
	C168	C	0.877550	0.384136	0.166870
	C169	C	0.116888	0.612068	0.167926
	C170	C	0.115608	0.384836	0.812722
	C171	C	0.876645	0.612498	0.812226
	C172	C	0.171596	0.880315	0.375147
	C173	C	0.172243	0.116675	0.604920
	C174	C	0.818681	0.117359	0.375728
	C175	C	0.820710	0.880208	0.605758
	C176	C	0.381642	0.175011	0.869470
	C177	C	0.610631	0.174574	0.110746
	C178	C	0.381069	0.820996	0.109215
	C179	C	0.611633	0.820757	0.871382
	C180	C	0.380700	0.879290	0.165932
	C181	C	0.611163	0.115662	0.166515
	C182	C	0.380754	0.115439	0.814254
	C183	C	0.611601	0.878640	0.814035
	C184	C	0.874962	0.176309	0.376116
	C185	C	0.116150	0.175500	0.604441
	C186	C	0.115667	0.821169	0.375771
	C187	C	0.876646	0.820971	0.604706
	C188	C	0.172778	0.384416	0.871403
	C189	C	0.174228	0.612302	0.109595
	C190	C	0.820144	0.383766	0.108236
	C191	C	0.818689	0.612173	0.870215
	C192	C	0.396130	0.091560	0.590904
	C193	C	0.596736	0.905400	0.590811
	C194	C	0.594292	0.091104	0.391087
	C195	C	0.396018	0.905775	0.389995
	C196	C	0.595815	0.397514	0.084138
	C197	C	0.594750	0.597625	0.895916
	C198	C	0.397514	0.597879	0.084550
	C199	C	0.396835	0.397518	0.895766
	C200	C	0.090862	0.597954	0.391508
	C201	C	0.901829	0.598459	0.588268
	C202	C	0.090780	0.398928	0.588280
	C203	C	0.902116	0.398425	0.390831
	C204	C	0.897063	0.590956	0.089117
	C205	C	0.096271	0.405547	0.089728
	C206	C	0.096038	0.591883	0.890004
	C207	C	0.896716	0.405130	0.889059
	C208	C	0.095038	0.898467	0.584396
	C209	C	0.093403	0.097543	0.396248
	C210	C	0.897320	0.098642	0.584510
	C211	C	0.896993	0.898560	0.396237
	C212	C	0.590352	0.097119	0.891879
	C213	C	0.401692	0.097041	0.087679
	C214	C	0.590594	0.897809	0.089864
	C215	C	0.402027	0.897414	0.890921
	Zn216	Zn	0.496172	-0.002287	0.741236
	Zn217	Zn	0.495828	-0.001950	0.238942
	Zn218	Zn	0.745832	0.497836	-0.010241
	Zn219	Zn	0.247419	0.498436	-0.009771
	Zn220	Zn	-0.003982	0.748149	0.489974
	Zn221	Zn	-0.003725	0.248500	0.490072
	Zn222	Zn	-0.003428	0.498971	0.738674
	Zn223	Zn	-0.003320	0.498189	0.240885
	Zn224	Zn	0.496602	0.747538	-0.009331
	Zn225	Zn	0.496501	0.247074	-0.009889
	Zn226	Zn	0.746793	-0.001275	0.490986
	Zn227	Zn	0.245045	-0.001577	0.490191
	N228	N	0.410264	0.960822	0.669296
	N229	N	0.582580	0.035215	0.670498
	N230	N	0.580756	0.960768	0.312244
	N231	N	0.408931	0.035342	0.309967
	N232	N	0.673454	0.413107	0.951979
	N233	N	0.673832	0.582034	0.027589
	N234	N	0.319392	0.582357	0.952337
	N235	N	0.319067	0.413017	0.027683
	N236	N	0.959522	0.677897	0.402913
	N237	N	0.033449	0.677254	0.575722
	N238	N	0.959150	0.319575	0.575895
	N239	N	0.033257	0.318092	0.403169
	N240	N	0.958583	0.414137	0.666607
	N241	N	0.034023	0.583322	0.666788
	N242	N	0.958716	0.582540	0.312847
	N243	N	0.034512	0.413253	0.312833
	N244	N	0.409956	0.677221	0.953384
	N245	N	0.582884	0.676639	0.027229
	N246	N	0.582915	0.318018	0.953451
	N247	N	0.409841	0.318079	0.026728
	N248	N	0.674366	0.961230	0.405597
	N249	N	0.675166	0.035799	0.576777
	N250	N	0.317743	0.960972	0.575125
	N251	N	0.316553	0.036028	0.404567
	N252	N	0.911115	0.461030	0.168827
	N253	N	0.082798	0.535435	0.169340
	N254	N	0.082264	0.461845	0.810533
	N255	N	0.910543	0.535658	0.810121
	N256	N	0.172605	0.914073	0.452440
	N257	N	0.172580	0.082648	0.527703
	N258	N	0.818412	0.083263	0.452994
	N259	N	0.819501	0.914280	0.528600
	N260	N	0.459488	0.177355	0.902895
	N261	N	0.532876	0.176659	0.076844
	N262	N	0.459057	0.818927	0.076163
	N263	N	0.533945	0.818805	0.904940
	N264	N	0.458370	0.912454	0.167832
	N265	N	0.533598	0.081982	0.166939
	N266	N	0.458233	0.081377	0.813860
	N267	N	0.533921	0.912266	0.812660
	N268	N	0.908948	0.178407	0.453490
	N269	N	0.082309	0.177578	0.526829
	N270	N	0.082202	0.819142	0.453303
	N271	N	0.909351	0.818617	0.526796
	N272	N	0.174346	0.461065	0.905219
	N273	N	0.175695	0.535599	0.075751
	N274	N	0.818362	0.460511	0.074644
	N275	N	0.817058	0.535242	0.903578
	O276	O	2.079738	0.012651	0.906032
	H277	H	2.078181	0.010911	0.908138
	H278	H	2.085824	0.011513	0.903175
	O279	O	-0.018684	0.016860	-0.011322
	H280	H	-0.014007	0.013913	-0.015587
	H281	H	-0.015264	0.019832	-0.025261
	O282	O	-0.020124	0.036242	0.992496
	H283	H	-0.025250	0.038603	0.995365
	H284	H	-0.014350	0.026437	0.995722
	O285	O	0.533136	0.543332	0.480575
	H286	H	0.538539	0.542873	0.483178
	H287	H	0.532873	0.541785	0.488874
	O288	O	0.501275	0.514027	0.491479
	H289	H	0.499686	0.521879	0.497435
	H290	H	0.495523	0.516676	0.490348
	O291	O	0.014756	1.043807	1.076925
	H292	H	0.000869	1.043006	1.076621
	H293	H	0.020496	1.046140	1.083941
	O294	O	-0.049125	0.026297	0.006430
	H295	H	-0.049788	0.028425	-0.000195
	H296	H	-0.051075	0.031410	0.020599
	O297	O	0.497138	0.562459	0.455759
	H298	H	0.496968	0.563175	0.450311
	H299	H	0.492754	0.559549	0.461479
	O300	O	0.034217	1.051694	1.021158
	H301	H	0.038027	1.047356	1.020410
	H302	H	0.036260	1.049318	1.017278
	O303	O	0.527247	0.509621	0.557530
	H304	H	0.527790	0.513719	0.561327
	H305	H	0.529746	0.506064	0.557545
	O306	O	-0.036780	0.060939	0.978706
	H307	H	-0.054523	0.059007	0.975787
	H308	H	-0.032031	0.067233	0.981491
	O309	O	1.059623	1.029944	1.017548
	H310	H	1.059813	1.038953	1.015182
	H311	H	1.058622	1.019229	1.028868
	O312	O	0.536213	0.513922	0.490042
	H313	H	0.543048	0.511480	0.491309
	H314	H	0.539097	0.504793	0.482927
	O315	O	0.536498	0.521158	0.515233
	H316	H	0.534321	0.521059	0.516148
	H317	H	0.535988	0.523746	0.501460
	O318	O	0.013802	1.015949	-0.080517
	H319	H	0.014086	1.028295	-0.077327
	H320	H	0.015872	1.020131	-0.080329
	O321	O	1.026640	0.974662	0.053866
	H322	H	1.032664	0.982868	0.063253
	H323	H	1.019521	0.974867	0.056045
