data_Molecule from HDF5

_cell_length_a		16.344014
_cell_length_b		16.294953
_cell_length_c		16.265613
_cell_angle_alpha	90.156037
_cell_angle_beta	90.008487
_cell_angle_gamma	89.932121
_symmetry_space_group_name_H-M	'P 1'
_symmetry_Int_Tables_number		1

loop_
	_symmetry_equiv_pos_as_xyz
	x,y,z

loop_
	_atom_site_label
	_atom_site_type_symbol
	_atom_site_fract_x
	_atom_site_fract_y
	_atom_site_fract_z
	H0	H	0.393107	0.836909	0.716750
	H1	H	0.588059	0.164171	0.716885
	H2	H	0.590662	0.837558	0.286218
	H3	H	0.392643	0.164938	0.289369
	H4	H	0.704973	0.401022	0.838266
	H5	H	0.705807	0.600917	0.165437
	H6	H	0.275639	0.599264	0.838004
	H7	H	0.275100	0.403085	0.165539
	H8	H	0.827490	0.715818	0.403528
	H9	H	0.153599	0.715636	0.602754
	H10	H	0.827367	0.286009	0.600515
	H11	H	0.153768	0.284724	0.402267
	H12	H	0.827190	0.402446	0.716988
	H13	H	0.153942	0.598979	0.717883
	H14	H	0.828010	0.600234	0.286474
	H15	H	0.154006	0.401361	0.286907
	H16	H	0.391011	0.716365	0.838936
	H17	H	0.589051	0.715293	0.166253
	H18	H	0.588022	0.285866	0.838629
	H19	H	0.391486	0.287309	0.166479
	H20	H	0.706692	0.836904	0.402347
	H21	H	0.706640	0.163096	0.602736
	H22	H	0.275660	0.837132	0.602784
	H23	H	0.273915	0.163452	0.403447
	H24	H	0.892801	0.337022	0.215618
	H25	H	0.088808	0.664033	0.217702
	H26	H	0.086840	0.336630	0.788719
	H27	H	0.892755	0.664878	0.789174
	H28	H	0.206246	0.900239	0.339764
	H29	H	0.205133	0.099981	0.666146
	H30	H	0.775481	0.098659	0.338739
	H31	H	0.777017	0.903259	0.666648
	H32	H	0.327408	0.214716	0.904127
	H33	H	0.654064	0.217757	0.102464
	H34	H	0.328688	0.784569	0.103083
	H35	H	0.653390	0.784310	0.902486
	H36	H	0.327986	0.901371	0.218827
	H37	H	0.654586	0.100287	0.218118
	H38	H	0.327803	0.098909	0.787562
	H39	H	0.654386	0.901841	0.787867
	H40	H	0.891593	0.214838	0.338690
	H41	H	0.088469	0.214997	0.666461
	H42	H	0.089943	0.784796	0.339026
	H43	H	0.892973	0.787391	0.666692
	H44	H	0.205923	0.337747	0.901551
	H45	H	0.205249	0.664367	0.102104
	H46	H	0.775353	0.337604	0.100823
	H47	H	0.775245	0.664264	0.903688
	H48	H	0.394732	0.116018	0.591658
	H49	H	0.577425	0.887548	0.588540
	H50	H	0.581032	0.115176	0.412579
	H51	H	0.405389	0.887487	0.411292
	H52	H	0.585901	0.411517	0.118595
	H53	H	0.580302	0.593601	0.886383
	H54	H	0.405365	0.595660	0.116329
	H55	H	0.400036	0.408290	0.886698
	H56	H	0.105816	0.590396	0.409117
	H57	H	0.873325	0.597752	0.596530
	H58	H	0.106567	0.406669	0.594595
	H59	H	0.875165	0.410379	0.405912
	H60	H	0.105457	0.408030	0.594511
	H61	H	0.875785	0.593399	0.591624
	H62	H	0.107407	0.595516	0.408695
	H63	H	0.873632	0.403127	0.407675
	H64	H	0.392490	0.598084	0.121118
	H65	H	0.583944	0.593733	0.885835
	H66	H	0.580259	0.410695	0.116638
	H67	H	0.397375	0.404563	0.884661
	H68	H	0.586450	0.116854	0.412748
	H69	H	0.594882	0.881728	0.592825
	H70	H	0.395832	0.118149	0.599939
	H71	H	0.393973	0.885544	0.416815
	H72	H	0.897898	0.617993	0.099144
	H73	H	0.080654	0.383410	0.105371
	H74	H	0.087695	0.619388	0.906239
	H75	H	0.895482	0.384701	0.910897
	H76	H	0.080490	0.892339	0.622820
	H77	H	0.082674	0.099821	0.384021
	H78	H	0.896147	0.098176	0.619757
	H79	H	0.892672	0.906231	0.383889
	H80	H	0.607705	0.090438	0.905362
	H81	H	0.376005	0.094596	0.092874
	H82	H	0.602240	0.921607	0.095428
	H83	H	0.376859	0.908921	0.912536
	H84	H	0.611253	0.902427	0.105566
	H85	H	0.375802	0.091086	0.098363
	H86	H	0.608144	0.099325	0.908344
	H87	H	0.375761	0.909443	0.907991
	H88	H	0.893587	0.091245	0.619719
	H89	H	0.090086	0.086821	0.386100
	H90	H	0.097663	0.912897	0.622079
	H91	H	0.899489	0.912995	0.388163
	H92	H	0.077898	0.615695	0.907575
	H93	H	0.076491	0.388975	0.086258
	H94	H	0.899800	0.615363	0.092663
	H95	H	0.895116	0.383536	0.907251
	H96	H	0.402247	0.115296	0.594982
	H97	H	0.581291	0.881668	0.605725
	H98	H	0.583238	0.116669	0.408307
	H99	H	0.395970	0.882625	0.404822
	H100	H	0.582767	0.406095	0.118895
	H101	H	0.582420	0.590670	0.886660
	H102	H	0.395469	0.585996	0.116613
	H103	H	0.395522	0.408496	0.885415
	H104	H	0.105036	0.593592	0.413352
	H105	H	0.875327	0.591825	0.598100
	H106	H	0.106223	0.407622	0.595672
	H107	H	0.876587	0.407648	0.412887
	H108	H	0.893268	0.618081	0.093798
	H109	H	0.095127	0.381636	0.090503
	H110	H	0.084298	0.616090	0.915401
	H111	H	0.898318	0.385117	0.908894
	H112	H	0.072489	0.916564	0.613051
	H113	H	0.075231	0.088312	0.390013
	H114	H	0.900671	0.092261	0.617673
	H115	H	0.902040	0.903272	0.386043
	H116	H	0.605695	0.093114	0.914513
	H117	H	0.374327	0.097500	0.098563
	H118	H	0.604516	0.901795	0.082473
	H119	H	0.374311	0.905870	0.909729
	C120	C	0.369351	0.008531	0.624371
	C121	C	0.612747	0.991616	0.624389
	C122	C	0.612399	0.008486	0.381593
	C123	C	0.369148	0.992854	0.381726
	C124	C	0.611715	0.379948	0.010040
	C125	C	0.611836	0.622282	0.993984
	C126	C	0.368672	0.622260	0.010013
	C127	C	0.368762	0.379202	0.993797
	C128	C	-0.001102	0.622185	0.381000
	C129	C	0.982702	0.622596	0.624549
	C130	C	-0.001512	0.378961	0.623776
	C131	C	0.982669	0.378569	0.380125
	C132	C	0.868601	0.509057	0.123693
	C133	C	0.112253	0.492536	0.123262
	C134	C	0.111705	0.509149	0.880787
	C135	C	0.868339	0.492535	0.880808
	C136	C	0.112448	0.877898	0.511481
	C137	C	0.111640	0.121044	0.494669
	C138	C	0.868439	0.122129	0.510705
	C139	C	0.869827	0.879385	0.494483
	C140	C	0.499142	0.122409	0.881122
	C141	C	0.483090	0.123119	0.125074
	C142	C	0.498897	0.879585	0.124210
	C143	C	0.482907	0.878796	0.880994
	C144	C	0.372495	0.885596	0.679019
	C145	C	0.609358	0.115209	0.679174
	C146	C	0.610483	0.885888	0.325047
	C147	C	0.371984	0.115795	0.326725
	C148	C	0.667034	0.381116	0.887190
	C149	C	0.667858	0.620858	0.116722
	C150	C	0.313236	0.620178	0.887251
	C151	C	0.313345	0.382327	0.116849
	C152	C	0.876096	0.677561	0.383031
	C153	C	0.105186	0.677449	0.622592
	C154	C	0.876023	0.323838	0.621309
	C155	C	0.105045	0.322715	0.381966
	C156	C	0.876023	0.382070	0.679017
	C157	C	0.105170	0.619588	0.680057
	C158	C	0.876445	0.620081	0.324896
	C159	C	0.105239	0.380966	0.324681
	C160	C	0.370870	0.678019	0.887547
	C161	C	0.609625	0.677547	0.117389
	C162	C	0.609096	0.323863	0.887305
	C163	C	0.371360	0.324987	0.117274
	C164	C	0.668377	0.885704	0.382528
	C165	C	0.667921	0.114648	0.622383
	C166	C	0.313778	0.886007	0.622632
	C167	C	0.312849	0.115156	0.383415
	C168	C	0.871650	0.385958	0.178305
	C169	C	0.109717	0.615348	0.179654
	C170	C	0.108323	0.385681	0.826155
	C171	C	0.871693	0.615895	0.826570
	C172	C	0.168141	0.879987	0.388366
	C173	C	0.166795	0.119583	0.617611
	C174	C	0.813243	0.119631	0.387613
	C175	C	0.814928	0.882402	0.617877
	C176	C	0.376230	0.176976	0.883700
	C177	C	0.605688	0.178954	0.122446
	C178	C	0.376971	0.823067	0.123011
	C179	C	0.605018	0.822881	0.882632
	C180	C	0.376725	0.881000	0.180566
	C181	C	0.605890	0.120918	0.180184
	C182	C	0.376333	0.119363	0.825933
	C183	C	0.605360	0.881266	0.825543
	C184	C	0.870978	0.177155	0.387564
	C185	C	0.108842	0.176814	0.617702
	C186	C	0.109843	0.823175	0.387815
	C187	C	0.872290	0.824811	0.617805
	C188	C	0.167295	0.386344	0.882189
	C189	C	0.167513	0.615542	0.122068
	C190	C	0.813471	0.386391	0.121034
	C191	C	0.813412	0.615719	0.883621
	C192	C	0.391199	0.094452	0.601974
	C193	C	0.590933	0.905850	0.602223
	C194	C	0.590008	0.094022	0.404585
	C195	C	0.391681	0.907109	0.404412
	C196	C	0.589435	0.402765	0.095932
	C197	C	0.588814	0.599403	0.908360
	C198	C	0.391193	0.599863	0.095884
	C199	C	0.390974	0.400869	0.907806
	C200	C	0.084099	0.599885	0.403700
	C201	C	0.896883	0.600775	0.601959
	C202	C	0.084080	0.400971	0.601455
	C203	C	0.897155	0.400622	0.402254
	C204	C	0.890715	0.594956	0.101793
	C205	C	0.090444	0.406950	0.100505
	C206	C	0.089680	0.594846	0.903176
	C207	C	0.889848	0.406652	0.902514
	C208	C	0.090091	0.900550	0.597141
	C209	C	0.089271	0.098256	0.408939
	C210	C	0.890324	0.100343	0.596759
	C211	C	0.891633	0.900996	0.408538
	C212	C	0.584913	0.100677	0.903067
	C213	C	0.397685	0.100973	0.103115
	C214	C	0.583980	0.902106	0.101212
	C215	C	0.397563	0.901351	0.903553
	Zn216	Zn	0.490933	0.000654	0.752305
	Zn217	Zn	0.491274	0.000913	0.252989
	Zn218	Zn	0.739851	0.500825	0.002300
	Zn219	Zn	0.240347	0.500883	0.001561
	Zn220	Zn	-0.009655	0.750646	0.502740
	Zn221	Zn	-0.009347	0.249619	0.502129
	Zn222	Zn	-0.009479	0.501066	0.752837
	Zn223	Zn	-0.009232	0.500367	0.252182
	Zn224	Zn	0.491022	0.750347	0.002490
	Zn225	Zn	0.490777	0.251257	0.002687
	Zn226	Zn	0.741001	-0.000079	0.502435
	Zn227	Zn	0.240393	0.000173	0.503260
	N228	N	0.406204	0.962846	0.680233
	N229	N	0.575518	0.037893	0.680419
	N230	N	0.576288	0.963029	0.324623
	N231	N	0.406243	0.038512	0.325526
	N232	N	0.668658	0.415270	0.964735
	N233	N	0.669086	0.587076	0.039233
	N234	N	0.311914	0.586278	0.964546
	N235	N	0.311916	0.415394	0.039194
	N236	N	0.953113	0.678853	0.417331
	N237	N	0.027972	0.679262	0.588700
	N238	N	0.953201	0.321876	0.587602
	N239	N	0.027952	0.321133	0.415862
	N240	N	0.953232	0.415663	0.680625
	N241	N	0.027940	0.586086	0.681246
	N242	N	0.953653	0.586478	0.323399
	N243	N	0.028069	0.414699	0.323233
	N244	N	0.404578	0.679398	0.965094
	N245	N	0.575407	0.678411	0.040016
	N246	N	0.575438	0.323016	0.964775
	N247	N	0.405111	0.322841	0.039770
	N248	N	0.669552	0.962974	0.416947
	N249	N	0.670204	0.036926	0.589018
	N250	N	0.311841	0.963616	0.589320
	N251	N	0.311166	0.037690	0.416784
	N252	N	0.905299	0.463222	0.180082
	N253	N	0.076075	0.538065	0.180526
	N254	N	0.074592	0.463022	0.824997
	N255	N	0.905257	0.538449	0.824732
	N256	N	0.170086	0.913240	0.466222
	N257	N	0.168716	0.085861	0.539995
	N258	N	0.811814	0.086142	0.465144
	N259	N	0.813218	0.915532	0.540232
	N260	N	0.453412	0.178863	0.917395
	N261	N	0.528373	0.180556	0.088995
	N262	N	0.453886	0.821924	0.088603
	N263	N	0.527824	0.821228	0.916411
	N264	N	0.453494	0.915310	0.181527
	N265	N	0.528720	0.087111	0.182019
	N266	N	0.453820	0.086220	0.824082
	N267	N	0.528262	0.915310	0.824301
	N268	N	0.904489	0.178971	0.465132
	N269	N	0.075219	0.177749	0.540143
	N270	N	0.076184	0.821587	0.465270
	N271	N	0.905561	0.822674	0.540062
	N272	N	0.169538	0.464103	0.915276
	N273	N	0.169193	0.538289	0.087612
	N274	N	0.811609	0.463950	0.087846
	N275	N	0.811260	0.538086	0.916690
	O276	O	0.438799	0.522658	0.519840
	H277	H	0.434520	0.527675	0.511535
	H278	H	0.446820	0.526550	0.511761
	O279	O	0.493194	0.500188	0.436588
	H280	H	0.492965	0.506633	0.450306
	H281	H	0.498172	0.495317	0.437147
	O282	O	0.585724	0.528312	0.538357
	H283	H	0.588419	0.521880	0.533217
	H284	H	0.587094	0.542787	0.544893
	O285	O	0.069886	0.903985	0.971988
	H286	H	0.070350	0.914649	0.973469
	H287	H	0.069265	0.897593	0.967072
	O288	O	1.060844	1.005013	0.023343
	H289	H	1.065847	1.003636	0.023373
	H290	H	1.062359	1.004867	0.028960
	O291	O	0.052601	0.002422	1.069950
	H292	H	0.046260	-0.005840	1.067293
	H293	H	0.046344	0.001957	1.060858
	O294	O	0.527895	0.453147	0.398789
	H295	H	0.517130	0.446815	0.393231
	H296	H	0.530638	0.463735	0.401441
	O297	O	0.521401	0.443981	0.463439
	H298	H	0.514376	0.432840	0.469767
	H299	H	0.515145	0.445368	0.458058
	O300	O	0.503205	0.403035	0.453482
	H301	H	0.507493	0.394694	0.454814
	H302	H	0.511016	0.398404	0.449883
	O303	O	0.532871	0.518482	0.475280
	H304	H	0.533219	0.523192	0.467153
	H305	H	0.530510	0.522218	0.475625
	O306	O	1.002302	-0.089570	0.998812
	H307	H	0.998413	-0.094588	0.995853
	H308	H	1.008309	-0.089169	0.997156
	O309	O	0.517850	0.536872	0.456751
	H310	H	0.510744	0.540988	0.455676
	H311	H	0.519972	0.539523	0.472633
	O312	O	0.497152	0.577579	0.452077
	H313	H	0.487876	0.584028	0.449668
	H314	H	0.488715	0.569629	0.439841
	O315	O	1.054586	0.045493	1.097357
	H316	H	1.064136	0.043802	1.105243
	H317	H	1.064695	0.041936	1.111469
	O318	O	0.087854	0.023112	0.104910
	H319	H	0.100483	0.016677	0.106754
	H320	H	0.083763	0.013549	0.100357
	O321	O	0.517008	0.472674	0.405533
	H322	H	0.512653	0.468763	0.401167
	H323	H	0.529394	0.463322	0.407034
	O324	O	1.017416	-0.029562	0.043403
	H325	H	1.021929	-0.025354	0.042006
	H326	H	1.012250	-0.021658	0.037715
	O327	O	1.024327	0.983261	0.014029
	H328	H	1.019636	0.993188	0.023566
	H329	H	1.025403	0.988379	0.016453
	O330	O	0.519223	0.509001	0.413356
	H331	H	0.529609	0.502734	0.414576
	H332	H	0.515152	0.509563	0.409245
	O333	O	0.457279	0.469942	0.534478
	H334	H	0.454468	0.468015	0.530762
	H335	H	0.458450	0.470475	0.537590
