data_Molecule from HDF5

_cell_length_a		16.215842
_cell_length_b		16.307773
_cell_length_c		16.366060
_cell_angle_alpha	89.780103
_cell_angle_beta	90.049554
_cell_angle_gamma	89.944197
_symmetry_space_group_name_H-M	'P 1'
_symmetry_Int_Tables_number		1

loop_
	_symmetry_equiv_pos_as_xyz
	x,y,z

loop_
	_atom_site_label
	_atom_site_type_symbol
	_atom_site_fract_x
	_atom_site_fract_y
	_atom_site_fract_z
	H0	H	0.393920	0.835987	0.718814
	H1	H	0.596110	0.160583	0.719303
	H2	H	0.594474	0.834845	0.287950
	H3	H	0.393409	0.160765	0.286296
	H4	H	0.708393	0.399584	0.841250
	H5	H	0.705942	0.595454	0.167423
	H6	H	0.277818	0.595806	0.840467
	H7	H	0.278089	0.399034	0.167208
	H8	H	0.828303	0.714135	0.405389
	H9	H	0.157703	0.711909	0.601679
	H10	H	0.828723	0.282633	0.603676
	H11	H	0.157846	0.286969	0.406358
	H12	H	0.827651	0.398669	0.718526
	H13	H	0.155895	0.597673	0.719590
	H14	H	0.828438	0.599285	0.289103
	H15	H	0.156586	0.401630	0.289410
	H16	H	0.391885	0.714186	0.840716
	H17	H	0.591722	0.713783	0.166004
	H18	H	0.590951	0.284522	0.840432
	H19	H	0.391629	0.280061	0.165473
	H20	H	0.707868	0.834702	0.406196
	H21	H	0.706833	0.162731	0.599169
	H22	H	0.279316	0.835384	0.601009
	H23	H	0.279457	0.162337	0.403503
	H24	H	0.891192	0.336570	0.222274
	H25	H	0.091051	0.662775	0.218002
	H26	H	0.091857	0.336214	0.788107
	H27	H	0.889579	0.661619	0.786924
	H28	H	0.205663	0.903238	0.339510
	H29	H	0.208965	0.096702	0.665562
	H30	H	0.779002	0.097526	0.339271
	H31	H	0.778715	0.900149	0.666101
	H32	H	0.328874	0.213429	0.901931
	H33	H	0.656454	0.212511	0.101443
	H34	H	0.327661	0.786198	0.099636
	H35	H	0.656352	0.783104	0.905104
	H36	H	0.330258	0.897333	0.219027
	H37	H	0.656815	0.095837	0.216642
	H38	H	0.330366	0.099323	0.785261
	H39	H	0.657426	0.899549	0.789567
	H40	H	0.893079	0.216557	0.341110
	H41	H	0.093652	0.213900	0.666283
	H42	H	0.092764	0.784364	0.340196
	H43	H	0.892967	0.782183	0.664911
	H44	H	0.205647	0.334667	0.906267
	H45	H	0.206926	0.662470	0.101621
	H46	H	0.777688	0.334671	0.102856
	H47	H	0.777715	0.662738	0.907180
	H48	H	0.396147	0.114946	0.591379
	H49	H	0.578660	0.885274	0.594864
	H50	H	0.579852	0.110508	0.415958
	H51	H	0.400401	0.881713	0.408528
	H52	H	0.588156	0.405304	0.120357
	H53	H	0.581926	0.595046	0.887938
	H54	H	0.404829	0.595031	0.118755
	H55	H	0.395874	0.402019	0.886379
	H56	H	0.109945	0.588740	0.407696
	H57	H	0.876170	0.591522	0.595854
	H58	H	0.110427	0.405139	0.602122
	H59	H	0.876974	0.409015	0.413608
	H60	H	0.108455	0.403832	0.591518
	H61	H	0.875319	0.591797	0.596412
	H62	H	0.111641	0.596422	0.407674
	H63	H	0.875528	0.407557	0.411526
	H64	H	0.394259	0.595162	0.121391
	H65	H	0.588875	0.589857	0.887358
	H66	H	0.581339	0.407539	0.117070
	H67	H	0.396602	0.409736	0.889064
	H68	H	0.595614	0.116234	0.409510
	H69	H	0.591472	0.882210	0.591096
	H70	H	0.402185	0.116472	0.601322
	H71	H	0.401197	0.882488	0.411162
	H72	H	0.898533	0.615467	0.100645
	H73	H	0.090116	0.381331	0.098524
	H74	H	0.086376	0.615762	0.909300
	H75	H	0.897401	0.382626	0.912178
	H76	H	0.089795	0.899670	0.620876
	H77	H	0.087200	0.084209	0.389509
	H78	H	0.892737	0.088184	0.619313
	H79	H	0.908828	0.902657	0.389066
	H80	H	0.607287	0.083518	0.910632
	H81	H	0.373248	0.090568	0.102997
	H82	H	0.614005	0.902459	0.103762
	H83	H	0.380354	0.914866	0.915126
	H84	H	0.609262	0.898310	0.088991
	H85	H	0.374776	0.095947	0.089568
	H86	H	0.612885	0.094387	0.903572
	H87	H	0.373400	0.907620	0.898064
	H88	H	0.906858	0.085533	0.614421
	H89	H	0.076863	0.097565	0.388992
	H90	H	0.089028	0.910835	0.618202
	H91	H	0.894911	0.900253	0.383565
	H92	H	0.081964	0.614070	0.909539
	H93	H	0.079893	0.382427	0.103593
	H94	H	0.902061	0.613483	0.094937
	H95	H	0.901348	0.382398	0.908083
	H96	H	0.407275	0.112041	0.592262
	H97	H	0.586860	0.880183	0.604535
	H98	H	0.580915	0.115725	0.398586
	H99	H	0.398360	0.881923	0.410255
	H100	H	0.582373	0.400330	0.119278
	H101	H	0.581432	0.587005	0.890456
	H102	H	0.399129	0.585959	0.117499
	H103	H	0.403289	0.404617	0.889121
	H104	H	0.108005	0.593216	0.414328
	H105	H	0.876127	0.592206	0.595631
	H106	H	0.105902	0.413400	0.596120
	H107	H	0.876668	0.406706	0.413848
	H108	H	0.895890	0.615341	0.094436
	H109	H	0.081021	0.386203	0.092548
	H110	H	0.084384	0.613743	0.913506
	H111	H	0.902577	0.384701	0.913280
	H112	H	0.079454	0.904481	0.616891
	H113	H	0.092902	0.099263	0.383913
	H114	H	0.902379	0.099674	0.620278
	H115	H	0.898402	0.913903	0.389224
	H116	H	0.608785	0.095469	0.916500
	H117	H	0.379650	0.081864	0.092818
	H118	H	0.607307	0.913338	0.093981
	H119	H	0.374404	0.896202	0.914097
	C120	C	0.372492	0.006757	0.623986
	C121	C	0.615528	0.990221	0.624769
	C122	C	0.614551	0.006176	0.380649
	C123	C	0.371296	0.990021	0.380938
	C124	C	0.613614	0.376059	0.011674
	C125	C	0.613156	0.619504	0.995804
	C126	C	0.370004	0.620586	0.011660
	C127	C	0.369817	0.376002	0.995595
	C128	C	0.001174	0.621420	0.381887
	C129	C	0.984165	0.620357	0.624939
	C130	C	0.000179	0.377504	0.625655
	C131	C	0.984580	0.379054	0.383423
	C132	C	0.869938	0.506935	0.126310
	C133	C	0.113017	0.491122	0.126107
	C134	C	0.113073	0.506782	0.882502
	C135	C	0.870572	0.490727	0.882223
	C136	C	0.114742	0.877164	0.511108
	C137	C	0.115055	0.121597	0.494947
	C138	C	0.871349	0.120540	0.511096
	C139	C	0.871578	0.876925	0.494673
	C140	C	0.501796	0.120090	0.880882
	C141	C	0.484378	0.118303	0.123538
	C142	C	0.501603	0.876025	0.124657
	C143	C	0.484316	0.877043	0.881051
	C144	C	0.374071	0.884473	0.680065
	C145	C	0.614640	0.112596	0.680113
	C146	C	0.613573	0.883431	0.326019
	C147	C	0.373414	0.112320	0.324799
	C148	C	0.669766	0.379348	0.889618
	C149	C	0.668187	0.616384	0.118496
	C150	C	0.314930	0.617495	0.889334
	C151	C	0.315138	0.378398	0.118096
	C152	C	0.877455	0.676487	0.384703
	C153	C	0.108177	0.674618	0.622202
	C154	C	0.877579	0.321107	0.623750
	C155	C	0.108472	0.324166	0.385807
	C156	C	0.877090	0.378706	0.681109
	C157	C	0.107581	0.617708	0.680580
	C158	C	0.877445	0.619477	0.326916
	C159	C	0.107958	0.381339	0.327848
	C160	C	0.371712	0.676265	0.889500
	C161	C	0.611680	0.675382	0.117787
	C162	C	0.611652	0.321888	0.889300
	C163	C	0.371592	0.319128	0.117182
	C164	C	0.670043	0.883400	0.384891
	C165	C	0.670263	0.113296	0.620722
	C166	C	0.317162	0.884175	0.621369
	C167	C	0.316907	0.113182	0.383354
	C168	C	0.871523	0.384732	0.183183
	C169	C	0.111202	0.613898	0.180253
	C170	C	0.111325	0.384509	0.826905
	C171	C	0.870675	0.613259	0.825945
	C172	C	0.169033	0.881220	0.388459
	C173	C	0.171058	0.118085	0.617175
	C174	C	0.816455	0.118365	0.388288
	C175	C	0.816136	0.879324	0.617164
	C176	C	0.378005	0.175477	0.882347
	C177	C	0.607626	0.174180	0.121567
	C178	C	0.377337	0.822678	0.120877
	C179	C	0.607407	0.820999	0.883820
	C180	C	0.378397	0.878065	0.180006
	C181	C	0.607764	0.116375	0.178935
	C182	C	0.378703	0.118749	0.824344
	C183	C	0.608142	0.879175	0.826793
	C184	C	0.873210	0.177317	0.389058
	C185	C	0.113610	0.176232	0.617532
	C186	C	0.112793	0.822352	0.388973
	C187	C	0.873398	0.821140	0.616985
	C188	C	0.168006	0.383869	0.885613
	C189	C	0.168959	0.613680	0.122563
	C190	C	0.815228	0.383654	0.123869
	C191	C	0.814946	0.613766	0.885441
	C192	C	0.395282	0.092381	0.601483
	C193	C	0.592551	0.904641	0.603141
	C194	C	0.591903	0.092037	0.401761
	C195	C	0.393640	0.904181	0.403427
	C196	C	0.590678	0.397946	0.096947
	C197	C	0.590650	0.597189	0.910550
	C198	C	0.392653	0.598390	0.097264
	C199	C	0.392154	0.398843	0.910154
	C200	C	0.087495	0.599197	0.403489
	C201	C	0.898185	0.598351	0.602522
	C202	C	0.086221	0.400757	0.603099
	C203	C	0.898685	0.401374	0.406118
	C204	C	0.892397	0.592642	0.103549
	C205	C	0.090353	0.405305	0.104543
	C206	C	0.090570	0.592260	0.904276
	C207	C	0.893645	0.405309	0.904451
	C208	C	0.092617	0.898725	0.596609
	C209	C	0.092258	0.100195	0.409636
	C210	C	0.894031	0.097875	0.595991
	C211	C	0.894154	0.899043	0.409273
	C212	C	0.587508	0.097825	0.903512
	C213	C	0.398263	0.095972	0.101539
	C214	C	0.587886	0.898192	0.102334
	C215	C	0.398222	0.899716	0.902712
	Zn216	Zn	0.493771	-0.001146	0.752918
	Zn217	Zn	0.493075	-0.002696	0.252424
	Zn218	Zn	0.742309	0.498348	0.004227
	Zn219	Zn	0.241634	0.498351	0.004263
	Zn220	Zn	-0.006904	0.748648	0.503409
	Zn221	Zn	-0.006653	0.249691	0.504072
	Zn222	Zn	-0.008391	0.499456	0.753520
	Zn223	Zn	-0.008165	0.499649	0.254673
	Zn224	Zn	0.492320	0.749127	0.003073
	Zn225	Zn	0.491849	0.247195	0.003048
	Zn226	Zn	0.742858	-0.001550	0.502395
	Zn227	Zn	0.243017	-0.000969	0.502500
	N228	N	0.407812	0.961773	0.681649
	N229	N	0.581269	0.035111	0.682805
	N230	N	0.579721	0.960803	0.323368
	N231	N	0.406674	0.034603	0.323192
	N232	N	0.671164	0.412147	0.966905
	N233	N	0.669243	0.582326	0.041689
	N234	N	0.313616	0.583845	0.966420
	N235	N	0.313854	0.412865	0.041188
	N236	N	0.955200	0.677769	0.418152
	N237	N	0.030544	0.676234	0.588159
	N238	N	0.955358	0.320249	0.590108
	N239	N	0.030938	0.322688	0.419920
	N240	N	0.954705	0.412904	0.682702
	N241	N	0.029518	0.585009	0.682644
	N242	N	0.955409	0.585871	0.325098
	N243	N	0.029935	0.414430	0.326094
	N244	N	0.405546	0.678040	0.966667
	N245	N	0.577908	0.677167	0.040630
	N246	N	0.577267	0.319949	0.966019
	N247	N	0.404925	0.317629	0.040038
	N248	N	0.670679	0.960666	0.418033
	N249	N	0.670798	0.036279	0.587061
	N250	N	0.316294	0.961313	0.587090
	N251	N	0.315354	0.036059	0.417451
	N252	N	0.904660	0.462288	0.184600
	N253	N	0.077211	0.536614	0.182507
	N254	N	0.077789	0.462000	0.824913
	N255	N	0.904485	0.535822	0.823802
	N256	N	0.170278	0.914646	0.465492
	N257	N	0.172001	0.084880	0.539969
	N258	N	0.815424	0.083548	0.464880
	N259	N	0.815069	0.913334	0.540169
	N260	N	0.455384	0.176511	0.916719
	N261	N	0.529898	0.175346	0.087666
	N262	N	0.455127	0.821208	0.087262
	N263	N	0.529607	0.819589	0.916802
	N264	N	0.456583	0.910589	0.182300
	N265	N	0.530224	0.082356	0.180143
	N266	N	0.456378	0.084864	0.823427
	N267	N	0.530506	0.913407	0.825051
	N268	N	0.906677	0.179004	0.466355
	N269	N	0.079585	0.178417	0.540601
	N270	N	0.079760	0.819673	0.466324
	N271	N	0.907129	0.819593	0.539916
	N272	N	0.169041	0.460746	0.919611
	N273	N	0.170080	0.536176	0.089522
	N274	N	0.814159	0.460656	0.089219
	N275	N	0.814879	0.536706	0.919962
	O276	O	0.468948	0.527876	0.484030
	H277	H	0.467219	0.533908	0.483026
	H278	H	0.466349	0.527564	0.484181
	O279	O	0.520214	0.535277	0.608740
	H280	H	0.516626	0.521629	0.602984
	H281	H	0.516735	0.534329	0.615768
	O282	O	0.552277	0.528130	0.538868
	H283	H	0.557373	0.535954	0.542869
	H284	H	0.559354	0.531869	0.538118
	O285	O	-0.003308	1.007751	0.911600
	H286	H	0.010032	1.012940	0.911225
	H287	H	-0.003593	0.998420	0.912040
	O288	O	1.056390	0.976271	0.014430
	H289	H	1.048054	0.976046	0.015493
	H290	H	1.050925	0.986363	0.018341
	O291	O	0.043196	0.052100	0.998413
	H292	H	0.033897	0.063210	0.998235
	H293	H	0.056067	0.043388	1.002125
	O294	O	0.504453	0.519614	0.448564
	H295	H	0.503196	0.519857	0.451286
	H296	H	0.498649	0.524312	0.441477
	O297	O	0.521415	0.468619	0.388168
	H298	H	0.520741	0.475922	0.383995
	H299	H	0.518733	0.461592	0.382356
	O300	O	0.485668	0.443957	0.520990
	H301	H	0.494206	0.435695	0.527884
	H302	H	0.489095	0.448670	0.524050
	O303	O	0.502630	0.514637	0.429171
	H304	H	0.498800	0.516311	0.431301
	H305	H	0.498326	0.511424	0.435626
	O306	O	1.014446	0.000156	0.994100
	H307	H	1.012278	0.009573	0.987257
	H308	H	1.004395	0.006481	0.998750
	O309	O	0.416653	0.444752	0.509288
	H310	H	0.420015	0.434484	0.523523
	H311	H	0.414397	0.454451	0.508680
	O312	O	0.505536	0.507947	0.529775
	H313	H	0.503139	0.511175	0.544278
	H314	H	0.501806	0.502409	0.527639
	O315	O	1.035583	0.038664	0.983876
	H316	H	1.036125	0.032896	0.994935
	H317	H	1.037151	0.044397	0.977406
	O318	O	0.027393	-0.032997	-0.030031
	H319	H	0.030679	-0.039830	-0.036589
	H320	H	0.026890	-0.034400	-0.031620
	O321	O	0.515258	0.502271	0.485553
	H322	H	0.510513	0.504496	0.472681
	H323	H	0.519787	0.506591	0.480018
	O324	O	0.971671	0.028062	-0.063956
	H325	H	0.965365	0.037087	-0.064487
	H326	H	0.974426	0.020016	-0.066930
	O327	O	0.985468	1.086636	-0.083615
	H328	H	0.978887	1.088292	-0.097923
	H329	H	0.999028	1.084332	-0.081252
	O330	O	0.523227	0.419912	0.499947
	H331	H	0.525523	0.418647	0.493540
	H332	H	0.520852	0.429327	0.504328
	O333	O	0.536358	0.506953	0.579854
	H334	H	0.533194	0.497342	0.584049
	H335	H	0.537272	0.502375	0.574018
