data_Molecule from HDF5

_cell_length_a		16.570345
_cell_length_b		16.770169
_cell_length_c		16.449702
_cell_angle_alpha	90.043148
_cell_angle_beta	90.065831
_cell_angle_gamma	90.152024
_symmetry_space_group_name_H-M	'P 1'
_symmetry_Int_Tables_number		1

loop_
	_symmetry_equiv_pos_as_xyz
	x,y,z

loop_
	_atom_site_label
	_atom_site_type_symbol
	_atom_site_fract_x
	_atom_site_fract_y
	_atom_site_fract_z
	H0	H	0.397364	0.854127	0.699448
	H1	H	0.608418	0.163852	0.698042
	H2	H	0.606768	0.852580	0.255503
	H3	H	0.401838	0.165400	0.258313
	H4	H	0.721183	0.407229	0.818175
	H5	H	0.723321	0.613651	0.133397
	H6	H	0.283531	0.611538	0.817823
	H7	H	0.286487	0.408293	0.135739
	H8	H	0.844966	0.727654	0.371282
	H9	H	0.157506	0.730963	0.583269
	H10	H	0.848654	0.285076	0.583426
	H11	H	0.160235	0.288782	0.371344
	H12	H	0.846673	0.404712	0.696409
	H13	H	0.159876	0.610938	0.694926
	H14	H	0.844482	0.608907	0.258834
	H15	H	0.162328	0.409179	0.260711
	H16	H	0.395748	0.730966	0.819956
	H17	H	0.609169	0.730543	0.132699
	H18	H	0.605013	0.290659	0.818232
	H19	H	0.398588	0.289861	0.134663
	H20	H	0.724657	0.853619	0.370955
	H21	H	0.726170	0.162969	0.582499
	H22	H	0.281189	0.853276	0.581824
	H23	H	0.282276	0.164084	0.372477
	H24	H	0.897345	0.354278	0.199130
	H25	H	0.105483	0.664759	0.195529
	H26	H	0.108123	0.353716	0.753832
	H27	H	0.894453	0.662269	0.751414
	H28	H	0.220329	0.906352	0.319436
	H29	H	0.222309	0.111278	0.634214
	H30	H	0.781919	0.112390	0.319745
	H31	H	0.784446	0.907541	0.635498
	H32	H	0.346440	0.230093	0.871236
	H33	H	0.659330	0.230573	0.082252
	H34	H	0.345912	0.788526	0.081329
	H35	H	0.656067	0.784493	0.867532
	H36	H	0.343835	0.909418	0.191989
	H37	H	0.660908	0.109831	0.193794
	H38	H	0.345764	0.111707	0.756685
	H39	H	0.658996	0.905315	0.755897
	H40	H	0.895890	0.230783	0.320273
	H41	H	0.111984	0.232535	0.631756
	H42	H	0.105366	0.789036	0.319317
	H43	H	0.898633	0.790448	0.635180
	H44	H	0.224206	0.353276	0.871682
	H45	H	0.224114	0.662854	0.079884
	H46	H	0.779098	0.355236	0.083659
	H47	H	0.775770	0.660612	0.865750
	H48	H	0.409283	0.116937	0.558460
	H49	H	0.599645	0.896577	0.563512
	H50	H	0.593376	0.118699	0.387803
	H51	H	0.414572	0.900238	0.388338
	H52	H	0.586890	0.421111	0.087318
	H53	H	0.581754	0.593809	0.867666
	H54	H	0.417383	0.598481	0.088284
	H55	H	0.417918	0.417768	0.863738
	H56	H	0.114970	0.602068	0.387856
	H57	H	0.891153	0.598827	0.560256
	H58	H	0.114871	0.422657	0.566612
	H59	H	0.889606	0.417113	0.385500
	H60	H	0.116349	0.416038	0.565233
	H61	H	0.889671	0.595236	0.567446
	H62	H	0.115530	0.601424	0.387546
	H63	H	0.890469	0.415506	0.390414
	H64	H	0.413404	0.601782	0.089732
	H65	H	0.588567	0.602766	0.861919
	H66	H	0.591396	0.413089	0.091904
	H67	H	0.411085	0.414388	0.861050
	H68	H	0.593489	0.119617	0.385699
	H69	H	0.588564	0.897633	0.572688
	H70	H	0.408336	0.121882	0.571604
	H71	H	0.404037	0.896103	0.386800
	H72	H	0.915682	0.620854	0.072634
	H73	H	0.093023	0.397572	0.066380
	H74	H	0.097507	0.620333	0.887085
	H75	H	0.916041	0.401479	0.892265
	H76	H	0.097112	0.916863	0.593168
	H77	H	0.091021	0.094213	0.364456
	H78	H	0.908893	0.095240	0.590216
	H79	H	0.913567	0.918808	0.363472
	H80	H	0.613697	0.101516	0.891882
	H81	H	0.393183	0.099995	0.059259
	H82	H	0.612965	0.919553	0.060849
	H83	H	0.389355	0.917984	0.884822
	H84	H	0.615482	0.920625	0.068848
	H85	H	0.389011	0.096073	0.071668
	H86	H	0.614600	0.096557	0.887226
	H87	H	0.392190	0.916488	0.895926
	H88	H	0.922244	0.091786	0.584882
	H89	H	0.088342	0.101608	0.363971
	H90	H	0.089926	0.922977	0.589604
	H91	H	0.914654	0.917418	0.363763
	H92	H	0.089678	0.618698	0.883345
	H93	H	0.099105	0.395166	0.068139
	H94	H	0.917856	0.616568	0.061601
	H95	H	0.911486	0.398972	0.889687
	H96	H	0.420673	0.116923	0.567136
	H97	H	0.587219	0.902249	0.559282
	H98	H	0.591565	0.118484	0.387108
	H99	H	0.411963	0.894715	0.378598
	H100	H	0.596827	0.422385	0.090696
	H101	H	0.593630	0.591957	0.864591
	H102	H	0.411968	0.596869	0.089228
	H103	H	0.410587	0.421652	0.863474
	H104	H	0.115953	0.602061	0.387727
	H105	H	0.887965	0.602975	0.566060
	H106	H	0.113615	0.420515	0.559993
	H107	H	0.892812	0.420271	0.388421
	H108	H	0.906904	0.620452	0.064559
	H109	H	0.093318	0.395537	0.072805
	H110	H	0.091377	0.616425	0.891689
	H111	H	0.916553	0.399756	0.886600
	H112	H	0.087889	0.913641	0.590264
	H113	H	0.095403	0.100226	0.361870
	H114	H	0.919836	0.105451	0.590358
	H115	H	0.913057	0.917249	0.362942
	H116	H	0.616851	0.102953	0.885554
	H117	H	0.387239	0.108666	0.067866
	H118	H	0.617075	0.913472	0.065335
	H119	H	0.394097	0.926776	0.890794
	C120	C	0.380939	0.016267	0.598373
	C121	C	0.624544	1.000682	0.598158
	C122	C	0.624822	0.016364	0.354596
	C123	C	0.380284	1.000271	0.354167
	C124	C	0.623374	0.388222	-0.014835
	C125	C	0.622535	0.629736	0.967709
	C126	C	0.381615	0.630222	-0.015192
	C127	C	0.382245	0.387680	0.967815
	C128	C	0.011180	0.631215	0.355754
	C129	C	0.993226	0.630408	0.597474
	C130	C	0.011828	0.387620	0.596776
	C131	C	0.995206	0.387743	0.356269
	C132	C	0.881192	0.517017	0.098456
	C133	C	0.125543	0.499677	0.099119
	C134	C	0.124862	0.516417	0.854942
	C135	C	0.881089	0.501020	0.855235
	C136	C	0.123085	0.887129	0.486142
	C137	C	0.123765	0.129847	0.467802
	C138	C	0.883200	0.129842	0.485066
	C139	C	0.881846	0.887557	0.468450
	C140	C	0.511403	0.131135	0.855654
	C141	C	0.494181	0.131627	0.097785
	C142	C	0.511068	0.887584	0.096649
	C143	C	0.494569	0.888200	0.856850
	C144	C	0.379023	0.900264	0.658987
	C145	C	0.626871	0.117127	0.658216
	C146	C	0.625738	0.899631	0.295074
	C147	C	0.381490	0.118339	0.296910
	C148	C	0.681776	0.387827	0.865592
	C149	C	0.683207	0.632161	0.086045
	C150	C	0.322401	0.630924	0.865764
	C151	C	0.324687	0.388307	0.087791
	C152	C	0.892354	0.688304	0.353611
	C153	C	0.110823	0.690186	0.600615
	C154	C	0.894917	0.326207	0.600807
	C155	C	0.113232	0.328861	0.353518
	C156	C	0.893755	0.385575	0.656788
	C157	C	0.111909	0.630768	0.656537
	C158	C	0.892337	0.629287	0.297446
	C159	C	0.114212	0.388617	0.298317
	C160	C	0.378322	0.690225	0.866648
	C161	C	0.626713	0.690468	0.085514
	C162	C	0.624166	0.330002	0.865782
	C163	C	0.380497	0.329531	0.087239
	C164	C	0.684605	0.900171	0.352548
	C165	C	0.685531	0.116821	0.600827
	C166	C	0.321063	0.900098	0.600577
	C167	C	0.322280	0.117536	0.353944
	C168	C	0.878867	0.400830	0.158829
	C169	C	0.125259	0.617516	0.156491
	C170	C	0.126350	0.399962	0.794438
	C171	C	0.876913	0.615817	0.792378
	C172	C	0.181170	0.886992	0.366781
	C173	C	0.183235	0.130798	0.586801
	C174	C	0.822176	0.131443	0.366918
	C175	C	0.823401	0.887902	0.587720
	C176	C	0.393631	0.190236	0.852854
	C177	C	0.612407	0.190044	0.099730
	C178	C	0.392823	0.828798	0.098728
	C179	C	0.610605	0.826388	0.851442
	C180	C	0.391803	0.888764	0.153939
	C181	C	0.613333	0.130154	0.155328
	C182	C	0.393199	0.131212	0.796190
	C183	C	0.611869	0.886276	0.795946
	C184	C	0.878724	0.190186	0.367348
	C185	C	0.128010	0.190476	0.585609
	C186	C	0.124383	0.828550	0.366914
	C187	C	0.880053	0.829613	0.587706
	C188	C	0.184397	0.399746	0.852674
	C189	C	0.184169	0.616647	0.099185
	C190	C	0.819881	0.401393	0.101478
	C191	C	0.817994	0.615325	0.849644
	C192	C	0.405855	0.097582	0.572934
	C193	C	0.599024	0.919955	0.572477
	C194	C	0.599909	0.097831	0.379773
	C195	C	0.403519	0.918449	0.377707
	C196	C	0.599112	0.412033	0.068203
	C197	C	0.595619	0.603661	0.885936
	C198	C	0.407011	0.605826	0.067438
	C199	C	0.406156	0.411220	0.884585
	C200	C	0.093832	0.608498	0.380533
	C201	C	0.910767	0.606009	0.571926
	C202	C	0.093615	0.412578	0.571428
	C203	C	0.912613	0.410859	0.380943
	C204	C	0.906380	0.598286	0.073398
	C205	C	0.101891	0.417236	0.075927
	C206	C	0.100064	0.597499	0.880205
	C207	C	0.907406	0.420919	0.881859
	C208	C	0.098917	0.911000	0.569381
	C209	C	0.098663	0.105619	0.385014
	C210	C	0.909572	0.104758	0.567387
	C211	C	0.906485	0.911029	0.385055
	C212	C	0.593740	0.107213	0.881039
	C213	C	0.411306	0.108416	0.073438
	C214	C	0.593748	0.911168	0.072280
	C215	C	0.413148	0.913352	0.882953
	Zn216	Zn	0.502974	0.008850	0.727869
	Zn217	Zn	0.502707	0.008802	0.225426
	Zn218	Zn	0.751148	0.509361	-0.023254
	Zn219	Zn	0.254313	0.508225	-0.023630
	Zn220	Zn	0.001548	0.759608	0.476831
	Zn221	Zn	0.003724	0.258479	0.475914
	Zn222	Zn	0.002758	0.508570	0.725639
	Zn223	Zn	0.003434	0.509003	0.227828
	Zn224	Zn	0.502489	0.758183	-0.023384
	Zn225	Zn	0.502569	0.259865	-0.023034
	Zn226	Zn	0.754536	0.008996	0.476471
	Zn227	Zn	0.251070	0.008514	0.476783
	N228	N	0.415430	0.973840	0.657826
	N229	N	0.589644	0.043967	0.656836
	N230	N	0.589399	0.973211	0.296074
	N231	N	0.416600	0.044325	0.296566
	N232	N	0.681642	0.422954	0.941084
	N233	N	0.680945	0.595110	0.011586
	N234	N	0.324230	0.594338	0.940391
	N235	N	0.325186	0.423381	0.012393
	N236	N	0.967406	0.689770	0.389105
	N237	N	0.035865	0.690199	0.564852
	N238	N	0.969426	0.327138	0.564435
	N239	N	0.038103	0.328043	0.388628
	N240	N	0.967305	0.423150	0.654421
	N241	N	0.037706	0.594127	0.654747
	N242	N	0.967307	0.594609	0.298301
	N243	N	0.039698	0.424441	0.299498
	N244	N	0.414102	0.690198	0.941876
	N245	N	0.589772	0.689207	0.010768
	N246	N	0.588941	0.329913	0.941272
	N247	N	0.415465	0.328776	0.011552
	N248	N	0.684171	0.973952	0.388848
	N249	N	0.684427	0.043319	0.564225
	N250	N	0.321959	0.973504	0.563785
	N251	N	0.320931	0.043004	0.388449
	N252	N	0.916422	0.473781	0.157079
	N253	N	0.089692	0.543488	0.156737
	N254	N	0.090072	0.473493	0.795602
	N255	N	0.915558	0.543693	0.795733
	N256	N	0.180694	0.922342	0.441983
	N257	N	0.180719	0.093827	0.512404
	N258	N	0.824988	0.094516	0.441319
	N259	N	0.824303	0.923164	0.512417
	N260	N	0.468468	0.190527	0.888886
	N261	N	0.537179	0.191043	0.064765
	N262	N	0.468279	0.827761	0.064155
	N263	N	0.536565	0.827401	0.888662
	N264	N	0.466480	0.924540	0.153070
	N265	N	0.538576	0.094560	0.154470
	N266	N	0.467623	0.095372	0.797751
	N267	N	0.538787	0.923920	0.799116
	N268	N	0.916079	0.189163	0.441889
	N269	N	0.091733	0.190029	0.510657
	N270	N	0.089167	0.828316	0.442434
	N271	N	0.915518	0.829289	0.512241
	N272	N	0.183771	0.473272	0.889495
	N273	N	0.184418	0.542319	0.064309
	N274	N	0.821113	0.474877	0.064742
	N275	N	0.820565	0.542872	0.888341
	O276	O	-0.073505	1.003109	0.125553
	H277	H	-0.076105	1.013612	0.137065
	H278	H	-0.083116	0.995506	0.127463
	O279	O	0.345649	0.337453	0.342172
	H280	H	0.352896	0.357552	0.354583
	H281	H	0.344159	0.343876	0.356555
	O282	O	1.231530	0.074404	0.924220
	H283	H	1.232347	0.081599	0.940200
	H284	H	1.231461	0.067669	0.926262
	O285	O	0.713719	0.714626	0.587655
	H286	H	0.732114	0.737241	0.568400
	H287	H	0.704524	0.712164	0.570516
	O288	O	0.437680	0.425309	0.473184
	H289	H	0.430753	0.425158	0.471213
	H290	H	0.441933	0.425358	0.472106
	O291	O	-0.028801	-0.211288	0.194038
	H292	H	-0.048967	-0.218902	0.200672
	H293	H	-0.033346	-0.231692	0.199039
	O294	O	1.060439	0.076909	0.753790
	H295	H	1.070862	0.068861	0.765454
	H296	H	1.071219	0.084132	0.749065
	O297	O	-0.203619	0.829708	0.964387
	H298	H	-0.205544	0.833520	0.980932
	H299	H	-0.223837	0.830739	0.954145
	O300	O	0.220699	0.089585	1.194614
	H301	H	0.231180	0.095690	1.220801
	H302	H	0.214607	0.112156	1.207596
	O303	O	0.486941	0.425512	0.332947
	H304	H	0.497140	0.418990	0.320744
	H305	H	0.454726	0.431215	0.333887
	O306	O	0.289322	0.552934	0.262956
	H307	H	0.277204	0.557778	0.263192
	H308	H	0.289966	0.570256	0.249318
	O309	O	0.732680	0.279714	0.643155
	H310	H	0.720423	0.288440	0.641384
	H311	H	0.735286	0.290332	0.642140
	O312	O	0.396784	0.507539	0.426386
	H313	H	0.401671	0.506517	0.415205
	H314	H	0.404897	0.517797	0.435350
	O315	O	1.035042	1.230218	1.198051
	H316	H	1.041787	1.235982	1.206916
	H317	H	1.025963	1.246997	1.201127
	O318	O	0.447519	0.738626	0.522176
	H319	H	0.443856	0.735491	0.523004
	H320	H	0.436619	0.749799	0.543150
	O321	O	0.298456	1.724040	0.434411
	H322	H	0.280922	1.715051	0.447321
	H323	H	0.290193	1.742745	0.442783
	O324	O	1.062348	1.239278	-0.072224
	H325	H	1.068326	1.244208	-0.064937
	H326	H	1.060938	1.238540	-0.086343
	O327	O	-0.194611	0.049415	0.770851
	H328	H	-0.189087	0.065179	0.769973
	H329	H	-0.207892	0.044471	0.752955
	O330	O	0.831510	0.142404	0.829363
	H331	H	0.817161	0.144229	0.824473
	H332	H	0.857368	0.145560	0.836085
	O333	O	0.535053	0.660735	0.445458
	H334	H	0.526215	0.670531	0.448722
	H335	H	0.529743	0.662104	0.423621
	O336	O	1.200653	0.113588	-0.218778
	H337	H	1.203818	0.111436	-0.213179
	H338	H	1.184760	0.113434	-0.218386
	O339	O	1.007236	-1.003472	0.978589
	H340	H	1.016863	-0.998640	0.985175
	H341	H	1.005563	-1.004961	0.975884
	O342	O	-0.101354	0.044395	-0.023865
	H343	H	-0.093853	0.058680	-0.032290
	H344	H	-0.093205	0.037367	-0.019733
	O345	O	-0.067170	1.127268	1.085268
	H346	H	-0.052712	1.124677	1.080367
	H347	H	-0.058866	1.127274	1.077613
	O348	O	0.161189	-0.039086	-0.203752
	H349	H	0.164691	-0.028123	-0.216175
	H350	H	0.166365	-0.029332	-0.197247
	O351	O	0.623843	0.722295	0.689685
	H352	H	0.636443	0.734451	0.675944
	H353	H	0.654253	0.738259	0.703555
	O354	O	-0.445469	0.428789	1.530943
	H355	H	-0.447250	0.439480	1.525877
	H356	H	-0.446743	0.421518	1.517335
	O357	O	-0.201864	0.047555	0.182677
	H358	H	-0.214438	0.030569	0.187086
	H359	H	-0.187316	0.038276	0.164253
	O360	O	0.472737	0.474387	0.657231
	H361	H	0.475091	0.474311	0.653279
	H362	H	0.477682	0.474225	0.653419
	O363	O	0.490198	0.331338	0.683111
	H364	H	0.503646	0.326771	0.680744
	H365	H	0.509993	0.333109	0.696018
	O366	O	0.700151	0.542612	0.677746
	H367	H	0.706188	0.557091	0.682916
	H368	H	0.707929	0.555487	0.671572
	O369	O	1.087569	0.060902	-0.021910
	H370	H	1.087637	0.041724	-0.011857
	H371	H	1.106418	0.074338	-0.026261
	O372	O	0.707965	0.699661	0.278348
	H373	H	0.701127	0.677663	0.299620
	H374	H	0.686399	0.694813	0.274117
	O375	O	0.572716	-0.579176	0.265926
	H376	H	0.596812	-0.584161	0.275983
	H377	H	0.564297	-0.606074	0.237539
	O378	O	0.942771	0.945130	0.770129
	H379	H	0.945680	0.933742	0.764101
	H380	H	0.949321	0.959021	0.769227
	O381	O	-0.150840	1.013217	1.093525
	H382	H	-0.158663	1.004060	1.095853
	H383	H	-0.145149	1.002172	1.087526
	O384	O	1.217443	-0.209583	0.951281
	H385	H	1.235646	-0.237072	0.948688
	H386	H	1.218466	-0.185833	0.930890
	O387	O	1.214991	0.972308	0.035084
	H388	H	1.206096	0.986441	0.056567
	H389	H	1.212541	0.962632	0.039161
	O390	O	0.377414	0.596561	0.501557
	H391	H	0.375874	0.594745	0.479364
	H392	H	0.369638	0.593498	0.508503
	O393	O	0.321889	0.678897	0.652208
	H394	H	0.325893	0.683142	0.660102
	H395	H	0.338216	0.667299	0.644190
	O396	O	-0.192807	0.830300	1.145117
	H397	H	-0.176319	0.840288	1.132072
	H398	H	-0.218594	0.813599	1.138982
	O399	O	-0.033841	0.151344	1.031681
	H400	H	-0.027579	0.151952	1.025553
	H401	H	-0.032975	0.153292	1.044189
	O402	O	0.695791	0.405047	0.550686
	H403	H	0.690541	0.427502	0.541575
	H404	H	0.679215	0.417039	0.560312
	O405	O	0.972154	0.230648	0.761328
	H406	H	0.973339	0.227571	0.755149
	H407	H	0.967629	0.236749	0.743949
	O408	O	0.226564	0.236499	0.202981
	H409	H	0.253427	0.246740	0.224348
	H410	H	0.211572	0.246215	0.193419
	O411	O	0.531739	0.569696	0.290788
	H412	H	0.542848	0.578730	0.283387
	H413	H	0.535838	0.582598	0.276481
	O414	O	0.591070	0.633341	0.620810
	H415	H	0.605783	0.626674	0.621420
	H416	H	0.604323	0.638013	0.612830
	O417	O	0.067834	0.804550	1.027172
	H418	H	0.064869	0.801548	1.013446
	H419	H	0.068726	0.802686	1.016140
	O420	O	-0.180746	0.825525	0.798065
	H421	H	-0.178783	0.836083	0.815535
	H422	H	-0.160155	0.839098	0.816814
	O423	O	0.038385	-0.213179	0.762815
	H424	H	0.037804	-0.223015	0.763489
	H425	H	0.045456	-0.225251	0.753406
	O426	O	0.303799	0.479483	0.686999
	H427	H	0.291284	0.481717	0.706577
	H428	H	0.317372	0.478089	0.687917
	O429	O	0.682718	0.498004	0.261367
	H430	H	0.676191	0.478823	0.269795
	H431	H	0.695384	0.476532	0.238610
	O432	O	0.632406	0.707171	0.465103
	H433	H	0.613357	0.692131	0.455183
	H434	H	0.631462	0.724958	0.447521
	O435	O	-0.218540	0.929036	-0.064694
	H436	H	-0.218891	0.945200	-0.062183
	H437	H	-0.210477	0.933358	-0.075959
	O438	O	0.205464	-0.196339	-0.224568
	H439	H	0.200809	-0.204231	-0.231376
	H440	H	0.199646	-0.164782	-0.217539
	O441	O	-0.047411	-0.233717	-0.083323
	H442	H	-0.066052	-0.236949	-0.072278
	H443	H	-0.041158	-0.232954	-0.092906
	O444	O	0.707759	0.299830	0.271652
	H445	H	0.720349	0.283824	0.286387
	H446	H	0.719401	0.282160	0.277510
	O447	O	0.294150	1.298988	1.680185
	H448	H	0.316699	1.323549	1.684959
	H449	H	0.310260	1.285647	1.684546
	O450	O	0.220188	1.226752	1.007219
	H451	H	0.219955	1.222195	1.016451
	H452	H	0.236769	1.243431	1.017768
	O453	O	0.291439	0.292358	0.505040
	H454	H	0.279935	0.290436	0.525852
	H455	H	0.287889	0.283316	0.519945
	O456	O	-0.197619	0.215953	0.949335
	H457	H	-0.210401	0.233971	0.935475
	H458	H	-0.203517	0.223579	0.937455
	O459	O	0.645935	0.567674	0.490294
	H460	H	0.632525	0.552241	0.489130
	H461	H	0.654266	0.573634	0.492230
	O462	O	0.916498	0.146743	1.142975
	H463	H	0.926335	0.131509	1.131143
	H464	H	0.906253	0.141130	1.129855
	O465	O	1.122966	-0.043852	0.162965
	H466	H	1.099370	-0.043608	0.171601
	H467	H	1.130467	-0.007031	0.161849
	O468	O	0.578820	0.277403	0.556489
	H469	H	0.563443	0.284937	0.542781
	H470	H	0.587448	0.278525	0.551085
	O471	O	0.642359	0.374929	0.693203
	H472	H	0.636865	0.374809	0.689029
	H473	H	0.637884	0.403921	0.676334
	O474	O	0.192677	0.813858	0.166809
	H475	H	0.167282	0.837406	0.155627
	H476	H	0.177904	0.825575	0.140095
	O477	O	0.474083	0.324180	1.452937
	H478	H	0.460945	0.330332	1.466954
	H479	H	0.492177	0.334140	1.445377
	O480	O	0.318117	0.484420	0.475341
	H481	H	0.317538	0.478933	0.482882
	H482	H	0.328713	0.483615	0.456503
	O483	O	0.297561	0.719817	0.270284
	H484	H	0.262132	0.750499	0.238890
	H485	H	0.289321	0.708540	0.305364
	O486	O	1.470391	-0.265645	1.253884
	H487	H	1.432610	-0.263171	1.256980
	H488	H	1.455334	-0.241532	1.226480
	O489	O	1.643478	0.326066	0.384307
	H490	H	1.656995	0.315732	0.389386
	H491	H	1.647390	0.339514	0.389819
