data_Molecule from HDF5

_cell_length_a		16.346931
_cell_length_b		16.304584
_cell_length_c		16.302118
_cell_angle_alpha	89.958368
_cell_angle_beta	89.881459
_cell_angle_gamma	89.880807
_symmetry_space_group_name_H-M	'P 1'
_symmetry_Int_Tables_number		1

loop_
	_symmetry_equiv_pos_as_xyz
	x,y,z

loop_
	_atom_site_label
	_atom_site_type_symbol
	_atom_site_fract_x
	_atom_site_fract_y
	_atom_site_fract_z
	H0	H	0.412025	0.837142	0.720759
	H1	H	0.607877	0.163952	0.718025
	H2	H	0.608373	0.835800	0.289331
	H3	H	0.412404	0.163128	0.289951
	H4	H	0.727394	0.399061	0.842457
	H5	H	0.725599	0.598517	0.168066
	H6	H	0.295334	0.599732	0.841520
	H7	H	0.295442	0.401462	0.167587
	H8	H	0.847070	0.712835	0.406242
	H9	H	0.173167	0.714049	0.602717
	H10	H	0.846832	0.283869	0.604482
	H11	H	0.173087	0.283192	0.406332
	H12	H	0.848043	0.399589	0.721623
	H13	H	0.174408	0.596319	0.717933
	H14	H	0.847179	0.596482	0.290489
	H15	H	0.173404	0.398726	0.289181
	H16	H	0.412277	0.714299	0.841180
	H17	H	0.608498	0.713526	0.168631
	H18	H	0.609474	0.285448	0.841179
	H19	H	0.411290	0.284509	0.167640
	H20	H	0.724976	0.835648	0.404650
	H21	H	0.724354	0.162468	0.601834
	H22	H	0.296302	0.836024	0.603481
	H23	H	0.294849	0.162360	0.405738
	H24	H	0.912762	0.334939	0.219092
	H25	H	0.107673	0.662456	0.218576
	H26	H	0.109376	0.335478	0.790388
	H27	H	0.911312	0.662146	0.788623
	H28	H	0.226351	0.899566	0.341467
	H29	H	0.224313	0.097205	0.667465
	H30	H	0.796107	0.097012	0.340689
	H31	H	0.795436	0.900302	0.667842
	H32	H	0.347175	0.216083	0.906696
	H33	H	0.673217	0.215046	0.102860
	H34	H	0.347621	0.785234	0.103516
	H35	H	0.673534	0.784713	0.904946
	H36	H	0.347123	0.902468	0.218282
	H37	H	0.673183	0.098777	0.219205
	H38	H	0.346811	0.100499	0.790179
	H39	H	0.673849	0.903160	0.790817
	H40	H	0.910210	0.214709	0.341440
	H41	H	0.107256	0.211339	0.668099
	H42	H	0.109467	0.784080	0.340424
	H43	H	0.912994	0.785140	0.667885
	H44	H	0.226266	0.336216	0.906339
	H45	H	0.224600	0.662484	0.103620
	H46	H	0.794617	0.335832	0.105135
	H47	H	0.796217	0.662560	0.906916
	H48	H	0.416100	0.116142	0.595735
	H49	H	0.607331	0.882654	0.595283
	H50	H	0.601822	0.118350	0.399285
	H51	H	0.415501	0.884933	0.418186
	H52	H	0.607480	0.411648	0.121050
	H53	H	0.597631	0.588525	0.891968
	H54	H	0.418734	0.603478	0.123159
	H55	H	0.411541	0.409680	0.887055
	H56	H	0.126464	0.592428	0.411539
	H57	H	0.898772	0.579621	0.596795
	H58	H	0.125436	0.413214	0.603994
	H59	H	0.892740	0.397385	0.414481
	H60	H	0.130234	0.394533	0.602579
	H61	H	0.890865	0.595961	0.606487
	H62	H	0.125697	0.591184	0.411445
	H63	H	0.898787	0.412416	0.418186
	H64	H	0.406951	0.587437	0.122198
	H65	H	0.602809	0.599543	0.887378
	H66	H	0.596923	0.410058	0.117873
	H67	H	0.422679	0.411280	0.891091
	H68	H	0.592498	0.110443	0.416861
	H69	H	0.603037	0.882198	0.603267
	H70	H	0.414475	0.115858	0.597721
	H71	H	0.413694	0.880911	0.407069
	H72	H	0.926173	0.611529	0.096147
	H73	H	0.095126	0.388678	0.086915
	H74	H	0.100277	0.616086	0.905852
	H75	H	0.922435	0.388845	0.924061
	H76	H	0.113457	0.904874	0.623402
	H77	H	0.107427	0.089147	0.387713
	H78	H	0.912611	0.086756	0.620110
	H79	H	0.923088	0.910288	0.391251
	H80	H	0.624225	0.091322	0.913037
	H81	H	0.394230	0.098611	0.091684
	H82	H	0.625745	0.909682	0.097796
	H83	H	0.394486	0.909164	0.911351
	H84	H	0.626642	0.904691	0.098616
	H85	H	0.397601	0.085775	0.096183
	H86	H	0.626022	0.092752	0.909562
	H87	H	0.393554	0.905179	0.909813
	H88	H	0.921599	0.090187	0.618450
	H89	H	0.099763	0.088064	0.389955
	H90	H	0.099578	0.915186	0.616472
	H91	H	0.917652	0.896567	0.385369
	H92	H	0.101435	0.613275	0.916156
	H93	H	0.118419	0.379342	0.093720
	H94	H	0.911195	0.614542	0.091208
	H95	H	0.906469	0.379386	0.912589
	H96	H	0.416952	0.115878	0.597975
	H97	H	0.599089	0.885366	0.596274
	H98	H	0.613595	0.116265	0.417360
	H99	H	0.424585	0.885008	0.410309
	H100	H	0.602830	0.401603	0.121988
	H101	H	0.610460	0.589038	0.888468
	H102	H	0.425770	0.585692	0.116601
	H103	H	0.419332	0.400896	0.886718
	H104	H	0.126370	0.592000	0.410516
	H105	H	0.896683	0.597221	0.587135
	H106	H	0.123396	0.403636	0.586655
	H107	H	0.892877	0.409278	0.403028
	H108	H	0.915316	0.618135	0.106601
	H109	H	0.099348	0.380027	0.111074
	H110	H	0.109443	0.616710	0.910426
	H111	H	0.926295	0.382487	0.903044
	H112	H	0.096380	0.897369	0.621089
	H113	H	0.101938	0.096097	0.386933
	H114	H	0.914805	0.096102	0.621833
	H115	H	0.907557	0.908747	0.385849
	H116	H	0.625551	0.094786	0.912687
	H117	H	0.391793	0.095021	0.104481
	H118	H	0.626049	0.906313	0.094342
	H119	H	0.395318	0.906293	0.914024
	C120	C	0.388090	0.007954	0.626344
	C121	C	0.631497	0.991409	0.626046
	C122	C	0.631399	0.007611	0.382080
	C123	C	0.388732	0.991376	0.382954
	C124	C	0.631930	0.378391	0.013042
	C125	C	0.632103	0.620750	0.996911
	C126	C	0.388879	0.621283	0.012645
	C127	C	0.389188	0.378486	0.996191
	C128	C	0.018527	0.620201	0.382760
	C129	C	1.003058	0.619606	0.625310
	C130	C	0.018443	0.375672	0.627055
	C131	C	1.002388	0.377193	0.383334
	C132	C	0.888752	0.506881	0.126763
	C133	C	0.132131	0.490713	0.125867
	C134	C	0.132329	0.507703	0.882950
	C135	C	0.889304	0.490980	0.883703
	C136	C	0.131879	0.877052	0.512469
	C137	C	0.131130	0.119382	0.496054
	C138	C	0.887933	0.120175	0.512579
	C139	C	0.887820	0.876529	0.495913
	C140	C	0.517960	0.122210	0.882903
	C141	C	0.502152	0.121951	0.126145
	C142	C	0.518618	0.878227	0.125655
	C143	C	0.502258	0.878585	0.883222
	C144	C	0.391287	0.885439	0.682228
	C145	C	0.628307	0.114837	0.680329
	C146	C	0.628954	0.884426	0.327205
	C147	C	0.391537	0.114240	0.327894
	C148	C	0.688503	0.379713	0.890711
	C149	C	0.687438	0.618780	0.119511
	C150	C	0.333802	0.619352	0.890050
	C151	C	0.333826	0.381110	0.119008
	C152	C	0.895740	0.675118	0.385514
	C153	C	0.124846	0.675767	0.623415
	C154	C	0.895755	0.321402	0.624634
	C155	C	0.124655	0.321382	0.385610
	C156	C	0.896389	0.378647	0.683214
	C157	C	0.125575	0.616922	0.680156
	C158	C	0.895902	0.617324	0.327935
	C159	C	0.124643	0.378897	0.327491
	C160	C	0.391840	0.676569	0.890090
	C161	C	0.629423	0.676121	0.119632
	C162	C	0.630015	0.323117	0.890248
	C163	C	0.391314	0.323286	0.119073
	C164	C	0.686824	0.884368	0.384584
	C165	C	0.685952	0.114266	0.622464
	C166	C	0.333863	0.885056	0.624079
	C167	C	0.333037	0.113821	0.385285
	C168	C	0.891885	0.383772	0.181421
	C169	C	0.128775	0.613638	0.181029
	C170	C	0.129772	0.384105	0.828555
	C171	C	0.891474	0.613796	0.827425
	C172	C	0.187846	0.879157	0.389731
	C173	C	0.185752	0.116713	0.619006
	C174	C	0.833308	0.117873	0.389609
	C175	C	0.833065	0.879481	0.618825
	C176	C	0.395731	0.178104	0.885980
	C177	C	0.624659	0.176711	0.123310
	C178	C	0.396091	0.823280	0.123635
	C179	C	0.624845	0.823047	0.884937
	C180	C	0.395919	0.881621	0.180599
	C181	C	0.624650	0.119070	0.181189
	C182	C	0.395562	0.120527	0.828069
	C183	C	0.625023	0.881568	0.827945
	C184	C	0.890088	0.176212	0.389996
	C185	C	0.128231	0.174029	0.619208
	C186	C	0.129875	0.821817	0.389320
	C187	C	0.890890	0.821814	0.618663
	C188	C	0.187947	0.384727	0.885756
	C189	C	0.186716	0.613719	0.123724
	C190	C	0.833006	0.384363	0.124841
	C191	C	0.834042	0.614024	0.885805
	C192	C	0.409560	0.093964	0.603838
	C193	C	0.609650	0.905565	0.604609
	C194	C	0.609266	0.092931	0.404648
	C195	C	0.411422	0.905623	0.405329
	C196	C	0.609082	0.401169	0.098185
	C197	C	0.610167	0.598756	0.911294
	C198	C	0.410794	0.598808	0.098627
	C199	C	0.411480	0.400788	0.910302
	C200	C	0.104070	0.598353	0.404611
	C201	C	0.917652	0.597326	0.603314
	C202	C	0.104302	0.397542	0.604373
	C203	C	0.916842	0.399687	0.405462
	C204	C	0.910929	0.592593	0.104557
	C205	C	0.110648	0.404848	0.103762
	C206	C	0.110154	0.593051	0.904472
	C207	C	0.911814	0.405703	0.906462
	C208	C	0.109548	0.899207	0.598041
	C209	C	0.109305	0.097450	0.410345
	C210	C	0.909788	0.097666	0.598191
	C211	C	0.909602	0.898730	0.409746
	C212	C	0.603335	0.099464	0.905034
	C213	C	0.416524	0.099617	0.104006
	C214	C	0.604155	0.900420	0.103350
	C215	C	0.416713	0.900278	0.905347
	Zn216	Zn	0.509956	0.000713	0.754558
	Zn217	Zn	0.510518	-0.000413	0.253946
	Zn218	Zn	0.760509	0.499433	0.005065
	Zn219	Zn	0.260669	0.499927	0.004440
	Zn220	Zn	0.010326	0.748942	0.503776
	Zn221	Zn	0.009983	0.247764	0.504346
	Zn222	Zn	0.010962	0.498454	0.754798
	Zn223	Zn	0.010638	0.498698	0.254330
	Zn224	Zn	0.510447	0.749470	0.004650
	Zn225	Zn	0.510606	0.250311	0.004774
	Zn226	Zn	0.759553	-0.001245	0.504070
	Zn227	Zn	0.259762	-0.000962	0.504501
	N228	N	0.424341	0.962897	0.683579
	N229	N	0.594736	0.037469	0.682265
	N230	N	0.595264	0.961783	0.325537
	N231	N	0.425537	0.036997	0.326458
	N232	N	0.689956	0.413305	0.968144
	N233	N	0.689229	0.585116	0.042218
	N234	N	0.332063	0.585759	0.967433
	N235	N	0.332529	0.414660	0.041533
	N236	N	0.972844	0.676994	0.419037
	N237	N	0.047636	0.677694	0.590190
	N238	N	0.972903	0.319560	0.590494
	N239	N	0.047610	0.320113	0.419464
	N240	N	0.973779	0.411531	0.684649
	N241	N	0.048593	0.582800	0.681578
	N242	N	0.973194	0.583800	0.326294
	N243	N	0.047622	0.413001	0.325989
	N244	N	0.425387	0.677894	0.967459
	N245	N	0.595483	0.677345	0.042484
	N246	N	0.595548	0.322127	0.967203
	N247	N	0.424881	0.321501	0.041627
	N248	N	0.688491	0.961871	0.418078
	N249	N	0.688149	0.036643	0.589646
	N250	N	0.331830	0.962356	0.590006
	N251	N	0.331253	0.036347	0.418738
	N252	N	0.925580	0.460863	0.182596
	N253	N	0.095215	0.536246	0.182116
	N254	N	0.095966	0.461430	0.826555
	N255	N	0.925144	0.536372	0.826165
	N256	N	0.189165	0.912659	0.467148
	N257	N	0.187765	0.083695	0.541502
	N258	N	0.831741	0.083770	0.466814
	N259	N	0.830746	0.912416	0.541116
	N260	N	0.472905	0.179182	0.919356
	N261	N	0.547453	0.178522	0.089885
	N262	N	0.473349	0.820922	0.090294
	N263	N	0.547608	0.821063	0.918625
	N264	N	0.473162	0.914983	0.181947
	N265	N	0.547376	0.085716	0.182860
	N266	N	0.472521	0.086285	0.826327
	N267	N	0.547808	0.915384	0.826541
	N268	N	0.923451	0.177772	0.467456
	N269	N	0.094638	0.175710	0.541929
	N270	N	0.095824	0.820216	0.466682
	N271	N	0.924445	0.820123	0.541266
	N272	N	0.189638	0.462334	0.918865
	N273	N	0.189078	0.536199	0.090360
	N274	N	0.830764	0.462084	0.091601
	N275	N	0.832495	0.536921	0.919945
	O276	O	0.547770	0.537950	0.490679
	H277	H	0.558866	0.544072	0.481565
	H278	H	0.554541	0.544219	0.495656
	O279	O	-0.007413	-0.004865	-0.040765
	H280	H	-0.005580	-0.003577	-0.036148
	H281	H	-0.008317	-0.007459	-0.037024
	O282	O	0.559255	0.495820	0.523958
	H283	H	0.561774	0.496622	0.526105
	H284	H	0.559287	0.487914	0.525839
	O285	O	0.491094	0.538858	0.525608
	H286	H	0.484501	0.536441	0.523590
	H287	H	0.483290	0.548106	0.539174
	O288	O	0.987092	0.006392	-0.084085
	H289	H	0.984656	0.002065	-0.086043
	H290	H	0.984779	0.002258	-0.084326
	O291	O	-0.404012	0.539015	-0.501759
	H292	H	-0.401925	0.540791	-0.513175
	H293	H	-0.412835	0.533588	-0.496058
	O294	O	0.510302	0.485488	0.529226
	H295	H	0.517315	0.483691	0.522351
	H296	H	0.505655	0.487058	0.530067
	O297	O	-0.025306	0.987977	0.011512
	H298	H	-0.028805	0.988380	0.009559
	H299	H	-0.017282	0.993462	0.000029
	O300	O	0.549788	0.547362	0.480708
	H301	H	0.550046	0.537669	0.478904
	H302	H	0.559866	0.559249	0.481679
	O303	O	0.073257	0.881799	0.916382
	H304	H	0.084889	0.877703	0.911259
	H305	H	0.074509	0.885657	0.912427
	O306	O	-0.005962	0.980733	0.939717
	H307	H	-0.006180	0.986302	0.933707
	H308	H	-0.017641	0.976442	0.946780
	O309	O	0.524159	0.496203	0.481818
	H310	H	0.520472	0.489883	0.483617
	H311	H	0.519742	0.488321	0.482484
