data_Molecule from HDF5

_cell_length_a		16.315457
_cell_length_b		16.292223
_cell_length_c		16.440405
_cell_angle_alpha	90.164937
_cell_angle_beta	89.687044
_cell_angle_gamma	89.859795
_symmetry_space_group_name_H-M	'P 1'
_symmetry_Int_Tables_number		1

loop_
	_symmetry_equiv_pos_as_xyz
	x,y,z

loop_
	_atom_site_label
	_atom_site_type_symbol
	_atom_site_fract_x
	_atom_site_fract_y
	_atom_site_fract_z
	H0	H	0.377533	0.826882	0.739228
	H1	H	0.582809	0.149619	0.739660
	H2	H	0.588713	0.829491	0.298582
	H3	H	0.377322	0.150735	0.303386
	H4	H	0.699394	0.383713	0.860038
	H5	H	0.697129	0.588372	0.180390
	H6	H	0.261852	0.591503	0.859498
	H7	H	0.259247	0.386973	0.180416
	H8	H	0.818430	0.706908	0.418413
	H9	H	0.141729	0.705146	0.620142
	H10	H	0.818215	0.273802	0.618595
	H11	H	0.141507	0.270176	0.416349
	H12	H	0.819909	0.383973	0.738880
	H13	H	0.140956	0.591496	0.738330
	H14	H	0.817934	0.590951	0.302481
	H15	H	0.139531	0.381631	0.297006
	H16	H	0.376865	0.709052	0.860339
	H17	H	0.582085	0.707041	0.180316
	H18	H	0.582434	0.268752	0.860390
	H19	H	0.376100	0.270996	0.181786
	H20	H	0.700280	0.827925	0.418067
	H21	H	0.698321	0.150683	0.623709
	H22	H	0.261855	0.826698	0.623273
	H23	H	0.262696	0.150940	0.420725
	H24	H	0.875123	0.326608	0.238662
	H25	H	0.082941	0.649019	0.240628
	H26	H	0.082427	0.326245	0.803049
	H27	H	0.876515	0.648750	0.801857
	H28	H	0.202694	0.883545	0.361076
	H29	H	0.196932	0.090869	0.681111
	H30	H	0.760277	0.092520	0.361565
	H31	H	0.761845	0.887127	0.681270
	H32	H	0.318973	0.206495	0.920258
	H33	H	0.642181	0.205271	0.120672
	H34	H	0.319078	0.772950	0.123780
	H35	H	0.641827	0.770741	0.917408
	H36	H	0.320824	0.885902	0.242659
	H37	H	0.640789	0.095007	0.239926
	H38	H	0.321030	0.094284	0.801179
	H39	H	0.640972	0.885599	0.800903
	H40	H	0.878448	0.206559	0.359864
	H41	H	0.081499	0.207730	0.680230
	H42	H	0.085076	0.768252	0.360130
	H43	H	0.876141	0.768818	0.679833
	H44	H	0.199788	0.327786	0.916746
	H45	H	0.196545	0.650899	0.122985
	H46	H	0.764186	0.324757	0.119028
	H47	H	0.762296	0.649561	0.919216
	H48	H	0.389343	0.103894	0.616238
	H49	H	0.563290	0.874595	0.616883
	H50	H	0.569983	0.104823	0.428784
	H51	H	0.391454	0.873883	0.429156
	H52	H	0.569915	0.404964	0.132253
	H53	H	0.572738	0.582286	0.904965
	H54	H	0.389208	0.585979	0.135164
	H55	H	0.392906	0.394580	0.907054
	H56	H	0.090455	0.572199	0.430876
	H57	H	0.868094	0.574901	0.606391
	H58	H	0.096364	0.396840	0.611906
	H59	H	0.862740	0.396227	0.422706
	H60	H	0.095416	0.397480	0.608601
	H61	H	0.865106	0.575104	0.615936
	H62	H	0.095757	0.575437	0.422452
	H63	H	0.864051	0.392949	0.432647
	H64	H	0.382534	0.577874	0.134866
	H65	H	0.572786	0.575912	0.906015
	H66	H	0.564912	0.391109	0.134315
	H67	H	0.386851	0.398300	0.906722
	H68	H	0.568049	0.102554	0.431950
	H69	H	0.568284	0.877390	0.601644
	H70	H	0.392291	0.101699	0.610574
	H71	H	0.395196	0.875551	0.430573
	H72	H	0.889270	0.602188	0.111179
	H73	H	0.071930	0.372505	0.111250
	H74	H	0.080252	0.604910	0.935228
	H75	H	0.893230	0.372808	0.927002
	H76	H	0.072811	0.896420	0.634741
	H77	H	0.075748	0.073269	0.407732
	H78	H	0.883042	0.085324	0.637988
	H79	H	0.894661	0.905972	0.410422
	H80	H	0.595948	0.077447	0.926624
	H81	H	0.366212	0.078588	0.110754
	H82	H	0.597562	0.895711	0.115107
	H83	H	0.362541	0.903841	0.916773
	H84	H	0.594721	0.896509	0.106505
	H85	H	0.365870	0.077409	0.114194
	H86	H	0.596279	0.079982	0.928820
	H87	H	0.362770	0.885819	0.935452
	H88	H	0.888073	0.073108	0.633065
	H89	H	0.065822	0.078082	0.408030
	H90	H	0.069598	0.898940	0.632763
	H91	H	0.896380	0.890277	0.406720
	H92	H	0.070893	0.608083	0.916275
	H93	H	0.064238	0.375596	0.109115
	H94	H	0.888807	0.602208	0.110571
	H95	H	0.887245	0.372479	0.930626
	H96	H	0.385778	0.104192	0.610585
	H97	H	0.578242	0.871112	0.612728
	H98	H	0.572215	0.104320	0.432279
	H99	H	0.392003	0.875695	0.433162
	H100	H	0.579227	0.394976	0.137767
	H101	H	0.567596	0.579268	0.906544
	H102	H	0.392655	0.576836	0.131460
	H103	H	0.392490	0.401129	0.909825
	H104	H	0.095066	0.581013	0.430635
	H105	H	0.864272	0.583002	0.610507
	H106	H	0.095361	0.400072	0.610461
	H107	H	0.867452	0.402350	0.430308
	H108	H	0.888122	0.602498	0.110613
	H109	H	0.070959	0.375469	0.103887
	H110	H	0.060168	0.598991	0.931962
	H111	H	0.887553	0.370602	0.923349
	H112	H	0.068501	0.894825	0.634318
	H113	H	0.074806	0.083503	0.403133
	H114	H	0.896473	0.084144	0.633474
	H115	H	0.882125	0.898136	0.403881
	H116	H	0.594968	0.077303	0.930664
	H117	H	0.364552	0.080332	0.113913
	H118	H	0.593905	0.903315	0.111670
	H119	H	0.371617	0.910196	0.940370
	C120	C	0.358146	-0.003128	0.643584
	C121	C	0.600951	0.980738	0.641732
	C122	C	0.602692	-0.002091	0.399051
	C123	C	0.360815	0.981349	0.400493
	C124	C	0.601560	0.365842	0.028777
	C125	C	0.601458	0.609645	1.011602
	C126	C	0.357515	0.611377	0.028519
	C127	C	0.358465	0.367212	1.013080
	C128	C	-0.012488	0.608477	0.398058
	C129	C	0.971876	0.609166	0.641642
	C130	C	-0.010890	0.367521	0.640337
	C131	C	0.971207	0.365904	0.397388
	C132	C	0.858453	0.495471	0.140530
	C133	C	0.100208	0.480624	0.140346
	C134	C	0.101788	0.497253	0.897743
	C135	C	0.858206	0.478726	0.897228
	C136	C	0.102548	0.865466	0.528758
	C137	C	0.101951	0.109941	0.511791
	C138	C	0.858358	0.110960	0.529006
	C139	C	0.859229	0.867156	0.512476
	C140	C	0.489249	0.109995	0.899064
	C141	C	0.472084	0.110153	0.142337
	C142	C	0.489215	0.867735	0.142691
	C143	C	0.471969	0.868120	0.899427
	C144	C	0.357629	0.875685	0.701454
	C145	C	0.601410	0.101822	0.700148
	C146	C	0.605984	0.877548	0.338812
	C147	C	0.358518	0.102417	0.342469
	C148	C	0.659656	0.365013	0.907903
	C149	C	0.658575	0.608761	0.132319
	C150	C	0.300609	0.611144	0.907710
	C151	C	0.298761	0.367390	0.132747
	C152	C	0.866834	0.667949	0.398472
	C153	C	0.093171	0.666844	0.640432
	C154	C	0.866988	0.311036	0.639256
	C155	C	0.092773	0.308368	0.396675
	C156	C	0.868046	0.366072	0.699072
	C157	C	0.092698	0.610446	0.699413
	C158	C	0.866279	0.609964	0.340998
	C159	C	0.091715	0.363830	0.337204
	C160	C	0.357805	0.669594	0.908145
	C161	C	0.601145	0.667634	0.132228
	C162	C	0.601599	0.307695	0.908164
	C163	C	0.357352	0.309739	0.133354
	C164	C	0.661591	0.876706	0.398281
	C165	C	0.658863	0.102265	0.642371
	C166	C	0.300483	0.875283	0.643376
	C167	C	0.301531	0.102519	0.401126
	C168	C	0.857317	0.374462	0.198631
	C169	C	0.101156	0.601228	0.200381
	C170	C	0.101726	0.375005	0.841382
	C171	C	0.857099	0.600268	0.840102
	C172	C	0.162627	0.864637	0.408824
	C173	C	0.158445	0.110171	0.632989
	C174	C	0.799902	0.111467	0.409092
	C175	C	0.800699	0.867541	0.632951
	C176	C	0.367482	0.167777	0.900395
	C177	C	0.593618	0.167312	0.140947
	C178	C	0.367865	0.810822	0.143170
	C179	C	0.593249	0.809477	0.898183
	C180	C	0.368719	0.867105	0.202437
	C181	C	0.593077	0.112224	0.200123
	C182	C	0.368585	0.112129	0.840958
	C183	C	0.592965	0.866722	0.840370
	C184	C	0.858793	0.168303	0.408306
	C185	C	0.101282	0.168780	0.632225
	C186	C	0.103961	0.807254	0.408210
	C187	C	0.857539	0.808510	0.632341
	C188	C	0.160260	0.375895	0.898033
	C189	C	0.157996	0.602098	0.141987
	C190	C	0.801807	0.373437	0.139232
	C191	C	0.800526	0.600614	0.898775
	C192	C	0.382038	0.081218	0.619677
	C193	C	0.576858	0.896412	0.617441
	C194	C	0.577297	0.082034	0.423787
	C195	C	0.385795	0.896979	0.424264
	C196	C	0.578177	0.390106	0.112670
	C197	C	0.577875	0.585978	0.927712
	C198	C	0.381181	0.587226	0.112096
	C199	C	0.383481	0.391337	0.929371
	C200	C	0.071908	0.583511	0.421278
	C201	C	0.887585	0.584642	0.617785
	C202	C	0.073825	0.391279	0.616974
	C203	C	0.886651	0.390120	0.421407
	C204	C	0.881926	0.580386	0.117469
	C205	C	0.076120	0.396479	0.115314
	C206	C	0.077488	0.582094	0.921018
	C207	C	0.882369	0.394027	0.920215
	C208	C	0.077417	0.889668	0.612234
	C209	C	0.078878	0.085386	0.428109
	C210	C	0.882262	0.087454	0.613038
	C211	C	0.883911	0.891194	0.428648
	C212	C	0.573599	0.085427	0.921911
	C213	C	0.387664	0.085808	0.119581
	C214	C	0.573565	0.891505	0.118356
	C215	C	0.387539	0.892753	0.923731
	Zn216	Zn	0.480281	-0.011620	0.770807
	Zn217	Zn	0.481185	-0.010206	0.271034
	Zn218	Zn	0.730412	0.486954	0.019744
	Zn219	Zn	0.229194	0.489410	0.020110
	Zn220	Zn	-0.020189	0.737167	0.519786
	Zn221	Zn	-0.019210	0.239293	0.519757
	Zn222	Zn	-0.019516	0.487806	0.769623
	Zn223	Zn	-0.020883	0.487879	0.269399
	Zn224	Zn	0.479916	0.739377	0.020007
	Zn225	Zn	0.480103	0.237372	0.021329
	Zn226	Zn	0.730135	-0.010800	0.521412
	Zn227	Zn	0.230952	-0.012041	0.520930
	N228	N	0.392775	0.952402	0.701578
	N229	N	0.565853	0.025369	0.699652
	N230	N	0.570252	0.954157	0.338988
	N231	N	0.394486	0.026221	0.342055
	N232	N	0.659986	0.400427	0.983718
	N233	N	0.659033	0.573572	0.056265
	N234	N	0.300351	0.575540	0.983357
	N235	N	0.299446	0.402380	0.056828
	N236	N	0.943288	0.667243	0.433091
	N237	N	0.016952	0.666172	0.605254
	N238	N	0.943317	0.311944	0.603393
	N239	N	0.016801	0.309390	0.433013
	N240	N	0.944935	0.400381	0.699962
	N241	N	0.015982	0.575580	0.700466
	N242	N	0.942529	0.573832	0.340636
	N243	N	0.014959	0.399105	0.337556
	N244	N	0.392460	0.669905	0.984214
	N245	N	0.566438	0.668309	0.056262
	N246	N	0.566215	0.308063	0.984330
	N247	N	0.393722	0.309443	0.057751
	N248	N	0.659792	0.952534	0.434933
	N249	N	0.658553	0.026053	0.606635
	N250	N	0.300378	0.951722	0.608236
	N251	N	0.302619	0.025791	0.436347
	N252	N	0.891655	0.451385	0.199557
	N253	N	0.065643	0.524811	0.199245
	N254	N	0.065996	0.451654	0.840985
	N255	N	0.892137	0.523494	0.839012
	N256	N	0.161880	0.900204	0.484699
	N257	N	0.159187	0.074304	0.557236
	N258	N	0.799362	0.076764	0.485114
	N259	N	0.801549	0.903202	0.557289
	N260	N	0.443529	0.166668	0.935616
	N261	N	0.517538	0.166001	0.105719
	N262	N	0.443894	0.811022	0.106806
	N263	N	0.517087	0.810376	0.934434
	N264	N	0.445438	0.901650	0.202456
	N265	N	0.516508	0.077093	0.201198
	N266	N	0.445132	0.076813	0.840032
	N267	N	0.516620	0.902431	0.841130
	N268	N	0.894220	0.168262	0.484111
	N269	N	0.067047	0.168827	0.555878
	N270	N	0.067377	0.807668	0.483717
	N271	N	0.893035	0.808085	0.556352
	N272	N	0.160200	0.452867	0.932433
	N273	N	0.157183	0.526184	0.105094
	N274	N	0.802235	0.449773	0.103766
	N275	N	0.800659	0.523912	0.933388
	O276	O	0.520971	0.365533	0.542286
	H277	H	0.543138	0.363223	0.543944
	H278	H	0.525475	0.353665	0.553712
	O279	O	0.309765	0.629458	0.395240
	H280	H	0.311712	0.608909	0.403140
	H281	H	0.293610	0.636535	0.404017
	O282	O	0.921223	-0.022634	0.886643
	H283	H	0.920141	-0.016068	0.881899
	H284	H	0.931690	-0.028407	0.885403
	O285	O	0.876430	-0.157325	0.099786
	H286	H	0.880040	-0.169628	0.118832
	H287	H	0.896817	-0.167137	0.082297
	O288	O	1.019368	0.975996	1.142239
	H289	H	1.027152	0.989659	1.138960
	H290	H	1.021379	0.972219	1.157462
	O291	O	0.622461	1.340256	0.437283
	H292	H	0.620669	1.344685	0.440968
	H293	H	0.613607	1.330068	0.437574
	O294	O	0.450412	0.400565	0.426950
	H295	H	0.444242	0.394789	0.425540
	H296	H	0.454186	0.400776	0.430601
	O297	O	0.651864	0.428344	0.440930
	H298	H	0.640771	0.433486	0.441458
	H299	H	0.668083	0.428889	0.433259
	O300	O	0.921946	-0.008706	-0.152868
	H301	H	0.922665	-0.013506	-0.150195
	H302	H	0.902550	-0.007213	-0.146610
	O303	O	0.365056	0.351792	0.550998
	H304	H	0.361995	0.349351	0.564513
	H305	H	0.350415	0.331255	0.550720
	O306	O	0.981220	1.039138	1.080660
	H307	H	0.981333	1.045673	1.087489
	H308	H	0.964133	1.032232	1.076146
	O309	O	0.439302	0.669682	0.590791
	H310	H	0.451408	0.687173	0.591747
	H311	H	0.452533	0.668722	0.581294
	O312	O	0.370258	0.388782	0.550758
	H313	H	0.362093	0.385975	0.550360
	H314	H	0.371742	0.390293	0.535159
	O315	O	0.425744	0.608763	0.511935
	H316	H	0.434208	0.604259	0.518756
	H317	H	0.438665	0.608555	0.506489
	O318	O	-0.111322	1.057960	0.978897
	H319	H	-0.125396	1.055376	0.987734
	H320	H	-0.106192	1.065342	0.979922
	O321	O	0.559398	0.487217	0.398722
	H322	H	0.561928	0.488509	0.392181
	H323	H	0.566526	0.487637	0.394453
	O324	O	0.351626	0.493312	-0.611229
	H325	H	0.361053	0.495440	-0.602976
	H326	H	0.358030	0.507454	-0.597577
	O327	O	0.065378	0.886143	0.090584
	H328	H	0.076759	0.897364	0.078746
	H329	H	0.060177	0.885719	0.108090
	O330	O	-0.192617	-0.068708	0.941727
	H331	H	-0.188439	-0.072884	0.936092
	H332	H	-0.195777	-0.075989	0.944315
	O333	O	0.023872	0.137464	1.111397
	H334	H	0.031597	0.139641	1.111177
	H335	H	0.023908	0.141907	1.125119
	O336	O	0.517221	0.652297	0.353126
	H337	H	0.507378	0.671656	0.328203
	H338	H	0.495949	0.648573	0.368802
	O339	O	1.166237	-0.043308	-0.127022
	H340	H	1.168379	-0.032880	-0.135172
	H341	H	1.171482	-0.038163	-0.127606
	O342	O	-0.073119	0.073484	0.157047
	H343	H	-0.073997	0.076989	0.152477
	H344	H	-0.080349	0.065966	0.167975
	O345	O	1.063578	0.140673	0.913640
	H346	H	1.044249	0.138088	0.925002
	H347	H	1.054255	0.155635	0.925876
	O348	O	1.153996	1.081611	0.067604
	H349	H	1.164630	1.073759	0.072220
	H350	H	1.156182	1.081101	0.054228
	O351	O	0.349729	0.467154	0.535761
	H352	H	0.351300	0.474846	0.532754
	H353	H	0.355718	0.469483	0.540605
	O354	O	0.812425	-0.015954	1.173900
	H355	H	0.819881	-0.026010	1.186487
	H356	H	0.815869	-0.024493	1.176274
	O357	O	0.579610	0.453308	0.663084
	H358	H	0.575078	0.446601	0.646607
	H359	H	0.581283	0.448101	0.671099
	O360	O	1.095159	-0.002560	0.100735
	H361	H	1.097784	-0.002820	0.103893
	H362	H	1.102092	-0.007109	0.095296
	O363	O	-0.030406	0.911122	0.998415
	H364	H	-0.019321	0.915062	1.001370
	H365	H	-0.034950	0.920579	0.988034
	O366	O	0.316225	0.423795	0.645084
	H367	H	0.297002	0.427615	0.650582
	H368	H	0.320988	0.427385	0.657646
	O369	O	-0.721608	0.592083	-0.576684
	H370	H	-0.729147	0.590008	-0.576495
	H371	H	-0.713662	0.610562	-0.578771
	O372	O	0.572752	0.392471	0.531827
	H373	H	0.569785	0.395663	0.513650
	H374	H	0.550556	0.378277	0.534192
	O375	O	0.674267	0.545956	0.688565
	H376	H	0.676534	0.546383	0.699260
	H377	H	0.665310	0.540307	0.701810
	O378	O	1.413086	1.298938	-0.322466
	H379	H	1.422689	1.295860	-0.307653
	H380	H	1.411802	1.307087	-0.313278
	O381	O	1.174357	-0.028310	0.095205
	H382	H	1.180314	-0.028908	0.071493
	H383	H	1.164478	-0.040597	0.106940
	O384	O	0.905549	1.105890	0.073871
	H385	H	0.894039	1.099929	0.086030
	H386	H	0.898184	1.102112	0.075776
	O387	O	0.019900	0.008139	-0.001007
	H388	H	0.012902	0.011666	0.010242
	H389	H	0.010491	0.020163	-0.004182
	O390	O	0.525986	1.571530	-0.395931
	H391	H	0.508651	1.577564	-0.398571
	H392	H	0.535684	1.554833	-0.404331
	O393	O	1.135467	0.823349	1.028321
	H394	H	1.149934	0.809610	1.033127
	H395	H	1.136265	0.828991	1.001975
	O396	O	-0.048389	0.086191	-0.058491
	H397	H	-0.057297	0.073181	-0.049723
	H398	H	-0.050502	0.091583	-0.054761
	O399	O	-0.186818	0.809911	1.141870
	H400	H	-0.194421	0.792056	1.134442
	H401	H	-0.169594	0.812197	1.136785
	O402	O	0.598770	0.447130	0.517184
	H403	H	0.600820	0.439878	0.503895
	H404	H	0.601896	0.466305	0.513303
	O405	O	0.940733	0.812111	-0.043851
	H406	H	0.954204	0.809495	-0.049432
	H407	H	0.935139	0.807302	-0.035939
	O408	O	1.555874	1.650297	-0.361797
	H409	H	1.569250	1.649661	-0.335620
	H410	H	1.568477	1.648855	-0.368583
	O411	O	1.028804	-0.079380	0.842851
	H412	H	1.015294	-0.091210	0.845207
	H413	H	1.040112	-0.067089	0.836467
	O414	O	0.554140	0.599910	0.536049
	H415	H	0.548170	0.610887	0.517585
	H416	H	0.543122	0.583977	0.526346
	O417	O	0.502086	0.519661	0.463636
	H418	H	0.507960	0.517466	0.464252
	H419	H	0.507179	0.506110	0.479953
