data_Molecule from HDF5

_cell_length_a		16.292467
_cell_length_b		16.303904
_cell_length_c		16.336494
_cell_angle_alpha	89.980419
_cell_angle_beta	90.181193
_cell_angle_gamma	90.001061
_symmetry_space_group_name_H-M	'P 1'
_symmetry_Int_Tables_number		1

loop_
	_symmetry_equiv_pos_as_xyz
	x,y,z

loop_
	_atom_site_label
	_atom_site_type_symbol
	_atom_site_fract_x
	_atom_site_fract_y
	_atom_site_fract_z
	H0	H	0.398326	0.835767	0.702874
	H1	H	0.596070	0.162854	0.703957
	H2	H	0.595592	0.836206	0.273172
	H3	H	0.398227	0.162837	0.273338
	H4	H	0.711500	0.400347	0.824023
	H5	H	0.713127	0.598219	0.150384
	H6	H	0.281927	0.598111	0.824877
	H7	H	0.283569	0.401762	0.151687
	H8	H	0.833773	0.713551	0.390308
	H9	H	0.161012	0.712824	0.586503
	H10	H	0.833372	0.285203	0.585824
	H11	H	0.161299	0.284614	0.390523
	H12	H	0.834150	0.399127	0.702967
	H13	H	0.160331	0.597671	0.703022
	H14	H	0.834642	0.598984	0.272796
	H15	H	0.161439	0.401471	0.274443
	H16	H	0.398469	0.713796	0.824929
	H17	H	0.596105	0.713705	0.151729
	H18	H	0.595154	0.284119	0.825152
	H19	H	0.399140	0.285203	0.151684
	H20	H	0.711244	0.835154	0.390734
	H21	H	0.711657	0.163085	0.586613
	H22	H	0.283709	0.835325	0.584702
	H23	H	0.281894	0.162511	0.389306
	H24	H	0.898681	0.336606	0.203127
	H25	H	0.096825	0.663164	0.202771
	H26	H	0.096340	0.336514	0.772352
	H27	H	0.898673	0.663531	0.772626
	H28	H	0.210402	0.901056	0.325297
	H29	H	0.211899	0.097028	0.652047
	H30	H	0.781667	0.098309	0.325839
	H31	H	0.784072	0.900862	0.652459
	H32	H	0.333412	0.213814	0.889994
	H33	H	0.660155	0.214203	0.088180
	H34	H	0.333523	0.784684	0.085758
	H35	H	0.660284	0.784915	0.890441
	H36	H	0.333428	0.899965	0.202250
	H37	H	0.660336	0.099184	0.204423
	H38	H	0.334156	0.098769	0.772906
	H39	H	0.660459	0.900788	0.774470
	H40	H	0.895641	0.215824	0.325847
	H41	H	0.096497	0.213854	0.651653
	H42	H	0.094299	0.785966	0.324618
	H43	H	0.900559	0.784565	0.651915
	H44	H	0.211362	0.335994	0.889950
	H45	H	0.212005	0.663647	0.086235
	H46	H	0.783418	0.336055	0.085279
	H47	H	0.781990	0.662842	0.888329
	H48	H	0.408146	0.114449	0.583672
	H49	H	0.583771	0.881874	0.594298
	H50	H	0.591477	0.114414	0.398204
	H51	H	0.405721	0.881257	0.386710
	H52	H	0.591598	0.405179	0.104014
	H53	H	0.583960	0.607162	0.869549
	H54	H	0.406293	0.595481	0.104683
	H55	H	0.393557	0.407123	0.870129
	H56	H	0.115401	0.601879	0.397488
	H57	H	0.881213	0.597676	0.575115
	H58	H	0.117701	0.401047	0.591675
	H59	H	0.882281	0.402234	0.402290
	H60	H	0.111927	0.400053	0.571005
	H61	H	0.883350	0.585567	0.577962
	H62	H	0.110957	0.586708	0.400771
	H63	H	0.885377	0.415879	0.395956
	H64	H	0.401499	0.592583	0.104598
	H65	H	0.603872	0.588733	0.869125
	H66	H	0.592338	0.407661	0.103509
	H67	H	0.408980	0.414741	0.876264
	H68	H	0.591033	0.116198	0.392950
	H69	H	0.583200	0.889055	0.571660
	H70	H	0.404570	0.114080	0.576144
	H71	H	0.409170	0.886543	0.399440
	H72	H	0.906944	0.614859	0.080413
	H73	H	0.093335	0.382917	0.079349
	H74	H	0.084145	0.613974	0.894979
	H75	H	0.894314	0.380685	0.894979
	H76	H	0.096604	0.906076	0.606851
	H77	H	0.089781	0.095320	0.372591
	H78	H	0.904863	0.090161	0.603848
	H79	H	0.907934	0.897387	0.371760
	H80	H	0.615221	0.092526	0.889202
	H81	H	0.382090	0.090476	0.082804
	H82	H	0.611363	0.906856	0.074114
	H83	H	0.379995	0.904060	0.894546
	H84	H	0.611678	0.913029	0.084394
	H85	H	0.379269	0.094905	0.081800
	H86	H	0.613963	0.097623	0.901644
	H87	H	0.381378	0.907716	0.896616
	H88	H	0.906912	0.093511	0.604128
	H89	H	0.091062	0.090006	0.372479
	H90	H	0.088000	0.909854	0.602085
	H91	H	0.893071	0.907929	0.370261
	H92	H	0.092665	0.614870	0.900033
	H93	H	0.090042	0.382628	0.084862
	H94	H	0.902722	0.615774	0.078917
	H95	H	0.909338	0.382711	0.885586
	H96	H	0.400183	0.117499	0.583250
	H97	H	0.602981	0.879182	0.580309
	H98	H	0.585906	0.114497	0.395520
	H99	H	0.395630	0.881001	0.397065
	H100	H	0.589694	0.407232	0.102896
	H101	H	0.579340	0.582321	0.878574
	H102	H	0.406368	0.590165	0.102572
	H103	H	0.408391	0.397093	0.871535
	H104	H	0.116123	0.590415	0.386240
	H105	H	0.878268	0.592960	0.586994
	H106	H	0.110294	0.419017	0.581618
	H107	H	0.878160	0.404977	0.388094
	H108	H	0.904334	0.616835	0.082677
	H109	H	0.087169	0.385702	0.079757
	H110	H	0.092225	0.617831	0.889937
	H111	H	0.909158	0.387801	0.902820
	H112	H	0.087761	0.900038	0.605365
	H113	H	0.085891	0.091281	0.373919
	H114	H	0.902226	0.093854	0.604585
	H115	H	0.908997	0.914686	0.376592
	H116	H	0.609875	0.084891	0.898535
	H117	H	0.381953	0.092197	0.078428
	H118	H	0.614929	0.901761	0.084422
	H119	H	0.380300	0.907895	0.892604
	C120	C	0.375951	0.007277	0.609388
	C121	C	0.618952	0.991171	0.610832
	C122	C	0.618322	0.007060	0.367161
	C123	C	0.374883	0.990875	0.366020
	C124	C	0.619817	0.377385	-0.004099
	C125	C	0.618377	0.621251	0.979940
	C126	C	0.375868	0.621093	-0.003666
	C127	C	0.375562	0.377982	0.980276
	C128	C	0.006200	0.621554	0.366110
	C129	C	0.988864	0.620655	0.608924
	C130	C	0.005523	0.377611	0.609739
	C131	C	0.989827	0.378456	0.366808
	C132	C	0.875941	0.507972	0.109234
	C133	C	0.119137	0.491640	0.109863
	C134	C	0.118283	0.507831	0.866577
	C135	C	0.875441	0.491680	0.865597
	C136	C	0.118549	0.877149	0.496736
	C137	C	0.118115	0.120727	0.480393
	C138	C	0.875117	0.121697	0.496819
	C139	C	0.875652	0.877668	0.480572
	C140	C	0.505342	0.121012	0.867281
	C141	C	0.488765	0.121189	0.110171
	C142	C	0.504851	0.878175	0.109548
	C143	C	0.488591	0.878014	0.866605
	C144	C	0.378370	0.884425	0.664413
	C145	C	0.616490	0.114178	0.665940
	C146	C	0.616237	0.884572	0.311388
	C147	C	0.377828	0.113943	0.311423
	C148	C	0.674006	0.379883	0.873055
	C149	C	0.674457	0.618476	0.102234
	C150	C	0.320270	0.618316	0.873498
	C151	C	0.321197	0.380928	0.102967
	C152	C	0.882908	0.676081	0.369426
	C153	C	0.112104	0.675127	0.606815
	C154	C	0.882447	0.322518	0.606730
	C155	C	0.112529	0.322812	0.369803
	C156	C	0.882590	0.379502	0.664527
	C157	C	0.111856	0.618007	0.664774
	C158	C	0.883363	0.619404	0.310893
	C159	C	0.112479	0.380662	0.311941
	C160	C	0.378036	0.675859	0.873502
	C161	C	0.616678	0.676213	0.102737
	C162	C	0.616387	0.322088	0.873582
	C163	C	0.378889	0.323210	0.102846
	C164	C	0.673559	0.884078	0.369939
	C165	C	0.674133	0.114284	0.608059
	C166	C	0.321571	0.884011	0.605824
	C167	C	0.320008	0.113847	0.368974
	C168	C	0.878037	0.385432	0.165177
	C169	C	0.117029	0.614549	0.164693
	C170	C	0.116294	0.385217	0.810802
	C171	C	0.877940	0.614516	0.810292
	C172	C	0.172769	0.880392	0.373804
	C173	C	0.173924	0.117954	0.603242
	C174	C	0.819211	0.119415	0.374539
	C175	C	0.821457	0.880413	0.603469
	C176	C	0.382420	0.176146	0.869528
	C177	C	0.611513	0.176561	0.108629
	C178	C	0.382099	0.822602	0.106470
	C179	C	0.611613	0.822884	0.869569
	C180	C	0.382099	0.880121	0.164201
	C181	C	0.611521	0.119140	0.166125
	C182	C	0.382663	0.118729	0.811648
	C183	C	0.611532	0.880085	0.811772
	C184	C	0.876310	0.177576	0.374463
	C185	C	0.116605	0.176099	0.602843
	C186	C	0.115397	0.822887	0.373699
	C187	C	0.879045	0.822436	0.603320
	C188	C	0.173465	0.384852	0.869202
	C189	C	0.174283	0.614691	0.106846
	C190	C	0.821086	0.385042	0.106387
	C191	C	0.820139	0.614345	0.867952
	C192	C	0.397766	0.093364	0.587534
	C193	C	0.596737	0.905624	0.588571
	C194	C	0.596221	0.092774	0.389319
	C195	C	0.397091	0.905124	0.387885
	C196	C	0.597821	0.400211	0.081355
	C197	C	0.595845	0.599149	0.894654
	C198	C	0.398164	0.599134	0.081891
	C199	C	0.397450	0.399837	0.894661
	C200	C	0.091961	0.599468	0.388181
	C201	C	0.903173	0.598505	0.586621
	C202	C	0.091223	0.399935	0.588009
	C203	C	0.903914	0.401204	0.388982
	C204	C	0.898177	0.593720	0.087078
	C205	C	0.096830	0.405965	0.087744
	C206	C	0.096055	0.593550	0.888483
	C207	C	0.897751	0.405929	0.888055
	C208	C	0.097210	0.899053	0.582459
	C209	C	0.095564	0.098661	0.395051
	C210	C	0.898056	0.099236	0.582132
	C211	C	0.897059	0.900109	0.394990
	C212	C	0.590939	0.098489	0.889812
	C213	C	0.403125	0.099043	0.087633
	C214	C	0.590457	0.900659	0.087514
	C215	C	0.402739	0.900180	0.888286
	Zn216	Zn	0.497169	-0.000647	0.738509
	Zn217	Zn	0.496866	-0.000671	0.238054
	Zn218	Zn	0.747177	0.499759	-0.012553
	Zn219	Zn	0.247075	0.499684	-0.011768
	Zn220	Zn	-0.002481	0.749473	0.488084
	Zn221	Zn	-0.003165	0.250134	0.488325
	Zn222	Zn	-0.003088	0.499650	0.737178
	Zn223	Zn	-0.002382	0.500015	0.237763
	Zn224	Zn	0.497041	0.750158	-0.011922
	Zn225	Zn	0.497483	0.249483	-0.011333
	Zn226	Zn	0.747195	-0.000448	0.488899
	Zn227	Zn	0.246688	-0.000933	0.488448
	N228	N	0.411507	0.962010	0.666609
	N229	N	0.582951	0.036680	0.667644
	N230	N	0.582672	0.961932	0.309586
	N231	N	0.411189	0.036442	0.309585
	N232	N	0.676080	0.413625	0.950298
	N233	N	0.675470	0.584942	0.025067
	N234	N	0.318728	0.584953	0.950905
	N235	N	0.318911	0.414286	0.025671
	N236	N	0.960324	0.677558	0.403006
	N237	N	0.034730	0.676981	0.572914
	N238	N	0.959854	0.321296	0.573397
	N239	N	0.035072	0.321430	0.403155
	N240	N	0.959940	0.413436	0.666313
	N241	N	0.034262	0.584706	0.666096
	N242	N	0.960815	0.585937	0.308926
	N243	N	0.035072	0.414547	0.310143
	N244	N	0.411702	0.677817	0.950718
	N245	N	0.582392	0.678122	0.025661
	N246	N	0.583454	0.320361	0.951019
	N247	N	0.412116	0.321388	0.025537
	N248	N	0.674923	0.961294	0.403990
	N249	N	0.675825	0.036955	0.574560
	N250	N	0.320033	0.961411	0.572090
	N251	N	0.317907	0.036245	0.402232
	N252	N	0.911385	0.463020	0.166935
	N253	N	0.083557	0.537020	0.166735
	N254	N	0.082188	0.462489	0.809340
	N255	N	0.911491	0.537154	0.808574
	N256	N	0.174948	0.913595	0.451205
	N257	N	0.175088	0.084206	0.526023
	N258	N	0.818258	0.085378	0.451493
	N259	N	0.819081	0.913940	0.526068
	N260	N	0.459828	0.177454	0.903680
	N261	N	0.534355	0.177765	0.074369
	N262	N	0.459469	0.821507	0.073042
	N263	N	0.534239	0.821471	0.902879
	N264	N	0.459473	0.914095	0.165984
	N265	N	0.534045	0.085491	0.167362
	N266	N	0.460046	0.085336	0.809979
	N267	N	0.534057	0.913793	0.810174
	N268	N	0.910553	0.178864	0.451547
	N269	N	0.082498	0.177841	0.525619
	N270	N	0.082312	0.820962	0.451012
	N271	N	0.911599	0.820356	0.525799
	N272	N	0.174951	0.462057	0.903009
	N273	N	0.175576	0.537330	0.073292
	N274	N	0.819622	0.462282	0.072405
	N275	N	0.818469	0.536871	0.901557
	O276	O	1.992094	0.057530	1.060193
	H277	H	1.993614	0.058893	1.059565
	H278	H	1.988972	0.056922	1.053837
	O279	O	-0.068207	0.007229	0.023714
	H280	H	-0.066515	-0.004181	0.019259
	H281	H	-0.073776	0.005918	0.020565
	O282	O	-0.057760	0.059054	0.973050
	H283	H	-0.055838	0.060110	0.980061
	H284	H	-0.065000	0.057343	0.974541
	O285	O	0.567781	0.485332	0.477344
	H286	H	0.573116	0.482192	0.484987
	H287	H	0.566950	0.492053	0.482653
	O288	O	0.566736	0.514570	0.486719
	H289	H	0.562022	0.507944	0.480216
	H290	H	0.566277	0.512813	0.484089
	O291	O	-0.050783	1.007374	1.045814
	H292	H	-0.047945	1.003582	1.047485
	H293	H	-0.047816	1.004964	1.046136
	O294	O	-0.044107	-0.008210	0.030646
	H295	H	-0.050293	-0.007034	0.032325
	H296	H	-0.039596	-0.011974	0.029734
	O297	O	0.542110	0.499011	0.519458
	H298	H	0.546873	0.498722	0.517251
	H299	H	0.549559	0.498120	0.520614
	O300	O	-0.010329	0.989455	1.026491
	H301	H	-0.007126	1.001873	1.024091
	H302	H	-0.007488	0.996872	1.034165
	O303	O	0.590343	0.506025	0.480284
	H304	H	0.594654	0.507033	0.491981
	H305	H	0.586122	0.503866	0.477401
	O306	O	0.007317	0.035585	1.006647
	H307	H	0.008046	0.040339	1.003821
	H308	H	0.001594	0.035276	1.003033
	O309	O	0.969211	0.983323	1.021671
	H310	H	0.974320	0.975668	1.021066
	H311	H	0.964997	0.984515	1.030244
	O312	O	0.587402	0.493264	0.490625
	H313	H	0.585793	0.493591	0.482952
	H314	H	0.597275	0.495231	0.489234
	O315	O	0.568548	0.497426	0.499649
	H316	H	0.565482	0.505198	0.502379
	H317	H	0.563199	0.495221	0.496676
	O318	O	-0.016911	1.086385	0.027269
	H319	H	-0.017724	1.081177	0.025681
	H320	H	-0.023145	1.092956	0.033527
	O321	O	0.949113	1.002274	0.071865
	H322	H	0.947711	1.006090	0.066887
	H323	H	0.948296	1.013791	0.076164
