data_Molecule from HDF5

_cell_length_a		16.720027
_cell_length_b		16.565567
_cell_length_c		16.671670
_cell_angle_alpha	89.884088
_cell_angle_beta	90.108529
_cell_angle_gamma	89.945341
_symmetry_space_group_name_H-M	'P 1'
_symmetry_Int_Tables_number		1

loop_
	_symmetry_equiv_pos_as_xyz
	x,y,z

loop_
	_atom_site_label
	_atom_site_type_symbol
	_atom_site_fract_x
	_atom_site_fract_y
	_atom_site_fract_z
	H0	H	0.394932	0.850363	0.722936
	H1	H	0.605111	0.161784	0.728507
	H2	H	0.596748	0.849827	0.288803
	H3	H	0.393271	0.164535	0.285693
	H4	H	0.719545	0.401431	0.851657
	H5	H	0.717660	0.612894	0.161081
	H6	H	0.276440	0.612179	0.849225
	H7	H	0.276820	0.404663	0.159831
	H8	H	0.843723	0.731850	0.397780
	H9	H	0.153834	0.725786	0.606700
	H10	H	0.841284	0.288079	0.607697
	H11	H	0.154102	0.290765	0.404256
	H12	H	0.841685	0.403590	0.724872
	H13	H	0.152318	0.611019	0.725058
	H14	H	0.844764	0.618020	0.279865
	H15	H	0.153195	0.406012	0.286955
	H16	H	0.392998	0.728237	0.848997
	H17	H	0.598371	0.726242	0.161995
	H18	H	0.602551	0.286003	0.851661
	H19	H	0.395140	0.290264	0.161763
	H20	H	0.714133	0.850053	0.403780
	H21	H	0.720816	0.162297	0.612206
	H22	H	0.280044	0.850107	0.606107
	H23	H	0.277954	0.164092	0.401778
	H24	H	0.892037	0.352330	0.226798
	H25	H	0.102234	0.664043	0.224562
	H26	H	0.100080	0.350401	0.786256
	H27	H	0.894126	0.665240	0.786760
	H28	H	0.216990	0.904069	0.349047
	H29	H	0.220463	0.114797	0.658247
	H30	H	0.777621	0.111123	0.349126
	H31	H	0.771492	0.896043	0.656942
	H32	H	0.341431	0.228280	0.900051
	H33	H	0.650495	0.231213	0.112473
	H34	H	0.340646	0.789284	0.106557
	H35	H	0.650579	0.784811	0.898680
	H36	H	0.340743	0.904135	0.223945
	H37	H	0.649897	0.114817	0.229092
	H38	H	0.342707	0.115150	0.781533
	H39	H	0.649140	0.899160	0.780740
	H40	H	0.895517	0.225555	0.348075
	H41	H	0.100762	0.227665	0.660694
	H42	H	0.104086	0.785628	0.351326
	H43	H	0.893072	0.785208	0.659739
	H44	H	0.217911	0.352023	0.899277
	H45	H	0.214872	0.665665	0.106046
	H46	H	0.774195	0.353377	0.113214
	H47	H	0.778837	0.664906	0.903030
	H48	H	0.412599	0.119873	0.596155
	H49	H	0.581333	0.898622	0.591044
	H50	H	0.583637	0.118321	0.417477
	H51	H	0.402392	0.893221	0.416182
	H52	H	0.586864	0.423085	0.116106
	H53	H	0.581241	0.590672	0.897786
	H54	H	0.400251	0.600797	0.119712
	H55	H	0.402991	0.419556	0.892055
	H56	H	0.107920	0.598692	0.415929
	H57	H	0.885114	0.600622	0.594148
	H58	H	0.109846	0.410909	0.594307
	H59	H	0.884829	0.414448	0.414716
	H60	H	0.105252	0.422076	0.591223
	H61	H	0.887054	0.594984	0.592845
	H62	H	0.105982	0.594124	0.417584
	H63	H	0.886636	0.419090	0.416598
	H64	H	0.404417	0.593241	0.115957
	H65	H	0.584186	0.605362	0.892374
	H66	H	0.582314	0.421509	0.114377
	H67	H	0.408173	0.420611	0.895006
	H68	H	0.589521	0.120213	0.417642
	H69	H	0.586641	0.897006	0.589594
	H70	H	0.409490	0.117693	0.587259
	H71	H	0.405713	0.893463	0.409428
	H72	H	0.907275	0.618334	0.090336
	H73	H	0.082684	0.397731	0.093753
	H74	H	0.090602	0.621849	0.914025
	H75	H	0.905700	0.396011	0.919749
	H76	H	0.089173	0.910324	0.618722
	H77	H	0.087684	0.098410	0.392577
	H78	H	0.914256	0.095817	0.613916
	H79	H	0.907122	0.916859	0.392744
	H80	H	0.606990	0.096051	0.916003
	H81	H	0.386918	0.096177	0.095098
	H82	H	0.607806	0.919059	0.098151
	H83	H	0.385600	0.919533	0.913875
	H84	H	0.608571	0.915396	0.096441
	H85	H	0.385611	0.098607	0.094974
	H86	H	0.606635	0.096314	0.917393
	H87	H	0.385202	0.918559	0.914842
	H88	H	0.905773	0.102748	0.618284
	H89	H	0.087957	0.098759	0.392346
	H90	H	0.094168	0.925217	0.617366
	H91	H	0.905504	0.924050	0.394987
	H92	H	0.085273	0.621008	0.909806
	H93	H	0.088998	0.395861	0.091488
	H94	H	0.905950	0.620184	0.093889
	H95	H	0.905425	0.393942	0.912462
	H96	H	0.403647	0.121655	0.593976
	H97	H	0.584841	0.895806	0.594230
	H98	H	0.586193	0.121621	0.412781
	H99	H	0.409101	0.895805	0.415356
	H100	H	0.585740	0.418841	0.117035
	H101	H	0.595557	0.594593	0.891887
	H102	H	0.409374	0.601310	0.116803
	H103	H	0.407681	0.415698	0.891310
	H104	H	0.108202	0.594431	0.413155
	H105	H	0.884967	0.596613	0.598081
	H106	H	0.110291	0.420224	0.602565
	H107	H	0.885738	0.418665	0.411178
	H108	H	0.910354	0.618852	0.093795
	H109	H	0.087500	0.394701	0.098252
	H110	H	0.084371	0.619642	0.916819
	H111	H	0.911609	0.396403	0.914977
	H112	H	0.079747	0.921451	0.612780
	H113	H	0.087903	0.098567	0.392704
	H114	H	0.903588	0.090929	0.616220
	H115	H	0.912533	0.921254	0.396405
	H116	H	0.606829	0.095104	0.917035
	H117	H	0.385875	0.097511	0.093067
	H118	H	0.607026	0.918788	0.094200
	H119	H	0.386260	0.919289	0.914504
	C120	C	0.377008	0.016096	0.624485
	C121	C	0.618428	0.999389	0.625864
	C122	C	0.617000	0.015951	0.384707
	C123	C	0.374767	0.998196	0.382719
	C124	C	0.618094	0.387400	0.014132
	C125	C	0.618163	0.629024	0.997181
	C126	C	0.374748	0.629402	0.013618
	C127	C	0.375369	0.387266	0.996159
	C128	C	0.005878	0.629809	0.382676
	C129	C	0.989160	0.628528	0.625957
	C130	C	0.005591	0.385969	0.627238
	C131	C	0.989287	0.387338	0.383954
	C132	C	0.875838	0.516591	0.126006
	C133	C	0.117469	0.500048	0.124952
	C134	C	0.118341	0.516968	0.882674
	C135	C	0.876105	0.499265	0.884466
	C136	C	0.118881	0.887142	0.513414
	C137	C	0.119371	0.130061	0.495706
	C138	C	0.876249	0.128357	0.513220
	C139	C	0.876212	0.886495	0.496648
	C140	C	0.504869	0.128885	0.883902
	C141	C	0.488164	0.129677	0.127192
	C142	C	0.504677	0.886742	0.126260
	C143	C	0.487928	0.886123	0.882932
	C144	C	0.376018	0.897833	0.683532
	C145	C	0.622766	0.115437	0.687740
	C146	C	0.616615	0.897192	0.327318
	C147	C	0.374410	0.116949	0.324870
	C148	C	0.679050	0.383607	0.898203
	C149	C	0.677371	0.631031	0.114338
	C150	C	0.316191	0.630834	0.895914
	C151	C	0.316908	0.386310	0.113600
	C152	C	0.890295	0.691411	0.379731
	C153	C	0.106743	0.686601	0.626355
	C154	C	0.888385	0.327381	0.627342
	C155	C	0.106813	0.329593	0.384667
	C156	C	0.888306	0.384879	0.685366
	C157	C	0.106088	0.629280	0.684803
	C158	C	0.890623	0.634573	0.321145
	C159	C	0.106489	0.387113	0.326400
	C160	C	0.374354	0.688133	0.895793
	C161	C	0.618285	0.687505	0.114886
	C162	C	0.620850	0.326429	0.897915
	C163	C	0.375408	0.329225	0.114285
	C164	C	0.674728	0.897365	0.384602
	C165	C	0.680360	0.115529	0.630248
	C166	C	0.319028	0.897496	0.625262
	C167	C	0.317201	0.117132	0.382414
	C168	C	0.873385	0.399473	0.186954
	C169	C	0.119758	0.617551	0.184083
	C170	C	0.119437	0.398428	0.824652
	C171	C	0.875435	0.617708	0.826088
	C172	C	0.177933	0.885203	0.396178
	C173	C	0.179608	0.132305	0.612393
	C174	C	0.817567	0.129544	0.395806
	C175	C	0.813741	0.880245	0.611692
	C176	C	0.388413	0.189048	0.881455
	C177	C	0.604136	0.190389	0.130137
	C178	C	0.387356	0.828735	0.125910
	C179	C	0.603810	0.825060	0.880377
	C180	C	0.387445	0.885781	0.184376
	C181	C	0.603804	0.132675	0.188260
	C182	C	0.389015	0.132536	0.822612
	C183	C	0.603414	0.882218	0.821919
	C184	C	0.876071	0.186449	0.395302
	C185	C	0.120373	0.188587	0.613298
	C186	C	0.121292	0.826837	0.397167
	C187	C	0.874053	0.825094	0.612911
	C188	C	0.177935	0.399120	0.881189
	C189	C	0.175985	0.618090	0.125492
	C190	C	0.815016	0.399817	0.130204
	C191	C	0.818036	0.617747	0.883726
	C192	C	0.401481	0.098419	0.599494
	C193	C	0.591863	0.918329	0.599291
	C194	C	0.593071	0.098506	0.408976
	C195	C	0.398683	0.915769	0.406869
	C196	C	0.592353	0.413597	0.094912
	C197	C	0.593886	0.604129	0.915370
	C198	C	0.398035	0.605305	0.095980
	C199	C	0.399488	0.411575	0.914191
	C200	C	0.086354	0.603284	0.408309
	C201	C	0.907111	0.604486	0.601937
	C202	C	0.087218	0.410664	0.603083
	C203	C	0.907175	0.410953	0.407328
	C204	C	0.900835	0.597954	0.100141
	C205	C	0.093351	0.417703	0.101094
	C206	C	0.093959	0.599342	0.906731
	C207	C	0.900468	0.416833	0.908965
	C208	C	0.094836	0.911966	0.595024
	C209	C	0.094892	0.105649	0.413918
	C210	C	0.900843	0.103664	0.594952
	C211	C	0.901158	0.913144	0.415675
	C212	C	0.585691	0.102998	0.909468
	C213	C	0.407143	0.104418	0.101662
	C214	C	0.586641	0.910911	0.102860
	C215	C	0.406752	0.911749	0.907551
	Zn216	Zn	0.496842	0.008279	0.753805
	Zn217	Zn	0.496074	0.007341	0.255692
	Zn218	Zn	0.747109	0.508074	0.005253
	Zn219	Zn	0.246392	0.508334	0.004691
	Zn220	Zn	-0.001976	0.758018	0.504815
	Zn221	Zn	-0.002911	0.257581	0.505203
	Zn222	Zn	-0.003635	0.507522	0.755402
	Zn223	Zn	-0.002360	0.508432	0.254261
	Zn224	Zn	0.496376	0.757402	0.005179
	Zn225	Zn	0.496806	0.258342	0.004921
	Zn226	Zn	0.747010	0.007266	0.504925
	Zn227	Zn	0.247508	0.007669	0.504574
	N228	N	0.410956	0.972847	0.683414
	N229	N	0.584916	0.042014	0.685189
	N230	N	0.581908	0.972319	0.326705
	N231	N	0.409223	0.041897	0.324728
	N232	N	0.677664	0.420673	0.971631
	N233	N	0.677703	0.595892	0.039873
	N234	N	0.316231	0.595060	0.970185
	N235	N	0.316490	0.421356	0.038916
	N236	N	0.963092	0.688726	0.417351
	N237	N	0.032800	0.686233	0.590423
	N238	N	0.962399	0.327807	0.591710
	N239	N	0.032709	0.329341	0.419570
	N240	N	0.962273	0.420641	0.685413
	N241	N	0.031678	0.594291	0.684971
	N242	N	0.963515	0.596712	0.322963
	N243	N	0.032024	0.421966	0.325467
	N244	N	0.409772	0.687617	0.970127
	N245	N	0.582174	0.686720	0.040786
	N246	N	0.583505	0.328647	0.971024
	N247	N	0.411023	0.329583	0.040090
	N248	N	0.675451	0.972466	0.419264
	N249	N	0.677968	0.042111	0.592453
	N250	N	0.319050	0.972345	0.589568
	N251	N	0.316745	0.042121	0.417428
	N252	N	0.910445	0.473330	0.184880
	N253	N	0.083841	0.543071	0.183915
	N254	N	0.083128	0.472792	0.825165
	N255	N	0.910604	0.542774	0.826204
	N256	N	0.176652	0.922074	0.469676
	N257	N	0.179150	0.096452	0.538134
	N258	N	0.817249	0.094319	0.470419
	N259	N	0.815178	0.917953	0.538393
	N260	N	0.461663	0.187480	0.918589
	N261	N	0.530968	0.188684	0.092692
	N262	N	0.461379	0.829019	0.090515
	N263	N	0.530899	0.827376	0.917791
	N264	N	0.461520	0.921311	0.184651
	N265	N	0.530679	0.095481	0.186485
	N266	N	0.462655	0.095871	0.823772
	N267	N	0.530225	0.919801	0.823421
	N268	N	0.911767	0.186050	0.469461
	N269	N	0.083630	0.187366	0.539738
	N270	N	0.085268	0.827801	0.470966
	N271	N	0.912289	0.828797	0.540160
	N272	N	0.177846	0.474036	0.916432
	N273	N	0.174856	0.543945	0.089444
	N274	N	0.816365	0.473586	0.092966
	N275	N	0.817977	0.542878	0.919249
	O276	O	0.017764	0.981580	-0.008970
	H277	H	0.010375	0.986545	0.003676
	H278	H	0.020286	0.995088	-0.008402
	O279	O	0.207056	0.219779	0.211783
	H280	H	0.204440	0.177637	0.218131
	H281	H	0.239825	0.248753	0.246961
	O282	O	1.290560	0.300842	0.703580
	H283	H	1.298191	0.301809	0.692696
	H284	H	1.297087	0.324133	0.707297
	O285	O	0.671455	0.432948	0.597772
	H286	H	0.682557	0.419134	0.600077
	H287	H	0.670040	0.439049	0.597760
	O288	O	0.307131	0.596460	0.557095
	H289	H	0.293737	0.597458	0.561562
	H290	H	0.302933	0.596380	0.559586
	O291	O	0.525019	0.293766	0.291004
	H292	H	0.535014	0.275452	0.275755
	H293	H	0.544019	0.289780	0.292941
	O294	O	1.013332	-0.002987	0.951807
	H295	H	1.026009	0.008980	0.948975
	H296	H	1.009558	0.005567	0.958575
	O297	O	0.504238	0.696470	0.584657
	H298	H	0.500419	0.687866	0.583347
	H299	H	0.516797	0.704797	0.579733
	O300	O	-0.013386	0.152441	0.972532
	H301	H	-0.002228	0.162883	0.969278
	H302	H	0.002239	0.153082	0.971821
	O303	O	0.615320	0.616756	0.386562
	H304	H	0.614460	0.596566	0.391450
	H305	H	0.613927	0.620288	0.393148
	O306	O	0.598740	0.563636	0.361205
	H307	H	0.582813	0.555373	0.375578
	H308	H	0.594816	0.559428	0.365329
	O309	O	0.312200	0.689105	0.689129
	H310	H	0.323587	0.664359	0.674775
	H311	H	0.338352	0.675223	0.676336
	O312	O	0.563518	0.535691	0.395104
	H313	H	0.572473	0.526483	0.406349
	H314	H	0.565860	0.538616	0.387342
	O315	O	0.963417	1.179153	1.106601
	H316	H	0.978704	1.175108	1.092896
	H317	H	0.991766	1.187902	1.117328
	O318	O	0.583675	0.468050	0.701554
	H319	H	0.606557	0.471283	0.697959
	H320	H	0.585547	0.462114	0.689150
	O321	O	0.207991	0.800911	0.786757
	H322	H	0.211643	0.794255	0.838696
	H323	H	0.239323	0.771479	0.760853
	O324	O	1.053265	0.972961	0.204615
	H325	H	1.051135	0.965429	0.203074
	H326	H	1.041308	0.958843	0.197971
	O327	O	-0.223316	0.229858	0.784912
	H328	H	-0.220896	0.236230	0.772377
	H329	H	-0.203761	0.218403	0.803362
	O330	O	0.519047	0.456449	0.443760
	H331	H	0.523090	0.434860	0.454303
	H332	H	0.516375	0.458270	0.447995
	O333	O	0.721058	0.283427	0.462437
	H334	H	0.728617	0.280985	0.458669
	H335	H	0.733120	0.267850	0.453882
	O336	O	0.977936	0.059072	0.029289
	H337	H	0.977726	0.057629	0.034692
	H338	H	0.982672	0.055478	0.027443
	O339	O	0.924221	-0.129500	1.071549
	H340	H	0.910712	-0.135577	1.065854
	H341	H	0.925778	-0.105429	1.075334
	O342	O	-0.070105	0.045418	0.228246
	H343	H	-0.084676	0.025872	0.238440
	H344	H	-0.061815	0.054984	0.226271
	O345	O	-0.037110	1.219153	0.790795
	H346	H	-0.022930	1.214907	0.787202
	H347	H	-0.027403	1.226279	0.786985
	O348	O	-0.205232	-0.026581	0.013435
	H349	H	-0.200416	-0.028339	0.023299
	H350	H	-0.218029	-0.022178	0.007484
	O351	O	0.784108	0.806614	0.216760
	H352	H	0.767689	0.779569	0.229342
	H353	H	0.784996	0.811795	0.182876
	O354	O	0.188878	0.198677	0.816142
	H355	H	0.186116	0.177412	0.801503
	H356	H	0.182934	0.204323	0.815212
	O357	O	0.278390	0.474071	0.722773
	H358	H	0.296139	0.479685	0.720487
	H359	H	0.260939	0.474556	0.747007
	O360	O	0.581918	0.297538	0.608336
	H361	H	0.588555	0.295084	0.605044
	H362	H	0.575523	0.289312	0.617790
	O363	O	0.216924	-0.204917	-0.044609
	H364	H	0.203284	-0.185174	-0.018444
	H365	H	0.240112	-0.231596	-0.030822
	O366	O	0.508832	0.661065	0.415410
	H367	H	0.502785	0.670398	0.419436
	H368	H	0.498814	0.662258	0.418939
	O369	O	0.902488	0.024478	-0.130402
	H370	H	0.908226	0.031330	-0.134561
	H371	H	0.910661	0.037990	-0.119839
	O372	O	0.802283	0.818656	-0.186104
	H373	H	0.808865	0.845159	-0.167656
	H374	H	0.830174	0.831481	-0.168701
	O375	O	1.203553	-0.057127	0.074666
	H376	H	1.190677	-0.043144	0.075672
	H377	H	1.208555	-0.030579	0.062330
	O378	O	0.629170	0.351844	0.645439
	H379	H	0.624650	0.355146	0.644006
	H380	H	0.616765	0.357191	0.626805
	O381	O	0.009060	1.229487	0.985961
	H382	H	0.028202	1.238049	0.988114
	H383	H	0.011108	1.217495	0.983625
	O384	O	0.774572	0.068394	1.039942
	H385	H	0.773613	0.083662	1.029241
	H386	H	0.774280	0.062879	1.047831
	O387	O	1.220960	1.042710	-0.054035
	H388	H	1.216938	1.052161	-0.061382
	H389	H	1.225930	1.055784	-0.072007
	O390	O	0.221204	0.234791	0.042812
	H391	H	0.222019	0.233078	0.080819
	H392	H	0.250396	0.261041	0.051049
	O393	O	0.711210	0.718292	0.534120
	H394	H	0.719465	0.710392	0.530552
	H395	H	0.726617	0.726098	0.544825
	O396	O	-0.223993	1.222207	0.974458
	H397	H	-0.213514	1.237787	0.982489
	H398	H	-0.231360	1.236806	0.970142
	O399	O	0.217597	0.050515	1.225783
	H400	H	0.218656	0.044279	1.219211
	H401	H	0.225335	0.043560	1.242346
	O402	O	0.318613	0.454964	0.399061
	H403	H	0.317776	0.461950	0.392225
	H404	H	0.321102	0.464178	0.391886
	O405	O	0.777102	0.018832	0.784740
	H406	H	0.786613	0.033744	0.784820
	H407	H	0.765361	0.039255	0.768846
	O408	O	0.224488	-0.023897	-0.224856
	H409	H	0.240761	-0.049189	-0.243283
	H410	H	0.232286	-0.045605	-0.231592
	O411	O	0.471545	0.285194	0.727192
	H412	H	0.461073	0.269739	0.735759
	H413	H	0.474183	0.283766	0.735430
	O414	O	0.454797	0.724393	0.286334
	H415	H	0.468282	0.734960	0.279851
	H416	H	0.442709	0.726355	0.284434
	O417	O	0.306563	0.315774	0.314206
	H418	H	0.330522	0.336204	0.327970
	H419	H	0.317104	0.336539	0.335660
	O420	O	0.423095	0.495879	0.338577
	H421	H	0.428779	0.495509	0.339478
	H422	H	0.427156	0.501361	0.329540
	O423	O	0.054346	-0.212177	0.868610
	H424	H	0.083768	-0.213235	0.877355
	H425	H	0.058556	-0.217990	0.851215
	O426	O	0.717623	0.541204	0.726570
	H427	H	0.739716	0.545636	0.747029
	H428	H	0.718172	0.564282	0.717105
	O429	O	0.708926	0.712728	0.715801
	H430	H	0.740898	0.746507	0.746678
	H431	H	0.703649	0.701672	0.693228
	O432	O	0.517788	0.564914	0.678456
	H433	H	0.524736	0.549201	0.677534
	H434	H	0.523136	0.571602	0.683354
	O435	O	0.451028	0.298234	0.464762
	H436	H	0.433361	0.290494	0.465243
	H437	H	0.458802	0.302933	0.461577
	O438	O	-0.197401	0.197230	0.196207
	H439	H	-0.178969	0.172388	0.184739
	H440	H	-0.172661	0.188304	0.173713
	O441	O	0.038301	0.232160	0.223653
	H442	H	0.075900	0.218395	0.217438
	H443	H	0.037452	0.257384	0.259968
	O444	O	0.384230	0.618167	0.554031
	H445	H	0.391104	0.618068	0.556655
	H446	H	0.387695	0.607397	0.563137
	O447	O	0.203151	0.803487	1.211824
	H448	H	0.178132	0.816948	1.193416
	H449	H	0.195684	0.820364	1.188021
	O450	O	-0.008232	0.810461	0.890723
	H451	H	-0.000754	0.833302	0.894667
	H452	H	0.010619	0.794071	0.869755
	O453	O	0.286371	0.294452	0.531511
	H454	H	0.288552	0.326732	0.533085
	H455	H	0.262950	0.266671	0.538885
	O456	O	0.141080	-0.096582	1.091914
	H457	H	0.137761	-0.081987	1.066378
	H458	H	0.112987	-0.093054	1.099380
	O459	O	0.977161	0.794260	0.235323
	H460	H	0.958932	0.770760	0.256615
	H461	H	0.952637	0.787361	0.224138
	O462	O	0.325149	0.682056	0.479978
	H463	H	0.326593	0.692565	0.471927
	H464	H	0.327400	0.697027	0.461477
	O465	O	0.765617	-0.025741	0.231316
	H466	H	0.747458	-0.026672	0.235062
	H467	H	0.751772	-0.051746	0.246254
	O468	O	0.704039	0.295709	0.296320
	H469	H	0.720838	0.277169	0.294167
	H470	H	0.715870	0.300070	0.282345
	O471	O	0.505377	0.558840	0.632367
	H472	H	0.507694	0.553402	0.627030
	H473	H	0.511721	0.561641	0.633745
	O474	O	0.469228	0.503417	0.619433
	H475	H	0.478478	0.506979	0.625174
	H476	H	0.486220	0.503491	0.627994
	O477	O	0.453375	0.611451	1.532872
	H478	H	0.466177	0.613071	1.534493
	H479	H	0.454772	0.609436	1.533225
	O480	O	0.280005	0.530961	0.291249
	H481	H	0.291834	0.559187	0.297489
	H482	H	0.254556	0.550369	0.265390
	O483	O	0.732767	0.563078	0.448239
	H484	H	0.729674	0.555948	0.462808
	H485	H	0.734211	0.555041	0.440782
	O486	O	0.936318	-0.035046	0.763131
	H487	H	0.937349	-0.048622	0.755040
	H488	H	0.935127	-0.038964	0.762860
	O489	O	0.769259	0.791358	0.038649
	H490	H	0.744459	0.766084	0.035251
	H491	H	0.777177	0.806110	0.021229
	O492	O	0.300431	-0.305632	0.309819
	H493	H	0.323202	-0.298975	0.333015
	H494	H	0.272755	-0.269077	0.282224
	O495	O	-0.026887	0.790927	0.942988
	H496	H	-0.013758	0.803292	0.947244
	H497	H	-0.023994	0.785674	0.919408
	O498	O	1.077879	1.108788	0.830583
	H499	H	1.072483	1.090050	0.830831
	H500	H	1.074477	1.100568	0.833884
	O501	O	0.724757	0.483170	0.289433
	H502	H	0.728508	0.475077	0.273779
	H503	H	0.737502	0.474789	0.293549
