data_Molecule from HDF5

_cell_length_a		16.264184
_cell_length_b		16.274201
_cell_length_c		16.268166
_cell_angle_alpha	88.993560
_cell_angle_beta	89.487091
_cell_angle_gamma	90.142071
_symmetry_space_group_name_H-M	'P 1'
_symmetry_Int_Tables_number		1

loop_
	_symmetry_equiv_pos_as_xyz
	x,y,z

loop_
	_atom_site_label
	_atom_site_type_symbol
	_atom_site_fract_x
	_atom_site_fract_y
	_atom_site_fract_z
	H0	H	0.395758	0.840672	0.723019
	H1	H	0.596145	0.166145	0.709913
	H2	H	0.599597	0.836597	0.289676
	H3	H	0.399909	0.163372	0.281900
	H4	H	0.717444	0.404763	0.836916
	H5	H	0.714250	0.597601	0.164716
	H6	H	0.288114	0.603883	0.837132
	H7	H	0.281454	0.396691	0.163274
	H8	H	0.835971	0.718394	0.399269
	H9	H	0.162704	0.715475	0.595509
	H10	H	0.836667	0.283396	0.603945
	H11	H	0.163189	0.287551	0.400893
	H12	H	0.838675	0.396538	0.721776
	H13	H	0.164448	0.597969	0.708702
	H14	H	0.836604	0.603357	0.283922
	H15	H	0.163849	0.405436	0.285661
	H16	H	0.402481	0.720655	0.838586
	H17	H	0.600339	0.714149	0.164675
	H18	H	0.600736	0.289714	0.835819
	H19	H	0.397679	0.280483	0.162967
	H20	H	0.714244	0.838048	0.404492
	H21	H	0.714972	0.163751	0.599619
	H22	H	0.283124	0.838442	0.605787
	H23	H	0.284588	0.164559	0.399914
	H24	H	0.898634	0.339575	0.220593
	H25	H	0.099546	0.666145	0.209970
	H26	H	0.103247	0.337977	0.786380
	H27	H	0.903845	0.663662	0.782498
	H28	H	0.217315	0.904574	0.339119
	H29	H	0.212816	0.099564	0.664740
	H30	H	0.783992	0.104241	0.337850
	H31	H	0.781559	0.897573	0.664567
	H32	H	0.337102	0.221404	0.899482
	H33	H	0.663713	0.214502	0.096680
	H34	H	0.337334	0.781810	0.105813
	H35	H	0.663898	0.790040	0.901736
	H36	H	0.337228	0.895287	0.222186
	H37	H	0.663262	0.098310	0.213052
	H38	H	0.335490	0.104899	0.785992
	H39	H	0.661756	0.905884	0.784078
	H40	H	0.898304	0.222024	0.338840
	H41	H	0.097345	0.214555	0.664288
	H42	H	0.098099	0.792484	0.335582
	H43	H	0.896965	0.780428	0.663178
	H44	H	0.217765	0.338241	0.903269
	H45	H	0.216273	0.664524	0.096955
	H46	H	0.784647	0.338602	0.103501
	H47	H	0.787862	0.664987	0.898602
	H48	H	0.410988	0.117464	0.593828
	H49	H	0.584963	0.886865	0.594266
	H50	H	0.593782	0.118502	0.404595
	H51	H	0.410456	0.883883	0.406138
	H52	H	0.588569	0.416730	0.112005
	H53	H	0.603622	0.596806	0.881870
	H54	H	0.409552	0.594812	0.118660
	H55	H	0.414644	0.412164	0.886428
	H56	H	0.115514	0.593242	0.402795
	H57	H	0.882550	0.582286	0.602151
	H58	H	0.118616	0.403272	0.593139
	H59	H	0.886425	0.418102	0.412539
	H60	H	0.115180	0.407748	0.589973
	H61	H	0.879250	0.602131	0.593145
	H62	H	0.118409	0.601047	0.400836
	H63	H	0.881407	0.410039	0.404824
	H64	H	0.401246	0.589260	0.118446
	H65	H	0.590930	0.589957	0.887869
	H66	H	0.582615	0.397921	0.116658
	H67	H	0.407191	0.407417	0.882893
	H68	H	0.588671	0.117010	0.402888
	H69	H	0.591726	0.885502	0.592390
	H70	H	0.402982	0.117550	0.585553
	H71	H	0.410719	0.887954	0.418740
	H72	H	0.907618	0.617997	0.091112
	H73	H	0.099407	0.384299	0.089798
	H74	H	0.086003	0.615011	0.902316
	H75	H	0.908715	0.384731	0.910623
	H76	H	0.094939	0.905921	0.618930
	H77	H	0.088461	0.088870	0.387641
	H78	H	0.911421	0.085081	0.613556
	H79	H	0.909173	0.908566	0.385947
	H80	H	0.616658	0.097414	0.901543
	H81	H	0.382678	0.087527	0.096966
	H82	H	0.615622	0.911105	0.095976
	H83	H	0.386840	0.915212	0.919456
	H84	H	0.617811	0.904348	0.097191
	H85	H	0.382539	0.096529	0.092193
	H86	H	0.616072	0.097481	0.906120
	H87	H	0.383086	0.914390	0.906189
	H88	H	0.907587	0.099758	0.619305
	H89	H	0.087261	0.101446	0.384783
	H90	H	0.085855	0.909324	0.615741
	H91	H	0.902387	0.908577	0.382069
	H92	H	0.099403	0.616485	0.911236
	H93	H	0.089655	0.383164	0.103129
	H94	H	0.906456	0.617951	0.089485
	H95	H	0.910398	0.385801	0.913140
	H96	H	0.399973	0.122178	0.596521
	H97	H	0.589744	0.883613	0.598179
	H98	H	0.590413	0.117149	0.407797
	H99	H	0.399316	0.882795	0.413841
	H100	H	0.601298	0.403252	0.120461
	H101	H	0.591098	0.605252	0.883203
	H102	H	0.409522	0.585823	0.115372
	H103	H	0.406417	0.416759	0.884775
	H104	H	0.115555	0.599041	0.407648
	H105	H	0.888408	0.586053	0.580647
	H106	H	0.117428	0.408892	0.595375
	H107	H	0.884699	0.406848	0.416318
	H108	H	0.906046	0.619467	0.091706
	H109	H	0.083543	0.389268	0.089798
	H110	H	0.099269	0.622110	0.896130
	H111	H	0.906879	0.384360	0.912589
	H112	H	0.086741	0.899487	0.618550
	H113	H	0.099050	0.095643	0.383317
	H114	H	0.896191	0.088181	0.619410
	H115	H	0.905674	0.914557	0.385079
	H116	H	0.615034	0.093821	0.903391
	H117	H	0.385754	0.088240	0.086439
	H118	H	0.615801	0.906502	0.090616
	H119	H	0.381846	0.903064	0.913898
	C120	C	0.374981	0.011300	0.624086
	C121	C	0.618398	0.993428	0.621865
	C122	C	0.620536	0.009255	0.378657
	C123	C	0.377712	0.992518	0.381003
	C124	C	0.621504	0.379163	0.008495
	C125	C	0.622798	0.623625	0.992387
	C126	C	0.379059	0.621959	0.009637
	C127	C	0.378268	0.379393	0.992167
	C128	C	0.008255	0.626187	0.375682
	C129	C	0.991434	0.619929	0.619360
	C130	C	0.009462	0.377100	0.623723
	C131	C	0.991640	0.382147	0.380566
	C132	C	0.877310	0.510818	0.122975
	C133	C	0.120624	0.493860	0.121083
	C134	C	0.124049	0.509763	0.876834
	C135	C	0.879862	0.492436	0.879647
	C136	C	0.119411	0.879479	0.509519
	C137	C	0.120058	0.122984	0.492953
	C138	C	0.876417	0.122893	0.509957
	C139	C	0.875815	0.878914	0.492314
	C140	C	0.507711	0.125679	0.876588
	C141	C	0.491680	0.120000	0.120101
	C142	C	0.508777	0.876855	0.125406
	C143	C	0.491078	0.882362	0.881877
	C144	C	0.376120	0.888869	0.683454
	C145	C	0.616433	0.116985	0.673867
	C146	C	0.619309	0.886101	0.326185
	C147	C	0.379817	0.114793	0.321538
	C148	C	0.678673	0.383975	0.885591
	C149	C	0.677162	0.619230	0.115718
	C150	C	0.325195	0.622932	0.886324
	C151	C	0.320466	0.377862	0.114660
	C152	C	0.885116	0.681089	0.378702
	C153	C	0.114211	0.676531	0.615531
	C154	C	0.885925	0.321485	0.623614
	C155	C	0.114492	0.326080	0.381288
	C156	C	0.886908	0.377549	0.682376
	C157	C	0.115037	0.618272	0.672029
	C158	C	0.885312	0.623644	0.321412
	C159	C	0.114823	0.384616	0.323908
	C160	C	0.382019	0.681271	0.887226
	C161	C	0.620190	0.677027	0.115626
	C162	C	0.620692	0.326711	0.885073
	C163	C	0.378254	0.320043	0.114296
	C164	C	0.676325	0.886554	0.383703
	C165	C	0.675559	0.115624	0.618973
	C166	C	0.319973	0.887705	0.625206
	C167	C	0.322611	0.115614	0.380295
	C168	C	0.878648	0.388455	0.181785
	C169	C	0.119548	0.616933	0.173722
	C170	C	0.122787	0.386790	0.823837
	C171	C	0.882986	0.615001	0.821503
	C172	C	0.177790	0.883718	0.387142
	C173	C	0.175031	0.119952	0.615901
	C174	C	0.821443	0.123676	0.387006
	C175	C	0.819846	0.878313	0.615498
	C176	C	0.385489	0.182844	0.879201
	C177	C	0.614750	0.176124	0.117025
	C178	C	0.385961	0.820065	0.125287
	C179	C	0.614709	0.827873	0.882318
	C180	C	0.386040	0.876577	0.183281
	C181	C	0.614554	0.118301	0.175027
	C182	C	0.384638	0.124790	0.822846
	C183	C	0.613661	0.885388	0.823642
	C184	C	0.878629	0.181896	0.387335
	C185	C	0.117822	0.177367	0.615497
	C186	C	0.118461	0.828144	0.385385
	C187	C	0.877192	0.819991	0.614619
	C188	C	0.179685	0.386772	0.881880
	C189	C	0.177391	0.616209	0.117140
	C190	C	0.821818	0.387770	0.123680
	C191	C	0.825242	0.615602	0.879253
	C192	C	0.397749	0.096871	0.599324
	C193	C	0.595390	0.907657	0.601063
	C194	C	0.597827	0.095351	0.399319
	C195	C	0.400111	0.907121	0.405842
	C196	C	0.597714	0.399797	0.094149
	C197	C	0.601526	0.603348	0.906665
	C198	C	0.400547	0.597179	0.095364
	C199	C	0.402390	0.404861	0.906782
	C200	C	0.094426	0.604180	0.397496
	C201	C	0.905593	0.596830	0.598251
	C202	C	0.095059	0.399779	0.599846
	C203	C	0.906249	0.405040	0.404276
	C204	C	0.900065	0.596352	0.098134
	C205	C	0.097664	0.407998	0.100290
	C206	C	0.101657	0.595502	0.897258
	C207	C	0.902169	0.407058	0.904836
	C208	C	0.096060	0.899107	0.595469
	C209	C	0.097957	0.101476	0.407312
	C210	C	0.898421	0.098255	0.595299
	C211	C	0.898944	0.903411	0.406480
	C212	C	0.593635	0.102874	0.897484
	C213	C	0.405809	0.097495	0.098302
	C214	C	0.594288	0.900177	0.101512
	C215	C	0.406115	0.904500	0.905926
	Zn216	Zn	0.497935	0.003854	0.750058
	Zn217	Zn	0.499333	-0.000587	0.250958
	Zn218	Zn	0.750253	0.501373	0.000772
	Zn219	Zn	0.249940	0.501397	0.000401
	Zn220	Zn	-0.001411	0.750805	0.499158
	Zn221	Zn	-0.000698	0.251051	0.501144
	Zn222	Zn	0.001548	0.499940	0.749680
	Zn223	Zn	0.000338	0.503143	0.249739
	Zn224	Zn	0.500171	0.751168	0.002490
	Zn225	Zn	0.499790	0.250975	-0.000435
	Zn226	Zn	0.747205	0.001310	0.501448
	Zn227	Zn	0.248019	0.001054	0.502561
	N228	N	0.409486	0.966666	0.683035
	N229	N	0.581492	0.039937	0.675653
	N230	N	0.585328	0.963405	0.323075
	N231	N	0.413309	0.037071	0.321818
	N232	N	0.679394	0.415985	0.963524
	N233	N	0.679079	0.586787	0.038243
	N234	N	0.323135	0.586766	0.963543
	N235	N	0.320312	0.414000	0.037525
	N236	N	0.962680	0.682807	0.411634
	N237	N	0.036277	0.677728	0.583446
	N238	N	0.963036	0.320985	0.587903
	N239	N	0.036876	0.324407	0.415889
	N240	N	0.964543	0.411426	0.682558
	N241	N	0.037722	0.583754	0.674472
	N242	N	0.962908	0.590368	0.319466
	N243	N	0.037488	0.418715	0.323337
	N244	N	0.414581	0.680773	0.964970
	N245	N	0.586996	0.680028	0.038051
	N246	N	0.585940	0.323535	0.962323
	N247	N	0.413444	0.321146	0.037111
	N248	N	0.677258	0.964335	0.415565
	N249	N	0.676820	0.037768	0.587483
	N250	N	0.319032	0.964804	0.589011
	N251	N	0.321256	0.038738	0.416602
	N252	N	0.912300	0.466035	0.181363
	N253	N	0.084737	0.539928	0.175912
	N254	N	0.088827	0.464089	0.820602
	N255	N	0.916353	0.537613	0.821908
	N256	N	0.178559	0.914934	0.465155
	N257	N	0.176624	0.086758	0.538633
	N258	N	0.820013	0.087409	0.464088
	N259	N	0.818947	0.914415	0.538300
	N260	N	0.462905	0.183270	0.911985
	N261	N	0.537373	0.177329	0.083554
	N262	N	0.463294	0.819931	0.090173
	N263	N	0.537666	0.825914	0.918037
	N264	N	0.463367	0.911171	0.183490
	N265	N	0.537126	0.084060	0.176826
	N266	N	0.461766	0.089994	0.821036
	N267	N	0.535892	0.918515	0.822878
	N268	N	0.911978	0.181718	0.464749
	N269	N	0.084246	0.179236	0.538143
	N270	N	0.082813	0.825247	0.462432
	N271	N	0.911216	0.820415	0.536994
	N272	N	0.180466	0.464268	0.914274
	N273	N	0.178133	0.538603	0.084975
	N274	N	0.820625	0.464913	0.087967
	N275	N	0.823165	0.538210	0.914887
	O276	O	0.491594	0.437366	0.526477
	H277	H	0.494099	0.445902	0.523156
	H278	H	0.483725	0.435518	0.521944
	O279	O	0.549592	0.508783	0.610190
	H280	H	0.558998	0.513062	0.608742
	H281	H	0.539239	0.510445	0.606931
	O282	O	1.083126	1.029308	-0.021639
	H283	H	1.083375	1.041368	-0.021676
	H284	H	1.090272	1.017257	-0.015242
	O285	O	0.985510	0.038261	1.007937
	H286	H	1.000809	0.022916	1.003474
	H287	H	0.966876	0.033841	1.018666
	O288	O	0.531446	0.555747	0.529001
	H289	H	0.529196	0.557954	0.528993
	H290	H	0.519682	0.541889	0.525830
	O291	O	0.491231	0.548532	0.480445
	H292	H	0.495291	0.551740	0.479859
	H293	H	0.501474	0.547083	0.469513
	O294	O	0.564735	0.499603	0.426263
	H295	H	0.564319	0.503681	0.426012
	H296	H	0.564886	0.496455	0.418097
	O297	O	0.528596	0.509107	0.482484
	H298	H	0.541068	0.508270	0.475115
	H299	H	0.527057	0.518212	0.482962
	O300	O	1.002060	-0.045747	1.017752
	H301	H	1.007436	-0.040202	1.026749
	H302	H	1.002367	-0.057802	1.010791
	O303	O	1.113176	0.895766	-0.028867
	H304	H	1.116651	0.883424	-0.016085
	H305	H	1.108625	0.904067	-0.031609
	O306	O	-0.037255	1.006926	0.990546
	H307	H	-0.037337	0.999489	0.976924
	H308	H	-0.057883	1.018815	0.981034
	O309	O	0.486719	0.489494	0.362694
	H310	H	0.484119	0.483044	0.360779
	H311	H	0.476716	0.498560	0.367738
	O312	O	-0.054803	0.001828	-0.053338
	H313	H	-0.050398	-0.001310	-0.043238
	H314	H	-0.052008	0.005519	-0.052134
	O315	O	0.977105	0.036712	0.005067
	H316	H	0.973854	0.042446	-0.005204
	H317	H	0.963230	0.042251	0.005460
	O318	O	0.945764	1.030780	0.985627
	H319	H	0.953604	1.028649	0.982601
	H320	H	0.948038	1.033036	0.980706
	O321	O	-0.467716	-0.543809	0.451755
	H322	H	-0.461880	-0.547995	0.444867
	H323	H	-0.476768	-0.561089	0.451654
	O324	O	0.428835	0.531907	0.499034
	H325	H	0.437316	0.530861	0.503125
	H326	H	0.431166	0.536460	0.509725
	O327	O	-0.431636	-0.608342	0.482208
	H328	H	-0.434701	-0.604163	0.484920
	H329	H	-0.436017	-0.610415	0.491404
	O330	O	0.413127	0.462286	0.435543
	H331	H	0.423588	0.456652	0.441460
	H332	H	0.404928	0.468366	0.438973
	O333	O	-0.099538	0.919893	1.117354
	H334	H	-0.114775	0.926650	1.116145
	H335	H	-0.108268	0.920089	1.122185
	O336	O	-0.034883	-0.037966	-0.023307
	H337	H	-0.019999	-0.029849	-0.017961
	H338	H	-0.034079	-0.032135	-0.024334
	O339	O	0.042927	1.046102	0.864217
	H340	H	0.039423	1.040464	0.847728
	H341	H	0.046032	1.056786	0.862471
	O342	O	0.925033	1.014693	0.971379
	H343	H	0.925340	1.013533	0.964463
	H344	H	0.922398	1.025583	0.965749
	O345	O	0.989513	0.912490	0.000234
	H346	H	0.991412	0.905130	0.013635
	H347	H	0.990536	0.910715	0.015459
	O348	O	0.528225	0.402048	0.591775
	H349	H	0.522260	0.390805	0.584898
	H350	H	0.534781	0.393486	0.608176
	O351	O	0.478390	0.468049	0.536506
	H352	H	0.475958	0.473539	0.534742
	H353	H	0.469207	0.464678	0.549640
	O354	O	0.572085	0.534300	0.557735
	H355	H	0.584130	0.544099	0.549904
	H356	H	0.570531	0.540063	0.559153
	O357	O	1.140173	-0.034775	1.148161
	H358	H	1.132675	-0.026760	1.146345
	H359	H	1.145269	-0.027174	1.161134
	O360	O	0.451704	0.575674	0.467253
	H361	H	0.452266	0.576853	0.459808
	H362	H	0.453693	0.578006	0.463038
	O363	O	0.992814	1.134172	-0.110477
	H364	H	0.992226	1.125756	-0.120191
	H365	H	1.002108	1.139567	-0.111685
	O366	O	0.878847	1.033343	1.103916
	H367	H	0.881039	1.016126	1.105930
	H368	H	0.873005	1.042117	1.095873
	O369	O	1.092464	0.017590	1.061990
	H370	H	1.088957	0.019391	1.069700
	H371	H	1.094369	0.013300	1.056268
	O372	O	0.054161	-0.066569	0.043776
	H373	H	0.043382	-0.057767	0.049965
	H374	H	0.054911	-0.076049	0.041601
	O375	O	1.024902	0.054299	-0.154248
	H376	H	1.022283	0.040056	-0.161042
	H377	H	1.043836	0.043794	-0.167993
	O378	O	0.577989	0.463055	0.462978
	H379	H	0.583700	0.451254	0.454343
	H380	H	0.569621	0.455831	0.455846
	O381	O	0.463385	0.598522	0.482493
	H382	H	0.467816	0.603113	0.492214
	H383	H	0.465957	0.600339	0.487256
