data_Molecule from HDF5

_cell_length_a		16.640745
_cell_length_b		16.658619
_cell_length_c		16.681819
_cell_angle_alpha	89.935549
_cell_angle_beta	90.066501
_cell_angle_gamma	89.943223
_symmetry_space_group_name_H-M	'P 1'
_symmetry_Int_Tables_number		1

loop_
	_symmetry_equiv_pos_as_xyz
	x,y,z

loop_
	_atom_site_label
	_atom_site_type_symbol
	_atom_site_fract_x
	_atom_site_fract_y
	_atom_site_fract_z
	H0	H	0.400358	0.832278	0.732887
	H1	H	0.608545	0.143319	0.731522
	H2	H	0.612849	0.834916	0.288962
	H3	H	0.394396	0.139704	0.286418
	H4	H	0.728786	0.379019	0.857787
	H5	H	0.725567	0.589977	0.166457
	H6	H	0.285133	0.591397	0.855969
	H7	H	0.284420	0.381120	0.166919
	H8	H	0.851366	0.709769	0.403854
	H9	H	0.160441	0.708770	0.615588
	H10	H	0.849210	0.267921	0.616346
	H11	H	0.159907	0.265719	0.407342
	H12	H	0.850548	0.382626	0.732862
	H13	H	0.160849	0.592438	0.731962
	H14	H	0.851231	0.593807	0.288951
	H15	H	0.159854	0.381585	0.291077
	H16	H	0.401576	0.707132	0.856192
	H17	H	0.611123	0.706823	0.166560
	H18	H	0.612586	0.263352	0.857526
	H19	H	0.399304	0.265200	0.166296
	H20	H	0.726551	0.834436	0.406807
	H21	H	0.724428	0.143788	0.615190
	H22	H	0.282566	0.833146	0.618408
	H23	H	0.281891	0.141475	0.405090
	H24	H	0.901996	0.331077	0.230721
	H25	H	0.107956	0.642430	0.229561
	H26	H	0.109272	0.331173	0.792278
	H27	H	0.898160	0.641553	0.788587
	H28	H	0.228083	0.880452	0.358909
	H29	H	0.225297	0.091861	0.667002
	H30	H	0.784291	0.090546	0.356713
	H31	H	0.783949	0.882109	0.667046
	H32	H	0.349420	0.206723	0.908435
	H33	H	0.658899	0.207804	0.117641
	H34	H	0.350576	0.765079	0.117540
	H35	H	0.661110	0.769233	0.909288
	H36	H	0.350836	0.880107	0.233999
	H37	H	0.658095	0.091461	0.234136
	H38	H	0.349617	0.092703	0.790758
	H39	H	0.661492	0.884465	0.793363
	H40	H	0.900478	0.207427	0.356423
	H41	H	0.108526	0.207021	0.667797
	H42	H	0.111202	0.765503	0.357823
	H43	H	0.897627	0.764211	0.665086
	H44	H	0.225191	0.331266	0.908765
	H45	H	0.223386	0.643424	0.113340
	H46	H	0.784615	0.331518	0.115424
	H47	H	0.782516	0.641369	0.904739
	H48	H	0.413087	0.098478	0.598664
	H49	H	0.600380	0.874283	0.600932
	H50	H	0.589425	0.096993	0.426609
	H51	H	0.417658	0.875710	0.422313
	H52	H	0.594625	0.397581	0.121545
	H53	H	0.589853	0.576323	0.902063
	H54	H	0.409841	0.576867	0.124481
	H55	H	0.421288	0.398263	0.902840
	H56	H	0.117392	0.581182	0.427722
	H57	H	0.893897	0.574789	0.602128
	H58	H	0.114849	0.399501	0.596676
	H59	H	0.894840	0.401730	0.422085
	H60	H	0.116834	0.399574	0.605246
	H61	H	0.893844	0.578382	0.598032
	H62	H	0.113889	0.569511	0.422910
	H63	H	0.891318	0.396912	0.416813
	H64	H	0.416825	0.572822	0.121517
	H65	H	0.595163	0.581942	0.898475
	H66	H	0.594017	0.399069	0.120646
	H67	H	0.414128	0.392170	0.898376
	H68	H	0.596574	0.101088	0.423941
	H69	H	0.594501	0.873786	0.608537
	H70	H	0.415167	0.100195	0.604068
	H71	H	0.420003	0.878850	0.426130
	H72	H	0.914602	0.598872	0.101815
	H73	H	0.098885	0.374418	0.101576
	H74	H	0.098180	0.598465	0.922644
	H75	H	0.922339	0.377298	0.919089
	H76	H	0.091638	0.902936	0.620944
	H77	H	0.091388	0.080078	0.400828
	H78	H	0.916489	0.080444	0.623510
	H79	H	0.910407	0.902375	0.400065
	H80	H	0.616243	0.075059	0.921105
	H81	H	0.392372	0.075717	0.103803
	H82	H	0.617627	0.893660	0.100603
	H83	H	0.392922	0.897647	0.924231
	H84	H	0.613826	0.900444	0.097420
	H85	H	0.392720	0.079420	0.096566
	H86	H	0.617545	0.077119	0.921016
	H87	H	0.392935	0.898743	0.919647
	H88	H	0.911808	0.078575	0.625272
	H89	H	0.097029	0.076932	0.399026
	H90	H	0.089455	0.896659	0.622199
	H91	H	0.920435	0.902366	0.403820
	H92	H	0.095159	0.600628	0.918641
	H93	H	0.094502	0.374031	0.104572
	H94	H	0.917761	0.597888	0.100082
	H95	H	0.918568	0.378381	0.927870
	H96	H	0.418802	0.097651	0.600098
	H97	H	0.591399	0.877240	0.600337
	H98	H	0.589892	0.099477	0.419036
	H99	H	0.414731	0.877889	0.426789
	H100	H	0.592483	0.397929	0.121262
	H101	H	0.598167	0.573523	0.899924
	H102	H	0.417376	0.581172	0.124471
	H103	H	0.411857	0.402315	0.900080
	H104	H	0.119675	0.578375	0.415417
	H105	H	0.896389	0.573104	0.597153
	H106	H	0.117637	0.392870	0.600608
	H107	H	0.892522	0.394013	0.424241
	H108	H	0.914384	0.598028	0.098258
	H109	H	0.093996	0.375878	0.099575
	H110	H	0.092812	0.597682	0.922794
	H111	H	0.913252	0.374354	0.921281
	H112	H	0.095554	0.898757	0.623267
	H113	H	0.092437	0.073864	0.402526
	H114	H	0.915223	0.074931	0.622742
	H115	H	0.916607	0.893382	0.399782
	H116	H	0.616636	0.076086	0.923373
	H117	H	0.395127	0.071690	0.097379
	H118	H	0.617213	0.900471	0.105162
	H119	H	0.391758	0.894367	0.921051
	C120	C	0.383531	-0.003770	0.633439
	C121	C	0.626611	0.978688	0.633985
	C122	C	0.625194	-0.003016	0.390752
	C123	C	0.383238	0.978738	0.390918
	C124	C	0.626382	0.365357	0.019536
	C125	C	0.626424	0.607970	1.003080
	C126	C	0.383773	0.608491	0.020394
	C127	C	0.383599	0.365194	1.003138
	C128	C	0.014540	0.608777	0.389529
	C129	C	0.997102	0.608119	0.631954
	C130	C	0.013893	0.365791	0.632969
	C131	C	0.996131	0.365560	0.390066
	C132	C	0.884329	0.495151	0.131838
	C133	C	0.126933	0.478167	0.132769
	C134	C	0.126636	0.495694	0.890369
	C135	C	0.884633	0.478980	0.890176
	C136	C	0.125629	0.866518	0.520425
	C137	C	0.125738	0.108840	0.503617
	C138	C	0.883009	0.108988	0.520670
	C139	C	0.882936	0.866448	0.503307
	C140	C	0.513688	0.108262	0.890362
	C141	C	0.495539	0.107953	0.132428
	C142	C	0.513701	0.865485	0.133263
	C143	C	0.496152	0.866054	0.890794
	C144	C	0.381351	0.879282	0.693484
	C145	C	0.627503	0.096353	0.692250
	C146	C	0.629859	0.881135	0.329687
	C147	C	0.378031	0.093895	0.328192
	C148	C	0.687734	0.361744	0.903879
	C149	C	0.686140	0.608731	0.119658
	C150	C	0.325144	0.609660	0.902749
	C151	C	0.324203	0.363273	0.119966
	C152	C	0.898034	0.669293	0.386250
	C153	C	0.114038	0.668137	0.633904
	C154	C	0.896345	0.307296	0.634660
	C155	C	0.113101	0.305722	0.388737
	C156	C	0.896975	0.364536	0.692528
	C157	C	0.114256	0.610531	0.691717
	C158	C	0.897985	0.611466	0.328917
	C159	C	0.113101	0.363184	0.330970
	C160	C	0.382988	0.667172	0.902873
	C161	C	0.628839	0.666820	0.119881
	C162	C	0.630269	0.304023	0.903784
	C163	C	0.381302	0.305229	0.119753
	C164	C	0.686367	0.880838	0.388313
	C165	C	0.685019	0.096638	0.634480
	C166	C	0.323073	0.879684	0.636414
	C167	C	0.321929	0.094876	0.387132
	C168	C	0.883209	0.377732	0.190808
	C169	C	0.127169	0.595696	0.190511
	C170	C	0.127922	0.378198	0.831886
	C171	C	0.880782	0.595186	0.829173
	C172	C	0.187080	0.862908	0.404843
	C173	C	0.185372	0.110335	0.620381
	C174	C	0.824093	0.110049	0.403177
	C175	C	0.823050	0.863677	0.619703
	C176	C	0.396195	0.167307	0.889227
	C177	C	0.612433	0.167776	0.135849
	C178	C	0.397071	0.805130	0.135864
	C179	C	0.614062	0.807826	0.890128
	C180	C	0.397331	0.862260	0.193690
	C181	C	0.612008	0.109884	0.193431
	C182	C	0.396342	0.110292	0.831117
	C183	C	0.614032	0.865552	0.832643
	C184	C	0.881652	0.167863	0.403096
	C185	C	0.127043	0.167485	0.620895
	C186	C	0.129250	0.805584	0.404437
	C187	C	0.879699	0.804917	0.618791
	C188	C	0.185458	0.378011	0.889876
	C189	C	0.184725	0.596108	0.132848
	C190	C	0.825235	0.377813	0.133446
	C191	C	0.823155	0.594938	0.886739
	C192	C	0.408711	0.077591	0.608051
	C193	C	0.602476	0.896517	0.609986
	C194	C	0.599260	0.078056	0.416107
	C195	C	0.409927	0.898519	0.417621
	C196	C	0.600840	0.390885	0.100130
	C197	C	0.601432	0.583907	0.921406
	C198	C	0.407718	0.584035	0.102117
	C199	C	0.408755	0.390335	0.921470
	C200	C	0.095755	0.583684	0.414922
	C201	C	0.915849	0.582634	0.606444
	C202	C	0.095379	0.390476	0.607978
	C203	C	0.914138	0.390627	0.414311
	C204	C	0.908619	0.576850	0.107193
	C205	C	0.102810	0.396085	0.108685
	C206	C	0.102186	0.577703	0.914374
	C207	C	0.910690	0.397750	0.915615
	C208	C	0.099571	0.892256	0.601185
	C209	C	0.100737	0.084094	0.421950
	C210	C	0.907396	0.084930	0.602378
	C211	C	0.908363	0.892055	0.422233
	C212	C	0.595422	0.083327	0.914826
	C213	C	0.414570	0.082809	0.106543
	C214	C	0.595192	0.890883	0.108079
	C215	C	0.413995	0.889974	0.914931
	Zn216	Zn	0.504661	-0.012788	0.761877
	Zn217	Zn	0.503907	-0.012999	0.261586
	Zn218	Zn	0.755353	0.486620	0.010576
	Zn219	Zn	0.255313	0.486825	0.011694
	Zn220	Zn	0.005017	0.737368	0.511312
	Zn221	Zn	0.004118	0.237527	0.511776
	Zn222	Zn	0.005612	0.487766	0.761048
	Zn223	Zn	0.005148	0.486923	0.261342
	Zn224	Zn	0.505050	0.737444	0.012098
	Zn225	Zn	0.505609	0.236797	0.011508
	Zn226	Zn	0.754153	-0.011963	0.511997
	Zn227	Zn	0.254816	-0.012784	0.512236
	N228	N	0.418453	0.952871	0.691653
	N229	N	0.592091	0.021870	0.692322
	N230	N	0.592280	0.954457	0.330995
	N231	N	0.415504	0.020569	0.330160
	N232	N	0.685648	0.399291	0.976774
	N233	N	0.684968	0.572928	0.045741
	N234	N	0.325297	0.573784	0.976846
	N235	N	0.325665	0.400017	0.046451
	N236	N	0.971479	0.667934	0.423442
	N237	N	0.040088	0.666857	0.597507
	N238	N	0.970148	0.307752	0.598240
	N239	N	0.039097	0.306961	0.424713
	N240	N	0.971200	0.400178	0.691683
	N241	N	0.040412	0.573930	0.690702
	N242	N	0.971610	0.574676	0.330434
	N243	N	0.039238	0.399956	0.331669
	N244	N	0.418785	0.666777	0.977048
	N245	N	0.592579	0.666804	0.046038
	N246	N	0.592590	0.306025	0.976711
	N247	N	0.417727	0.306177	0.045812
	N248	N	0.683793	0.954028	0.425580
	N249	N	0.684765	0.022240	0.599116
	N250	N	0.324320	0.953396	0.599800
	N251	N	0.324851	0.022214	0.425508
	N252	N	0.919343	0.451797	0.189991
	N253	N	0.092203	0.521137	0.190866
	N254	N	0.092312	0.452488	0.831730
	N255	N	0.918421	0.521806	0.831038
	N256	N	0.185018	0.900184	0.478007
	N257	N	0.184778	0.074625	0.546266
	N258	N	0.824722	0.074282	0.477322
	N259	N	0.824628	0.901003	0.546509
	N260	N	0.470298	0.166315	0.925436
	N261	N	0.538891	0.166844	0.098776
	N262	N	0.470725	0.806841	0.099207
	N263	N	0.539502	0.807796	0.925514
	N264	N	0.470962	0.899188	0.192379
	N265	N	0.538233	0.073624	0.191683
	N266	N	0.470607	0.074631	0.831339
	N267	N	0.539544	0.900833	0.832480
	N268	N	0.917402	0.167597	0.477252
	N269	N	0.090834	0.167022	0.546997
	N270	N	0.091537	0.807727	0.477432
	N271	N	0.916140	0.806032	0.545086
	N272	N	0.185050	0.452313	0.925306
	N273	N	0.185068	0.521607	0.097948
	N274	N	0.825636	0.451832	0.097555
	N275	N	0.825469	0.521651	0.923999
	O276	O	-0.297115	1.446358	0.316109
	H277	H	-0.293005	1.408316	0.322423
	H278	H	-0.282898	1.443068	0.286044
	O279	O	-0.118683	0.172461	0.139100
	H280	H	-0.123386	0.164301	0.128058
	H281	H	-0.115158	0.163989	0.113219
	O282	O	0.795468	1.121653	0.154135
	H283	H	0.807594	1.105012	0.120324
	H284	H	0.803891	1.116332	0.144647
	O285	O	0.714144	0.536591	0.405078
	H286	H	0.729675	0.511196	0.380215
	H287	H	0.708355	0.514162	0.426254
	O288	O	0.725138	0.430813	0.600444
	H289	H	0.718507	0.432747	0.609892
	H290	H	0.727634	0.432509	0.588167
	O291	O	0.799817	0.201704	0.980122
	H292	H	0.789137	0.205700	0.962436
	H293	H	0.792657	0.201311	0.949280
	O294	O	0.386252	-0.406708	0.719235
	H295	H	0.391172	-0.404069	0.700986
	H296	H	0.380668	-0.427635	0.722210
	O297	O	0.444916	0.527823	0.504759
	H298	H	0.445524	0.539757	0.514951
	H299	H	0.444850	0.527819	0.513216
	O300	O	0.221308	0.012294	1.233708
	H301	H	0.225370	0.042966	1.232083
	H302	H	0.238880	0.015499	1.242996
	O303	O	0.478782	0.687234	0.305858
	H304	H	0.479370	0.695663	0.294609
	H305	H	0.485890	0.684579	0.320671
	O306	O	1.111756	1.080677	0.135705
	H307	H	1.102708	1.067499	0.141078
	H308	H	1.124945	1.096466	0.136429
	O309	O	-0.063200	0.938184	0.084932
	H310	H	-0.062617	0.935402	0.086238
	H311	H	-0.064588	0.934029	0.097437
	O312	O	0.569738	0.435182	0.350878
	H313	H	0.565700	0.431511	0.353741
	H314	H	0.573064	0.436839	0.339208
	O315	O	1.038286	1.195133	1.228855
	H316	H	1.024876	1.208284	1.246840
	H317	H	1.024913	1.184418	1.218828
	O318	O	0.285608	0.701129	0.295277
	H319	H	0.305155	0.685327	0.314513
	H320	H	0.302917	0.672411	0.297007
	O321	O	0.282791	0.708895	0.736417
	H322	H	0.277276	0.695858	0.739158
	H323	H	0.279657	0.699445	0.735734
	O324	O	1.219589	0.772969	-0.129560
	H325	H	1.227987	0.788602	-0.133287
	H326	H	1.210234	0.768489	-0.109119
	O327	O	-0.459990	0.548719	0.464187
	H328	H	-0.446915	0.541036	0.471346
	H329	H	-0.466805	0.549082	0.459382
	O330	O	0.716951	0.276134	0.302191
	H331	H	0.739856	0.246472	0.283967
	H332	H	0.691561	0.269549	0.296316
	O333	O	0.826572	0.869213	-0.043204
	H334	H	0.817383	0.863134	-0.033652
	H335	H	0.840875	0.853260	-0.041418
	O336	O	1.196847	0.156070	-0.177689
	H337	H	1.177581	0.148453	-0.151697
	H338	H	1.189090	0.125138	-0.164687
	O339	O	1.451628	0.280837	1.344475
	H340	H	1.457297	0.286650	1.356417
	H341	H	1.441199	0.264044	1.330898
	O342	O	-0.203387	-0.218082	0.216196
	H343	H	-0.170142	-0.216220	0.213601
	H344	H	-0.234268	-0.250428	0.249874
	O345	O	-0.458658	1.340126	1.350356
	H346	H	-0.461616	1.333395	1.340541
	H347	H	-0.459803	1.335203	1.342105
	O348	O	-0.207545	0.012149	-0.164982
	H349	H	-0.211343	-0.008915	-0.166621
	H350	H	-0.214329	-0.004709	-0.179305
	O351	O	0.996481	0.772921	0.023472
	H352	H	0.982013	0.769057	0.016517
	H353	H	0.996178	0.783932	0.035586
	O354	O	-0.030443	0.028916	1.237014
	H355	H	-0.018543	0.008167	1.241572
	H356	H	-0.039098	0.028687	1.236790
	O357	O	0.284405	0.494509	0.538540
	H358	H	0.281218	0.498135	0.549812
	H359	H	0.289319	0.493085	0.532263
	O360	O	0.457858	0.492849	0.378946
	H361	H	0.458144	0.479912	0.382229
	H362	H	0.464010	0.472123	0.378661
	O363	O	0.128917	-0.179884	0.058834
	H364	H	0.123691	-0.190557	0.050799
	H365	H	0.126558	-0.186811	0.080978
	O366	O	0.726631	0.709967	0.537829
	H367	H	0.738230	0.696881	0.535930
	H368	H	0.747543	0.724557	0.550312
	O369	O	1.076751	0.010714	-0.161525
	H370	H	1.073950	0.009381	-0.166110
	H371	H	1.065873	0.024334	-0.158617
	O372	O	0.711864	1.519828	0.692340
	H373	H	0.713049	1.525161	0.703179
	H374	H	0.718435	1.528106	0.690391
	O375	O	0.755845	-0.253126	-0.231930
	H376	H	0.731589	-0.273048	-0.241443
	H377	H	0.775976	-0.251073	-0.215649
	O378	O	0.517260	0.569365	0.298300
	H379	H	0.516888	0.560829	0.314484
	H380	H	0.519390	0.578446	0.293072
	O381	O	0.217798	0.972560	0.830281
	H382	H	0.235486	0.962287	0.809637
	H383	H	0.201391	0.953199	0.832123
	O384	O	1.005568	0.182450	1.080069
	H385	H	0.983837	0.191617	1.075970
	H386	H	1.012190	0.181102	1.082076
	O387	O	1.067621	1.200108	-0.059852
	H388	H	1.060324	1.195641	-0.047316
	H389	H	1.053100	1.199885	-0.071102
	O390	O	-0.031086	-0.042066	-0.087196
	H391	H	-0.027282	-0.051291	-0.073506
	H392	H	-0.038915	-0.044994	-0.087689
	O393	O	0.393035	0.296629	0.512172
	H394	H	0.395681	0.283036	0.518635
	H395	H	0.395972	0.300814	0.510036
	O396	O	-0.131642	1.021753	0.897118
	H397	H	-0.121924	1.007132	0.895929
	H398	H	-0.138154	1.011008	0.889172
	O399	O	0.258721	0.236781	1.260523
	H400	H	0.225180	0.229411	1.265266
	H401	H	0.264361	0.247593	1.234814
	O402	O	0.793073	0.957829	0.228266
	H403	H	0.785229	0.935837	0.229184
	H404	H	0.773685	0.944780	0.229244
	O405	O	0.973401	-0.231982	1.232631
	H406	H	0.979658	-0.232561	1.236668
	H407	H	0.970445	-0.236762	1.250054
	O408	O	0.130104	-0.149301	-0.013522
	H409	H	0.138161	-0.148808	-0.003102
	H410	H	0.134843	-0.149506	-0.000155
	O411	O	0.346088	0.543581	0.546426
	H412	H	0.332930	0.552162	0.535874
	H413	H	0.349523	0.542522	0.542635
	O414	O	0.694285	0.298362	0.702534
	H415	H	0.685103	0.301728	0.714405
	H416	H	0.692476	0.319692	0.677373
	O417	O	0.513881	0.357041	0.641285
	H418	H	0.529537	0.352272	0.643508
	H419	H	0.505871	0.345798	0.653132
	O420	O	0.281789	0.316226	0.516656
	H421	H	0.285779	0.312036	0.504025
	H422	H	0.268750	0.305888	0.521804
	O423	O	0.032809	-0.232346	0.785853
	H424	H	0.044415	-0.231360	0.804424
	H425	H	0.042843	-0.254912	0.761881
	O426	O	0.797921	0.197049	0.798712
	H427	H	0.795250	0.150871	0.797450
	H428	H	0.786600	0.212122	0.780636
	O429	O	0.556698	0.694913	0.499090
	H430	H	0.574088	0.702800	0.514257
	H431	H	0.546272	0.692469	0.505128
	O432	O	0.327653	0.701836	0.447808
	H433	H	0.320685	0.703720	0.444451
	H434	H	0.335793	0.698998	0.434861
	O435	O	0.546704	0.311841	0.571434
	H436	H	0.566632	0.307911	0.569885
	H437	H	0.550312	0.308507	0.574711
	O438	O	-0.673331	0.505486	0.316913
	H439	H	-0.696934	0.498580	0.292227
	H440	H	-0.654166	0.494176	0.325371
	O441	O	0.188879	0.805952	0.198113
	H442	H	0.182968	0.813820	0.190673
	H443	H	0.211433	0.774386	0.226249
	O444	O	0.543417	0.707570	0.731067
	H445	H	0.538901	0.706693	0.741341
	H446	H	0.529582	0.716689	0.738467
	O447	O	0.006557	0.937569	0.835989
	H448	H	0.010434	0.953262	0.844748
	H449	H	0.018597	0.919536	0.834923
	O450	O	0.188367	0.919163	1.007240
	H451	H	0.169440	0.928733	1.018337
	H452	H	0.197066	0.906745	1.011355
	O453	O	0.585802	0.481931	0.532276
	H454	H	0.567935	0.472521	0.543545
	H455	H	0.577846	0.487169	0.539455
	O456	O	0.162680	0.014230	0.967444
	H457	H	0.160679	-0.000300	0.959321
	H458	H	0.168154	0.004295	0.983118
	O459	O	0.794229	0.948834	-0.028212
	H460	H	0.807979	0.947342	-0.025480
	H461	H	0.796342	0.959679	-0.018981
	O462	O	0.282706	0.451975	0.736830
	H463	H	0.271757	0.442953	0.746797
	H464	H	0.269410	0.424506	0.746803
	O465	O	0.805995	-0.235046	0.032724
	H466	H	0.797029	-0.249540	0.049841
	H467	H	0.798960	-0.248955	0.050068
	O468	O	0.700345	0.685229	0.318229
	H469	H	0.696766	0.652582	0.341253
	H470	H	0.667231	0.679426	0.332625
	O471	O	0.677796	0.259006	0.507765
	H472	H	0.676790	0.267151	0.483288
	H473	H	0.703543	0.239461	0.507637
	O474	O	0.501017	0.488000	0.738128
	H475	H	0.488979	0.475867	0.737883
	H476	H	0.503984	0.481948	0.743214
	O477	O	0.308380	0.402727	1.399823
	H478	H	0.324949	0.401205	1.415777
	H479	H	0.286898	0.378834	1.376773
	O480	O	0.298105	0.279795	0.721404
	H481	H	0.270709	0.259350	0.741127
	H482	H	0.304831	0.275708	0.694265
	O483	O	0.468909	0.267621	0.733983
	H484	H	0.445220	0.266052	0.722940
	H485	H	0.465289	0.245680	0.758356
	O486	O	0.720889	-0.475100	0.597607
	H487	H	0.719686	-0.466328	0.586892
	H488	H	0.716082	-0.482955	0.596863
	O489	O	1.218659	1.198528	0.043701
	H490	H	1.225081	1.193380	0.035008
	H491	H	1.227282	1.204466	0.032019
	O492	O	0.043529	-0.080003	0.232887
	H493	H	0.053834	-0.063466	0.236609
	H494	H	0.062592	-0.079760	0.236111
	O495	O	-0.002730	1.207765	0.794298
	H496	H	-0.013138	1.217006	0.791681
	H497	H	-0.018638	1.217436	0.779657
	O498	O	1.004155	1.037399	0.815686
	H499	H	1.010098	1.030569	0.810616
	H500	H	0.991449	1.045897	0.823111
	O501	O	0.474156	0.716979	0.556078
	H502	H	0.466459	0.716648	0.547904
	H503	H	0.465184	0.712523	0.560691
