data_Molecule from HDF5

_cell_length_a		16.544651
_cell_length_b		16.412365
_cell_length_c		16.436226
_cell_angle_alpha	89.857152
_cell_angle_beta	89.890775
_cell_angle_gamma	90.048946
_symmetry_space_group_name_H-M	'P 1'
_symmetry_Int_Tables_number		1

loop_
	_symmetry_equiv_pos_as_xyz
	x,y,z

loop_
	_atom_site_label
	_atom_site_type_symbol
	_atom_site_fract_x
	_atom_site_fract_y
	_atom_site_fract_z
	H0	H	0.400528	0.854088	0.729722
	H1	H	0.612028	0.169821	0.727627
	H2	H	0.611602	0.853358	0.284765
	H3	H	0.402313	0.171763	0.287234
	H4	H	0.729449	0.404860	0.851562
	H5	H	0.729216	0.619416	0.166029
	H6	H	0.285758	0.618727	0.850105
	H7	H	0.284189	0.406820	0.166098
	H8	H	0.848523	0.734795	0.400961
	H9	H	0.163459	0.732751	0.612147
	H10	H	0.848787	0.289157	0.611860
	H11	H	0.161630	0.286517	0.398709
	H12	H	0.849272	0.406159	0.728840
	H13	H	0.163861	0.615478	0.727390
	H14	H	0.847648	0.617290	0.285793
	H15	H	0.161662	0.404353	0.282687
	H16	H	0.402088	0.734167	0.850709
	H17	H	0.612982	0.735063	0.166346
	H18	H	0.609687	0.292784	0.849979
	H19	H	0.403515	0.294180	0.168090
	H20	H	0.728504	0.852646	0.399302
	H21	H	0.728483	0.168394	0.611968
	H22	H	0.284124	0.853880	0.614222
	H23	H	0.283483	0.170468	0.400439
	H24	H	0.900282	0.353933	0.229039
	H25	H	0.111372	0.670344	0.228922
	H26	H	0.106824	0.351983	0.789571
	H27	H	0.901910	0.671743	0.786365
	H28	H	0.227609	0.905533	0.349170
	H29	H	0.228209	0.118504	0.664016
	H30	H	0.784247	0.116649	0.349271
	H31	H	0.781529	0.901102	0.664409
	H32	H	0.348287	0.232835	0.903743
	H33	H	0.665276	0.232277	0.110489
	H34	H	0.348391	0.790264	0.114331
	H35	H	0.663519	0.790087	0.902044
	H36	H	0.348534	0.906937	0.229887
	H37	H	0.664861	0.116121	0.228026
	H38	H	0.349377	0.118319	0.785388
	H39	H	0.662616	0.904998	0.783792
	H40	H	0.900272	0.233241	0.349641
	H41	H	0.109723	0.231441	0.664787
	H42	H	0.107533	0.792970	0.347858
	H43	H	0.901617	0.790571	0.666976
	H44	H	0.226383	0.353491	0.902589
	H45	H	0.227814	0.670190	0.113778
	H46	H	0.784947	0.353778	0.112907
	H47	H	0.783629	0.671237	0.900509
	H48	H	0.413311	0.126195	0.596702
	H49	H	0.595844	0.895084	0.601419
	H50	H	0.597725	0.123325	0.423460
	H51	H	0.413704	0.898659	0.419748
	H52	H	0.592477	0.424422	0.120685
	H53	H	0.590593	0.597198	0.899359
	H54	H	0.414510	0.597115	0.121377
	H55	H	0.418405	0.427227	0.897190
	H56	H	0.120014	0.603803	0.411738
	H57	H	0.890650	0.610293	0.596261
	H58	H	0.117304	0.418483	0.587627
	H59	H	0.891622	0.421561	0.412192
	H60	H	0.116351	0.430573	0.600451
	H61	H	0.897319	0.596404	0.589348
	H62	H	0.116422	0.605309	0.423541
	H63	H	0.894696	0.417550	0.425021
	H64	H	0.418947	0.600110	0.120322
	H65	H	0.592728	0.605024	0.895145
	H66	H	0.595471	0.421709	0.122696
	H67	H	0.418505	0.418404	0.893351
	H68	H	0.597118	0.124619	0.416544
	H69	H	0.586437	0.900381	0.596122
	H70	H	0.418567	0.125185	0.598330
	H71	H	0.417049	0.898757	0.416202
	H72	H	0.915761	0.627780	0.102870
	H73	H	0.097106	0.399103	0.095192
	H74	H	0.101999	0.628547	0.914849
	H75	H	0.919175	0.397478	0.909421
	H76	H	0.093837	0.921457	0.620434
	H77	H	0.091668	0.102545	0.393877
	H78	H	0.920476	0.101046	0.619904
	H79	H	0.912831	0.929972	0.395499
	H80	H	0.621970	0.098228	0.905721
	H81	H	0.394765	0.101019	0.097816
	H82	H	0.616647	0.922015	0.091295
	H83	H	0.393091	0.921677	0.918150
	H84	H	0.616212	0.929984	0.097427
	H85	H	0.392910	0.103137	0.100595
	H86	H	0.621750	0.114752	0.921823
	H87	H	0.395385	0.922605	0.923248
	H88	H	0.913247	0.098547	0.621423
	H89	H	0.099417	0.100012	0.392112
	H90	H	0.097328	0.921235	0.620381
	H91	H	0.924330	0.922265	0.397391
	H92	H	0.091670	0.625237	0.913717
	H93	H	0.092593	0.399427	0.097432
	H94	H	0.925577	0.621351	0.092489
	H95	H	0.922541	0.404473	0.925191
	H96	H	0.417213	0.123843	0.592543
	H97	H	0.596669	0.899569	0.590089
	H98	H	0.591566	0.121609	0.420054
	H99	H	0.418100	0.900474	0.420257
	H100	H	0.596479	0.425792	0.120863
	H101	H	0.598616	0.597907	0.895795
	H102	H	0.414371	0.602013	0.123510
	H103	H	0.410674	0.423647	0.893322
	H104	H	0.115370	0.594051	0.417871
	H105	H	0.892780	0.596100	0.605361
	H106	H	0.123493	0.414680	0.603884
	H107	H	0.897470	0.430317	0.421098
	H108	H	0.911005	0.625364	0.087902
	H109	H	0.093680	0.400395	0.092467
	H110	H	0.096330	0.623633	0.923677
	H111	H	0.906724	0.397081	0.921651
	H112	H	0.095681	0.923856	0.619916
	H113	H	0.094367	0.094430	0.395783
	H114	H	0.918149	0.093580	0.617611
	H115	H	0.912846	0.916615	0.391474
	H116	H	0.612098	0.093957	0.926369
	H117	H	0.394462	0.104681	0.097156
	H118	H	0.620207	0.921259	0.100382
	H119	H	0.395465	0.926645	0.918933
	C120	C	0.384118	0.020425	0.628759
	C121	C	0.626979	1.002473	0.628576
	C122	C	0.627684	0.019054	0.386338
	C123	C	0.384557	1.004309	0.386177
	C124	C	0.627080	0.391819	0.016906
	C125	C	0.627307	0.633533	1.000600
	C126	C	0.384495	0.633299	0.017382
	C127	C	0.383935	0.390446	0.999314
	C128	C	0.013484	0.633354	0.385467
	C129	C	0.997822	0.632860	0.628732
	C130	C	0.014798	0.389028	0.629148
	C131	C	0.997510	0.389543	0.385455
	C132	C	0.884828	0.520448	0.127722
	C133	C	0.126739	0.503993	0.128082
	C134	C	0.127622	0.520576	0.885978
	C135	C	0.884035	0.504433	0.886002
	C136	C	0.127092	0.890558	0.515521
	C137	C	0.127698	0.132499	0.497928
	C138	C	0.884935	0.131093	0.515433
	C139	C	0.883953	0.888836	0.498990
	C140	C	0.514636	0.134400	0.886070
	C141	C	0.498541	0.134464	0.130049
	C142	C	0.513945	0.890947	0.129184
	C143	C	0.498129	0.890848	0.886816
	C144	C	0.381774	0.901602	0.689828
	C145	C	0.630136	0.121843	0.688121
	C146	C	0.629667	0.900366	0.325210
	C147	C	0.383395	0.123957	0.326667
	C148	C	0.688173	0.388137	0.898543
	C149	C	0.688770	0.637047	0.118901
	C150	C	0.325161	0.636762	0.897821
	C151	C	0.324250	0.388538	0.118685
	C152	C	0.895595	0.694331	0.382888
	C153	C	0.116254	0.692801	0.630610
	C154	C	0.896214	0.329068	0.630998
	C155	C	0.114880	0.327714	0.381190
	C156	C	0.896175	0.387445	0.688773
	C157	C	0.116492	0.634501	0.688073
	C158	C	0.895148	0.636079	0.325265
	C159	C	0.114970	0.386416	0.323477
	C160	C	0.383190	0.694116	0.898192
	C161	C	0.630661	0.694496	0.119106
	C162	C	0.628714	0.332216	0.897622
	C163	C	0.383483	0.332218	0.119496
	C164	C	0.687775	0.899913	0.382443
	C165	C	0.688347	0.120995	0.630626
	C166	C	0.324347	0.901355	0.631865
	C167	C	0.324081	0.123078	0.382825
	C168	C	0.882376	0.401247	0.188534
	C169	C	0.129329	0.622858	0.188691
	C170	C	0.126527	0.399892	0.828560
	C171	C	0.882687	0.623822	0.825902
	C172	C	0.187109	0.887927	0.396427
	C173	C	0.187903	0.135989	0.616593
	C174	C	0.824357	0.134536	0.396749
	C175	C	0.822504	0.884013	0.617478
	C176	C	0.395850	0.193649	0.884823
	C177	C	0.617702	0.193032	0.130318
	C178	C	0.396012	0.830142	0.132293
	C179	C	0.616346	0.830286	0.883837
	C180	C	0.395785	0.888495	0.189774
	C181	C	0.617440	0.135360	0.188804
	C182	C	0.396299	0.136369	0.826025
	C183	C	0.615783	0.887943	0.825126
	C184	C	0.882269	0.192361	0.396740
	C185	C	0.129129	0.192419	0.617011
	C186	C	0.127331	0.831954	0.395707
	C187	C	0.882479	0.829005	0.618635
	C188	C	0.186051	0.400710	0.884684
	C189	C	0.187379	0.622921	0.131281
	C190	C	0.824815	0.401412	0.130806
	C191	C	0.824231	0.623690	0.883265
	C192	C	0.409223	0.103404	0.603304
	C193	C	0.600765	0.919865	0.603270
	C194	C	0.602595	0.101701	0.412530
	C195	C	0.409251	0.920972	0.411441
	C196	C	0.602019	0.416771	0.099978
	C197	C	0.601548	0.607659	0.918264
	C198	C	0.409036	0.607258	0.099946
	C199	C	0.408641	0.415643	0.916262
	C200	C	0.095754	0.608134	0.410454
	C201	C	0.915170	0.607941	0.604083
	C202	C	0.097618	0.413932	0.604190
	C203	C	0.915817	0.415722	0.411865
	C204	C	0.910304	0.603434	0.101854
	C205	C	0.101647	0.421285	0.102532
	C206	C	0.103747	0.603984	0.910276
	C207	C	0.909006	0.421274	0.911526
	C208	C	0.102765	0.915292	0.598462
	C209	C	0.102294	0.106555	0.415274
	C210	C	0.910016	0.105120	0.597954
	C211	C	0.909092	0.915324	0.416430
	C212	C	0.597109	0.109653	0.910971
	C213	C	0.415769	0.109794	0.105753
	C214	C	0.596319	0.916911	0.103486
	C215	C	0.415893	0.916291	0.912657
	Zn216	Zn	0.505541	0.012417	0.757037
	Zn217	Zn	0.506156	0.012152	0.258575
	Zn218	Zn	0.755671	0.512771	0.008170
	Zn219	Zn	0.256167	0.512197	0.007623
	Zn220	Zn	0.006225	0.761532	0.507616
	Zn221	Zn	0.005968	0.260308	0.507114
	Zn222	Zn	0.006113	0.511782	0.757571
	Zn223	Zn	0.005354	0.512032	0.256576
	Zn224	Zn	0.506308	0.761727	0.008514
	Zn225	Zn	0.506403	0.263234	0.008357
	Zn226	Zn	0.755907	0.009642	0.507115
	Zn227	Zn	0.256023	0.011613	0.507053
	N228	N	0.418160	0.976792	0.688043
	N229	N	0.592808	0.047061	0.687045
	N230	N	0.593005	0.975468	0.327468
	N231	N	0.420183	0.048910	0.328533
	N232	N	0.687143	0.424438	0.973749
	N233	N	0.686658	0.599865	0.044127
	N234	N	0.325592	0.599792	0.972992
	N235	N	0.324326	0.423907	0.042954
	N236	N	0.970169	0.692806	0.419666
	N237	N	0.041252	0.691956	0.594515
	N238	N	0.971230	0.329739	0.594874
	N239	N	0.040872	0.329699	0.419073
	N240	N	0.970840	0.423893	0.687804
	N241	N	0.041802	0.598166	0.687152
	N242	N	0.969410	0.598738	0.326875
	N243	N	0.041024	0.424283	0.326138
	N244	N	0.419174	0.692370	0.973381
	N245	N	0.593145	0.692265	0.044659
	N246	N	0.591202	0.334670	0.972073
	N247	N	0.419775	0.333255	0.044159
	N248	N	0.686671	0.974726	0.419715
	N249	N	0.686581	0.045663	0.594459
	N250	N	0.325382	0.976548	0.594825
	N251	N	0.324772	0.047503	0.419086
	N252	N	0.918995	0.476408	0.186798
	N253	N	0.092288	0.547990	0.186834
	N254	N	0.091067	0.475463	0.829081
	N255	N	0.918993	0.548558	0.827335
	N256	N	0.187090	0.923523	0.471940
	N257	N	0.187196	0.099699	0.541446
	N258	N	0.825906	0.096987	0.471666
	N259	N	0.822994	0.920176	0.542095
	N260	N	0.470505	0.192672	0.921401
	N261	N	0.542631	0.192736	0.094939
	N262	N	0.470647	0.831577	0.095635
	N263	N	0.542108	0.831765	0.921308
	N264	N	0.470244	0.925769	0.188015
	N265	N	0.542108	0.099664	0.188779
	N266	N	0.471116	0.100381	0.826682
	N267	N	0.541199	0.924833	0.826846
	N268	N	0.919195	0.190389	0.471415
	N269	N	0.092273	0.190393	0.542144
	N270	N	0.090975	0.833147	0.470751
	N271	N	0.919956	0.831761	0.543823
	N272	N	0.187014	0.476731	0.919541
	N273	N	0.186018	0.547865	0.094312
	N274	N	0.826162	0.476485	0.093888
	N275	N	0.824724	0.548185	0.919725
	O276	O	0.439104	0.548594	0.483460
	H277	H	0.432586	0.567385	0.478706
	H278	H	0.451578	0.549435	0.462657
	O279	O	0.934885	0.019625	1.212166
	H280	H	0.928515	0.013355	1.201710
	H281	H	0.934322	0.019670	1.212442
	O282	O	0.719889	0.532052	0.721338
	H283	H	0.723810	0.540961	0.740571
	H284	H	0.723061	0.559852	0.728611
	O285	O	0.430286	0.576005	0.311374
	H286	H	0.440124	0.594031	0.295827
	H287	H	0.449558	0.556997	0.318524
	O288	O	1.106593	1.126649	-0.170415
	H289	H	1.099412	1.107970	-0.155303
	H290	H	1.102469	1.108215	-0.169603
	O291	O	0.713942	0.713677	0.516390
	H292	H	0.733450	0.748961	0.516668
	H293	H	0.691495	0.702909	0.491917
	O294	O	-0.049426	-0.176394	1.195325
	H295	H	-0.053296	-0.168350	1.201048
	H296	H	-0.043747	-0.187927	1.199307
	O297	O	0.560846	0.573698	0.470343
	H298	H	0.550957	0.558877	0.468717
	H299	H	0.567460	0.573290	0.478191
	O300	O	0.688133	0.692738	0.696398
	H301	H	0.670232	0.690497	0.700433
	H302	H	0.691277	0.703733	0.653205
	O303	O	0.326151	0.655972	0.324534
	H304	H	0.353935	0.648903	0.320347
	H305	H	0.325683	0.635467	0.306226
	O306	O	0.302158	0.396645	0.695942
	H307	H	0.295354	0.394043	0.703727
	H308	H	0.287577	0.399313	0.703058
	O309	O	0.401841	0.452279	0.710845
	H310	H	0.397186	0.463458	0.714570
	H311	H	0.384845	0.450868	0.722842
	O312	O	-0.095023	1.071218	1.055658
	H313	H	-0.103364	1.061458	1.057082
	H314	H	-0.092924	1.078246	1.064822
	O315	O	0.340973	0.672001	0.446597
	H316	H	0.342046	0.659747	0.425456
	H317	H	0.323436	0.702189	0.441227
	O318	O	0.956744	-0.014963	-0.148633
	H319	H	0.952400	-0.017731	-0.146083
	H320	H	0.940062	-0.009086	-0.148080
	O321	O	-0.061685	0.221352	-0.153149
	H322	H	-0.045416	0.205343	-0.168467
	H323	H	-0.053840	0.233777	-0.167850
	O324	O	0.693804	0.495035	0.539729
	H325	H	0.697094	0.505246	0.566316
	H326	H	0.699871	0.499410	0.522955
	O327	O	0.521370	0.300837	0.644712
	H328	H	0.509543	0.293095	0.664380
	H329	H	0.494696	0.304175	0.646321
	O330	O	0.092878	1.156898	0.195669
	H331	H	0.114153	1.158567	0.181266
	H332	H	0.076011	1.158307	0.197039
	O333	O	0.701161	0.321860	0.320777
	H334	H	0.687250	0.315453	0.349594
	H335	H	0.724971	0.306010	0.328295
	O336	O	-0.337754	-0.340109	0.351834
	H337	H	-0.334394	-0.346160	0.341228
	H338	H	-0.318098	-0.345916	0.346265
	O339	O	-0.215717	1.038012	0.786632
	H340	H	-0.244104	1.050624	0.759272
	H341	H	-0.216431	1.080741	0.788046
	O342	O	0.115694	0.847252	1.030448
	H343	H	0.097498	0.839006	1.021118
	H344	H	0.105757	0.847363	1.046394
	O345	O	1.073742	1.075782	0.035755
	H346	H	1.084451	1.083895	0.037985
	H347	H	1.071017	1.074361	0.042200
	O348	O	0.373179	0.598749	0.525344
	H349	H	0.367045	0.608148	0.532691
	H350	H	0.373146	0.583697	0.540347
	O351	O	0.395117	0.576555	0.646549
	H352	H	0.405978	0.572940	0.638675
	H353	H	0.403223	0.578764	0.635630
	O354	O	-0.092378	0.978952	0.078764
	H355	H	-0.092487	0.982453	0.061719
	H356	H	-0.082575	0.992380	0.070913
	O357	O	0.210582	0.218084	1.104419
	H358	H	0.196317	0.202424	1.098885
	H359	H	0.234186	0.243201	1.109538
	O360	O	0.320931	0.544026	0.496621
	H361	H	0.324392	0.540380	0.501142
	H362	H	0.304660	0.544262	0.491733
	O363	O	0.095216	0.022080	0.849304
	H364	H	0.104758	0.012917	0.843846
	H365	H	0.101093	0.009733	0.855776
	O366	O	-0.035435	-0.183611	0.008376
	H367	H	-0.036491	-0.178931	0.022690
	H368	H	-0.036928	-0.192081	0.012830
	O369	O	0.528306	0.713554	0.715633
	H370	H	0.535274	0.721329	0.704685
	H371	H	0.518869	0.711988	0.728619
	O372	O	1.061871	-0.187679	0.833878
	H373	H	1.045075	-0.190151	0.852632
	H374	H	1.045129	-0.201609	0.830155
	O375	O	0.523992	0.585545	0.409904
	H376	H	0.517436	0.575928	0.417150
	H377	H	0.540144	0.579772	0.401871
	O378	O	0.478428	0.409528	0.622888
	H379	H	0.467756	0.385046	0.613385
	H380	H	0.504255	0.420576	0.623135
	O381	O	0.373358	0.438511	0.375197
	H382	H	0.383543	0.450715	0.379464
	H383	H	0.373127	0.439350	0.372899
	O384	O	0.555017	0.534230	0.408513
	H385	H	0.569182	0.527827	0.399324
	H386	H	0.559360	0.524582	0.419952
	O387	O	0.168590	-0.022501	0.859782
	H388	H	0.157685	-0.039586	0.849804
	H389	H	0.179902	-0.032381	0.844845
	O390	O	0.038959	0.217248	-0.032603
	H391	H	0.021728	0.222084	-0.037009
	H392	H	0.044452	0.209110	-0.035156
	O393	O	1.216612	1.008627	1.120689
	H394	H	1.224755	1.025039	1.126957
	H395	H	1.215452	1.018487	1.126355
	O396	O	0.874047	-0.045466	0.098148
	H397	H	0.870271	-0.048468	0.093901
	H398	H	0.873355	-0.027004	0.085694
	O399	O	0.843912	0.211891	0.950198
	H400	H	0.841420	0.222088	0.956740
	H401	H	0.860790	0.209992	0.945951
	O402	O	1.039267	0.891205	0.937799
	H403	H	1.031009	0.900997	0.934139
	H404	H	1.026389	0.901279	0.959858
	O405	O	0.976578	0.988458	0.039531
	H406	H	0.980066	0.990397	0.055803
	H407	H	0.969714	1.007944	0.025481
	O408	O	1.007790	-0.191753	0.078190
	H409	H	1.009235	-0.175324	0.066976
	H410	H	0.995908	-0.199533	0.064577
	O411	O	1.202650	1.071816	-0.057265
	H412	H	1.195777	1.070602	-0.050737
	H413	H	1.200373	1.057721	-0.064975
	O414	O	0.077399	0.117032	0.204837
	H415	H	0.062463	0.089404	0.202430
	H416	H	0.098318	0.122558	0.220095
	O417	O	0.465674	0.452568	0.659193
	H418	H	0.456953	0.434512	0.663926
	H419	H	0.454406	0.453072	0.662875
	O420	O	-0.123707	0.189602	0.121093
	H421	H	-0.112729	0.180874	0.128500
	H422	H	-0.108639	0.195121	0.119440
	O423	O	0.648053	0.317205	0.650111
	H424	H	0.623887	0.326017	0.637740
	H425	H	0.631365	0.332072	0.654941
	O426	O	0.463924	0.297775	0.463059
	H427	H	0.465472	0.310158	0.459471
	H428	H	0.469911	0.290298	0.460584
	O429	O	0.570157	0.688112	0.384673
	H430	H	0.544591	0.688253	0.377224
	H431	H	0.580369	0.688958	0.373617
	O432	O	0.712361	0.317035	0.481986
	H433	H	0.712103	0.319121	0.502116
	H434	H	0.706940	0.317483	0.500454
	O435	O	0.459606	0.688067	0.502218
	H436	H	0.441020	0.695583	0.501419
	H437	H	0.453979	0.680033	0.486211
	O438	O	-0.192790	0.202785	-0.184705
	H439	H	-0.209208	0.226608	-0.177406
	H440	H	-0.144321	0.214848	-0.192813
	O441	O	1.211699	-0.128988	-0.111783
	H442	H	1.234452	-0.149676	-0.127400
	H443	H	1.194530	-0.134509	-0.115318
	O444	O	-0.125014	0.878546	1.085090
	H445	H	-0.111066	0.866679	1.090608
	H446	H	-0.140150	0.878283	1.093655
	O447	O	0.527457	0.299984	0.304087
	H448	H	0.551284	0.296788	0.305713
	H449	H	0.524940	0.281698	0.290569
	O450	O	0.310382	0.309720	0.599820
	H451	H	0.301663	0.292876	0.592844
	H452	H	0.301938	0.329903	0.593627
	O453	O	0.607408	0.519997	0.301002
	H454	H	0.613649	0.495236	0.306972
	H455	H	0.624269	0.509775	0.291101
