data_Molecule from HDF5

_cell_length_a		16.594641
_cell_length_b		16.518665
_cell_length_c		16.563575
_cell_angle_alpha	90.004241
_cell_angle_beta	90.046615
_cell_angle_gamma	89.955851
_symmetry_space_group_name_H-M	'P 1'
_symmetry_Int_Tables_number		1

loop_
	_symmetry_equiv_pos_as_xyz
	x,y,z

loop_
	_atom_site_label
	_atom_site_type_symbol
	_atom_site_fract_x
	_atom_site_fract_y
	_atom_site_fract_z
	H0	H	0.382202	0.848572	0.713279
	H1	H	0.592187	0.162151	0.712124
	H2	H	0.591463	0.848254	0.270340
	H3	H	0.383554	0.162982	0.271628
	H4	H	0.706582	0.400159	0.833847
	H5	H	0.708886	0.611237	0.147043
	H6	H	0.265155	0.609414	0.834134
	H7	H	0.264291	0.398265	0.146782
	H8	H	0.830054	0.726798	0.385790
	H9	H	0.143632	0.723760	0.593908
	H10	H	0.829167	0.284992	0.593938
	H11	H	0.144727	0.286458	0.388155
	H12	H	0.829810	0.398907	0.712657
	H13	H	0.142445	0.609880	0.712278
	H14	H	0.829098	0.608970	0.270456
	H15	H	0.144391	0.401610	0.270554
	H16	H	0.382288	0.726027	0.834406
	H17	H	0.590305	0.725158	0.147847
	H18	H	0.589245	0.284793	0.833455
	H19	H	0.382716	0.284528	0.148282
	H20	H	0.709886	0.848874	0.383937
	H21	H	0.707214	0.162559	0.595034
	H22	H	0.263669	0.849680	0.598643
	H23	H	0.266932	0.162590	0.387553
	H24	H	0.882524	0.347379	0.210426
	H25	H	0.088164	0.664165	0.207899
	H26	H	0.090362	0.348020	0.769473
	H27	H	0.882655	0.663110	0.771168
	H28	H	0.207290	0.901878	0.334521
	H29	H	0.207879	0.110182	0.647535
	H30	H	0.765135	0.109349	0.333912
	H31	H	0.765348	0.898973	0.647507
	H32	H	0.329252	0.224135	0.887890
	H33	H	0.642720	0.225649	0.096396
	H34	H	0.330109	0.785311	0.094373
	H35	H	0.643097	0.782788	0.887676
	H36	H	0.330731	0.902189	0.211574
	H37	H	0.642672	0.110971	0.214074
	H38	H	0.330301	0.108271	0.770310
	H39	H	0.643731	0.896591	0.769688
	H40	H	0.882744	0.224414	0.332839
	H41	H	0.091248	0.226514	0.647661
	H42	H	0.090101	0.785697	0.333803
	H43	H	0.882578	0.784273	0.648341
	H44	H	0.207379	0.348249	0.885308
	H45	H	0.205261	0.663115	0.092433
	H46	H	0.767057	0.347052	0.093805
	H47	H	0.765546	0.662058	0.886364
	H48	H	0.389860	0.119829	0.579854
	H49	H	0.578103	0.893057	0.576480
	H50	H	0.575646	0.119765	0.397802
	H51	H	0.398435	0.892694	0.400820
	H52	H	0.575414	0.416888	0.102505
	H53	H	0.578663	0.596981	0.876808
	H54	H	0.391081	0.595035	0.105168
	H55	H	0.397099	0.414053	0.878720
	H56	H	0.097803	0.594199	0.402054
	H57	H	0.874538	0.595318	0.577710
	H58	H	0.098468	0.417577	0.586560
	H59	H	0.874289	0.414887	0.398364
	H60	H	0.098827	0.411059	0.578199
	H61	H	0.874731	0.592253	0.581085
	H62	H	0.099537	0.594738	0.396647
	H63	H	0.875119	0.414179	0.402109
	H64	H	0.397501	0.588191	0.100843
	H65	H	0.577848	0.588795	0.880371
	H66	H	0.576681	0.412414	0.103921
	H67	H	0.395783	0.415532	0.878117
	H68	H	0.570490	0.114192	0.405286
	H69	H	0.577582	0.891377	0.582470
	H70	H	0.402683	0.118190	0.588355
	H71	H	0.397491	0.893822	0.403580
	H72	H	0.900194	0.615962	0.080849
	H73	H	0.073680	0.392833	0.081720
	H74	H	0.084921	0.620925	0.900993
	H75	H	0.899318	0.394028	0.902312
	H76	H	0.080212	0.919973	0.603033
	H77	H	0.073165	0.094640	0.379576
	H78	H	0.899561	0.095593	0.601822
	H79	H	0.897456	0.916947	0.379250
	H80	H	0.599174	0.098067	0.903301
	H81	H	0.377785	0.089645	0.076967
	H82	H	0.599677	0.914209	0.081321
	H83	H	0.374666	0.913721	0.901818
	H84	H	0.598817	0.915892	0.078594
	H85	H	0.373066	0.091466	0.088221
	H86	H	0.597467	0.091647	0.904355
	H87	H	0.376775	0.917824	0.904681
	H88	H	0.896403	0.095947	0.603657
	H89	H	0.078944	0.099346	0.377038
	H90	H	0.071239	0.915712	0.601866
	H91	H	0.898703	0.917508	0.379676
	H92	H	0.069388	0.618647	0.893601
	H93	H	0.075928	0.392845	0.078775
	H94	H	0.894337	0.617011	0.076390
	H95	H	0.894429	0.392552	0.902899
	H96	H	0.402490	0.113414	0.573120
	H97	H	0.572826	0.894070	0.579629
	H98	H	0.580607	0.117187	0.407248
	H99	H	0.395609	0.891612	0.402027
	H100	H	0.579822	0.416122	0.103367
	H101	H	0.570392	0.594588	0.880196
	H102	H	0.400539	0.598319	0.103141
	H103	H	0.397233	0.415807	0.879307
	H104	H	0.100327	0.599124	0.399896
	H105	H	0.873085	0.596306	0.581949
	H106	H	0.095940	0.421118	0.577098
	H107	H	0.875986	0.417976	0.400873
	H108	H	0.894048	0.620006	0.083174
	H109	H	0.077110	0.392068	0.081374
	H110	H	0.072138	0.612908	0.909786
	H111	H	0.897095	0.391534	0.898869
	H112	H	0.078517	0.910328	0.606406
	H113	H	0.079962	0.091773	0.378415
	H114	H	0.896768	0.092731	0.601823
	H115	H	0.898454	0.916249	0.379458
	H116	H	0.599718	0.094252	0.898230
	H117	H	0.372977	0.100663	0.079539
	H118	H	0.598117	0.917085	0.081255
	H119	H	0.376044	0.918399	0.899646
	C120	C	0.366366	0.013414	0.612532
	C121	C	0.608742	0.996430	0.612374
	C122	C	0.608195	0.013577	0.370234
	C123	C	0.365915	0.996957	0.370554
	C124	C	0.608290	0.383044	-0.000683
	C125	C	0.607801	0.625953	0.982652
	C126	C	0.365247	0.625618	-0.000911
	C127	C	0.364690	0.383095	0.982623
	C128	C	-0.005191	0.626873	0.368925
	C129	C	0.977855	0.626198	0.611970
	C130	C	-0.005541	0.383939	0.612397
	C131	C	0.978954	0.384268	0.369191
	C132	C	0.865039	0.513398	0.111880
	C133	C	0.106586	0.497037	0.111166
	C134	C	0.107388	0.513437	0.869299
	C135	C	0.864907	0.496686	0.869303
	C136	C	0.108401	0.883949	0.499791
	C137	C	0.108629	0.127037	0.482554
	C138	C	0.865241	0.126601	0.498842
	C139	C	0.865921	0.884269	0.483079
	C140	C	0.495191	0.126219	0.869988
	C141	C	0.478412	0.126154	0.113074
	C142	C	0.495556	0.884025	0.112436
	C143	C	0.478813	0.883312	0.869639
	C144	C	0.363909	0.895496	0.672874
	C145	C	0.610603	0.114861	0.672143
	C146	C	0.610275	0.895495	0.309960
	C147	C	0.364506	0.115496	0.311221
	C148	C	0.666786	0.381525	0.880872
	C149	C	0.668497	0.628851	0.100015
	C150	C	0.305535	0.627773	0.880940
	C151	C	0.304451	0.380536	0.100059
	C152	C	0.876701	0.686382	0.367530
	C153	C	0.096154	0.684782	0.613134
	C154	C	0.876430	0.324567	0.613248
	C155	C	0.097567	0.325934	0.369098
	C156	C	0.876633	0.381167	0.672275
	C157	C	0.095534	0.627998	0.671944
	C158	C	0.876392	0.627824	0.310115
	C159	C	0.097207	0.383336	0.310737
	C160	C	0.363690	0.685584	0.881130
	C161	C	0.609636	0.685599	0.100725
	C162	C	0.608652	0.324049	0.880874
	C163	C	0.363489	0.323933	0.100862
	C164	C	0.669013	0.895737	0.366689
	C165	C	0.667876	0.115028	0.613923
	C166	C	0.305056	0.896038	0.615982
	C167	C	0.306526	0.115442	0.368738
	C168	C	0.863971	0.394945	0.170997
	C169	C	0.107266	0.616482	0.169152
	C170	C	0.109102	0.395268	0.809474
	C171	C	0.863699	0.615547	0.810679
	C172	C	0.167642	0.882644	0.381609
	C173	C	0.167560	0.128294	0.600732
	C174	C	0.805569	0.128017	0.380739
	C175	C	0.805544	0.881105	0.600566
	C176	C	0.376561	0.184936	0.868649
	C177	C	0.595990	0.185800	0.114888
	C178	C	0.377122	0.825099	0.113615
	C179	C	0.596407	0.822570	0.868456
	C180	C	0.377588	0.883071	0.171721
	C181	C	0.595806	0.128860	0.173490
	C182	C	0.377276	0.127317	0.810292
	C183	C	0.596424	0.879604	0.809945
	C184	C	0.863957	0.185293	0.380207
	C185	C	0.109833	0.186509	0.600592
	C186	C	0.109624	0.824904	0.381325
	C187	C	0.864035	0.823982	0.600975
	C188	C	0.167015	0.395174	0.867315
	C189	C	0.165755	0.615825	0.112053
	C190	C	0.806548	0.394680	0.112829
	C191	C	0.805383	0.615013	0.867818
	C192	C	0.391254	0.095647	0.587481
	C193	C	0.583531	0.914283	0.587032
	C194	C	0.582804	0.095717	0.396057
	C195	C	0.390250	0.914181	0.395063
	C196	C	0.584052	0.407901	0.081809
	C197	C	0.582613	0.600677	0.900540
	C198	C	0.389481	0.600771	0.081446
	C199	C	0.389680	0.408039	0.900083
	C200	C	0.077638	0.602927	0.392806
	C201	C	0.895509	0.601666	0.587342
	C202	C	0.076496	0.409340	0.587734
	C203	C	0.896630	0.408700	0.393438
	C204	C	0.889170	0.596155	0.087158
	C205	C	0.082420	0.414190	0.087346
	C206	C	0.082502	0.596124	0.894259
	C207	C	0.889887	0.414032	0.894100
	C208	C	0.083970	0.908360	0.582325
	C209	C	0.084245	0.102440	0.399869
	C210	C	0.890405	0.101836	0.581094
	C211	C	0.891015	0.909703	0.400841
	C212	C	0.577442	0.101867	0.894975
	C213	C	0.396001	0.101179	0.088574
	C214	C	0.577579	0.908631	0.087477
	C215	C	0.397155	0.909183	0.894795
	Zn216	Zn	0.488066	0.004748	0.741386
	Zn217	Zn	0.487043	0.005345	0.241912
	Zn218	Zn	0.736349	0.504828	-0.009593
	Zn219	Zn	0.236188	0.504914	-0.008884
	Zn220	Zn	-0.013509	0.755518	0.490863
	Zn221	Zn	-0.013824	0.255250	0.490707
	Zn222	Zn	-0.014518	0.505310	0.740767
	Zn223	Zn	-0.013434	0.505476	0.240163
	Zn224	Zn	0.486533	0.754795	-0.008567
	Zn225	Zn	0.486435	0.255028	-0.008382
	Zn226	Zn	0.736699	0.004687	0.490922
	Zn227	Zn	0.237342	0.005228	0.491371
	N228	N	0.401290	0.969373	0.670964
	N229	N	0.574665	0.039868	0.671572
	N230	N	0.573157	0.969704	0.312083
	N231	N	0.400734	0.040743	0.312118
	N232	N	0.666857	0.417392	0.955660
	N233	N	0.667274	0.592221	0.025566
	N234	N	0.306344	0.591116	0.955261
	N235	N	0.304873	0.416375	0.025160
	N236	N	0.951393	0.686085	0.403219
	N237	N	0.021899	0.683859	0.576542
	N238	N	0.950790	0.325878	0.576968
	N239	N	0.022840	0.326093	0.404626
	N240	N	0.951114	0.417411	0.671912
	N241	N	0.020866	0.592139	0.671308
	N242	N	0.950928	0.591623	0.310818
	N243	N	0.022404	0.418566	0.310451
	N244	N	0.399856	0.684497	0.955639
	N245	N	0.572489	0.683846	0.026688
	N246	N	0.573157	0.324784	0.955680
	N247	N	0.400210	0.325432	0.026681
	N248	N	0.667911	0.970317	0.403357
	N249	N	0.667129	0.040288	0.577857
	N250	N	0.306410	0.970455	0.579103
	N251	N	0.307227	0.040565	0.404716
	N252	N	0.899224	0.470117	0.170922
	N253	N	0.071622	0.541527	0.168985
	N254	N	0.072924	0.469983	0.810405
	N255	N	0.900031	0.540796	0.811519
	N256	N	0.167318	0.918326	0.456400
	N257	N	0.166998	0.092264	0.526205
	N258	N	0.806143	0.092217	0.455564
	N259	N	0.806797	0.917952	0.526235
	N260	N	0.451008	0.184417	0.905178
	N261	N	0.521894	0.184384	0.078079
	N262	N	0.451595	0.825471	0.077603
	N263	N	0.522170	0.824672	0.904957
	N264	N	0.452086	0.918784	0.171239
	N265	N	0.521497	0.092689	0.172573
	N266	N	0.451930	0.091625	0.811068
	N267	N	0.522238	0.916414	0.810272
	N268	N	0.900517	0.184437	0.454665
	N269	N	0.073919	0.185896	0.525897
	N270	N	0.073509	0.825582	0.455888
	N271	N	0.900807	0.825826	0.526604
	N272	N	0.166250	0.469926	0.903584
	N273	N	0.165711	0.540561	0.076863
	N274	N	0.806676	0.469445	0.077130
	N275	N	0.806069	0.539985	0.903561
	O276	O	0.837110	0.108714	-1.001565
	H277	H	0.828958	0.113072	-1.001183
	H278	H	0.834897	0.120041	-0.990015
	O279	O	0.151508	0.197685	0.832730
	H280	H	0.129242	0.182338	0.854484
	H281	H	0.147278	0.187238	0.854205
	O282	O	0.198634	0.812968	-0.067420
	H283	H	0.195419	0.800331	-0.077655
	H284	H	0.209622	0.808980	-0.100123
	O285	O	0.196818	0.217084	1.009766
	H286	H	0.211219	0.207222	1.016586
	H287	H	0.202460	0.229543	1.024572
	O288	O	0.858056	-0.177305	0.972650
	H289	H	0.873657	-0.188974	0.977080
	H290	H	0.862721	-0.169119	0.951374
	O291	O	0.661298	0.546515	1.563047
	H292	H	0.660610	0.543914	1.579315
	H293	H	0.662972	0.571569	1.574172
	O294	O	0.250606	0.797297	-0.268565
	H295	H	0.253551	0.788491	-0.279421
	H296	H	0.261765	0.796803	-0.295190
	O297	O	0.725104	0.740328	0.730581
	H298	H	0.713869	0.737165	0.746299
	H299	H	0.732182	0.730316	0.738781
	O300	O	-0.098587	0.072125	0.180030
	H301	H	-0.114669	0.056887	0.185627
	H302	H	-0.082987	0.077722	0.179328
	O303	O	0.093759	-0.060144	-0.014003
	H304	H	0.106926	-0.065616	-0.000323
	H305	H	0.084641	-0.080083	-0.013384
	O306	O	0.847428	-0.035042	-0.128188
	H307	H	0.838465	-0.018904	-0.137926
	H308	H	0.848711	-0.039739	-0.138183
	O309	O	0.700288	0.294281	0.335286
	H310	H	0.707072	0.298173	0.340895
	H311	H	0.687609	0.283992	0.336602
	O312	O	0.520604	0.719189	0.700576
	H313	H	0.510060	0.735758	0.700598
	H314	H	0.517544	0.716064	0.706629
	O315	O	0.551182	0.382812	0.520716
	H316	H	0.541118	0.380919	0.528313
	H317	H	0.542632	0.390135	0.520088
	O318	O	0.995009	0.830353	-0.217252
	H319	H	0.978627	0.828660	-0.235745
	H320	H	1.007671	0.838151	-0.214781
	O321	O	0.691366	0.523269	0.630951
	H322	H	0.684764	0.518444	0.639878
	H323	H	0.693579	0.513559	0.625249
	O324	O	1.197697	-0.201088	1.201967
	H325	H	1.172363	-0.180247	1.185981
	H326	H	1.189444	-0.203070	1.188354
	O327	O	1.467005	1.333109	0.642170
	H328	H	1.464976	1.328179	0.643868
	H329	H	1.471283	1.333378	0.643637
	O330	O	0.089169	0.895134	0.092632
	H331	H	0.079689	0.902082	0.094945
	H332	H	0.086788	0.905070	0.072092
	O333	O	-0.221622	0.871036	0.197758
	H334	H	-0.219539	0.863774	0.172651
	H335	H	-0.247469	0.852876	0.214117
	O336	O	0.692253	0.556484	0.352168
	H337	H	0.690410	0.540065	0.361067
	H338	H	0.693937	0.552742	0.338692
	O339	O	0.855154	-0.198709	1.163172
	H340	H	0.849253	-0.216201	1.167984
	H341	H	0.842931	-0.198439	1.155155
	O342	O	-0.156698	1.012401	0.094069
	H343	H	-0.158060	0.993080	0.097417
	H344	H	-0.152066	1.013674	0.106296
	O345	O	0.110417	0.028145	0.003246
	H346	H	0.115250	0.001264	0.005867
	H347	H	0.119088	0.024554	0.008730
	O348	O	-0.101777	-0.098690	0.155997
	H349	H	-0.120146	-0.100526	0.163938
	H350	H	-0.109000	-0.120329	0.159185
	O351	O	-0.666353	0.427008	0.703839
	H352	H	-0.662016	0.401363	0.685899
	H353	H	-0.678158	0.425767	0.721854
	O354	O	1.090213	0.145449	1.090780
	H355	H	1.111440	0.175191	1.111554
	H356	H	1.097455	0.114099	1.095593
	O357	O	0.513641	0.439869	0.528214
	H358	H	0.514050	0.445240	0.525376
	H359	H	0.507289	0.436495	0.525935
	O360	O	0.450227	0.532818	0.717341
	H361	H	0.429683	0.524631	0.721670
	H362	H	0.442957	0.533661	0.719029
	O363	O	0.808978	1.022355	-0.144327
	H364	H	0.793002	1.028635	-0.162361
	H365	H	0.809081	1.040184	-0.137234
	O366	O	1.003447	0.077233	0.816551
	H367	H	1.014072	0.075439	0.815064
	H368	H	0.990438	0.085803	0.812428
	O369	O	0.631511	0.428963	1.310214
	H370	H	0.633916	0.428217	1.322382
	H371	H	0.648741	0.429988	1.307980
	O372	O	0.788404	1.204825	1.790048
	H373	H	0.811906	1.207540	1.811031
	H374	H	0.790203	1.209797	1.806310
	O375	O	1.026568	-0.116493	-0.015186
	H376	H	1.033827	-0.114030	-0.022815
	H377	H	1.035745	-0.107868	-0.013831
	O378	O	0.440634	0.462923	0.344745
	H379	H	0.435914	0.455239	0.357646
	H380	H	0.448019	0.471361	0.331496
	O381	O	-0.715077	0.300752	-0.303714
	H382	H	-0.707430	0.288343	-0.285417
	H383	H	-0.712045	0.300987	-0.299873
	O384	O	1.075527	0.911811	0.067585
	H385	H	1.076070	0.898150	0.055389
	H386	H	1.070857	0.913834	0.068107
	O387	O	0.586786	0.574558	1.323785
	H388	H	0.582719	0.556405	1.326745
	H389	H	0.574386	0.567190	1.333717
	O390	O	0.621438	0.561047	0.380013
	H391	H	0.612775	0.556189	0.385220
	H392	H	0.627652	0.556997	0.382510
	O393	O	1.109684	-0.104401	-0.216628
	H394	H	1.117664	-0.118675	-0.228078
	H395	H	1.081055	-0.095113	-0.221371
	O396	O	0.323026	0.682738	0.345743
	H397	H	0.344390	0.683779	0.355807
	H398	H	0.301224	0.701930	0.329840
	O399	O	0.489322	0.691568	0.463849
	H400	H	0.492345	0.683125	0.452572
	H401	H	0.506949	0.700024	0.457737
	O402	O	0.791074	-0.136133	0.922740
	H403	H	0.789229	-0.135313	0.907805
	H404	H	0.787107	-0.126229	0.932824
	O405	O	0.461606	0.504648	0.471004
	H406	H	0.462520	0.516097	0.482660
	H407	H	0.445501	0.509968	0.470933
	O408	O	0.272199	0.725211	1.463759
	H409	H	0.268052	0.727693	1.446053
	H410	H	0.256538	0.736735	1.453106
	O411	O	1.269948	0.533582	0.273426
	H412	H	1.266934	0.542462	0.264724
	H413	H	1.265433	0.543218	0.268411
	O414	O	-0.052920	0.059970	0.093325
	H415	H	-0.078913	0.049266	0.094699
	H416	H	-0.068378	0.065660	0.106029
	O417	O	0.261208	0.651329	0.642664
	H418	H	0.275821	0.654781	0.638311
	H419	H	0.264317	0.666642	0.631374
	O420	O	1.020909	0.227129	1.207481
	H421	H	1.044486	0.246179	1.228375
	H422	H	1.050882	0.229031	1.212079
	O423	O	0.886803	1.042221	0.017604
	H424	H	0.877635	1.051038	-0.000869
	H425	H	0.889209	1.040864	0.028965
	O426	O	0.308229	0.515069	0.561148
	H427	H	0.302443	0.514092	0.563731
	H428	H	0.301760	0.510777	0.564146
	O429	O	0.428280	0.373240	0.368219
	H430	H	0.432519	0.393595	0.358799
	H431	H	0.437141	0.371161	0.365869
	O432	O	0.970313	0.186265	0.973385
	H433	H	0.972408	0.193587	0.971999
	H434	H	0.976101	0.188910	0.998798
	O435	O	0.169095	1.004841	0.885131
	H436	H	0.177050	0.996410	0.869229
	H437	H	0.167392	1.002726	0.882427
	O438	O	0.703622	0.717839	0.584468
	H439	H	0.714974	0.736009	0.608903
	H440	H	0.700395	0.734520	0.598522
	O441	O	1.171830	0.024796	0.197487
	H442	H	1.170823	0.000052	0.199827
	H443	H	1.160391	0.013158	0.200882
	O444	O	0.613548	0.374173	0.672600
	H445	H	0.614214	0.375856	0.672269
	H446	H	0.619588	0.377628	0.680350
	O447	O	0.418206	0.341913	0.443849
	H448	H	0.418649	0.339309	0.440935
	H449	H	0.427198	0.346124	0.451829
	O450	O	1.383391	-0.413741	0.521904
	H451	H	1.385517	-0.420017	0.501371
	H452	H	1.388144	-0.416337	0.516920
	O453	O	0.461928	0.715400	0.278994
	H454	H	0.466928	0.722105	0.271811
	H455	H	0.446131	0.722428	0.274962
	O456	O	-0.185458	1.220044	0.914740
	H457	H	-0.195811	1.237868	0.919852
	H458	H	-0.177777	1.223723	0.936065
	O459	O	0.272197	0.289460	0.523510
	H460	H	0.254367	0.266442	0.531695
	H461	H	0.273932	0.292059	0.545911
	O462	O	1.377660	0.691813	0.587266
	H463	H	1.394978	0.703639	0.566515
	H464	H	1.368804	0.684837	0.572612
	O465	O	0.556512	0.301358	1.288340
	H466	H	0.551831	0.286489	1.282238
	H467	H	0.569683	0.308503	1.288704
	O468	O	0.002108	1.201687	-0.214717
	H469	H	0.008964	1.210830	-0.211193
	H470	H	-0.001349	1.217233	-0.219494
	O471	O	0.583879	0.588811	0.407082
	H472	H	0.596563	0.594347	0.413233
	H473	H	0.578476	0.592503	0.407800
	O474	O	1.227670	1.245574	0.231854
	H475	H	1.251888	1.259532	0.220539
	H476	H	1.240524	1.235639	0.248632
	O477	O	0.627268	0.344586	1.494652
	H478	H	0.620203	0.338779	1.494523
	H479	H	0.627855	0.346579	1.501837
