data_Molecule from HDF5

_cell_length_a		16.297264
_cell_length_b		16.389672
_cell_length_c		16.298748
_cell_angle_alpha	89.976508
_cell_angle_beta	90.129101
_cell_angle_gamma	90.160965
_symmetry_space_group_name_H-M	'P 1'
_symmetry_Int_Tables_number		1

loop_
	_symmetry_equiv_pos_as_xyz
	x,y,z

loop_
	_atom_site_label
	_atom_site_type_symbol
	_atom_site_fract_x
	_atom_site_fract_y
	_atom_site_fract_z
	H0	H	0.406583	0.833083	0.712395
	H1	H	0.604444	0.158183	0.715617
	H2	H	0.601965	0.833840	0.284774
	H3	H	0.408206	0.159286	0.285165
	H4	H	0.716445	0.399492	0.834935
	H5	H	0.718464	0.593550	0.163353
	H6	H	0.290596	0.592893	0.835902
	H7	H	0.290075	0.397787	0.164031
	H8	H	0.841403	0.712336	0.398260
	H9	H	0.167097	0.712421	0.597967
	H10	H	0.840719	0.281307	0.597836
	H11	H	0.167667	0.283198	0.401182
	H12	H	0.839522	0.398794	0.712255
	H13	H	0.168135	0.594517	0.713142
	H14	H	0.840598	0.594449	0.284729
	H15	H	0.168146	0.399907	0.285802
	H16	H	0.405360	0.710530	0.835644
	H17	H	0.603974	0.711501	0.162947
	H18	H	0.601835	0.281322	0.835891
	H19	H	0.405682	0.280727	0.163658
	H20	H	0.718581	0.834359	0.401432
	H21	H	0.719539	0.159257	0.597958
	H22	H	0.289381	0.833481	0.596431
	H23	H	0.290888	0.160072	0.400170
	H24	H	0.904751	0.334572	0.214831
	H25	H	0.103660	0.660180	0.214100
	H26	H	0.100788	0.333762	0.784793
	H27	H	0.905599	0.660197	0.783477
	H28	H	0.217200	0.900448	0.335174
	H29	H	0.219166	0.094524	0.662704
	H30	H	0.790791	0.093661	0.335996
	H31	H	0.791237	0.898588	0.663103
	H32	H	0.340069	0.209882	0.900121
	H33	H	0.667530	0.210791	0.098702
	H34	H	0.340518	0.781874	0.096086
	H35	H	0.668325	0.782010	0.900976
	H36	H	0.340629	0.898395	0.212330
	H37	H	0.667943	0.093337	0.212844
	H38	H	0.340252	0.092300	0.784350
	H39	H	0.668823	0.899600	0.786582
	H40	H	0.905509	0.210712	0.335954
	H41	H	0.104850	0.212543	0.662497
	H42	H	0.101950	0.782499	0.335961
	H43	H	0.904429	0.780812	0.661626
	H44	H	0.217641	0.333404	0.901720
	H45	H	0.221383	0.659213	0.098778
	H46	H	0.788782	0.333920	0.097269
	H47	H	0.789750	0.660473	0.901167
	H48	H	0.413972	0.110136	0.587781
	H49	H	0.602306	0.877957	0.597157
	H50	H	0.605451	0.115512	0.402280
	H51	H	0.404975	0.879789	0.407379
	H52	H	0.597727	0.404356	0.115752
	H53	H	0.597233	0.598357	0.881207
	H54	H	0.415274	0.590877	0.115226
	H55	H	0.417016	0.402777	0.886559
	H56	H	0.121410	0.596535	0.408185
	H57	H	0.893164	0.581713	0.583468
	H58	H	0.120160	0.397262	0.587132
	H59	H	0.886975	0.401909	0.405181
	H60	H	0.115819	0.412401	0.588349
	H61	H	0.885745	0.586525	0.602407
	H62	H	0.118206	0.587287	0.411040
	H63	H	0.887523	0.402820	0.406771
	H64	H	0.410341	0.591371	0.116428
	H65	H	0.603615	0.584809	0.882958
	H66	H	0.595116	0.402048	0.114669
	H67	H	0.408772	0.397122	0.882382
	H68	H	0.591751	0.111728	0.401827
	H69	H	0.591812	0.882046	0.594183
	H70	H	0.407803	0.112630	0.592324
	H71	H	0.412160	0.880508	0.400776
	H72	H	0.913863	0.612233	0.095059
	H73	H	0.091091	0.382814	0.095956
	H74	H	0.095340	0.610505	0.908940
	H75	H	0.914582	0.385237	0.910649
	H76	H	0.099823	0.910968	0.614392
	H77	H	0.092614	0.092660	0.383739
	H78	H	0.917374	0.088245	0.614030
	H79	H	0.906157	0.901443	0.380720
	H80	H	0.622813	0.091105	0.901075
	H81	H	0.386664	0.092631	0.091289
	H82	H	0.620200	0.903463	0.089313
	H83	H	0.387920	0.900417	0.905075
	H84	H	0.621387	0.905021	0.095189
	H85	H	0.389259	0.087174	0.088929
	H86	H	0.619778	0.095345	0.912453
	H87	H	0.389289	0.902802	0.907507
	H88	H	0.912520	0.094835	0.617167
	H89	H	0.101511	0.095328	0.380860
	H90	H	0.090231	0.903312	0.613381
	H91	H	0.911745	0.909584	0.384200
	H92	H	0.101201	0.612383	0.907581
	H93	H	0.097333	0.383672	0.087744
	H94	H	0.911709	0.611197	0.088628
	H95	H	0.902919	0.380404	0.907302
	H96	H	0.416068	0.111520	0.596031
	H97	H	0.600581	0.882126	0.585950
	H98	H	0.599110	0.110227	0.413847
	H99	H	0.413758	0.882829	0.409868
	H100	H	0.597542	0.401068	0.116315
	H101	H	0.588593	0.586721	0.886407
	H102	H	0.411678	0.587007	0.114896
	H103	H	0.407071	0.407906	0.884272
	H104	H	0.121335	0.588705	0.401458
	H105	H	0.885547	0.601075	0.587161
	H106	H	0.121892	0.404871	0.600547
	H107	H	0.889033	0.403437	0.404734
	H108	H	0.907166	0.613452	0.093349
	H109	H	0.101443	0.379204	0.096924
	H110	H	0.096831	0.612316	0.903245
	H111	H	0.912407	0.380579	0.898787
	H112	H	0.101336	0.898992	0.618149
	H113	H	0.100414	0.086194	0.384813
	H114	H	0.909070	0.087203	0.615867
	H115	H	0.916196	0.900051	0.383451
	H116	H	0.616938	0.083672	0.909113
	H117	H	0.387468	0.087673	0.095155
	H118	H	0.621715	0.899408	0.093369
	H119	H	0.388716	0.902718	0.904186
	C120	C	0.383260	0.004320	0.620305
	C121	C	0.626960	0.988026	0.621344
	C122	C	0.626282	0.004830	0.377436
	C123	C	0.382757	0.988599	0.377490
	C124	C	0.624981	0.374866	0.007228
	C125	C	0.625709	0.618130	0.991551
	C126	C	0.383601	0.617636	0.007578
	C127	C	0.382277	0.374016	0.992158
	C128	C	0.012256	0.618706	0.377942
	C129	C	0.995860	0.618156	0.620213
	C130	C	0.011568	0.375682	0.620799
	C131	C	0.996031	0.374959	0.377548
	C132	C	0.882392	0.504919	0.120763
	C133	C	0.126218	0.489194	0.121730
	C134	C	0.125646	0.504325	0.878117
	C135	C	0.882100	0.489677	0.877273
	C136	C	0.125196	0.876192	0.507334
	C137	C	0.126672	0.119293	0.490930
	C138	C	0.884037	0.117783	0.507652
	C139	C	0.882806	0.875269	0.490692
	C140	C	0.511891	0.117704	0.877970
	C141	C	0.495940	0.117216	0.120401
	C142	C	0.512592	0.874743	0.120428
	C143	C	0.496576	0.874014	0.877508
	C144	C	0.385388	0.881779	0.675025
	C145	C	0.624978	0.109869	0.677399
	C146	C	0.622934	0.882430	0.322691
	C147	C	0.386637	0.110930	0.322653
	C148	C	0.678892	0.378454	0.883860
	C149	C	0.680785	0.614768	0.114611
	C150	C	0.328066	0.614310	0.884566
	C151	C	0.327439	0.376544	0.115141
	C152	C	0.889810	0.673762	0.378978
	C153	C	0.118581	0.673996	0.618423
	C154	C	0.889277	0.319539	0.618294
	C155	C	0.118970	0.320949	0.380665
	C156	C	0.888588	0.378130	0.675151
	C157	C	0.118874	0.615750	0.675800
	C158	C	0.889382	0.615102	0.322730
	C159	C	0.119205	0.379031	0.323390
	C160	C	0.385443	0.672348	0.884395
	C161	C	0.623926	0.673320	0.114185
	C162	C	0.622396	0.319493	0.884551
	C163	C	0.384893	0.318488	0.114863
	C164	C	0.680796	0.882599	0.380537
	C165	C	0.682411	0.110353	0.619130
	C166	C	0.327554	0.881944	0.617153
	C167	C	0.328688	0.111266	0.380077
	C168	C	0.884454	0.382910	0.176717
	C169	C	0.124344	0.611519	0.176554
	C170	C	0.122120	0.382273	0.822588
	C171	C	0.885228	0.611861	0.821997
	C172	C	0.179469	0.879392	0.384034
	C173	C	0.181847	0.116141	0.613831
	C174	C	0.828271	0.114891	0.384873
	C175	C	0.828116	0.877732	0.613735
	C176	C	0.389096	0.172395	0.879390
	C177	C	0.618917	0.172616	0.118612
	C178	C	0.389416	0.819442	0.117251
	C179	C	0.619717	0.819946	0.880671
	C180	C	0.389427	0.877577	0.174686
	C181	C	0.619034	0.114322	0.175434
	C182	C	0.389070	0.113627	0.822329
	C183	C	0.619761	0.878009	0.823464
	C184	C	0.885525	0.172727	0.384744
	C185	C	0.124728	0.174334	0.613737
	C186	C	0.122265	0.820971	0.384409
	C187	C	0.884879	0.819644	0.613353
	C188	C	0.179919	0.381869	0.880934
	C189	C	0.182405	0.611201	0.118910
	C190	C	0.826836	0.382510	0.118341
	C191	C	0.827419	0.611857	0.879969
	C192	C	0.405800	0.089537	0.598428
	C193	C	0.604677	0.902794	0.598963
	C194	C	0.604808	0.090410	0.399245
	C195	C	0.404008	0.903077	0.399685
	C196	C	0.603271	0.396231	0.093359
	C197	C	0.603122	0.596267	0.905628
	C198	C	0.405741	0.596030	0.093134
	C199	C	0.404465	0.396173	0.906650
	C200	C	0.098168	0.597244	0.400516
	C201	C	0.910270	0.596127	0.597597
	C202	C	0.097116	0.398204	0.598536
	C203	C	0.909877	0.396353	0.399302
	C204	C	0.904414	0.590288	0.098764
	C205	C	0.103515	0.404077	0.099813
	C206	C	0.104225	0.589743	0.900381
	C207	C	0.903591	0.404236	0.899177
	C208	C	0.103409	0.897939	0.593057
	C209	C	0.104749	0.097722	0.405123
	C210	C	0.906454	0.096286	0.593502
	C211	C	0.905062	0.897184	0.405007
	C212	C	0.597701	0.096411	0.900876
	C213	C	0.410109	0.095430	0.098263
	C214	C	0.598763	0.896380	0.099002
	C215	C	0.410651	0.895709	0.899199
	Zn216	Zn	0.504892	-0.004261	0.749510
	Zn217	Zn	0.504155	-0.003912	0.249081
	Zn218	Zn	0.753307	0.496641	-0.001270
	Zn219	Zn	0.255021	0.496282	0.000027
	Zn220	Zn	0.003986	0.747112	0.498950
	Zn221	Zn	0.004238	0.246909	0.499336
	Zn222	Zn	0.003663	0.497022	0.749062
	Zn223	Zn	0.004408	0.497542	0.249943
	Zn224	Zn	0.504677	0.746355	-0.000732
	Zn225	Zn	0.503745	0.245953	-0.000214
	Zn226	Zn	0.755421	-0.003177	0.499415
	Zn227	Zn	0.254461	-0.002753	0.499050
	N228	N	0.419497	0.958647	0.676972
	N229	N	0.591432	0.032779	0.678917
	N230	N	0.589901	0.959573	0.320769
	N231	N	0.419382	0.033799	0.320947
	N232	N	0.680475	0.412271	0.961127
	N233	N	0.681902	0.581255	0.037228
	N234	N	0.327140	0.580671	0.961929
	N235	N	0.325669	0.410327	0.037890
	N236	N	0.967403	0.676141	0.412448
	N237	N	0.041134	0.675916	0.584737
	N238	N	0.966785	0.317901	0.585178
	N239	N	0.041218	0.318306	0.413514
	N240	N	0.965785	0.412261	0.676857
	N241	N	0.041664	0.581610	0.676784
	N242	N	0.966624	0.581642	0.321940
	N243	N	0.041669	0.411945	0.321402
	N244	N	0.418981	0.674880	0.961891
	N245	N	0.590338	0.675424	0.036605
	N246	N	0.589606	0.317136	0.962269
	N247	N	0.418196	0.316829	0.037383
	N248	N	0.683123	0.959693	0.413928
	N249	N	0.683647	0.033573	0.584761
	N250	N	0.326052	0.959152	0.583849
	N251	N	0.326162	0.034026	0.413528
	N252	N	0.918331	0.459945	0.178472
	N253	N	0.090292	0.534746	0.178613
	N254	N	0.089015	0.459364	0.820866
	N255	N	0.918254	0.534709	0.820153
	N256	N	0.181248	0.913235	0.461203
	N257	N	0.183135	0.082461	0.536568
	N258	N	0.827328	0.081448	0.462294
	N259	N	0.826781	0.911689	0.536429
	N260	N	0.466377	0.174879	0.913344
	N261	N	0.541420	0.174412	0.084876
	N262	N	0.466984	0.817896	0.084043
	N263	N	0.542160	0.817530	0.913743
	N264	N	0.466938	0.911010	0.176878
	N265	N	0.541669	0.080504	0.176542
	N266	N	0.466553	0.080594	0.821150
	N267	N	0.542178	0.911011	0.821517
	N268	N	0.919535	0.174578	0.462077
	N269	N	0.091391	0.176622	0.536151
	N270	N	0.089305	0.818780	0.462106
	N271	N	0.918102	0.817758	0.535885
	N272	N	0.182441	0.458875	0.914557
	N273	N	0.183643	0.534012	0.085517
	N274	N	0.825576	0.459328	0.084169
	N275	N	0.825293	0.534820	0.913530
	O276	O	0.007606	0.088336	1.000398
	H277	H	0.013280	0.085015	1.003793
	H278	H	-0.000085	0.091313	0.992737
	O279	O	0.484905	0.473963	0.566707
	H280	H	0.484928	0.475077	0.565951
	H281	H	0.495829	0.488579	0.572288
	O282	O	0.472199	0.487231	0.564609
	H283	H	0.465078	0.482618	0.574094
	H284	H	0.467838	0.482814	0.572975
	O285	O	0.491290	0.455415	0.572306
	H286	H	0.492299	0.451484	0.559761
	H287	H	0.488362	0.450677	0.573223
	O288	O	0.003994	1.102534	0.054603
	H289	H	0.004862	1.104222	0.053246
	H290	H	0.000311	1.108229	0.056930
	O291	O	0.068862	1.109916	1.040311
	H292	H	0.066308	1.102600	1.048727
	H293	H	0.079336	1.109565	1.045014
	O294	O	0.515755	0.496710	0.588906
	H295	H	0.512468	0.504408	0.591915
	H296	H	0.519230	0.490324	0.590140
	O297	O	0.964048	0.111400	0.014982
	H298	H	0.967966	0.114560	0.010652
	H299	H	0.964309	0.122305	0.016595
