data_Molecule from HDF5

_cell_length_a		16.349589
_cell_length_b		16.325584
_cell_length_c		16.265457
_cell_angle_alpha	90.032427
_cell_angle_beta	90.006976
_cell_angle_gamma	89.978674
_symmetry_space_group_name_H-M	'P 1'
_symmetry_Int_Tables_number		1

loop_
	_symmetry_equiv_pos_as_xyz
	x,y,z

loop_
	_atom_site_label
	_atom_site_type_symbol
	_atom_site_fract_x
	_atom_site_fract_y
	_atom_site_fract_z
	H0	H	0.409149	0.842999	0.719299
	H1	H	0.605725	0.169910	0.719675
	H2	H	0.605773	0.842325	0.291092
	H3	H	0.409588	0.169360	0.290513
	H4	H	0.720943	0.406884	0.840192
	H5	H	0.721851	0.605273	0.167725
	H6	H	0.292006	0.605113	0.840864
	H7	H	0.291637	0.407342	0.167639
	H8	H	0.843487	0.721452	0.405092
	H9	H	0.170463	0.721597	0.603203
	H10	H	0.843507	0.291506	0.602804
	H11	H	0.169774	0.291899	0.404590
	H12	H	0.842517	0.409972	0.717380
	H13	H	0.170148	0.605418	0.719687
	H14	H	0.843338	0.603624	0.289865
	H15	H	0.170013	0.409341	0.290487
	H16	H	0.407680	0.721343	0.841090
	H17	H	0.604929	0.720043	0.168076
	H18	H	0.605939	0.289877	0.841689
	H19	H	0.407991	0.291795	0.168276
	H20	H	0.723054	0.843115	0.405356
	H21	H	0.722772	0.169320	0.604033
	H22	H	0.290680	0.843981	0.605298
	H23	H	0.291905	0.169582	0.405287
	H24	H	0.909635	0.341682	0.217384
	H25	H	0.103351	0.669728	0.217516
	H26	H	0.103967	0.342482	0.789380
	H27	H	0.908789	0.670150	0.790586
	H28	H	0.222807	0.907395	0.340996
	H29	H	0.220853	0.105438	0.668425
	H30	H	0.791882	0.105481	0.340657
	H31	H	0.793703	0.907407	0.667942
	H32	H	0.344362	0.220652	0.906451
	H33	H	0.669415	0.222565	0.105031
	H34	H	0.344443	0.790687	0.104888
	H35	H	0.669929	0.790367	0.906549
	H36	H	0.344224	0.908638	0.219405
	H37	H	0.670753	0.104345	0.219845
	H38	H	0.344245	0.104453	0.790006
	H39	H	0.670032	0.907037	0.790143
	H40	H	0.909994	0.219652	0.339757
	H41	H	0.106024	0.223166	0.667139
	H42	H	0.106236	0.791799	0.340815
	H43	H	0.908463	0.790899	0.667509
	H44	H	0.221281	0.342259	0.905119
	H45	H	0.221181	0.669537	0.102561
	H46	H	0.792147	0.342445	0.101906
	H47	H	0.789552	0.668752	0.903764
	H48	H	0.424422	0.119880	0.598613
	H49	H	0.597120	0.890547	0.602018
	H50	H	0.600788	0.121921	0.413638
	H51	H	0.409409	0.889438	0.412380
	H52	H	0.601953	0.411388	0.122026
	H53	H	0.601537	0.600224	0.887188
	H54	H	0.410000	0.597841	0.121526
	H55	H	0.417241	0.411195	0.888713
	H56	H	0.121778	0.600710	0.413506
	H57	H	0.893311	0.596076	0.595955
	H58	H	0.123204	0.407827	0.594447
	H59	H	0.892087	0.407917	0.417411
	H60	H	0.118342	0.418094	0.591163
	H61	H	0.890621	0.600442	0.600033
	H62	H	0.121766	0.597254	0.409581
	H63	H	0.891984	0.420638	0.409379
	H64	H	0.415236	0.596832	0.119193
	H65	H	0.598958	0.595980	0.888419
	H66	H	0.601780	0.416348	0.120235
	H67	H	0.411236	0.412533	0.887366
	H68	H	0.601168	0.121570	0.411601
	H69	H	0.598032	0.893026	0.591862
	H70	H	0.407929	0.120857	0.588727
	H71	H	0.417528	0.890183	0.409115
	H72	H	0.918480	0.620302	0.099359
	H73	H	0.098286	0.392145	0.091293
	H74	H	0.099317	0.621237	0.913131
	H75	H	0.919119	0.393124	0.914522
	H76	H	0.097321	0.917739	0.618901
	H77	H	0.097420	0.097733	0.389147
	H78	H	0.916354	0.101053	0.619738
	H79	H	0.922138	0.912351	0.389493
	H80	H	0.625036	0.100160	0.905875
	H81	H	0.391390	0.107796	0.091342
	H82	H	0.621512	0.913954	0.096380
	H83	H	0.390709	0.909957	0.912434
	H84	H	0.623134	0.913368	0.100697
	H85	H	0.396004	0.089227	0.094735
	H86	H	0.623307	0.104360	0.917818
	H87	H	0.393170	0.914768	0.914244
	H88	H	0.912575	0.099650	0.620923
	H89	H	0.100777	0.103488	0.386686
	H90	H	0.097597	0.910113	0.621088
	H91	H	0.910054	0.907724	0.384461
	H92	H	0.100307	0.622286	0.912252
	H93	H	0.106821	0.387392	0.097257
	H94	H	0.912033	0.619879	0.090920
	H95	H	0.907033	0.389564	0.914409
	H96	H	0.408496	0.126960	0.607222
	H97	H	0.606783	0.888772	0.597108
	H98	H	0.599516	0.121727	0.412517
	H99	H	0.415948	0.892597	0.417146
	H100	H	0.596916	0.413503	0.120331
	H101	H	0.597176	0.600384	0.888620
	H102	H	0.414269	0.602248	0.121840
	H103	H	0.414775	0.417288	0.889167
	H104	H	0.123961	0.602207	0.409014
	H105	H	0.891722	0.602035	0.593948
	H106	H	0.123031	0.416982	0.602530
	H107	H	0.887259	0.408266	0.403424
	H108	H	0.909063	0.624328	0.100409
	H109	H	0.096494	0.390245	0.102178
	H110	H	0.098506	0.621301	0.911676
	H111	H	0.914185	0.388561	0.903640
	H112	H	0.103990	0.914940	0.621286
	H113	H	0.103649	0.097281	0.387458
	H114	H	0.915602	0.096747	0.619788
	H115	H	0.911532	0.920465	0.388844
	H116	H	0.619830	0.092575	0.914709
	H117	H	0.387928	0.100786	0.109163
	H118	H	0.624380	0.910054	0.097723
	H119	H	0.390778	0.913901	0.909196
	C120	C	0.385054	0.014809	0.627034
	C121	C	0.629433	0.998247	0.626318
	C122	C	0.629342	0.014135	0.383441
	C123	C	0.385884	0.998299	0.384105
	C124	C	0.628620	0.384576	0.012828
	C125	C	0.627825	0.627202	0.996196
	C126	C	0.384617	0.627748	0.013013
	C127	C	0.385481	0.384856	0.996064
	C128	C	0.014782	0.628301	0.382186
	C129	C	0.999421	0.628347	0.625806
	C130	C	0.014143	0.385729	0.625070
	C131	C	0.998296	0.384475	0.381951
	C132	C	0.885050	0.513868	0.125409
	C133	C	0.128384	0.498028	0.125469
	C134	C	0.128434	0.513862	0.882535
	C135	C	0.884576	0.498205	0.882417
	C136	C	0.128357	0.885543	0.512290
	C137	C	0.128811	0.128426	0.496246
	C138	C	0.886064	0.127653	0.512057
	C139	C	0.885931	0.884782	0.495904
	C140	C	0.515101	0.127564	0.884003
	C141	C	0.499176	0.127890	0.127208
	C142	C	0.515528	0.884217	0.126966
	C143	C	0.499026	0.884220	0.883413
	C144	C	0.388341	0.891816	0.681679
	C145	C	0.626285	0.121058	0.681635
	C146	C	0.626294	0.891272	0.328767
	C147	C	0.388769	0.120740	0.328486
	C148	C	0.683540	0.386265	0.889472
	C149	C	0.683359	0.624818	0.119103
	C150	C	0.329850	0.625421	0.889754
	C151	C	0.329742	0.386899	0.119039
	C152	C	0.892237	0.683370	0.384868
	C153	C	0.121644	0.683604	0.623533
	C154	C	0.891866	0.329864	0.623025
	C155	C	0.121109	0.329771	0.384388
	C156	C	0.891435	0.388376	0.680194
	C157	C	0.121667	0.625985	0.681523
	C158	C	0.892139	0.624985	0.327317
	C159	C	0.121161	0.388106	0.327645
	C160	C	0.387197	0.683255	0.889926
	C161	C	0.625427	0.682173	0.119373
	C162	C	0.626178	0.328391	0.890095
	C163	C	0.387581	0.329541	0.119375
	C164	C	0.684877	0.891629	0.385400
	C165	C	0.684573	0.120696	0.624244
	C166	C	0.329063	0.892602	0.625491
	C167	C	0.330400	0.121013	0.385671
	C168	C	0.888505	0.390710	0.179940
	C169	C	0.124434	0.621122	0.179887
	C170	C	0.125352	0.391173	0.826945
	C171	C	0.887367	0.620975	0.827581
	C172	C	0.184402	0.887435	0.389795
	C173	C	0.183566	0.126302	0.619324
	C174	C	0.830317	0.125689	0.389190
	C175	C	0.831030	0.886943	0.619007
	C176	C	0.392926	0.182862	0.885881
	C177	C	0.621125	0.183886	0.125161
	C178	C	0.392926	0.829159	0.124687
	C179	C	0.621394	0.828587	0.885869
	C180	C	0.392826	0.887479	0.181831
	C181	C	0.621945	0.124879	0.181888
	C182	C	0.392836	0.124881	0.828273
	C183	C	0.621443	0.886565	0.828068
	C184	C	0.888888	0.182238	0.388737
	C185	C	0.126241	0.184501	0.618698
	C186	C	0.126630	0.829806	0.389710
	C187	C	0.888083	0.829067	0.618867
	C188	C	0.183811	0.391254	0.884193
	C189	C	0.182935	0.620947	0.122978
	C190	C	0.830146	0.390901	0.122572
	C191	C	0.828655	0.620456	0.884233
	C192	C	0.407174	0.100343	0.604764
	C193	C	0.607158	0.912806	0.603642
	C194	C	0.607079	0.099778	0.405977
	C195	C	0.407831	0.912803	0.406513
	C196	C	0.606658	0.407259	0.098636
	C197	C	0.605694	0.605244	0.910239
	C198	C	0.406663	0.605521	0.098621
	C199	C	0.407901	0.407057	0.910495
	C200	C	0.100551	0.606474	0.404135
	C201	C	0.913941	0.605923	0.603375
	C202	C	0.099498	0.407939	0.602674
	C203	C	0.912464	0.406051	0.403780
	C204	C	0.906850	0.599427	0.103483
	C205	C	0.106941	0.412241	0.103419
	C206	C	0.106022	0.599536	0.905530
	C207	C	0.906885	0.412540	0.904426
	C208	C	0.106076	0.907819	0.598414
	C209	C	0.107056	0.106047	0.410037
	C210	C	0.908340	0.105487	0.597814
	C211	C	0.908082	0.907131	0.409880
	C212	C	0.600903	0.105624	0.906394
	C213	C	0.413732	0.105812	0.104986
	C214	C	0.600818	0.905973	0.104822
	C215	C	0.413627	0.906367	0.905535
	Zn216	Zn	0.507546	0.006267	0.754987
	Zn217	Zn	0.507651	0.005797	0.255449
	Zn218	Zn	0.756363	0.505912	0.003684
	Zn219	Zn	0.256956	0.505865	0.004068
	Zn220	Zn	0.007209	0.757085	0.504210
	Zn221	Zn	0.006903	0.256548	0.503740
	Zn222	Zn	0.006364	0.506606	0.754184
	Zn223	Zn	0.006909	0.505890	0.254002
	Zn224	Zn	0.506560	0.755544	0.005033
	Zn225	Zn	0.506909	0.256839	0.005264
	Zn226	Zn	0.758002	0.006060	0.504430
	Zn227	Zn	0.257052	0.006598	0.504958
	N228	N	0.422479	0.968842	0.682766
	N229	N	0.592654	0.043796	0.683021
	N230	N	0.592585	0.968551	0.327504
	N231	N	0.422542	0.043601	0.327505
	N232	N	0.684979	0.420519	0.966921
	N233	N	0.684972	0.591314	0.041414
	N234	N	0.328179	0.591612	0.967120
	N235	N	0.328255	0.420578	0.041699
	N236	N	0.969548	0.685470	0.418384
	N237	N	0.044617	0.685172	0.589694
	N238	N	0.969186	0.328132	0.589584
	N239	N	0.043676	0.327490	0.417619
	N240	N	0.968398	0.422396	0.681598
	N241	N	0.044426	0.592354	0.683036
	N242	N	0.969344	0.591412	0.325817
	N243	N	0.043920	0.421510	0.326184
	N244	N	0.420548	0.684999	0.967631
	N245	N	0.591616	0.683774	0.042005
	N246	N	0.592832	0.327334	0.967716
	N247	N	0.421760	0.328401	0.042117
	N248	N	0.686612	0.969003	0.418975
	N249	N	0.686744	0.043368	0.590679
	N250	N	0.326979	0.969979	0.592289
	N251	N	0.328638	0.043832	0.419603
	N252	N	0.922061	0.467922	0.181561
	N253	N	0.091421	0.543728	0.181522
	N254	N	0.091686	0.468550	0.825871
	N255	N	0.921449	0.543822	0.826505
	N256	N	0.185376	0.921490	0.467213
	N257	N	0.185299	0.092373	0.541901
	N258	N	0.828449	0.092448	0.466895
	N259	N	0.829455	0.920807	0.541428
	N260	N	0.470078	0.184542	0.919819
	N261	N	0.543838	0.185683	0.091697
	N262	N	0.470267	0.826752	0.091416
	N263	N	0.544201	0.827018	0.919450
	N264	N	0.469951	0.920885	0.183475
	N265	N	0.545001	0.090752	0.183286
	N266	N	0.469859	0.091140	0.827198
	N267	N	0.544460	0.920391	0.826366
	N268	N	0.922690	0.183688	0.466227
	N269	N	0.093025	0.185845	0.541031
	N270	N	0.092696	0.828621	0.467017
	N271	N	0.921723	0.827913	0.541447
	N272	N	0.185761	0.468581	0.917978
	N273	N	0.185643	0.543439	0.089856
	N274	N	0.827777	0.468486	0.089423
	N275	N	0.826847	0.543113	0.917532
	O276	O	0.507183	0.524903	0.519600
	H277	H	0.496788	0.529953	0.519525
	H278	H	0.509293	0.521481	0.513845
	O279	O	0.013322	-0.060433	-0.057564
	H280	H	0.009235	-0.061943	-0.056309
	H281	H	0.015401	-0.056863	-0.064642
	O282	O	0.469193	0.503739	0.467290
	H283	H	0.473536	0.507347	0.469469
	H284	H	0.457983	0.503455	0.464652
	O285	O	0.477767	0.480738	0.553543
	H286	H	0.482103	0.475198	0.551320
	H287	H	0.484062	0.484177	0.559058
	O288	O	1.003095	-0.043008	-0.068554
	H289	H	1.002915	-0.043867	-0.073189
	H290	H	0.998995	-0.041498	-0.079790
	O291	O	-0.524078	0.508377	-0.502077
	H292	H	-0.527987	0.509026	-0.500146
	H293	H	-0.522431	0.512295	-0.504172
	O294	O	0.466744	0.494619	0.554448
	H295	H	0.462159	0.491748	0.558518
	H296	H	0.462163	0.490469	0.540044
	O297	O	0.024168	0.987564	-0.051290
	H298	H	0.022670	0.981248	-0.052956
	H299	H	0.026536	0.991007	-0.055115
	O300	O	0.984912	-0.018931	0.943050
	H301	H	0.980001	-0.017375	0.946827
	H302	H	0.994834	-0.012242	0.934492
	O303	O	0.471326	0.544093	0.494735
	H304	H	0.471382	0.544154	0.498641
	H305	H	0.475437	0.550772	0.495886
	O306	O	-0.016447	0.982582	0.910226
	H307	H	-0.016948	0.982879	0.920554
	H308	H	-0.019835	0.976409	0.906696
	O309	O	0.426407	0.518437	0.514479
	H310	H	0.424800	0.511642	0.512000
	H311	H	0.426282	0.516370	0.509319
