data_Molecule from HDF5

_cell_length_a		16.241100
_cell_length_b		16.376735
_cell_length_c		16.221035
_cell_angle_alpha	89.792764
_cell_angle_beta	89.887546
_cell_angle_gamma	90.370976
_symmetry_space_group_name_H-M	'P 1'
_symmetry_Int_Tables_number		1

loop_
	_symmetry_equiv_pos_as_xyz
	x,y,z

loop_
	_atom_site_label
	_atom_site_type_symbol
	_atom_site_fract_x
	_atom_site_fract_y
	_atom_site_fract_z
	H0	H	0.404777	0.838062	0.707297
	H1	H	0.604202	0.163693	0.705929
	H2	H	0.602247	0.837202	0.277952
	H3	H	0.406978	0.163437	0.275386
	H4	H	0.717156	0.403835	0.827589
	H5	H	0.718677	0.598304	0.155666
	H6	H	0.293129	0.597189	0.826677
	H7	H	0.289144	0.400677	0.156842
	H8	H	0.841179	0.716205	0.391692
	H9	H	0.169002	0.716547	0.589986
	H10	H	0.842351	0.283556	0.594054
	H11	H	0.169304	0.287076	0.392571
	H12	H	0.840812	0.402101	0.706162
	H13	H	0.169710	0.599096	0.704793
	H14	H	0.840576	0.598007	0.278245
	H15	H	0.169664	0.404552	0.278085
	H16	H	0.405791	0.715765	0.827793
	H17	H	0.605793	0.715625	0.155111
	H18	H	0.601385	0.288323	0.827575
	H19	H	0.402489	0.282380	0.155831
	H20	H	0.718441	0.837193	0.393448
	H21	H	0.721722	0.162572	0.590346
	H22	H	0.287257	0.838873	0.592190
	H23	H	0.291134	0.164858	0.392507
	H24	H	0.904689	0.338093	0.208322
	H25	H	0.103622	0.664350	0.205301
	H26	H	0.102611	0.338104	0.776879
	H27	H	0.908634	0.664133	0.777848
	H28	H	0.216827	0.905588	0.327195
	H29	H	0.220029	0.099178	0.655619
	H30	H	0.793464	0.097487	0.326825
	H31	H	0.790617	0.901862	0.655924
	H32	H	0.341157	0.215971	0.890872
	H33	H	0.667728	0.217391	0.092433
	H34	H	0.341528	0.782249	0.093223
	H35	H	0.668841	0.788252	0.893468
	H36	H	0.340269	0.901536	0.205754
	H37	H	0.669340	0.097738	0.204079
	H38	H	0.340116	0.096871	0.779010
	H39	H	0.668411	0.903441	0.777805
	H40	H	0.906383	0.216768	0.328814
	H41	H	0.106169	0.215930	0.656742
	H42	H	0.103529	0.787886	0.327856
	H43	H	0.903558	0.784330	0.655334
	H44	H	0.218646	0.337728	0.892727
	H45	H	0.222168	0.662851	0.090812
	H46	H	0.788157	0.338343	0.091331
	H47	H	0.791994	0.664166	0.892829
	H48	H	0.413741	0.113574	0.575872
	H49	H	0.595077	0.884782	0.586976
	H50	H	0.596986	0.115820	0.397534
	H51	H	0.403648	0.881761	0.394304
	H52	H	0.606730	0.408742	0.111479
	H53	H	0.593690	0.604369	0.873040
	H54	H	0.410520	0.589678	0.108391
	H55	H	0.410351	0.407287	0.874843
	H56	H	0.119982	0.593064	0.403098
	H57	H	0.887537	0.594832	0.586029
	H58	H	0.124242	0.413781	0.595591
	H59	H	0.887538	0.402656	0.402545
	H60	H	0.124518	0.396923	0.582715
	H61	H	0.888508	0.593975	0.583835
	H62	H	0.122544	0.593315	0.395772
	H63	H	0.891554	0.410180	0.404813
	H64	H	0.416812	0.590627	0.107074
	H65	H	0.608106	0.595101	0.871068
	H66	H	0.589882	0.416028	0.104243
	H67	H	0.412325	0.407469	0.876415
	H68	H	0.600241	0.115875	0.399628
	H69	H	0.597919	0.885287	0.584473
	H70	H	0.404016	0.120689	0.588358
	H71	H	0.418108	0.886651	0.396252
	H72	H	0.911248	0.616474	0.085986
	H73	H	0.090566	0.385773	0.091162
	H74	H	0.103161	0.616707	0.901148
	H75	H	0.909477	0.383180	0.894435
	H76	H	0.100178	0.904948	0.611086
	H77	H	0.101888	0.087826	0.376616
	H78	H	0.919291	0.102869	0.609770
	H79	H	0.915907	0.914640	0.377850
	H80	H	0.620449	0.094128	0.902717
	H81	H	0.389649	0.086978	0.083732
	H82	H	0.621550	0.899146	0.078225
	H83	H	0.386225	0.905962	0.896409
	H84	H	0.618203	0.916074	0.082033
	H85	H	0.386390	0.093483	0.087814
	H86	H	0.620916	0.093013	0.896561
	H87	H	0.387660	0.902591	0.903461
	H88	H	0.901389	0.092148	0.612208
	H89	H	0.088540	0.095118	0.378477
	H90	H	0.097139	0.913437	0.608269
	H91	H	0.915699	0.901200	0.374078
	H92	H	0.100451	0.617628	0.893449
	H93	H	0.092904	0.388502	0.078220
	H94	H	0.911394	0.616731	0.084479
	H95	H	0.914874	0.386853	0.901147
	H96	H	0.419977	0.116184	0.591837
	H97	H	0.598595	0.883194	0.587572
	H98	H	0.599969	0.116757	0.396411
	H99	H	0.408476	0.887464	0.408452
	H100	H	0.590231	0.397835	0.110954
	H101	H	0.593299	0.587350	0.877836
	H102	H	0.413519	0.594570	0.108702
	H103	H	0.412063	0.405332	0.875415
	H104	H	0.121684	0.599826	0.399802
	H105	H	0.888327	0.593072	0.585845
	H106	H	0.116974	0.415241	0.575508
	H107	H	0.888525	0.409278	0.396850
	H108	H	0.910313	0.617504	0.085902
	H109	H	0.102675	0.383070	0.086117
	H110	H	0.095253	0.614679	0.899474
	H111	H	0.905951	0.384877	0.902830
	H112	H	0.091680	0.905738	0.607951
	H113	H	0.100698	0.102618	0.372330
	H114	H	0.919020	0.082574	0.603531
	H115	H	0.904579	0.908536	0.371903
	H116	H	0.622566	0.098475	0.898389
	H117	H	0.389260	0.094272	0.079261
	H118	H	0.624989	0.905485	0.094387
	H119	H	0.389474	0.910097	0.902251
	C120	C	0.382698	0.009300	0.614139
	C121	C	0.626662	0.991963	0.614409
	C122	C	0.626859	0.008266	0.369786
	C123	C	0.382446	0.992948	0.370250
	C124	C	0.624684	0.379873	0.000352
	C125	C	0.626930	0.622906	0.982814
	C126	C	0.384487	0.620754	-0.000285
	C127	C	0.382019	0.377254	0.983763
	C128	C	0.013234	0.623168	0.370628
	C129	C	0.996582	0.622532	0.613258
	C130	C	0.013707	0.379293	0.613928
	C131	C	0.997197	0.379398	0.371310
	C132	C	0.881960	0.509252	0.114884
	C133	C	0.125881	0.492798	0.113761
	C134	C	0.127282	0.508897	0.869523
	C135	C	0.882918	0.492849	0.870490
	C136	C	0.125068	0.880294	0.500412
	C137	C	0.126726	0.123199	0.483690
	C138	C	0.883765	0.122103	0.500560
	C139	C	0.882895	0.878876	0.483023
	C140	C	0.513037	0.122397	0.870668
	C141	C	0.496400	0.121244	0.112771
	C142	C	0.513013	0.877757	0.113877
	C143	C	0.496019	0.878939	0.871205
	C144	C	0.384266	0.886752	0.669548
	C145	C	0.624701	0.114781	0.668567
	C146	C	0.623212	0.885717	0.315448
	C147	C	0.386164	0.115244	0.314069
	C148	C	0.679603	0.383274	0.876645
	C149	C	0.681233	0.618908	0.106619
	C150	C	0.329968	0.618080	0.876088
	C151	C	0.326831	0.379865	0.107543
	C152	C	0.889944	0.678134	0.371866
	C153	C	0.120122	0.678196	0.610635
	C154	C	0.891051	0.322552	0.613283
	C155	C	0.120273	0.324762	0.372575
	C156	C	0.890352	0.381357	0.669264
	C157	C	0.120455	0.619679	0.667478
	C158	C	0.889572	0.619293	0.315760
	C159	C	0.120465	0.383140	0.315578
	C160	C	0.386166	0.676812	0.876501
	C161	C	0.625295	0.677390	0.106323
	C162	C	0.622206	0.325532	0.876812
	C163	C	0.382948	0.320946	0.106862
	C164	C	0.680911	0.885855	0.372995
	C165	C	0.683159	0.114126	0.611090
	C166	C	0.326205	0.887063	0.611847
	C167	C	0.328330	0.115759	0.372056
	C168	C	0.883956	0.386815	0.170385
	C169	C	0.124386	0.615559	0.168055
	C170	C	0.123380	0.386482	0.814793
	C171	C	0.887099	0.615361	0.815418
	C172	C	0.179893	0.884286	0.376615
	C173	C	0.182444	0.120260	0.607087
	C174	C	0.830009	0.119002	0.376513
	C175	C	0.828108	0.881188	0.606818
	C176	C	0.389746	0.177344	0.871810
	C177	C	0.619275	0.178008	0.111394
	C178	C	0.390305	0.821050	0.112858
	C179	C	0.619675	0.825108	0.872922
	C180	C	0.389541	0.880275	0.168845
	C181	C	0.620168	0.118768	0.167132
	C182	C	0.389120	0.118362	0.815954
	C183	C	0.619522	0.882784	0.815892
	C184	C	0.886041	0.178323	0.377431
	C185	C	0.125626	0.178013	0.607432
	C186	C	0.123636	0.825625	0.376929
	C187	C	0.884315	0.822978	0.606508
	C188	C	0.180968	0.386246	0.872415
	C189	C	0.183038	0.614695	0.111053
	C190	C	0.826073	0.387029	0.112390
	C191	C	0.829468	0.615485	0.873089
	C192	C	0.405591	0.094759	0.591685
	C193	C	0.603848	0.906473	0.592916
	C194	C	0.605353	0.094000	0.391428
	C195	C	0.403856	0.907373	0.393052
	C196	C	0.602238	0.401191	0.086603
	C197	C	0.604809	0.601937	0.896411
	C198	C	0.407017	0.598075	0.085863
	C199	C	0.404733	0.400029	0.897755
	C200	C	0.099025	0.601649	0.392994
	C201	C	0.910595	0.600451	0.591623
	C202	C	0.099750	0.402062	0.591304
	C203	C	0.911138	0.401111	0.394477
	C204	C	0.904482	0.594891	0.092305
	C205	C	0.102271	0.407775	0.091590
	C206	C	0.105958	0.594408	0.891508
	C207	C	0.904158	0.407145	0.892910
	C208	C	0.102785	0.901766	0.586737
	C209	C	0.103732	0.101631	0.397942
	C210	C	0.906430	0.099123	0.586358
	C211	C	0.905467	0.901482	0.396915
	C212	C	0.598959	0.101490	0.892797
	C213	C	0.410631	0.098223	0.090162
	C214	C	0.599273	0.900247	0.091391
	C215	C	0.410037	0.899828	0.893929
	Zn216	Zn	0.504255	0.000749	0.743268
	Zn217	Zn	0.505133	0.000155	0.241471
	Zn218	Zn	0.753701	0.500911	-0.008268
	Zn219	Zn	0.255082	0.499895	-0.008318
	Zn220	Zn	0.004597	0.751869	0.491761
	Zn221	Zn	0.005520	0.250655	0.492849
	Zn222	Zn	0.004846	0.500941	0.741842
	Zn223	Zn	0.004794	0.501281	0.243110
	Zn224	Zn	0.505248	0.749925	-0.008154
	Zn225	Zn	0.503994	0.250189	-0.007788
	Zn226	Zn	0.755400	-0.000213	0.491348
	Zn227	Zn	0.253614	0.001743	0.492124
	N228	N	0.418713	0.963580	0.670927
	N229	N	0.590224	0.037843	0.670594
	N230	N	0.590482	0.963001	0.313288
	N231	N	0.418750	0.037826	0.312601
	N232	N	0.681197	0.416578	0.954409
	N233	N	0.682272	0.585674	0.028863
	N234	N	0.328974	0.583692	0.953674
	N235	N	0.325692	0.413847	0.029847
	N236	N	0.967720	0.680527	0.405571
	N237	N	0.042229	0.680208	0.577502
	N238	N	0.968841	0.321131	0.579604
	N239	N	0.042611	0.322367	0.406619
	N240	N	0.967738	0.416125	0.669713
	N241	N	0.042637	0.585794	0.669239
	N242	N	0.967037	0.585949	0.314818
	N243	N	0.042761	0.416416	0.314824
	N244	N	0.419360	0.678638	0.954447
	N245	N	0.592092	0.679947	0.028354
	N246	N	0.588964	0.323210	0.954797
	N247	N	0.416411	0.319245	0.028982
	N248	N	0.683240	0.963152	0.405908
	N249	N	0.684431	0.036803	0.578051
	N250	N	0.324976	0.964377	0.578335
	N251	N	0.325899	0.038714	0.406290
	N252	N	0.917910	0.463952	0.172056
	N253	N	0.089605	0.538683	0.169870
	N254	N	0.090992	0.463932	0.812680
	N255	N	0.919371	0.537965	0.813451
	N256	N	0.180813	0.917729	0.454357
	N257	N	0.183038	0.086759	0.529520
	N258	N	0.828333	0.084931	0.454250
	N259	N	0.827037	0.915262	0.529113
	N260	N	0.467449	0.179836	0.905170
	N261	N	0.541327	0.179742	0.078465
	N262	N	0.468105	0.819601	0.079400
	N263	N	0.541929	0.822521	0.906755
	N264	N	0.466922	0.915039	0.169508
	N265	N	0.542829	0.083959	0.167983
	N266	N	0.466627	0.084790	0.815312
	N267	N	0.541772	0.915696	0.814850
	N268	N	0.918967	0.180174	0.455408
	N269	N	0.091849	0.180081	0.529729
	N270	N	0.090372	0.823189	0.454892
	N271	N	0.917631	0.821507	0.528580
	N272	N	0.183321	0.463231	0.905793
	N273	N	0.184119	0.537457	0.077987
	N274	N	0.824868	0.464062	0.078468
	N275	N	0.826747	0.538077	0.906611
	O276	O	1.050672	1.064557	-0.080586
	H277	H	1.046579	1.054262	-0.070738
	H278	H	1.054305	1.085070	-0.092472
	O279	O	0.054152	0.075345	1.001119
	H280	H	0.049167	0.072650	1.002278
	H281	H	0.068104	0.083390	1.003057
	O282	O	0.056849	0.077422	-0.005342
	H283	H	0.056200	0.069879	-0.002671
	H284	H	0.045743	0.080450	0.005762
	O285	O	0.484043	0.461022	0.525678
	H286	H	0.488533	0.465080	0.520151
	H287	H	0.488548	0.468810	0.528528
	O288	O	-0.041349	0.014440	0.021648
	H289	H	-0.052049	0.006836	0.018489
	H290	H	-0.041533	0.007285	0.027011
	O291	O	0.008591	0.976028	0.073308
	H292	H	0.005279	0.981533	0.061527
	H293	H	0.009170	0.976820	0.066694
	O294	O	-0.030238	0.991287	0.089044
	H295	H	-0.036635	0.986816	0.084330
	H296	H	-0.027238	0.990551	0.102140
	O297	O	0.571317	0.442100	0.487305
	H298	H	0.557888	0.438810	0.479650
	H299	H	0.582693	0.439450	0.483938
	O300	O	0.581075	0.476453	0.464910
	H301	H	0.577634	0.469149	0.457099
	H302	H	0.581126	0.474191	0.457893
	O303	O	1.007870	0.002438	1.029341
	H304	H	1.010525	0.000486	1.032751
	H305	H	1.008982	-0.002148	1.030585
	O306	O	-0.007977	0.931633	1.008186
	H307	H	-0.004503	0.927445	1.007264
	H308	H	-0.006681	0.927300	1.018211
	O309	O	0.015757	0.978812	0.929447
	H310	H	0.025319	0.987416	0.918426
	H311	H	0.017131	0.981725	0.923006
	O312	O	0.044539	-0.012087	1.025188
	H313	H	0.042537	-0.019696	1.024669
	H314	H	0.049880	-0.004977	1.010727
	O315	O	0.497609	0.488689	0.430915
	H316	H	0.491617	0.490680	0.439376
	H317	H	0.501796	0.498084	0.426751
	O318	O	0.074793	0.047625	0.993006
	H319	H	0.074825	0.042421	1.000248
	H320	H	0.083276	0.061283	0.995994
	O321	O	0.550026	0.493263	0.425661
	H322	H	0.552528	0.505255	0.415153
	H323	H	0.547562	0.484728	0.421317
	O324	O	1.007080	0.030951	1.035879
	H325	H	1.003954	0.034011	1.036410
	H326	H	1.018987	0.035435	1.031130
	O327	O	0.930144	1.079305	0.945013
	H328	H	0.927339	1.080409	0.948384
	H329	H	0.930706	1.071518	0.952000
	O330	O	0.507849	0.513388	0.477246
	H331	H	0.502226	0.512285	0.473706
	H332	H	0.507235	0.515291	0.469927
	O333	O	-0.026747	-0.001525	0.968369
	H334	H	-0.028623	0.003122	0.966796
	H335	H	-0.024089	0.008716	0.965591
	O336	O	0.532564	0.487930	0.495851
	H337	H	0.539821	0.490911	0.500695
	H338	H	0.537107	0.491089	0.495001
	O339	O	0.458495	0.411837	0.488480
	H340	H	0.445898	0.404939	0.493388
	H341	H	0.467932	0.408289	0.504463
	O342	O	0.507354	0.508255	0.470337
	H343	H	0.506742	0.501700	0.481349
	H344	H	0.511980	0.508329	0.472021
	O345	O	0.476082	0.519403	0.500882
	H346	H	0.479169	0.512082	0.498834
	H347	H	0.476826	0.524584	0.497210
