data_Molecule from HDF5

_cell_length_a		16.210567
_cell_length_b		16.375856
_cell_length_c		16.308203
_cell_angle_alpha	90.057058
_cell_angle_beta	89.937484
_cell_angle_gamma	89.869270
_symmetry_space_group_name_H-M	'P 1'
_symmetry_Int_Tables_number		1

loop_
	_symmetry_equiv_pos_as_xyz
	x,y,z

loop_
	_atom_site_label
	_atom_site_type_symbol
	_atom_site_fract_x
	_atom_site_fract_y
	_atom_site_fract_z
	H0	H	0.407669	0.838964	0.707004
	H1	H	0.605302	0.163848	0.709379
	H2	H	0.606422	0.840163	0.274969
	H3	H	0.404800	0.164519	0.276235
	H4	H	0.720253	0.403383	0.828203
	H5	H	0.717874	0.598567	0.155941
	H6	H	0.291402	0.598615	0.827641
	H7	H	0.291319	0.403652	0.155720
	H8	H	0.841096	0.718818	0.394633
	H9	H	0.169572	0.716594	0.591790
	H10	H	0.842097	0.287308	0.593509
	H11	H	0.168824	0.286290	0.392557
	H12	H	0.840877	0.405351	0.705980
	H13	H	0.169197	0.600460	0.706725
	H14	H	0.839952	0.601700	0.279742
	H15	H	0.169213	0.404042	0.278603
	H16	H	0.405398	0.717154	0.828941
	H17	H	0.606888	0.719327	0.153462
	H18	H	0.605350	0.286007	0.828539
	H19	H	0.405570	0.286431	0.155049
	H20	H	0.721588	0.839617	0.393542
	H21	H	0.717184	0.166336	0.589578
	H22	H	0.291832	0.838986	0.591001
	H23	H	0.290148	0.165481	0.394390
	H24	H	0.904547	0.340163	0.209811
	H25	H	0.104046	0.665061	0.208385
	H26	H	0.105954	0.339450	0.774725
	H27	H	0.904567	0.664230	0.777510
	H28	H	0.220018	0.905187	0.329761
	H29	H	0.220387	0.101610	0.657552
	H30	H	0.792159	0.100985	0.329600
	H31	H	0.790674	0.905452	0.656439
	H32	H	0.340951	0.215982	0.892254
	H33	H	0.668706	0.215723	0.090175
	H34	H	0.342086	0.787136	0.091894
	H35	H	0.668314	0.784155	0.890450
	H36	H	0.341477	0.903939	0.206332
	H37	H	0.669337	0.101188	0.205723
	H38	H	0.340937	0.098827	0.778802
	H39	H	0.670052	0.903021	0.777757
	H40	H	0.905248	0.218628	0.331185
	H41	H	0.105825	0.219972	0.655907
	H42	H	0.105337	0.788103	0.330565
	H43	H	0.904496	0.787320	0.656189
	H44	H	0.219594	0.338414	0.893701
	H45	H	0.220261	0.664971	0.091074
	H46	H	0.791763	0.337770	0.090582
	H47	H	0.790126	0.664355	0.895464
	H48	H	0.409968	0.117146	0.581435
	H49	H	0.603392	0.884254	0.587533
	H50	H	0.605255	0.121469	0.392088
	H51	H	0.416481	0.886331	0.397316
	H52	H	0.602637	0.403716	0.109909
	H53	H	0.610220	0.591939	0.872981
	H54	H	0.413862	0.598393	0.108306
	H55	H	0.411824	0.411636	0.876903
	H56	H	0.122303	0.596957	0.398689
	H57	H	0.887127	0.593503	0.590468
	H58	H	0.121695	0.410898	0.582257
	H59	H	0.889824	0.410950	0.404433
	H60	H	0.122269	0.411233	0.585298
	H61	H	0.886818	0.601931	0.585058
	H62	H	0.121291	0.596168	0.401382
	H63	H	0.888610	0.412773	0.398007
	H64	H	0.409882	0.594017	0.108159
	H65	H	0.590442	0.582759	0.880798
	H66	H	0.598477	0.412702	0.106949
	H67	H	0.416866	0.405388	0.876078
	H68	H	0.588853	0.115897	0.394156
	H69	H	0.593968	0.887807	0.587870
	H70	H	0.409355	0.120288	0.591023
	H71	H	0.413936	0.888574	0.401620
	H72	H	0.910188	0.617830	0.089174
	H73	H	0.091850	0.389204	0.084733
	H74	H	0.098030	0.617005	0.899146
	H75	H	0.907690	0.385054	0.899173
	H76	H	0.094103	0.901754	0.610853
	H77	H	0.097568	0.091688	0.378885
	H78	H	0.915646	0.099120	0.609462
	H79	H	0.923967	0.899928	0.377329
	H80	H	0.619485	0.094786	0.909795
	H81	H	0.389088	0.085258	0.091173
	H82	H	0.620951	0.913797	0.082869
	H83	H	0.387804	0.905823	0.900337
	H84	H	0.623261	0.907510	0.085457
	H85	H	0.383918	0.104611	0.089123
	H86	H	0.621282	0.085236	0.894198
	H87	H	0.390200	0.910985	0.901235
	H88	H	0.908677	0.097865	0.611435
	H89	H	0.094413	0.096865	0.379125
	H90	H	0.106943	0.909771	0.611730
	H91	H	0.901867	0.908536	0.373128
	H92	H	0.096457	0.617411	0.899097
	H93	H	0.100636	0.387777	0.081703
	H94	H	0.914178	0.616105	0.086064
	H95	H	0.916207	0.385706	0.893300
	H96	H	0.417994	0.116106	0.587297
	H97	H	0.599128	0.888123	0.578432
	H98	H	0.600107	0.115631	0.407474
	H99	H	0.411132	0.886143	0.398178
	H100	H	0.593215	0.403819	0.107116
	H101	H	0.591160	0.605362	0.874241
	H102	H	0.414425	0.593062	0.106402
	H103	H	0.408082	0.404330	0.874056
	H104	H	0.121811	0.593908	0.398891
	H105	H	0.889617	0.593768	0.580847
	H106	H	0.122325	0.408629	0.583607
	H107	H	0.887510	0.406527	0.400598
	H108	H	0.909047	0.616692	0.084048
	H109	H	0.098391	0.385621	0.089972
	H110	H	0.097090	0.615915	0.900816
	H111	H	0.916734	0.387937	0.903703
	H112	H	0.093884	0.916520	0.606388
	H113	H	0.099970	0.096666	0.377102
	H114	H	0.912667	0.092402	0.609202
	H115	H	0.919189	0.922224	0.382923
	H116	H	0.626127	0.102902	0.894494
	H117	H	0.391494	0.093923	0.073451
	H118	H	0.621508	0.908219	0.079253
	H119	H	0.387896	0.909173	0.895914
	C120	C	0.383899	0.010046	0.614606
	C121	C	0.627213	0.994171	0.613578
	C122	C	0.628314	0.010872	0.368993
	C123	C	0.384035	0.994301	0.370616
	C124	C	0.627232	0.378774	0.000051
	C125	C	0.626528	0.622729	0.983433
	C126	C	0.383483	0.623409	-0.000267
	C127	C	0.383219	0.378945	0.983735
	C128	C	0.013321	0.624697	0.371207
	C129	C	0.996498	0.624763	0.614317
	C130	C	0.014048	0.381552	0.613454
	C131	C	0.996791	0.380895	0.371707
	C132	C	0.882643	0.509372	0.114864
	C133	C	0.126281	0.494627	0.114274
	C134	C	0.126730	0.509767	0.870448
	C135	C	0.883863	0.493294	0.870465
	C136	C	0.127627	0.880808	0.501861
	C137	C	0.126911	0.124429	0.485675
	C138	C	0.883638	0.124931	0.502009
	C139	C	0.884591	0.881578	0.485152
	C140	C	0.513692	0.122575	0.870905
	C141	C	0.496554	0.123204	0.112974
	C142	C	0.513999	0.880823	0.112492
	C143	C	0.496988	0.879722	0.870008
	C144	C	0.386798	0.887709	0.669478
	C145	C	0.625089	0.115685	0.670378
	C146	C	0.626907	0.888545	0.313293
	C147	C	0.385389	0.116287	0.315050
	C148	C	0.682533	0.382409	0.877101
	C149	C	0.681010	0.619809	0.106765
	C150	C	0.328611	0.619832	0.876828
	C151	C	0.328313	0.382397	0.106673
	C152	C	0.889686	0.680100	0.374381
	C153	C	0.120287	0.679441	0.612273
	C154	C	0.890745	0.325980	0.612712
	C155	C	0.119909	0.324623	0.372788
	C156	C	0.890293	0.384248	0.668869
	C157	C	0.120293	0.621481	0.669175
	C158	C	0.889442	0.622257	0.316925
	C159	C	0.120095	0.383015	0.316007
	C160	C	0.385356	0.678754	0.877319
	C161	C	0.625787	0.679780	0.105488
	C162	C	0.625333	0.324041	0.877208
	C163	C	0.385236	0.324016	0.106160
	C164	C	0.683803	0.888292	0.372462
	C165	C	0.680696	0.117099	0.610805
	C166	C	0.329364	0.887603	0.611911
	C167	C	0.328203	0.116633	0.373815
	C168	C	0.884814	0.387976	0.170817
	C169	C	0.124134	0.616581	0.169872
	C170	C	0.125366	0.387684	0.813980
	C171	C	0.884870	0.615662	0.815504
	C172	C	0.182630	0.884017	0.378776
	C173	C	0.182622	0.122003	0.608449
	C174	C	0.829269	0.121963	0.378734
	C175	C	0.828702	0.884755	0.607756
	C176	C	0.390099	0.178028	0.872746
	C177	C	0.620016	0.178003	0.110517
	C178	C	0.390713	0.825478	0.111321
	C179	C	0.619881	0.823141	0.871015
	C180	C	0.390672	0.883439	0.168420
	C181	C	0.620203	0.120867	0.167913
	C182	C	0.389934	0.119772	0.816277
	C183	C	0.620669	0.881996	0.814877
	C184	C	0.885573	0.180590	0.379587
	C185	C	0.125559	0.180786	0.607848
	C186	C	0.125961	0.825409	0.379222
	C187	C	0.885050	0.825672	0.607577
	C188	C	0.181849	0.387142	0.873012
	C189	C	0.182084	0.616476	0.111709
	C190	C	0.828668	0.386905	0.111478
	C191	C	0.828039	0.615793	0.874144
	C192	C	0.405942	0.095704	0.592862
	C193	C	0.605436	0.908697	0.591034
	C194	C	0.604890	0.095741	0.391295
	C195	C	0.407088	0.909131	0.392623
	C196	C	0.604813	0.400331	0.085925
	C197	C	0.603830	0.600067	0.898144
	C198	C	0.406068	0.601559	0.085440
	C199	C	0.405615	0.400706	0.897643
	C200	C	0.099458	0.602318	0.393093
	C201	C	0.910257	0.602747	0.591965
	C202	C	0.099992	0.403802	0.590682
	C203	C	0.910845	0.403432	0.394366
	C204	C	0.904482	0.594794	0.092857
	C205	C	0.103557	0.409545	0.091867
	C206	C	0.103786	0.594839	0.893011
	C207	C	0.906794	0.408085	0.892383
	C208	C	0.105006	0.902890	0.587384
	C209	C	0.104142	0.101606	0.400383
	C210	C	0.905853	0.102918	0.587827
	C211	C	0.908059	0.903628	0.399792
	C212	C	0.599845	0.100695	0.893019
	C213	C	0.410576	0.101054	0.091088
	C214	C	0.599825	0.903204	0.089421
	C215	C	0.411008	0.902061	0.892522
	Zn216	Zn	0.505650	0.001264	0.742841
	Zn217	Zn	0.505604	0.002288	0.240790
	Zn218	Zn	0.754856	0.501126	-0.007765
	Zn219	Zn	0.255489	0.501413	-0.007941
	Zn220	Zn	0.005743	0.752452	0.493310
	Zn221	Zn	0.005127	0.253368	0.493376
	Zn222	Zn	0.005186	0.502402	0.740996
	Zn223	Zn	0.004587	0.502227	0.243908
	Zn224	Zn	0.505383	0.751843	-0.008186
	Zn225	Zn	0.505025	0.250607	-0.008268
	Zn226	Zn	0.756133	0.003076	0.492620
	Zn227	Zn	0.255433	0.002266	0.493481
	N228	N	0.419827	0.964981	0.671338
	N229	N	0.592223	0.038305	0.672252
	N230	N	0.593092	0.965607	0.310893
	N231	N	0.419426	0.039221	0.312882
	N232	N	0.683541	0.415984	0.954487
	N233	N	0.681821	0.585194	0.029930
	N234	N	0.327534	0.586168	0.953997
	N235	N	0.326848	0.415756	0.029181
	N236	N	0.967686	0.681918	0.407318
	N237	N	0.042338	0.681355	0.578762
	N238	N	0.968624	0.324067	0.579076
	N239	N	0.042207	0.323130	0.406489
	N240	N	0.967847	0.418357	0.669152
	N241	N	0.042352	0.588537	0.670686
	N242	N	0.967374	0.588454	0.315011
	N243	N	0.042730	0.417398	0.315280
	N244	N	0.418634	0.681152	0.954821
	N245	N	0.592441	0.681542	0.027854
	N246	N	0.591681	0.321628	0.954692
	N247	N	0.418770	0.322102	0.028687
	N248	N	0.684818	0.965414	0.406179
	N249	N	0.682099	0.040485	0.576336
	N250	N	0.327389	0.964761	0.578632
	N251	N	0.327295	0.039801	0.407759
	N252	N	0.917647	0.465196	0.172891
	N253	N	0.090118	0.539704	0.171431
	N254	N	0.091652	0.464890	0.812333
	N255	N	0.918872	0.538652	0.813122
	N256	N	0.183522	0.917636	0.455917
	N257	N	0.183505	0.087724	0.531449
	N258	N	0.828097	0.087962	0.455676
	N259	N	0.828387	0.918775	0.530672
	N260	N	0.468106	0.179783	0.906051
	N261	N	0.542220	0.179570	0.077007
	N262	N	0.468396	0.823808	0.077194
	N263	N	0.542023	0.821624	0.904580
	N264	N	0.468345	0.917168	0.169217
	N265	N	0.542449	0.087468	0.169495
	N266	N	0.467593	0.085940	0.814916
	N267	N	0.543233	0.916605	0.814453
	N268	N	0.918582	0.182516	0.457265
	N269	N	0.091417	0.182198	0.530689
	N270	N	0.092427	0.823243	0.456844
	N271	N	0.919652	0.824046	0.530441
	N272	N	0.182802	0.463861	0.907423
	N273	N	0.183565	0.539468	0.077782
	N274	N	0.827156	0.463689	0.077244
	N275	N	0.827239	0.538763	0.907664
	O276	O	1.085143	0.982566	-0.075691
	H277	H	1.098651	0.986182	-0.074147
	H278	H	1.080152	0.994154	-0.057507
	O279	O	0.070584	0.089332	1.035050
	H280	H	0.072369	0.087819	1.044522
	H281	H	0.069991	0.090662	1.037231
	O282	O	-0.005532	0.064852	0.056225
	H283	H	-0.010297	0.062580	0.053763
	H284	H	-0.006871	0.050512	0.054744
	O285	O	0.519071	0.450584	0.479241
	H286	H	0.513366	0.461410	0.482975
	H287	H	0.510361	0.450739	0.474736
	O288	O	0.113281	-0.009547	-0.062995
	H289	H	0.108093	-0.001765	-0.059212
	H290	H	0.121408	-0.005810	-0.077081
	O291	O	0.048625	0.882322	0.035046
	H292	H	0.045053	0.885735	0.026893
	H293	H	0.047804	0.878234	0.031612
	O294	O	-0.064560	0.940173	0.014106
	H295	H	-0.063805	0.943107	0.018350
	H296	H	-0.060190	0.938636	0.020412
	O297	O	0.477743	0.572297	0.460936
	H298	H	0.482496	0.561152	0.460809
	H299	H	0.470013	0.575453	0.457337
	O300	O	0.544243	0.464708	0.469947
	H301	H	0.546293	0.465792	0.467549
	H302	H	0.543829	0.466770	0.481132
	O303	O	0.892523	0.029056	0.972278
	H304	H	0.879725	0.038069	0.973639
	H305	H	0.890150	0.019817	0.960634
	O306	O	0.028907	0.985741	0.941684
	H307	H	0.042209	0.982489	0.939087
	H308	H	0.033121	0.995970	0.940993
	O309	O	0.010463	0.964858	1.073690
	H310	H	0.005957	0.968848	1.075029
	H311	H	0.004342	0.970892	1.071036
	O312	O	0.041279	-0.055571	0.997139
	H313	H	0.030919	-0.054899	1.002295
	H314	H	0.039938	-0.057181	0.991608
	O315	O	0.495481	0.449849	0.421178
	H316	H	0.497802	0.428535	0.424332
	H317	H	0.500780	0.444135	0.424580
	O318	O	-0.048899	-0.016746	0.986403
	H319	H	-0.045229	-0.009530	0.985602
	H320	H	-0.045354	-0.012091	0.986654
	O321	O	0.487040	0.485611	0.477227
	H322	H	0.486201	0.501161	0.472516
	H323	H	0.491941	0.485823	0.471109
	O324	O	1.017524	-0.044312	1.056138
	H325	H	0.997855	-0.048279	1.051272
	H326	H	1.019075	-0.033164	1.064551
	O327	O	0.983810	1.039231	1.008780
	H328	H	0.983573	1.035586	1.014325
	H329	H	0.978544	1.035484	0.999475
	O330	O	0.499050	0.531734	0.462150
	H331	H	0.497221	0.541927	0.455065
	H332	H	0.500828	0.533227	0.464528
	O333	O	-0.013742	-0.035257	1.001687
	H334	H	-0.016859	-0.047576	0.995579
	H335	H	-0.012598	-0.041679	1.002596
	O336	O	1.023039	0.014921	1.050329
	H337	H	1.019756	0.006310	1.059836
	H338	H	1.037276	0.023285	1.041662
	O339	O	0.475295	0.493053	0.483380
	H340	H	0.476182	0.482416	0.491147
	H341	H	0.466479	0.503115	0.479651
	O342	O	0.036036	1.031986	0.002381
	H343	H	0.036634	1.036631	-0.003209
	H344	H	0.054786	1.026222	0.003658
	O345	O	0.501361	0.535561	0.403689
	H346	H	0.506140	0.545191	0.390378
	H347	H	0.495701	0.523782	0.399328
