data_Molecule from HDF5

_cell_length_a		16.730784
_cell_length_b		16.695445
_cell_length_c		16.533753
_cell_angle_alpha	90.150839
_cell_angle_beta	89.903870
_cell_angle_gamma	89.827518
_symmetry_space_group_name_H-M	'P 1'
_symmetry_Int_Tables_number		1

loop_
	_symmetry_equiv_pos_as_xyz
	x,y,z

loop_
	_atom_site_label
	_atom_site_type_symbol
	_atom_site_fract_x
	_atom_site_fract_y
	_atom_site_fract_z
	H0	H	0.398184	0.841241	0.729497
	H1	H	0.609556	0.149374	0.728032
	H2	H	0.607608	0.840151	0.285288
	H3	H	0.402198	0.151802	0.288576
	H4	H	0.722979	0.392099	0.849784
	H5	H	0.722823	0.598907	0.162987
	H6	H	0.278599	0.607009	0.852878
	H7	H	0.282598	0.391034	0.161273
	H8	H	0.849698	0.716221	0.401612
	H9	H	0.158452	0.715299	0.611539
	H10	H	0.850858	0.271961	0.612473
	H11	H	0.159461	0.274363	0.400873
	H12	H	0.850792	0.388645	0.728914
	H13	H	0.157344	0.601485	0.728744
	H14	H	0.847099	0.596080	0.288898
	H15	H	0.160160	0.393332	0.287153
	H16	H	0.395635	0.720136	0.852060
	H17	H	0.607091	0.714868	0.163348
	H18	H	0.607160	0.277582	0.848597
	H19	H	0.399616	0.276500	0.161855
	H20	H	0.725216	0.839625	0.400098
	H21	H	0.727721	0.148815	0.613591
	H22	H	0.278502	0.844208	0.618500
	H23	H	0.280426	0.147281	0.399278
	H24	H	0.900318	0.340253	0.225817
	H25	H	0.105565	0.650330	0.226367
	H26	H	0.112581	0.342432	0.780894
	H27	H	0.897727	0.649190	0.783650
	H28	H	0.226538	0.887853	0.350531
	H29	H	0.226676	0.101859	0.660193
	H30	H	0.786243	0.096819	0.348626
	H31	H	0.783421	0.888551	0.660709
	H32	H	0.349506	0.217332	0.900443
	H33	H	0.658960	0.216086	0.110128
	H34	H	0.353715	0.770127	0.117095
	H35	H	0.658686	0.771837	0.899456
	H36	H	0.351746	0.890013	0.230454
	H37	H	0.659963	0.098175	0.224388
	H38	H	0.349282	0.098361	0.786221
	H39	H	0.658545	0.887156	0.782907
	H40	H	0.902507	0.211735	0.348056
	H41	H	0.111413	0.218528	0.659241
	H42	H	0.110654	0.773492	0.349385
	H43	H	0.898723	0.772856	0.661124
	H44	H	0.230083	0.343310	0.895648
	H45	H	0.228207	0.647182	0.116020
	H46	H	0.784037	0.339843	0.109778
	H47	H	0.781426	0.649137	0.899777
	H48	H	0.419491	0.104826	0.596655
	H49	H	0.592875	0.885400	0.592352
	H50	H	0.597044	0.107505	0.416712
	H51	H	0.415390	0.885570	0.421291
	H52	H	0.596052	0.402995	0.121006
	H53	H	0.596008	0.584076	0.892740
	H54	H	0.405764	0.578865	0.119367
	H55	H	0.416987	0.413398	0.895515
	H56	H	0.116250	0.579909	0.409524
	H57	H	0.893324	0.588919	0.587968
	H58	H	0.115827	0.408253	0.597678
	H59	H	0.894113	0.403403	0.419007
	H60	H	0.114718	0.401101	0.588787
	H61	H	0.897361	0.577278	0.590410
	H62	H	0.117894	0.591817	0.415030
	H63	H	0.891572	0.405135	0.410849
	H64	H	0.424053	0.574543	0.110232
	H65	H	0.592387	0.581885	0.894877
	H66	H	0.595349	0.407119	0.119645
	H67	H	0.419905	0.402901	0.893783
	H68	H	0.597945	0.107609	0.416378
	H69	H	0.597114	0.883376	0.591952
	H70	H	0.417898	0.102858	0.588480
	H71	H	0.414496	0.883271	0.416078
	H72	H	0.911762	0.607905	0.096810
	H73	H	0.097397	0.383512	0.091809
	H74	H	0.094394	0.607600	0.915523
	H75	H	0.921228	0.387239	0.919604
	H76	H	0.102469	0.905341	0.620183
	H77	H	0.090652	0.080817	0.395566
	H78	H	0.920529	0.083360	0.615791
	H79	H	0.915655	0.903112	0.391835
	H80	H	0.616588	0.088685	0.913668
	H81	H	0.389884	0.091500	0.099975
	H82	H	0.616288	0.907935	0.095051
	H83	H	0.394495	0.905438	0.919107
	H84	H	0.616013	0.904320	0.093743
	H85	H	0.392817	0.089262	0.092566
	H86	H	0.615037	0.087623	0.921681
	H87	H	0.396996	0.909413	0.921293
	H88	H	0.915060	0.088081	0.619895
	H89	H	0.092716	0.085030	0.392637
	H90	H	0.089614	0.914970	0.613617
	H91	H	0.914680	0.906819	0.392796
	H92	H	0.084243	0.602791	0.919039
	H93	H	0.093214	0.382928	0.097780
	H94	H	0.911408	0.607201	0.095979
	H95	H	0.909292	0.384434	0.922849
	H96	H	0.411626	0.106426	0.593193
	H97	H	0.594501	0.883419	0.596116
	H98	H	0.597529	0.108280	0.415817
	H99	H	0.420096	0.884617	0.417489
	H100	H	0.592265	0.403957	0.119852
	H101	H	0.591936	0.585979	0.892964
	H102	H	0.420489	0.593425	0.119156
	H103	H	0.410140	0.405721	0.890501
	H104	H	0.112639	0.582090	0.421833
	H105	H	0.892240	0.583706	0.599702
	H106	H	0.110436	0.411307	0.588304
	H107	H	0.890326	0.396944	0.414602
	H108	H	0.910754	0.607240	0.096414
	H109	H	0.090430	0.386611	0.091571
	H110	H	0.093416	0.603187	0.926395
	H111	H	0.913657	0.381002	0.911002
	H112	H	0.086764	0.898096	0.618427
	H113	H	0.096063	0.080103	0.393450
	H114	H	0.912575	0.080400	0.617228
	H115	H	0.918181	0.905301	0.393862
	H116	H	0.614531	0.081467	0.917043
	H117	H	0.392774	0.084059	0.098611
	H118	H	0.614256	0.907438	0.091736
	H119	H	0.394327	0.909626	0.916921
	C120	C	0.383280	0.003521	0.627232
	C121	C	0.626761	0.986474	0.626747
	C122	C	0.627390	0.004379	0.384462
	C123	C	0.384179	0.986621	0.385395
	C124	C	0.625163	0.374130	0.015346
	C125	C	0.624895	0.615764	0.997417
	C126	C	0.382876	0.616936	0.014495
	C127	C	0.383481	0.375546	0.996642
	C128	C	0.012647	0.616130	0.384531
	C129	C	0.996000	0.616062	0.626242
	C130	C	0.012403	0.373660	0.625671
	C131	C	0.995246	0.372076	0.383658
	C132	C	0.881149	0.504150	0.127540
	C133	C	0.125195	0.486561	0.126587
	C134	C	0.125399	0.503731	0.884906
	C135	C	0.882511	0.486535	0.884962
	C136	C	0.126071	0.873202	0.514486
	C137	C	0.125879	0.115279	0.496766
	C138	C	0.884019	0.115300	0.514067
	C139	C	0.884186	0.873182	0.496311
	C140	C	0.512768	0.117047	0.885032
	C141	C	0.494937	0.118531	0.127885
	C142	C	0.513495	0.874627	0.127157
	C143	C	0.496694	0.874317	0.885562
	C144	C	0.380336	0.887944	0.689013
	C145	C	0.628372	0.102783	0.687708
	C146	C	0.626995	0.886884	0.325219
	C147	C	0.382796	0.104254	0.327089
	C148	C	0.683234	0.373405	0.896580
	C149	C	0.683083	0.617201	0.116003
	C150	C	0.320123	0.622963	0.898970
	C151	C	0.322973	0.372823	0.114360
	C152	C	0.895766	0.675522	0.383498
	C153	C	0.112108	0.675667	0.629591
	C154	C	0.896873	0.312503	0.630051
	C155	C	0.112816	0.314240	0.382284
	C156	C	0.897083	0.370366	0.688007
	C157	C	0.111431	0.618967	0.687760
	C158	C	0.894786	0.616124	0.327111
	C159	C	0.112976	0.373166	0.325761
	C160	C	0.378155	0.679538	0.898738
	C161	C	0.625719	0.674757	0.116270
	C162	C	0.626164	0.316158	0.896508
	C163	C	0.381165	0.316141	0.114688
	C164	C	0.685439	0.886573	0.382195
	C165	C	0.687075	0.102504	0.630734
	C166	C	0.320694	0.889146	0.633691
	C167	C	0.322593	0.102227	0.382226
	C168	C	0.881304	0.386786	0.186156
	C169	C	0.125754	0.603352	0.187063
	C170	C	0.129883	0.388630	0.822004
	C171	C	0.879767	0.602763	0.824186
	C172	C	0.186513	0.870033	0.397178
	C173	C	0.186263	0.119309	0.613668
	C174	C	0.825361	0.116123	0.395853
	C175	C	0.823784	0.870524	0.614042
	C176	C	0.396192	0.176718	0.882494
	C177	C	0.612217	0.176978	0.129295
	C178	C	0.398750	0.812356	0.133153
	C179	C	0.612223	0.812445	0.881518
	C180	C	0.397917	0.871643	0.189513
	C181	C	0.612692	0.118349	0.185981
	C182	C	0.396024	0.117673	0.825690
	C183	C	0.612335	0.869979	0.823748
	C184	C	0.883303	0.172841	0.395339
	C185	C	0.129147	0.177266	0.613168
	C186	C	0.128889	0.813084	0.396859
	C187	C	0.881116	0.813076	0.614085
	C188	C	0.188502	0.389112	0.878909
	C189	C	0.186244	0.601986	0.132025
	C190	C	0.823430	0.386584	0.128753
	C191	C	0.821644	0.602628	0.881726
	C192	C	0.409070	0.083608	0.600279
	C193	C	0.602002	0.905237	0.600827
	C194	C	0.604113	0.086493	0.409119
	C195	C	0.409394	0.905645	0.410956
	C196	C	0.601358	0.397972	0.098399
	C197	C	0.600466	0.591144	0.915046
	C198	C	0.409308	0.590053	0.095362
	C199	C	0.408478	0.400409	0.914638
	C200	C	0.094490	0.591818	0.408577
	C201	C	0.915181	0.590673	0.600076
	C202	C	0.092688	0.399441	0.599101
	C203	C	0.913273	0.395232	0.407936
	C204	C	0.904440	0.586225	0.103394
	C205	C	0.100751	0.405444	0.100856
	C206	C	0.098363	0.583692	0.912453
	C207	C	0.907693	0.405387	0.910591
	C208	C	0.100163	0.898883	0.596250
	C209	C	0.100503	0.089297	0.415163
	C210	C	0.908800	0.090761	0.596262
	C211	C	0.908956	0.898002	0.414320
	C212	C	0.594322	0.092579	0.910198
	C213	C	0.413257	0.095014	0.103907
	C214	C	0.594410	0.899688	0.100926
	C215	C	0.416084	0.900587	0.911844
	Zn216	Zn	0.505119	-0.005108	0.755939
	Zn217	Zn	0.505028	-0.003953	0.255965
	Zn218	Zn	0.753182	0.494714	0.006125
	Zn219	Zn	0.254871	0.496305	0.005709
	Zn220	Zn	0.005413	0.745611	0.505834
	Zn221	Zn	0.004268	0.243502	0.504789
	Zn222	Zn	0.004077	0.495365	0.755294
	Zn223	Zn	0.003633	0.494468	0.255249
	Zn224	Zn	0.504645	0.744667	0.006432
	Zn225	Zn	0.504349	0.246926	0.005970
	Zn226	Zn	0.756324	-0.005764	0.505526
	Zn227	Zn	0.254382	-0.006077	0.506096
	N228	N	0.418880	0.959975	0.685152
	N229	N	0.591760	0.029482	0.685619
	N230	N	0.591756	0.961247	0.326267
	N231	N	0.420363	0.031191	0.328731
	N232	N	0.683257	0.408442	0.971808
	N233	N	0.682871	0.581240	0.041156
	N234	N	0.322905	0.584602	0.972126
	N235	N	0.323887	0.408801	0.039733
	N236	N	0.970358	0.675981	0.418161
	N237	N	0.039027	0.674212	0.592108
	N238	N	0.969668	0.314253	0.591965
	N239	N	0.038491	0.313251	0.417361
	N240	N	0.969958	0.407767	0.685510
	N241	N	0.038073	0.582435	0.685806
	N242	N	0.968584	0.580008	0.327374
	N243	N	0.038712	0.408292	0.326013
	N244	N	0.416504	0.676158	0.971835
	N245	N	0.590360	0.674219	0.041320
	N246	N	0.590845	0.316368	0.971489
	N247	N	0.417746	0.317227	0.040253
	N248	N	0.686071	0.960804	0.418230
	N249	N	0.686476	0.028845	0.593627
	N250	N	0.322296	0.961977	0.595506
	N251	N	0.323327	0.028130	0.417920
	N252	N	0.916443	0.460918	0.185700
	N253	N	0.088115	0.530565	0.183799
	N254	N	0.091359	0.461047	0.825490
	N255	N	0.916990	0.529490	0.825950
	N256	N	0.185111	0.906686	0.471488
	N257	N	0.184493	0.081507	0.540079
	N258	N	0.825619	0.081151	0.470797
	N259	N	0.825253	0.907063	0.539799
	N260	N	0.470091	0.176576	0.918505
	N261	N	0.537949	0.177524	0.093935
	N262	N	0.471556	0.814222	0.094756
	N263	N	0.538934	0.814613	0.918896
	N264	N	0.470348	0.909744	0.185827
	N265	N	0.538701	0.083030	0.185647
	N266	N	0.469679	0.081317	0.826967
	N267	N	0.539393	0.907791	0.825922
	N268	N	0.919021	0.172733	0.470044
	N269	N	0.092070	0.174968	0.539328
	N270	N	0.092174	0.814791	0.471029
	N271	N	0.918094	0.814599	0.539869
	N272	N	0.185946	0.461864	0.917353
	N273	N	0.185985	0.528380	0.095077
	N274	N	0.823047	0.460657	0.093174
	N275	N	0.822901	0.529084	0.918683
	O276	O	-0.618367	1.489849	0.492648
	H277	H	-0.614303	1.502205	0.494867
	H278	H	-0.614928	1.476212	0.489718
	O279	O	-0.190530	0.193333	0.199231
	H280	H	-0.175019	0.179082	0.175808
	H281	H	-0.169000	0.167196	0.185203
	O282	O	1.014926	0.790976	-0.188060
	H283	H	1.019435	0.786905	-0.193855
	H284	H	1.007686	0.788462	-0.181380
	O285	O	0.722638	0.465385	0.285414
	H286	H	0.731883	0.454491	0.283694
	H287	H	0.736143	0.431279	0.273718
	O288	O	0.797321	0.204357	0.799728
	H289	H	0.774481	0.223715	0.795365
	H290	H	0.780481	0.206647	0.814391
	O291	O	0.787086	0.129007	1.037942
	H292	H	0.794314	0.112973	1.035199
	H293	H	0.773886	0.120051	1.042174
	O294	O	0.302623	-0.430491	0.612160
	H295	H	0.292585	-0.436826	0.624130
	H296	H	0.285626	-0.400831	0.617536
	O297	O	0.408074	0.684370	0.556299
	H298	H	0.401102	0.689085	0.560741
	H299	H	0.378424	0.691612	0.568893
	O300	O	0.142102	-0.030173	1.228902
	H301	H	0.152407	-0.044350	1.228209
	H302	H	0.132350	-0.033667	1.222494
	O303	O	0.726981	0.427562	0.564507
	H304	H	0.731206	0.412561	0.547599
	H305	H	0.719548	0.437740	0.567155
	O306	O	1.221419	1.207191	0.218998
	H307	H	1.221381	1.183412	0.218596
	H308	H	1.211820	1.202042	0.189393
	O309	O	-0.055382	1.224528	0.056174
	H310	H	-0.062290	1.220909	0.055708
	H311	H	-0.040050	1.222065	0.075874
	O312	O	0.550527	0.418227	0.702345
	H313	H	0.526770	0.417449	0.706116
	H314	H	0.538582	0.412513	0.689937
	O315	O	1.032666	1.217978	1.223644
	H316	H	1.056898	1.219408	1.227911
	H317	H	1.040283	1.225475	1.244111
	O318	O	0.297340	0.702521	0.289513
	H319	H	0.350443	0.709253	0.293803
	H320	H	0.292166	0.650457	0.294014
	O321	O	0.273683	0.734038	0.731595
	H322	H	0.267485	0.750288	0.712111
	H323	H	0.243651	0.754895	0.760930
	O324	O	1.238029	1.063168	-0.052268
	H325	H	1.234286	1.060460	-0.036543
	H326	H	1.235400	1.057666	-0.040042
	O327	O	-0.645450	0.331198	0.665740
	H328	H	-0.654995	0.362777	0.656983
	H329	H	-0.667184	0.309613	0.686216
	O330	O	0.708931	0.290820	0.299130
	H331	H	0.720535	0.288413	0.348580
	H332	H	0.743935	0.258504	0.268769
	O333	O	1.158658	0.947126	0.046182
	H334	H	1.150476	0.935391	0.046143
	H335	H	1.157764	0.945406	0.048332
	O336	O	1.218176	-0.137590	-0.205378
	H337	H	1.206608	-0.115517	-0.195114
	H338	H	1.205242	-0.121037	-0.209545
	O339	O	1.467894	0.477045	1.279244
	H340	H	1.483384	0.477255	1.275295
	H341	H	1.490994	0.449497	1.283640
	O342	O	-0.206784	-0.215702	0.214932
	H343	H	-0.185508	-0.220746	0.191358
	H344	H	-0.237993	-0.249514	0.246760
	O345	O	-0.464587	1.622378	1.650517
	H346	H	-0.467421	1.617103	1.658130
	H347	H	-0.474772	1.610756	1.649996
	O348	O	0.051065	-0.232154	0.065849
	H349	H	0.055958	-0.229180	0.080753
	H350	H	0.050002	-0.235414	0.064741
	O351	O	1.228400	0.774928	-0.007084
	H352	H	1.223496	0.775789	-0.015388
	H353	H	1.248130	0.760290	-0.024792
	O354	O	0.146231	0.012511	1.226669
	H355	H	0.148012	-0.005127	1.226709
	H356	H	0.154119	-0.004230	1.236772
	O357	O	0.333482	0.522087	0.378512
	H358	H	0.351897	0.509785	0.374633
	H359	H	0.318935	0.512978	0.371228
	O360	O	0.415834	0.558594	0.719763
	H361	H	0.391213	0.577105	0.707747
	H362	H	0.428545	0.552791	0.720689
	O363	O	0.056085	0.216612	-0.037602
	H364	H	0.053665	0.217445	-0.057254
	H365	H	0.035655	0.213371	-0.032479
	O366	O	0.364029	0.463084	0.504750
	H367	H	0.357423	0.458726	0.512650
	H368	H	0.359636	0.477811	0.517084
	O369	O	0.989201	0.218724	-0.212809
	H370	H	0.956661	0.229964	-0.219999
	H371	H	0.968653	0.221611	-0.224089
	O372	O	0.719599	1.521693	0.715227
	H373	H	0.741655	1.523963	0.735689
	H374	H	0.697804	1.505781	0.705834
	O375	O	0.733308	-0.461429	-0.531663
	H376	H	0.733435	-0.454972	-0.532482
	H377	H	0.727784	-0.475075	-0.543980
	O378	O	0.310467	0.526661	0.382598
	H379	H	0.312499	0.510297	0.357641
	H380	H	0.325625	0.515323	0.395727
	O381	O	-0.183025	0.904228	0.944349
	H382	H	-0.180022	0.909489	0.922327
	H383	H	-0.190404	0.906969	0.946765
	O384	O	1.203982	0.223480	1.028741
	H385	H	1.210472	0.241771	1.021736
	H386	H	1.200453	0.227735	1.020210
	O387	O	0.963286	1.076237	0.200512
	H388	H	0.967893	1.071918	0.216450
	H389	H	0.956092	1.058518	0.201698
	O390	O	0.051747	0.075284	0.010630
	H391	H	0.052937	0.093129	0.002934
	H392	H	0.059078	0.054199	0.027667
	O393	O	0.598280	0.547157	0.307087
	H394	H	0.599206	0.543033	0.308190
	H395	H	0.616611	0.534539	0.312069
	O396	O	-0.221204	1.019664	0.785386
	H397	H	-0.244119	1.022710	0.762470
	H398	H	-0.213413	1.027240	0.782179
	O399	O	0.313970	0.309151	1.321865
	H400	H	0.309706	0.305462	1.335887
	H401	H	0.305451	0.301756	1.305032
	O402	O	0.779598	0.953535	0.225857
	H403	H	0.768627	0.924624	0.234101
	H404	H	0.763921	0.935513	0.240707
	O405	O	0.960296	-0.229357	1.230635
	H406	H	0.953433	-0.235491	1.239448
	H407	H	0.957207	-0.241083	1.245980
	O408	O	-0.177113	-0.135729	-0.152068
	H409	H	-0.177476	-0.147510	-0.152508
	H410	H	-0.183696	-0.128506	-0.163915
	O411	O	0.280881	0.723301	0.485849
	H412	H	0.246934	0.755488	0.471110
	H413	H	0.286504	0.698839	0.447331
	O414	O	1.036371	0.068646	0.984609
	H415	H	1.032643	0.061068	0.990800
	H416	H	1.023352	0.074892	1.004810
	O417	O	0.694653	0.309211	0.694364
	H418	H	0.678286	0.319284	0.667940
	H419	H	0.671990	0.331983	0.684345
	O420	O	0.291381	0.272632	0.576467
	H421	H	0.267845	0.249304	0.593254
	H422	H	0.297606	0.283024	0.580561
	O423	O	0.139881	-0.119663	0.947737
	H424	H	0.145868	-0.118030	0.933739
	H425	H	0.129721	-0.135261	0.963119
	O426	O	1.144788	0.006984	0.824923
	H427	H	1.148017	0.021516	0.818539
	H428	H	1.131037	0.010282	0.823026
	O429	O	0.725821	0.712963	0.535120
	H430	H	0.744510	0.723557	0.542405
	H431	H	0.729404	0.711486	0.548674
	O432	O	0.465504	0.704739	0.302603
	H433	H	0.486038	0.694477	0.307599
	H434	H	0.483951	0.714782	0.304237
	O435	O	0.542836	0.273900	0.285183
	H436	H	0.541475	0.238102	0.254405
	H437	H	0.594158	0.279657	0.289737
	O438	O	-0.429163	0.721323	0.440140
	H439	H	-0.431001	0.709840	0.460037
	H440	H	-0.433728	0.730282	0.472732
	O441	O	0.195199	0.803752	0.192969
	H442	H	0.199434	0.810753	0.159551
	H443	H	0.228231	0.771602	0.221528
	O444	O	0.536455	0.715125	0.722747
	H445	H	0.527086	0.699128	0.728930
	H446	H	0.523354	0.733015	0.741907
	O447	O	-0.156040	1.145570	0.903700
	H448	H	-0.165929	1.124708	0.907106
	H449	H	-0.176743	1.165299	0.907253
	O450	O	0.005681	0.912818	1.039326
	H451	H	0.004275	0.908897	1.038523
	H452	H	-0.004871	0.912097	1.040944
	O453	O	0.729804	0.276207	0.465981
	H454	H	0.715802	0.266605	0.481245
	H455	H	0.736130	0.252091	0.479931
	O456	O	-0.006454	-0.156279	0.943844
	H457	H	-0.015080	-0.147481	0.943583
	H458	H	0.000507	-0.167897	0.943690
	O459	O	0.715818	0.707557	-0.285797
	H460	H	0.690145	0.698599	-0.296454
	H461	H	0.700081	0.683616	-0.289993
	O462	O	0.457329	0.399243	0.506369
	H463	H	0.455977	0.396522	0.493911
	H464	H	0.446808	0.392118	0.495006
	O465	O	0.783188	-0.222257	0.046338
	H466	H	0.769438	-0.236081	0.045096
	H467	H	0.779111	-0.217752	0.046769
	O468	O	0.694425	0.685736	0.318104
	H469	H	0.678046	0.666595	0.337017
	H470	H	0.670517	0.672179	0.337435
	O471	O	0.469806	0.267091	0.727128
	H472	H	0.465607	0.242217	0.756907
	H473	H	0.432428	0.273026	0.725275
	O474	O	0.505924	0.436322	0.389304
	H475	H	0.507792	0.424707	0.384690
	H476	H	0.490146	0.426447	0.394620
	O477	O	0.280380	0.464764	1.725287
	H478	H	0.298213	0.465366	1.718864
	H479	H	0.252465	0.464273	1.753111
	O480	O	0.193986	0.183067	0.818989
	H481	H	0.184392	0.158495	0.839788
	H482	H	0.167102	0.170364	0.831021
	O483	O	0.580497	0.270898	0.562175
	H484	H	0.546245	0.261236	0.563142
	H485	H	0.558555	0.276704	0.556420
	O486	O	0.473275	-0.734277	0.455057
	H487	H	0.454538	-0.734206	0.439542
	H488	H	0.466473	-0.727072	0.435281
	O489	O	1.006765	1.017461	-0.131809
	H490	H	0.996098	1.030020	-0.131043
	H491	H	0.997730	1.027602	-0.127998
	O492	O	-0.174481	0.002484	0.036622
	H493	H	-0.184181	-0.004614	0.041825
	H494	H	-0.161168	-0.008402	0.035496
	O495	O	-0.013435	0.896056	1.111122
	H496	H	-0.032090	0.885191	1.117601
	H497	H	-0.006570	0.880548	1.108357
	O498	O	0.975523	0.958133	0.776687
	H499	H	0.965603	0.943768	0.777321
	H500	H	0.974949	0.972871	0.775722
	O501	O	0.579628	0.561712	0.547832
	H502	H	0.579352	0.557843	0.535377
	H503	H	0.585351	0.571389	0.550419
