data_Molecule from HDF5

_cell_length_a		16.217803
_cell_length_b		16.283147
_cell_length_c		16.369879
_cell_angle_alpha	90.132630
_cell_angle_beta	89.928117
_cell_angle_gamma	90.097499
_symmetry_space_group_name_H-M	'P 1'
_symmetry_Int_Tables_number		1

loop_
	_symmetry_equiv_pos_as_xyz
	x,y,z

loop_
	_atom_site_label
	_atom_site_type_symbol
	_atom_site_fract_x
	_atom_site_fract_y
	_atom_site_fract_z
	H0	H	0.389723	0.841788	0.705800
	H1	H	0.593940	0.166586	0.706177
	H2	H	0.592911	0.841792	0.270475
	H3	H	0.391027	0.167164	0.273439
	H4	H	0.707962	0.405560	0.828355
	H5	H	0.705514	0.605321	0.153017
	H6	H	0.274571	0.602474	0.827871
	H7	H	0.276417	0.405085	0.153226
	H8	H	0.829208	0.718764	0.393166
	H9	H	0.156505	0.718759	0.591464
	H10	H	0.829016	0.287100	0.592844
	H11	H	0.156567	0.290506	0.393513
	H12	H	0.828226	0.405062	0.706004
	H13	H	0.155588	0.603279	0.706991
	H14	H	0.829278	0.605479	0.276747
	H15	H	0.154308	0.401204	0.273566
	H16	H	0.390659	0.719621	0.826476
	H17	H	0.590783	0.722849	0.151471
	H18	H	0.590723	0.290653	0.826531
	H19	H	0.389373	0.286778	0.150912
	H20	H	0.707036	0.840789	0.388442
	H21	H	0.706352	0.167892	0.587374
	H22	H	0.278087	0.840028	0.586400
	H23	H	0.277813	0.168088	0.390872
	H24	H	0.889551	0.341481	0.208130
	H25	H	0.092019	0.666964	0.208192
	H26	H	0.091723	0.340968	0.775503
	H27	H	0.891674	0.667162	0.775949
	H28	H	0.205786	0.905463	0.326455
	H29	H	0.208488	0.102892	0.652713
	H30	H	0.778334	0.103042	0.326534
	H31	H	0.774419	0.905371	0.651843
	H32	H	0.327387	0.219434	0.888610
	H33	H	0.654906	0.220654	0.086796
	H34	H	0.327014	0.791109	0.086783
	H35	H	0.655284	0.790168	0.889373
	H36	H	0.328115	0.904172	0.204400
	H37	H	0.654324	0.106635	0.204546
	H38	H	0.328479	0.104494	0.772253
	H39	H	0.655093	0.904149	0.772581
	H40	H	0.893367	0.220484	0.328628
	H41	H	0.092983	0.220228	0.653339
	H42	H	0.092651	0.786497	0.328499
	H43	H	0.891657	0.789573	0.653565
	H44	H	0.204962	0.340181	0.893457
	H45	H	0.207931	0.667539	0.091841
	H46	H	0.775347	0.341148	0.089015
	H47	H	0.779445	0.669339	0.895960
	H48	H	0.397957	0.121123	0.581329
	H49	H	0.578446	0.888048	0.586293
	H50	H	0.575637	0.116159	0.399387
	H51	H	0.400669	0.886915	0.389480
	H52	H	0.576337	0.413865	0.103003
	H53	H	0.581456	0.596369	0.876308
	H54	H	0.404965	0.604061	0.104653
	H55	H	0.387758	0.411707	0.871481
	H56	H	0.109028	0.597261	0.402278
	H57	H	0.873229	0.595034	0.594155
	H58	H	0.108102	0.416575	0.585531
	H59	H	0.872894	0.407327	0.396447
	H60	H	0.110782	0.410203	0.587695
	H61	H	0.873867	0.604933	0.581611
	H62	H	0.107859	0.591939	0.399303
	H63	H	0.877967	0.411203	0.407470
	H64	H	0.392032	0.599488	0.107516
	H65	H	0.584742	0.600759	0.872932
	H66	H	0.582608	0.406132	0.107339
	H67	H	0.402417	0.419995	0.877449
	H68	H	0.590863	0.120336	0.402086
	H69	H	0.581285	0.890139	0.575154
	H70	H	0.402242	0.120252	0.584443
	H71	H	0.403588	0.889604	0.398399
	H72	H	0.900745	0.619699	0.085369
	H73	H	0.094112	0.386382	0.078332
	H74	H	0.083326	0.620071	0.899164
	H75	H	0.903821	0.389863	0.900026
	H76	H	0.072391	0.909378	0.602603
	H77	H	0.084807	0.097943	0.375142
	H78	H	0.895225	0.095215	0.606516
	H79	H	0.897580	0.909276	0.374075
	H80	H	0.612258	0.105949	0.892168
	H81	H	0.370961	0.098846	0.093196
	H82	H	0.611566	0.905269	0.083322
	H83	H	0.370772	0.910957	0.886986
	H84	H	0.604860	0.913647	0.071185
	H85	H	0.374527	0.104613	0.071328
	H86	H	0.604561	0.097274	0.906274
	H87	H	0.375027	0.905550	0.901950
	H88	H	0.902076	0.092589	0.603512
	H89	H	0.084640	0.097671	0.375387
	H90	H	0.093083	0.902359	0.610236
	H91	H	0.901045	0.912839	0.375486
	H92	H	0.082164	0.619599	0.899750
	H93	H	0.080327	0.385581	0.095600
	H94	H	0.896927	0.621031	0.084733
	H95	H	0.894790	0.388427	0.901676
	H96	H	0.402589	0.118136	0.579142
	H97	H	0.589356	0.885726	0.582480
	H98	H	0.583712	0.122674	0.387665
	H99	H	0.394311	0.887433	0.396923
	H100	H	0.586569	0.415999	0.105658
	H101	H	0.587250	0.594434	0.874215
	H102	H	0.401492	0.590738	0.102246
	H103	H	0.402675	0.403311	0.873630
	H104	H	0.110733	0.596625	0.396840
	H105	H	0.878750	0.590238	0.580211
	H106	H	0.108612	0.411007	0.581372
	H107	H	0.876969	0.419566	0.397623
	H108	H	0.898302	0.621109	0.088360
	H109	H	0.073331	0.394146	0.076688
	H110	H	0.083258	0.619486	0.899333
	H111	H	0.898579	0.386803	0.893838
	H112	H	0.090463	0.924065	0.603377
	H113	H	0.084189	0.097647	0.374146
	H114	H	0.900917	0.099886	0.606099
	H115	H	0.902026	0.907604	0.374376
	H116	H	0.607014	0.089060	0.890894
	H117	H	0.379410	0.084060	0.078826
	H118	H	0.607605	0.921057	0.085800
	H119	H	0.378014	0.921433	0.898555
	C120	C	0.370799	0.012208	0.610434
	C121	C	0.612776	0.995915	0.610295
	C122	C	0.613428	0.012368	0.366697
	C123	C	0.370104	0.995728	0.366640
	C124	C	0.611878	0.383513	-0.001976
	C125	C	0.613291	0.626999	0.981495
	C126	C	0.369452	0.626364	-0.002323
	C127	C	0.368701	0.382244	0.981403
	C128	C	0.001032	0.624422	0.370952
	C129	C	0.983560	0.626210	0.614163
	C130	C	0.000813	0.382909	0.613568
	C131	C	0.983618	0.382886	0.370527
	C132	C	0.868927	0.512724	0.114600
	C133	C	0.112546	0.496215	0.112894
	C134	C	0.112443	0.512057	0.870249
	C135	C	0.870004	0.496054	0.869991
	C136	C	0.114343	0.882369	0.498109
	C137	C	0.114268	0.126221	0.482388
	C138	C	0.870513	0.125735	0.498431
	C139	C	0.869958	0.881562	0.481811
	C140	C	0.499948	0.126112	0.867088
	C141	C	0.482650	0.126136	0.110173
	C142	C	0.499792	0.883828	0.109452
	C143	C	0.482975	0.883467	0.866830
	C144	C	0.371173	0.889962	0.666551
	C145	C	0.612868	0.118271	0.667173
	C146	C	0.612478	0.890100	0.309630
	C147	C	0.371739	0.118704	0.311605
	C148	C	0.669234	0.385370	0.876369
	C149	C	0.668046	0.625578	0.104137
	C150	C	0.313176	0.623104	0.875936
	C151	C	0.313994	0.384882	0.104171
	C152	C	0.877836	0.680295	0.373204
	C153	C	0.107261	0.681059	0.611635
	C154	C	0.877985	0.325915	0.612275
	C155	C	0.107159	0.327614	0.372742
	C156	C	0.877424	0.384629	0.668555
	C157	C	0.106812	0.623991	0.669442
	C158	C	0.878088	0.624092	0.315117
	C159	C	0.105988	0.382522	0.313034
	C160	C	0.370680	0.681499	0.875393
	C161	C	0.610956	0.683935	0.103415
	C162	C	0.610859	0.328428	0.875462
	C163	C	0.370080	0.325817	0.102915
	C164	C	0.669353	0.889779	0.368163
	C165	C	0.668575	0.118775	0.607815
	C166	C	0.315348	0.889285	0.607341
	C167	C	0.315034	0.118925	0.369837
	C168	C	0.869595	0.390311	0.169990
	C169	C	0.111567	0.618639	0.169415
	C170	C	0.111244	0.389495	0.814006
	C171	C	0.871615	0.618703	0.814240
	C172	C	0.168611	0.884932	0.375420
	C173	C	0.170465	0.123724	0.604355
	C174	C	0.815604	0.123609	0.375616
	C175	C	0.813163	0.885018	0.603641
	C176	C	0.376323	0.181250	0.869021
	C177	C	0.605871	0.182530	0.107593
	C178	C	0.376149	0.828593	0.107270
	C179	C	0.606018	0.827472	0.868458
	C180	C	0.376739	0.884870	0.165909
	C181	C	0.605614	0.125763	0.166066
	C182	C	0.377027	0.124489	0.810937
	C183	C	0.606245	0.884767	0.811043
	C184	C	0.872853	0.182105	0.376545
	C185	C	0.112925	0.181904	0.604843
	C186	C	0.112451	0.825513	0.376448
	C187	C	0.871729	0.827494	0.604680
	C188	C	0.167570	0.389143	0.872728
	C189	C	0.169019	0.618927	0.111474
	C190	C	0.812955	0.390032	0.110808
	C191	C	0.815852	0.619753	0.873752
	C192	C	0.394060	0.097608	0.588248
	C193	C	0.589529	0.910159	0.588027
	C194	C	0.590277	0.097655	0.389595
	C195	C	0.392886	0.910111	0.388535
	C196	C	0.588795	0.405673	0.083253
	C197	C	0.590997	0.603803	0.896418
	C198	C	0.392682	0.604492	0.082919
	C199	C	0.390995	0.405001	0.896245
	C200	C	0.086879	0.601779	0.392914
	C201	C	0.897467	0.603487	0.591902
	C202	C	0.086918	0.405672	0.591375
	C203	C	0.898139	0.405815	0.393767
	C204	C	0.892061	0.598453	0.092683
	C205	C	0.089330	0.410839	0.090097
	C206	C	0.089616	0.597484	0.892751
	C207	C	0.892437	0.410516	0.891884
	C208	C	0.091793	0.905184	0.583468
	C209	C	0.091295	0.104176	0.397026
	C210	C	0.892912	0.102813	0.583371
	C211	C	0.893373	0.903209	0.396586
	C212	C	0.585765	0.103973	0.889803
	C213	C	0.397072	0.102687	0.087581
	C214	C	0.585816	0.906643	0.086855
	C215	C	0.396867	0.906070	0.889195
	Zn216	Zn	0.491802	0.004293	0.739115
	Zn217	Zn	0.491551	0.004614	0.238369
	Zn218	Zn	0.741193	0.504944	-0.009006
	Zn219	Zn	0.240988	0.504231	-0.009038
	Zn220	Zn	-0.007123	0.753013	0.491482
	Zn221	Zn	-0.007448	0.254993	0.491642
	Zn222	Zn	-0.008237	0.504058	0.741346
	Zn223	Zn	-0.008167	0.503770	0.242547
	Zn224	Zn	0.491138	0.755532	-0.011428
	Zn225	Zn	0.490807	0.254200	-0.011490
	Zn226	Zn	0.741059	0.004270	0.488873
	Zn227	Zn	0.242711	0.004494	0.488892
	N228	N	0.405055	0.967332	0.668597
	N229	N	0.578858	0.040728	0.668865
	N230	N	0.578275	0.967425	0.308579
	N231	N	0.405273	0.041246	0.309461
	N232	N	0.670071	0.418925	0.953701
	N233	N	0.669535	0.590779	0.027455
	N234	N	0.312245	0.589729	0.953024
	N235	N	0.312924	0.419377	0.027559
	N236	N	0.955112	0.680508	0.407573
	N237	N	0.029301	0.683074	0.578541
	N238	N	0.955804	0.324638	0.578818
	N239	N	0.029929	0.327491	0.407829
	N240	N	0.954809	0.419326	0.669409
	N241	N	0.028959	0.590621	0.671180
	N242	N	0.955701	0.590054	0.313546
	N243	N	0.028267	0.416097	0.311533
	N244	N	0.404895	0.683610	0.952158
	N245	N	0.577541	0.684793	0.026249
	N246	N	0.575996	0.327247	0.952095
	N247	N	0.403421	0.324246	0.025589
	N248	N	0.669914	0.966678	0.402845
	N249	N	0.668572	0.041713	0.573176
	N250	N	0.315117	0.966282	0.573122
	N251	N	0.313879	0.041512	0.403361
	N252	N	0.903514	0.467755	0.172397
	N253	N	0.077237	0.541348	0.170562
	N254	N	0.077633	0.467001	0.812309
	N255	N	0.904690	0.540934	0.811804
	N256	N	0.169846	0.919441	0.452243
	N257	N	0.171337	0.090016	0.527296
	N258	N	0.814014	0.089404	0.452368
	N259	N	0.811810	0.917622	0.526260
	N260	N	0.453676	0.182310	0.903400
	N261	N	0.528301	0.182968	0.073804
	N262	N	0.453492	0.828010	0.072797
	N263	N	0.528444	0.826647	0.902480
	N264	N	0.454628	0.918528	0.167375
	N265	N	0.528139	0.091256	0.167717
	N266	N	0.454747	0.090895	0.809507
	N267	N	0.528570	0.918704	0.809840
	N268	N	0.906064	0.183664	0.453886
	N269	N	0.078650	0.183597	0.527979
	N270	N	0.079423	0.823890	0.453831
	N271	N	0.906107	0.825013	0.527813
	N272	N	0.168376	0.466215	0.906831
	N273	N	0.169466	0.541868	0.076719
	N274	N	0.812333	0.467350	0.077250
	N275	N	0.814838	0.542645	0.907857
	O276	O	0.021677	-0.013528	-0.031027
	H277	H	0.026641	-0.006106	-0.028002
	H278	H	0.023080	-0.007102	-0.032084
	O279	O	0.952795	-0.034968	0.943347
	H280	H	0.958681	-0.029477	0.949240
	H281	H	0.955447	-0.034160	0.937675
	O282	O	0.592948	0.476656	0.527066
	H283	H	0.595806	0.479633	0.536001
	H284	H	0.587419	0.488534	0.526350
	O285	O	0.077370	0.968514	0.989691
	H286	H	0.080443	0.972527	1.007683
	H287	H	0.078802	0.967313	0.982403
	O288	O	0.493895	0.580577	0.494462
	H289	H	0.510400	0.587582	0.500550
	H290	H	0.500534	0.585053	0.490027
	O291	O	0.480267	0.366693	1.449961
	H292	H	0.472888	0.379769	1.452116
	H293	H	0.475847	0.367244	1.461739
	O294	O	0.934452	1.041602	0.959604
	H295	H	0.939967	1.034746	0.959248
	H296	H	0.927994	1.047703	0.959168
	O297	O	1.013752	0.061990	1.023630
	H298	H	1.008656	0.066282	1.030963
	H299	H	1.010338	0.056411	1.014093
	O300	O	0.448257	0.652075	0.446053
	H301	H	0.452637	0.645166	0.448054
	H302	H	0.454595	0.654993	0.441629
	O303	O	1.061193	0.032104	-0.026947
	H304	H	1.054784	0.028234	-0.025469
	H305	H	1.056868	0.032968	-0.024444
	O306	O	0.014094	1.066275	1.055395
	H307	H	0.004637	1.074642	1.045226
	H308	H	0.025219	1.072419	1.071759
	O309	O	0.492868	0.523811	0.433794
	H310	H	0.503763	0.517199	0.429403
	H311	H	0.498892	0.528783	0.433773
	O312	O	1.596579	0.558478	1.603567
	H313	H	1.596118	0.565750	1.607001
	H314	H	1.591484	0.552776	1.612193
	O315	O	0.557810	0.631790	0.593533
	H316	H	0.552155	0.646413	0.594764
	H317	H	0.555462	0.625385	0.580950
	O318	O	0.492174	0.468152	0.595464
	H319	H	0.488650	0.469740	0.592813
	H320	H	0.497999	0.458947	0.604911
	O321	O	0.910696	0.955971	1.017831
	H322	H	0.915205	0.965218	1.014287
	H323	H	0.910896	0.957771	1.020960
	O324	O	0.543606	0.581564	0.391688
	H325	H	0.566622	0.576233	0.373678
	H326	H	0.538770	0.561314	0.394265
	O327	O	0.497726	0.545309	0.430495
	H328	H	0.496244	0.548258	0.442218
	H329	H	0.511853	0.540147	0.433289
	O330	O	1.061637	-0.027444	0.883220
	H331	H	1.063313	-0.019701	0.879002
	H332	H	1.060862	-0.042321	0.877038
	O333	O	1.015927	0.941330	-0.053144
	H334	H	1.011640	0.944692	-0.058359
	H335	H	1.013350	0.936550	-0.050182
	O336	O	0.418583	0.460343	0.516500
	H337	H	0.429792	0.474061	0.521597
	H338	H	0.406128	0.458154	0.518141
	O339	O	0.453085	0.435546	0.556924
	H340	H	0.474588	0.440602	0.555156
	H341	H	0.453038	0.424155	0.551343
	O342	O	0.009632	1.074051	-0.034462
	H343	H	0.009175	1.073386	-0.030092
	H344	H	0.008810	1.075109	-0.029605
	O345	O	-0.034951	0.081045	-0.042203
	H346	H	-0.027756	0.081123	-0.046193
	H347	H	-0.036265	0.073385	-0.046614
	O348	O	0.526743	0.432896	0.371330
	H349	H	0.517496	0.431261	0.371666
	H350	H	0.517728	0.443340	0.359548
	O351	O	0.520138	0.352054	0.367080
	H352	H	0.513889	0.348074	0.355786
	H353	H	0.503570	0.353270	0.370364
	O354	O	0.502052	0.474837	0.418743
	H355	H	0.501039	0.472879	0.406815
	H356	H	0.510842	0.480184	0.421796
	O357	O	0.599397	0.616661	0.519400
	H358	H	0.604083	0.611587	0.537176
	H359	H	0.606863	0.629734	0.523789
	O360	O	-0.008458	0.024547	-0.036288
	H361	H	-0.011265	0.025210	-0.043070
	H362	H	0.003301	0.010869	-0.041399
	O363	O	0.471828	0.417374	0.646114
	H364	H	0.471681	0.404920	0.637688
	H365	H	0.465371	0.417957	0.649960
	O366	O	-0.026890	-0.005751	0.902239
	H367	H	-0.017890	-0.016269	0.894273
	H368	H	-0.028076	-0.008320	0.903689
	O369	O	0.551379	0.428569	0.454743
	H370	H	0.548376	0.425252	0.438235
	H371	H	0.546974	0.434239	0.445447
