data_Molecule from HDF5

_cell_length_a		16.281387
_cell_length_b		16.378354
_cell_length_c		16.297500
_cell_angle_alpha	89.908799
_cell_angle_beta	89.869607
_cell_angle_gamma	90.129602
_symmetry_space_group_name_H-M	'P 1'
_symmetry_Int_Tables_number		1

loop_
	_symmetry_equiv_pos_as_xyz
	x,y,z

loop_
	_atom_site_label
	_atom_site_type_symbol
	_atom_site_fract_x
	_atom_site_fract_y
	_atom_site_fract_z
	H0	H	0.400086	0.841768	0.721137
	H1	H	0.607640	0.163549	0.720087
	H2	H	0.605005	0.840962	0.285726
	H3	H	0.404268	0.164356	0.284403
	H4	H	0.722487	0.404669	0.841036
	H5	H	0.721199	0.603041	0.166257
	H6	H	0.287872	0.606155	0.841037
	H7	H	0.287639	0.400338	0.165385
	H8	H	0.841544	0.718977	0.401767
	H9	H	0.165740	0.723676	0.605800
	H10	H	0.842011	0.285560	0.605120
	H11	H	0.165009	0.284410	0.397181
	H12	H	0.842782	0.402707	0.720319
	H13	H	0.167944	0.606499	0.719551
	H14	H	0.841567	0.602351	0.286963
	H15	H	0.165441	0.402055	0.284816
	H16	H	0.405447	0.720359	0.840738
	H17	H	0.608806	0.721405	0.164654
	H18	H	0.611160	0.284612	0.842486
	H19	H	0.403286	0.283539	0.164251
	H20	H	0.720094	0.840514	0.401852
	H21	H	0.721945	0.164241	0.601605
	H22	H	0.285148	0.842137	0.604217
	H23	H	0.285172	0.163939	0.397465
	H24	H	0.902907	0.341910	0.220010
	H25	H	0.107249	0.664493	0.220376
	H26	H	0.109191	0.341709	0.783736
	H27	H	0.905659	0.665377	0.785563
	H28	H	0.221722	0.901453	0.340268
	H29	H	0.220827	0.104811	0.663637
	H30	H	0.791722	0.099940	0.338228
	H31	H	0.787217	0.902534	0.664969
	H32	H	0.344645	0.222085	0.901024
	H33	H	0.668732	0.218672	0.103559
	H34	H	0.343490	0.784514	0.105547
	H35	H	0.668714	0.788143	0.901431
	H36	H	0.342187	0.903187	0.218440
	H37	H	0.668777	0.101884	0.218413
	H38	H	0.342618	0.103838	0.786777
	H39	H	0.667411	0.902178	0.784267
	H40	H	0.900312	0.221781	0.340942
	H41	H	0.104990	0.220701	0.663463
	H42	H	0.106364	0.785132	0.341004
	H43	H	0.901170	0.784886	0.664972
	H44	H	0.223564	0.341606	0.902183
	H45	H	0.223849	0.664029	0.104788
	H46	H	0.788397	0.341883	0.104067
	H47	H	0.789776	0.665720	0.902439
	H48	H	0.420557	0.116675	0.598426
	H49	H	0.599137	0.888466	0.586259
	H50	H	0.602051	0.119682	0.407802
	H51	H	0.416519	0.888380	0.406887
	H52	H	0.585649	0.416942	0.113925
	H53	H	0.597042	0.599183	0.887218
	H54	H	0.417903	0.590102	0.116372
	H55	H	0.419584	0.412374	0.889331
	H56	H	0.119420	0.595396	0.412507
	H57	H	0.889335	0.592660	0.596989
	H58	H	0.121355	0.407667	0.593748
	H59	H	0.888141	0.407242	0.415289
	H60	H	0.118346	0.411689	0.587873
	H61	H	0.888450	0.596395	0.594846
	H62	H	0.119031	0.594792	0.413110
	H63	H	0.890088	0.416127	0.412277
	H64	H	0.418540	0.597701	0.118011
	H65	H	0.601613	0.595989	0.886601
	H66	H	0.596602	0.397411	0.122678
	H67	H	0.415155	0.410620	0.887591
	H68	H	0.594883	0.118336	0.406882
	H69	H	0.597858	0.885172	0.601183
	H70	H	0.413513	0.114528	0.584902
	H71	H	0.413834	0.890622	0.416186
	H72	H	0.920640	0.614478	0.088853
	H73	H	0.100853	0.391759	0.079607
	H74	H	0.100612	0.619005	0.909792
	H75	H	0.912070	0.388106	0.909636
	H76	H	0.097713	0.900065	0.622988
	H77	H	0.095594	0.093309	0.386502
	H78	H	0.918567	0.094135	0.616420
	H79	H	0.918648	0.917979	0.391167
	H80	H	0.624681	0.102809	0.908222
	H81	H	0.392809	0.085665	0.095093
	H82	H	0.620780	0.914751	0.096981
	H83	H	0.389961	0.907171	0.915808
	H84	H	0.623290	0.907644	0.096649
	H85	H	0.387048	0.098840	0.100465
	H86	H	0.617672	0.093640	0.919619
	H87	H	0.392350	0.915451	0.913990
	H88	H	0.910004	0.098795	0.619906
	H89	H	0.093226	0.094527	0.386849
	H90	H	0.103426	0.924054	0.616541
	H91	H	0.917121	0.899742	0.385291
	H92	H	0.092994	0.616639	0.910081
	H93	H	0.105732	0.382282	0.104886
	H94	H	0.904150	0.620980	0.091132
	H95	H	0.917674	0.389604	0.910143
	H96	H	0.406331	0.120817	0.596890
	H97	H	0.586682	0.891256	0.593225
	H98	H	0.597077	0.116779	0.413224
	H99	H	0.407446	0.887388	0.410117
	H100	H	0.608565	0.417793	0.120876
	H101	H	0.597012	0.593838	0.888812
	H102	H	0.410823	0.594086	0.118413
	H103	H	0.415242	0.415214	0.888997
	H104	H	0.119945	0.594432	0.412281
	H105	H	0.891058	0.592697	0.592232
	H106	H	0.119766	0.414982	0.594346
	H107	H	0.885930	0.409989	0.406468
	H108	H	0.915130	0.620843	0.105032
	H109	H	0.080434	0.391625	0.098324
	H110	H	0.097407	0.615766	0.915925
	H111	H	0.914294	0.389814	0.914324
	H112	H	0.080357	0.914660	0.611661
	H113	H	0.095343	0.095814	0.385820
	H114	H	0.909015	0.089204	0.616915
	H115	H	0.902180	0.911191	0.384549
	H116	H	0.620872	0.087556	0.904661
	H117	H	0.391597	0.098767	0.085773
	H118	H	0.619381	0.911044	0.090426
	H119	H	0.388693	0.910565	0.908095
	C120	C	0.382158	0.011188	0.624234
	C121	C	0.626142	0.994423	0.623724
	C122	C	0.626701	0.011119	0.380170
	C123	C	0.382659	0.994932	0.380424
	C124	C	0.627636	0.381799	0.012222
	C125	C	0.628291	0.626017	0.994799
	C126	C	0.384840	0.624413	0.011230
	C127	C	0.385043	0.381536	0.994999
	C128	C	0.012437	0.624279	0.382214
	C129	C	0.996615	0.625153	0.624566
	C130	C	0.012946	0.381501	0.623257
	C131	C	0.995060	0.381502	0.380815
	C132	C	0.883032	0.512165	0.124850
	C133	C	0.126613	0.495055	0.124861
	C134	C	0.127894	0.511131	0.880895
	C135	C	0.884297	0.495722	0.881263
	C136	C	0.124826	0.882073	0.510470
	C137	C	0.125137	0.124906	0.493183
	C138	C	0.882721	0.123968	0.510510
	C139	C	0.882276	0.880345	0.493997
	C140	C	0.514043	0.125141	0.880715
	C141	C	0.497859	0.124081	0.123848
	C142	C	0.513761	0.881213	0.124603
	C143	C	0.497425	0.881626	0.881874
	C144	C	0.381287	0.890135	0.682187
	C145	C	0.626536	0.115675	0.680920
	C146	C	0.624956	0.889466	0.323770
	C147	C	0.383990	0.116094	0.322965
	C148	C	0.684549	0.383832	0.889809
	C149	C	0.683775	0.623779	0.117275
	C150	C	0.327040	0.624989	0.889483
	C151	C	0.326509	0.381019	0.116761
	C152	C	0.890020	0.680317	0.382603
	C153	C	0.117695	0.684240	0.625039
	C154	C	0.890819	0.324475	0.624140
	C155	C	0.116668	0.323884	0.379655
	C156	C	0.891178	0.382569	0.681527
	C157	C	0.118877	0.625757	0.681498
	C158	C	0.890112	0.622455	0.325404
	C159	C	0.117081	0.382359	0.323711
	C160	C	0.385473	0.681837	0.889247
	C161	C	0.627743	0.682710	0.116558
	C162	C	0.629047	0.324265	0.890553
	C163	C	0.383880	0.322747	0.116321
	C164	C	0.682234	0.889291	0.381601
	C165	C	0.683590	0.115839	0.622205
	C166	C	0.323783	0.890474	0.623886
	C167	C	0.324922	0.115943	0.379450
	C168	C	0.883469	0.390516	0.181718
	C169	C	0.126764	0.616158	0.182056
	C170	C	0.128208	0.390025	0.823001
	C171	C	0.885584	0.617011	0.824176
	C172	C	0.182815	0.882093	0.388936
	C173	C	0.182284	0.124546	0.615029
	C174	C	0.827846	0.121384	0.387615
	C175	C	0.825481	0.882017	0.616401
	C176	C	0.392577	0.182904	0.881372
	C177	C	0.620073	0.180499	0.123213
	C178	C	0.391703	0.823899	0.124142
	C179	C	0.619785	0.825982	0.882023
	C180	C	0.390952	0.882752	0.180426
	C181	C	0.620158	0.122168	0.180073
	C182	C	0.391724	0.124079	0.824641
	C183	C	0.619192	0.882924	0.824027
	C184	C	0.882405	0.181750	0.388838
	C185	C	0.124476	0.182051	0.614965
	C186	C	0.125338	0.824195	0.389341
	C187	C	0.881928	0.823464	0.616342
	C188	C	0.185017	0.389725	0.881939
	C189	C	0.184888	0.615910	0.124407
	C190	C	0.826636	0.390353	0.123763
	C191	C	0.828088	0.617232	0.882555
	C192	C	0.406409	0.095506	0.600443
	C193	C	0.601720	0.910153	0.600424
	C194	C	0.604258	0.096175	0.402649
	C195	C	0.405872	0.910595	0.404140
	C196	C	0.603837	0.404203	0.097010
	C197	C	0.605214	0.603116	0.909618
	C198	C	0.408702	0.600661	0.095686
	C199	C	0.409371	0.405868	0.910604
	C200	C	0.097349	0.601474	0.405786
	C201	C	0.911608	0.600956	0.601408
	C202	C	0.097743	0.404677	0.599059
	C203	C	0.910010	0.404533	0.404369
	C204	C	0.906542	0.596753	0.101680
	C205	C	0.102671	0.410622	0.101242
	C206	C	0.104062	0.595164	0.904850
	C207	C	0.907804	0.411201	0.904469
	C208	C	0.100793	0.905950	0.595247
	C209	C	0.101518	0.101415	0.408343
	C210	C	0.905894	0.100825	0.595705
	C211	C	0.905797	0.903064	0.409184
	C212	C	0.599113	0.101692	0.903860
	C213	C	0.412411	0.101029	0.100512
	C214	C	0.599058	0.904428	0.101462
	C215	C	0.412311	0.904348	0.905773
	Zn216	Zn	0.504622	0.002498	0.753187
	Zn217	Zn	0.505109	0.002943	0.252111
	Zn218	Zn	0.755129	0.503643	0.003852
	Zn219	Zn	0.256329	0.502990	0.003216
	Zn220	Zn	0.003847	0.752795	0.503143
	Zn221	Zn	0.003721	0.253008	0.501580
	Zn222	Zn	0.006304	0.503044	0.751636
	Zn223	Zn	0.004207	0.503493	0.253235
	Zn224	Zn	0.506020	0.752946	0.003314
	Zn225	Zn	0.506247	0.253106	0.003438
	Zn226	Zn	0.754967	0.002243	0.501836
	Zn227	Zn	0.253562	0.003728	0.501756
	N228	N	0.416894	0.966406	0.682558
	N229	N	0.591428	0.039279	0.681978
	N230	N	0.590852	0.966245	0.322880
	N231	N	0.419102	0.039878	0.323222
	N232	N	0.683868	0.418899	0.966366
	N233	N	0.684210	0.589219	0.040511
	N234	N	0.326369	0.590051	0.966239
	N235	N	0.327217	0.417026	0.040272
	N236	N	0.967043	0.681545	0.417072
	N237	N	0.040736	0.683968	0.590662
	N238	N	0.967364	0.323870	0.588518
	N239	N	0.039748	0.323264	0.414516
	N240	N	0.968234	0.417220	0.681293
	N241	N	0.042333	0.589858	0.681587
	N242	N	0.967249	0.588484	0.324710
	N243	N	0.040627	0.417599	0.324139
	N244	N	0.420753	0.681624	0.965944
	N245	N	0.594151	0.684270	0.039168
	N246	N	0.594243	0.322845	0.967498
	N247	N	0.419344	0.322994	0.039759
	N248	N	0.683417	0.965931	0.415873
	N249	N	0.683405	0.039461	0.587350
	N250	N	0.324067	0.966755	0.588565
	N251	N	0.324115	0.039664	0.414638
	N252	N	0.918034	0.467222	0.182535
	N253	N	0.091332	0.539828	0.182407
	N254	N	0.093430	0.466523	0.822217
	N255	N	0.919818	0.540378	0.823118
	N256	N	0.182524	0.917397	0.465449
	N257	N	0.182844	0.089677	0.538340
	N258	N	0.827870	0.086213	0.464317
	N259	N	0.825427	0.916575	0.539566
	N260	N	0.469848	0.183843	0.915319
	N261	N	0.543058	0.181367	0.088827
	N262	N	0.469173	0.822785	0.090408
	N263	N	0.542997	0.825059	0.917399
	N264	N	0.467907	0.917606	0.180964
	N265	N	0.542908	0.087843	0.180784
	N266	N	0.468263	0.088913	0.824227
	N267	N	0.542045	0.916766	0.823808
	N268	N	0.915688	0.183576	0.466220
	N269	N	0.089884	0.182431	0.538142
	N270	N	0.089981	0.824136	0.466042
	N271	N	0.916555	0.822203	0.539336
	N272	N	0.185366	0.466111	0.916836
	N273	N	0.184943	0.539529	0.089592
	N274	N	0.826211	0.467053	0.089352
	N275	N	0.827211	0.540675	0.917430
	O276	O	0.104980	0.045382	0.010455
	H277	H	0.109583	0.037897	0.001310
	H278	H	0.111371	0.034763	0.020643
	O279	O	0.475827	0.466994	0.404944
	H280	H	0.478703	0.469208	0.407231
	H281	H	0.465569	0.475972	0.427117
	O282	O	1.478183	0.631721	0.367064
	H283	H	1.470957	0.626581	0.360599
	H284	H	1.482571	0.639823	0.364297
	O285	O	-0.433096	0.593906	0.540933
	H286	H	-0.446640	0.592183	0.528750
	H287	H	-0.434603	0.588360	0.542989
	O288	O	0.595291	0.352548	0.516679
	H289	H	0.590830	0.361761	0.517346
	H290	H	0.595683	0.359406	0.508346
	O291	O	0.321112	0.390671	0.686035
	H292	H	0.321148	0.373722	0.682973
	H293	H	0.319196	0.386998	0.707612
	O294	O	0.906277	1.046685	1.043078
	H295	H	0.907259	1.044763	1.045322
	H296	H	0.916196	1.031109	1.049121
	O297	O	-0.032958	-0.014860	-0.065766
	H298	H	-0.025525	-0.002985	-0.064569
	H299	H	-0.033826	-0.008768	-0.060317
	O300	O	0.488586	0.674073	0.422930
	H301	H	0.490629	0.669716	0.432429
	H302	H	0.485586	0.677408	0.426415
	O303	O	0.017004	0.952588	1.006454
	H304	H	0.018179	0.954661	1.013657
	H305	H	0.017602	0.941639	0.993695
	O306	O	0.680524	0.556407	0.536111
	H307	H	0.679037	0.556036	0.538040
	H308	H	0.683530	0.552676	0.543316
	O309	O	0.954138	0.043411	-0.059796
	H310	H	0.954529	0.037058	-0.061930
	H311	H	0.947639	0.055709	-0.056700
	O312	O	-0.020101	-0.141950	1.062031
	H313	H	-0.018704	-0.138360	1.063692
	H314	H	-0.033896	-0.137817	1.050466
	O315	O	0.090851	1.083611	0.145332
	H316	H	0.108604	1.080514	0.146700
	H317	H	0.091293	1.086154	0.124284
	O318	O	0.612027	0.430294	0.462340
	H319	H	0.610523	0.437046	0.458391
	H320	H	0.611670	0.425485	0.466894
	O321	O	0.532718	0.540922	0.645750
	H322	H	0.531488	0.539395	0.633720
	H323	H	0.530082	0.551103	0.643160
	O324	O	0.314293	0.548314	0.471936
	H325	H	0.320796	0.537820	0.486038
	H326	H	0.317211	0.547637	0.477388
	O327	O	0.422482	0.616671	0.567863
	H328	H	0.416418	0.621088	0.570016
	H329	H	0.427513	0.606607	0.565017
	O330	O	0.369978	0.420859	0.657766
	H331	H	0.371220	0.408317	0.664624
	H332	H	0.370215	0.406190	0.660529
	O333	O	0.116444	0.991147	0.875753
	H334	H	0.112402	0.971957	0.869990
	H335	H	0.123306	0.986646	0.865330
	O336	O	1.077721	0.915733	0.880611
	H337	H	1.077094	0.913908	0.887431
	H338	H	1.067383	0.912434	0.866435
	O339	O	0.601204	0.643849	0.551055
	H340	H	0.605228	0.650906	0.559474
	H341	H	0.601869	0.641963	0.524930
	O342	O	1.036550	-0.124088	-0.122570
	H343	H	1.026507	-0.125084	-0.116000
	H344	H	1.038340	-0.124432	-0.136149
	O345	O	0.634993	0.553849	0.678278
	H346	H	0.643356	0.554613	0.673198
	H347	H	0.628635	0.581730	0.682729
	O348	O	1.047877	0.939751	0.884200
	H349	H	1.023091	0.946694	0.883512
	H350	H	1.050867	0.930440	0.891762
	O351	O	0.993397	1.173438	0.056191
	H352	H	1.005482	1.173407	0.063528
	H353	H	0.992197	1.170283	0.067666
	O354	O	0.411656	0.304544	0.617896
	H355	H	0.441936	0.311117	0.620355
	H356	H	0.397771	0.285455	0.637481
	O357	O	-0.068970	-0.009797	0.061957
	H358	H	-0.072076	-0.015995	0.071882
	H359	H	-0.076273	0.003607	0.058940
	O360	O	0.057448	0.144397	-0.058692
	H361	H	0.047677	0.141667	-0.053489
	H362	H	0.054835	0.143653	-0.063873
	O363	O	0.613921	0.530729	0.376931
	H364	H	0.608853	0.522798	0.384010
	H365	H	0.618001	0.520979	0.373515
	O366	O	0.097106	-0.003644	-0.010471
	H367	H	0.089321	0.002791	-0.009575
	H368	H	0.094787	-0.009932	-0.016616
	O369	O	0.497660	0.343788	0.393378
	H370	H	0.491912	0.346703	0.388467
	H371	H	0.502916	0.355250	0.391724
	O372	O	0.374790	0.448041	0.504749
	H373	H	0.357626	0.438974	0.515817
	H374	H	0.361846	0.457456	0.509479
	O375	O	0.474767	0.410687	0.563582
	H376	H	0.477612	0.409198	0.571455
	H377	H	0.483299	0.401866	0.555107
	O378	O	0.563716	0.442087	0.445310
	H379	H	0.553661	0.447862	0.435772
	H380	H	0.563652	0.440662	0.444176
	O381	O	0.442283	0.497384	0.398786
	H382	H	0.438195	0.498693	0.387130
	H383	H	0.444465	0.497960	0.413983
	O384	O	0.006081	0.998257	0.134212
	H385	H	0.016487	0.989431	0.141340
	H386	H	0.017295	1.007983	0.124258
	O387	O	0.907706	-0.031088	1.034511
	H388	H	0.904913	-0.042077	1.026892
	H389	H	0.903117	-0.021556	1.026792
	O390	O	0.003611	1.069687	-0.050010
	H391	H	0.007978	1.065059	-0.049552
	H392	H	-0.007196	1.080014	-0.042411
	O393	O	0.952222	1.134209	0.069562
	H394	H	0.958940	1.125298	0.071849
	H395	H	0.939439	1.136391	0.069045
	O396	O	0.330901	0.675592	0.398182
	H397	H	0.335288	0.673795	0.390036
	H398	H	0.314902	0.686151	0.394629
	O399	O	-0.042431	0.981140	1.050684
	H400	H	-0.052090	0.994543	1.048519
	H401	H	-0.044985	0.988332	1.052525
	O402	O	1.000657	0.900547	0.995763
	H403	H	1.006186	0.893592	1.000351
	H404	H	0.996760	0.910351	0.986437
	O405	O	0.491039	0.433237	0.539814
	H406	H	0.500406	0.433775	0.523587
	H407	H	0.478385	0.428410	0.541978
