data_Molecule from HDF5

_cell_length_a		16.470991
_cell_length_b		16.296425
_cell_length_c		16.330590
_cell_angle_alpha	89.918108
_cell_angle_beta	89.703104
_cell_angle_gamma	89.996798
_symmetry_space_group_name_H-M	'P 1'
_symmetry_Int_Tables_number		1

loop_
	_symmetry_equiv_pos_as_xyz
	x,y,z

loop_
	_atom_site_label
	_atom_site_type_symbol
	_atom_site_fract_x
	_atom_site_fract_y
	_atom_site_fract_z
	H0	H	0.369685	0.826103	0.756626
	H1	H	0.579256	0.147051	0.750612
	H2	H	0.578954	0.823588	0.315864
	H3	H	0.377642	0.146987	0.314926
	H4	H	0.702488	0.374798	0.875586
	H5	H	0.693476	0.586002	0.194699
	H6	H	0.255870	0.590949	0.874018
	H7	H	0.257311	0.381174	0.194618
	H8	H	0.817872	0.705802	0.428476
	H9	H	0.134810	0.708481	0.636782
	H10	H	0.817405	0.266529	0.635711
	H11	H	0.137016	0.264759	0.427334
	H12	H	0.819533	0.377900	0.756075
	H13	H	0.135957	0.591143	0.753381
	H14	H	0.816424	0.586172	0.315418
	H15	H	0.137694	0.383218	0.312924
	H16	H	0.372713	0.704325	0.873498
	H17	H	0.576483	0.700814	0.194974
	H18	H	0.580747	0.266012	0.872314
	H19	H	0.376338	0.268097	0.195476
	H20	H	0.696871	0.825290	0.427357
	H21	H	0.694475	0.147703	0.633141
	H22	H	0.253103	0.827292	0.641673
	H23	H	0.255838	0.145221	0.424643
	H24	H	0.877624	0.322101	0.251041
	H25	H	0.075340	0.647753	0.247669
	H26	H	0.081909	0.323843	0.812739
	H27	H	0.872241	0.645050	0.812767
	H28	H	0.199862	0.880044	0.373785
	H29	H	0.199332	0.094470	0.691107
	H30	H	0.761441	0.088105	0.369861
	H31	H	0.754293	0.880300	0.691112
	H32	H	0.317785	0.206678	0.928694
	H33	H	0.636784	0.204275	0.134711
	H34	H	0.317510	0.764833	0.137715
	H35	H	0.636927	0.765351	0.929408
	H36	H	0.318373	0.879826	0.255250
	H37	H	0.638828	0.084577	0.247503
	H38	H	0.318111	0.091969	0.811476
	H39	H	0.636357	0.881950	0.812239
	H40	H	0.878495	0.201592	0.369890
	H41	H	0.078877	0.204636	0.693268
	H42	H	0.078896	0.768923	0.371056
	H43	H	0.870456	0.765655	0.691975
	H44	H	0.198386	0.324688	0.928088
	H45	H	0.194769	0.645956	0.136092
	H46	H	0.759184	0.322276	0.137116
	H47	H	0.754659	0.643975	0.927528
	H48	H	0.396418	0.099171	0.629953
	H49	H	0.562202	0.872087	0.627236
	H50	H	0.572498	0.101449	0.443214
	H51	H	0.386930	0.872271	0.450097
	H52	H	0.574881	0.392747	0.150530
	H53	H	0.562315	0.574807	0.920657
	H54	H	0.384061	0.570632	0.146838
	H55	H	0.390018	0.397973	0.921275
	H56	H	0.089460	0.575210	0.442362
	H57	H	0.867191	0.570370	0.617223
	H58	H	0.089007	0.402647	0.624163
	H59	H	0.865126	0.391829	0.448462
	H60	H	0.093938	0.390586	0.626992
	H61	H	0.863424	0.570581	0.628578
	H62	H	0.092301	0.576468	0.437734
	H63	H	0.865299	0.400332	0.440786
	H64	H	0.388511	0.574284	0.147560
	H65	H	0.571634	0.576161	0.917139
	H66	H	0.565237	0.402216	0.144662
	H67	H	0.387539	0.393015	0.917768
	H68	H	0.572075	0.104265	0.435648
	H69	H	0.563562	0.874437	0.614471
	H70	H	0.392694	0.093990	0.608244
	H71	H	0.385697	0.869495	0.442088
	H72	H	0.889676	0.600806	0.134036
	H73	H	0.069824	0.370618	0.118379
	H74	H	0.063655	0.597678	0.943983
	H75	H	0.884373	0.370375	0.946612
	H76	H	0.060345	0.889797	0.647721
	H77	H	0.062583	0.088883	0.415925
	H78	H	0.887865	0.075508	0.646330
	H79	H	0.880989	0.901080	0.416723
	H80	H	0.590114	0.079912	0.944786
	H81	H	0.360646	0.084795	0.122969
	H82	H	0.591918	0.893617	0.124609
	H83	H	0.363435	0.892070	0.946671
	H84	H	0.590755	0.891098	0.123897
	H85	H	0.367214	0.069380	0.117079
	H86	H	0.587634	0.069627	0.944612
	H87	H	0.366408	0.897774	0.947722
	H88	H	0.881584	0.079129	0.648021
	H89	H	0.081625	0.070020	0.415042
	H90	H	0.073635	0.900413	0.648246
	H91	H	0.891426	0.897319	0.418735
	H92	H	0.068055	0.597714	0.947070
	H93	H	0.071078	0.367771	0.127561
	H94	H	0.888924	0.594719	0.114835
	H95	H	0.892177	0.370638	0.941558
	H96	H	0.376702	0.102896	0.620898
	H97	H	0.573620	0.868878	0.620972
	H98	H	0.566278	0.100569	0.438690
	H99	H	0.392887	0.873844	0.443658
	H100	H	0.561445	0.388038	0.147817
	H101	H	0.568429	0.566952	0.920446
	H102	H	0.383320	0.575629	0.149202
	H103	H	0.384225	0.398170	0.918959
	H104	H	0.091613	0.579597	0.441563
	H105	H	0.862628	0.580457	0.622257
	H106	H	0.088476	0.393175	0.615072
	H107	H	0.861277	0.390266	0.437534
	H108	H	0.872757	0.603126	0.123894
	H109	H	0.062541	0.370877	0.123950
	H110	H	0.068056	0.599875	0.941939
	H111	H	0.891734	0.373471	0.950034
	H112	H	0.058712	0.905752	0.641720
	H113	H	0.057513	0.063959	0.425222
	H114	H	0.881859	0.071674	0.646454
	H115	H	0.884201	0.890255	0.414621
	H116	H	0.592158	0.074276	0.936004
	H117	H	0.362341	0.071130	0.133847
	H118	H	0.590590	0.892963	0.122903
	H119	H	0.363231	0.896505	0.941537
	C120	C	0.355255	-0.005994	0.654243
	C121	C	0.597660	0.978013	0.652177
	C122	C	0.599888	-0.005277	0.409597
	C123	C	0.356923	0.977279	0.411858
	C124	C	0.599346	0.362098	0.042069
	C125	C	0.597273	0.603774	1.025620
	C126	C	0.354238	0.606134	0.042224
	C127	C	0.355535	0.363974	1.025373
	C128	C	-0.014791	0.607198	0.410600
	C129	C	0.968829	0.607292	0.654326
	C130	C	-0.014393	0.363531	0.654175
	C131	C	0.969294	0.363240	0.410499
	C132	C	0.854476	0.492607	0.155433
	C133	C	0.097642	0.476701	0.153824
	C134	C	0.098869	0.492803	0.911870
	C135	C	0.856040	0.476324	0.912845
	C136	C	0.096961	0.866148	0.540527
	C137	C	0.098612	0.106966	0.524099
	C138	C	0.855392	0.106559	0.540028
	C139	C	0.853492	0.863909	0.522556
	C140	C	0.484798	0.107095	0.910763
	C141	C	0.469431	0.105600	0.154155
	C142	C	0.485561	0.861516	0.155660
	C143	C	0.469118	0.863471	0.912114
	C144	C	0.352080	0.874190	0.715894
	C145	C	0.598206	0.098818	0.711027
	C146	C	0.598827	0.872356	0.353613
	C147	C	0.357224	0.098387	0.353190
	C148	C	0.660798	0.358268	0.922583
	C149	C	0.654415	0.604726	0.146513
	C150	C	0.295274	0.608935	0.921972
	C151	C	0.296510	0.362253	0.146206
	C152	C	0.865219	0.665753	0.410127
	C153	C	0.087623	0.668230	0.655684
	C154	C	0.865732	0.304959	0.655292
	C155	C	0.089480	0.304763	0.409149
	C156	C	0.866606	0.360933	0.714961
	C157	C	0.088165	0.609574	0.713501
	C158	C	0.864724	0.606547	0.353477
	C159	C	0.089720	0.363489	0.352044
	C160	C	0.353507	0.665446	0.921578
	C161	C	0.596119	0.661880	0.146729
	C162	C	0.600341	0.303786	0.921122
	C163	C	0.355840	0.306118	0.146757
	C164	C	0.657280	0.873248	0.409379
	C165	C	0.655762	0.099260	0.652673
	C166	C	0.293870	0.874572	0.658849
	C167	C	0.296604	0.097460	0.408028
	C168	C	0.856868	0.370570	0.212709
	C169	C	0.095998	0.598873	0.210195
	C170	C	0.100712	0.372212	0.852249
	C171	C	0.853927	0.597102	0.852996
	C172	C	0.158262	0.862961	0.420909
	C173	C	0.158972	0.111088	0.643674
	C174	C	0.799522	0.107126	0.418433
	C175	C	0.793659	0.861488	0.643138
	C176	C	0.365611	0.167058	0.909922
	C177	C	0.589276	0.164197	0.153559
	C178	C	0.365410	0.803910	0.156571
	C179	C	0.588959	0.804655	0.910320
	C180	C	0.366030	0.861050	0.215400
	C181	C	0.590400	0.104719	0.209824
	C182	C	0.365713	0.109853	0.851322
	C183	C	0.588615	0.862675	0.851843
	C184	C	0.857832	0.163629	0.418421
	C185	C	0.098602	0.165871	0.644823
	C186	C	0.098172	0.807409	0.419539
	C187	C	0.851680	0.804621	0.643323
	C188	C	0.158603	0.372477	0.909717
	C189	C	0.155325	0.598005	0.154667
	C190	C	0.797898	0.370655	0.156071
	C191	C	0.795370	0.596395	0.910135
	C192	C	0.381303	0.077003	0.627465
	C193	C	0.573428	0.893710	0.627752
	C194	C	0.576997	0.079963	0.432613
	C195	C	0.381335	0.893650	0.437777
	C196	C	0.574523	0.387051	0.125999
	C197	C	0.574173	0.579543	0.941321
	C198	C	0.378235	0.580920	0.126071
	C199	C	0.380090	0.389056	0.941341
	C200	C	0.069226	0.583997	0.433854
	C201	C	0.885974	0.581344	0.629879
	C202	C	0.068890	0.388273	0.629219
	C203	C	0.885693	0.387095	0.435042
	C204	C	0.877173	0.577467	0.131231
	C205	C	0.074551	0.391847	0.130146
	C206	C	0.073757	0.576612	0.936890
	C207	C	0.881881	0.393180	0.938686
	C208	C	0.071712	0.891289	0.624095
	C209	C	0.074366	0.081520	0.440481
	C210	C	0.877377	0.082440	0.624786
	C211	C	0.878402	0.888892	0.438619
	C212	C	0.568283	0.081948	0.934835
	C213	C	0.385368	0.081949	0.131253
	C214	C	0.569360	0.885419	0.130928
	C215	C	0.386142	0.888386	0.937779
	Zn216	Zn	0.476533	-0.014497	0.782158
	Zn217	Zn	0.477932	-0.015352	0.283568
	Zn218	Zn	0.726853	0.483706	0.034015
	Zn219	Zn	0.226560	0.485043	0.033502
	Zn220	Zn	-0.023791	0.736630	0.532276
	Zn221	Zn	-0.022629	0.234478	0.532234
	Zn222	Zn	-0.022600	0.485282	0.783801
	Zn223	Zn	-0.022769	0.485232	0.282261
	Zn224	Zn	0.476447	0.732993	0.033052
	Zn225	Zn	0.476809	0.235162	0.033070
	Zn226	Zn	0.726782	-0.013930	0.531155
	Zn227	Zn	0.227593	-0.013920	0.532840
	N228	N	0.389349	0.949587	0.713154
	N229	N	0.562772	0.022493	0.710807
	N230	N	0.563656	0.948809	0.353788
	N231	N	0.393708	0.022651	0.355368
	N232	N	0.660211	0.393780	0.998842
	N233	N	0.655131	0.569280	0.070201
	N234	N	0.295506	0.572837	0.998056
	N235	N	0.296160	0.397432	0.069582
	N236	N	0.941045	0.666255	0.444781
	N237	N	0.012363	0.666874	0.619778
	N238	N	0.940860	0.306245	0.618296
	N239	N	0.013643	0.304500	0.444885
	N240	N	0.942223	0.396752	0.714453
	N241	N	0.013210	0.572401	0.712857
	N242	N	0.940419	0.570813	0.353681
	N243	N	0.014117	0.399150	0.352772
	N244	N	0.389700	0.663648	0.997239
	N245	N	0.561158	0.661301	0.070474
	N246	N	0.562658	0.306091	0.996338
	N247	N	0.391800	0.306987	0.070507
	N248	N	0.658118	0.950245	0.443451
	N249	N	0.655330	0.022978	0.616559
	N250	N	0.295518	0.950168	0.621512
	N251	N	0.296215	0.020981	0.443979
	N252	N	0.890939	0.447504	0.212665
	N253	N	0.060563	0.522488	0.209473
	N254	N	0.064130	0.447982	0.853520
	N255	N	0.890966	0.521663	0.854527
	N256	N	0.157818	0.898484	0.497077
	N257	N	0.158918	0.075007	0.567663
	N258	N	0.797946	0.072168	0.495106
	N259	N	0.794425	0.897376	0.566956
	N260	N	0.440805	0.165463	0.946120
	N261	N	0.513057	0.164842	0.119665
	N262	N	0.440811	0.804044	0.120258
	N263	N	0.513574	0.804766	0.946725
	N264	N	0.441920	0.896291	0.214865
	N265	N	0.514700	0.069099	0.210406
	N266	N	0.440896	0.073358	0.851741
	N267	N	0.512989	0.898478	0.852688
	N268	N	0.891808	0.163502	0.495104
	N269	N	0.061836	0.163327	0.569575
	N270	N	0.060623	0.809276	0.495024
	N271	N	0.888145	0.805918	0.567452
	N272	N	0.157525	0.448445	0.946044
	N273	N	0.156371	0.521069	0.120250
	N274	N	0.796304	0.447516	0.121227
	N275	N	0.796603	0.520197	0.946678
	O276	O	0.565295	0.608275	0.702855
	H277	H	0.566065	0.592209	0.697810
	H278	H	0.574140	0.617738	0.686016
	O279	O	0.560283	0.582415	0.569587
	H280	H	0.567647	0.593476	0.582081
	H281	H	0.589235	0.577455	0.578522
	O282	O	0.982910	0.057354	1.131901
	H283	H	0.975336	0.043423	1.136895
	H284	H	0.966919	0.062646	1.128092
	O285	O	1.011088	-0.214711	-0.095525
	H286	H	1.017233	-0.227297	-0.110240
	H287	H	1.029079	-0.216062	-0.090311
	O288	O	0.868809	0.966480	1.205250
	H289	H	0.863299	0.953226	1.217075
	H290	H	0.865044	0.943165	1.204674
	O291	O	0.484327	1.429217	0.488860
	H292	H	0.480833	1.419366	0.480973
	H293	H	0.483210	1.419550	0.493142
	O294	O	0.356398	0.526174	0.368658
	H295	H	0.368478	0.520004	0.367793
	H296	H	0.361907	0.508131	0.373419
	O297	O	0.398942	0.473507	0.400218
	H298	H	0.399564	0.473816	0.409225
	H299	H	0.406924	0.470627	0.392420
	O300	O	0.931786	0.134872	-0.155869
	H301	H	0.928914	0.126071	-0.158394
	H302	H	0.939178	0.138916	-0.166331
	O303	O	0.337945	0.589912	0.478212
	H304	H	0.342456	0.578712	0.468210
	H305	H	0.343022	0.598927	0.474881
	O306	O	0.414739	1.283736	0.691710
	H307	H	0.425432	1.284590	0.699307
	H308	H	0.407611	1.272874	0.702358
	O309	O	0.491633	0.339241	0.530119
	H310	H	0.492583	0.339929	0.543488
	H311	H	0.476569	0.338366	0.548572
	O312	O	0.585324	0.560899	0.654463
	H313	H	0.589646	0.549897	0.659697
	H314	H	0.572624	0.541599	0.662222
	O315	O	0.631753	0.518244	0.486376
	H316	H	0.647049	0.522097	0.487489
	H317	H	0.622528	0.502939	0.466459
	O318	O	-0.186622	1.100899	0.892444
	H319	H	-0.182927	1.069180	0.875378
	H320	H	-0.183547	1.111203	0.884474
	O321	O	0.421557	0.421278	0.547113
	H322	H	0.425607	0.423022	0.545164
	H323	H	0.412958	0.424584	0.557471
	O324	O	0.107533	0.123350	-0.878478
	H325	H	0.086586	0.140563	-0.876473
	H326	H	0.110040	0.134975	-0.887334
	O327	O	-0.061796	0.898618	0.170770
	H328	H	-0.054557	0.906047	0.154752
	H329	H	-0.045303	0.895898	0.174522
	O330	O	-0.121378	-0.012590	1.037116
	H331	H	-0.128671	-0.016390	1.043189
	H332	H	-0.129525	-0.009749	1.029873
	O333	O	0.123961	-0.051432	1.139889
	H334	H	0.136975	-0.034694	1.145739
	H335	H	0.127860	-0.055417	1.129692
	O336	O	0.278731	1.503527	-0.323461
	H337	H	0.275488	1.510930	-0.331142
	H338	H	0.281323	1.518484	-0.339530
	O339	O	1.085534	-0.071417	0.018000
	H340	H	1.085970	-0.057820	0.025910
	H341	H	1.096335	-0.067002	0.019781
	O342	O	0.152193	-0.138218	-0.152967
	H343	H	0.165041	-0.129651	-0.147306
	H344	H	0.160583	-0.135877	-0.138543
	O345	O	1.104883	0.060148	1.079658
	H346	H	1.092481	0.061467	1.071892
	H347	H	1.101556	0.082720	1.072924
	O348	O	0.997761	0.972032	0.049202
	H349	H	0.995935	0.963505	0.055285
	H350	H	0.992407	0.960807	0.045352
	O351	O	0.469570	0.585261	0.558884
	H352	H	0.462937	0.579215	0.553715
	H353	H	0.468807	0.581513	0.556521
	O354	O	0.563503	0.351957	1.375636
	H355	H	0.572111	0.342808	1.368767
	H356	H	0.573859	0.350221	1.384842
	O357	O	0.464422	0.536836	0.381860
	H358	H	0.464458	0.537191	0.381084
	H359	H	0.457243	0.529020	0.379089
	O360	O	1.315613	-0.660678	-0.288476
	H361	H	1.306220	-0.623360	-0.277869
	H362	H	1.332583	-0.656655	-0.291451
	O363	O	0.072480	0.952568	0.972662
	H364	H	0.082270	0.963030	0.972522
	H365	H	0.092308	0.947688	0.975961
	O366	O	0.451783	0.521643	0.561729
	H367	H	0.452910	0.529727	0.580568
	H368	H	0.451035	0.520580	0.565285
	O369	O	-0.052624	0.097811	-0.925538
	H370	H	-0.069441	0.096354	-0.932957
	H371	H	-0.061179	0.106566	-0.929777
	O372	O	0.444263	0.459293	0.724591
	H373	H	0.432932	0.466641	0.733234
	H374	H	0.430572	0.478708	0.708917
	O375	O	0.586191	0.504698	0.660886
	H376	H	0.585489	0.508810	0.652757
	H377	H	0.582301	0.507244	0.661125
	O378	O	1.467453	1.591586	-0.574123
	H379	H	1.471000	1.590228	-0.577831
	H380	H	1.475314	1.596389	-0.578566
	O381	O	1.124517	-0.041732	-0.154278
	H382	H	1.141417	-0.040281	-0.157899
	H383	H	1.117806	-0.034290	-0.153075
	O384	O	0.844535	1.032414	-0.067621
	H385	H	0.853939	1.027152	-0.068691
	H386	H	0.851733	1.020921	-0.069129
	O387	O	1.020877	0.080892	-0.018304
	H388	H	1.015756	0.080956	-0.026257
	H389	H	1.012682	0.094550	-0.005909
	O390	O	0.365658	1.463218	-0.526742
	H391	H	0.362352	1.458996	-0.529230
	H392	H	0.348469	1.462242	-0.523465
	O393	O	1.001190	0.918336	1.124663
	H394	H	0.998502	0.916163	1.115611
	H395	H	1.009899	0.916148	1.137993
	O396	O	-0.083036	-0.108586	0.134754
	H397	H	-0.085279	-0.114109	0.144845
	H398	H	-0.068999	-0.099925	0.123784
	O399	O	0.000221	0.970550	0.952168
	H400	H	-0.011659	0.956962	0.948696
	H401	H	-0.010119	0.964840	0.964737
	O402	O	0.527081	0.402813	0.600118
	H403	H	0.518312	0.414870	0.598892
	H404	H	0.532914	0.404086	0.601414
	O405	O	0.899323	0.991430	-0.068446
	H406	H	0.897053	0.977133	-0.055881
	H407	H	0.900858	1.000956	-0.075412
	O408	O	1.674910	1.622155	-0.471931
	H409	H	1.681972	1.638979	-0.475188
	H410	H	1.673078	1.613303	-0.480093
	O411	O	0.886914	-0.169319	1.172653
	H412	H	0.902002	-0.167602	1.157557
	H413	H	0.899482	-0.174897	1.169149
	O414	O	0.656432	0.426851	0.536607
	H415	H	0.652723	0.440246	0.533728
	H416	H	0.667962	0.430153	0.545223
	O417	O	0.430343	0.622956	0.464850
	H418	H	0.432123	0.614922	0.465136
	H419	H	0.431812	0.623846	0.461297
