data_Molecule from HDF5

_cell_length_a		16.189515
_cell_length_b		16.263916
_cell_length_c		16.434306
_cell_angle_alpha	90.154389
_cell_angle_beta	90.212823
_cell_angle_gamma	89.884664
_symmetry_space_group_name_H-M	'P 1'
_symmetry_Int_Tables_number		1

loop_
	_symmetry_equiv_pos_as_xyz
	x,y,z

loop_
	_atom_site_label
	_atom_site_type_symbol
	_atom_site_fract_x
	_atom_site_fract_y
	_atom_site_fract_z
	H0	H	0.397253	0.847924	0.727740
	H1	H	0.598327	0.173899	0.731557
	H2	H	0.602730	0.848712	0.294722
	H3	H	0.395723	0.173486	0.294733
	H4	H	0.712453	0.410149	0.848149
	H5	H	0.715285	0.609332	0.172645
	H6	H	0.280330	0.610218	0.849602
	H7	H	0.280144	0.412081	0.173123
	H8	H	0.834010	0.728366	0.412636
	H9	H	0.163068	0.725217	0.610766
	H10	H	0.834383	0.298115	0.610198
	H11	H	0.161387	0.297267	0.412634
	H12	H	0.833638	0.412567	0.725314
	H13	H	0.159816	0.616014	0.729827
	H14	H	0.834212	0.615358	0.293676
	H15	H	0.160516	0.410324	0.296338
	H16	H	0.395395	0.727644	0.850183
	H17	H	0.598630	0.726796	0.174003
	H18	H	0.595116	0.292728	0.849897
	H19	H	0.397698	0.296164	0.173937
	H20	H	0.713193	0.847651	0.415842
	H21	H	0.710742	0.176393	0.612303
	H22	H	0.286147	0.848007	0.607498
	H23	H	0.284362	0.176181	0.414413
	H24	H	0.893142	0.349789	0.230412
	H25	H	0.099691	0.674167	0.229512
	H26	H	0.099655	0.350212	0.792726
	H27	H	0.895087	0.675719	0.794427
	H28	H	0.214364	0.913442	0.349511
	H29	H	0.214531	0.111465	0.675414
	H30	H	0.779280	0.112386	0.351280
	H31	H	0.785162	0.914215	0.676088
	H32	H	0.331863	0.221970	0.915080
	H33	H	0.661472	0.226003	0.112921
	H34	H	0.333000	0.796029	0.111566
	H35	H	0.661370	0.795913	0.914875
	H36	H	0.334887	0.910114	0.228846
	H37	H	0.661576	0.112142	0.229425
	H38	H	0.334806	0.110167	0.796926
	H39	H	0.661733	0.909834	0.798411
	H40	H	0.897710	0.226915	0.349815
	H41	H	0.098684	0.230157	0.674026
	H42	H	0.100655	0.793341	0.350970
	H43	H	0.900118	0.795309	0.674280
	H44	H	0.209529	0.347664	0.914130
	H45	H	0.210267	0.675725	0.109434
	H46	H	0.785808	0.346160	0.106703
	H47	H	0.779682	0.674876	0.911045
	H48	H	0.412014	0.125933	0.603962
	H49	H	0.593511	0.897255	0.598754
	H50	H	0.587069	0.128173	0.416127
	H51	H	0.409659	0.897060	0.420196
	H52	H	0.586588	0.406997	0.128651
	H53	H	0.595040	0.605019	0.894196
	H54	H	0.410978	0.609225	0.126409
	H55	H	0.398932	0.418264	0.896410
	H56	H	0.112436	0.599849	0.420725
	H57	H	0.878991	0.605555	0.607299
	H58	H	0.112427	0.422038	0.598318
	H59	H	0.883221	0.429519	0.419887
	H60	H	0.113449	0.427925	0.605372
	H61	H	0.881626	0.608574	0.599367
	H62	H	0.114813	0.601623	0.417352
	H63	H	0.878350	0.418453	0.411540
	H64	H	0.397659	0.606672	0.128831
	H65	H	0.586155	0.596986	0.900141
	H66	H	0.603357	0.420877	0.127943
	H67	H	0.407008	0.419291	0.897668
	H68	H	0.583225	0.124671	0.424138
	H69	H	0.597968	0.892123	0.611293
	H70	H	0.402687	0.128442	0.604533
	H71	H	0.406656	0.895933	0.420582
	H72	H	0.896805	0.629388	0.102207
	H73	H	0.092636	0.392632	0.109451
	H74	H	0.092152	0.625574	0.931716
	H75	H	0.910176	0.397229	0.914624
	H76	H	0.085510	0.918783	0.624941
	H77	H	0.091527	0.108994	0.396390
	H78	H	0.906124	0.109931	0.628242
	H79	H	0.903986	0.926145	0.399203
	H80	H	0.614415	0.099098	0.919935
	H81	H	0.380552	0.104691	0.106035
	H82	H	0.612274	0.925524	0.105893
	H83	H	0.382263	0.924811	0.919158
	H84	H	0.615873	0.915802	0.107437
	H85	H	0.382268	0.102418	0.104178
	H86	H	0.615714	0.104786	0.920418
	H87	H	0.379019	0.917126	0.914176
	H88	H	0.903346	0.105035	0.627523
	H89	H	0.094370	0.103020	0.397390
	H90	H	0.095849	0.913165	0.629073
	H91	H	0.912685	0.918959	0.400432
	H92	H	0.096149	0.634406	0.909207
	H93	H	0.081464	0.397740	0.106739
	H94	H	0.911181	0.628072	0.112732
	H95	H	0.906064	0.397150	0.919803
	H96	H	0.408491	0.130145	0.611960
	H97	H	0.584681	0.895774	0.610510
	H98	H	0.592585	0.127268	0.423476
	H99	H	0.407465	0.895093	0.418464
	H100	H	0.583991	0.426983	0.120899
	H101	H	0.582646	0.608856	0.896518
	H102	H	0.405426	0.596379	0.123466
	H103	H	0.403896	0.411491	0.895542
	H104	H	0.114179	0.604830	0.420155
	H105	H	0.883094	0.600230	0.601363
	H106	H	0.116418	0.418491	0.606222
	H107	H	0.881173	0.416225	0.425595
	H108	H	0.912113	0.622297	0.095471
	H109	H	0.090156	0.396635	0.097574
	H110	H	0.073780	0.625223	0.915430
	H111	H	0.904351	0.395496	0.914188
	H112	H	0.096315	0.925561	0.626351
	H113	H	0.088463	0.103845	0.399844
	H114	H	0.908902	0.105557	0.626391
	H115	H	0.902531	0.915507	0.396208
	H116	H	0.613519	0.102233	0.925016
	H117	H	0.381058	0.101491	0.106657
	H118	H	0.612789	0.918202	0.098502
	H119	H	0.380475	0.916219	0.923510
	C120	C	0.378332	0.019875	0.634222
	C121	C	0.620518	1.003274	0.635812
	C122	C	0.619192	0.019443	0.391730
	C123	C	0.377408	1.003562	0.390598
	C124	C	0.619490	0.388447	0.018812
	C125	C	0.619110	0.633166	1.003304
	C126	C	0.374927	0.633165	0.019534
	C127	C	0.374425	0.388712	1.003523
	C128	C	0.006070	0.633417	0.389648
	C129	C	0.989273	0.634119	0.632796
	C130	C	0.006157	0.392534	0.632287
	C131	C	0.988745	0.391304	0.390057
	C132	C	0.876662	0.518992	0.132200
	C133	C	0.118079	0.503503	0.133200
	C134	C	0.117453	0.520751	0.889426
	C135	C	0.875976	0.504125	0.887802
	C136	C	0.121796	0.889654	0.520167
	C137	C	0.120626	0.134606	0.504542
	C138	C	0.876029	0.134970	0.520628
	C139	C	0.877374	0.890984	0.505205
	C140	C	0.506151	0.131187	0.892232
	C141	C	0.489126	0.132882	0.135249
	C142	C	0.505772	0.889968	0.133375
	C143	C	0.488931	0.889141	0.890836
	C144	C	0.378890	0.896779	0.689147
	C145	C	0.618137	0.125698	0.692365
	C146	C	0.620810	0.897402	0.334168
	C147	C	0.377054	0.125429	0.333775
	C148	C	0.674433	0.389996	0.896778
	C149	C	0.676204	0.630156	0.124718
	C150	C	0.318147	0.630930	0.898067
	C151	C	0.318625	0.391786	0.124932
	C152	C	0.882987	0.690517	0.391711
	C153	C	0.113210	0.688797	0.631331
	C154	C	0.883124	0.336194	0.630092
	C155	C	0.112097	0.334985	0.392370
	C156	C	0.882891	0.393031	0.687459
	C157	C	0.111582	0.634338	0.690484
	C158	C	0.883271	0.634092	0.332603
	C159	C	0.111763	0.391315	0.334587
	C160	C	0.375836	0.689184	0.898401
	C161	C	0.618725	0.689071	0.125080
	C162	C	0.616490	0.331484	0.897657
	C163	C	0.376914	0.333891	0.125388
	C164	C	0.675986	0.896770	0.394206
	C165	C	0.674171	0.126824	0.633162
	C166	C	0.323135	0.896774	0.629748
	C167	C	0.321789	0.126702	0.393485
	C168	C	0.875843	0.397533	0.189886
	C169	C	0.118185	0.625846	0.190214
	C170	C	0.118005	0.398468	0.832234
	C171	C	0.875171	0.626549	0.832112
	C172	C	0.177129	0.892254	0.398194
	C173	C	0.176310	0.132117	0.626742
	C174	C	0.818259	0.132526	0.399333
	C175	C	0.822684	0.893444	0.627352
	C176	C	0.381910	0.185382	0.894547
	C177	C	0.612410	0.188703	0.133473
	C178	C	0.382319	0.834011	0.131651
	C179	C	0.612316	0.833507	0.894087
	C180	C	0.383321	0.890468	0.190084
	C181	C	0.612534	0.132124	0.191373
	C182	C	0.383306	0.129966	0.835567
	C183	C	0.612455	0.890006	0.836150
	C184	C	0.877039	0.189695	0.398550
	C185	C	0.118918	0.191228	0.626005
	C186	C	0.120472	0.832800	0.398711
	C187	C	0.879701	0.834483	0.626660
	C188	C	0.172727	0.397272	0.892597
	C189	C	0.173312	0.626577	0.130711
	C190	C	0.821816	0.395995	0.128632
	C191	C	0.818386	0.626384	0.890672
	C192	C	0.401185	0.105877	0.613024
	C193	C	0.598603	0.917288	0.613452
	C194	C	0.594689	0.104630	0.414580
	C195	C	0.401086	0.918143	0.413136
	C196	C	0.597649	0.411541	0.103742
	C197	C	0.594918	0.610306	0.918846
	C198	C	0.397925	0.610662	0.104321
	C199	C	0.396736	0.410199	0.918537
	C200	C	0.091716	0.609238	0.412841
	C201	C	0.903362	0.611366	0.609518
	C202	C	0.091954	0.415908	0.609939
	C203	C	0.903088	0.414574	0.412382
	C204	C	0.899945	0.604419	0.109999
	C205	C	0.094903	0.417994	0.111085
	C206	C	0.094164	0.606093	0.911994
	C207	C	0.899910	0.418722	0.909903
	C208	C	0.099138	0.912422	0.604846
	C209	C	0.098105	0.112040	0.419887
	C210	C	0.899305	0.113445	0.605281
	C211	C	0.899787	0.913588	0.420664
	C212	C	0.592302	0.108616	0.915094
	C213	C	0.403676	0.109543	0.112451
	C214	C	0.591147	0.912993	0.110511
	C215	C	0.402958	0.912540	0.912566
	Zn216	Zn	0.498550	0.010812	0.763476
	Zn217	Zn	0.498437	0.011139	0.262251
	Zn218	Zn	0.748683	0.510784	0.010125
	Zn219	Zn	0.245771	0.511830	0.011319
	Zn220	Zn	-0.001183	0.760998	0.512095
	Zn221	Zn	-0.002189	0.264439	0.511896
	Zn222	Zn	-0.002405	0.513093	0.759622
	Zn223	Zn	-0.002459	0.511503	0.261645
	Zn224	Zn	0.496912	0.761913	0.012254
	Zn225	Zn	0.496884	0.259509	0.012653
	Zn226	Zn	0.747468	0.012520	0.513468
	Zn227	Zn	0.250206	0.012338	0.512618
	N228	N	0.412373	0.974495	0.691962
	N229	N	0.585771	0.047714	0.694279
	N230	N	0.586151	0.974747	0.332603
	N231	N	0.410939	0.047897	0.331881
	N232	N	0.676358	0.424692	0.973295
	N233	N	0.676853	0.596340	0.047959
	N234	N	0.317741	0.596557	0.974451
	N235	N	0.316901	0.425183	0.048079
	N236	N	0.960422	0.690126	0.426547
	N237	N	0.036048	0.688718	0.595931
	N238	N	0.960828	0.335825	0.596261
	N239	N	0.034568	0.334752	0.426171
	N240	N	0.960311	0.427375	0.688667
	N241	N	0.033498	0.601197	0.691519
	N242	N	0.960752	0.599345	0.331391
	N243	N	0.034223	0.425891	0.333140
	N244	N	0.410151	0.690766	0.975026
	N245	N	0.584041	0.690998	0.048471
	N246	N	0.583181	0.330427	0.974435
	N247	N	0.410713	0.331806	0.048860
	N248	N	0.675233	0.973681	0.429161
	N249	N	0.675595	0.049568	0.598545
	N250	N	0.322702	0.974251	0.596413
	N251	N	0.321918	0.049837	0.428262
	N252	N	0.909338	0.475154	0.192118
	N253	N	0.084501	0.548150	0.191906
	N254	N	0.084429	0.476290	0.830102
	N255	N	0.910209	0.549467	0.830313
	N256	N	0.178031	0.926837	0.474778
	N257	N	0.177469	0.097560	0.550347
	N258	N	0.817433	0.099391	0.476261
	N259	N	0.821056	0.927774	0.550920
	N260	N	0.459466	0.186204	0.929243
	N261	N	0.534680	0.189532	0.099401
	N262	N	0.459548	0.833457	0.097086
	N263	N	0.534470	0.832655	0.927257
	N264	N	0.460906	0.924545	0.191382
	N265	N	0.534988	0.097955	0.192518
	N266	N	0.461353	0.096777	0.834334
	N267	N	0.534668	0.924016	0.834093
	N268	N	0.912388	0.191433	0.474779
	N269	N	0.084987	0.193046	0.549102
	N270	N	0.086938	0.830771	0.475397
	N271	N	0.912980	0.832652	0.549672
	N272	N	0.172611	0.474146	0.927407
	N273	N	0.173538	0.549666	0.096031
	N274	N	0.822344	0.472577	0.093326
	N275	N	0.818783	0.549207	0.924668
	O276	O	0.963411	0.063057	0.951197
	H277	H	0.957606	0.068024	0.961940
	H278	H	0.957557	0.071656	0.955113
	O279	O	-0.058486	0.961791	0.144989
	H280	H	-0.063438	0.951459	0.157816
	H281	H	-0.048403	0.960619	0.137348
	O282	O	0.563204	0.487392	0.357740
	H283	H	0.555357	0.492353	0.342791
	H284	H	0.555815	0.480442	0.356913
	O285	O	0.523860	0.664469	0.491094
	H286	H	0.523717	0.675569	0.482978
	H287	H	0.529450	0.664539	0.502368
	O288	O	0.580134	0.400226	0.553020
	H289	H	0.589311	0.413841	0.550223
	H290	H	0.580397	0.399299	0.540498
	O291	O	-0.295171	0.313920	0.875430
	H292	H	-0.291693	0.305535	0.879574
	H293	H	-0.296285	0.313120	0.882483
	O294	O	1.509219	0.561258	-0.386230
	H295	H	1.513411	0.567549	-0.379003
	H296	H	1.513287	0.566565	-0.398664
	O297	O	1.111708	1.017297	-0.035756
	H298	H	1.102560	1.010756	-0.036969
	H299	H	1.097801	1.023858	-0.027950
	O300	O	0.448674	0.397529	0.575961
	H301	H	0.432359	0.401965	0.579356
	H302	H	0.460051	0.400164	0.590470
	O303	O	0.459734	0.394294	0.511734
	H304	H	0.473265	0.395912	0.510308
	H305	H	0.472151	0.393470	0.504465
	O306	O	0.521693	0.638422	0.462171
	H307	H	0.526043	0.629738	0.460178
	H308	H	0.502998	0.644646	0.462641
	O309	O	0.414513	0.495437	0.513181
	H310	H	0.420896	0.483912	0.517427
	H311	H	0.396754	0.481018	0.528863
	O312	O	1.074033	1.156808	1.036626
	H313	H	1.081292	1.174955	1.036975
	H314	H	1.065471	1.164646	1.042827
	O315	O	0.548639	0.385223	0.468343
	H316	H	0.551144	0.398613	0.473065
	H317	H	0.551545	0.380034	0.472269
	O318	O	0.414989	0.535604	0.542482
	H319	H	0.418346	0.540649	0.547110
	H320	H	0.418594	0.554253	0.549255
	O321	O	0.390636	0.626650	0.524014
	H322	H	0.387591	0.630171	0.521742
	H323	H	0.391322	0.625740	0.548749
	O324	O	-0.002948	1.064048	1.083158
	H325	H	0.007193	1.059386	1.077791
	H326	H	0.004492	1.048654	1.090376
	O327	O	-0.074603	1.047198	1.023779
	H328	H	-0.079355	1.054018	1.015528
	H329	H	-0.077152	1.045731	1.030456
	O330	O	-0.095764	-0.050185	0.094082
	H331	H	-0.090974	-0.057116	0.103164
	H332	H	-0.098603	-0.057353	0.090065
	O333	O	0.573485	0.523700	0.382523
	H334	H	0.553510	0.512262	0.382775
	H335	H	0.555271	0.535432	0.369467
	O336	O	-0.048041	-0.052127	0.050496
	H337	H	-0.044682	-0.061727	0.052512
	H338	H	-0.044016	-0.051569	0.052395
	O339	O	0.036619	0.005018	0.053800
	H340	H	0.034269	-0.009261	0.029994
	H341	H	0.046562	0.018718	0.043920
	O342	O	0.484623	0.412022	0.540609
	H343	H	0.492998	0.417945	0.544182
	H344	H	0.485294	0.411271	0.528257
	O345	O	-0.066856	0.944679	1.038557
	H346	H	-0.074299	0.937012	1.043129
	H347	H	-0.070475	0.948778	1.030106
	O348	O	1.088356	-0.044676	-0.013892
	H349	H	1.077730	-0.052414	-0.009968
	H350	H	1.083257	-0.050760	-0.012377
	O351	O	0.610583	0.579147	0.585960
	H352	H	0.610877	0.578732	0.569861
	H353	H	0.624027	0.577867	0.578269
	O354	O	0.002231	1.009434	-0.043756
	H355	H	-0.018795	1.016723	-0.048646
	H356	H	-0.005008	0.997692	-0.038305
	O357	O	1.099670	-0.093022	-0.028041
	H358	H	1.102713	-0.092616	-0.028888
	H359	H	1.105517	-0.081305	-0.034768
	O360	O	0.936456	0.116279	1.026993
	H361	H	0.931114	0.114376	1.028980
	H362	H	0.940201	0.127719	1.046587
	O363	O	0.462972	0.496498	0.414151
	H364	H	0.457327	0.499442	0.414715
	H365	H	0.457744	0.495169	0.418774
	O366	O	0.482658	0.506233	0.454989
	H367	H	0.477085	0.507793	0.447230
	H368	H	0.477890	0.496387	0.451459
	O369	O	0.944686	0.015615	-0.015723
	H370	H	0.934445	0.007955	-0.018910
	H371	H	0.950485	0.007620	-0.018661
	O372	O	0.550441	0.512162	0.541051
	H373	H	0.551868	0.511086	0.533934
	H374	H	0.541220	0.505921	0.538563
	O375	O	1.035522	-0.081377	0.904171
	H376	H	1.041759	-0.089215	0.896742
	H377	H	1.043478	-0.072690	0.911997
	O378	O	-0.031668	0.984232	-0.038749
	H379	H	-0.033073	0.989405	-0.035850
	H380	H	-0.025760	0.984220	-0.042298
	O381	O	0.459891	0.631806	0.490242
	H382	H	0.470129	0.643591	0.499797
	H383	H	0.453858	0.629281	0.485866
	O384	O	1.036544	0.926891	0.074721
	H385	H	1.038581	0.922075	0.069712
	H386	H	1.041166	0.935249	0.069291
	O387	O	0.446859	-0.499611	0.522427
	H388	H	0.450508	-0.506290	0.533565
	H389	H	0.445796	-0.503079	0.523800
	O390	O	0.921127	1.118257	0.039255
	H391	H	0.912787	1.119962	0.042904
	H392	H	0.927734	1.110287	0.047004
	O393	O	0.472743	0.447244	0.458077
	H394	H	0.472954	0.441042	0.470075
	H395	H	0.471514	0.440636	0.457458
