data_Molecule from HDF5

_cell_length_a		16.308000
_cell_length_b		16.263478
_cell_length_c		16.307772
_cell_angle_alpha	89.900123
_cell_angle_beta	89.798573
_cell_angle_gamma	89.718550
_symmetry_space_group_name_H-M	'P 1'
_symmetry_Int_Tables_number		1

loop_
	_symmetry_equiv_pos_as_xyz
	x,y,z

loop_
	_atom_site_label
	_atom_site_type_symbol
	_atom_site_fract_x
	_atom_site_fract_y
	_atom_site_fract_z
	H0	H	0.407544	0.837550	0.726130
	H1	H	0.602811	0.164278	0.722065
	H2	H	0.608526	0.838064	0.291679
	H3	H	0.406545	0.164199	0.295167
	H4	H	0.723477	0.401004	0.847255
	H5	H	0.719805	0.599284	0.172850
	H6	H	0.288612	0.602580	0.846884
	H7	H	0.289142	0.400173	0.172364
	H8	H	0.842230	0.717035	0.411155
	H9	H	0.169208	0.714953	0.607759
	H10	H	0.841914	0.287078	0.608953
	H11	H	0.169290	0.285560	0.410343
	H12	H	0.842749	0.401500	0.727195
	H13	H	0.168355	0.600966	0.726223
	H14	H	0.842040	0.601437	0.295397
	H15	H	0.168603	0.400870	0.294068
	H16	H	0.407259	0.716284	0.846238
	H17	H	0.603247	0.714746	0.173500
	H18	H	0.605690	0.286832	0.845805
	H19	H	0.407275	0.286155	0.172492
	H20	H	0.723564	0.837364	0.408541
	H21	H	0.718877	0.164645	0.607561
	H22	H	0.292846	0.836280	0.609862
	H23	H	0.290026	0.163645	0.409543
	H24	H	0.906877	0.336894	0.225531
	H25	H	0.102303	0.664556	0.223873
	H26	H	0.107274	0.338478	0.793818
	H27	H	0.903534	0.663897	0.793539
	H28	H	0.222699	0.901047	0.345986
	H29	H	0.219322	0.097320	0.673559
	H30	H	0.791746	0.100245	0.346090
	H31	H	0.790897	0.901275	0.672060
	H32	H	0.342719	0.216652	0.911246
	H33	H	0.669926	0.213713	0.106264
	H34	H	0.342870	0.786212	0.109036
	H35	H	0.669090	0.783601	0.909135
	H36	H	0.343428	0.901546	0.226080
	H37	H	0.669342	0.098312	0.223325
	H38	H	0.342871	0.101011	0.794488
	H39	H	0.669821	0.900716	0.792925
	H40	H	0.907746	0.216002	0.345553
	H41	H	0.102894	0.214665	0.673194
	H42	H	0.106082	0.785311	0.345267
	H43	H	0.907649	0.786226	0.672419
	H44	H	0.222273	0.337550	0.908949
	H45	H	0.219996	0.664087	0.109852
	H46	H	0.791554	0.336994	0.109570
	H47	H	0.790973	0.664395	0.911973
	H48	H	0.414267	0.117993	0.609161
	H49	H	0.596226	0.884690	0.602156
	H50	H	0.602439	0.118539	0.414996
	H51	H	0.413076	0.882706	0.416131
	H52	H	0.593286	0.408983	0.123627
	H53	H	0.595401	0.591285	0.895511
	H54	H	0.416281	0.600997	0.126433
	H55	H	0.415674	0.419350	0.897285
	H56	H	0.123083	0.595070	0.411575
	H57	H	0.888729	0.601143	0.600193
	H58	H	0.122418	0.407053	0.605897
	H59	H	0.887903	0.404874	0.415867
	H60	H	0.121809	0.404682	0.599329
	H61	H	0.893396	0.588565	0.597470
	H62	H	0.120375	0.594693	0.421573
	H63	H	0.890051	0.408778	0.420702
	H64	H	0.403071	0.593865	0.128036
	H65	H	0.598844	0.596053	0.893228
	H66	H	0.599863	0.402367	0.127875
	H67	H	0.421555	0.401783	0.893651
	H68	H	0.595832	0.116666	0.413861
	H69	H	0.601249	0.884964	0.597898
	H70	H	0.418425	0.113204	0.596272
	H71	H	0.418891	0.884925	0.415625
	H72	H	0.899155	0.619645	0.096361
	H73	H	0.098814	0.386007	0.096085
	H74	H	0.096184	0.619567	0.908218
	H75	H	0.912127	0.381591	0.910265
	H76	H	0.107860	0.906281	0.627037
	H77	H	0.097572	0.093225	0.394583
	H78	H	0.911260	0.098196	0.627730
	H79	H	0.910297	0.905373	0.390495
	H80	H	0.625171	0.093618	0.905097
	H81	H	0.387142	0.096608	0.108738
	H82	H	0.620552	0.910258	0.098923
	H83	H	0.390469	0.912822	0.912860
	H84	H	0.621827	0.909318	0.103913
	H85	H	0.390943	0.098860	0.096542
	H86	H	0.623674	0.102155	0.918702
	H87	H	0.388753	0.903897	0.915306
	H88	H	0.908554	0.091194	0.624898
	H89	H	0.100441	0.094222	0.392817
	H90	H	0.096776	0.914698	0.621623
	H91	H	0.913300	0.914402	0.394812
	H92	H	0.088341	0.612916	0.922428
	H93	H	0.103586	0.381541	0.105757
	H94	H	0.914075	0.620224	0.117122
	H95	H	0.923269	0.387353	0.918411
	H96	H	0.404641	0.118383	0.598449
	H97	H	0.601864	0.882524	0.604299
	H98	H	0.599037	0.115574	0.419107
	H99	H	0.416077	0.885492	0.421040
	H100	H	0.602896	0.411786	0.125259
	H101	H	0.601163	0.590247	0.893298
	H102	H	0.414993	0.586404	0.122022
	H103	H	0.404283	0.407412	0.890121
	H104	H	0.119836	0.586591	0.415654
	H105	H	0.888643	0.591301	0.610224
	H106	H	0.120100	0.411399	0.601283
	H107	H	0.889774	0.411041	0.415010
	H108	H	0.923432	0.611439	0.094467
	H109	H	0.092687	0.385600	0.105599
	H110	H	0.104791	0.618056	0.923132
	H111	H	0.909284	0.385133	0.924717
	H112	H	0.094059	0.900551	0.626076
	H113	H	0.100531	0.091348	0.394234
	H114	H	0.915955	0.092789	0.624034
	H115	H	0.919743	0.906351	0.393760
	H116	H	0.619163	0.086730	0.918910
	H117	H	0.392831	0.087916	0.101368
	H118	H	0.622271	0.905391	0.099856
	H119	H	0.391775	0.910447	0.921845
	C120	C	0.384648	0.008519	0.631028
	C121	C	0.627347	0.992294	0.629818
	C122	C	0.628805	0.009003	0.386843
	C123	C	0.385604	0.992091	0.388589
	C124	C	0.628139	0.378952	0.017964
	C125	C	0.627105	0.621726	1.001417
	C126	C	0.382726	0.623315	0.018001
	C127	C	0.384514	0.380093	1.001265
	C128	C	0.013544	0.622011	0.387768
	C129	C	0.997855	0.622615	0.631533
	C130	C	0.013711	0.379030	0.631631
	C131	C	0.997300	0.379342	0.388213
	C132	C	0.883930	0.508896	0.131462
	C133	C	0.126868	0.492151	0.131428
	C134	C	0.126831	0.509175	0.888350
	C135	C	0.884741	0.492579	0.888609
	C136	C	0.128709	0.878254	0.517037
	C137	C	0.128004	0.121867	0.501429
	C138	C	0.883944	0.122937	0.517592
	C139	C	0.885587	0.879766	0.500698
	C140	C	0.514692	0.123408	0.886338
	C141	C	0.497817	0.122847	0.130807
	C142	C	0.514146	0.878973	0.130876
	C143	C	0.497999	0.879315	0.887241
	C144	C	0.387476	0.886085	0.687500
	C145	C	0.623897	0.115418	0.684622
	C146	C	0.627965	0.886572	0.330415
	C147	C	0.386475	0.115047	0.332868
	C148	C	0.684817	0.380805	0.895561
	C149	C	0.682152	0.619935	0.124135
	C150	C	0.326958	0.622234	0.895593
	C151	C	0.327687	0.380706	0.123508
	C152	C	0.890985	0.678568	0.390653
	C153	C	0.120284	0.677712	0.628785
	C154	C	0.890952	0.324550	0.629389
	C155	C	0.120384	0.323863	0.390186
	C156	C	0.891307	0.381215	0.688440
	C157	C	0.119956	0.620721	0.687377
	C158	C	0.890899	0.621107	0.332847
	C159	C	0.119762	0.380613	0.331817
	C160	C	0.385973	0.678630	0.895120
	C161	C	0.623903	0.677114	0.124371
	C162	C	0.626192	0.324166	0.894979
	C163	C	0.386343	0.323859	0.123613
	C164	C	0.685353	0.886264	0.388293
	C165	C	0.681505	0.115512	0.627499
	C166	C	0.330355	0.885314	0.629803
	C167	C	0.328722	0.114851	0.389998
	C168	C	0.886037	0.385729	0.187635
	C169	C	0.123853	0.615381	0.186791
	C170	C	0.126731	0.386996	0.831972
	C171	C	0.885117	0.615315	0.832573
	C172	C	0.184481	0.880379	0.394588
	C173	C	0.182322	0.118785	0.624551
	C174	C	0.829263	0.120776	0.394785
	C175	C	0.829723	0.881567	0.623465
	C176	C	0.391704	0.178864	0.890012
	C177	C	0.620998	0.177098	0.127709
	C178	C	0.391584	0.823993	0.129314
	C179	C	0.620620	0.822666	0.889016
	C180	C	0.391850	0.881240	0.187524
	C181	C	0.620702	0.119555	0.185759
	C182	C	0.391665	0.120890	0.832428
	C183	C	0.620817	0.880705	0.831152
	C184	C	0.887304	0.178112	0.394413
	C185	C	0.124089	0.176723	0.624388
	C186	C	0.126354	0.823117	0.394183
	C187	C	0.887382	0.824145	0.623532
	C188	C	0.183688	0.386474	0.889638
	C189	C	0.181719	0.615414	0.129546
	C190	C	0.829081	0.385775	0.129927
	C191	C	0.828625	0.615517	0.891151
	C192	C	0.406273	0.094520	0.608048
	C193	C	0.605999	0.906258	0.607955
	C194	C	0.605794	0.094756	0.409350
	C195	C	0.409054	0.906554	0.411054
	C196	C	0.605448	0.401331	0.103582
	C197	C	0.605026	0.599144	0.916157
	C198	C	0.404990	0.600494	0.103351
	C199	C	0.407110	0.402975	0.915805
	C200	C	0.099050	0.598933	0.409909
	C201	C	0.912367	0.600222	0.609269
	C202	C	0.099173	0.401340	0.608987
	C203	C	0.911655	0.401847	0.410630
	C204	C	0.905742	0.594542	0.109144
	C205	C	0.104957	0.406521	0.108948
	C206	C	0.103233	0.594809	0.911422
	C207	C	0.908150	0.406833	0.911288
	C208	C	0.106006	0.900502	0.602852
	C209	C	0.106026	0.099526	0.415999
	C210	C	0.905520	0.100741	0.603471
	C211	C	0.907834	0.902072	0.415069
	C212	C	0.600654	0.100772	0.907939
	C213	C	0.412369	0.100810	0.108718
	C214	C	0.599536	0.901508	0.107846
	C215	C	0.412477	0.902230	0.910094
	Zn216	Zn	0.506336	0.000999	0.758498
	Zn217	Zn	0.506169	0.000797	0.259335
	Zn218	Zn	0.756218	0.500445	0.009889
	Zn219	Zn	0.254806	0.501056	0.009436
	Zn220	Zn	0.006440	0.750545	0.508720
	Zn221	Zn	0.005526	0.251044	0.509232
	Zn222	Zn	0.006061	0.501083	0.760237
	Zn223	Zn	0.005223	0.500748	0.259516
	Zn224	Zn	0.505977	0.750488	0.009294
	Zn225	Zn	0.506160	0.251111	0.008988
	Zn226	Zn	0.756461	0.000553	0.509104
	Zn227	Zn	0.257172	-0.000419	0.509639
	N228	N	0.420253	0.963826	0.688325
	N229	N	0.591011	0.037867	0.686223
	N230	N	0.593702	0.964037	0.329194
	N231	N	0.421130	0.037791	0.331657
	N232	N	0.685938	0.414290	0.972928
	N233	N	0.684274	0.586136	0.046887
	N234	N	0.324733	0.588589	0.973097
	N235	N	0.326634	0.415332	0.046402
	N236	N	0.968379	0.679284	0.424081
	N237	N	0.043354	0.678772	0.594674
	N238	N	0.968061	0.323001	0.594878
	N239	N	0.043122	0.322733	0.424288
	N240	N	0.968587	0.414646	0.689734
	N241	N	0.042644	0.587386	0.689326
	N242	N	0.968047	0.586558	0.331231
	N243	N	0.042260	0.414605	0.330595
	N244	N	0.419924	0.679538	0.972157
	N245	N	0.590515	0.678511	0.047054
	N246	N	0.591870	0.322828	0.972159
	N247	N	0.420939	0.323379	0.046630
	N248	N	0.685715	0.963402	0.422906
	N249	N	0.683949	0.037694	0.594178
	N250	N	0.328417	0.962503	0.595290
	N251	N	0.328177	0.037407	0.424026
	N252	N	0.919513	0.463138	0.188762
	N253	N	0.090334	0.537910	0.187937
	N254	N	0.092323	0.464268	0.831085
	N255	N	0.919117	0.537762	0.830781
	N256	N	0.185884	0.913852	0.471923
	N257	N	0.185017	0.085446	0.547072
	N258	N	0.827031	0.087225	0.472288
	N259	N	0.828507	0.915682	0.546215
	N260	N	0.469224	0.180125	0.922935
	N261	N	0.543642	0.179306	0.094339
	N262	N	0.468616	0.822574	0.094757
	N263	N	0.543355	0.821638	0.923139
	N264	N	0.469222	0.914586	0.188716
	N265	N	0.543283	0.086301	0.187550
	N266	N	0.469272	0.087348	0.829900
	N267	N	0.543482	0.915164	0.829973
	N268	N	0.920518	0.179578	0.471845
	N269	N	0.091173	0.178848	0.546917
	N270	N	0.092438	0.821639	0.471576
	N271	N	0.921626	0.822963	0.546419
	N272	N	0.183657	0.463665	0.924217
	N273	N	0.183901	0.537843	0.096037
	N274	N	0.827460	0.463229	0.095837
	N275	N	0.828448	0.538233	0.925450
	O276	O	0.113227	-0.054233	-0.061055
	H277	H	0.127557	-0.058395	-0.063730
	H278	H	0.100518	-0.046247	-0.055020
	O279	O	0.528510	0.488225	0.631078
	H280	H	0.526038	0.481402	0.636682
	H281	H	0.509223	0.488836	0.636211
	O282	O	0.475521	0.505830	0.556043
	H283	H	0.473303	0.508146	0.545899
	H284	H	0.483377	0.496985	0.554297
	O285	O	0.898476	-0.041709	1.028696
	H286	H	0.890850	-0.045207	1.028771
	H287	H	0.908787	-0.044168	1.031927
	O288	O	0.946215	-0.073792	-0.049901
	H289	H	0.952013	-0.077025	-0.056812
	H290	H	0.952912	-0.072964	-0.052518
	O291	O	0.439625	0.512104	0.470959
	H292	H	0.444980	0.516633	0.458653
	H293	H	0.435491	0.511623	0.466648
	O294	O	1.415827	0.499820	0.522880
	H295	H	1.423344	0.502365	0.517897
	H296	H	1.418247	0.494713	0.531587
	O297	O	0.003957	0.023564	0.030204
	H298	H	-0.000814	0.031659	0.034732
	H299	H	0.002228	0.020704	0.025042
	O300	O	0.403774	0.391449	0.552194
	H301	H	0.394649	0.396779	0.551630
	H302	H	0.413183	0.387082	0.537010
	O303	O	0.477791	0.536082	0.529489
	H304	H	0.487800	0.533619	0.545033
	H305	H	0.486686	0.535552	0.520878
	O306	O	1.053006	-0.068732	-0.000461
	H307	H	1.058404	-0.064728	0.002763
	H308	H	1.050848	-0.062313	-0.012936
	O309	O	0.023375	-0.002860	0.972169
	H310	H	0.013499	-0.005219	0.967562
	H311	H	0.024134	-0.009472	0.979394
	O312	O	1.014970	0.990481	0.960206
	H313	H	1.007838	0.995108	0.957079
	H314	H	1.021526	0.991830	0.959105
	O315	O	0.536972	0.435377	0.548133
	H316	H	0.540751	0.421849	0.553734
	H317	H	0.537104	0.436672	0.538072
	O318	O	0.603210	0.550044	0.494694
	H319	H	0.608849	0.548958	0.495175
	H320	H	0.601181	0.558963	0.507017
	O321	O	-0.044562	0.964663	1.039523
	H322	H	-0.045803	0.963636	1.046405
	H323	H	-0.047964	0.961685	1.031720
	O324	O	0.400662	0.505801	0.583723
	H325	H	0.406074	0.501667	0.573504
	H326	H	0.389143	0.499924	0.596158
	O327	O	1.032514	0.950568	0.029191
	H328	H	1.039091	0.942633	0.034046
	H329	H	1.031413	0.941814	0.027842
	O330	O	0.523864	0.486475	0.526612
	H331	H	0.523227	0.489290	0.520626
	H332	H	0.520936	0.487961	0.531522
	O333	O	0.534039	0.432480	0.434820
	H334	H	0.539786	0.436805	0.426797
	H335	H	0.532249	0.432313	0.430660
	O336	O	0.565175	0.426129	0.441401
	H337	H	0.566368	0.425936	0.441876
	H338	H	0.568333	0.437719	0.434943
	O339	O	0.976044	1.004982	0.016062
	H340	H	0.973453	1.005020	0.022942
	H341	H	0.977045	1.004353	0.009846
	O342	O	0.511345	0.575642	0.547760
	H343	H	0.498877	0.577700	0.543824
	H344	H	0.515911	0.572952	0.557285
	O345	O	0.423026	0.513380	0.425850
	H346	H	0.425989	0.507140	0.423173
	H347	H	0.419646	0.508009	0.425803
	O348	O	0.043079	-0.013712	-0.015483
	H349	H	0.042149	-0.009473	-0.010593
	H350	H	0.036067	-0.015707	-0.011500
	O351	O	-0.409561	0.510769	0.440645
	H352	H	-0.413469	0.525060	0.442216
	H353	H	-0.390100	0.508801	0.438066
	O354	O	0.556066	0.517548	0.430126
	H355	H	0.547082	0.519669	0.437201
	H356	H	0.555634	0.524591	0.431498
	O357	O	-0.600905	1.639563	0.443494
	H358	H	-0.607136	1.632013	0.445362
	H359	H	-0.608494	1.642806	0.437450
