data_Molecule from HDF5

_cell_length_a		16.293537
_cell_length_b		16.322984
_cell_length_c		16.454347
_cell_angle_alpha	90.158647
_cell_angle_beta	90.059581
_cell_angle_gamma	89.968370
_symmetry_space_group_name_H-M	'P 1'
_symmetry_Int_Tables_number		1

loop_
	_symmetry_equiv_pos_as_xyz
	x,y,z

loop_
	_atom_site_label
	_atom_site_type_symbol
	_atom_site_fract_x
	_atom_site_fract_y
	_atom_site_fract_z
	H0	H	0.375250	0.826360	0.743377
	H1	H	0.588987	0.145133	0.745807
	H2	H	0.583486	0.824069	0.305813
	H3	H	0.376590	0.146287	0.303210
	H4	H	0.699353	0.382153	0.863695
	H5	H	0.698851	0.588594	0.184143
	H6	H	0.258112	0.591569	0.864726
	H7	H	0.260283	0.382923	0.183201
	H8	H	0.817485	0.702063	0.425735
	H9	H	0.141718	0.704092	0.626478
	H10	H	0.818557	0.268659	0.624791
	H11	H	0.141368	0.265932	0.418986
	H12	H	0.819864	0.380763	0.743235
	H13	H	0.138698	0.593037	0.746526
	H14	H	0.817740	0.588441	0.306110
	H15	H	0.140949	0.382150	0.303553
	H16	H	0.376829	0.705696	0.863476
	H17	H	0.581925	0.705348	0.184297
	H18	H	0.588191	0.262536	0.865776
	H19	H	0.376118	0.265889	0.182418
	H20	H	0.695337	0.822814	0.424924
	H21	H	0.698066	0.147600	0.624659
	H22	H	0.265465	0.823888	0.622801
	H23	H	0.260626	0.146376	0.419080
	H24	H	0.876943	0.324655	0.240693
	H25	H	0.081737	0.647431	0.242025
	H26	H	0.083920	0.325597	0.803990
	H27	H	0.875390	0.646583	0.805260
	H28	H	0.197354	0.882805	0.362125
	H29	H	0.200757	0.088562	0.683962
	H30	H	0.763020	0.085240	0.362492
	H31	H	0.762519	0.885136	0.684934
	H32	H	0.320718	0.205112	0.920043
	H33	H	0.642680	0.203870	0.125718
	H34	H	0.318023	0.770990	0.122696
	H35	H	0.642971	0.769159	0.923146
	H36	H	0.318789	0.883075	0.241424
	H37	H	0.642515	0.088313	0.241889
	H38	H	0.320575	0.090802	0.803125
	H39	H	0.641967	0.882780	0.804150
	H40	H	0.877456	0.203865	0.363617
	H41	H	0.083818	0.205741	0.683610
	H42	H	0.080555	0.766284	0.363497
	H43	H	0.878989	0.768906	0.685463
	H44	H	0.197880	0.325064	0.921493
	H45	H	0.195419	0.648544	0.124767
	H46	H	0.765807	0.323172	0.120780
	H47	H	0.763123	0.647348	0.923678
	H48	H	0.389497	0.100726	0.611600
	H49	H	0.575569	0.870226	0.613409
	H50	H	0.578201	0.100034	0.440093
	H51	H	0.395135	0.871629	0.430634
	H52	H	0.569466	0.398830	0.135131
	H53	H	0.572869	0.573565	0.910401
	H54	H	0.395480	0.580671	0.136419
	H55	H	0.393093	0.395053	0.910025
	H56	H	0.096013	0.581177	0.433602
	H57	H	0.863408	0.582443	0.613395
	H58	H	0.094154	0.398445	0.614962
	H59	H	0.863837	0.389635	0.432316
	H60	H	0.095356	0.395820	0.614719
	H61	H	0.867291	0.572607	0.611016
	H62	H	0.092849	0.572875	0.437185
	H63	H	0.867955	0.398096	0.438027
	H64	H	0.383009	0.582430	0.140036
	H65	H	0.568721	0.577907	0.911051
	H66	H	0.569451	0.392131	0.138302
	H67	H	0.388324	0.395816	0.910234
	H68	H	0.576129	0.105130	0.422321
	H69	H	0.568879	0.870207	0.618256
	H70	H	0.394037	0.100228	0.615293
	H71	H	0.388485	0.871727	0.433937
	H72	H	0.890362	0.601026	0.116548
	H73	H	0.081351	0.369302	0.110699
	H74	H	0.082090	0.604113	0.937740
	H75	H	0.890079	0.369706	0.927326
	H76	H	0.065512	0.894331	0.635754
	H77	H	0.067287	0.073470	0.412418
	H78	H	0.890432	0.078330	0.637693
	H79	H	0.889977	0.892774	0.410350
	H80	H	0.593249	0.070123	0.938461
	H81	H	0.365026	0.073648	0.119448
	H82	H	0.593826	0.901397	0.112888
	H83	H	0.365018	0.896968	0.929343
	H84	H	0.598207	0.894051	0.123379
	H85	H	0.364994	0.081895	0.111975
	H86	H	0.595867	0.071726	0.928604
	H87	H	0.366199	0.894798	0.933866
	H88	H	0.887957	0.078170	0.638512
	H89	H	0.069715	0.079207	0.409332
	H90	H	0.076957	0.890177	0.640245
	H91	H	0.887792	0.893313	0.409897
	H92	H	0.063806	0.603133	0.920983
	H93	H	0.066717	0.368343	0.126267
	H94	H	0.888539	0.600939	0.114529
	H95	H	0.894676	0.372830	0.933591
	H96	H	0.394765	0.098225	0.610550
	H97	H	0.568266	0.873197	0.611092
	H98	H	0.561656	0.097791	0.431222
	H99	H	0.389227	0.869231	0.427698
	H100	H	0.575196	0.396103	0.138959
	H101	H	0.573712	0.579173	0.908236
	H102	H	0.387542	0.571160	0.135301
	H103	H	0.390457	0.399487	0.911877
	H104	H	0.094993	0.573198	0.427449
	H105	H	0.863624	0.574820	0.620638
	H106	H	0.093914	0.397320	0.612266
	H107	H	0.865474	0.399362	0.427532
	H108	H	0.887858	0.602107	0.116845
	H109	H	0.061017	0.376580	0.107249
	H110	H	0.059459	0.594578	0.943787
	H111	H	0.886813	0.370858	0.934989
	H112	H	0.076455	0.902336	0.635637
	H113	H	0.073943	0.073721	0.410091
	H114	H	0.889321	0.076483	0.637746
	H115	H	0.889012	0.894712	0.410548
	H116	H	0.596517	0.078814	0.935547
	H117	H	0.369976	0.071640	0.109316
	H118	H	0.597344	0.887897	0.111366
	H119	H	0.366647	0.899681	0.932828
	C120	C	0.361015	-0.006129	0.643309
	C121	C	0.602793	0.977217	0.645557
	C122	C	0.602298	-0.006022	0.401820
	C123	C	0.359331	0.977350	0.400324
	C124	C	0.602400	0.364307	0.031939
	C125	C	0.602095	0.607602	1.015536
	C126	C	0.357731	0.608978	0.031780
	C127	C	0.359005	0.364780	1.015819
	C128	C	-0.012077	0.606527	0.403154
	C129	C	0.971245	0.607765	0.645880
	C130	C	-0.011551	0.365548	0.644552
	C131	C	0.972199	0.364428	0.401539
	C132	C	0.858508	0.494551	0.145272
	C133	C	0.100506	0.477914	0.145493
	C134	C	0.100408	0.494677	0.902670
	C135	C	0.858690	0.477140	0.901981
	C136	C	0.102611	0.863771	0.531697
	C137	C	0.102531	0.107349	0.515567
	C138	C	0.858771	0.107250	0.531870
	C139	C	0.858845	0.864293	0.516580
	C140	C	0.489641	0.106549	0.902206
	C141	C	0.472786	0.107209	0.145110
	C142	C	0.489045	0.864761	0.145240
	C143	C	0.472483	0.865509	0.901719
	C144	C	0.358526	0.873611	0.702372
	C145	C	0.605590	0.097677	0.705111
	C146	C	0.602263	0.872383	0.344830
	C147	C	0.358015	0.098294	0.342511
	C148	C	0.661083	0.362777	0.912174
	C149	C	0.659853	0.607951	0.136247
	C150	C	0.298051	0.610007	0.912156
	C151	C	0.299585	0.363667	0.135155
	C152	C	0.865946	0.663544	0.405002
	C153	C	0.092900	0.665569	0.645996
	C154	C	0.867210	0.306978	0.644360
	C155	C	0.093179	0.305520	0.400480
	C156	C	0.867667	0.363201	0.703109
	C157	C	0.091588	0.610470	0.705725
	C158	C	0.866145	0.607492	0.345388
	C159	C	0.092859	0.363179	0.342744
	C160	C	0.357341	0.666862	0.911679
	C161	C	0.601752	0.665983	0.136137
	C162	C	0.605092	0.303668	0.912888
	C163	C	0.357448	0.305245	0.134781
	C164	C	0.658332	0.871672	0.403812
	C165	C	0.660284	0.098738	0.645038
	C166	C	0.303651	0.872426	0.642447
	C167	C	0.300546	0.098254	0.400239
	C168	C	0.858122	0.372930	0.201997
	C169	C	0.100612	0.599354	0.203001
	C170	C	0.102375	0.373964	0.843343
	C171	C	0.857009	0.598331	0.844232
	C172	C	0.159267	0.863216	0.410672
	C173	C	0.161655	0.108394	0.635656
	C174	C	0.801939	0.105262	0.410659
	C175	C	0.801635	0.865526	0.637229
	C176	C	0.368617	0.165882	0.900867
	C177	C	0.594245	0.165275	0.145196
	C178	C	0.366820	0.808473	0.143658
	C179	C	0.594248	0.807388	0.902788
	C180	C	0.367252	0.864787	0.202279
	C181	C	0.594170	0.107662	0.202880
	C182	C	0.368789	0.109128	0.842554
	C183	C	0.593827	0.863927	0.843700
	C184	C	0.858761	0.164374	0.411271
	C185	C	0.103229	0.166398	0.635730
	C186	C	0.101319	0.804895	0.411453
	C187	C	0.859576	0.807673	0.637467
	C188	C	0.159109	0.373535	0.901943
	C189	C	0.157616	0.599682	0.144887
	C190	C	0.802727	0.372211	0.142440
	C191	C	0.801390	0.598817	0.903499
	C192	C	0.385776	0.077917	0.619336
	C193	C	0.578090	0.893084	0.621438
	C194	C	0.579061	0.079006	0.424662
	C195	C	0.383851	0.892918	0.423906
	C196	C	0.578291	0.388674	0.115636
	C197	C	0.578609	0.583887	0.931763
	C198	C	0.381710	0.584965	0.115518
	C199	C	0.383678	0.389637	0.932479
	C200	C	0.072619	0.582500	0.425962
	C201	C	0.886697	0.583531	0.622067
	C202	C	0.072781	0.390159	0.620774
	C203	C	0.887744	0.388675	0.425698
	C204	C	0.882176	0.579391	0.122639
	C205	C	0.076678	0.393336	0.121778
	C206	C	0.075603	0.578715	0.927202
	C207	C	0.883254	0.392938	0.925389
	C208	C	0.079496	0.888365	0.615349
	C209	C	0.077636	0.082705	0.432297
	C210	C	0.882435	0.084384	0.616035
	C211	C	0.882136	0.887024	0.432099
	C212	C	0.573330	0.081022	0.927033
	C213	C	0.388371	0.082864	0.120729
	C214	C	0.574305	0.887774	0.122445
	C215	C	0.387936	0.889901	0.925262
	Zn216	Zn	0.481061	-0.013462	0.772936
	Zn217	Zn	0.481456	-0.014417	0.273172
	Zn218	Zn	0.731095	0.485545	0.023931
	Zn219	Zn	0.228929	0.486530	0.023827
	Zn220	Zn	-0.020186	0.735227	0.524742
	Zn221	Zn	-0.019561	0.236735	0.523715
	Zn222	Zn	-0.020336	0.486066	0.773538
	Zn223	Zn	-0.020816	0.486203	0.273507
	Zn224	Zn	0.480428	0.737027	0.023607
	Zn225	Zn	0.481167	0.235183	0.023288
	Zn226	Zn	0.729653	-0.014490	0.523864
	Zn227	Zn	0.232042	-0.014471	0.523006
	N228	N	0.393735	0.950107	0.703035
	N229	N	0.570385	0.021030	0.705568
	N230	N	0.568026	0.949352	0.343584
	N231	N	0.393768	0.022001	0.342377
	N232	N	0.659454	0.400036	0.987219
	N233	N	0.660162	0.572302	0.060452
	N234	N	0.298209	0.574692	0.987905
	N235	N	0.300476	0.400025	0.059947
	N236	N	0.942434	0.663175	0.440080
	N237	N	0.017089	0.663945	0.609472
	N238	N	0.943247	0.308513	0.608399
	N239	N	0.017102	0.306221	0.436317
	N240	N	0.944096	0.399074	0.703313
	N241	N	0.015127	0.575002	0.705663
	N242	N	0.942939	0.572620	0.344259
	N243	N	0.016514	0.399091	0.343180
	N244	N	0.393532	0.666482	0.987058
	N245	N	0.566571	0.665975	0.060185
	N246	N	0.569248	0.304355	0.988376
	N247	N	0.393728	0.305924	0.059388
	N248	N	0.658547	0.948435	0.438451
	N249	N	0.658402	0.023044	0.608602
	N250	N	0.305166	0.948225	0.606336
	N251	N	0.301161	0.022020	0.435474
	N252	N	0.891924	0.450037	0.203877
	N253	N	0.066319	0.522490	0.203763
	N254	N	0.066781	0.450362	0.843645
	N255	N	0.891691	0.521599	0.843019
	N256	N	0.160522	0.898978	0.486414
	N257	N	0.161314	0.072551	0.559969
	N258	N	0.801529	0.070587	0.486744
	N259	N	0.801392	0.900205	0.561090
	N260	N	0.444584	0.164513	0.937015
	N261	N	0.517509	0.165242	0.110136
	N262	N	0.443486	0.808367	0.108964
	N263	N	0.517652	0.808029	0.937852
	N264	N	0.444549	0.898921	0.203338
	N265	N	0.517660	0.072422	0.203089
	N266	N	0.445087	0.073060	0.843055
	N267	N	0.517087	0.898810	0.842501
	N268	N	0.893146	0.165788	0.487556
	N269	N	0.067553	0.166205	0.559922
	N270	N	0.066912	0.805093	0.487753
	N271	N	0.894567	0.806936	0.561539
	N272	N	0.158242	0.449584	0.937960
	N273	N	0.157643	0.523149	0.109746
	N274	N	0.802910	0.448822	0.108102
	N275	N	0.801926	0.522388	0.938402
	O276	O	0.289728	0.378822	0.724404
	H277	H	0.288185	0.402265	0.739516
	H278	H	0.288566	0.371237	0.716472
	O279	O	0.429426	0.420018	0.686724
	H280	H	0.434124	0.407414	0.687461
	H281	H	0.413846	0.440848	0.679277
	O282	O	0.861530	-0.052446	0.964448
	H283	H	0.870626	-0.049239	0.968367
	H284	H	0.863363	-0.056341	0.957159
	O285	O	0.892211	-0.020364	-0.093958
	H286	H	0.895447	-0.023410	-0.094169
	H287	H	0.883726	-0.026215	-0.100821
	O288	O	0.968988	0.944082	1.051795
	H289	H	0.971326	0.955575	1.048608
	H290	H	0.949885	0.940608	1.051593
	O291	O	0.631143	1.555044	0.667332
	H292	H	0.624668	1.552563	0.670016
	H293	H	0.643492	1.560679	0.667666
	O294	O	0.533289	0.590000	0.469323
	H295	H	0.529992	0.570901	0.458249
	H296	H	0.538482	0.580030	0.454082
	O297	O	0.443719	0.518469	0.589577
	H298	H	0.445388	0.536512	0.591961
	H299	H	0.436682	0.523534	0.598952
	O300	O	1.022785	0.067828	0.135315
	H301	H	1.026478	0.068903	0.141407
	H302	H	1.010763	0.059886	0.135795
	O303	O	0.428297	0.286951	0.492804
	H304	H	0.406987	0.275607	0.499911
	H305	H	0.443060	0.286524	0.495712
	O306	O	0.416415	1.623425	0.729926
	H307	H	0.428449	1.644031	0.734465
	H308	H	0.425557	1.634847	0.723794
	O309	O	0.567350	0.380240	0.594936
	H310	H	0.549367	0.394186	0.595598
	H311	H	0.565499	0.370372	0.605324
	O312	O	0.569650	0.640555	0.355663
	H313	H	0.568132	0.632737	0.370111
	H314	H	0.579717	0.611879	0.351650
	O315	O	0.593472	0.342374	0.416966
	H316	H	0.592610	0.339920	0.400097
	H317	H	0.583041	0.350616	0.410703
	O318	O	0.123823	0.889705	0.915034
	H319	H	0.123440	0.883208	0.918352
	H320	H	0.128804	0.889654	0.915052
	O321	O	0.543153	0.460280	0.599059
	H322	H	0.536502	0.455819	0.604466
	H323	H	0.549425	0.472831	0.597175
	O324	O	0.518423	0.365345	-0.613163
	H325	H	0.501247	0.354273	-0.630780
	H326	H	0.521787	0.363128	-0.594104
	O327	O	-0.051947	1.077516	-0.056117
	H328	H	-0.032450	1.072620	-0.038100
	H329	H	-0.049918	1.072612	-0.068448
	O330	O	0.059582	-0.006863	1.046438
	H331	H	0.050647	-0.022555	1.047831
	H332	H	0.056727	-0.012910	1.055364
	O333	O	0.018999	-0.106605	0.978569
	H334	H	0.019550	-0.107712	0.994999
	H335	H	0.010393	-0.107860	0.979991
	O336	O	-0.024229	0.991029	0.014722
	H337	H	-0.035155	0.989238	0.008447
	H338	H	-0.012544	0.989211	0.012353
	O339	O	0.975530	0.006312	0.181555
	H340	H	0.984140	0.007790	0.168151
	H341	H	0.977069	0.004053	0.173874
	O342	O	-0.180478	-0.044095	0.075841
	H343	H	-0.185644	-0.036040	0.072748
	H344	H	-0.174056	-0.037038	0.078291
	O345	O	1.011435	0.052411	0.939197
	H346	H	1.007728	0.057178	0.940600
	H347	H	1.012805	0.054530	0.948245
	O348	O	0.954820	0.859682	0.022840
	H349	H	0.948365	0.856186	0.043142
	H350	H	0.949660	0.866256	0.025736
	O351	O	0.455728	0.547166	0.362677
	H352	H	0.447432	0.536870	0.377783
	H353	H	0.469187	0.540774	0.354531
	O354	O	0.287633	0.319012	1.518651
	H355	H	0.268424	0.309678	1.510853
	H356	H	0.293609	0.321766	1.528630
	O357	O	0.411612	0.571276	0.505413
	H358	H	0.421757	0.572633	0.490982
	H359	H	0.427821	0.576868	0.515110
	O360	O	1.411597	-0.455867	-0.527546
	H361	H	1.408556	-0.462545	-0.526853
	H362	H	1.407198	-0.462076	-0.528604
	O363	O	0.028514	0.815886	0.926870
	H364	H	0.011870	0.804252	0.922242
	H365	H	0.040995	0.823555	0.940044
	O366	O	0.311280	0.661727	0.391561
	H367	H	0.315254	0.666265	0.389460
	H368	H	0.332169	0.665421	0.395526
	O369	O	-0.255564	0.232017	-0.746645
	H370	H	-0.243320	0.228783	-0.745536
	H371	H	-0.271413	0.221948	-0.731911
	O372	O	0.356656	0.440374	0.442588
	H373	H	0.331881	0.450318	0.434378
	H374	H	0.351840	0.435830	0.454796
	O375	O	0.369096	0.458033	0.592415
	H376	H	0.375993	0.458958	0.596941
	H377	H	0.372922	0.463480	0.600864
	O378	O	1.536420	1.614535	-0.414788
	H379	H	1.535282	1.633875	-0.433312
	H380	H	1.545436	1.599860	-0.426059
	O381	O	1.115377	-0.114667	0.115910
	H382	H	1.122872	-0.118517	0.121104
	H383	H	1.120579	-0.118681	0.107032
	O384	O	1.130501	1.057314	0.043621
	H385	H	1.126896	1.050137	0.046222
	H386	H	1.139003	1.058129	0.047518
	O387	O	0.714729	-0.202334	0.303849
	H388	H	0.712440	-0.197599	0.308529
	H389	H	0.700487	-0.205404	0.306560
	O390	O	0.654591	1.532176	-0.533492
	H391	H	0.649640	1.512199	-0.542695
	H392	H	0.673445	1.525261	-0.541998
	O393	O	0.865866	0.945519	1.128193
	H394	H	0.858924	0.946007	1.125430
	H395	H	0.852120	0.942244	1.132281
	O396	O	0.083703	0.134826	0.064657
	H397	H	0.082028	0.123642	0.059726
	H398	H	0.087366	0.131529	0.068673
	O399	O	-0.061234	1.059578	1.150272
	H400	H	-0.054759	1.055550	1.141178
	H401	H	-0.065329	1.067896	1.146971
	O402	O	0.502973	0.474883	0.415004
	H403	H	0.488121	0.480883	0.405020
	H404	H	0.510231	0.468476	0.429047
	O405	O	1.013980	1.067003	0.095473
	H406	H	1.009871	1.071740	0.092330
	H407	H	1.022653	1.064448	0.093736
	O408	O	1.662072	1.467024	-0.424570
	H409	H	1.652426	1.463164	-0.429632
	H410	H	1.667595	1.465211	-0.408018
	O411	O	1.073468	-0.060849	1.028053
	H412	H	1.069748	-0.061849	1.032366
	H413	H	1.074032	-0.051805	1.045635
	O414	O	0.466225	0.546210	0.513265
	H415	H	0.452364	0.544769	0.521994
	H416	H	0.459785	0.536185	0.516139
	O417	O	0.400365	0.353849	0.710420
	H418	H	0.411193	0.379457	0.717759
	H419	H	0.389980	0.332742	0.699313
