data_Molecule from HDF5

_cell_length_a		16.410919
_cell_length_b		16.296744
_cell_length_c		16.168028
_cell_angle_alpha	90.204997
_cell_angle_beta	89.833166
_cell_angle_gamma	89.997970
_symmetry_space_group_name_H-M	'P 1'
_symmetry_Int_Tables_number		1

loop_
	_symmetry_equiv_pos_as_xyz
	x,y,z

loop_
	_atom_site_label
	_atom_site_type_symbol
	_atom_site_fract_x
	_atom_site_fract_y
	_atom_site_fract_z
	H0	H	0.396417	0.837316	0.712478
	H1	H	0.589867	0.166080	0.713182
	H2	H	0.589921	0.836805	0.285611
	H3	H	0.397055	0.165115	0.287817
	H4	H	0.711467	0.400325	0.836244
	H5	H	0.708567	0.602757	0.163758
	H6	H	0.280121	0.600673	0.835432
	H7	H	0.280533	0.402980	0.163127
	H8	H	0.831827	0.717289	0.400911
	H9	H	0.155323	0.720126	0.602309
	H10	H	0.830584	0.286119	0.601781
	H11	H	0.154388	0.283435	0.398599
	H12	H	0.832028	0.403112	0.717830
	H13	H	0.156988	0.600038	0.714192
	H14	H	0.832130	0.599123	0.284700
	H15	H	0.157150	0.402244	0.284524
	H16	H	0.396951	0.714545	0.834559
	H17	H	0.592851	0.716760	0.163663
	H18	H	0.595520	0.285742	0.835610
	H19	H	0.397458	0.290287	0.164370
	H20	H	0.710610	0.839257	0.396707
	H21	H	0.710798	0.164044	0.602338
	H22	H	0.274912	0.839307	0.601717
	H23	H	0.276253	0.163901	0.399054
	H24	H	0.897676	0.337007	0.212125
	H25	H	0.093367	0.664807	0.215416
	H26	H	0.093566	0.337831	0.783444
	H27	H	0.897241	0.665601	0.787445
	H28	H	0.209888	0.898281	0.337571
	H29	H	0.209002	0.105420	0.662653
	H30	H	0.777955	0.101715	0.335972
	H31	H	0.774301	0.899300	0.662983
	H32	H	0.333254	0.219670	0.899217
	H33	H	0.656115	0.218285	0.100522
	H34	H	0.332797	0.784602	0.099963
	H35	H	0.656812	0.784887	0.896593
	H36	H	0.330774	0.903452	0.213684
	H37	H	0.655739	0.100903	0.215719
	H38	H	0.331230	0.101535	0.785330
	H39	H	0.656334	0.902405	0.781273
	H40	H	0.893126	0.216009	0.336417
	H41	H	0.092175	0.217610	0.663107
	H42	H	0.093575	0.785099	0.336398
	H43	H	0.892263	0.786619	0.664283
	H44	H	0.212881	0.338687	0.896537
	H45	H	0.211452	0.664401	0.101509
	H46	H	0.774931	0.340564	0.103950
	H47	H	0.776397	0.663042	0.897219
	H48	H	0.394071	0.119445	0.595026
	H49	H	0.581342	0.889146	0.583442
	H50	H	0.590844	0.116796	0.414231
	H51	H	0.401729	0.884243	0.404652
	H52	H	0.588324	0.414436	0.115851
	H53	H	0.581258	0.589798	0.885348
	H54	H	0.403477	0.595411	0.116534
	H55	H	0.407041	0.399690	0.879981
	H56	H	0.109717	0.594337	0.407768
	H57	H	0.878087	0.590733	0.600376
	H58	H	0.103441	0.421537	0.588222
	H59	H	0.878868	0.406493	0.408755
	H60	H	0.112815	0.405243	0.602476
	H61	H	0.876423	0.602531	0.593540
	H62	H	0.108780	0.594268	0.408534
	H63	H	0.879926	0.411333	0.406966
	H64	H	0.400045	0.594558	0.117279
	H65	H	0.587893	0.600381	0.879863
	H66	H	0.582019	0.409635	0.114918
	H67	H	0.392876	0.413046	0.879704
	H68	H	0.588684	0.119358	0.401844
	H69	H	0.591731	0.885052	0.588188
	H70	H	0.405082	0.117017	0.593852
	H71	H	0.399818	0.886097	0.410621
	H72	H	0.903717	0.615120	0.086780
	H73	H	0.083085	0.387776	0.089841
	H74	H	0.088143	0.615459	0.913048
	H75	H	0.900787	0.385627	0.910568
	H76	H	0.085296	0.915286	0.615702
	H77	H	0.087828	0.101960	0.378537
	H78	H	0.896308	0.097567	0.619507
	H79	H	0.898256	0.915875	0.385416
	H80	H	0.609269	0.097379	0.909888
	H81	H	0.377708	0.091681	0.101560
	H82	H	0.608316	0.907350	0.087528
	H83	H	0.382556	0.909280	0.915262
	H84	H	0.608602	0.913499	0.092823
	H85	H	0.376217	0.106148	0.092871
	H86	H	0.606095	0.089434	0.911336
	H87	H	0.379991	0.913961	0.901529
	H88	H	0.898251	0.088244	0.615424
	H89	H	0.093338	0.084017	0.383523
	H90	H	0.080143	0.911103	0.615390
	H91	H	0.909707	0.910084	0.386146
	H92	H	0.092979	0.618714	0.907322
	H93	H	0.091522	0.386589	0.085167
	H94	H	0.895879	0.618624	0.091527
	H95	H	0.903012	0.385481	0.907993
	H96	H	0.398355	0.115861	0.585136
	H97	H	0.581665	0.885453	0.596018
	H98	H	0.579624	0.114916	0.409981
	H99	H	0.395729	0.883445	0.406162
	H100	H	0.588709	0.407215	0.117844
	H101	H	0.593723	0.588274	0.881676
	H102	H	0.402374	0.593138	0.116020
	H103	H	0.410749	0.417482	0.886258
	H104	H	0.108777	0.593946	0.408354
	H105	H	0.882636	0.591597	0.587280
	H106	H	0.106970	0.399062	0.581028
	H107	H	0.877446	0.407912	0.404261
	H108	H	0.904390	0.617963	0.096023
	H109	H	0.090901	0.383622	0.094713
	H110	H	0.085785	0.616652	0.905742
	H111	H	0.904007	0.387619	0.911016
	H112	H	0.085470	0.908924	0.618712
	H113	H	0.075106	0.089572	0.385674
	H114	H	0.905799	0.094664	0.616413
	H115	H	0.899122	0.903755	0.381082
	H116	H	0.609513	0.091564	0.902918
	H117	H	0.381984	0.091956	0.085158
	H118	H	0.611295	0.905569	0.095481
	H119	H	0.376197	0.900124	0.905038
	C120	C	0.370439	0.009786	0.621231
	C121	C	0.614475	0.993819	0.619798
	C122	C	0.615210	0.009313	0.378125
	C123	C	0.370765	0.992671	0.378471
	C124	C	0.616202	0.380234	0.008093
	C125	C	0.616249	0.622909	0.990824
	C126	C	0.373254	0.623113	0.008247
	C127	C	0.374478	0.380889	0.990476
	C128	C	0.002289	0.622748	0.378973
	C129	C	0.986190	0.624119	0.622468
	C130	C	0.001079	0.379616	0.621282
	C131	C	0.985553	0.379080	0.377168
	C132	C	0.872415	0.509794	0.121509
	C133	C	0.116804	0.493554	0.120293
	C134	C	0.117598	0.509243	0.878194
	C135	C	0.873591	0.493270	0.879737
	C136	C	0.113918	0.880589	0.509046
	C137	C	0.114191	0.122631	0.490755
	C138	C	0.871269	0.122380	0.508368
	C139	C	0.871854	0.880116	0.491909
	C140	C	0.502003	0.123164	0.878251
	C141	C	0.485658	0.124982	0.122273
	C142	C	0.502181	0.880067	0.120965
	C143	C	0.486407	0.878697	0.876502
	C144	C	0.374282	0.886583	0.675957
	C145	C	0.611502	0.116671	0.676313
	C146	C	0.611490	0.886138	0.322707
	C147	C	0.375091	0.116035	0.324665
	C148	C	0.672778	0.380828	0.884839
	C149	C	0.671028	0.622234	0.114419
	C150	C	0.318089	0.620847	0.884517
	C151	C	0.318471	0.382952	0.114044
	C152	C	0.880341	0.678783	0.380491
	C153	C	0.107326	0.680871	0.621414
	C154	C	0.879435	0.323933	0.621070
	C155	C	0.106711	0.322629	0.378842
	C156	C	0.880053	0.381882	0.679195
	C157	C	0.108348	0.621130	0.677162
	C158	C	0.880490	0.620205	0.322644
	C159	C	0.108036	0.381501	0.322139
	C160	C	0.376406	0.677031	0.883896
	C161	C	0.613330	0.678876	0.114437
	C162	C	0.615167	0.323859	0.884608
	C163	C	0.376547	0.326923	0.114731
	C164	C	0.671748	0.887314	0.377692
	C165	C	0.671532	0.115802	0.621056
	C166	C	0.314020	0.887611	0.620784
	C167	C	0.315071	0.115241	0.380044
	C168	C	0.876272	0.386463	0.175525
	C169	C	0.113904	0.616218	0.176944
	C170	C	0.114712	0.386742	0.821249
	C171	C	0.876283	0.616273	0.824341
	C172	C	0.171108	0.879798	0.386190
	C173	C	0.170468	0.123721	0.613734
	C174	C	0.815596	0.121273	0.385060
	C175	C	0.813903	0.880543	0.614558
	C176	C	0.381202	0.180846	0.879360
	C177	C	0.607316	0.180511	0.120856
	C178	C	0.380639	0.823447	0.119582
	C179	C	0.608117	0.822978	0.877120
	C180	C	0.379728	0.882491	0.176329
	C181	C	0.607343	0.122063	0.178208
	C182	C	0.380125	0.122013	0.822690
	C183	C	0.608046	0.881633	0.819880
	C184	C	0.873484	0.177583	0.385006
	C185	C	0.112324	0.179800	0.613967
	C186	C	0.113521	0.823180	0.385748
	C187	C	0.872372	0.824222	0.615099
	C188	C	0.173983	0.387187	0.877587
	C189	C	0.172943	0.615799	0.120553
	C190	C	0.814874	0.388226	0.121887
	C191	C	0.816159	0.615142	0.879234
	C192	C	0.392736	0.095206	0.598186
	C193	C	0.591683	0.908629	0.596057
	C194	C	0.592941	0.094829	0.401725
	C195	C	0.392588	0.906808	0.400512
	C196	C	0.593300	0.403582	0.093873
	C197	C	0.594066	0.599553	0.904710
	C198	C	0.395463	0.600926	0.094287
	C199	C	0.397135	0.403226	0.904419
	C200	C	0.087017	0.600735	0.401677
	C201	C	0.901064	0.601601	0.600321
	C202	C	0.085866	0.402032	0.597401
	C203	C	0.900743	0.402085	0.399886
	C204	C	0.894854	0.595042	0.098352
	C205	C	0.094841	0.408127	0.096775
	C206	C	0.095286	0.594750	0.901816
	C207	C	0.896012	0.408229	0.903213
	C208	C	0.090473	0.904648	0.594463
	C209	C	0.091880	0.098905	0.404992
	C210	C	0.893429	0.100039	0.594542
	C211	C	0.895577	0.903158	0.406397
	C212	C	0.586518	0.099564	0.901268
	C213	C	0.400496	0.102881	0.099865
	C214	C	0.587201	0.902292	0.098526
	C215	C	0.401488	0.901194	0.900353
	Zn216	Zn	0.493162	0.001723	0.748809
	Zn217	Zn	0.493468	0.001410	0.250006
	Zn218	Zn	0.743714	0.501520	-0.000169
	Zn219	Zn	0.246537	0.501198	-0.000386
	Zn220	Zn	-0.006303	0.752663	0.500798
	Zn221	Zn	-0.007743	0.249803	0.499604
	Zn222	Zn	-0.005513	0.501656	0.750896
	Zn223	Zn	-0.005093	0.501328	0.248830
	Zn224	Zn	0.494894	0.750491	-0.001073
	Zn225	Zn	0.494915	0.252972	-0.000854
	Zn226	Zn	0.743824	0.001384	0.499403
	Zn227	Zn	0.241861	0.001263	0.499968
	N228	N	0.408490	0.963544	0.676515
	N229	N	0.576755	0.039859	0.675678
	N230	N	0.577281	0.963193	0.322764
	N231	N	0.408891	0.038931	0.323328
	N232	N	0.673604	0.415116	0.962638
	N233	N	0.673051	0.588227	0.036535
	N234	N	0.315989	0.588161	0.962845
	N235	N	0.316938	0.415793	0.035820
	N236	N	0.956958	0.680482	0.414947
	N237	N	0.030326	0.682834	0.588311
	N238	N	0.955945	0.322553	0.585849
	N239	N	0.029628	0.320879	0.412382
	N240	N	0.956682	0.415803	0.679493
	N241	N	0.031954	0.586300	0.677875
	N242	N	0.957253	0.586293	0.321438
	N243	N	0.031515	0.415807	0.320861
	N244	N	0.409858	0.678814	0.961784
	N245	N	0.580092	0.679565	0.036391
	N246	N	0.580863	0.323375	0.962226
	N247	N	0.410691	0.325680	0.036959
	N248	N	0.674076	0.964885	0.411541
	N249	N	0.673604	0.038373	0.586780
	N250	N	0.311511	0.965252	0.587746
	N251	N	0.312055	0.037187	0.412407
	N252	N	0.911339	0.463054	0.175504
	N253	N	0.079841	0.539183	0.176988
	N254	N	0.080460	0.463831	0.821296
	N255	N	0.911576	0.539658	0.824592
	N256	N	0.171663	0.914586	0.463668
	N257	N	0.172105	0.088854	0.536179
	N258	N	0.814311	0.087499	0.462851
	N259	N	0.813624	0.914867	0.537014
	N260	N	0.457966	0.181503	0.913323
	N261	N	0.530639	0.182292	0.086745
	N262	N	0.457715	0.821679	0.085963
	N263	N	0.531423	0.821301	0.911929
	N264	N	0.456197	0.917118	0.177194
	N265	N	0.530661	0.088017	0.179193
	N266	N	0.456251	0.086753	0.821887
	N267	N	0.531167	0.915394	0.819290
	N268	N	0.907305	0.178511	0.462598
	N269	N	0.077891	0.179194	0.536467
	N270	N	0.078539	0.823590	0.463188
	N271	N	0.907730	0.823834	0.537821
	N272	N	0.175952	0.464487	0.912010
	N273	N	0.174839	0.538469	0.085932
	N274	N	0.812374	0.465947	0.088870
	N275	N	0.814281	0.537761	0.912895
	O276	O	0.548393	0.490031	0.464995
	H277	H	0.555502	0.491663	0.466989
	H278	H	0.552458	0.497210	0.466422
	O279	O	0.434511	0.508266	0.428877
	H280	H	0.424610	0.506452	0.430839
	H281	H	0.429631	0.517094	0.426897
	O282	O	1.088191	0.873080	-0.038467
	H283	H	1.086461	0.874681	-0.042927
	H284	H	1.092823	0.875179	-0.038944
	O285	O	0.994126	0.029582	0.923237
	H286	H	0.997589	0.036516	0.911194
	H287	H	1.001238	0.023375	0.920069
	O288	O	0.536646	0.422045	0.416137
	H289	H	0.534186	0.426425	0.413556
	H290	H	0.530672	0.412041	0.396862
	O291	O	0.502124	0.527064	0.472012
	H292	H	0.497683	0.519295	0.471314
	H293	H	0.498814	0.524120	0.467163
	O294	O	0.517604	0.479251	0.463640
	H295	H	0.517508	0.469072	0.466990
	H296	H	0.504727	0.477802	0.464156
	O297	O	0.103710	0.070672	0.961339
	H298	H	0.116383	0.049701	0.945035
	H299	H	0.106942	0.061512	0.961248
	O300	O	1.128145	0.171221	1.128323
	H301	H	1.114733	0.177795	1.133945
	H302	H	1.143357	0.170782	1.126314
	O303	O	0.913874	1.089500	0.086227
	H304	H	0.908144	1.093232	0.078175
	H305	H	0.906654	1.088104	0.077547
	O306	O	-0.076064	0.961963	1.010190
	H307	H	-0.073841	0.957910	0.992879
	H308	H	-0.085735	0.975017	1.015272
	O309	O	0.527604	0.520043	0.484801
	H310	H	0.531165	0.526639	0.478333
	H311	H	0.523334	0.510377	0.491244
	O312	O	0.017867	-0.056986	0.116481
	H313	H	0.011991	-0.061640	0.133455
	H314	H	0.009536	-0.050495	0.115229
	O315	O	0.987412	0.095976	-0.105824
	H316	H	0.988208	0.090218	-0.109034
	H317	H	0.983489	0.099444	-0.114785
	O318	O	1.032767	1.031472	1.102453
	H319	H	1.031612	1.035878	1.114490
	H320	H	1.036296	1.011611	1.099402
	O321	O	0.031701	0.039665	0.933158
	H322	H	0.026828	0.035674	0.925573
	H323	H	0.035731	0.036462	0.943940
	O324	O	0.454554	0.440669	0.525825
	H325	H	0.458069	0.444243	0.525139
	H326	H	0.458742	0.437183	0.539174
	O327	O	-0.031816	-0.019302	0.005436
	H328	H	-0.032393	-0.011770	0.009384
	H329	H	-0.023586	-0.014559	-0.002836
	O330	O	0.434539	0.509876	0.511666
	H331	H	0.433054	0.507334	0.515105
	H332	H	0.435348	0.515768	0.509163
	O333	O	-0.109360	1.069793	0.980200
	H334	H	-0.110383	1.065067	0.982759
	H335	H	-0.110408	1.066932	0.977359
	O336	O	0.010512	0.131365	0.017019
	H337	H	0.016524	0.127427	0.013188
	H338	H	0.011250	0.139486	0.021654
	O339	O	0.574751	0.524440	0.481496
	H340	H	0.570806	0.527983	0.473523
	H341	H	0.584922	0.517196	0.470033
	O342	O	0.957681	0.841813	1.036292
	H343	H	0.951805	0.839231	1.052519
	H344	H	0.960267	0.839253	1.036451
	O345	O	0.939577	0.932128	-0.054476
	H346	H	0.944157	0.938143	-0.060269
	H347	H	0.943624	0.923033	-0.064956
	O348	O	0.546621	0.485589	0.496668
	H349	H	0.548386	0.480467	0.492544
	H350	H	0.542653	0.483135	0.487019
	O351	O	0.446017	0.465911	0.527632
	H352	H	0.448906	0.465344	0.526088
	H353	H	0.441527	0.465886	0.533196
	O354	O	0.517064	0.502449	0.512049
	H355	H	0.518766	0.514469	0.509179
	H356	H	0.523719	0.504249	0.515576
	O357	O	0.877366	0.036987	1.022055
	H358	H	0.864794	0.040309	1.033935
	H359	H	0.870990	0.022759	1.008467
	O360	O	0.444049	0.425113	0.571730
	H361	H	0.444943	0.416465	0.574154
	H362	H	0.445143	0.426929	0.571321
	O363	O	1.054013	0.998361	0.080937
	H364	H	1.057270	1.008134	0.090928
	H365	H	1.042031	1.007580	0.089287
	O366	O	0.920377	0.938541	0.955934
	H367	H	0.916182	0.941658	0.955765
	H368	H	0.933230	0.938167	0.951319
	O369	O	1.024768	-0.143488	0.945455
	H370	H	1.027735	-0.141321	0.962838
	H371	H	1.029842	-0.139672	0.948374
	O372	O	0.019491	-0.027318	-0.065004
	H373	H	0.023305	-0.020412	-0.073610
	H374	H	0.018266	-0.034042	-0.060366
	O375	O	1.169834	-0.011478	0.010134
	H376	H	1.173860	-0.020815	0.000827
	H377	H	1.170973	-0.016712	0.017457
	O378	O	0.414488	0.604213	0.586017
	H379	H	0.417104	0.612065	0.581003
	H380	H	0.415142	0.593661	0.592322
	O381	O	0.566139	0.437166	0.469142
	H382	H	0.576803	0.444496	0.463500
	H383	H	0.564363	0.426466	0.472638
