data_Molecule from HDF5

_cell_length_a		16.347711
_cell_length_b		16.337412
_cell_length_c		16.301836
_cell_angle_alpha	89.957571
_cell_angle_beta	90.096331
_cell_angle_gamma	89.984723
_symmetry_space_group_name_H-M	'P 1'
_symmetry_Int_Tables_number		1

loop_
	_symmetry_equiv_pos_as_xyz
	x,y,z

loop_
	_atom_site_label
	_atom_site_type_symbol
	_atom_site_fract_x
	_atom_site_fract_y
	_atom_site_fract_z
	H0	H	0.403410	0.835921	0.712696
	H1	H	0.596502	0.163640	0.713310
	H2	H	0.597119	0.836323	0.285769
	H3	H	0.402126	0.163187	0.285180
	H4	H	0.714039	0.402983	0.836239
	H5	H	0.716095	0.599226	0.163311
	H6	H	0.285589	0.598660	0.836287
	H7	H	0.285869	0.402370	0.163376
	H8	H	0.837043	0.714148	0.401370
	H9	H	0.162941	0.714858	0.598361
	H10	H	0.836426	0.285462	0.598190
	H11	H	0.163276	0.285527	0.402268
	H12	H	0.837376	0.401488	0.715208
	H13	H	0.163665	0.597252	0.714396
	H14	H	0.837025	0.597804	0.285124
	H15	H	0.163625	0.403389	0.287082
	H16	H	0.402442	0.714541	0.836619
	H17	H	0.598631	0.714442	0.163743
	H18	H	0.597900	0.286707	0.836452
	H19	H	0.402312	0.286350	0.163585
	H20	H	0.714998	0.836581	0.401251
	H21	H	0.713690	0.163794	0.598283
	H22	H	0.285494	0.836158	0.597365
	H23	H	0.284109	0.162800	0.400467
	H24	H	0.902409	0.336564	0.214203
	H25	H	0.098372	0.663799	0.213585
	H26	H	0.098605	0.336438	0.786145
	H27	H	0.903970	0.662827	0.785740
	H28	H	0.213087	0.901885	0.336361
	H29	H	0.213385	0.096975	0.663944
	H30	H	0.784809	0.098761	0.336399
	H31	H	0.785183	0.901550	0.664215
	H32	H	0.337145	0.216313	0.901277
	H33	H	0.663720	0.213954	0.098030
	H34	H	0.336651	0.784480	0.098242
	H35	H	0.663445	0.786195	0.903316
	H36	H	0.336191	0.902482	0.214096
	H37	H	0.662789	0.098116	0.215687
	H38	H	0.335356	0.097858	0.786196
	H39	H	0.663231	0.902405	0.785742
	H40	H	0.901246	0.214190	0.336302
	H41	H	0.097042	0.213475	0.663612
	H42	H	0.096102	0.786303	0.336319
	H43	H	0.902160	0.784941	0.663715
	H44	H	0.215780	0.337358	0.900841
	H45	H	0.215687	0.663123	0.097677
	H46	H	0.786411	0.336691	0.097638
	H47	H	0.785437	0.663500	0.901032
	H48	H	0.400010	0.116930	0.589822
	H49	H	0.586843	0.886020	0.591672
	H50	H	0.595901	0.117181	0.404468
	H51	H	0.407183	0.883303	0.403995
	H52	H	0.591993	0.403907	0.117198
	H53	H	0.587276	0.592457	0.885764
	H54	H	0.391886	0.589263	0.119326
	H55	H	0.408999	0.407326	0.884079
	H56	H	0.117470	0.593276	0.401584
	H57	H	0.886288	0.594118	0.583713
	H58	H	0.112562	0.414737	0.591259
	H59	H	0.882244	0.398005	0.409456
	H60	H	0.118675	0.404134	0.600851
	H61	H	0.886417	0.584369	0.595452
	H62	H	0.117338	0.598602	0.408544
	H63	H	0.887027	0.412282	0.411040
	H64	H	0.417025	0.581048	0.109377
	H65	H	0.595348	0.600727	0.881567
	H66	H	0.598317	0.406330	0.117425
	H67	H	0.406076	0.406293	0.883409
	H68	H	0.588902	0.114833	0.406072
	H69	H	0.599003	0.884128	0.587964
	H70	H	0.405646	0.118354	0.599455
	H71	H	0.407693	0.885134	0.409683
	H72	H	0.910578	0.614546	0.092623
	H73	H	0.104422	0.382327	0.091229
	H74	H	0.088209	0.614777	0.904283
	H75	H	0.900781	0.380521	0.903707
	H76	H	0.095748	0.909413	0.616651
	H77	H	0.094826	0.094474	0.383041
	H78	H	0.910916	0.077645	0.610138
	H79	H	0.901196	0.913870	0.384743
	H80	H	0.615755	0.095949	0.907172
	H81	H	0.386447	0.094831	0.084015
	H82	H	0.613986	0.908972	0.094126
	H83	H	0.385486	0.911671	0.905240
	H84	H	0.616140	0.905677	0.094361
	H85	H	0.385488	0.085610	0.096815
	H86	H	0.615057	0.093093	0.907877
	H87	H	0.381820	0.903393	0.902710
	H88	H	0.917814	0.105905	0.616355
	H89	H	0.093246	0.091364	0.384318
	H90	H	0.089871	0.907139	0.614688
	H91	H	0.914771	0.908206	0.386858
	H92	H	0.094568	0.614548	0.912146
	H93	H	0.090717	0.381891	0.103650
	H94	H	0.904647	0.616688	0.090877
	H95	H	0.913783	0.385232	0.903971
	H96	H	0.410443	0.113456	0.590931
	H97	H	0.595286	0.881524	0.600219
	H98	H	0.594200	0.114690	0.411340
	H99	H	0.402213	0.883163	0.407327
	H100	H	0.593226	0.410154	0.115369
	H101	H	0.599047	0.589125	0.883964
	H102	H	0.413173	0.607334	0.119104
	H103	H	0.406371	0.409137	0.884736
	H104	H	0.114910	0.590189	0.409663
	H105	H	0.880757	0.598587	0.597493
	H106	H	0.115617	0.400379	0.586614
	H107	H	0.881896	0.407600	0.397422
	H108	H	0.906720	0.617377	0.096652
	H109	H	0.086961	0.388229	0.086343
	H110	H	0.097827	0.618606	0.903283
	H111	H	0.906326	0.386937	0.914435
	H112	H	0.094015	0.902966	0.617820
	H113	H	0.091291	0.094119	0.383636
	H114	H	0.890335	0.096476	0.621983
	H115	H	0.903768	0.899398	0.381200
	H116	H	0.615822	0.093901	0.905536
	H117	H	0.380858	0.100719	0.097784
	H118	H	0.615139	0.906899	0.090430
	H119	H	0.385150	0.904810	0.911108
	C120	C	0.377755	0.008025	0.621515
	C121	C	0.621631	0.992007	0.621631
	C122	C	0.621242	0.007756	0.378581
	C123	C	0.377706	0.991917	0.378355
	C124	C	0.621797	0.378955	0.008238
	C125	C	0.622030	0.621923	0.991952
	C126	C	0.378769	0.621171	0.007996
	C127	C	0.378610	0.378773	0.991789
	C128	C	0.008450	0.621776	0.378428
	C129	C	0.992173	0.621124	0.621216
	C130	C	0.007955	0.378102	0.621492
	C131	C	0.991855	0.378470	0.378576
	C132	C	0.879110	0.508180	0.121353
	C133	C	0.122275	0.491874	0.121811
	C134	C	0.121672	0.507954	0.878610
	C135	C	0.878217	0.491853	0.878259
	C136	C	0.120931	0.878383	0.508221
	C137	C	0.121570	0.121523	0.491823
	C138	C	0.877861	0.121669	0.508187
	C139	C	0.878218	0.878305	0.492236
	C140	C	0.507750	0.122395	0.878068
	C141	C	0.492025	0.122009	0.121736
	C142	C	0.507572	0.878148	0.121889
	C143	C	0.491832	0.878573	0.878223
	C144	C	0.381725	0.884843	0.675704
	C145	C	0.617754	0.114964	0.675784
	C146	C	0.617796	0.884730	0.323822
	C147	C	0.380948	0.114603	0.323073
	C148	C	0.676453	0.381852	0.885210
	C149	C	0.677622	0.619650	0.114688
	C150	C	0.323628	0.619051	0.885051
	C151	C	0.323895	0.381497	0.114700
	C152	C	0.885574	0.676127	0.380988
	C153	C	0.114416	0.676940	0.618999
	C154	C	0.885333	0.322954	0.619133
	C155	C	0.114706	0.323467	0.381703
	C156	C	0.885576	0.380891	0.676946
	C157	C	0.114913	0.618492	0.676338
	C158	C	0.885356	0.618306	0.323433
	C159	C	0.115053	0.382035	0.324609
	C160	C	0.381687	0.676421	0.885180
	C161	C	0.619301	0.676748	0.115015
	C162	C	0.618725	0.324182	0.885185
	C163	C	0.381195	0.323499	0.114743
	C164	C	0.676538	0.885162	0.380840
	C165	C	0.676528	0.114819	0.619213
	C166	C	0.323673	0.884664	0.618165
	C167	C	0.322549	0.114357	0.380339
	C168	C	0.882194	0.385039	0.175724
	C169	C	0.119394	0.614854	0.176223
	C170	C	0.119228	0.385175	0.823879
	C171	C	0.881964	0.614400	0.823135
	C172	C	0.175177	0.881400	0.385053
	C173	C	0.176033	0.118155	0.614943
	C174	C	0.822928	0.118972	0.385100
	C175	C	0.823478	0.881030	0.615296
	C176	C	0.385059	0.177537	0.880929
	C177	C	0.614782	0.176714	0.118930
	C178	C	0.384917	0.823036	0.118765
	C179	C	0.614817	0.823901	0.881766
	C180	C	0.384812	0.881738	0.176039
	C181	C	0.614614	0.118733	0.176938
	C182	C	0.384699	0.119025	0.823450
	C183	C	0.614683	0.881605	0.823623
	C184	C	0.880732	0.176442	0.385120
	C185	C	0.118375	0.176109	0.614664
	C186	C	0.117258	0.823850	0.385102
	C187	C	0.881342	0.823134	0.615235
	C188	C	0.177136	0.385560	0.881191
	C189	C	0.177368	0.614679	0.118482
	C190	C	0.824180	0.385411	0.118382
	C191	C	0.823591	0.614542	0.880777
	C192	C	0.398871	0.093928	0.599815
	C193	C	0.600154	0.906146	0.599611
	C194	C	0.599438	0.093330	0.400736
	C195	C	0.399303	0.906129	0.400511
	C196	C	0.600674	0.400464	0.094409
	C197	C	0.600266	0.600447	0.905967
	C198	C	0.400854	0.598932	0.093817
	C199	C	0.400631	0.400941	0.906040
	C200	C	0.094352	0.600261	0.400003
	C201	C	0.906622	0.598775	0.598884
	C202	C	0.093450	0.399969	0.599481
	C203	C	0.905969	0.399764	0.399642
	C204	C	0.901012	0.593962	0.099631
	C205	C	0.100507	0.406143	0.100024
	C206	C	0.099838	0.593865	0.900017
	C207	C	0.900444	0.406129	0.900713
	C208	C	0.099747	0.900207	0.594338
	C209	C	0.099750	0.099654	0.405848
	C210	C	0.900015	0.099894	0.594128
	C211	C	0.900089	0.900553	0.406492
	C212	C	0.593429	0.100657	0.900318
	C213	C	0.406356	0.100120	0.099598
	C214	C	0.593111	0.900503	0.099486
	C215	C	0.406286	0.900224	0.900069
	Zn216	Zn	0.499887	0.000164	0.749559
	Zn217	Zn	0.499642	-0.000065	0.250413
	Zn218	Zn	0.750226	0.500281	0.000335
	Zn219	Zn	0.250081	0.499852	-0.000275
	Zn220	Zn	-0.000131	0.749987	0.499989
	Zn221	Zn	-0.000351	0.249431	0.499880
	Zn222	Zn	0.000790	0.499425	0.749886
	Zn223	Zn	0.000501	0.500283	0.250045
	Zn224	Zn	0.499981	0.749748	0.000411
	Zn225	Zn	0.500220	0.250466	0.000284
	Zn226	Zn	0.749895	0.000058	0.500124
	Zn227	Zn	0.249548	-0.000550	0.499872
	N228	N	0.414847	0.962386	0.677597
	N229	N	0.584481	0.037566	0.677417
	N230	N	0.584171	0.962041	0.322262
	N231	N	0.414402	0.037290	0.321744
	N232	N	0.678516	0.415163	0.962710
	N233	N	0.679280	0.586131	0.037278
	N234	N	0.321641	0.585489	0.962528
	N235	N	0.321999	0.415248	0.037345
	N236	N	0.962942	0.678441	0.414291
	N237	N	0.037137	0.678544	0.585541
	N238	N	0.962362	0.321126	0.585433
	N239	N	0.037114	0.321013	0.414338
	N240	N	0.962816	0.414570	0.678404
	N241	N	0.037894	0.584481	0.677906
	N242	N	0.962763	0.585038	0.321856
	N243	N	0.037768	0.415586	0.322517
	N244	N	0.415252	0.677843	0.962678
	N245	N	0.585433	0.678144	0.037770
	N246	N	0.585350	0.322385	0.962774
	N247	N	0.414705	0.322105	0.037450
	N248	N	0.678583	0.962446	0.414267
	N249	N	0.678726	0.037333	0.585996
	N250	N	0.321013	0.962281	0.585177
	N251	N	0.320358	0.037076	0.413931
	N252	N	0.915532	0.462515	0.178091
	N253	N	0.085739	0.537606	0.178265
	N254	N	0.085507	0.462311	0.822195
	N255	N	0.915420	0.537106	0.821745
	N256	N	0.177660	0.914423	0.462745
	N257	N	0.177875	0.084677	0.537516
	N258	N	0.821037	0.085626	0.462611
	N259	N	0.821600	0.914800	0.537852
	N260	N	0.462583	0.180016	0.913917
	N261	N	0.537432	0.178403	0.085095
	N262	N	0.462334	0.820921	0.085738
	N263	N	0.537441	0.821893	0.915044
	N264	N	0.462193	0.915075	0.178184
	N265	N	0.537191	0.085677	0.179036
	N266	N	0.461981	0.085314	0.821737
	N267	N	0.537381	0.914883	0.821305
	N268	N	0.914360	0.178037	0.462585
	N269	N	0.085002	0.178007	0.537078
	N270	N	0.084403	0.821930	0.462761
	N271	N	0.914718	0.821486	0.537785
	N272	N	0.178692	0.462932	0.914567
	N273	N	0.179176	0.537220	0.085402
	N274	N	0.822261	0.462979	0.085315
	N275	N	0.821405	0.537284	0.914357
