data_Molecule from HDF5

_cell_length_a		16.568995
_cell_length_b		16.210202
_cell_length_c		16.380358
_cell_angle_alpha	89.853219
_cell_angle_beta	89.860554
_cell_angle_gamma	90.014198
_symmetry_space_group_name_H-M	'P 1'
_symmetry_Int_Tables_number		1

loop_
	_symmetry_equiv_pos_as_xyz
	x,y,z

loop_
	_atom_site_label
	_atom_site_type_symbol
	_atom_site_fract_x
	_atom_site_fract_y
	_atom_site_fract_z
	H0	H	0.396922	0.832295	0.721357
	H1	H	0.598417	0.156284	0.716172
	H2	H	0.601529	0.833009	0.284191
	H3	H	0.396862	0.156038	0.283793
	H4	H	0.721190	0.388882	0.840985
	H5	H	0.722980	0.599404	0.159794
	H6	H	0.280718	0.601977	0.841756
	H7	H	0.278728	0.384812	0.159336
	H8	H	0.840943	0.712239	0.398020
	H9	H	0.159171	0.715148	0.602764
	H10	H	0.841082	0.276811	0.600585
	H11	H	0.160064	0.274813	0.398093
	H12	H	0.843233	0.387959	0.722571
	H13	H	0.159484	0.599968	0.721563
	H14	H	0.842531	0.597626	0.279273
	H15	H	0.158791	0.388139	0.278575
	H16	H	0.401548	0.712273	0.840661
	H17	H	0.602870	0.711672	0.161652
	H18	H	0.600210	0.277573	0.840017
	H19	H	0.402102	0.277736	0.162913
	H20	H	0.721053	0.834844	0.394478
	H21	H	0.718076	0.154419	0.605049
	H22	H	0.278779	0.833629	0.608660
	H23	H	0.280733	0.154775	0.397760
	H24	H	0.898521	0.331515	0.218824
	H25	H	0.103607	0.654990	0.218190
	H26	H	0.102221	0.331192	0.784435
	H27	H	0.901224	0.655090	0.782853
	H28	H	0.223659	0.886479	0.342928
	H29	H	0.219285	0.100194	0.659553
	H30	H	0.776194	0.102417	0.343213
	H31	H	0.778469	0.886876	0.659749
	H32	H	0.341968	0.213467	0.901536
	H33	H	0.659703	0.214296	0.105091
	H34	H	0.343118	0.770826	0.107907
	H35	H	0.659379	0.776745	0.900174
	H36	H	0.342009	0.888681	0.223039
	H37	H	0.657913	0.101035	0.224893
	H38	H	0.342360	0.100147	0.781637
	H39	H	0.656411	0.887864	0.779230
	H40	H	0.899063	0.211047	0.339636
	H41	H	0.096866	0.208186	0.662141
	H42	H	0.100372	0.779333	0.338770
	H43	H	0.900092	0.776820	0.661960
	H44	H	0.220810	0.332703	0.895620
	H45	H	0.223561	0.652781	0.107561
	H46	H	0.780993	0.332630	0.105646
	H47	H	0.780478	0.653529	0.891813
	H48	H	0.403959	0.111615	0.592890
	H49	H	0.589985	0.876670	0.593316
	H50	H	0.591501	0.108856	0.417030
	H51	H	0.417128	0.883424	0.420273
	H52	H	0.590083	0.409906	0.112514
	H53	H	0.599783	0.586810	0.883019
	H54	H	0.405152	0.584074	0.117403
	H55	H	0.411083	0.411302	0.889047
	H56	H	0.112411	0.586122	0.411761
	H57	H	0.889985	0.583475	0.590094
	H58	H	0.114165	0.402509	0.592337
	H59	H	0.888902	0.410040	0.407005
	H60	H	0.113953	0.401940	0.591207
	H61	H	0.888928	0.581042	0.592301
	H62	H	0.112354	0.581024	0.407246
	H63	H	0.885160	0.398620	0.404082
	H64	H	0.410305	0.572614	0.112309
	H65	H	0.593148	0.575049	0.889960
	H66	H	0.590127	0.400170	0.115508
	H67	H	0.415793	0.401285	0.887417
	H68	H	0.590397	0.111139	0.410058
	H69	H	0.587802	0.879427	0.591185
	H70	H	0.413147	0.108927	0.594593
	H71	H	0.400774	0.877561	0.416870
	H72	H	0.913625	0.605871	0.083962
	H73	H	0.097366	0.377960	0.084444
	H74	H	0.091820	0.609721	0.909776
	H75	H	0.918657	0.381087	0.914289
	H76	H	0.088847	0.907007	0.614050
	H77	H	0.085979	0.088784	0.385753
	H78	H	0.908320	0.089890	0.616860
	H79	H	0.907200	0.907735	0.387139
	H80	H	0.614148	0.080936	0.904693
	H81	H	0.387532	0.084708	0.093432
	H82	H	0.618263	0.896593	0.101037
	H83	H	0.387884	0.905734	0.911533
	H84	H	0.609803	0.901967	0.081295
	H85	H	0.389131	0.084882	0.092587
	H86	H	0.615740	0.090500	0.907874
	H87	H	0.385780	0.902891	0.912399
	H88	H	0.901595	0.079842	0.615815
	H89	H	0.100711	0.085387	0.382495
	H90	H	0.089639	0.903641	0.615144
	H91	H	0.909065	0.906090	0.386601
	H92	H	0.089203	0.607238	0.912356
	H93	H	0.090614	0.375325	0.094708
	H94	H	0.907628	0.610101	0.088000
	H95	H	0.903555	0.377685	0.919090
	H96	H	0.408886	0.107149	0.585673
	H97	H	0.591006	0.877113	0.589160
	H98	H	0.585022	0.107902	0.413970
	H99	H	0.413117	0.876099	0.404532
	H100	H	0.598710	0.406245	0.116721
	H101	H	0.585788	0.588415	0.888217
	H102	H	0.417355	0.583723	0.112520
	H103	H	0.405116	0.403133	0.884030
	H104	H	0.115114	0.587650	0.405840
	H105	H	0.888826	0.584381	0.592927
	H106	H	0.113923	0.403489	0.591201
	H107	H	0.889325	0.401074	0.415561
	H108	H	0.914269	0.607922	0.091504
	H109	H	0.085208	0.382051	0.084703
	H110	H	0.093103	0.608716	0.914032
	H111	H	0.908845	0.374281	0.903831
	H112	H	0.092515	0.906043	0.615078
	H113	H	0.091233	0.074061	0.388721
	H114	H	0.913096	0.079264	0.612569
	H115	H	0.906436	0.905368	0.386271
	H116	H	0.612271	0.083681	0.913482
	H117	H	0.388642	0.083872	0.092430
	H118	H	0.609799	0.917001	0.097791
	H119	H	0.388763	0.904554	0.914736
	C120	C	0.377929	0.002709	0.623561
	C121	C	0.620085	0.984679	0.622264
	C122	C	0.620332	0.003096	0.381289
	C123	C	0.379042	0.985519	0.382116
	C124	C	0.623488	0.372809	0.009401
	C125	C	0.623833	0.615366	0.992395
	C126	C	0.379730	0.614277	0.009380
	C127	C	0.380039	0.372922	0.992807
	C128	C	0.008436	0.615642	0.377815
	C129	C	0.993360	0.615311	0.622520
	C130	C	0.009077	0.371821	0.622185
	C131	C	0.992461	0.371333	0.377616
	C132	C	0.880256	0.501749	0.120381
	C133	C	0.122489	0.484672	0.120631
	C134	C	0.122447	0.502041	0.880012
	C135	C	0.879848	0.484483	0.879631
	C136	C	0.121793	0.873176	0.509391
	C137	C	0.121706	0.114313	0.491625
	C138	C	0.877281	0.115177	0.509359
	C139	C	0.877427	0.873309	0.492306
	C140	C	0.509000	0.116314	0.879239
	C141	C	0.492764	0.116526	0.124624
	C142	C	0.508768	0.871872	0.124949
	C143	C	0.491911	0.873216	0.881039
	C144	C	0.377463	0.881039	0.682638
	C145	C	0.619167	0.107193	0.678677
	C146	C	0.620871	0.881704	0.322465
	C147	C	0.377960	0.107238	0.322940
	C148	C	0.681470	0.370783	0.888777
	C149	C	0.682859	0.617388	0.112328
	C150	C	0.320794	0.618731	0.889583
	C151	C	0.319762	0.368820	0.112026
	C152	C	0.888939	0.673867	0.378057
	C153	C	0.111964	0.675347	0.622272
	C154	C	0.889063	0.314625	0.621408
	C155	C	0.111843	0.312999	0.377896
	C156	C	0.890298	0.370298	0.681828
	C157	C	0.112006	0.617938	0.681576
	C158	C	0.889750	0.616725	0.318999
	C159	C	0.111756	0.370176	0.319044
	C160	C	0.380894	0.673895	0.889085
	C161	C	0.623032	0.673092	0.113347
	C162	C	0.621677	0.315177	0.888393
	C163	C	0.381326	0.315485	0.114029
	C164	C	0.680199	0.882541	0.377715
	C165	C	0.678573	0.106358	0.623529
	C166	C	0.318725	0.881758	0.626464
	C167	C	0.320444	0.106766	0.379879
	C168	C	0.879283	0.380187	0.179917
	C169	C	0.122857	0.606366	0.179539
	C170	C	0.122275	0.380002	0.822275
	C171	C	0.880597	0.606121	0.820766
	C172	C	0.182424	0.869852	0.389967
	C173	C	0.179342	0.117347	0.611893
	C174	C	0.817243	0.118986	0.390316
	C175	C	0.818908	0.870151	0.612404
	C176	C	0.389433	0.174498	0.881114
	C177	C	0.611936	0.175288	0.124846
	C178	C	0.390262	0.811406	0.126125
	C179	C	0.611373	0.815248	0.880335
	C180	C	0.389777	0.869908	0.183981
	C181	C	0.611008	0.118912	0.184570
	C182	C	0.389754	0.117930	0.821537
	C183	C	0.609984	0.870879	0.820297
	C184	C	0.877994	0.173589	0.388555
	C185	C	0.118475	0.171281	0.613224
	C186	C	0.121298	0.816128	0.388052
	C187	C	0.879394	0.815104	0.613213
	C188	C	0.181315	0.381063	0.877563
	C189	C	0.182705	0.605056	0.124416
	C190	C	0.821156	0.380585	0.123189
	C191	C	0.820902	0.605491	0.875756
	C192	C	0.401771	0.087189	0.598536
	C193	C	0.596499	0.899862	0.598170
	C194	C	0.595938	0.087323	0.406316
	C195	C	0.403331	0.900983	0.406846
	C196	C	0.599750	0.397806	0.093328
	C197	C	0.599797	0.590570	0.908688
	C198	C	0.403788	0.587743	0.092565
	C199	C	0.403960	0.398031	0.908625
	C200	C	0.091833	0.591776	0.401504
	C201	C	0.910783	0.590186	0.598576
	C202	C	0.092250	0.395669	0.598471
	C203	C	0.909466	0.396040	0.401702
	C204	C	0.904766	0.585918	0.095007
	C205	C	0.098005	0.400489	0.095457
	C206	C	0.098338	0.586577	0.904753
	C207	C	0.903600	0.399797	0.904953
	C208	C	0.097416	0.898274	0.592854
	C209	C	0.099198	0.089735	0.407618
	C210	C	0.900759	0.090107	0.593202
	C211	C	0.900784	0.898801	0.408420
	C212	C	0.592482	0.092147	0.902229
	C213	C	0.409903	0.091601	0.099958
	C214	C	0.591270	0.897528	0.100479
	C215	C	0.408999	0.897382	0.905793
	Zn216	Zn	0.499226	-0.006045	0.750669
	Zn217	Zn	0.499593	-0.004819	0.253897
	Zn218	Zn	0.751979	0.493998	0.000321
	Zn219	Zn	0.251003	0.493169	0.000126
	Zn220	Zn	0.000004	0.745345	0.499563
	Zn221	Zn	0.000181	0.242222	0.499986
	Zn222	Zn	0.001758	0.492976	0.752340
	Zn223	Zn	0.000870	0.493299	0.248444
	Zn224	Zn	0.501191	0.743079	0.001891
	Zn225	Zn	0.501323	0.244845	0.002111
	Zn226	Zn	0.747928	-0.005824	0.501496
	Zn227	Zn	0.250183	-0.006269	0.501852
	N228	N	0.413310	0.957355	0.681171
	N229	N	0.583844	0.030642	0.678155
	N230	N	0.584454	0.957959	0.324436
	N231	N	0.413620	0.030769	0.324015
	N232	N	0.682895	0.405450	0.965196
	N233	N	0.683628	0.582579	0.035901
	N234	N	0.319674	0.582607	0.965616
	N235	N	0.319025	0.403923	0.035419
	N236	N	0.963893	0.673320	0.413909
	N237	N	0.037239	0.673852	0.586280
	N238	N	0.963752	0.315476	0.584956
	N239	N	0.036592	0.313520	0.413508
	N240	N	0.965948	0.405129	0.682461
	N241	N	0.037263	0.581202	0.681940
	N242	N	0.965145	0.581557	0.318436
	N243	N	0.036376	0.405511	0.318445
	N244	N	0.416888	0.671255	0.964592
	N245	N	0.587126	0.671997	0.037866
	N246	N	0.586471	0.316066	0.964476
	N247	N	0.418055	0.317880	0.038726
	N248	N	0.680271	0.959174	0.413157
	N249	N	0.679523	0.028929	0.589285
	N250	N	0.318981	0.958377	0.590286
	N251	N	0.321095	0.030146	0.415990
	N252	N	0.915682	0.456405	0.177994
	N253	N	0.086254	0.530294	0.177542
	N254	N	0.086406	0.456369	0.823549
	N255	N	0.916625	0.529811	0.823035
	N256	N	0.183127	0.904244	0.466637
	N257	N	0.181773	0.083084	0.535340
	N258	N	0.816744	0.083402	0.466551
	N259	N	0.817362	0.905510	0.536057
	N260	N	0.464784	0.173925	0.916175
	N261	N	0.537241	0.174087	0.088566
	N262	N	0.465338	0.812290	0.090324
	N263	N	0.537037	0.816579	0.917654
	N264	N	0.464441	0.906832	0.183531
	N265	N	0.535790	0.083189	0.184478
	N266	N	0.465121	0.082661	0.820361
	N267	N	0.534678	0.906071	0.820625
	N268	N	0.914914	0.171171	0.463470
	N269	N	0.083336	0.169889	0.537322
	N270	N	0.084074	0.818102	0.463214
	N271	N	0.915101	0.816955	0.537542
	N272	N	0.181709	0.458000	0.912655
	N273	N	0.182538	0.528571	0.088482
	N274	N	0.821586	0.457113	0.086993
	N275	N	0.820112	0.528669	0.911437
	O276	O	0.616779	0.513087	0.543885
	H277	H	0.611590	0.532922	0.549119
	H278	H	0.615278	0.512751	0.543666
	O279	O	0.641875	0.509663	0.348531
	H280	H	0.640489	0.511933	0.372767
	H281	H	0.653776	0.510058	0.350683
	O282	O	0.505142	0.518276	0.344211
	H283	H	0.514049	0.507965	0.343458
	H284	H	0.490989	0.541824	0.348434
	O285	O	1.109441	0.122643	-0.039947
	H286	H	1.109527	0.131011	-0.026391
	H287	H	1.104088	0.110934	-0.013294
	O288	O	-0.088913	0.147750	0.939248
	H289	H	-0.086533	0.142615	0.935549
	H290	H	-0.077588	0.156286	0.938711
	O291	O	0.620062	0.583861	0.693867
	H292	H	0.623099	0.580691	0.707345
	H293	H	0.614696	0.586506	0.687394
	O294	O	0.396460	0.595875	0.637745
	H295	H	0.373799	0.601035	0.631732
	H296	H	0.394922	0.575466	0.639973
	O297	O	0.946428	0.804770	1.184877
	H298	H	0.945808	0.788787	1.194414
	H299	H	0.951988	0.811053	1.182877
	O300	O	-0.130413	-0.110428	-0.102474
	H301	H	-0.135111	-0.120706	-0.094305
	H302	H	-0.133971	-0.098582	-0.096849
	O303	O	0.305785	0.635032	0.375495
	H304	H	0.307766	0.628871	0.373685
	H305	H	0.292471	0.618765	0.372040
	O306	O	0.992720	-0.114435	-0.198761
	H307	H	0.987950	-0.120822	-0.204990
	H308	H	0.984272	-0.107626	-0.204890
	O309	O	0.439779	0.677397	0.381723
	H310	H	0.433649	0.686714	0.397386
	H311	H	0.423349	0.665358	0.383818
	O312	O	0.641317	1.153952	-0.259480
	H313	H	0.627701	1.155476	-0.262415
	H314	H	0.640461	1.160204	-0.259583
	O315	O	0.653372	0.483697	0.653123
	H316	H	0.647576	0.477115	0.653554
	H317	H	0.640157	0.484455	0.653638
	O318	O	0.535464	0.353716	0.520460
	H319	H	0.533218	0.354183	0.499042
	H320	H	0.543431	0.352141	0.512493
	O321	O	0.930799	-0.114561	1.151794
	H322	H	0.931916	-0.128079	1.166955
	H323	H	0.912225	-0.104576	1.141551
	O324	O	0.012737	0.115620	1.106468
	H325	H	0.014136	0.111227	1.090996
	H326	H	0.018234	0.128180	1.094223
	O327	O	0.573584	0.484642	0.514257
	H328	H	0.574325	0.480969	0.520219
	H329	H	0.573404	0.480891	0.510489
	O330	O	0.554756	0.531208	0.502091
	H331	H	0.550770	0.532151	0.505981
	H332	H	0.546399	0.537471	0.504847
	O333	O	1.094929	1.035336	1.139154
	H334	H	1.102761	1.031075	1.142089
	H335	H	1.095012	1.032237	1.123165
	O336	O	0.591315	0.418351	0.390805
	H337	H	0.601912	0.402200	0.387874
	H338	H	0.610069	0.440716	0.396118
	O339	O	1.024921	0.145072	1.027569
	H340	H	1.039618	0.135027	1.019733
	H341	H	1.028831	0.143091	1.023224
	O342	O	0.129615	0.913618	0.852781
	H343	H	0.118424	0.901929	0.847004
	H344	H	0.133155	0.909428	0.847662
	O345	O	0.049565	0.959698	1.124069
	H346	H	0.049446	0.959659	1.131787
	H347	H	0.041077	0.938571	1.129938
	O348	O	0.378998	0.511005	0.700299
	H349	H	0.357225	0.498095	0.714560
	H350	H	0.394787	0.498387	0.701315
	O351	O	0.100111	-0.035982	0.045964
	H352	H	0.094464	-0.026769	0.036153
	H353	H	0.110513	-0.036224	0.038658
	O354	O	1.097276	1.162076	0.161896
	H355	H	1.104343	1.167193	0.176700
	H356	H	1.108303	1.158258	0.178217
	O357	O	-0.169143	1.050421	0.122828
	H358	H	-0.172629	1.057798	0.127605
	H359	H	-0.167874	1.071846	0.111143
	O360	O	0.572348	0.588780	0.460695
	H361	H	0.553284	0.588063	0.474163
	H362	H	0.570138	0.602387	0.458970
	O363	O	0.706119	0.684031	0.589917
	H364	H	0.730160	0.693555	0.595957
	H365	H	0.704136	0.677689	0.608969
	O366	O	0.210866	0.847713	0.210252
	H367	H	0.204706	0.833859	0.192233
	H368	H	0.206752	0.838212	0.217716
	O369	O	0.408992	0.530845	0.565458
	H370	H	0.408773	0.534881	0.555156
	H371	H	0.391587	0.522441	0.563686
	O372	O	0.337756	0.401276	0.498128
	H373	H	0.328369	0.400138	0.486834
	H374	H	0.357778	0.405921	0.490050
	O375	O	0.552855	0.599925	0.440924
	H376	H	0.541264	0.609815	0.451896
	H377	H	0.547478	0.606896	0.453091
	O378	O	0.309496	0.414807	0.595582
	H379	H	0.302273	0.401001	0.592183
	H380	H	0.305380	0.403249	0.605717
	O381	O	0.384742	0.505253	0.539130
	H382	H	0.386518	0.496547	0.528103
	H383	H	0.387157	0.500400	0.519680
	O384	O	0.208019	0.813822	0.986054
	H385	H	0.217107	0.791670	0.983894
	H386	H	0.207383	0.814192	0.980450
	O387	O	0.912736	0.922601	-0.101581
	H388	H	0.903955	0.927075	-0.097392
	H389	H	0.904696	0.921617	-0.107102
	O390	O	0.519783	0.317443	0.581909
	H391	H	0.521190	0.313900	0.589001
	H392	H	0.524240	0.319115	0.580759
	O393	O	0.950505	-0.147054	0.979402
	H394	H	0.939003	-0.142103	0.981996
	H395	H	0.942725	-0.141972	0.994126
	O396	O	-0.112314	1.143039	0.980505
	H397	H	-0.125434	1.142361	0.995231
	H398	H	-0.118184	1.143930	0.976097
	O399	O	0.344006	0.469996	0.470130
	H400	H	0.345085	0.477548	0.473420
	H401	H	0.351175	0.458034	0.454986
	O402	O	0.928344	0.057870	0.927973
	H403	H	0.931293	0.054146	0.920874
	H404	H	0.930914	0.054391	0.919351
	O405	O	0.060732	0.142020	-0.170354
	H406	H	0.063191	0.135006	-0.180843
	H407	H	0.066280	0.140588	-0.153870
	O408	O	0.803375	0.819788	1.033167
	H409	H	0.809864	0.826611	1.049588
	H410	H	0.779774	0.805220	1.041638
	O411	O	0.874855	1.016228	0.150792
	H412	H	0.850892	1.002631	0.166000
	H413	H	0.882139	1.024305	0.131996
	O414	O	0.183599	-0.055155	0.841433
	H415	H	0.187874	-0.061523	0.838618
	H416	H	0.185934	-0.068035	0.855024
	O417	O	0.543698	0.302415	0.304623
	H418	H	0.558957	0.293775	0.292450
	H419	H	0.567391	0.308312	0.298337
	O420	O	0.424604	1.524237	-0.550473
	H421	H	0.443068	1.518141	-0.544711
	H422	H	0.424430	1.505155	-0.540531
	O423	O	0.948786	-0.008184	-0.180094
	H424	H	0.943061	-0.006195	-0.168253
	H425	H	0.949371	-0.017978	-0.182116
	O426	O	0.028650	-0.025228	1.008073
	H427	H	0.034929	-0.041339	1.013561
	H428	H	0.026657	-0.019842	1.014933
	O429	O	0.632496	0.415224	0.553395
	H430	H	0.627128	0.406343	0.560150
	H431	H	0.632961	0.429317	0.551000
