data_Molecule from HDF5

_cell_length_a		16.513557
_cell_length_b		16.867248
_cell_length_c		16.571172
_cell_angle_alpha	90.076178
_cell_angle_beta	89.838621
_cell_angle_gamma	89.943833
_symmetry_space_group_name_H-M	'P 1'
_symmetry_Int_Tables_number		1

loop_
	_symmetry_equiv_pos_as_xyz
	x,y,z

loop_
	_atom_site_label
	_atom_site_type_symbol
	_atom_site_fract_x
	_atom_site_fract_y
	_atom_site_fract_z
	H0	H	0.393530	0.852663	0.723809
	H1	H	0.602241	0.161229	0.726514
	H2	H	0.605618	0.857478	0.277936
	H3	H	0.392283	0.162866	0.284229
	H4	H	0.712710	0.408559	0.845229
	H5	H	0.709824	0.607678	0.162798
	H6	H	0.277235	0.611892	0.846227
	H7	H	0.275602	0.405713	0.158834
	H8	H	0.839637	0.728970	0.398842
	H9	H	0.149415	0.734219	0.613259
	H10	H	0.840886	0.286802	0.611477
	H11	H	0.153321	0.288778	0.397544
	H12	H	0.839096	0.405865	0.722918
	H13	H	0.149209	0.618676	0.728432
	H14	H	0.836968	0.608974	0.288403
	H15	H	0.154132	0.407782	0.285936
	H16	H	0.390483	0.730017	0.847109
	H17	H	0.597926	0.727928	0.160167
	H18	H	0.600171	0.290093	0.846439
	H19	H	0.385836	0.285414	0.156656
	H20	H	0.722022	0.857184	0.394476
	H21	H	0.718487	0.161656	0.609140
	H22	H	0.276626	0.852764	0.607571
	H23	H	0.275270	0.162136	0.401786
	H24	H	0.894861	0.353569	0.221274
	H25	H	0.100845	0.660934	0.224853
	H26	H	0.108516	0.359602	0.773275
	H27	H	0.888634	0.661540	0.779888
	H28	H	0.214570	0.907686	0.346963
	H29	H	0.211492	0.109274	0.662899
	H30	H	0.775837	0.113252	0.347921
	H31	H	0.774508	0.904288	0.658534
	H32	H	0.340351	0.229285	0.897094
	H33	H	0.651661	0.230158	0.108246
	H34	H	0.340467	0.787278	0.111119
	H35	H	0.653694	0.790095	0.899935
	H36	H	0.339183	0.905784	0.224410
	H37	H	0.652943	0.112459	0.221199
	H38	H	0.337820	0.108490	0.787726
	H39	H	0.654959	0.907368	0.786573
	H40	H	0.888754	0.231406	0.348835
	H41	H	0.101268	0.230356	0.659311
	H42	H	0.102393	0.789215	0.347306
	H43	H	0.886142	0.783361	0.655790
	H44	H	0.224038	0.358949	0.891271
	H45	H	0.217864	0.660714	0.107930
	H46	H	0.779204	0.352877	0.103153
	H47	H	0.774690	0.662844	0.899664
	H48	H	0.405208	0.118582	0.596884
	H49	H	0.588290	0.900220	0.583889
	H50	H	0.581453	0.118083	0.413242
	H51	H	0.402153	0.895884	0.410610
	H52	H	0.586013	0.413990	0.116742
	H53	H	0.587181	0.594203	0.891961
	H54	H	0.410867	0.599314	0.113722
	H55	H	0.414328	0.419552	0.892361
	H56	H	0.109964	0.604707	0.415710
	H57	H	0.889065	0.592788	0.582103
	H58	H	0.108033	0.418201	0.588604
	H59	H	0.881046	0.421836	0.404228
	H60	H	0.105631	0.421289	0.584324
	H61	H	0.883863	0.592450	0.597106
	H62	H	0.107482	0.596166	0.415624
	H63	H	0.879013	0.406522	0.414436
	H64	H	0.406191	0.601017	0.116139
	H65	H	0.579356	0.603183	0.891672
	H66	H	0.586504	0.418743	0.117148
	H67	H	0.407694	0.416741	0.889400
	H68	H	0.584837	0.115885	0.418856
	H69	H	0.592122	0.894179	0.599137
	H70	H	0.404374	0.118648	0.595541
	H71	H	0.411329	0.898688	0.411382
	H72	H	0.902075	0.621777	0.097904
	H73	H	0.085159	0.397701	0.093386
	H74	H	0.077194	0.616896	0.912694
	H75	H	0.902632	0.398733	0.913849
	H76	H	0.081754	0.920073	0.615563
	H77	H	0.091344	0.100528	0.389680
	H78	H	0.915007	0.099401	0.613605
	H79	H	0.912368	0.923026	0.393296
	H80	H	0.609672	0.098935	0.911080
	H81	H	0.379592	0.103232	0.097499
	H82	H	0.608990	0.919124	0.093109
	H83	H	0.378505	0.916406	0.903210
	H84	H	0.608478	0.916811	0.088900
	H85	H	0.384423	0.101955	0.086480
	H86	H	0.610387	0.103515	0.916226
	H87	H	0.382360	0.908068	0.921669
	H88	H	0.906409	0.101757	0.617172
	H89	H	0.084438	0.094303	0.393923
	H90	H	0.083183	0.914515	0.616349
	H91	H	0.912790	0.917200	0.391648
	H92	H	0.081843	0.614365	0.922545
	H93	H	0.084259	0.398300	0.091778
	H94	H	0.904046	0.620064	0.098002
	H95	H	0.908121	0.397913	0.909270
	H96	H	0.403582	0.118479	0.596911
	H97	H	0.576946	0.900377	0.596323
	H98	H	0.587623	0.119586	0.413819
	H99	H	0.405638	0.899882	0.418761
	H100	H	0.582642	0.417184	0.115660
	H101	H	0.590347	0.604906	0.887355
	H102	H	0.406445	0.596027	0.113818
	H103	H	0.407760	0.423102	0.892608
	H104	H	0.110589	0.599694	0.408121
	H105	H	0.882016	0.605117	0.588211
	H106	H	0.106371	0.423826	0.589692
	H107	H	0.887474	0.421429	0.421749
	H108	H	0.903296	0.620818	0.095767
	H109	H	0.086224	0.398290	0.092060
	H110	H	0.087801	0.619236	0.914728
	H111	H	0.909503	0.400824	0.915662
	H112	H	0.087023	0.918371	0.617857
	H113	H	0.081801	0.104030	0.391269
	H114	H	0.907439	0.093438	0.613151
	H115	H	0.907614	0.919643	0.391066
	H116	H	0.608052	0.096874	0.916988
	H117	H	0.384624	0.093040	0.094176
	H118	H	0.606543	0.921250	0.089922
	H119	H	0.387188	0.927585	0.918708
	C120	C	0.373930	0.015886	0.626776
	C121	C	0.617991	0.999779	0.625377
	C122	C	0.618113	0.017129	0.381712
	C123	C	0.374814	1.000342	0.382652
	C124	C	0.616700	0.386957	0.012214
	C125	C	0.616170	0.630066	0.994937
	C126	C	0.375400	0.630122	0.011383
	C127	C	0.375330	0.387509	0.993857
	C128	C	0.004657	0.629840	0.382618
	C129	C	0.987072	0.630577	0.623711
	C130	C	0.004366	0.388399	0.622724
	C131	C	0.987228	0.386462	0.382212
	C132	C	0.873607	0.517799	0.126241
	C133	C	0.117574	0.499532	0.124470
	C134	C	0.117657	0.517461	0.880751
	C135	C	0.873681	0.500428	0.881210
	C136	C	0.116244	0.887409	0.512529
	C137	C	0.117044	0.129913	0.495843
	C138	C	0.876102	0.130387	0.512104
	C139	C	0.876403	0.887736	0.494552
	C140	C	0.504905	0.129662	0.882964
	C141	C	0.486886	0.130565	0.123855
	C142	C	0.504433	0.887825	0.124214
	C143	C	0.487447	0.887227	0.883072
	C144	C	0.374066	0.899239	0.684681
	C145	C	0.620290	0.115254	0.685996
	C146	C	0.622716	0.902990	0.319262
	C147	C	0.373341	0.116435	0.324071
	C148	C	0.674197	0.388535	0.893061
	C149	C	0.672151	0.628277	0.114681
	C150	C	0.316446	0.631016	0.893262
	C151	C	0.314819	0.386289	0.111480
	C152	C	0.886331	0.688476	0.381322
	C153	C	0.102914	0.693049	0.629837
	C154	C	0.887510	0.327557	0.628157
	C155	C	0.105896	0.328445	0.379954
	C156	C	0.886619	0.386783	0.683615
	C157	C	0.103088	0.635474	0.686931
	C158	C	0.885081	0.629051	0.326088
	C159	C	0.106453	0.387664	0.324537
	C160	C	0.372894	0.689636	0.894070
	C161	C	0.616734	0.687860	0.113472
	C162	C	0.618284	0.329521	0.893621
	C163	C	0.369930	0.326778	0.110424
	C164	C	0.680624	0.902806	0.377252
	C165	C	0.678234	0.115375	0.627759
	C166	C	0.315932	0.899315	0.626781
	C167	C	0.315396	0.116208	0.382520
	C168	C	0.875039	0.400066	0.182293
	C169	C	0.119532	0.614816	0.184664
	C170	C	0.124451	0.404416	0.816046
	C171	C	0.870827	0.615754	0.820892
	C172	C	0.175591	0.887995	0.394210
	C173	C	0.174005	0.129706	0.614770
	C174	C	0.815470	0.132221	0.394938
	C175	C	0.814738	0.885260	0.611671
	C176	C	0.386906	0.188773	0.880167
	C177	C	0.604672	0.190043	0.126475
	C178	C	0.386964	0.828039	0.128430
	C179	C	0.606542	0.829561	0.881710
	C180	C	0.386646	0.886484	0.184932
	C181	C	0.605497	0.131285	0.182233
	C182	C	0.385914	0.128765	0.825705
	C183	C	0.606923	0.887628	0.825034
	C184	C	0.871722	0.190958	0.395499
	C185	C	0.119166	0.189753	0.613170
	C186	C	0.119934	0.828860	0.394559
	C187	C	0.870119	0.825570	0.610436
	C188	C	0.181962	0.404046	0.874397
	C189	C	0.177438	0.614978	0.126190
	C190	C	0.817367	0.400103	0.123891
	C191	C	0.813978	0.616341	0.880306
	C192	C	0.397600	0.097405	0.603200
	C193	C	0.592992	0.919293	0.600157
	C194	C	0.591995	0.097074	0.408057
	C195	C	0.399387	0.919275	0.406645
	C196	C	0.592060	0.409978	0.094964
	C197	C	0.592522	0.607300	0.912107
	C198	C	0.400426	0.605664	0.093340
	C199	C	0.402136	0.412488	0.912623
	C200	C	0.087789	0.606670	0.406417
	C201	C	0.906206	0.604186	0.596742
	C202	C	0.085665	0.414037	0.595386
	C203	C	0.904110	0.409754	0.406556
	C204	C	0.896578	0.599468	0.103675
	C205	C	0.092401	0.419091	0.099371
	C206	C	0.090107	0.596262	0.908611
	C207	C	0.899371	0.420050	0.905858
	C208	C	0.090973	0.910863	0.595157
	C209	C	0.092953	0.106119	0.413374
	C210	C	0.902115	0.105346	0.593421
	C211	C	0.903312	0.912806	0.413335
	C212	C	0.587644	0.106365	0.907589
	C213	C	0.404371	0.106469	0.099485
	C214	C	0.586566	0.912233	0.098187
	C215	C	0.404521	0.910756	0.907551
	Zn216	Zn	0.495958	0.008074	0.755357
	Zn217	Zn	0.496450	0.009192	0.251999
	Zn218	Zn	0.744541	0.508795	0.003758
	Zn219	Zn	0.247549	0.508540	0.002213
	Zn220	Zn	-0.004017	0.758489	0.502746
	Zn221	Zn	-0.003209	0.259075	0.503641
	Zn222	Zn	-0.004014	0.509672	0.751151
	Zn223	Zn	-0.004275	0.508419	0.255087
	Zn224	Zn	0.495605	0.759083	0.003319
	Zn225	Zn	0.495807	0.258609	0.002846
	Zn226	Zn	0.747849	0.008701	0.503135
	Zn227	Zn	0.244827	0.008206	0.505452
	N228	N	0.409487	0.972866	0.684846
	N229	N	0.583598	0.042330	0.684903
	N230	N	0.584715	0.975147	0.321672
	N231	N	0.409534	0.043206	0.323779
	N232	N	0.673505	0.423546	0.967939
	N233	N	0.672362	0.593239	0.039788
	N234	N	0.317792	0.594640	0.967372
	N235	N	0.317881	0.423326	0.037796
	N236	N	0.961830	0.689254	0.415443
	N237	N	0.029753	0.690217	0.591051
	N238	N	0.961979	0.328246	0.591120
	N239	N	0.030412	0.327289	0.414878
	N240	N	0.960605	0.423823	0.680707
	N241	N	0.029961	0.597154	0.683172
	N242	N	0.959923	0.593221	0.326436
	N243	N	0.031487	0.423072	0.325598
	N244	N	0.408677	0.689373	0.968755
	N245	N	0.583051	0.689536	0.037847
	N246	N	0.583263	0.328141	0.968834
	N247	N	0.406773	0.327099	0.036103
	N248	N	0.677963	0.974912	0.415549
	N249	N	0.677086	0.042489	0.590744
	N250	N	0.315587	0.972954	0.591650
	N251	N	0.315841	0.042794	0.417983
	N252	N	0.908984	0.474297	0.184272
	N253	N	0.082982	0.541989	0.183779
	N254	N	0.084939	0.475906	0.819877
	N255	N	0.907305	0.542597	0.821093
	N256	N	0.173731	0.923579	0.468840
	N257	N	0.173054	0.093274	0.540735
	N258	N	0.817824	0.095125	0.468559
	N259	N	0.818582	0.923444	0.538692
	N260	N	0.462170	0.189820	0.914959
	N261	N	0.529620	0.190170	0.091128
	N262	N	0.461409	0.828558	0.091351
	N263	N	0.531012	0.828603	0.916779
	N264	N	0.460854	0.922987	0.182550
	N265	N	0.531052	0.094991	0.181029
	N266	N	0.460432	0.092819	0.826996
	N267	N	0.531834	0.922550	0.825733
	N268	N	0.908604	0.190079	0.469567
	N269	N	0.084299	0.190045	0.538149
	N270	N	0.083904	0.828025	0.469312
	N271	N	0.907624	0.826863	0.536521
	N272	N	0.178022	0.475269	0.914086
	N273	N	0.176470	0.542212	0.089385
	N274	N	0.815926	0.474332	0.090008
	N275	N	0.815304	0.543530	0.916736
	O276	O	0.175163	0.810512	0.001947
	H277	H	0.172854	0.802165	-0.011140
	H278	H	0.176855	0.801662	0.002772
	O279	O	0.197357	0.219235	0.203341
	H280	H	0.197909	0.224491	0.153534
	H281	H	0.172795	0.234192	0.216226
	O282	O	1.291139	0.295006	0.708401
	H283	H	1.283796	0.275068	0.730466
	H284	H	1.296815	0.304966	0.720662
	O285	O	0.466684	0.279960	0.722051
	H286	H	0.469556	0.281076	0.742969
	H287	H	0.453378	0.282286	0.734963
	O288	O	0.599663	0.487573	0.440554
	H289	H	0.599395	0.482222	0.429349
	H290	H	0.601507	0.486338	0.454639
	O291	O	0.464100	0.343480	0.355654
	H292	H	0.466373	0.359658	0.350242
	H293	H	0.468972	0.334556	0.373624
	O294	O	1.049471	0.253542	0.939193
	H295	H	1.033926	0.257925	0.942746
	H296	H	1.061511	0.261142	0.953811
	O297	O	0.489713	0.496107	0.642553
	H298	H	0.507338	0.512667	0.655886
	H299	H	0.479025	0.507310	0.646103
	O300	O	0.015707	0.098065	1.090977
	H301	H	0.000918	0.112346	1.099017
	H302	H	0.005900	0.092803	1.089152
	O303	O	0.684828	0.704528	0.313545
	H304	H	0.666875	0.687131	0.327571
	H305	H	0.664256	0.691321	0.334835
	O306	O	0.688130	0.302371	0.309257
	H307	H	0.699395	0.295567	0.344265
	H308	H	0.642050	0.292518	0.301565
	O309	O	0.392262	0.620536	0.708068
	H310	H	0.389405	0.616791	0.699837
	H311	H	0.400017	0.633256	0.721969
	O312	O	0.346504	0.572738	0.497743
	H313	H	0.339295	0.575071	0.504343
	H314	H	0.340229	0.566288	0.506397
	O315	O	0.772118	0.782126	1.041020
	H316	H	0.774705	0.780114	1.050551
	H317	H	0.749869	0.769884	1.039092
	O318	O	0.711557	0.548215	0.722093
	H319	H	0.731219	0.545362	0.739658
	H320	H	0.715108	0.574630	0.717348
	O321	O	0.196792	0.800128	0.803258
	H322	H	0.204509	0.809776	0.815818
	H323	H	0.158016	0.808638	0.804089
	O324	O	0.816955	0.998970	0.146067
	H325	H	0.817451	0.984436	0.144295
	H326	H	0.812100	0.995040	0.161715
	O327	O	-0.040142	-0.017035	0.772008
	H328	H	-0.036128	-0.011163	0.773554
	H329	H	-0.049443	-0.000289	0.771398
	O330	O	0.349401	0.342422	0.326610
	H331	H	0.327824	0.340032	0.304314
	H332	H	0.364590	0.366160	0.326708
	O333	O	0.712289	0.291079	0.475279
	H334	H	0.697276	0.283736	0.484334
	H335	H	0.725893	0.280367	0.480366
	O336	O	0.908025	-0.073628	0.048131
	H337	H	0.901439	-0.073163	0.045743
	H338	H	0.924630	-0.069598	0.038636
	O339	O	0.896525	-0.037186	1.215030
	H340	H	0.879024	-0.036874	1.215380
	H341	H	0.892083	-0.050068	1.204264
	O342	O	-0.059001	0.234673	0.065425
	H343	H	-0.062853	0.236779	0.083493
	H344	H	-0.073141	0.240799	0.066918
	O345	O	-0.181031	0.941204	0.891392
	H346	H	-0.169627	0.970960	0.897726
	H347	H	-0.171692	0.929304	0.914799
	O348	O	0.176358	0.089273	0.000034
	H349	H	0.163366	0.080899	-0.005891
	H350	H	0.177963	0.063429	0.009427
	O351	O	0.788192	0.795264	0.213072
	H352	H	0.793505	0.799403	0.186771
	H353	H	0.755228	0.770076	0.244388
	O354	O	0.181088	0.203113	0.822000
	H355	H	0.159584	0.181958	0.833115
	H356	H	0.166098	0.189336	0.844852
	O357	O	0.544209	0.544588	0.591290
	H358	H	0.545186	0.543856	0.586364
	H359	H	0.538494	0.553874	0.596205
	O360	O	0.280361	0.491586	0.710113
	H361	H	0.269001	0.479463	0.727051
	H362	H	0.287360	0.483400	0.709737
	O363	O	0.122289	-0.119876	-0.037913
	H364	H	0.132966	-0.129069	-0.028118
	H365	H	0.126006	-0.116153	-0.029776
	O366	O	0.533975	0.726649	0.719437
	H367	H	0.557119	0.745789	0.740379
	H368	H	0.562636	0.727213	0.724305
	O369	O	1.126695	-0.000003	-0.137948
	H370	H	1.110166	0.000867	-0.140614
	H371	H	1.137318	-0.003206	-0.124034
	O372	O	0.808671	0.815194	-0.190838
	H373	H	0.824621	0.835182	-0.169909
	H374	H	0.829900	0.830194	-0.172583
	O375	O	1.083487	-0.055746	0.198424
	H376	H	1.103827	-0.027741	0.211866
	H377	H	1.057011	-0.053018	0.202008
	O378	O	0.651001	0.478707	0.614088
	H379	H	0.646059	0.488278	0.624708
	H380	H	0.660848	0.466490	0.614834
	O381	O	0.035630	0.821845	1.025930
	H382	H	0.044114	0.821254	1.040730
	H383	H	0.039733	0.823376	1.043762
	O384	O	0.789101	0.219306	0.796263
	H385	H	0.809219	0.192202	0.786446
	H386	H	0.757862	0.247773	0.763834
	O387	O	1.116078	0.797146	0.117428
	H388	H	1.122721	0.798747	0.137293
	H389	H	1.114052	0.818204	0.105988
	O390	O	0.209949	0.235841	0.031307
	H391	H	0.241035	0.261992	0.026854
	H392	H	0.212688	0.197757	0.012910
	O393	O	0.597820	0.704612	0.469997
	H394	H	0.592615	0.704618	0.479096
	H395	H	0.592188	0.715780	0.476054
	O396	O	-0.150657	1.079465	0.988104
	H397	H	-0.128239	1.089552	0.989844
	H398	H	-0.160431	1.101698	0.984142
	O399	O	0.218159	0.054732	1.226456
	H400	H	0.248064	0.061631	1.253288
	H401	H	0.214050	0.098254	1.223220
	O402	O	0.333375	0.486591	0.300293
	H403	H	0.320457	0.499446	0.286877
	H404	H	0.344016	0.496100	0.302468
	O405	O	0.780052	0.044209	0.786691
	H406	H	0.785625	0.036326	0.796208
	H407	H	0.757637	0.049281	0.770601
	O408	O	0.210611	-0.013229	-0.207828
	H409	H	0.194824	-0.015456	-0.215784
	H410	H	0.225181	-0.027996	-0.221617
	O411	O	0.481596	0.468864	0.607965
	H412	H	0.478041	0.475247	0.594688
	H413	H	0.469176	0.495776	0.605234
	O414	O	0.473906	0.729180	0.292277
	H415	H	0.480535	0.741273	0.295980
	H416	H	0.455399	0.733214	0.287181
	O417	O	0.509557	0.279518	0.323408
	H418	H	0.504987	0.278153	0.306804
	H419	H	0.490801	0.290057	0.316412
	O420	O	0.566648	0.529385	0.322782
	H421	H	0.570536	0.533904	0.324122
	H422	H	0.565034	0.529051	0.316564
	O423	O	0.025299	-0.134168	0.792026
	H424	H	0.014403	-0.122567	0.800968
	H425	H	0.017938	-0.136290	0.790526
	O426	O	0.708535	0.722784	0.540520
	H427	H	0.712519	0.732779	0.534825
	H428	H	0.712081	0.719096	0.537425
	O429	O	0.702153	0.720879	0.711311
	H430	H	0.710344	0.710259	0.674068
	H431	H	0.737364	0.752296	0.741084
	O432	O	0.489407	0.441351	0.529238
	H433	H	0.475404	0.441225	0.526635
	H434	H	0.476446	0.438926	0.524979
	O435	O	0.364492	0.319005	0.427691
	H436	H	0.375735	0.321126	0.404458
	H437	H	0.344378	0.317336	0.445653
	O438	O	-0.201764	0.215101	0.205801
	H439	H	-0.218344	0.218473	0.222449
	H440	H	-0.198608	0.200247	0.196537
	O441	O	0.029003	0.232385	0.228435
	H442	H	0.031352	0.212882	0.231641
	H443	H	0.022385	0.253783	0.260767
	O444	O	0.326711	0.626167	0.599589
	H445	H	0.325827	0.608709	0.612396
	H446	H	0.327960	0.609832	0.596251
	O447	O	0.255845	0.755144	1.266248
	H448	H	0.245928	0.763925	1.299153
	H449	H	0.266340	0.762651	1.251046
	O450	O	0.224182	0.949267	1.048815
	H451	H	0.220354	0.939324	1.075114
	H452	H	0.225705	0.933470	1.055558
	O453	O	0.269181	0.470416	0.462261
	H454	H	0.273108	0.443144	0.456646
	H455	H	0.265328	0.466173	0.458620
	O456	O	-0.051017	0.087732	0.878808
	H457	H	-0.051962	0.092312	0.893523
	H458	H	-0.055533	0.089243	0.871472
	O459	O	0.967387	0.782079	0.223439
	H460	H	0.959225	0.767102	0.245513
	H461	H	0.948482	0.787343	0.232628
	O462	O	0.685684	0.315927	0.690603
	H463	H	0.664591	0.317858	0.660634
	H464	H	0.667416	0.347368	0.682716
	O465	O	0.918522	0.068767	0.212433
	H466	H	0.927386	0.057235	0.215063
	H467	H	0.894883	0.065299	0.207046
	O468	O	0.553159	0.275998	0.567106
	H469	H	0.528947	0.277815	0.585352
	H470	H	0.543380	0.271654	0.556173
	O471	O	0.476577	0.630122	0.400863
	H472	H	0.472516	0.634376	0.432830
	H473	H	0.474069	0.642111	0.394088
	O474	O	0.291855	0.307186	0.544457
	H475	H	0.303246	0.317987	0.585477
	H476	H	0.258042	0.281918	0.550482
	O477	O	0.475220	0.734058	1.506615
	H478	H	0.473829	0.727889	1.533825
	H479	H	0.449995	0.731648	1.503666
	O480	O	0.293142	0.619485	0.290508
	H481	H	0.273643	0.637351	0.280067
	H482	H	0.284267	0.631201	0.288507
	O483	O	0.718394	0.530990	0.510237
	H484	H	0.725927	0.510670	0.494754
	H485	H	0.709515	0.542080	0.498610
	O486	O	0.971021	0.235127	0.786808
	H487	H	0.976841	0.260578	0.788183
	H488	H	0.948172	0.236675	0.776982
	O489	O	0.877619	1.011383	0.063285
	H490	H	0.875297	1.004857	0.066791
	H491	H	0.867536	1.011164	0.064289
	O492	O	0.280979	-0.275855	0.467195
	H493	H	0.271912	-0.270870	0.475827
	H494	H	0.275922	-0.280382	0.487380
	O495	O	-0.034251	0.778463	0.900808
	H496	H	-0.025132	0.771662	0.900404
	H497	H	-0.029128	0.779928	0.915175
	O498	O	0.773243	1.234076	0.965745
	H499	H	0.759125	1.246006	0.944732
	H500	H	0.760142	1.245495	0.940652
	O501	O	0.719664	0.467197	0.279332
	H502	H	0.732724	0.447796	0.263507
	H503	H	0.726811	0.442017	0.268969
