data_Molecule from HDF5

_cell_length_a		16.276512
_cell_length_b		16.369021
_cell_length_c		16.310073
_cell_angle_alpha	89.945910
_cell_angle_beta	89.851734
_cell_angle_gamma	90.114698
_symmetry_space_group_name_H-M	'P 1'
_symmetry_Int_Tables_number		1

loop_
	_symmetry_equiv_pos_as_xyz
	x,y,z

loop_
	_atom_site_label
	_atom_site_type_symbol
	_atom_site_fract_x
	_atom_site_fract_y
	_atom_site_fract_z
	H0	H	0.409707	0.838992	0.721467
	H1	H	0.607350	0.164663	0.720549
	H2	H	0.608918	0.838860	0.290053
	H3	H	0.410968	0.164284	0.290909
	H4	H	0.722596	0.404940	0.842155
	H5	H	0.722915	0.599723	0.169655
	H6	H	0.295726	0.598278	0.842182
	H7	H	0.293334	0.402833	0.169034
	H8	H	0.845368	0.717213	0.406295
	H9	H	0.172270	0.716542	0.604733
	H10	H	0.845776	0.285235	0.604854
	H11	H	0.172821	0.288613	0.407579
	H12	H	0.844449	0.403429	0.719264
	H13	H	0.173549	0.597996	0.718316
	H14	H	0.845078	0.599136	0.292051
	H15	H	0.172120	0.404001	0.291884
	H16	H	0.409575	0.717052	0.843218
	H17	H	0.608619	0.717334	0.169288
	H18	H	0.609305	0.286072	0.843085
	H19	H	0.407385	0.285446	0.168495
	H20	H	0.724140	0.838354	0.407374
	H21	H	0.723522	0.164902	0.604071
	H22	H	0.294062	0.838580	0.605141
	H23	H	0.296067	0.164929	0.408929
	H24	H	0.908726	0.338434	0.221834
	H25	H	0.106601	0.663598	0.219798
	H26	H	0.106401	0.337896	0.791506
	H27	H	0.910568	0.663921	0.789295
	H28	H	0.224997	0.903673	0.343406
	H29	H	0.221946	0.098108	0.670335
	H30	H	0.794795	0.099744	0.342185
	H31	H	0.794411	0.903305	0.669512
	H32	H	0.345772	0.216863	0.906951
	H33	H	0.672426	0.216824	0.103979
	H34	H	0.344797	0.786957	0.105828
	H35	H	0.672966	0.787941	0.907425
	H36	H	0.345649	0.903140	0.221441
	H37	H	0.672984	0.100198	0.219020
	H38	H	0.345094	0.100279	0.791509
	H39	H	0.672662	0.903910	0.791261
	H40	H	0.910819	0.216515	0.342588
	H41	H	0.108339	0.216746	0.668873
	H42	H	0.108980	0.786846	0.342325
	H43	H	0.909304	0.786256	0.669237
	H44	H	0.224253	0.338203	0.906662
	H45	H	0.222869	0.664337	0.103325
	H46	H	0.792924	0.338588	0.104015
	H47	H	0.795303	0.665213	0.907484
	H48	H	0.423038	0.116777	0.607203
	H49	H	0.598521	0.889224	0.592561
	H50	H	0.601727	0.115791	0.416119
	H51	H	0.426714	0.889806	0.415084
	H52	H	0.608016	0.410746	0.124026
	H53	H	0.603395	0.591456	0.891259
	H54	H	0.413233	0.597177	0.123047
	H55	H	0.420057	0.398862	0.888345
	H56	H	0.125401	0.602139	0.416296
	H57	H	0.891016	0.596830	0.601692
	H58	H	0.124894	0.409624	0.598773
	H59	H	0.893633	0.408485	0.414635
	H60	H	0.126013	0.407363	0.600691
	H61	H	0.893719	0.596156	0.593552
	H62	H	0.121781	0.588398	0.416529
	H63	H	0.892267	0.408527	0.412590
	H64	H	0.413865	0.592661	0.121850
	H65	H	0.597989	0.596674	0.891155
	H66	H	0.595369	0.415547	0.118000
	H67	H	0.407346	0.412078	0.887695
	H68	H	0.604452	0.117889	0.412678
	H69	H	0.609032	0.883727	0.599877
	H70	H	0.416989	0.114721	0.590499
	H71	H	0.410274	0.887160	0.422098
	H72	H	0.915152	0.615173	0.095012
	H73	H	0.093644	0.385358	0.106513
	H74	H	0.104642	0.620064	0.902751
	H75	H	0.914396	0.386812	0.915657
	H76	H	0.105881	0.902039	0.625753
	H77	H	0.100820	0.095329	0.390432
	H78	H	0.925885	0.088991	0.616779
	H79	H	0.917956	0.905806	0.389063
	H80	H	0.627024	0.096956	0.908493
	H81	H	0.392347	0.091358	0.100328
	H82	H	0.625529	0.907568	0.098494
	H83	H	0.390938	0.910937	0.905701
	H84	H	0.623613	0.909810	0.095667
	H85	H	0.392010	0.096562	0.101099
	H86	H	0.624623	0.097578	0.917462
	H87	H	0.390688	0.900325	0.914670
	H88	H	0.916221	0.105136	0.624950
	H89	H	0.103103	0.096257	0.389255
	H90	H	0.104500	0.915550	0.620191
	H91	H	0.913445	0.909117	0.389824
	H92	H	0.093510	0.613974	0.913541
	H93	H	0.098786	0.388473	0.089330
	H94	H	0.912067	0.619224	0.102007
	H95	H	0.912864	0.384378	0.910286
	H96	H	0.406333	0.121557	0.602776
	H97	H	0.596626	0.886214	0.605898
	H98	H	0.600251	0.115611	0.411601
	H99	H	0.413544	0.882622	0.404938
	H100	H	0.596693	0.401773	0.121990
	H101	H	0.604360	0.598226	0.888623
	H102	H	0.418035	0.595823	0.121791
	H103	H	0.423666	0.415349	0.894690
	H104	H	0.127550	0.593746	0.405072
	H105	H	0.894196	0.589356	0.599239
	H106	H	0.125679	0.407018	0.597622
	H107	H	0.891768	0.406232	0.414367
	H108	H	0.920231	0.616486	0.101096
	H109	H	0.110644	0.382416	0.101125
	H110	H	0.109535	0.616230	0.918212
	H111	H	0.917833	0.386990	0.911515
	H112	H	0.093135	0.906207	0.620511
	H113	H	0.103179	0.093717	0.390756
	H114	H	0.906132	0.087373	0.623002
	H115	H	0.918836	0.910459	0.391259
	H116	H	0.623310	0.090044	0.913338
	H117	H	0.393799	0.094459	0.095993
	H118	H	0.624818	0.911246	0.099373
	H119	H	0.395625	0.912546	0.919361
	C120	C	0.386712	0.009908	0.628381
	C121	C	0.630471	0.993830	0.627644
	C122	C	0.631118	0.009263	0.384251
	C123	C	0.387851	0.993853	0.385017
	C124	C	0.629469	0.380707	0.013678
	C125	C	0.630709	0.624048	0.998045
	C126	C	0.387072	0.623025	0.014289
	C127	C	0.387403	0.379937	0.997585
	C128	C	0.016922	0.623328	0.384189
	C129	C	1.001100	0.622397	0.626795
	C130	C	0.017306	0.379279	0.627743
	C131	C	1.000278	0.379923	0.384734
	C132	C	0.886731	0.509383	0.127845
	C133	C	0.129991	0.493001	0.127232
	C134	C	0.130743	0.509007	0.883530
	C135	C	0.886927	0.493310	0.883908
	C136	C	0.130460	0.879756	0.514400
	C137	C	0.130787	0.122971	0.497986
	C138	C	0.887505	0.122729	0.513717
	C139	C	0.887443	0.879608	0.497976
	C140	C	0.517081	0.123163	0.884830
	C141	C	0.500802	0.122981	0.127387
	C142	C	0.516828	0.880395	0.127343
	C143	C	0.500730	0.879848	0.884565
	C144	C	0.389448	0.887433	0.683394
	C145	C	0.628077	0.116030	0.682547
	C146	C	0.629277	0.887452	0.327887
	C147	C	0.390649	0.115840	0.329225
	C148	C	0.684920	0.383621	0.891089
	C149	C	0.685419	0.620573	0.120806
	C150	C	0.333141	0.619647	0.891083
	C151	C	0.331268	0.382200	0.120430
	C152	C	0.894263	0.678862	0.386366
	C153	C	0.123883	0.677735	0.624689
	C154	C	0.894181	0.323640	0.625369
	C155	C	0.123757	0.325995	0.387137
	C156	C	0.893591	0.382154	0.682252
	C157	C	0.124366	0.618942	0.681180
	C158	C	0.894019	0.620297	0.329463
	C159	C	0.123508	0.383394	0.329799
	C160	C	0.389518	0.678729	0.891824
	C161	C	0.628479	0.678918	0.120728
	C162	C	0.628402	0.324589	0.891589
	C163	C	0.388113	0.324037	0.120059
	C164	C	0.686243	0.886916	0.386588
	C165	C	0.686006	0.116237	0.624722
	C166	C	0.331781	0.887390	0.625496
	C167	C	0.333429	0.116243	0.387833
	C168	C	0.888328	0.386995	0.183478
	C169	C	0.127314	0.615181	0.182141
	C170	C	0.127427	0.386470	0.829119
	C171	C	0.889748	0.615793	0.828140
	C172	C	0.186518	0.882758	0.391843
	C173	C	0.185116	0.119497	0.621125
	C174	C	0.832518	0.120263	0.390940
	C175	C	0.831935	0.882393	0.620666
	C176	C	0.394132	0.178447	0.886901
	C177	C	0.623473	0.179030	0.124717
	C178	C	0.393883	0.824877	0.125768
	C179	C	0.623978	0.825596	0.886910
	C180	C	0.394089	0.882533	0.183213
	C181	C	0.623947	0.120827	0.181733
	C182	C	0.393688	0.120207	0.829935
	C183	C	0.624004	0.883713	0.829748
	C184	C	0.890242	0.178336	0.391240
	C185	C	0.128463	0.178095	0.620641
	C186	C	0.129191	0.824596	0.391518
	C187	C	0.889039	0.824239	0.620490
	C188	C	0.185897	0.386631	0.886462
	C189	C	0.185058	0.615465	0.124075
	C190	C	0.830815	0.387058	0.125102
	C191	C	0.832396	0.616300	0.886595
	C192	C	0.408816	0.095555	0.606501
	C193	C	0.608005	0.908535	0.605790
	C194	C	0.608694	0.094408	0.406942
	C195	C	0.410145	0.908467	0.407511
	C196	C	0.606661	0.402933	0.099433
	C197	C	0.608356	0.602012	0.912231
	C198	C	0.408773	0.601590	0.100050
	C199	C	0.410121	0.402328	0.912350
	C200	C	0.102825	0.601227	0.406220
	C201	C	0.915255	0.600533	0.604640
	C202	C	0.103172	0.401489	0.605634
	C203	C	0.914524	0.401483	0.407233
	C204	C	0.909182	0.594855	0.105868
	C205	C	0.107567	0.407305	0.105400
	C206	C	0.108850	0.594641	0.905100
	C207	C	0.908610	0.408218	0.905885
	C208	C	0.107697	0.901345	0.600024
	C209	C	0.108895	0.101416	0.412079
	C210	C	0.909664	0.100487	0.599437
	C211	C	0.910147	0.901936	0.412132
	C212	C	0.602791	0.101275	0.906744
	C213	C	0.414870	0.100483	0.105638
	C214	C	0.602695	0.902760	0.104593
	C215	C	0.414773	0.901632	0.906726
	Zn216	Zn	0.508569	0.001991	0.756330
	Zn217	Zn	0.509610	0.001523	0.255712
	Zn218	Zn	0.758464	0.502265	0.005638
	Zn219	Zn	0.258775	0.501321	0.005688
	Zn220	Zn	0.009104	0.751494	0.505839
	Zn221	Zn	0.009532	0.251674	0.505920
	Zn222	Zn	0.008429	0.501019	0.755302
	Zn223	Zn	0.008507	0.500843	0.256592
	Zn224	Zn	0.508981	0.751944	0.006585
	Zn225	Zn	0.508517	0.251569	0.005826
	Zn226	Zn	0.759188	0.001129	0.505915
	Zn227	Zn	0.258606	0.001614	0.506255
	N228	N	0.422856	0.964658	0.685272
	N229	N	0.594553	0.039068	0.684557
	N230	N	0.595675	0.964611	0.326513
	N231	N	0.423798	0.038704	0.327366
	N232	N	0.685834	0.417615	0.968027
	N233	N	0.686825	0.587255	0.043346
	N234	N	0.331304	0.585817	0.968175
	N235	N	0.330600	0.416358	0.043347
	N236	N	0.971818	0.680706	0.419873
	N237	N	0.046284	0.680044	0.591691
	N238	N	0.971875	0.321846	0.592324
	N239	N	0.046086	0.323914	0.420839
	N240	N	0.971057	0.416125	0.683731
	N241	N	0.046962	0.584938	0.682395
	N242	N	0.971237	0.586579	0.327928
	N243	N	0.045889	0.416315	0.328278
	N244	N	0.422521	0.680847	0.969419
	N245	N	0.595330	0.681231	0.043280
	N246	N	0.594460	0.322867	0.968982
	N247	N	0.422353	0.322545	0.042948
	N248	N	0.687317	0.963510	0.420886
	N249	N	0.687545	0.039039	0.591184
	N250	N	0.330186	0.964503	0.591852
	N251	N	0.331861	0.039479	0.422042
	N252	N	0.922178	0.464012	0.185403
	N253	N	0.093984	0.537870	0.184309
	N254	N	0.094129	0.463519	0.826967
	N255	N	0.922883	0.538694	0.826267
	N256	N	0.187456	0.916293	0.469092
	N257	N	0.186384	0.085774	0.543861
	N258	N	0.830860	0.086292	0.468003
	N259	N	0.830966	0.916097	0.543420
	N260	N	0.471566	0.180324	0.920263
	N261	N	0.545784	0.180505	0.091725
	N262	N	0.471184	0.823668	0.091532
	N263	N	0.546358	0.823128	0.920259
	N264	N	0.471641	0.916211	0.184415
	N265	N	0.546559	0.086875	0.183600
	N266	N	0.471185	0.086659	0.828344
	N267	N	0.546267	0.916739	0.828048
	N268	N	0.923552	0.180009	0.468740
	N269	N	0.095445	0.180370	0.543131
	N270	N	0.094766	0.822917	0.468708
	N271	N	0.922722	0.822310	0.543041
	N272	N	0.187971	0.463974	0.919646
	N273	N	0.186681	0.538497	0.090675
	N274	N	0.829668	0.464233	0.091323
	N275	N	0.830563	0.539240	0.920619
	O276	O	0.562243	0.559480	0.471661
	H277	H	0.553976	0.568338	0.470110
	H278	H	0.547059	0.558289	0.478996
	O279	O	-0.067742	0.021818	0.018929
	H280	H	-0.067512	0.027297	0.018948
	H281	H	-0.065758	0.032448	0.020213
	O282	O	0.528014	0.500885	0.519937
	H283	H	0.531089	0.496021	0.521550
	H284	H	0.535381	0.496097	0.517875
	O285	O	0.495509	0.492447	0.469330
	H286	H	0.500529	0.481209	0.461948
	H287	H	0.501838	0.496739	0.464448
	O288	O	0.915791	-0.015189	-0.008855
	H289	H	0.913632	-0.023788	-0.008794
	H290	H	0.908743	-0.010554	-0.007461
	O291	O	-0.455116	0.523919	-0.497853
	H292	H	-0.454054	0.522405	-0.494089
	H293	H	-0.456837	0.527575	-0.505366
	O294	O	0.541847	0.498948	0.551743
	H295	H	0.545277	0.497744	0.560683
	H296	H	0.551657	0.496488	0.542867
	O297	O	-0.062750	0.990647	0.012971
	H298	H	-0.066686	0.982666	0.011522
	H299	H	-0.061571	0.986781	0.019002
	O300	O	0.510674	0.490554	0.468660
	H301	H	0.511256	0.489690	0.469915
	H302	H	0.505565	0.483325	0.473774
	O303	O	0.550798	0.475046	0.543335
	H304	H	0.561443	0.481508	0.539186
	H305	H	0.543147	0.475451	0.551309
	O306	O	-0.074424	1.026509	0.987603
	H307	H	-0.074935	1.025904	0.984427
	H308	H	-0.074929	1.030901	0.982896
	O309	O	0.573485	0.577333	0.515616
	H310	H	0.568182	0.582289	0.521627
	H311	H	0.580427	0.578153	0.513214
