data_Molecule from HDF5

_cell_length_a		16.366340
_cell_length_b		16.391755
_cell_length_c		16.090880
_cell_angle_alpha	89.812515
_cell_angle_beta	89.687719
_cell_angle_gamma	89.880900
_symmetry_space_group_name_H-M	'P 1'
_symmetry_Int_Tables_number		1

loop_
	_symmetry_equiv_pos_as_xyz
	x,y,z

loop_
	_atom_site_label
	_atom_site_type_symbol
	_atom_site_fract_x
	_atom_site_fract_y
	_atom_site_fract_z
	H0	H	0.411091	0.837110	0.715055
	H1	H	0.603256	0.164603	0.712429
	H2	H	0.604733	0.836133	0.287634
	H3	H	0.411214	0.163249	0.286499
	H4	H	0.722735	0.401851	0.835297
	H5	H	0.718551	0.597214	0.165984
	H6	H	0.294249	0.600108	0.835341
	H7	H	0.292578	0.401562	0.165401
	H8	H	0.846042	0.718117	0.399469
	H9	H	0.169696	0.715360	0.599939
	H10	H	0.845832	0.284102	0.603624
	H11	H	0.169873	0.282362	0.398626
	H12	H	0.844362	0.404771	0.714610
	H13	H	0.171739	0.594767	0.710817
	H14	H	0.844076	0.598106	0.288091
	H15	H	0.171986	0.403632	0.286585
	H16	H	0.409202	0.715415	0.835308
	H17	H	0.606190	0.713430	0.165066
	H18	H	0.606825	0.287763	0.834099
	H19	H	0.406529	0.284882	0.165181
	H20	H	0.726053	0.838416	0.398631
	H21	H	0.724262	0.162703	0.599712
	H22	H	0.291206	0.838088	0.603448
	H23	H	0.289769	0.161789	0.398027
	H24	H	0.909988	0.337471	0.216967
	H25	H	0.102281	0.663690	0.211662
	H26	H	0.105525	0.337146	0.786730
	H27	H	0.912596	0.664480	0.788683
	H28	H	0.223803	0.901315	0.336610
	H29	H	0.220218	0.098030	0.666265
	H30	H	0.795350	0.100374	0.334214
	H31	H	0.792830	0.901046	0.665107
	H32	H	0.345021	0.218415	0.897308
	H33	H	0.668843	0.216761	0.099938
	H34	H	0.345286	0.784420	0.102381
	H35	H	0.669064	0.782088	0.897697
	H36	H	0.344674	0.903263	0.216012
	H37	H	0.671562	0.095406	0.210677
	H38	H	0.343107	0.096795	0.787359
	H39	H	0.670489	0.902831	0.785668
	H40	H	0.908818	0.216485	0.335425
	H41	H	0.105512	0.212501	0.666273
	H42	H	0.108232	0.786342	0.335638
	H43	H	0.909431	0.787036	0.665742
	H44	H	0.226144	0.339001	0.898315
	H45	H	0.222271	0.662657	0.099622
	H46	H	0.789555	0.338612	0.104512
	H47	H	0.791607	0.662413	0.900784
	H48	H	0.414645	0.116621	0.597317
	H49	H	0.600297	0.881208	0.607178
	H50	H	0.598789	0.115956	0.403402
	H51	H	0.418095	0.885369	0.407348
	H52	H	0.597098	0.403457	0.118185
	H53	H	0.603238	0.584317	0.884014
	H54	H	0.424923	0.586023	0.112669
	H55	H	0.424569	0.410990	0.885073
	H56	H	0.127970	0.602647	0.400982
	H57	H	0.889420	0.596791	0.598638
	H58	H	0.122855	0.405719	0.590402
	H59	H	0.890007	0.396764	0.412772
	H60	H	0.124449	0.406356	0.595680
	H61	H	0.891214	0.598864	0.590219
	H62	H	0.120089	0.596065	0.418721
	H63	H	0.897603	0.414519	0.418145
	H64	H	0.415100	0.605425	0.122574
	H65	H	0.592178	0.593475	0.884763
	H66	H	0.601145	0.407905	0.118755
	H67	H	0.413752	0.401113	0.879722
	H68	H	0.602233	0.114155	0.410864
	H69	H	0.589678	0.891165	0.584516
	H70	H	0.416593	0.113256	0.588170
	H71	H	0.415142	0.886275	0.414304
	H72	H	0.907089	0.616155	0.088055
	H73	H	0.090938	0.386901	0.093289
	H74	H	0.111229	0.620102	0.901080
	H75	H	0.907673	0.383002	0.908943
	H76	H	0.106557	0.914261	0.619017
	H77	H	0.092421	0.104708	0.382121
	H78	H	0.916829	0.099670	0.619360
	H79	H	0.914464	0.911631	0.382319
	H80	H	0.624049	0.093453	0.901632
	H81	H	0.394457	0.093181	0.083809
	H82	H	0.621719	0.909491	0.089715
	H83	H	0.390400	0.908602	0.901552
	H84	H	0.624841	0.905911	0.097356
	H85	H	0.392300	0.085863	0.098216
	H86	H	0.622589	0.099960	0.909532
	H87	H	0.390249	0.898453	0.911271
	H88	H	0.906182	0.090547	0.619620
	H89	H	0.113883	0.091490	0.378587
	H90	H	0.089242	0.907647	0.615627
	H91	H	0.920551	0.908039	0.383420
	H92	H	0.092318	0.615333	0.900856
	H93	H	0.106334	0.385567	0.083619
	H94	H	0.910412	0.618153	0.098101
	H95	H	0.917968	0.384227	0.903233
	H96	H	0.407112	0.116701	0.590552
	H97	H	0.615817	0.883865	0.585137
	H98	H	0.606720	0.116959	0.404604
	H99	H	0.410394	0.883725	0.408996
	H100	H	0.596474	0.408852	0.116321
	H101	H	0.604057	0.597599	0.879481
	H102	H	0.402048	0.585920	0.120098
	H103	H	0.409896	0.414665	0.882694
	H104	H	0.121873	0.583616	0.403166
	H105	H	0.892619	0.590804	0.593259
	H106	H	0.124863	0.401654	0.592689
	H107	H	0.891148	0.411402	0.399689
	H108	H	0.917744	0.613610	0.091414
	H109	H	0.106458	0.380677	0.101470
	H110	H	0.103314	0.613675	0.917255
	H111	H	0.916616	0.387937	0.914575
	H112	H	0.102695	0.896989	0.622384
	H113	H	0.093462	0.079821	0.389518
	H114	H	0.919179	0.086346	0.614520
	H115	H	0.914926	0.904515	0.380239
	H116	H	0.619719	0.089805	0.910846
	H117	H	0.387904	0.101844	0.095727
	H118	H	0.624496	0.900356	0.089797
	H119	H	0.395023	0.911156	0.914641
	C120	C	0.384981	0.008219	0.622235
	C121	C	0.629561	0.992782	0.621350
	C122	C	0.630672	0.008307	0.377677
	C123	C	0.385846	0.992092	0.379792
	C124	C	0.628164	0.378562	0.008559
	C125	C	0.628130	0.620317	0.991848
	C126	C	0.385967	0.621495	0.009144
	C127	C	0.386492	0.379513	0.991638
	C128	C	0.015851	0.622701	0.378863
	C129	C	0.998949	0.622363	0.622073
	C130	C	0.016376	0.377405	0.622674
	C131	C	1.000158	0.378452	0.379692
	C132	C	0.883997	0.508670	0.123045
	C133	C	0.128912	0.492089	0.121128
	C134	C	0.130508	0.508782	0.878004
	C135	C	0.885592	0.492232	0.879343
	C136	C	0.129238	0.878255	0.509910
	C137	C	0.128400	0.120627	0.492680
	C138	C	0.886058	0.121803	0.508515
	C139	C	0.887237	0.879329	0.491337
	C140	C	0.514704	0.122716	0.877804
	C141	C	0.499045	0.121703	0.121030
	C142	C	0.516104	0.877690	0.122283
	C143	C	0.499159	0.877601	0.878623
	C144	C	0.389329	0.885769	0.677720
	C145	C	0.624866	0.115759	0.675251
	C146	C	0.626696	0.885334	0.323951
	C147	C	0.390021	0.114715	0.324458
	C148	C	0.684643	0.381337	0.884514
	C149	C	0.681861	0.617590	0.116417
	C150	C	0.331914	0.619961	0.884515
	C151	C	0.330685	0.381356	0.115983
	C152	C	0.894430	0.679396	0.379917
	C153	C	0.121438	0.676948	0.619738
	C154	C	0.894112	0.322417	0.622576
	C155	C	0.121895	0.322145	0.380085
	C156	C	0.893426	0.382199	0.677937
	C157	C	0.122475	0.617036	0.674715
	C158	C	0.893201	0.619444	0.324649
	C159	C	0.122843	0.382375	0.324216
	C160	C	0.388962	0.677304	0.884632
	C161	C	0.626082	0.675735	0.115813
	C162	C	0.627110	0.324448	0.883879
	C163	C	0.387145	0.323276	0.115955
	C164	C	0.687118	0.886568	0.378884
	C165	C	0.685138	0.114723	0.619381
	C166	C	0.329507	0.886526	0.622350
	C167	C	0.329412	0.113712	0.379612
	C168	C	0.888089	0.386303	0.179467
	C169	C	0.124407	0.614903	0.174800
	C170	C	0.126858	0.386209	0.823715
	C171	C	0.890134	0.615195	0.825031
	C172	C	0.185605	0.880728	0.385608
	C173	C	0.182769	0.118096	0.616837
	C174	C	0.832264	0.120278	0.383899
	C175	C	0.831418	0.881336	0.615839
	C176	C	0.393201	0.179136	0.878380
	C177	C	0.620886	0.177621	0.119254
	C178	C	0.393720	0.822638	0.121808
	C179	C	0.621227	0.821591	0.879090
	C180	C	0.393248	0.881770	0.178133
	C181	C	0.622185	0.117505	0.174638
	C182	C	0.392141	0.118436	0.823844
	C183	C	0.621668	0.881309	0.823088
	C184	C	0.888638	0.178320	0.384693
	C185	C	0.125720	0.175240	0.616793
	C186	C	0.128001	0.823803	0.385163
	C187	C	0.889358	0.824681	0.616323
	C188	C	0.187097	0.387191	0.878901
	C189	C	0.184191	0.614089	0.119264
	C190	C	0.828277	0.386744	0.123540
	C191	C	0.830263	0.614224	0.881112
	C192	C	0.406485	0.093500	0.598950
	C193	C	0.608298	0.907628	0.598934
	C194	C	0.608931	0.093577	0.399912
	C195	C	0.408104	0.907185	0.403263
	C196	C	0.604961	0.400363	0.095165
	C197	C	0.606305	0.598162	0.905025
	C198	C	0.407567	0.598947	0.095864
	C199	C	0.409483	0.402075	0.904943
	C200	C	0.101393	0.600480	0.400998
	C201	C	0.913364	0.601658	0.600547
	C202	C	0.101845	0.398272	0.599614
	C203	C	0.914951	0.400871	0.403408
	C204	C	0.905485	0.593734	0.099331
	C205	C	0.107555	0.406561	0.099124
	C206	C	0.108599	0.594353	0.900052
	C207	C	0.907740	0.406884	0.902271
	C208	C	0.106216	0.900065	0.596520
	C209	C	0.106268	0.098595	0.405692
	C210	C	0.907719	0.099014	0.595447
	C211	C	0.909879	0.901675	0.404715
	C212	C	0.600172	0.100782	0.900540
	C213	C	0.413797	0.100034	0.099040
	C214	C	0.601430	0.898979	0.098911
	C215	C	0.413818	0.899619	0.902365
	Zn216	Zn	0.507095	0.000481	0.750424
	Zn217	Zn	0.507950	0.000166	0.249890
	Zn218	Zn	0.755499	0.500082	0.000905
	Zn219	Zn	0.258583	0.500589	0.000122
	Zn220	Zn	0.007727	0.751166	0.500813
	Zn221	Zn	0.007637	0.248401	0.501124
	Zn222	Zn	0.007750	0.500494	0.749963
	Zn223	Zn	0.007615	0.500697	0.250515
	Zn224	Zn	0.507337	0.748300	0.000542
	Zn225	Zn	0.506719	0.251314	-0.000470
	Zn226	Zn	0.759226	0.000328	0.499333
	Zn227	Zn	0.255886	0.000315	0.501427
	N228	N	0.422940	0.962520	0.677923
	N229	N	0.591177	0.038920	0.676793
	N230	N	0.592413	0.962004	0.323074
	N231	N	0.424205	0.038003	0.324204
	N232	N	0.685660	0.413943	0.963109
	N233	N	0.683269	0.583944	0.038271
	N234	N	0.329979	0.585906	0.962809
	N235	N	0.329956	0.415328	0.037820
	N236	N	0.971690	0.681429	0.412930
	N237	N	0.043755	0.680297	0.587501
	N238	N	0.971531	0.319316	0.588986
	N239	N	0.044394	0.319474	0.413628
	N240	N	0.970495	0.415613	0.678296
	N241	N	0.045410	0.583740	0.676270
	N242	N	0.969870	0.584672	0.323992
	N243	N	0.046040	0.416547	0.323759
	N244	N	0.421718	0.678459	0.963216
	N245	N	0.593139	0.677526	0.037355
	N246	N	0.592465	0.322619	0.961936
	N247	N	0.421388	0.322226	0.037517
	N248	N	0.689765	0.964107	0.411449
	N249	N	0.688117	0.037321	0.586532
	N250	N	0.326708	0.963696	0.588512
	N251	N	0.326767	0.036473	0.413394
	N252	N	0.921889	0.463108	0.179677
	N253	N	0.090913	0.538121	0.176360
	N254	N	0.092317	0.462902	0.822926
	N255	N	0.924033	0.538401	0.824094
	N256	N	0.186574	0.913582	0.464076
	N257	N	0.184236	0.084800	0.538509
	N258	N	0.830476	0.085902	0.462088
	N259	N	0.829995	0.914630	0.537221
	N260	N	0.470525	0.181677	0.911598
	N261	N	0.543468	0.180346	0.086604
	N262	N	0.470983	0.819719	0.087884
	N263	N	0.543880	0.819223	0.913050
	N264	N	0.470200	0.915196	0.178454
	N265	N	0.545491	0.083348	0.175662
	N266	N	0.468856	0.084047	0.823630
	N267	N	0.544857	0.915392	0.822885
	N268	N	0.921213	0.179448	0.463304
	N269	N	0.092627	0.176795	0.538372
	N270	N	0.093610	0.822031	0.463424
	N271	N	0.923226	0.823227	0.537992
	N272	N	0.189197	0.464382	0.911956
	N273	N	0.187142	0.536535	0.086789
	N274	N	0.825679	0.463662	0.089337
	N275	N	0.827267	0.536668	0.913944
	O276	O	0.017469	-0.006315	0.002780
	H277	H	0.023353	-0.006749	0.001764
	H278	H	0.005181	0.002804	0.007637
	O279	O	0.454901	0.464161	0.485392
	H280	H	0.451222	0.458959	0.494610
	H281	H	0.463579	0.467159	0.481983
	O282	O	0.547459	0.596976	0.564016
	H283	H	0.547186	0.605997	0.575461
	H284	H	0.551343	0.591204	0.555877
	O285	O	1.002107	0.025215	0.993095
	H286	H	0.998588	0.031727	0.987349
	H287	H	1.015761	0.017133	0.988284
	O288	O	1.030090	0.039894	-0.016059
	H289	H	1.032999	0.044562	-0.017773
	H290	H	1.030381	0.034045	-0.024394
	O291	O	0.467303	0.542598	0.489914
	H292	H	0.456172	0.545151	0.494206
	H293	H	0.463965	0.537165	0.492034
	O294	O	0.940472	0.048976	1.002254
	H295	H	0.935685	0.052903	1.007740
	H296	H	0.941306	0.049951	1.006706
	O297	O	0.036711	0.066935	-0.012364
	H298	H	0.036492	0.070863	-0.015669
	H299	H	0.029838	0.069543	-0.013808
	O300	O	0.429868	0.572328	0.524416
	H301	H	0.433707	0.581361	0.528822
	H302	H	0.429937	0.574251	0.514737
	O303	O	0.481915	0.508428	0.456130
	H304	H	0.481395	0.510169	0.461335
	H305	H	0.471914	0.507921	0.460628
	O306	O	1.007739	0.019878	-0.000040
	H307	H	1.009522	0.026299	0.002719
	H308	H	1.001714	0.022569	-0.002726
	O309	O	0.056990	0.005455	1.044119
	H310	H	0.059807	0.003578	1.055364
	H311	H	0.051358	0.005799	1.038457
	O312	O	0.957436	0.977828	0.970718
	H313	H	0.965024	0.982437	0.964776
	H314	H	0.953738	0.984295	0.974910
	O315	O	0.518641	0.603719	0.470963
	H316	H	0.515506	0.599727	0.468672
	H317	H	0.530306	0.609570	0.479651
	O318	O	0.431209	0.450069	0.486111
	H319	H	0.423243	0.445774	0.489432
	H320	H	0.432426	0.453869	0.477886
	O321	O	-0.007864	1.113561	1.032924
	H322	H	-0.002806	1.121686	1.032175
	H323	H	-0.002278	1.111863	1.038975
	O324	O	0.543860	0.449225	0.471013
	H325	H	0.538526	0.456739	0.462087
	H326	H	0.533227	0.446170	0.466497
	O327	O	0.532012	0.503235	0.561355
	H328	H	0.529677	0.497015	0.556193
	H329	H	0.534711	0.501801	0.561499
	O330	O	0.449699	0.463513	0.532074
	H331	H	0.455579	0.474439	0.526167
	H332	H	0.455986	0.457126	0.532016
	O333	O	0.545334	0.419133	0.386108
	H334	H	0.550358	0.424171	0.380865
	H335	H	0.561423	0.412522	0.379552
	O336	O	0.620533	0.372565	0.465674
	H337	H	0.628439	0.358566	0.475844
	H338	H	0.612393	0.377081	0.468016
	O339	O	0.963544	0.941369	-0.011215
	H340	H	0.950843	0.927904	-0.010203
	H341	H	0.965819	0.939602	-0.020031
	O342	O	0.553892	0.586435	0.444731
	H343	H	0.542124	0.585554	0.448444
	H344	H	0.560440	0.578001	0.429354
	O345	O	0.534138	0.480119	0.512375
	H346	H	0.536623	0.481282	0.517683
	H347	H	0.534525	0.489267	0.519213
	O348	O	0.036570	0.073325	-0.016718
	H349	H	0.040614	0.067066	-0.009991
	H350	H	0.034349	0.073909	-0.016614
	O351	O	0.008304	1.026697	0.957530
	H352	H	0.004766	1.037988	0.968103
	H353	H	0.007803	1.022543	0.959051
	O354	O	0.518925	0.462816	0.503801
	H355	H	0.509142	0.466783	0.510101
	H356	H	0.524926	0.462996	0.497769
	O357	O	-0.461356	1.481928	0.594163
	H358	H	-0.463979	1.478168	0.587719
	H359	H	-0.458077	1.477552	0.596251
