data_Molecule from HDF5

_cell_length_a		16.358783
_cell_length_b		16.394249
_cell_length_c		16.080089
_cell_angle_alpha	90.124545
_cell_angle_beta	89.623705
_cell_angle_gamma	89.566888
_symmetry_space_group_name_H-M	'P 1'
_symmetry_Int_Tables_number		1

loop_
	_symmetry_equiv_pos_as_xyz
	x,y,z

loop_
	_atom_site_label
	_atom_site_type_symbol
	_atom_site_fract_x
	_atom_site_fract_y
	_atom_site_fract_z
	H0	H	0.395199	0.836066	0.709191
	H1	H	0.586028	0.162560	0.708958
	H2	H	0.593028	0.835788	0.281539
	H3	H	0.394832	0.161411	0.281041
	H4	H	0.713530	0.395727	0.830658
	H5	H	0.704247	0.594867	0.161671
	H6	H	0.280574	0.597838	0.830789
	H7	H	0.279369	0.398184	0.159668
	H8	H	0.832700	0.719559	0.394787
	H9	H	0.155719	0.720836	0.598687
	H10	H	0.831810	0.285314	0.599946
	H11	H	0.155014	0.280426	0.390679
	H12	H	0.832459	0.405470	0.712794
	H13	H	0.159139	0.597932	0.707870
	H14	H	0.831303	0.599938	0.282822
	H15	H	0.158382	0.403682	0.282022
	H16	H	0.394922	0.713122	0.831141
	H17	H	0.594106	0.713095	0.158991
	H18	H	0.597296	0.281138	0.830209
	H19	H	0.395342	0.285505	0.160244
	H20	H	0.714879	0.840061	0.391009
	H21	H	0.706734	0.162239	0.596964
	H22	H	0.273968	0.838783	0.598078
	H23	H	0.274858	0.161225	0.392986
	H24	H	0.898433	0.336988	0.212266
	H25	H	0.090437	0.663688	0.207986
	H26	H	0.096438	0.338319	0.777022
	H27	H	0.898248	0.664065	0.784985
	H28	H	0.209273	0.900622	0.331123
	H29	H	0.205968	0.100842	0.660214
	H30	H	0.778671	0.101828	0.329732
	H31	H	0.778681	0.904443	0.660102
	H32	H	0.332616	0.218197	0.894514
	H33	H	0.655923	0.214057	0.096724
	H34	H	0.332813	0.780304	0.098664
	H35	H	0.655901	0.780093	0.892460
	H36	H	0.330222	0.901964	0.210529
	H37	H	0.657304	0.093013	0.208769
	H38	H	0.328224	0.095009	0.786682
	H39	H	0.655681	0.899572	0.779133
	H40	H	0.894567	0.215686	0.329909
	H41	H	0.089326	0.214090	0.660722
	H42	H	0.095041	0.785350	0.331347
	H43	H	0.892728	0.788256	0.660323
	H44	H	0.214746	0.337552	0.890653
	H45	H	0.212017	0.660142	0.097704
	H46	H	0.779269	0.336434	0.098893
	H47	H	0.775637	0.659943	0.894791
	H48	H	0.400676	0.116038	0.595226
	H49	H	0.590758	0.884719	0.582761
	H50	H	0.589166	0.113889	0.409210
	H51	H	0.395307	0.883908	0.407463
	H52	H	0.591987	0.400098	0.115381
	H53	H	0.585588	0.584170	0.878635
	H54	H	0.398337	0.580448	0.112012
	H55	H	0.399207	0.417415	0.878398
	H56	H	0.110415	0.597704	0.406269
	H57	H	0.879926	0.592009	0.590516
	H58	H	0.109268	0.398296	0.575924
	H59	H	0.877650	0.409517	0.400613
	H60	H	0.105746	0.416346	0.581563
	H61	H	0.877598	0.600135	0.592744
	H62	H	0.109065	0.591935	0.404506
	H63	H	0.877983	0.404408	0.407524
	H64	H	0.412815	0.589871	0.109619
	H65	H	0.584074	0.591360	0.877489
	H66	H	0.589309	0.412340	0.110825
	H67	H	0.416845	0.406686	0.881042
	H68	H	0.588008	0.117878	0.397124
	H69	H	0.588629	0.883024	0.589525
	H70	H	0.400345	0.112425	0.583686
	H71	H	0.401316	0.882417	0.400177
	H72	H	0.898300	0.612095	0.080971
	H73	H	0.087533	0.384115	0.088958
	H74	H	0.086781	0.612602	0.910330
	H75	H	0.906257	0.386485	0.908619
	H76	H	0.086574	0.909217	0.614396
	H77	H	0.082664	0.097813	0.376289
	H78	H	0.893883	0.091856	0.613601
	H79	H	0.911327	0.920305	0.383810
	H80	H	0.609390	0.090567	0.901966
	H81	H	0.377103	0.096048	0.090028
	H82	H	0.606867	0.907349	0.080655
	H83	H	0.378811	0.898649	0.913628
	H84	H	0.611001	0.906144	0.093021
	H85	H	0.379131	0.093493	0.083583
	H86	H	0.608876	0.090048	0.904750
	H87	H	0.380628	0.914192	0.903588
	H88	H	0.902291	0.092109	0.611685
	H89	H	0.091124	0.089344	0.376332
	H90	H	0.082660	0.914633	0.611539
	H91	H	0.909553	0.895802	0.374561
	H92	H	0.095808	0.615807	0.903906
	H93	H	0.088535	0.385085	0.085315
	H94	H	0.890482	0.618082	0.092118
	H95	H	0.900026	0.382469	0.903449
	H96	H	0.390382	0.117114	0.589360
	H97	H	0.583723	0.886292	0.583971
	H98	H	0.578153	0.112758	0.403915
	H99	H	0.404116	0.886704	0.407586
	H100	H	0.579848	0.402904	0.111356
	H101	H	0.591528	0.588790	0.875364
	H102	H	0.398073	0.597323	0.116854
	H103	H	0.400183	0.397537	0.873105
	H104	H	0.111893	0.594512	0.399869
	H105	H	0.880555	0.597891	0.584241
	H106	H	0.113292	0.404241	0.594661
	H107	H	0.880885	0.412639	0.407738
	H108	H	0.903801	0.614959	0.094363
	H109	H	0.090549	0.383624	0.088021
	H110	H	0.085402	0.614816	0.899229
	H111	H	0.908453	0.384844	0.900579
	H112	H	0.079988	0.907994	0.612992
	H113	H	0.079903	0.086314	0.380440
	H114	H	0.897958	0.098868	0.614244
	H115	H	0.888805	0.911683	0.373073
	H116	H	0.607753	0.088163	0.902591
	H117	H	0.379750	0.089220	0.089318
	H118	H	0.610747	0.896492	0.084620
	H119	H	0.372932	0.898936	0.895947
	C120	C	0.368938	0.008201	0.618382
	C121	C	0.614647	0.991554	0.616463
	C122	C	0.615503	0.007802	0.373350
	C123	C	0.371272	0.991197	0.374907
	C124	C	0.617454	0.375429	0.003721
	C125	C	0.615049	0.617525	0.986478
	C126	C	0.373652	0.618986	0.004183
	C127	C	0.375192	0.377959	0.986478
	C128	C	0.002721	0.623523	0.374554
	C129	C	0.986740	0.624509	0.617854
	C130	C	0.002474	0.379045	0.615992
	C131	C	0.985934	0.378882	0.374302
	C132	C	0.871268	0.507503	0.118486
	C133	C	0.117050	0.491517	0.116860
	C134	C	0.119038	0.507802	0.873096
	C135	C	0.874657	0.491369	0.874945
	C136	C	0.114051	0.880595	0.504572
	C137	C	0.113069	0.120952	0.486723
	C138	C	0.870307	0.123247	0.503777
	C139	C	0.873123	0.880998	0.486242
	C140	C	0.501360	0.119606	0.874332
	C141	C	0.485645	0.120537	0.117178
	C142	C	0.502249	0.875586	0.116674
	C143	C	0.484722	0.874899	0.873209
	C144	C	0.373089	0.885235	0.672606
	C145	C	0.608777	0.113793	0.672242
	C146	C	0.614009	0.885310	0.318060
	C147	C	0.373726	0.112982	0.318885
	C148	C	0.674991	0.375639	0.879855
	C149	C	0.668228	0.615103	0.111487
	C150	C	0.318174	0.617916	0.880267
	C151	C	0.318196	0.379054	0.110597
	C152	C	0.880996	0.680380	0.375497
	C153	C	0.108263	0.680838	0.617162
	C154	C	0.880563	0.323664	0.618184
	C155	C	0.107192	0.320578	0.372882
	C156	C	0.880456	0.383707	0.674016
	C157	C	0.109938	0.619904	0.671523
	C158	C	0.880362	0.620907	0.319412
	C159	C	0.108925	0.381777	0.318604
	C160	C	0.375159	0.675054	0.880376
	C161	C	0.613307	0.674123	0.110284
	C162	C	0.617140	0.318969	0.879735
	C163	C	0.375693	0.322916	0.110857
	C164	C	0.674374	0.887211	0.372876
	C165	C	0.668529	0.113713	0.616001
	C166	C	0.313019	0.886707	0.617324
	C167	C	0.314337	0.112968	0.374873
	C168	C	0.876593	0.385296	0.174260
	C169	C	0.112523	0.614221	0.171442
	C170	C	0.117045	0.386358	0.815508
	C171	C	0.877169	0.614599	0.821420
	C172	C	0.170981	0.881147	0.380346
	C173	C	0.168024	0.120114	0.610770
	C174	C	0.816057	0.121563	0.379418
	C175	C	0.816843	0.883963	0.610770
	C176	C	0.380262	0.178099	0.875422
	C177	C	0.607788	0.175350	0.116072
	C178	C	0.380641	0.819704	0.117182
	C179	C	0.607166	0.818808	0.873297
	C180	C	0.379334	0.879928	0.172929
	C181	C	0.608200	0.115891	0.172321
	C182	C	0.378047	0.116623	0.821811
	C183	C	0.607096	0.878091	0.816878
	C184	C	0.873348	0.178511	0.379499
	C185	C	0.110185	0.176624	0.611085
	C186	C	0.114265	0.823875	0.380453
	C187	C	0.873217	0.826140	0.610880
	C188	C	0.175531	0.386050	0.872398
	C189	C	0.172913	0.612572	0.116283
	C190	C	0.817504	0.385077	0.117750
	C191	C	0.815970	0.612495	0.875868
	C192	C	0.390712	0.093039	0.596079
	C193	C	0.593771	0.906622	0.592495
	C194	C	0.591752	0.092966	0.396613
	C195	C	0.393895	0.906260	0.398163
	C196	C	0.594101	0.398376	0.090089
	C197	C	0.593233	0.594853	0.899753
	C198	C	0.396281	0.595968	0.090555
	C199	C	0.398489	0.400535	0.899971
	C200	C	0.088233	0.601148	0.396963
	C201	C	0.901488	0.602882	0.595843
	C202	C	0.087305	0.400186	0.591369
	C203	C	0.900799	0.402171	0.398389
	C204	C	0.891424	0.592961	0.095852
	C205	C	0.095379	0.406221	0.093961
	C206	C	0.096122	0.592584	0.897479
	C207	C	0.898285	0.406554	0.897461
	C208	C	0.090078	0.903784	0.590641
	C209	C	0.090959	0.097995	0.400025
	C210	C	0.891745	0.100994	0.590673
	C211	C	0.896442	0.902796	0.399729
	C212	C	0.586763	0.096225	0.896491
	C213	C	0.400552	0.099284	0.094427
	C214	C	0.587485	0.896954	0.093155
	C215	C	0.399312	0.897269	0.897324
	Zn216	Zn	0.492158	-0.001677	0.745648
	Zn217	Zn	0.493149	-0.001711	0.245762
	Zn218	Zn	0.743655	0.497644	-0.004481
	Zn219	Zn	0.246989	0.497976	-0.004186
	Zn220	Zn	-0.005852	0.753016	0.496128
	Zn221	Zn	-0.007349	0.249222	0.494817
	Zn222	Zn	-0.003847	0.501188	0.745380
	Zn223	Zn	-0.005263	0.500667	0.245969
	Zn224	Zn	0.494550	0.746136	-0.004730
	Zn225	Zn	0.494638	0.249561	-0.004814
	Zn226	Zn	0.744260	0.000980	0.494508
	Zn227	Zn	0.241446	0.000645	0.495885
	N228	N	0.407164	0.961600	0.673539
	N229	N	0.575933	0.036832	0.672609
	N230	N	0.578002	0.961364	0.318211
	N231	N	0.408655	0.036343	0.318801
	N232	N	0.675275	0.409978	0.957870
	N233	N	0.669464	0.580507	0.033404
	N234	N	0.317199	0.583836	0.958292
	N235	N	0.317821	0.412674	0.032272
	N236	N	0.958104	0.682079	0.409014
	N237	N	0.030710	0.683788	0.584420
	N238	N	0.957276	0.320666	0.582689
	N239	N	0.029664	0.318647	0.406687
	N240	N	0.957225	0.417236	0.672932
	N241	N	0.033498	0.585524	0.672129
	N242	N	0.957198	0.586134	0.318678
	N243	N	0.032489	0.417471	0.319614
	N244	N	0.408835	0.675984	0.958615
	N245	N	0.580804	0.675483	0.031700
	N246	N	0.582207	0.318475	0.957855
	N247	N	0.410598	0.322168	0.032818
	N248	N	0.675156	0.964503	0.406520
	N249	N	0.672271	0.036765	0.582036
	N250	N	0.310257	0.964008	0.584407
	N251	N	0.312901	0.036152	0.409095
	N252	N	0.909229	0.462372	0.174947
	N253	N	0.078430	0.537829	0.171812
	N254	N	0.082462	0.463028	0.815842
	N255	N	0.912921	0.538285	0.820620
	N256	N	0.170793	0.915785	0.458337
	N257	N	0.169885	0.086249	0.532478
	N258	N	0.813905	0.088048	0.457699
	N259	N	0.816461	0.917235	0.532226
	N260	N	0.458028	0.179980	0.907401
	N261	N	0.530649	0.178416	0.082632
	N262	N	0.458015	0.817051	0.083124
	N263	N	0.529879	0.816724	0.907527
	N264	N	0.455959	0.913968	0.172925
	N265	N	0.531360	0.082215	0.173067
	N266	N	0.454434	0.080850	0.821067
	N267	N	0.529983	0.912169	0.816683
	N268	N	0.906092	0.179748	0.457993
	N269	N	0.076655	0.177144	0.532813
	N270	N	0.079584	0.823373	0.458599
	N271	N	0.907691	0.824343	0.532706
	N272	N	0.176976	0.462588	0.907332
	N273	N	0.175802	0.535090	0.083148
	N274	N	0.813923	0.462072	0.083924
	N275	N	0.814274	0.534940	0.908337
	O276	O	0.007954	0.033049	0.010896
	H277	H	0.009090	0.040372	0.019674
	H278	H	0.003398	0.025237	0.024006
	O279	O	0.504035	0.519284	0.496295
	H280	H	0.498333	0.514637	0.498930
	H281	H	0.505507	0.520236	0.509637
	O282	O	0.518889	0.421277	0.570154
	H283	H	0.527198	0.424113	0.582800
	H284	H	0.534116	0.397144	0.559544
	O285	O	0.020936	0.933063	1.006140
	H286	H	0.023944	0.926029	1.001858
	H287	H	0.022023	0.930873	0.999188
	O288	O	0.380097	0.533403	0.447625
	H289	H	0.379255	0.529417	0.454931
	H290	H	0.380638	0.535905	0.451860
	O291	O	0.908333	1.039259	0.865270
	H292	H	0.922681	1.040649	0.852741
	H293	H	0.914356	1.041390	0.878478
	O294	O	1.028696	0.948190	0.941716
	H295	H	1.021951	0.945271	0.946095
	H296	H	1.022852	0.963463	0.941191
	O297	O	1.048402	-0.066660	0.967787
	H298	H	1.053760	-0.068388	0.958640
	H299	H	1.061004	-0.057345	0.964116
	O300	O	0.537872	0.490449	0.364402
	H301	H	0.530413	0.485242	0.358792
	H302	H	0.533748	0.489962	0.373150
	O303	O	0.972041	0.038337	0.043425
	H304	H	0.968868	0.038731	0.048502
	H305	H	0.968226	0.035364	0.041068
	O306	O	-0.029562	1.016319	0.979857
	H307	H	-0.036184	1.015879	0.984610
	H308	H	-0.020937	1.015053	0.966555
	O309	O	0.501109	0.514567	0.504328
	H310	H	0.487545	0.520473	0.511589
	H311	H	0.510885	0.507575	0.504240
	O312	O	1.459618	0.467788	1.558621
	H313	H	1.457639	0.473672	1.562054
	H314	H	1.468601	0.470969	1.561272
	O315	O	0.433839	0.459951	0.416754
	H316	H	0.437073	0.448308	0.420053
	H317	H	0.423912	0.457781	0.418091
	O318	O	0.500714	0.442140	0.440398
	H319	H	0.487189	0.450331	0.453463
	H320	H	0.496026	0.442072	0.434698
	O321	O	0.879553	0.966244	0.923235
	H322	H	0.887406	0.973710	0.925508
	H323	H	0.868548	0.964049	0.915629
	O324	O	0.460008	0.496912	0.413427
	H325	H	0.456978	0.510186	0.417687
	H326	H	0.465811	0.497421	0.421832
	O327	O	0.527730	0.432491	0.604450
	H328	H	0.535172	0.431885	0.589052
	H329	H	0.537946	0.432567	0.608280
	O330	O	0.873224	-0.004836	0.946327
	H331	H	0.870201	-0.009422	0.925303
	H332	H	0.875871	-0.004835	0.954197
	O333	O	1.073495	0.975078	-0.103474
	H334	H	1.071830	0.971208	-0.099211
	H335	H	1.082268	0.969838	-0.104587
	O336	O	0.454900	0.626770	0.372622
	H337	H	0.454102	0.642582	0.370889
	H338	H	0.456289	0.628087	0.371015
	O339	O	0.504454	0.482272	0.488929
	H340	H	0.493965	0.486055	0.468612
	H341	H	0.515485	0.477980	0.488384
	O342	O	-0.046152	1.014300	-0.014091
	H343	H	-0.049460	1.014270	-0.017486
	H344	H	-0.049373	1.014453	-0.029786
	O345	O	-0.028266	0.073720	0.078205
	H346	H	-0.040861	0.070251	0.080519
	H347	H	-0.028570	0.071223	0.077690
	O348	O	0.576751	0.646045	0.588800
	H349	H	0.591054	0.638300	0.587709
	H350	H	0.577801	0.650812	0.594768
	O351	O	0.538026	0.605497	0.527012
	H352	H	0.526549	0.607309	0.527009
	H353	H	0.536924	0.600915	0.517831
	O354	O	0.549940	0.449193	0.488784
	H355	H	0.557008	0.448558	0.481833
	H356	H	0.552258	0.451112	0.484224
	O357	O	0.529762	0.567995	0.601314
	H358	H	0.530248	0.548373	0.602109
	H359	H	0.521551	0.576343	0.585655
	O360	O	0.003751	-0.033878	0.037880
	H361	H	0.007270	-0.040429	0.034002
	H362	H	0.000518	-0.037388	0.039868
	O363	O	0.543510	0.442459	0.438636
	H364	H	0.557668	0.440686	0.427306
	H365	H	0.539460	0.439604	0.431587
	O366	O	0.060559	0.002417	0.997288
	H367	H	0.059007	-0.000528	1.004821
	H368	H	0.053574	0.005509	0.996589
	O369	O	0.588046	0.373982	0.548848
	H370	H	0.582104	0.375407	0.539158
	H371	H	0.588729	0.368026	0.540059
