data_Molecule from HDF5

_cell_length_a		16.330030
_cell_length_b		16.312217
_cell_length_c		16.343134
_cell_angle_alpha	89.991954
_cell_angle_beta	90.016977
_cell_angle_gamma	90.065428
_symmetry_space_group_name_H-M	'P 1'
_symmetry_Int_Tables_number		1

loop_
	_symmetry_equiv_pos_as_xyz
	x,y,z

loop_
	_atom_site_label
	_atom_site_type_symbol
	_atom_site_fract_x
	_atom_site_fract_y
	_atom_site_fract_z
	H0	H	0.398143	0.842709	0.713698
	H1	H	0.596259	0.169569	0.712531
	H2	H	0.595404	0.842569	0.283010
	H3	H	0.399053	0.169298	0.283384
	H4	H	0.711197	0.406774	0.835749
	H5	H	0.712863	0.605865	0.161668
	H6	H	0.282817	0.603492	0.835259
	H7	H	0.282887	0.408583	0.162610
	H8	H	0.834333	0.720783	0.399167
	H9	H	0.161200	0.720125	0.595471
	H10	H	0.833590	0.292642	0.594798
	H11	H	0.160838	0.291866	0.400035
	H12	H	0.833645	0.407742	0.712430
	H13	H	0.160318	0.605102	0.713472
	H14	H	0.834241	0.604167	0.283238
	H15	H	0.160320	0.407873	0.283184
	H16	H	0.398632	0.720636	0.835755
	H17	H	0.595085	0.720250	0.162283
	H18	H	0.594164	0.291535	0.836050
	H19	H	0.397832	0.290707	0.162101
	H20	H	0.710618	0.841888	0.400608
	H21	H	0.711045	0.169567	0.596039
	H22	H	0.282431	0.842382	0.596467
	H23	H	0.282286	0.169237	0.399179
	H24	H	0.899038	0.343151	0.212622
	H25	H	0.095449	0.669746	0.212495
	H26	H	0.093381	0.341550	0.785389
	H27	H	0.899171	0.670356	0.784483
	H28	H	0.211247	0.907969	0.335135
	H29	H	0.212938	0.104928	0.660535
	H30	H	0.784448	0.102793	0.334718
	H31	H	0.781716	0.906047	0.661219
	H32	H	0.333671	0.220340	0.899733
	H33	H	0.660683	0.220493	0.095682
	H34	H	0.333910	0.791112	0.097134
	H35	H	0.660778	0.791480	0.899989
	H36	H	0.333930	0.908126	0.212556
	H37	H	0.660809	0.104070	0.211988
	H38	H	0.334830	0.105370	0.782046
	H39	H	0.660753	0.908760	0.784161
	H40	H	0.900432	0.219381	0.335180
	H41	H	0.096406	0.221414	0.661402
	H42	H	0.093953	0.792961	0.334279
	H43	H	0.899720	0.791025	0.660715
	H44	H	0.210653	0.341532	0.901381
	H45	H	0.211322	0.669669	0.095707
	H46	H	0.782027	0.342971	0.096730
	H47	H	0.783024	0.670055	0.900711
	H48	H	0.406813	0.121060	0.590805
	H49	H	0.581177	0.891421	0.596630
	H50	H	0.583652	0.119041	0.409520
	H51	H	0.403881	0.891383	0.409864
	H52	H	0.591015	0.412828	0.114412
	H53	H	0.588267	0.600029	0.883287
	H54	H	0.401878	0.599278	0.115132
	H55	H	0.407839	0.411361	0.883565
	H56	H	0.110917	0.597375	0.410553
	H57	H	0.884152	0.595644	0.588594
	H58	H	0.113765	0.417400	0.596445
	H59	H	0.879109	0.408234	0.401054
	H60	H	0.115398	0.406591	0.593834
	H61	H	0.880590	0.597919	0.595406
	H62	H	0.113730	0.595189	0.400194
	H63	H	0.882844	0.411816	0.409788
	H64	H	0.404021	0.598030	0.113822
	H65	H	0.590741	0.599331	0.883214
	H66	H	0.590039	0.413252	0.114908
	H67	H	0.400226	0.410021	0.881767
	H68	H	0.598221	0.122701	0.408264
	H69	H	0.590291	0.892839	0.581150
	H70	H	0.403902	0.121217	0.589083
	H71	H	0.399704	0.888404	0.403073
	H72	H	0.907720	0.623692	0.099947
	H73	H	0.096391	0.390738	0.083056
	H74	H	0.092232	0.621615	0.905519
	H75	H	0.901787	0.392297	0.913720
	H76	H	0.087439	0.908842	0.613785
	H77	H	0.090341	0.101104	0.381710
	H78	H	0.903574	0.096723	0.613792
	H79	H	0.899732	0.907571	0.379555
	H80	H	0.613044	0.098737	0.904427
	H81	H	0.382165	0.096668	0.092496
	H82	H	0.610392	0.911020	0.080567
	H83	H	0.382329	0.914883	0.906653
	H84	H	0.612102	0.922778	0.097251
	H85	H	0.380269	0.101499	0.093785
	H86	H	0.613014	0.100273	0.904050
	H87	H	0.380645	0.913105	0.903032
	H88	H	0.906089	0.101735	0.614653
	H89	H	0.091257	0.099808	0.381855
	H90	H	0.094934	0.911992	0.615476
	H91	H	0.899909	0.918424	0.382641
	H92	H	0.091926	0.622815	0.902818
	H93	H	0.093311	0.386435	0.099833
	H94	H	0.911183	0.617720	0.083361
	H95	H	0.895715	0.386680	0.899370
	H96	H	0.403737	0.121809	0.592046
	H97	H	0.598054	0.886315	0.596120
	H98	H	0.589441	0.124288	0.396541
	H99	H	0.408344	0.890044	0.402638
	H100	H	0.590023	0.412550	0.114766
	H101	H	0.589079	0.597911	0.883890
	H102	H	0.404161	0.600624	0.115355
	H103	H	0.402171	0.417015	0.884426
	H104	H	0.115266	0.604870	0.404737
	H105	H	0.881186	0.602685	0.589852
	H106	H	0.111273	0.414005	0.586196
	H107	H	0.882494	0.417838	0.401825
	H108	H	0.894939	0.624606	0.087630
	H109	H	0.080308	0.393472	0.090289
	H110	H	0.089924	0.621767	0.904159
	H111	H	0.911900	0.391380	0.900866
	H112	H	0.088333	0.917292	0.613487
	H113	H	0.090103	0.099438	0.382525
	H114	H	0.900661	0.101073	0.615640
	H115	H	0.909525	0.912313	0.383458
	H116	H	0.613396	0.099925	0.905390
	H117	H	0.381280	0.100198	0.088531
	H118	H	0.617673	0.903695	0.097777
	H119	H	0.381550	0.910689	0.906295
	C120	C	0.375821	0.013732	0.619653
	C121	C	0.618710	0.998127	0.619788
	C122	C	0.618777	0.013854	0.376381
	C123	C	0.375640	0.997898	0.376673
	C124	C	0.618086	0.384596	0.007042
	C125	C	0.618550	0.627717	0.991026
	C126	C	0.375289	0.627570	0.006870
	C127	C	0.374827	0.384238	0.990946
	C128	C	0.005268	0.627464	0.376567
	C129	C	0.989575	0.627637	0.620054
	C130	C	0.005383	0.384492	0.619714
	C131	C	0.989159	0.384283	0.376119
	C132	C	0.875893	0.514381	0.119312
	C133	C	0.118251	0.497873	0.119449
	C134	C	0.118899	0.513779	0.876697
	C135	C	0.874706	0.498301	0.876376
	C136	C	0.118516	0.884602	0.506333
	C137	C	0.119115	0.128371	0.489711
	C138	C	0.875837	0.127297	0.506774
	C139	C	0.875084	0.884196	0.489781
	C140	C	0.505339	0.127903	0.876257
	C141	C	0.489311	0.127554	0.119687
	C142	C	0.505421	0.884517	0.120075
	C143	C	0.489211	0.884511	0.876912
	C144	C	0.377822	0.891150	0.675259
	C145	C	0.616356	0.120607	0.674639
	C146	C	0.615532	0.891107	0.321406
	C147	C	0.378294	0.120702	0.321234
	C148	C	0.673178	0.386796	0.884497
	C149	C	0.674447	0.625611	0.113206
	C150	C	0.320638	0.624224	0.884067
	C151	C	0.320334	0.387335	0.113793
	C152	C	0.882785	0.682511	0.378916
	C153	C	0.112216	0.682464	0.616581
	C154	C	0.882447	0.330054	0.615995
	C155	C	0.111890	0.329388	0.378949
	C156	C	0.882234	0.387401	0.674037
	C157	C	0.111929	0.625442	0.675304
	C158	C	0.882996	0.625005	0.320904
	C159	C	0.111795	0.387151	0.321090
	C160	C	0.377966	0.682424	0.884252
	C161	C	0.616079	0.682790	0.113541
	C162	C	0.614911	0.329623	0.884366
	C163	C	0.377589	0.329145	0.113732
	C164	C	0.673263	0.891011	0.379271
	C165	C	0.673835	0.120633	0.616962
	C166	C	0.320272	0.891144	0.617124
	C167	C	0.320592	0.120600	0.378995
	C168	C	0.878322	0.391615	0.174658
	C169	C	0.116163	0.621049	0.174461
	C170	C	0.114992	0.390521	0.822511
	C171	C	0.878532	0.621320	0.822121
	C172	C	0.173170	0.887353	0.383579
	C173	C	0.174256	0.125156	0.612367
	C174	C	0.821985	0.123570	0.383449
	C175	C	0.819882	0.886359	0.612469
	C176	C	0.382497	0.182638	0.879054
	C177	C	0.612024	0.182785	0.116722
	C178	C	0.382518	0.829684	0.117121
	C179	C	0.612072	0.829581	0.879524
	C180	C	0.382553	0.887674	0.174580
	C181	C	0.612131	0.124968	0.174343
	C182	C	0.382903	0.125404	0.820623
	C183	C	0.612143	0.887881	0.822106
	C184	C	0.879648	0.181468	0.383648
	C185	C	0.116884	0.183203	0.612649
	C186	C	0.115146	0.830094	0.383367
	C187	C	0.878312	0.828909	0.612394
	C188	C	0.173170	0.390452	0.880079
	C189	C	0.173569	0.621111	0.116445
	C190	C	0.820510	0.391549	0.116933
	C191	C	0.820714	0.621277	0.879824
	C192	C	0.398278	0.099279	0.597357
	C193	C	0.596400	0.912201	0.597806
	C194	C	0.596900	0.099973	0.398386
	C195	C	0.397584	0.912240	0.398620
	C196	C	0.596571	0.406362	0.092703
	C197	C	0.596087	0.605520	0.905389
	C198	C	0.396933	0.605788	0.092710
	C199	C	0.396884	0.406233	0.905352
	C200	C	0.091218	0.605575	0.398749
	C201	C	0.903935	0.605276	0.597776
	C202	C	0.091225	0.406237	0.598562
	C203	C	0.903426	0.406002	0.397911
	C204	C	0.898186	0.599844	0.097056
	C205	C	0.096390	0.412464	0.097638
	C206	C	0.097705	0.599813	0.897932
	C207	C	0.896617	0.412243	0.898169
	C208	C	0.096785	0.906339	0.592210
	C209	C	0.097134	0.106532	0.404125
	C210	C	0.897030	0.105924	0.592589
	C211	C	0.896692	0.906158	0.404139
	C212	C	0.590988	0.106293	0.898225
	C213	C	0.403478	0.105763	0.098025
	C214	C	0.591307	0.906050	0.098118
	C215	C	0.403568	0.906247	0.899014
	Zn216	Zn	0.497192	0.005870	0.748008
	Zn217	Zn	0.497271	0.006366	0.248278
	Zn218	Zn	0.746625	0.506327	-0.001376
	Zn219	Zn	0.246869	0.505720	-0.001364
	Zn220	Zn	-0.002547	0.756047	0.497843
	Zn221	Zn	-0.002712	0.256154	0.498499
	Zn222	Zn	-0.002917	0.506035	0.748123
	Zn223	Zn	-0.002627	0.506269	0.248185
	Zn224	Zn	0.497382	0.756285	-0.001352
	Zn225	Zn	0.496498	0.256127	-0.001150
	Zn226	Zn	0.746515	0.005828	0.498164
	Zn227	Zn	0.246789	0.005721	0.498006
	N228	N	0.411610	0.968402	0.676917
	N229	N	0.582777	0.043162	0.676402
	N230	N	0.582786	0.968823	0.319285
	N231	N	0.411953	0.043423	0.319788
	N232	N	0.675024	0.420503	0.961639
	N233	N	0.676105	0.592378	0.035823
	N234	N	0.318831	0.590891	0.961429
	N235	N	0.318891	0.421114	0.036676
	N236	N	0.960123	0.684287	0.412699
	N237	N	0.034961	0.683881	0.582840
	N238	N	0.960022	0.328121	0.583070
	N239	N	0.034746	0.327663	0.412569
	N240	N	0.959628	0.420461	0.676562
	N241	N	0.034584	0.592187	0.677500
	N242	N	0.960209	0.591488	0.319639
	N243	N	0.034495	0.420590	0.319299
	N244	N	0.411230	0.684706	0.961621
	N245	N	0.581786	0.683942	0.036628
	N246	N	0.581139	0.328261	0.961407
	N247	N	0.410749	0.326995	0.036367
	N248	N	0.674917	0.968229	0.412975
	N249	N	0.675161	0.043385	0.583296
	N250	N	0.319117	0.968255	0.583134
	N251	N	0.318863	0.043325	0.412820
	N252	N	0.912364	0.468803	0.175988
	N253	N	0.082653	0.543655	0.176580
	N254	N	0.081939	0.468107	0.820288
	N255	N	0.911442	0.543624	0.819903
	N256	N	0.175148	0.920601	0.460816
	N257	N	0.175834	0.091745	0.535001
	N258	N	0.819593	0.090383	0.460816
	N259	N	0.817681	0.919726	0.535064
	N260	N	0.459611	0.184265	0.913068
	N261	N	0.534702	0.184561	0.083416
	N262	N	0.459994	0.827617	0.084004
	N263	N	0.534763	0.827572	0.912832
	N264	N	0.459799	0.921329	0.176159
	N265	N	0.534809	0.091297	0.176107
	N266	N	0.460195	0.092087	0.818821
	N267	N	0.534763	0.921283	0.820331
	N268	N	0.912224	0.183939	0.461258
	N269	N	0.082945	0.184973	0.535691
	N270	N	0.081544	0.828496	0.460723
	N271	N	0.911918	0.827485	0.535306
	N272	N	0.175861	0.468099	0.912847
	N273	N	0.175223	0.543701	0.083113
	N274	N	0.818838	0.468751	0.083261
	N275	N	0.818287	0.543761	0.912880
	O276	O	1.496933	-0.469127	0.590768
	H277	H	1.487749	-0.474503	0.592754
	H278	H	1.502397	-0.466820	0.600248
	O279	O	0.474377	0.488474	0.610549
	H280	H	0.469477	0.481193	0.612427
	H281	H	0.481880	0.486697	0.605923
	O282	O	0.489974	0.524768	0.620400
	H283	H	0.486980	0.525503	0.628054
	H284	H	0.491259	0.524954	0.615563
	O285	O	0.488832	0.489154	0.588710
	H286	H	0.495383	0.484470	0.588334
	H287	H	0.485897	0.502576	0.590156
