data_Molecule from HDF5

_cell_length_a		16.326897
_cell_length_b		16.431321
_cell_length_c		16.440548
_cell_angle_alpha	89.886288
_cell_angle_beta	89.963972
_cell_angle_gamma	89.914084
_symmetry_space_group_name_H-M	'P 1'
_symmetry_Int_Tables_number		1

loop_
	_symmetry_equiv_pos_as_xyz
	x,y,z

loop_
	_atom_site_label
	_atom_site_type_symbol
	_atom_site_fract_x
	_atom_site_fract_y
	_atom_site_fract_z
	H0	H	0.399061	0.843127	0.724781
	H1	H	0.610589	0.160501	0.725698
	H2	H	0.611777	0.844659	0.281179
	H3	H	0.397857	0.161007	0.281691
	H4	H	0.723467	0.398445	0.843643
	H5	H	0.722187	0.602983	0.164039
	H6	H	0.282780	0.606119	0.844246
	H7	H	0.282332	0.397522	0.162187
	H8	H	0.843330	0.722847	0.399078
	H9	H	0.163452	0.720759	0.607038
	H10	H	0.842886	0.281467	0.608437
	H11	H	0.161691	0.278810	0.395307
	H12	H	0.842862	0.397770	0.724075
	H13	H	0.163007	0.605941	0.723532
	H14	H	0.841605	0.604830	0.285597
	H15	H	0.161858	0.394659	0.279895
	H16	H	0.397576	0.723680	0.845242
	H17	H	0.609683	0.722924	0.162234
	H18	H	0.608956	0.281350	0.844436
	H19	H	0.398084	0.281014	0.162262
	H20	H	0.725229	0.843721	0.399335
	H21	H	0.722896	0.161908	0.606152
	H22	H	0.283476	0.842846	0.608793
	H23	H	0.282337	0.161117	0.398741
	H24	H	0.898536	0.342870	0.225320
	H25	H	0.106753	0.661055	0.222863
	H26	H	0.109143	0.343469	0.782820
	H27	H	0.898928	0.662446	0.784519
	H28	H	0.222687	0.901194	0.343343
	H29	H	0.222071	0.103963	0.663913
	H30	H	0.783130	0.105862	0.344441
	H31	H	0.784574	0.899880	0.663641
	H32	H	0.342015	0.220866	0.899722
	H33	H	0.663788	0.220982	0.105033
	H34	H	0.343641	0.783305	0.107560
	H35	H	0.663540	0.780390	0.899276
	H36	H	0.343716	0.898640	0.223481
	H37	H	0.664259	0.105395	0.221972
	H38	H	0.342657	0.105009	0.784541
	H39	H	0.664005	0.897601	0.783678
	H40	H	0.898740	0.222755	0.344416
	H41	H	0.108562	0.223201	0.662449
	H42	H	0.108469	0.783305	0.343333
	H43	H	0.900699	0.783370	0.663034
	H44	H	0.222150	0.342360	0.901707
	H45	H	0.221564	0.661092	0.106071
	H46	H	0.784558	0.341009	0.107053
	H47	H	0.785020	0.662138	0.903350
	H48	H	0.417809	0.113104	0.591569
	H49	H	0.592759	0.886957	0.598714
	H50	H	0.588620	0.115534	0.409448
	H51	H	0.410632	0.888504	0.414415
	H52	H	0.599640	0.407572	0.119314
	H53	H	0.595383	0.585482	0.892478
	H54	H	0.408735	0.593439	0.118362
	H55	H	0.413936	0.417277	0.891045
	H56	H	0.115665	0.591363	0.415376
	H57	H	0.886159	0.599896	0.594104
	H58	H	0.116088	0.409870	0.587887
	H59	H	0.892950	0.417283	0.421727
	H60	H	0.114593	0.417840	0.592713
	H61	H	0.890944	0.591063	0.588520
	H62	H	0.117949	0.589301	0.409820
	H63	H	0.888646	0.417643	0.408215
	H64	H	0.413401	0.588014	0.115800
	H65	H	0.585930	0.592102	0.892366
	H66	H	0.592589	0.417451	0.114345
	H67	H	0.417422	0.408959	0.889947
	H68	H	0.590979	0.113813	0.417325
	H69	H	0.588357	0.891169	0.592036
	H70	H	0.409980	0.116507	0.591456
	H71	H	0.416559	0.888410	0.409080
	H72	H	0.916000	0.613338	0.091144
	H73	H	0.092737	0.389327	0.087905
	H74	H	0.094383	0.616614	0.913734
	H75	H	0.912081	0.387585	0.911259
	H76	H	0.098499	0.917232	0.616532
	H77	H	0.094106	0.089636	0.390297
	H78	H	0.910564	0.088990	0.617101
	H79	H	0.916086	0.911873	0.390602
	H80	H	0.619872	0.096977	0.912056
	H81	H	0.389526	0.095742	0.089989
	H82	H	0.617701	0.911390	0.090613
	H83	H	0.390735	0.915788	0.912730
	H84	H	0.616851	0.914517	0.092682
	H85	H	0.391369	0.086912	0.092117
	H86	H	0.614762	0.090966	0.920435
	H87	H	0.387638	0.909408	0.912560
	H88	H	0.917755	0.091991	0.615733
	H89	H	0.089025	0.090988	0.392876
	H90	H	0.085168	0.911844	0.613549
	H91	H	0.911978	0.911813	0.389649
	H92	H	0.090966	0.615941	0.910094
	H93	H	0.094127	0.386507	0.096188
	H94	H	0.908060	0.616236	0.092516
	H95	H	0.915439	0.388296	0.911368
	H96	H	0.414778	0.116316	0.598729
	H97	H	0.597364	0.888842	0.591306
	H98	H	0.596690	0.117169	0.412229
	H99	H	0.418318	0.890581	0.416321
	H100	H	0.587010	0.406238	0.116368
	H101	H	0.595785	0.596460	0.888450
	H102	H	0.416507	0.594651	0.117519
	H103	H	0.408669	0.409888	0.888523
	H104	H	0.119062	0.595537	0.411874
	H105	H	0.887431	0.589506	0.599532
	H106	H	0.118212	0.410731	0.596898
	H107	H	0.887941	0.405011	0.415705
	H108	H	0.913040	0.616233	0.099386
	H109	H	0.086187	0.390270	0.093344
	H110	H	0.089550	0.614386	0.914531
	H111	H	0.913330	0.388624	0.914444
	H112	H	0.095308	0.903470	0.620765
	H113	H	0.091656	0.094671	0.390167
	H114	H	0.912029	0.096108	0.618860
	H115	H	0.914482	0.915413	0.390515
	H116	H	0.616783	0.086129	0.910186
	H117	H	0.386664	0.092210	0.098499
	H118	H	0.619218	0.911272	0.094221
	H119	H	0.390975	0.912129	0.917960
	C120	C	0.382559	0.010329	0.625517
	C121	C	0.624899	0.993880	0.625567
	C122	C	0.625277	0.010823	0.381600
	C123	C	0.382577	0.994133	0.381746
	C124	C	0.625211	0.379501	0.011410
	C125	C	0.624333	0.622635	0.996006
	C126	C	0.381153	0.623793	0.012074
	C127	C	0.381497	0.380401	0.994983
	C128	C	0.011668	0.623431	0.381689
	C129	C	0.994497	0.623762	0.624879
	C130	C	0.010855	0.381023	0.624573
	C131	C	0.994831	0.380736	0.381971
	C132	C	0.881217	0.509683	0.125540
	C133	C	0.123402	0.493403	0.124645
	C134	C	0.124259	0.510641	0.881701
	C135	C	0.882038	0.493788	0.881919
	C136	C	0.125348	0.880012	0.511706
	C137	C	0.124451	0.123651	0.495601
	C138	C	0.881707	0.124002	0.512006
	C139	C	0.882410	0.881344	0.495306
	C140	C	0.511140	0.122934	0.882572
	C141	C	0.495154	0.123015	0.124466
	C142	C	0.512483	0.880626	0.124808
	C143	C	0.495506	0.880282	0.882547
	C144	C	0.380533	0.890907	0.685161
	C145	C	0.627744	0.113182	0.685285
	C146	C	0.629476	0.892099	0.321148
	C147	C	0.379818	0.113480	0.321701
	C148	C	0.684369	0.379216	0.891834
	C149	C	0.683084	0.622758	0.115908
	C150	C	0.321595	0.625390	0.892407
	C151	C	0.322096	0.378638	0.114633
	C152	C	0.891075	0.682999	0.380683
	C153	C	0.115111	0.682215	0.626131
	C154	C	0.890849	0.321204	0.626881
	C155	C	0.114153	0.319287	0.377982
	C156	C	0.890765	0.379308	0.684236
	C157	C	0.114879	0.624778	0.683973
	C158	C	0.890407	0.624366	0.323987
	C159	C	0.114114	0.377008	0.320377
	C160	C	0.379129	0.683652	0.892771
	C161	C	0.627045	0.682474	0.115096
	C162	C	0.627035	0.321054	0.891854
	C163	C	0.379878	0.320900	0.114710
	C164	C	0.685485	0.891498	0.380402
	C165	C	0.684185	0.113735	0.626125
	C166	C	0.323110	0.890726	0.627091
	C167	C	0.322322	0.113565	0.380009
	C168	C	0.880116	0.390171	0.185083
	C169	C	0.125443	0.613124	0.183631
	C170	C	0.126906	0.391129	0.822523
	C171	C	0.880516	0.614372	0.823866
	C172	C	0.183923	0.880972	0.391460
	C173	C	0.183071	0.123654	0.615687
	C174	C	0.822536	0.125157	0.392240
	C175	C	0.823854	0.880492	0.615638
	C176	C	0.390455	0.181836	0.881095
	C177	C	0.616082	0.181312	0.124275
	C178	C	0.391772	0.822225	0.126451
	C179	C	0.615722	0.820509	0.880806
	C180	C	0.392042	0.879638	0.184251
	C181	C	0.616036	0.123986	0.182630
	C182	C	0.390676	0.123720	0.823914
	C183	C	0.615923	0.878524	0.823198
	C184	C	0.879983	0.183384	0.392214
	C185	C	0.126668	0.183092	0.615045
	C186	C	0.126847	0.822233	0.391516
	C187	C	0.881496	0.822603	0.615251
	C188	C	0.183165	0.390512	0.881643
	C189	C	0.182530	0.613366	0.125436
	C190	C	0.823499	0.389282	0.126059
	C191	C	0.823856	0.614396	0.882864
	C192	C	0.407127	0.093514	0.600997
	C193	C	0.600139	0.910659	0.601158
	C194	C	0.599584	0.093947	0.406059
	C195	C	0.407863	0.910854	0.406314
	C196	C	0.600352	0.403430	0.094904
	C197	C	0.599298	0.598288	0.912650
	C198	C	0.405881	0.599069	0.095372
	C199	C	0.406264	0.404866	0.911729
	C200	C	0.095637	0.598983	0.405552
	C201	C	0.910327	0.600208	0.600782
	C202	C	0.094447	0.405819	0.599600
	C203	C	0.911562	0.406188	0.407813
	C204	C	0.905553	0.593421	0.101393
	C205	C	0.098247	0.410266	0.099791
	C206	C	0.099074	0.593954	0.905846
	C207	C	0.906627	0.410145	0.905483
	C208	C	0.100254	0.903818	0.595399
	C209	C	0.099091	0.098930	0.412695
	C210	C	0.906310	0.099519	0.595448
	C211	C	0.907008	0.906050	0.411982
	C212	C	0.595141	0.098570	0.907142
	C213	C	0.411050	0.098750	0.100499
	C214	C	0.596164	0.905130	0.099704
	C215	C	0.411763	0.905185	0.907357
	Zn216	Zn	0.503858	0.002027	0.754787
	Zn217	Zn	0.504180	0.001905	0.253399
	Zn218	Zn	0.753242	0.501310	0.003780
	Zn219	Zn	0.252849	0.501927	0.003831
	Zn220	Zn	0.003477	0.751623	0.502928
	Zn221	Zn	0.002929	0.252628	0.503515
	Zn222	Zn	0.002849	0.502182	0.752882
	Zn223	Zn	0.002823	0.501870	0.253922
	Zn224	Zn	0.503349	0.751590	0.003814
	Zn225	Zn	0.502876	0.251598	0.002963
	Zn226	Zn	0.753469	0.002320	0.503694
	Zn227	Zn	0.253714	0.002196	0.503617
	N228	N	0.416796	0.966208	0.684299
	N229	N	0.591716	0.037606	0.685114
	N230	N	0.592588	0.967210	0.321936
	N231	N	0.416522	0.038179	0.322623
	N232	N	0.683377	0.414748	0.967399
	N233	N	0.681681	0.586533	0.040815
	N234	N	0.322829	0.588812	0.967780
	N235	N	0.322878	0.415007	0.039322
	N236	N	0.967484	0.682762	0.415715
	N237	N	0.039264	0.681475	0.589676
	N238	N	0.966580	0.322265	0.590334
	N239	N	0.038953	0.321420	0.415692
	N240	N	0.966508	0.415648	0.682969
	N241	N	0.039006	0.589096	0.683317
	N242	N	0.966327	0.588178	0.324337
	N243	N	0.038951	0.414606	0.322891
	N244	N	0.415276	0.682852	0.968085
	N245	N	0.591192	0.682554	0.039387
	N246	N	0.590908	0.321037	0.967341
	N247	N	0.416127	0.321720	0.039218
	N248	N	0.683185	0.966502	0.417089
	N249	N	0.682237	0.038778	0.589328
	N250	N	0.324027	0.966058	0.590552
	N251	N	0.324030	0.038509	0.416878
	N252	N	0.915317	0.466080	0.184793
	N253	N	0.089533	0.537531	0.183392
	N254	N	0.090966	0.466839	0.822321
	N255	N	0.915558	0.538219	0.822809
	N256	N	0.183157	0.915916	0.467368
	N257	N	0.181972	0.087586	0.540373
	N258	N	0.823454	0.089224	0.467685
	N259	N	0.824152	0.916207	0.539856
	N260	N	0.466551	0.181490	0.916809
	N261	N	0.539848	0.180989	0.088945
	N262	N	0.467674	0.822614	0.090257
	N263	N	0.539806	0.821429	0.916911
	N264	N	0.468298	0.915095	0.183665
	N265	N	0.539965	0.088208	0.182466
	N266	N	0.466737	0.087885	0.824770
	N267	N	0.540295	0.914992	0.824246
	N268	N	0.916078	0.182733	0.467745
	N269	N	0.091129	0.183373	0.539243
	N270	N	0.091302	0.821431	0.467418
	N271	N	0.917283	0.822987	0.539501
	N272	N	0.181535	0.465752	0.918008
	N273	N	0.181658	0.537750	0.089685
	N274	N	0.824257	0.464669	0.089714
	N275	N	0.824481	0.538469	0.918178
	O276	O	0.568255	0.582305	0.637082
	H277	H	0.576045	0.572603	0.624908
	H278	H	0.553839	0.582546	0.640464
	O279	O	0.407836	0.362094	0.376499
	H280	H	0.427325	0.345863	0.366706
	H281	H	0.397926	0.343823	0.385912
	O282	O	0.287795	0.718372	0.477496
	H283	H	0.285176	0.715417	0.437215
	H284	H	0.262749	0.739868	0.470623
	O285	O	1.071332	-0.043178	0.147006
	H286	H	1.055080	-0.042014	0.121119
	H287	H	1.075589	-0.045309	0.148077
	O288	O	0.036681	0.081121	0.829609
	H289	H	0.032566	0.102707	0.811131
	H290	H	0.028812	0.070368	0.835525
	O291	O	0.571489	0.632408	0.492029
	H292	H	0.573094	0.616007	0.496600
	H293	H	0.559975	0.631873	0.502062
	O294	O	0.698582	0.586959	0.418853
	H295	H	0.705343	0.589602	0.423041
	H296	H	0.709748	0.585260	0.439526
	O297	O	1.042884	1.092429	0.929038
	H298	H	1.035682	1.098350	0.918112
	H299	H	1.037232	1.090230	0.936997
	O300	O	-0.020907	-0.122990	-0.072673
	H301	H	-0.028523	-0.131356	-0.066698
	H302	H	-0.011681	-0.107332	-0.067391
	O303	O	0.421952	0.504853	0.641053
	H304	H	0.409256	0.521151	0.650645
	H305	H	0.431831	0.526482	0.627916
	O306	O	1.098160	0.051382	0.196275
	H307	H	1.103074	0.039872	0.200176
	H308	H	1.108671	0.057561	0.195148
	O309	O	0.605736	0.379027	0.613361
	H310	H	0.593521	0.385595	0.614211
	H311	H	0.595622	0.387360	0.616558
	O312	O	0.325192	1.503410	-0.515462
	H313	H	0.318806	1.482055	-0.522749
	H314	H	0.328614	1.509977	-0.520025
	O315	O	0.682801	0.471945	0.514195
	H316	H	0.689310	0.474154	0.514049
	H317	H	0.672101	0.477958	0.506465
	O318	O	0.682380	0.685164	0.685301
	H319	H	0.677761	0.681368	0.666483
	H320	H	0.676438	0.664955	0.689601
	O321	O	1.045652	0.142179	1.029816
	H322	H	1.048036	0.144702	1.026063
	H323	H	1.049570	0.138376	1.031994
	O324	O	0.002625	-0.008929	0.921429
	H325	H	-0.003357	-0.008884	0.914766
	H326	H	0.006959	-0.000712	0.924787
	O327	O	0.284933	0.302081	0.518635
	H328	H	0.274719	0.293582	0.532407
	H329	H	0.278253	0.296684	0.545832
	O330	O	0.572241	0.517401	0.623843
	H331	H	0.571089	0.516334	0.606092
	H332	H	0.575377	0.523602	0.622911
	O333	O	0.905790	1.037317	0.899259
	H334	H	0.904437	1.033708	0.891771
	H335	H	0.902368	1.036578	0.912979
	O336	O	0.585881	0.659248	0.580545
	H337	H	0.577408	0.662618	0.571542
	H338	H	0.590497	0.661682	0.577258
	O339	O	1.455893	-0.586282	1.508496
	H340	H	1.444966	-0.570605	1.507313
	H341	H	1.452303	-0.589188	1.504176
	O342	O	0.098209	1.144185	0.969239
	H343	H	0.105945	1.139124	0.952246
	H344	H	0.105283	1.125255	0.981650
	O345	O	-0.114925	0.827452	1.158464
	H346	H	-0.124072	0.825500	1.140649
	H347	H	-0.116707	0.836653	1.171561
	O348	O	0.486688	0.310915	0.706697
	H349	H	0.483724	0.315329	0.719106
	H350	H	0.488976	0.309701	0.708120
	O351	O	-0.029474	-0.052045	0.011122
	H352	H	-0.036214	-0.045724	0.013473
	H353	H	-0.027013	-0.061485	0.010043
	O354	O	1.077667	1.019488	0.123240
	H355	H	1.077428	1.017265	0.124497
	H356	H	1.077928	1.008821	0.123345
	O357	O	-0.056823	1.098754	0.021446
	H358	H	-0.048829	1.085827	0.015826
	H359	H	-0.064160	1.099160	0.027156
	O360	O	0.574068	0.598684	0.704417
	H361	H	0.589386	0.601970	0.714659
	H362	H	0.592083	0.615496	0.704474
	O363	O	-0.109630	-0.064834	0.106922
	H364	H	-0.123933	-0.069399	0.110116
	H365	H	-0.088676	-0.048928	0.114240
	O366	O	-0.044262	0.971718	0.138109
	H367	H	-0.055966	0.967342	0.136719
	H368	H	-0.032470	0.963482	0.144501
	O369	O	0.323672	0.483272	0.328228
	H370	H	0.317176	0.470995	0.310940
	H371	H	0.333312	0.461853	0.335954
	O372	O	0.595427	0.309656	0.373413
	H373	H	0.603221	0.308201	0.393859
	H374	H	0.595326	0.308645	0.368491
	O375	O	0.576106	0.370123	0.305908
	H376	H	0.576655	0.356489	0.292221
	H377	H	0.598501	0.367020	0.303434
	O378	O	0.549223	0.671769	0.312712
	H379	H	0.547846	0.681978	0.307896
	H380	H	0.570914	0.670022	0.327180
	O381	O	0.576001	0.466226	0.364443
	H382	H	0.576030	0.450607	0.366578
	H383	H	0.565365	0.481876	0.365153
	O384	O	0.169868	0.925722	0.912910
	H385	H	0.173682	0.914578	0.903990
	H386	H	0.153712	0.911690	0.912745
	O387	O	1.314683	0.394676	-0.302332
	H388	H	1.307210	0.405928	-0.287761
	H389	H	1.310279	0.421453	-0.321283
	O390	O	0.441343	0.620416	0.540605
	H391	H	0.432868	0.621165	0.520479
	H392	H	0.436737	0.627191	0.531829
	O393	O	0.937312	0.014198	0.916922
	H394	H	0.941573	0.031568	0.912040
	H395	H	0.938098	0.010223	0.923496
	O396	O	0.079373	0.991129	0.962735
	H397	H	0.071562	0.990516	0.960390
	H398	H	0.091580	0.989660	0.954027
	O399	O	0.310221	0.661813	0.311122
	H400	H	0.297358	0.618931	0.296734
	H401	H	0.347038	0.678502	0.299739
	O402	O	0.978180	-0.095923	0.844643
	H403	H	0.973269	-0.096931	0.847484
	H404	H	0.988039	-0.100871	0.843121
	O405	O	0.140573	-0.034137	-0.129057
	H406	H	0.141978	-0.030296	-0.131020
	H407	H	0.141548	-0.043111	-0.125925
	O408	O	0.971273	0.948612	1.204622
	H409	H	0.973988	0.956558	1.215705
	H410	H	0.971696	0.954329	1.207589
	O411	O	0.633024	0.322525	0.465219
	H412	H	0.635668	0.310828	0.475848
	H413	H	0.620475	0.311112	0.488727
	O414	O	-0.128697	0.145512	0.939943
	H415	H	-0.138719	0.162017	0.944363
	H416	H	-0.109755	0.142251	0.942521
	O417	O	0.381654	0.395969	0.549816
	H418	H	0.395903	0.375325	0.557952
	H419	H	0.372205	0.427783	0.555938
	O420	O	0.472371	1.701448	-0.491758
	H421	H	0.467264	1.712314	-0.498246
	H422	H	0.467817	1.705923	-0.482383
	O423	O	0.812079	-0.068358	0.044000
	H424	H	0.813784	-0.059391	0.049975
	H425	H	0.805457	-0.073832	0.046358
	O426	O	-0.042507	-0.032018	1.045721
	H427	H	-0.028520	-0.027921	1.053843
	H428	H	-0.047674	-0.029124	1.046238
	O429	O	0.555743	0.502676	0.323444
	H430	H	0.559675	0.505923	0.328510
	H431	H	0.567474	0.506162	0.326886
