data_Molecule from HDF5

_cell_length_a		16.345551
_cell_length_b		16.420667
_cell_length_c		16.288574
_cell_angle_alpha	90.150689
_cell_angle_beta	89.939063
_cell_angle_gamma	90.225939
_symmetry_space_group_name_H-M	'P 1'
_symmetry_Int_Tables_number		1

loop_
	_symmetry_equiv_pos_as_xyz
	x,y,z

loop_
	_atom_site_label
	_atom_site_type_symbol
	_atom_site_fract_x
	_atom_site_fract_y
	_atom_site_fract_z
	H0	H	0.380030	0.828573	0.741748
	H1	H	0.584634	0.150924	0.741334
	H2	H	0.584092	0.828766	0.304190
	H3	H	0.380625	0.150308	0.306930
	H4	H	0.699775	0.388959	0.861200
	H5	H	0.700060	0.591246	0.186049
	H6	H	0.265015	0.590748	0.861526
	H7	H	0.262853	0.385471	0.184234
	H8	H	0.821324	0.707399	0.420442
	H9	H	0.142090	0.709669	0.628407
	H10	H	0.820742	0.270373	0.626198
	H11	H	0.142378	0.269650	0.418461
	H12	H	0.819933	0.387210	0.740915
	H13	H	0.143207	0.592051	0.741969
	H14	H	0.820493	0.589071	0.306380
	H15	H	0.142667	0.386440	0.304192
	H16	H	0.380733	0.706680	0.861796
	H17	H	0.588960	0.711410	0.183793
	H18	H	0.585946	0.271676	0.860919
	H19	H	0.380858	0.271957	0.185189
	H20	H	0.702165	0.829093	0.418343
	H21	H	0.702980	0.149789	0.627288
	H22	H	0.261545	0.829657	0.627479
	H23	H	0.265605	0.150824	0.423817
	H24	H	0.879287	0.328805	0.241147
	H25	H	0.085948	0.649059	0.242555
	H26	H	0.083078	0.328598	0.804138
	H27	H	0.881167	0.650128	0.806185
	H28	H	0.201317	0.885174	0.363331
	H29	H	0.199141	0.092868	0.685839
	H30	H	0.763849	0.090902	0.362222
	H31	H	0.763487	0.887650	0.685277
	H32	H	0.322779	0.208882	0.918223
	H33	H	0.643991	0.208576	0.125492
	H34	H	0.323596	0.766697	0.129725
	H35	H	0.642870	0.768934	0.915735
	H36	H	0.321675	0.885712	0.242248
	H37	H	0.643564	0.092766	0.242876
	H38	H	0.321832	0.091586	0.805842
	H39	H	0.644008	0.888675	0.803921
	H40	H	0.876700	0.208855	0.363178
	H41	H	0.084813	0.209687	0.684412
	H42	H	0.086398	0.769462	0.363351
	H43	H	0.878988	0.771274	0.685528
	H44	H	0.201198	0.328881	0.918956
	H45	H	0.204157	0.648185	0.128292
	H46	H	0.762765	0.330053	0.125972
	H47	H	0.765488	0.650177	0.922327
	H48	H	0.400199	0.100903	0.616498
	H49	H	0.578562	0.876158	0.608250
	H50	H	0.579064	0.102863	0.438902
	H51	H	0.383010	0.873592	0.435248
	H52	H	0.570709	0.393478	0.139237
	H53	H	0.569825	0.581438	0.909607
	H54	H	0.394055	0.575934	0.136603
	H55	H	0.392596	0.404710	0.910745
	H56	H	0.095650	0.580289	0.436790
	H57	H	0.866801	0.580750	0.616220
	H58	H	0.096245	0.399960	0.614390
	H59	H	0.865931	0.397348	0.428472
	H60	H	0.096031	0.397617	0.612913
	H61	H	0.866934	0.580955	0.613239
	H62	H	0.096099	0.577295	0.431661
	H63	H	0.866895	0.393555	0.436333
	H64	H	0.397886	0.579385	0.136867
	H65	H	0.577101	0.582773	0.906853
	H66	H	0.578105	0.400336	0.138611
	H67	H	0.397892	0.393521	0.908224
	H68	H	0.575027	0.105403	0.427729
	H69	H	0.573417	0.873304	0.621158
	H70	H	0.387135	0.102180	0.606144
	H71	H	0.394857	0.874431	0.426055
	H72	H	0.890212	0.603915	0.110917
	H73	H	0.068285	0.376888	0.111809
	H74	H	0.068355	0.603263	0.927286
	H75	H	0.883605	0.371440	0.925904
	H76	H	0.069984	0.901624	0.637630
	H77	H	0.072142	0.082433	0.408507
	H78	H	0.896485	0.078595	0.636457
	H79	H	0.894381	0.894844	0.408872
	H80	H	0.598603	0.084347	0.934189
	H81	H	0.369433	0.081207	0.109811
	H82	H	0.595394	0.901597	0.110351
	H83	H	0.366562	0.889419	0.935067
	H84	H	0.595999	0.902332	0.113440
	H85	H	0.367883	0.077396	0.116878
	H86	H	0.596244	0.079629	0.935918
	H87	H	0.372693	0.903231	0.942132
	H88	H	0.891674	0.083141	0.639883
	H89	H	0.075768	0.078866	0.408267
	H90	H	0.068998	0.899400	0.637912
	H91	H	0.888652	0.895998	0.407114
	H92	H	0.070879	0.599797	0.940642
	H93	H	0.075452	0.375896	0.109420
	H94	H	0.889807	0.605716	0.118464
	H95	H	0.899213	0.377091	0.928983
	H96	H	0.385543	0.107166	0.622183
	H97	H	0.565405	0.878938	0.610560
	H98	H	0.567309	0.100281	0.435334
	H99	H	0.395995	0.878919	0.440469
	H100	H	0.568584	0.402561	0.135953
	H101	H	0.574999	0.575764	0.909677
	H102	H	0.392337	0.580028	0.138680
	H103	H	0.385831	0.395778	0.905416
	H104	H	0.098203	0.582711	0.431490
	H105	H	0.868086	0.578270	0.614446
	H106	H	0.095256	0.400242	0.611548
	H107	H	0.869486	0.402197	0.435222
	H108	H	0.896678	0.602167	0.115355
	H109	H	0.072970	0.373706	0.116092
	H110	H	0.080787	0.605480	0.932990
	H111	H	0.888080	0.377013	0.941544
	H112	H	0.071241	0.899770	0.638674
	H113	H	0.071878	0.077760	0.410320
	H114	H	0.889635	0.076284	0.637901
	H115	H	0.892146	0.900717	0.409688
	H116	H	0.597918	0.080107	0.930368
	H117	H	0.366340	0.085413	0.116438
	H118	H	0.597283	0.898764	0.112055
	H119	H	0.368255	0.903358	0.926353
	C120	C	0.359859	-0.002233	0.646154
	C121	C	0.604127	0.981662	0.644792
	C122	C	0.604422	-0.002833	0.401866
	C123	C	0.360950	0.981500	0.403407
	C124	C	0.603833	0.368407	0.031286
	C125	C	0.605234	0.611594	1.015042
	C126	C	0.362680	0.609857	0.031084
	C127	C	0.360923	0.366700	1.014680
	C128	C	-0.009443	0.610485	0.402637
	C129	C	0.973482	0.610917	0.645268
	C130	C	-0.010578	0.368303	0.644252
	C131	C	0.973519	0.366588	0.401099
	C132	C	0.861173	0.498029	0.144994
	C133	C	0.104315	0.480625	0.144789
	C134	C	0.103856	0.497309	0.901788
	C135	C	0.860282	0.481115	0.901869
	C136	C	0.102430	0.868502	0.532250
	C137	C	0.103724	0.111436	0.515273
	C138	C	0.861491	0.109965	0.531591
	C139	C	0.860376	0.866991	0.515172
	C140	C	0.491555	0.111722	0.901844
	C141	C	0.474231	0.112045	0.145417
	C142	C	0.490793	0.868309	0.144253
	C143	C	0.475101	0.868080	0.901882
	C144	C	0.360192	0.877041	0.703398
	C145	C	0.604554	0.102543	0.703008
	C146	C	0.603992	0.876815	0.343221
	C147	C	0.361160	0.102053	0.345484
	C148	C	0.661386	0.369129	0.909729
	C149	C	0.662257	0.611387	0.137160
	C150	C	0.304142	0.610025	0.909909
	C151	C	0.302350	0.366683	0.135834
	C152	C	0.869376	0.667985	0.401972
	C153	C	0.094370	0.669773	0.646266
	C154	C	0.868708	0.309855	0.645111
	C155	C	0.094034	0.308655	0.399896
	C156	C	0.868535	0.368211	0.702275
	C157	C	0.094967	0.611049	0.702650
	C158	C	0.868757	0.608938	0.345380
	C159	C	0.094356	0.366846	0.342882
	C160	C	0.361734	0.668036	0.910142
	C161	C	0.606631	0.670864	0.136158
	C162	C	0.604556	0.310774	0.909569
	C163	C	0.360793	0.309811	0.136183
	C164	C	0.662761	0.877031	0.400046
	C165	C	0.663014	0.102154	0.645750
	C166	C	0.301161	0.877499	0.646649
	C167	C	0.303925	0.102436	0.403893
	C168	C	0.860526	0.376972	0.202192
	C169	C	0.105208	0.601003	0.203532
	C170	C	0.103213	0.376690	0.843151
	C171	C	0.861172	0.602011	0.844789
	C172	C	0.161664	0.866810	0.411425
	C173	C	0.161020	0.112417	0.636962
	C174	C	0.802936	0.110261	0.410373
	C175	C	0.802315	0.867703	0.636761
	C176	C	0.370601	0.169540	0.900516
	C177	C	0.595620	0.169831	0.145383
	C178	C	0.371308	0.807411	0.147119
	C179	C	0.595303	0.809180	0.898685
	C180	C	0.370197	0.866745	0.203241
	C181	C	0.595522	0.111805	0.203230
	C182	C	0.370192	0.111324	0.844144
	C183	C	0.595707	0.868646	0.842831
	C184	C	0.859238	0.169170	0.411104
	C185	C	0.103856	0.170214	0.636460
	C186	C	0.104178	0.809259	0.411358
	C187	C	0.859506	0.809620	0.636730
	C188	C	0.161714	0.376813	0.900458
	C189	C	0.164133	0.600470	0.146687
	C190	C	0.802312	0.377577	0.145162
	C191	C	0.803600	0.601981	0.902632
	C192	C	0.383990	0.081700	0.621998
	C193	C	0.579661	0.897919	0.620442
	C194	C	0.580794	0.081033	0.426922
	C195	C	0.384336	0.897467	0.427231
	C196	C	0.579294	0.391950	0.115934
	C197	C	0.580886	0.587148	0.930849
	C198	C	0.387478	0.585445	0.115447
	C199	C	0.385045	0.390838	0.930030
	C200	C	0.074732	0.587010	0.426491
	C201	C	0.889297	0.587077	0.621482
	C202	C	0.073973	0.392344	0.619861
	C203	C	0.889333	0.390683	0.426025
	C204	C	0.885323	0.582041	0.121703
	C205	C	0.079346	0.397081	0.119846
	C206	C	0.080366	0.581062	0.926538
	C207	C	0.883622	0.397004	0.925259
	C208	C	0.077398	0.893213	0.616202
	C209	C	0.080000	0.086704	0.430864
	C210	C	0.885554	0.086066	0.615969
	C211	C	0.884584	0.890368	0.430580
	C212	C	0.575694	0.088122	0.926370
	C213	C	0.389834	0.088135	0.121423
	C214	C	0.574469	0.893656	0.119043
	C215	C	0.391115	0.891830	0.927124
	Zn216	Zn	0.482583	-0.009883	0.774184
	Zn217	Zn	0.482312	-0.010620	0.273597
	Zn218	Zn	0.732454	0.489733	0.023677
	Zn219	Zn	0.233176	0.489212	0.022985
	Zn220	Zn	-0.017846	0.739172	0.523938
	Zn221	Zn	-0.018011	0.238993	0.523397
	Zn222	Zn	-0.018116	0.489424	0.773197
	Zn223	Zn	-0.017861	0.488924	0.273766
	Zn224	Zn	0.483776	0.739399	0.023113
	Zn225	Zn	0.482955	0.239648	0.022453
	Zn226	Zn	0.732972	-0.010676	0.523376
	Zn227	Zn	0.230713	-0.010368	0.524264
	N228	N	0.395855	0.953032	0.703447
	N229	N	0.568596	0.026687	0.702570
	N230	N	0.568645	0.952639	0.344134
	N231	N	0.395701	0.025751	0.344835
	N232	N	0.661279	0.404082	0.986451
	N233	N	0.661511	0.575288	0.060982
	N234	N	0.304672	0.574642	0.986317
	N235	N	0.302241	0.401338	0.059070
	N236	N	0.945930	0.668819	0.436961
	N237	N	0.017823	0.669726	0.611341
	N238	N	0.944985	0.309821	0.609691
	N239	N	0.017596	0.308476	0.435300
	N240	N	0.944931	0.403819	0.701743
	N241	N	0.019057	0.575000	0.702127
	N242	N	0.945029	0.573790	0.345505
	N243	N	0.018200	0.401913	0.343436
	N244	N	0.397310	0.668068	0.986613
	N245	N	0.571881	0.671212	0.059249
	N246	N	0.569536	0.310247	0.986319
	N247	N	0.396283	0.309705	0.059583
	N248	N	0.663056	0.952917	0.435986
	N249	N	0.662801	0.026021	0.610245
	N250	N	0.300846	0.953585	0.611804
	N251	N	0.303277	0.026399	0.438928
	N252	N	0.896574	0.452811	0.202231
	N253	N	0.068794	0.525365	0.202528
	N254	N	0.068159	0.452686	0.843806
	N255	N	0.895772	0.525908	0.844165
	N256	N	0.160536	0.903123	0.487449
	N257	N	0.161086	0.076458	0.560588
	N258	N	0.804144	0.074156	0.486353
	N259	N	0.802415	0.902384	0.560004
	N260	N	0.446955	0.169740	0.935794
	N261	N	0.519207	0.170011	0.110128
	N262	N	0.447235	0.808385	0.111069
	N263	N	0.519240	0.808787	0.934865
	N264	N	0.445624	0.904071	0.201540
	N265	N	0.519061	0.076541	0.203369
	N266	N	0.446307	0.075890	0.844983
	N267	N	0.519896	0.904598	0.844763
	N268	N	0.895030	0.168727	0.487420
	N269	N	0.069154	0.169923	0.559666
	N270	N	0.068262	0.809925	0.487681
	N271	N	0.894853	0.809003	0.560094
	N272	N	0.162420	0.452835	0.936032
	N273	N	0.163557	0.524714	0.110849
	N274	N	0.802487	0.453808	0.110605
	N275	N	0.802899	0.525707	0.937217
	O276	O	0.588103	0.400845	0.490546
	H277	H	0.595372	0.402272	0.487816
	H278	H	0.590955	0.391499	0.477597
	O279	O	0.416632	0.551781	0.429822
	H280	H	0.412489	0.560355	0.442163
	H281	H	0.425821	0.556551	0.425113
	O282	O	1.176544	0.007422	0.930488
	H283	H	1.194040	0.015948	0.930969
	H284	H	1.177904	-0.001843	0.954974
	O285	O	1.000906	-0.102573	-0.071588
	H286	H	0.983345	-0.103154	-0.078359
	H287	H	1.004127	-0.118370	-0.069099
	O288	O	1.113513	1.012260	1.181187
	H289	H	1.125078	1.008278	1.186756
	H290	H	1.100722	1.017815	1.193026
	O291	O	0.401816	1.545249	0.657952
	H292	H	0.403719	1.528258	0.655111
	H293	H	0.389775	1.537878	0.657971
	O294	O	0.330169	0.439181	0.615218
	H295	H	0.319575	0.445922	0.615562
	H296	H	0.332398	0.423334	0.628920
	O297	O	0.583422	0.650656	0.629882
	H298	H	0.587504	0.659594	0.631892
	H299	H	0.579804	0.644847	0.637968
	O300	O	0.908494	-0.006168	0.024236
	H301	H	0.900474	0.000699	0.018203
	H302	H	0.901749	-0.010316	0.047991
	O303	O	0.371336	0.390227	0.679656
	H304	H	0.368767	0.384830	0.671682
	H305	H	0.379038	0.385908	0.688160
	O306	O	1.096583	1.131030	1.036363
	H307	H	1.084818	1.139703	1.051041
	H308	H	1.099297	1.127287	1.006870
	O309	O	0.467495	0.387108	0.497284
	H310	H	0.453918	0.400138	0.485255
	H311	H	0.482180	0.385041	0.492608
	O312	O	0.061064	0.085190	-0.068861
	H313	H	0.057866	0.077875	-0.078684
	H314	H	0.046367	0.088624	-0.066576
	O315	O	0.541374	0.475506	0.616769
	H316	H	0.536128	0.478452	0.619289
	H317	H	0.545731	0.475764	0.619539
	O318	O	-0.048069	0.995893	0.889404
	H319	H	-0.054443	0.980920	0.887326
	H320	H	-0.049077	1.005259	0.896204
	O321	O	0.464646	0.553001	0.552505
	H322	H	0.454359	0.551750	0.554138
	H323	H	0.469078	0.557936	0.542134
	O324	O	0.452776	0.534311	-0.528326
	H325	H	0.457755	0.532540	-0.531032
	H326	H	0.446836	0.524294	-0.531008
	O327	O	-0.160511	0.843399	0.177459
	H328	H	-0.160709	0.836667	0.175956
	H329	H	-0.151975	0.845848	0.183984
	O330	O	-0.149763	-0.011955	0.991613
	H331	H	-0.148898	-0.021684	0.977938
	H332	H	-0.149142	-0.009225	0.989205
	O333	O	-0.050999	0.040991	1.043736
	H334	H	-0.057817	0.043172	1.036700
	H335	H	-0.059627	0.055341	1.044962
	O336	O	0.475667	0.432243	0.508122
	H337	H	0.472272	0.418194	0.500156
	H338	H	0.482102	0.421620	0.519286
	O339	O	0.990481	0.181128	0.212652
	H340	H	0.981571	0.189296	0.221057
	H341	H	0.986575	0.178365	0.216055
	O342	O	-0.039784	0.014544	-0.034504
	H343	H	-0.029409	0.022449	-0.040588
	H344	H	-0.055016	0.009395	-0.036185
	O345	O	1.095233	0.004789	1.198688
	H346	H	1.112383	0.019987	1.215015
	H347	H	1.100986	0.018953	1.186781
	O348	O	1.099674	1.007534	-0.079827
	H349	H	1.107152	1.002786	-0.072749
	H350	H	1.097392	1.012335	-0.088231
	O351	O	0.466884	0.447761	0.417742
	H352	H	0.465408	0.455395	0.417390
	H353	H	0.467830	0.452167	0.408129
	O354	O	0.789475	-0.046906	1.181079
	H355	H	0.790052	-0.046234	1.194748
	H356	H	0.804108	-0.054367	1.193738
	O357	O	0.618749	0.556619	0.551395
	H358	H	0.619794	0.558598	0.559148
	H359	H	0.624722	0.554192	0.563224
	O360	O	1.104473	-0.190448	-0.141135
	H361	H	1.114837	-0.196187	-0.135956
	H362	H	1.114015	-0.191767	-0.143448
	O363	O	0.160373	0.851813	1.037139
	H364	H	0.168932	0.855425	1.062913
	H365	H	0.162239	0.859309	1.027961
	O366	O	0.602780	0.497187	0.531115
	H367	H	0.613906	0.500575	0.534887
	H368	H	0.593169	0.488541	0.540855
	O369	O	-0.435640	0.608865	-0.357178
	H370	H	-0.447469	0.610641	-0.354112
	H371	H	-0.444795	0.602620	-0.347281
	O372	O	0.496830	0.550337	0.502736
	H373	H	0.503828	0.561543	0.518525
	H374	H	0.496009	0.551850	0.508836
	O375	O	0.455988	0.475008	0.551069
	H376	H	0.460454	0.475725	0.567134
	H377	H	0.461489	0.463006	0.542195
	O378	O	1.373648	1.539681	-0.472885
	H379	H	1.364120	1.543398	-0.466986
	H380	H	1.379223	1.522179	-0.463880
	O381	O	0.946998	0.119753	0.047242
	H382	H	0.943077	0.116002	0.037280
	H383	H	0.950425	0.115216	0.042133
	O384	O	0.842364	0.856569	-0.022755
	H385	H	0.840609	0.856286	-0.025156
	H386	H	0.837972	0.862304	-0.013910
	O387	O	0.079455	-0.064596	-0.120744
	H388	H	0.084492	-0.079936	-0.123542
	H389	H	0.079778	-0.063128	-0.122267
	O390	O	0.403795	1.573699	-0.619047
	H391	H	0.411650	1.585687	-0.625910
	H392	H	0.410474	1.570068	-0.619940
	O393	O	0.799445	0.994805	0.960735
	H394	H	0.788698	0.983853	0.970801
	H395	H	0.809226	0.989311	0.974959
	O396	O	-0.017556	0.072420	0.028313
	H397	H	0.001228	0.081035	0.029014
	H398	H	-0.015939	0.067977	0.020432
	O399	O	0.028798	0.989858	1.135024
	H400	H	0.035269	0.991532	1.127090
	H401	H	0.016366	0.986238	1.146861
	O402	O	0.434204	0.551516	0.469489
	H403	H	0.433597	0.564070	0.470158
	H404	H	0.425764	0.562363	0.460872
	O405	O	0.909414	1.096469	0.107540
	H406	H	0.908507	1.091540	0.102251
	H407	H	0.911602	1.097143	0.113485
	O408	O	1.384165	1.508632	-0.588241
	H409	H	1.381872	1.508667	-0.590151
	H410	H	1.376777	1.503296	-0.588090
	O411	O	1.004021	-0.089236	0.990108
	H412	H	1.018945	-0.087797	0.987425
	H413	H	1.000585	-0.096047	0.988963
	O414	O	0.556626	0.365418	0.414587
	H415	H	0.567189	0.363159	0.408836
	H416	H	0.559545	0.379718	0.394046
	O417	O	0.632441	0.331105	0.380330
	H418	H	0.632639	0.334713	0.372215
	H419	H	0.635444	0.345690	0.388116
