data_Molecule from HDF5

_cell_length_a		16.270275
_cell_length_b		16.312502
_cell_length_c		16.369309
_cell_angle_alpha	90.081799
_cell_angle_beta	89.991639
_cell_angle_gamma	90.012084
_symmetry_space_group_name_H-M	'P 1'
_symmetry_Int_Tables_number		1

loop_
	_symmetry_equiv_pos_as_xyz
	x,y,z

loop_
	_atom_site_label
	_atom_site_type_symbol
	_atom_site_fract_x
	_atom_site_fract_y
	_atom_site_fract_z
	H0	H	0.406540	0.840720	0.723166
	H1	H	0.606110	0.167265	0.723469
	H2	H	0.605959	0.841286	0.292007
	H3	H	0.405964	0.166923	0.292502
	H4	H	0.720063	0.406536	0.844527
	H5	H	0.721681	0.602362	0.169789
	H6	H	0.292315	0.603387	0.843130
	H7	H	0.291472	0.407842	0.170437
	H8	H	0.841052	0.716950	0.410385
	H9	H	0.169692	0.720255	0.605018
	H10	H	0.842286	0.290910	0.604813
	H11	H	0.170161	0.290771	0.408481
	H12	H	0.842877	0.404963	0.722038
	H13	H	0.169749	0.604676	0.721979
	H14	H	0.842740	0.604343	0.291181
	H15	H	0.170110	0.407138	0.292078
	H16	H	0.408230	0.720505	0.844371
	H17	H	0.606172	0.720364	0.170343
	H18	H	0.605582	0.288697	0.845389
	H19	H	0.408375	0.291093	0.171782
	H20	H	0.719853	0.840386	0.410486
	H21	H	0.721174	0.167359	0.606696
	H22	H	0.292264	0.840197	0.604978
	H23	H	0.292524	0.168120	0.410340
	H24	H	0.908438	0.341348	0.220696
	H25	H	0.105359	0.668164	0.221624
	H26	H	0.106692	0.341508	0.790517
	H27	H	0.907106	0.667666	0.791611
	H28	H	0.221058	0.905863	0.344335
	H29	H	0.220653	0.103775	0.671540
	H30	H	0.791500	0.101315	0.344186
	H31	H	0.792807	0.907015	0.670895
	H32	H	0.343401	0.217914	0.912119
	H33	H	0.670429	0.218681	0.107747
	H34	H	0.342512	0.790603	0.104631
	H35	H	0.671123	0.790682	0.910059
	H36	H	0.342236	0.905393	0.221780
	H37	H	0.669570	0.102187	0.224022
	H38	H	0.343316	0.103299	0.794165
	H39	H	0.670665	0.904686	0.792526
	H40	H	0.908414	0.218440	0.343610
	H41	H	0.105343	0.222051	0.670097
	H42	H	0.104944	0.789099	0.343981
	H43	H	0.906341	0.788548	0.669459
	H44	H	0.220744	0.340718	0.908762
	H45	H	0.220260	0.668594	0.103411
	H46	H	0.793327	0.341232	0.104122
	H47	H	0.791799	0.667671	0.909743
	H48	H	0.406089	0.124901	0.611565
	H49	H	0.602600	0.889641	0.595618
	H50	H	0.605386	0.124493	0.407840
	H51	H	0.415013	0.886891	0.407580
	H52	H	0.603320	0.399584	0.127945
	H53	H	0.601379	0.601334	0.890274
	H54	H	0.419769	0.595014	0.119605
	H55	H	0.419877	0.406316	0.893560
	H56	H	0.123400	0.597571	0.409309
	H57	H	0.892985	0.590666	0.597617
	H58	H	0.120427	0.415904	0.595840
	H59	H	0.887094	0.405496	0.410552
	H60	H	0.122617	0.415330	0.602497
	H61	H	0.887245	0.597887	0.607914
	H62	H	0.121927	0.601016	0.417216
	H63	H	0.891781	0.412215	0.418903
	H64	H	0.413088	0.606009	0.124224
	H65	H	0.602638	0.593445	0.892063
	H66	H	0.609468	0.420609	0.124039
	H67	H	0.407871	0.407239	0.889727
	H68	H	0.589044	0.118116	0.412254
	H69	H	0.601853	0.885918	0.605984
	H70	H	0.425946	0.116330	0.604776
	H71	H	0.416894	0.890578	0.419044
	H72	H	0.914393	0.619778	0.095877
	H73	H	0.101094	0.388290	0.098747
	H74	H	0.099631	0.622400	0.906837
	H75	H	0.922931	0.391169	0.913431
	H76	H	0.091714	0.911304	0.620325
	H77	H	0.087555	0.095806	0.396435
	H78	H	0.916064	0.113611	0.626395
	H79	H	0.913624	0.913819	0.392333
	H80	H	0.626210	0.100097	0.909144
	H81	H	0.387218	0.099809	0.108162
	H82	H	0.625029	0.904789	0.100533
	H83	H	0.391841	0.909853	0.919519
	H84	H	0.618642	0.916117	0.093688
	H85	H	0.389604	0.103064	0.095843
	H86	H	0.623088	0.099869	0.921202
	H87	H	0.391828	0.916970	0.915443
	H88	H	0.899536	0.092772	0.625055
	H89	H	0.102676	0.109982	0.388041
	H90	H	0.101058	0.908150	0.623890
	H91	H	0.914491	0.908191	0.391161
	H92	H	0.094097	0.617908	0.915816
	H93	H	0.100237	0.388038	0.103030
	H94	H	0.910372	0.622220	0.102625
	H95	H	0.910475	0.389433	0.921142
	H96	H	0.409112	0.117934	0.590144
	H97	H	0.592663	0.890095	0.601318
	H98	H	0.602277	0.117711	0.424917
	H99	H	0.406529	0.886139	0.416004
	H100	H	0.588246	0.414198	0.119090
	H101	H	0.595356	0.597221	0.894156
	H102	H	0.406322	0.594196	0.123213
	H103	H	0.414137	0.417493	0.893975
	H104	H	0.120072	0.592495	0.415750
	H105	H	0.889374	0.603794	0.595483
	H106	H	0.122538	0.409720	0.598446
	H107	H	0.889417	0.417043	0.408294
	H108	H	0.918900	0.620657	0.103003
	H109	H	0.097232	0.389698	0.099976
	H110	H	0.104978	0.621391	0.917114
	H111	H	0.910994	0.385718	0.906692
	H112	H	0.099678	0.917507	0.620456
	H113	H	0.108571	0.089119	0.392493
	H114	H	0.924897	0.090685	0.616035
	H115	H	0.909144	0.911167	0.390958
	H116	H	0.621895	0.090307	0.914557
	H117	H	0.392573	0.091056	0.100306
	H118	H	0.622888	0.917711	0.107262
	H119	H	0.388795	0.909984	0.911052
	C120	C	0.384618	0.011905	0.629878
	C121	C	0.628163	0.996113	0.629578
	C122	C	0.627423	0.012191	0.386505
	C123	C	0.384249	0.995845	0.386131
	C124	C	0.628817	0.382517	0.016153
	C125	C	0.628232	0.625997	0.999382
	C126	C	0.384843	0.627073	0.014715
	C127	C	0.385349	0.382778	0.999933
	C128	C	0.013833	0.625926	0.385355
	C129	C	0.998067	0.626763	0.628573
	C130	C	0.014071	0.384396	0.627738
	C131	C	0.997655	0.383628	0.384544
	C132	C	0.885797	0.512938	0.128514
	C133	C	0.128056	0.496813	0.128582
	C134	C	0.128483	0.512460	0.884822
	C135	C	0.885259	0.496415	0.885373
	C136	C	0.127037	0.883192	0.514639
	C137	C	0.128227	0.127118	0.499789
	C138	C	0.884608	0.126942	0.515148
	C139	C	0.884091	0.882396	0.499174
	C140	C	0.515552	0.125346	0.886942
	C141	C	0.497839	0.125815	0.130056
	C142	C	0.514407	0.883173	0.129524
	C143	C	0.498983	0.882991	0.886396
	C144	C	0.386406	0.889234	0.684919
	C145	C	0.626161	0.118539	0.685252
	C146	C	0.626079	0.889717	0.330418
	C147	C	0.386240	0.118557	0.330973
	C148	C	0.682976	0.385502	0.893311
	C149	C	0.683748	0.623642	0.121672
	C150	C	0.329903	0.624124	0.892178
	C151	C	0.329818	0.386632	0.122140
	C152	C	0.890406	0.679846	0.388699
	C153	C	0.120961	0.682058	0.625511
	C154	C	0.891116	0.328846	0.625099
	C155	C	0.121315	0.328636	0.387794
	C156	C	0.891527	0.385249	0.683643
	C157	C	0.121012	0.624846	0.683662
	C158	C	0.891150	0.623559	0.329934
	C159	C	0.121519	0.386624	0.330350
	C160	C	0.387845	0.682231	0.892555
	C161	C	0.626470	0.682222	0.121737
	C162	C	0.626177	0.326824	0.893937
	C163	C	0.387982	0.328774	0.122776
	C164	C	0.682232	0.889198	0.389636
	C165	C	0.683329	0.118641	0.627129
	C166	C	0.329638	0.889061	0.626183
	C167	C	0.329796	0.119012	0.389686
	C168	C	0.888178	0.390175	0.182892
	C169	C	0.125666	0.619765	0.183256
	C170	C	0.126545	0.389972	0.829149
	C171	C	0.886677	0.618945	0.829830
	C172	C	0.182651	0.885812	0.392551
	C173	C	0.182841	0.124149	0.622540
	C174	C	0.829517	0.122969	0.392668
	C175	C	0.829835	0.885940	0.621953
	C176	C	0.392150	0.180323	0.890612
	C177	C	0.621519	0.180743	0.128046
	C178	C	0.391370	0.828114	0.126013
	C179	C	0.622371	0.828393	0.889320
	C180	C	0.391303	0.885291	0.184122
	C181	C	0.621134	0.123059	0.185584
	C182	C	0.392238	0.123222	0.832206
	C183	C	0.621835	0.884859	0.830758
	C184	C	0.887313	0.181299	0.392539
	C185	C	0.125593	0.182927	0.622034
	C186	C	0.125186	0.827400	0.392508
	C187	C	0.886675	0.827445	0.621464
	C188	C	0.183219	0.389579	0.887901
	C189	C	0.182662	0.619858	0.124729
	C190	C	0.831169	0.389873	0.124984
	C191	C	0.829512	0.618996	0.888322
	C192	C	0.407136	0.097610	0.608441
	C193	C	0.605544	0.910490	0.607417
	C194	C	0.605161	0.097926	0.408463
	C195	C	0.406425	0.910062	0.407737
	C196	C	0.606877	0.404831	0.101683
	C197	C	0.606033	0.603962	0.914183
	C198	C	0.406631	0.604823	0.100293
	C199	C	0.407449	0.403912	0.914378
	C200	C	0.099655	0.603569	0.407594
	C201	C	0.912160	0.604136	0.606754
	C202	C	0.099741	0.407051	0.605340
	C203	C	0.911875	0.405239	0.406173
	C204	C	0.907862	0.598887	0.106703
	C205	C	0.105996	0.410901	0.106962
	C206	C	0.106088	0.598381	0.906794
	C207	C	0.908070	0.410928	0.907272
	C208	C	0.104155	0.905648	0.599583
	C209	C	0.106039	0.104899	0.414588
	C210	C	0.906929	0.105498	0.600532
	C211	C	0.906166	0.904447	0.413517
	C212	C	0.601345	0.103355	0.908550
	C213	C	0.412104	0.104196	0.108047
	C214	C	0.600044	0.906126	0.107081
	C215	C	0.413061	0.905499	0.908876
	Zn216	Zn	0.506823	0.003672	0.757939
	Zn217	Zn	0.505904	0.004368	0.258364
	Zn218	Zn	0.757177	0.504325	0.007390
	Zn219	Zn	0.256178	0.504831	0.006611
	Zn220	Zn	0.005455	0.754237	0.506552
	Zn221	Zn	0.006347	0.255973	0.506878
	Zn222	Zn	0.006502	0.504492	0.756678
	Zn223	Zn	0.006384	0.505018	0.256726
	Zn224	Zn	0.506948	0.755226	0.007713
	Zn225	Zn	0.507478	0.253782	0.008709
	Zn226	Zn	0.756153	0.004458	0.507922
	Zn227	Zn	0.256334	0.004355	0.507842
	N228	N	0.419637	0.966621	0.687461
	N229	N	0.592389	0.041342	0.686686
	N230	N	0.592542	0.967171	0.328555
	N231	N	0.419265	0.040855	0.328607
	N232	N	0.684615	0.419496	0.970292
	N233	N	0.685186	0.589482	0.044832
	N234	N	0.328020	0.590426	0.969220
	N235	N	0.328196	0.419633	0.044870
	N236	N	0.967702	0.681545	0.422409
	N237	N	0.043326	0.683350	0.592106
	N238	N	0.968492	0.328085	0.591130
	N239	N	0.043434	0.326544	0.420907
	N240	N	0.968884	0.419051	0.685226
	N241	N	0.043600	0.591158	0.685805
	N242	N	0.969071	0.590693	0.327848
	N243	N	0.043945	0.419701	0.328038
	N244	N	0.421032	0.684154	0.969756
	N245	N	0.592429	0.683475	0.044845
	N246	N	0.593173	0.325033	0.971291
	N247	N	0.421632	0.326030	0.045572
	N248	N	0.683223	0.966246	0.423846
	N249	N	0.684392	0.041609	0.593081
	N250	N	0.328259	0.966495	0.592737
	N251	N	0.328620	0.041855	0.423298
	N252	N	0.921230	0.467736	0.185049
	N253	N	0.092493	0.542322	0.185555
	N254	N	0.093143	0.467466	0.827211
	N255	N	0.920658	0.541887	0.828074
	N256	N	0.184023	0.919638	0.469534
	N257	N	0.184788	0.090323	0.545496
	N258	N	0.827713	0.089902	0.469853
	N259	N	0.828422	0.919751	0.544887
	N260	N	0.469804	0.181917	0.923798
	N261	N	0.543976	0.182840	0.094374
	N262	N	0.469024	0.826678	0.092995
	N263	N	0.544912	0.827139	0.923047
	N264	N	0.468898	0.918805	0.186489
	N265	N	0.543486	0.089868	0.187042
	N266	N	0.469913	0.089964	0.829642
	N267	N	0.544134	0.918299	0.829081
	N268	N	0.921002	0.183572	0.469641
	N269	N	0.092335	0.184829	0.544920
	N270	N	0.091186	0.825898	0.469437
	N271	N	0.919464	0.825194	0.544100
	N272	N	0.184496	0.466933	0.921597
	N273	N	0.184233	0.542414	0.091309
	N274	N	0.829484	0.467355	0.091812
	N275	N	0.828636	0.541859	0.922231
	O276	O	0.478284	0.414699	0.532455
	H277	H	0.474013	0.413202	0.533739
	H278	H	0.481950	0.410189	0.546614
	O279	O	0.139015	-0.003217	-0.074878
	H280	H	0.140101	-0.007538	-0.075668
	H281	H	0.141380	-0.001948	-0.087963
	O282	O	0.532980	0.467035	0.456786
	H283	H	0.532877	0.459796	0.450722
	H284	H	0.531700	0.471569	0.466894
	O285	O	0.524661	0.453762	0.527634
	H286	H	0.519413	0.450954	0.526150
	H287	H	0.525284	0.452612	0.517390
	O288	O	1.071710	-0.031665	-0.043206
	H289	H	1.082121	-0.031535	-0.042732
	H290	H	1.076081	-0.027499	-0.041700
	O291	O	-0.532127	0.489045	-0.468367
	H292	H	-0.526076	0.487573	-0.471766
	H293	H	-0.540481	0.492054	-0.477812
	O294	O	0.549133	0.484032	0.470703
	H295	H	0.540634	0.474407	0.463236
	H296	H	0.548482	0.495019	0.460291
	O297	O	0.086070	1.019594	-0.058728
	H298	H	0.087820	1.025996	-0.054960
	H299	H	0.090462	1.008345	-0.061326
	O300	O	0.443369	0.476508	0.545140
	H301	H	0.450913	0.478909	0.549631
	H302	H	0.445272	0.471611	0.548073
	O303	O	0.507350	0.462463	0.476169
	H304	H	0.497344	0.467191	0.483796
	H305	H	0.513082	0.459895	0.475161
	O306	O	0.087132	0.977434	0.914752
	H307	H	0.076770	0.973280	0.918031
	H308	H	0.085596	0.978214	0.911859
	O309	O	0.496022	0.465398	0.554957
	H310	H	0.511046	0.467887	0.554863
	H311	H	0.502070	0.454416	0.560808
