data_Molecule from HDF5

_cell_length_a		16.477306
_cell_length_b		16.277889
_cell_length_c		16.225947
_cell_angle_alpha	90.102119
_cell_angle_beta	90.035399
_cell_angle_gamma	89.960706
_symmetry_space_group_name_H-M	'P 1'
_symmetry_Int_Tables_number		1

loop_
	_symmetry_equiv_pos_as_xyz
	x,y,z

loop_
	_atom_site_label
	_atom_site_type_symbol
	_atom_site_fract_x
	_atom_site_fract_y
	_atom_site_fract_z
	H0	H	0.394289	0.832456	0.723818
	H1	H	0.595154	0.157599	0.720918
	H2	H	0.593577	0.832151	0.290152
	H3	H	0.398057	0.158426	0.294237
	H4	H	0.715463	0.389396	0.844320
	H5	H	0.714643	0.598307	0.167497
	H6	H	0.275721	0.600476	0.844579
	H7	H	0.279802	0.394953	0.169002
	H8	H	0.835305	0.710724	0.403072
	H9	H	0.156781	0.711498	0.606831
	H10	H	0.835782	0.274280	0.606361
	H11	H	0.155533	0.273914	0.401548
	H12	H	0.835263	0.390596	0.723947
	H13	H	0.156135	0.596859	0.724674
	H14	H	0.833629	0.591598	0.290195
	H15	H	0.156123	0.392083	0.287067
	H16	H	0.394222	0.712801	0.843340
	H17	H	0.594170	0.709313	0.170629
	H18	H	0.596874	0.277302	0.842884
	H19	H	0.398707	0.282604	0.170526
	H20	H	0.711325	0.831007	0.403600
	H21	H	0.715754	0.154119	0.610937
	H22	H	0.276432	0.832776	0.611126
	H23	H	0.274381	0.153219	0.400285
	H24	H	0.897922	0.330642	0.217702
	H25	H	0.093120	0.658017	0.221237
	H26	H	0.097617	0.331550	0.788902
	H27	H	0.894270	0.655887	0.787977
	H28	H	0.214574	0.888912	0.344038
	H29	H	0.215012	0.097691	0.666810
	H30	H	0.779227	0.092737	0.342823
	H31	H	0.777079	0.887759	0.667953
	H32	H	0.334945	0.212992	0.905407
	H33	H	0.656526	0.212727	0.107626
	H34	H	0.334769	0.776642	0.108743
	H35	H	0.656026	0.776661	0.904668
	H36	H	0.334050	0.895802	0.223107
	H37	H	0.657325	0.095449	0.222843
	H38	H	0.335687	0.099149	0.786238
	H39	H	0.655460	0.892491	0.787616
	H40	H	0.896742	0.207061	0.341474
	H41	H	0.099333	0.212989	0.666637
	H42	H	0.093501	0.779600	0.341295
	H43	H	0.897290	0.777566	0.668954
	H44	H	0.216886	0.334321	0.901035
	H45	H	0.212447	0.657183	0.108963
	H46	H	0.776820	0.334158	0.109301
	H47	H	0.776593	0.655516	0.900750
	H48	H	0.405058	0.106460	0.586922
	H49	H	0.581974	0.881316	0.594648
	H50	H	0.590920	0.112666	0.410750
	H51	H	0.408951	0.876382	0.404054
	H52	H	0.587810	0.411198	0.119423
	H53	H	0.585704	0.582568	0.892049
	H54	H	0.405613	0.587573	0.122111
	H55	H	0.395016	0.405316	0.887840
	H56	H	0.109205	0.584741	0.414849
	H57	H	0.881743	0.595346	0.588653
	H58	H	0.106197	0.407489	0.593163
	H59	H	0.879310	0.391105	0.413720
	H60	H	0.110556	0.403331	0.601412
	H61	H	0.887775	0.573565	0.590609
	H62	H	0.110770	0.584261	0.410839
	H63	H	0.885112	0.405172	0.418397
	H64	H	0.401467	0.585653	0.121871
	H65	H	0.584586	0.587221	0.889545
	H66	H	0.582534	0.402201	0.120196
	H67	H	0.408170	0.412218	0.893977
	H68	H	0.583349	0.107642	0.418350
	H69	H	0.592207	0.877820	0.593044
	H70	H	0.397811	0.111151	0.597502
	H71	H	0.410894	0.883481	0.423926
	H72	H	0.900621	0.615067	0.108000
	H73	H	0.084100	0.380540	0.097043
	H74	H	0.088542	0.611289	0.912393
	H75	H	0.913740	0.384104	0.920624
	H76	H	0.089354	0.903789	0.621596
	H77	H	0.081682	0.087203	0.389549
	H78	H	0.899666	0.080257	0.621982
	H79	H	0.899866	0.909583	0.392031
	H80	H	0.607656	0.081042	0.914598
	H81	H	0.380409	0.090021	0.103426
	H82	H	0.611933	0.892117	0.098174
	H83	H	0.378927	0.897230	0.909554
	H84	H	0.605823	0.908374	0.089985
	H85	H	0.380719	0.091361	0.098109
	H86	H	0.611257	0.088429	0.910526
	H87	H	0.384545	0.902981	0.925859
	H88	H	0.910737	0.079878	0.618603
	H89	H	0.093200	0.081967	0.388356
	H90	H	0.085973	0.904343	0.620292
	H91	H	0.909730	0.897153	0.390707
	H92	H	0.081605	0.608602	0.915138
	H93	H	0.091125	0.379838	0.090787
	H94	H	0.914420	0.606368	0.094962
	H95	H	0.895481	0.378194	0.922160
	H96	H	0.411290	0.108830	0.599447
	H97	H	0.587395	0.876240	0.603112
	H98	H	0.593477	0.110251	0.421774
	H99	H	0.393040	0.875111	0.417636
	H100	H	0.592286	0.402851	0.123058
	H101	H	0.589163	0.585284	0.889614
	H102	H	0.404695	0.583707	0.120680
	H103	H	0.408509	0.396194	0.888587
	H104	H	0.111015	0.587612	0.412424
	H105	H	0.878473	0.584439	0.607614
	H106	H	0.109609	0.397722	0.592379
	H107	H	0.879337	0.403220	0.403794
	H108	H	0.895582	0.610877	0.088544
	H109	H	0.092025	0.376857	0.099525
	H110	H	0.088465	0.608981	0.919772
	H111	H	0.904762	0.375501	0.905123
	H112	H	0.087173	0.900849	0.621680
	H113	H	0.084430	0.074539	0.393333
	H114	H	0.906177	0.089558	0.622038
	H115	H	0.894286	0.895877	0.385366
	H116	H	0.608645	0.088155	0.919717
	H117	H	0.382008	0.086678	0.100089
	H118	H	0.610830	0.908399	0.109022
	H119	H	0.384581	0.914296	0.912106
	C120	C	0.374385	0.002341	0.626375
	C121	C	0.617863	0.985403	0.628007
	C122	C	0.617949	0.002720	0.385379
	C123	C	0.374388	0.985378	0.384891
	C124	C	0.617876	0.373580	0.014116
	C125	C	0.616820	0.615918	0.997686
	C126	C	0.373755	0.616854	0.014428
	C127	C	0.374709	0.374536	0.997968
	C128	C	0.003814	0.615013	0.383028
	C129	C	0.988024	0.615497	0.626804
	C130	C	0.003586	0.371754	0.626657
	C131	C	0.987101	0.370319	0.381938
	C132	C	0.874256	0.503373	0.126503
	C133	C	0.117421	0.486328	0.126794
	C134	C	0.117618	0.502819	0.884527
	C135	C	0.874266	0.486096	0.884763
	C136	C	0.117028	0.872140	0.513637
	C137	C	0.117547	0.113574	0.496855
	C138	C	0.875430	0.112970	0.513507
	C139	C	0.872712	0.870691	0.497071
	C140	C	0.503417	0.116708	0.884432
	C141	C	0.487685	0.118162	0.129494
	C142	C	0.503274	0.873411	0.128661
	C143	C	0.487704	0.873627	0.884748
	C144	C	0.374791	0.880896	0.684917
	C145	C	0.615745	0.108186	0.683688
	C146	C	0.614711	0.880615	0.328565
	C147	C	0.376763	0.108805	0.330421
	C148	C	0.675827	0.371813	0.892416
	C149	C	0.674832	0.616846	0.119541
	C150	C	0.315486	0.618624	0.892785
	C151	C	0.318446	0.375704	0.120381
	C152	C	0.883031	0.671662	0.383937
	C153	C	0.108438	0.673336	0.626985
	C154	C	0.883546	0.313344	0.626325
	C155	C	0.107904	0.313428	0.382537
	C156	C	0.883357	0.371472	0.684712
	C157	C	0.108143	0.616001	0.685496
	C158	C	0.882317	0.612635	0.327586
	C159	C	0.107959	0.372036	0.325372
	C160	C	0.374264	0.674720	0.892201
	C161	C	0.615151	0.672364	0.121019
	C162	C	0.616995	0.315563	0.891860
	C163	C	0.377556	0.319572	0.121135
	C164	C	0.673279	0.880132	0.384929
	C165	C	0.676147	0.106384	0.629244
	C166	C	0.316344	0.880925	0.628632
	C167	C	0.315439	0.106323	0.383314
	C168	C	0.877057	0.380099	0.181140
	C169	C	0.114488	0.608790	0.183746
	C170	C	0.117625	0.380923	0.826662
	C171	C	0.874735	0.607496	0.826755
	C172	C	0.174623	0.870942	0.392104
	C173	C	0.175767	0.115827	0.618651
	C174	C	0.817871	0.112422	0.391409
	C175	C	0.816013	0.869587	0.619318
	C176	C	0.383021	0.174311	0.885346
	C177	C	0.608477	0.174367	0.127898
	C178	C	0.382605	0.816241	0.127815
	C179	C	0.608056	0.815567	0.885039
	C180	C	0.382219	0.875592	0.184856
	C181	C	0.608919	0.115981	0.185209
	C182	C	0.383341	0.117624	0.826114
	C183	C	0.607737	0.873204	0.826815
	C184	C	0.876553	0.168933	0.390422
	C185	C	0.118311	0.173345	0.618244
	C186	C	0.114729	0.816216	0.390851
	C187	C	0.875769	0.814572	0.619791
	C188	C	0.177097	0.382058	0.882514
	C189	C	0.173581	0.608585	0.127625
	C190	C	0.816731	0.381903	0.127150
	C191	C	0.816185	0.607353	0.883089
	C192	C	0.397748	0.086835	0.601676
	C193	C	0.594114	0.900376	0.604046
	C194	C	0.595734	0.088032	0.409806
	C195	C	0.397585	0.900458	0.408263
	C196	C	0.594423	0.398178	0.098961
	C197	C	0.593305	0.592111	0.912625
	C198	C	0.397070	0.592655	0.099543
	C199	C	0.397481	0.397844	0.912376
	C200	C	0.088192	0.592162	0.405875
	C201	C	0.904436	0.591540	0.602557
	C202	C	0.087082	0.396021	0.602668
	C203	C	0.903081	0.393094	0.405349
	C204	C	0.896919	0.588713	0.103721
	C205	C	0.095488	0.401188	0.102795
	C206	C	0.093452	0.587658	0.908773
	C207	C	0.897719	0.401233	0.909112
	C208	C	0.094132	0.896137	0.598982
	C209	C	0.093464	0.088468	0.412356
	C210	C	0.898810	0.089947	0.598754
	C211	C	0.894755	0.893937	0.411542
	C212	C	0.587423	0.092726	0.908093
	C213	C	0.402877	0.095831	0.107208
	C214	C	0.587637	0.896247	0.105768
	C215	C	0.404315	0.897868	0.909010
	Zn216	Zn	0.494913	-0.005095	0.755053
	Zn217	Zn	0.495811	-0.004166	0.258125
	Zn218	Zn	0.746018	0.495167	0.005471
	Zn219	Zn	0.245956	0.495484	0.005646
	Zn220	Zn	-0.004415	0.744385	0.504935
	Zn221	Zn	-0.003863	0.241764	0.504442
	Zn222	Zn	-0.004312	0.493900	0.756367
	Zn223	Zn	-0.004682	0.493787	0.253982
	Zn224	Zn	0.495401	0.743937	0.006397
	Zn225	Zn	0.495840	0.245903	0.006073
	Zn226	Zn	0.746006	-0.007276	0.506938
	Zn227	Zn	0.246033	-0.006718	0.505573
	N228	N	0.410258	0.957426	0.683653
	N229	N	0.580279	0.031747	0.683127
	N230	N	0.581105	0.957732	0.328635
	N231	N	0.412994	0.032666	0.331381
	N232	N	0.676546	0.407202	0.969392
	N233	N	0.675961	0.582520	0.042052
	N234	N	0.315009	0.583407	0.969756
	N235	N	0.316474	0.409066	0.042592
	N236	N	0.959518	0.673433	0.417748
	N237	N	0.032878	0.673026	0.591018
	N238	N	0.959316	0.313228	0.590993
	N239	N	0.031871	0.312175	0.417128
	N240	N	0.958963	0.406997	0.684939
	N241	N	0.032312	0.580753	0.685657
	N242	N	0.958462	0.578100	0.326907
	N243	N	0.031994	0.406736	0.324663
	N244	N	0.409732	0.673759	0.968850
	N245	N	0.579797	0.671984	0.044203
	N246	N	0.581591	0.316443	0.968566
	N247	N	0.411805	0.318833	0.043904
	N248	N	0.675246	0.957337	0.419782
	N249	N	0.677675	0.028789	0.595529
	N250	N	0.315836	0.957518	0.593083
	N251	N	0.313903	0.028705	0.416563
	N252	N	0.911912	0.456814	0.181062
	N253	N	0.080204	0.531950	0.183189
	N254	N	0.081365	0.457096	0.827772
	N255	N	0.910101	0.531026	0.827551
	N256	N	0.176333	0.904925	0.469700
	N257	N	0.175603	0.079541	0.542080
	N258	N	0.817050	0.078336	0.468885
	N259	N	0.814135	0.903975	0.542048
	N260	N	0.458832	0.173898	0.920818
	N261	N	0.532053	0.175848	0.093966
	N262	N	0.458881	0.814840	0.093692
	N263	N	0.532337	0.815576	0.920376
	N264	N	0.458430	0.910331	0.185676
	N265	N	0.532721	0.081691	0.186339
	N266	N	0.459293	0.082551	0.825514
	N267	N	0.531964	0.908633	0.826367
	N268	N	0.911675	0.169422	0.467353
	N269	N	0.082700	0.172086	0.541589
	N270	N	0.079213	0.817193	0.467421
	N271	N	0.910380	0.815113	0.542755
	N272	N	0.176945	0.458888	0.917629
	N273	N	0.175518	0.531462	0.092811
	N274	N	0.814573	0.459534	0.093997
	N275	N	0.815883	0.530652	0.918350
	O276	O	0.184473	-0.082113	0.013782
	H277	H	0.197915	-0.082095	0.015975
	H278	H	0.173869	-0.090696	0.000842
	O279	O	0.441339	0.429221	0.376736
	H280	H	0.447285	0.435307	0.373422
	H281	H	0.432929	0.425014	0.387540
	O282	O	1.916095	1.032419	0.903710
	H283	H	1.902846	1.028857	0.905233
	H284	H	1.906010	1.023203	0.901891
	O285	O	-0.544801	0.451056	0.439990
	H286	H	-0.559118	0.448815	0.442781
	H287	H	-0.542776	0.445977	0.440602
	O288	O	0.402940	0.585498	0.380330
	H289	H	0.404584	0.594713	0.390588
	H290	H	0.400067	0.586312	0.375151
	O291	O	0.614201	0.506837	0.412121
	H292	H	0.624655	0.492817	0.404245
	H293	H	0.614986	0.509062	0.415836
	O294	O	0.988043	0.995100	1.074875
	H295	H	0.988223	0.989399	1.081115
	H296	H	0.988396	0.992345	1.085628
	O297	O	-0.114355	-0.161641	0.004281
	H298	H	-0.111276	-0.162668	-0.001464
	H299	H	-0.120791	-0.159275	0.002222
	O300	O	0.605041	0.645851	0.569142
	H301	H	0.602414	0.633032	0.569962
	H302	H	0.609270	0.652143	0.553637
	O303	O	0.097466	0.997838	0.877306
	H304	H	0.092408	1.004926	0.881012
	H305	H	0.104773	1.005034	0.874759
	O306	O	0.663829	0.382886	0.442198
	H307	H	0.667879	0.369423	0.450338
	H308	H	0.664852	0.380879	0.447393
	O309	O	1.443579	0.651132	-0.491144
	H310	H	1.440929	0.658493	-0.497201
	H311	H	1.438570	0.650953	-0.493074
	O312	O	0.097221	0.071898	1.071596
	H313	H	0.098821	0.085600	1.073011
	H314	H	0.090633	0.068917	1.067793
	O315	O	-0.089044	1.124591	-0.067473
	H316	H	-0.087504	1.118262	-0.054889
	H317	H	-0.078690	1.128850	-0.075737
	O318	O	0.585001	0.462926	0.494087
	H319	H	0.583101	0.453951	0.493143
	H320	H	0.589177	0.456427	0.491880
	O321	O	0.448520	0.519815	0.326588
	H322	H	0.452997	0.527454	0.331707
	H323	H	0.434761	0.516636	0.316610
	O324	O	0.406057	0.647586	0.374847
	H325	H	0.401329	0.638001	0.373492
	H326	H	0.411657	0.648485	0.371340
	O327	O	0.422441	0.370504	0.539241
	H328	H	0.424932	0.366972	0.547985
	H329	H	0.439878	0.366764	0.534198
	O330	O	0.470591	0.647672	0.534571
	H331	H	0.466201	0.653181	0.531033
	H332	H	0.487152	0.628906	0.532470
	O333	O	-0.047212	0.916557	1.114951
	H334	H	-0.044888	0.930510	1.119459
	H335	H	-0.053355	0.906879	1.109732
	O336	O	0.927727	1.006418	1.024516
	H337	H	0.926305	1.007894	1.024187
	H338	H	0.938706	1.007813	1.022586
	O339	O	0.659959	0.416599	0.557766
	H340	H	0.654031	0.437976	0.560779
	H341	H	0.659158	0.424333	0.565712
	O342	O	0.993787	-0.073219	0.019282
	H343	H	1.001747	-0.076623	0.017559
	H344	H	0.998183	-0.087811	0.020747
	O345	O	0.403955	0.458981	0.681969
	H346	H	0.389075	0.468987	0.688651
	H347	H	0.405403	0.449855	0.685656
	O348	O	0.934900	1.002304	0.991981
	H349	H	0.931902	0.996729	0.999242
	H350	H	0.933120	1.005230	1.009052
	O351	O	0.987037	0.991759	-0.083780
	H352	H	0.992687	0.994812	-0.089082
	H353	H	0.987078	0.988153	-0.074271
	O354	O	0.449607	0.400285	0.576884
	H355	H	0.459481	0.416202	0.580968
	H356	H	0.443922	0.398874	0.565401
	O357	O	-0.016021	0.022581	0.003421
	H358	H	-0.012462	0.022834	0.010051
	H359	H	-0.023443	0.032078	-0.013618
	O360	O	0.075381	0.117277	-0.028842
	H361	H	0.064217	0.123404	-0.025318
	H362	H	0.078299	0.114970	-0.032378
	O363	O	1.096728	1.059278	0.074387
	H364	H	1.093543	1.077842	0.079200
	H365	H	1.110671	1.048316	0.070203
	O366	O	-0.115576	0.148411	-0.069435
	H367	H	-0.118959	0.143647	-0.065335
	H368	H	-0.117729	0.150469	-0.085151
	O369	O	0.363329	0.358806	0.661698
	H370	H	0.361716	0.371475	0.665338
	H371	H	0.380360	0.348461	0.666484
	O372	O	0.392397	0.579048	0.580175
	H373	H	0.382105	0.594124	0.586499
	H374	H	0.407052	0.567628	0.569733
	O375	O	0.476247	0.401582	0.485173
	H376	H	0.465930	0.403530	0.489193
	H377	H	0.483687	0.392369	0.493715
	O378	O	0.581992	0.496028	0.416068
	H379	H	0.580430	0.489885	0.408861
	H380	H	0.586727	0.506381	0.425295
	O381	O	0.562830	0.544578	0.583717
	H382	H	0.560244	0.556845	0.568526
	H383	H	0.551648	0.541579	0.587325
	O384	O	0.002722	0.911098	-0.063720
	H385	H	-0.003718	0.926957	-0.061483
	H386	H	0.002826	0.903362	-0.061721
	O387	O	0.946441	-0.133726	0.977245
	H388	H	0.952544	-0.124670	0.974555
	H389	H	0.951076	-0.132257	0.971571
	O390	O	-0.018483	1.029424	-0.108335
	H391	H	-0.020939	1.028813	-0.117809
	H392	H	-0.014590	1.030266	-0.093178
	O393	O	1.043439	0.988295	0.057311
	H394	H	1.032900	0.987507	0.070193
	H395	H	1.039959	0.993419	0.042048
	O396	O	0.603496	0.547971	0.669912
	H397	H	0.603566	0.555117	0.666990
	H398	H	0.583272	0.543702	0.667131
	O399	O	-0.009487	0.976420	1.177402
	H400	H	-0.021316	0.966016	1.183730
	H401	H	-0.002665	0.960537	1.178670
	O402	O	1.053225	1.140907	1.085333
	H403	H	1.049719	1.140258	1.081304
	H404	H	1.057319	1.129562	1.072166
	O405	O	0.510976	0.360214	0.560084
	H406	H	0.512050	0.369147	0.565801
	H407	H	0.511363	0.348579	0.550920
