data_Molecule from HDF5

_cell_length_a		16.422744
_cell_length_b		16.372806
_cell_length_c		16.585660
_cell_angle_alpha	90.091689
_cell_angle_beta	89.971739
_cell_angle_gamma	90.102449
_symmetry_space_group_name_H-M	'P 1'
_symmetry_Int_Tables_number		1

loop_
	_symmetry_equiv_pos_as_xyz
	x,y,z

loop_
	_atom_site_label
	_atom_site_type_symbol
	_atom_site_fract_x
	_atom_site_fract_y
	_atom_site_fract_z
	H0	H	0.403669	0.859539	0.735529
	H1	H	0.624005	0.172902	0.734100
	H2	H	0.621292	0.856947	0.287581
	H3	H	0.407256	0.172628	0.286887
	H4	H	0.733980	0.409340	0.850849
	H5	H	0.735390	0.620288	0.166428
	H6	H	0.289168	0.624138	0.853371
	H7	H	0.290970	0.411320	0.166224
	H8	H	0.857702	0.736094	0.404952
	H9	H	0.172532	0.740580	0.617553
	H10	H	0.854792	0.296462	0.610101
	H11	H	0.174796	0.295912	0.404722
	H12	H	0.856061	0.407511	0.729870
	H13	H	0.169918	0.626906	0.735966
	H14	H	0.857407	0.620024	0.288621
	H15	H	0.172615	0.408273	0.284891
	H16	H	0.409444	0.737044	0.851406
	H17	H	0.618616	0.736667	0.167160
	H18	H	0.617373	0.292723	0.852380
	H19	H	0.408347	0.296013	0.167488
	H20	H	0.734505	0.856198	0.405630
	H21	H	0.734817	0.175468	0.613163
	H22	H	0.288353	0.859444	0.619657
	H23	H	0.294816	0.174871	0.405029
	H24	H	0.911486	0.355614	0.227765
	H25	H	0.123465	0.672817	0.232519
	H26	H	0.123579	0.358731	0.783631
	H27	H	0.907458	0.673200	0.786857
	H28	H	0.239415	0.909319	0.353963
	H29	H	0.238345	0.123866	0.666575
	H30	H	0.794775	0.118328	0.351431
	H31	H	0.791154	0.908454	0.664789
	H32	H	0.354026	0.236467	0.905231
	H33	H	0.672475	0.234886	0.112538
	H34	H	0.354165	0.794885	0.113147
	H35	H	0.673197	0.795953	0.906136
	H36	H	0.355879	0.907233	0.232962
	H37	H	0.672873	0.118131	0.228441
	H38	H	0.357862	0.125728	0.783849
	H39	H	0.671079	0.907189	0.786129
	H40	H	0.914101	0.233453	0.350866
	H41	H	0.119810	0.238108	0.666983
	H42	H	0.122934	0.793104	0.353202
	H43	H	0.907467	0.791775	0.664460
	H44	H	0.235810	0.356700	0.902957
	H45	H	0.238053	0.673523	0.116197
	H46	H	0.795705	0.355003	0.110607
	H47	H	0.796887	0.675517	0.907437
	H48	H	0.436546	0.125081	0.596309
	H49	H	0.601905	0.903036	0.596879
	H50	H	0.607591	0.132427	0.413608
	H51	H	0.430495	0.904590	0.422430
	H52	H	0.602942	0.431894	0.119706
	H53	H	0.603249	0.605922	0.897899
	H54	H	0.424223	0.596829	0.118594
	H55	H	0.426566	0.429884	0.899285
	H56	H	0.129835	0.602506	0.416292
	H57	H	0.903420	0.599646	0.597646
	H58	H	0.130266	0.425515	0.604139
	H59	H	0.900183	0.422154	0.417568
	H60	H	0.125902	0.423705	0.590795
	H61	H	0.902419	0.604722	0.597403
	H62	H	0.129524	0.605480	0.421554
	H63	H	0.903135	0.427303	0.420608
	H64	H	0.432452	0.605597	0.117807
	H65	H	0.605824	0.607064	0.896075
	H66	H	0.600349	0.420970	0.121379
	H67	H	0.427155	0.423069	0.897894
	H68	H	0.598430	0.128040	0.417046
	H69	H	0.602932	0.902562	0.598128
	H70	H	0.426278	0.126194	0.592032
	H71	H	0.424681	0.902854	0.425393
	H72	H	0.917538	0.630019	0.095654
	H73	H	0.105381	0.403680	0.091541
	H74	H	0.096006	0.628458	0.915251
	H75	H	0.924590	0.401920	0.919685
	H76	H	0.098663	0.930461	0.618495
	H77	H	0.115194	0.101932	0.395390
	H78	H	0.924518	0.105594	0.621939
	H79	H	0.929294	0.928107	0.398839
	H80	H	0.625454	0.106915	0.924880
	H81	H	0.399357	0.105772	0.098382
	H82	H	0.627902	0.926482	0.103761
	H83	H	0.402911	0.930466	0.923805
	H84	H	0.627437	0.923025	0.098942
	H85	H	0.400831	0.101099	0.099914
	H86	H	0.622689	0.098442	0.925291
	H87	H	0.400814	0.929433	0.919131
	H88	H	0.924441	0.106708	0.622789
	H89	H	0.098402	0.097613	0.402412
	H90	H	0.102004	0.927332	0.622079
	H91	H	0.925124	0.921117	0.394744
	H92	H	0.095627	0.623175	0.927532
	H93	H	0.102566	0.401201	0.101679
	H94	H	0.925587	0.632225	0.108313
	H95	H	0.923596	0.400104	0.917940
	H96	H	0.428322	0.128753	0.602551
	H97	H	0.601388	0.903109	0.598579
	H98	H	0.606972	0.128654	0.423484
	H99	H	0.425604	0.901144	0.418769
	H100	H	0.610445	0.424876	0.123265
	H101	H	0.605555	0.603976	0.897170
	H102	H	0.421710	0.607652	0.123185
	H103	H	0.421345	0.426507	0.896151
	H104	H	0.126955	0.600074	0.421162
	H105	H	0.904664	0.602278	0.593707
	H106	H	0.124259	0.436495	0.597394
	H107	H	0.902168	0.427484	0.414258
	H108	H	0.932080	0.626256	0.096404
	H109	H	0.095533	0.406031	0.095173
	H110	H	0.106860	0.629479	0.922912
	H111	H	0.925920	0.401216	0.916918
	H112	H	0.103776	0.931772	0.620092
	H113	H	0.101586	0.114539	0.396346
	H114	H	0.923433	0.106457	0.622156
	H115	H	0.920625	0.929176	0.396384
	H116	H	0.626535	0.101359	0.917848
	H117	H	0.398493	0.104455	0.103151
	H118	H	0.625171	0.928747	0.098939
	H119	H	0.401062	0.925673	0.922684
	C120	C	0.394431	0.023711	0.631266
	C121	C	0.635739	1.007434	0.630792
	C122	C	0.635704	0.023894	0.387605
	C123	C	0.394471	1.007441	0.389535
	C124	C	0.636106	0.393243	0.017498
	C125	C	0.636561	0.637642	1.000938
	C126	C	0.392520	0.637041	0.016999
	C127	C	0.391923	0.394497	1.001309
	C128	C	0.024404	0.635833	0.388006
	C129	C	1.006818	0.636985	0.630640
	C130	C	0.022344	0.395179	0.629455
	C131	C	1.006854	0.393537	0.386205
	C132	C	0.893589	0.523835	0.130521
	C133	C	0.135077	0.507718	0.129494
	C134	C	0.134203	0.523442	0.888065
	C135	C	0.892833	0.506323	0.887213
	C136	C	0.135783	0.895692	0.517416
	C137	C	0.137988	0.138757	0.501116
	C138	C	0.893381	0.137128	0.517629
	C139	C	0.892565	0.893358	0.500131
	C140	C	0.521251	0.136068	0.889192
	C141	C	0.504580	0.135943	0.131291
	C142	C	0.522233	0.893122	0.132262
	C143	C	0.505807	0.895030	0.888706
	C144	C	0.387726	0.906286	0.694072
	C145	C	0.640419	0.125865	0.692652
	C146	C	0.638266	0.904264	0.328213
	C147	C	0.390663	0.125900	0.328030
	C148	C	0.694730	0.391005	0.898798
	C149	C	0.695620	0.638819	0.119364
	C150	C	0.330481	0.641531	0.899844
	C151	C	0.331154	0.392724	0.119210
	C152	C	0.905242	0.696026	0.386588
	C153	C	0.124859	0.699532	0.634825
	C154	C	0.902897	0.335179	0.629963
	C155	C	0.126804	0.334912	0.385731
	C156	C	0.903457	0.390672	0.689667
	C157	C	0.123678	0.643024	0.693998
	C158	C	0.905025	0.638433	0.328609
	C159	C	0.125842	0.390716	0.325969
	C160	C	0.390150	0.697868	0.898960
	C161	C	0.637377	0.696784	0.119658
	C162	C	0.636367	0.333024	0.899328
	C163	C	0.389626	0.335309	0.119855
	C164	C	0.695123	0.903991	0.386771
	C165	C	0.695979	0.126917	0.632572
	C166	C	0.330039	0.906557	0.636264
	C167	C	0.334614	0.126897	0.387036
	C168	C	0.892169	0.403550	0.188789
	C169	C	0.140529	0.625565	0.191793
	C170	C	0.139975	0.405510	0.825072
	C171	C	0.890104	0.625861	0.827513
	C172	C	0.198249	0.891700	0.400533
	C173	C	0.198401	0.142143	0.619183
	C174	C	0.834748	0.137472	0.398551
	C175	C	0.831591	0.890307	0.617848
	C176	C	0.402288	0.197002	0.886486
	C177	C	0.624666	0.195148	0.131589
	C178	C	0.402279	0.834029	0.132601
	C179	C	0.625098	0.834877	0.886781
	C180	C	0.403121	0.889771	0.192413
	C181	C	0.624870	0.137282	0.189408
	C182	C	0.403925	0.141670	0.826191
	C183	C	0.624125	0.890568	0.827202
	C184	C	0.893647	0.194930	0.398229
	C185	C	0.139364	0.199005	0.619380
	C186	C	0.140253	0.833632	0.400231
	C187	C	0.889363	0.832157	0.617620
	C188	C	0.195982	0.404696	0.884454
	C189	C	0.197524	0.626110	0.133661
	C190	C	0.834661	0.403450	0.130599
	C191	C	0.834658	0.626834	0.887204
	C192	C	0.422563	0.105438	0.604571
	C193	C	0.609571	0.924417	0.605345
	C194	C	0.611179	0.107798	0.411367
	C195	C	0.419782	0.924445	0.414987
	C196	C	0.611554	0.418632	0.099977
	C197	C	0.611934	0.612983	0.918308
	C198	C	0.418529	0.610853	0.098522
	C199	C	0.417541	0.419476	0.919046
	C200	C	0.107128	0.610168	0.412568
	C201	C	0.924771	0.609865	0.604002
	C202	C	0.105309	0.421186	0.604736
	C203	C	0.923585	0.418518	0.410462
	C204	C	0.918050	0.607689	0.106821
	C205	C	0.108490	0.424999	0.103469
	C206	C	0.107387	0.605617	0.914297
	C207	C	0.917586	0.422928	0.911332
	C208	C	0.109176	0.922299	0.598895
	C209	C	0.112533	0.112271	0.419267
	C210	C	0.917247	0.113256	0.600336
	C211	C	0.917952	0.918782	0.418045
	C212	C	0.603414	0.109702	0.915180
	C213	C	0.421409	0.111051	0.107470
	C214	C	0.605310	0.918869	0.107770
	C215	C	0.423343	0.921268	0.914285
	Zn216	Zn	0.514902	0.015655	0.760217
	Zn217	Zn	0.513606	0.014598	0.259950
	Zn218	Zn	0.765075	0.515038	0.008364
	Zn219	Zn	0.262918	0.515729	0.008777
	Zn220	Zn	0.015445	0.765268	0.509131
	Zn221	Zn	0.015307	0.266232	0.508930
	Zn222	Zn	0.013798	0.515015	0.759028
	Zn223	Zn	0.015677	0.514986	0.258744
	Zn224	Zn	0.513685	0.766306	0.009251
	Zn225	Zn	0.512776	0.265034	0.010151
	Zn226	Zn	0.764180	0.015527	0.509025
	Zn227	Zn	0.265991	0.016426	0.510034
	N228	N	0.427272	0.980112	0.690902
	N229	N	0.603527	0.050381	0.691629
	N230	N	0.602272	0.979924	0.328327
	N231	N	0.427062	0.050450	0.329352
	N232	N	0.694673	0.427743	0.973323
	N233	N	0.695227	0.602854	0.044453
	N234	N	0.331832	0.604557	0.974065
	N235	N	0.332339	0.428556	0.044289
	N236	N	0.980487	0.694801	0.422606
	N237	N	0.051058	0.695936	0.596110
	N238	N	0.977919	0.337695	0.593454
	N239	N	0.051813	0.336494	0.422626
	N240	N	0.978940	0.427327	0.689586
	N241	N	0.049192	0.604667	0.691346
	N242	N	0.980245	0.601918	0.329106
	N243	N	0.050292	0.426363	0.326247
	N244	N	0.428113	0.695176	0.972806
	N245	N	0.601435	0.696488	0.044838
	N246	N	0.600725	0.334269	0.974369
	N247	N	0.426486	0.336090	0.045466
	N248	N	0.693497	0.979380	0.423265
	N249	N	0.693084	0.052328	0.594720
	N250	N	0.334315	0.980568	0.597634
	N251	N	0.337074	0.052380	0.424859
	N252	N	0.927711	0.479641	0.189246
	N253	N	0.102086	0.551057	0.188988
	N254	N	0.102310	0.480439	0.827039
	N255	N	0.925318	0.549768	0.827154
	N256	N	0.195823	0.929323	0.474678
	N257	N	0.197896	0.105609	0.544448
	N258	N	0.834349	0.102441	0.473682
	N259	N	0.833271	0.927518	0.543641
	N260	N	0.476269	0.193398	0.925319
	N261	N	0.548837	0.194852	0.096595
	N262	N	0.477318	0.835938	0.095945
	N263	N	0.550562	0.837499	0.924503
	N264	N	0.478837	0.925670	0.192269
	N265	N	0.549218	0.101321	0.189472
	N266	N	0.478743	0.104337	0.827946
	N267	N	0.548903	0.927014	0.828231
	N268	N	0.929134	0.194971	0.473204
	N269	N	0.102709	0.197132	0.544960
	N270	N	0.102334	0.835848	0.474050
	N271	N	0.926561	0.833984	0.543459
	N272	N	0.192480	0.478926	0.922977
	N273	N	0.193861	0.551907	0.095206
	N274	N	0.835103	0.479304	0.095316
	N275	N	0.836116	0.551449	0.923590
	O276	O	0.530901	0.428678	0.660483
	H277	H	0.531822	0.444315	0.653814
	H278	H	0.517211	0.442275	0.667401
	O279	O	0.967257	-0.067855	0.808099
	H280	H	0.931848	-0.062986	0.794120
	H281	H	0.965043	-0.084143	0.806062
	O282	O	0.670002	0.370827	0.461930
	H283	H	0.671652	0.373131	0.472135
	H284	H	0.656350	0.377543	0.465216
	O285	O	0.330212	0.326814	0.614868
	H286	H	0.313222	0.328659	0.620550
	H287	H	0.346157	0.318060	0.584322
	O288	O	1.115646	1.064464	0.078339
	H289	H	1.121439	1.047957	0.049647
	H290	H	1.122660	1.075882	0.072461
	O291	O	0.299728	0.496204	0.500469
	H292	H	0.299023	0.481087	0.510032
	H293	H	0.291802	0.510410	0.498373
	O294	O	-0.193274	0.033416	0.794077
	H295	H	-0.218868	0.036782	0.776567
	H296	H	-0.185013	0.068287	0.797255
	O297	O	0.548426	0.338759	0.504201
	H298	H	0.555326	0.335497	0.499690
	H299	H	0.558712	0.339448	0.516163
	O300	O	0.846005	1.009575	1.213349
	H301	H	0.855669	1.012174	1.207649
	H302	H	0.836367	1.013441	1.217624
	O303	O	0.367492	0.634284	0.629384
	H304	H	0.368883	0.639740	0.613334
	H305	H	0.381883	0.623133	0.625878
	O306	O	0.458484	0.428489	0.639239
	H307	H	0.463182	0.413321	0.652277
	H308	H	0.471627	0.428209	0.635466
	O309	O	0.704742	0.544403	0.317057
	H310	H	0.705360	0.516181	0.308884
	H311	H	0.712357	0.541678	0.303629
	O312	O	-0.456890	0.349798	0.309854
	H313	H	-0.448176	0.339566	0.285287
	H314	H	-0.424984	0.346950	0.319370
	O315	O	0.849680	0.202838	0.990193
	H316	H	0.842531	0.193705	1.003354
	H317	H	0.858146	0.204643	1.000662
	O318	O	1.318383	-0.410130	-0.632260
	H319	H	1.299230	-0.410898	-0.615697
	H320	H	1.352416	-0.421804	-0.637500
	O321	O	0.039765	-0.112301	0.222545
	H322	H	0.051428	-0.110633	0.210603
	H323	H	0.049948	-0.095258	0.228778
	O324	O	0.674439	0.309664	0.304201
	H325	H	0.696227	0.295521	0.295803
	H326	H	0.695233	0.315530	0.324935
	O327	O	0.495063	0.721539	0.298010
	H328	H	0.500092	0.735754	0.301505
	H329	H	0.482145	0.729378	0.297090
	O330	O	-0.191567	0.865452	0.008767
	H331	H	-0.191423	0.857798	0.033876
	H332	H	-0.205943	0.848469	0.010665
	O333	O	0.333471	0.695196	0.328210
	H334	H	0.348598	0.664346	0.319091
	H335	H	0.334189	0.690714	0.336894
	O336	O	-0.960625	0.037578	0.966717
	H337	H	-0.958110	0.022450	0.958207
	H338	H	-0.968243	0.020355	0.958140
	O339	O	0.199237	0.937440	0.998074
	H340	H	0.185419	0.948898	0.997844
	H341	H	0.204947	0.950803	0.990838
	O342	O	0.043361	0.795517	1.041019
	H343	H	0.024844	0.792055	1.070456
	H344	H	0.020571	0.792120	1.017612
	O345	O	0.950691	1.195974	0.153504
	H346	H	0.967380	1.177525	0.134384
	H347	H	0.961611	1.188773	0.149256
	O348	O	0.731578	0.729029	0.598500
	H349	H	0.726660	0.726216	0.580225
	H350	H	0.737435	0.732440	0.585792
	O351	O	0.414689	0.485217	0.472424
	H352	H	0.426026	0.472572	0.487674
	H353	H	0.425414	0.479447	0.448509
	O354	O	0.097287	1.135926	-0.162728
	H355	H	0.103707	1.129821	-0.165168
	H356	H	0.099507	1.147878	-0.173431
	O357	O	-0.281241	-0.604114	1.453845
	H358	H	-0.284787	-0.599716	1.479953
	H359	H	-0.268827	-0.616970	1.464534
	O360	O	0.436187	0.628036	0.491695
	H361	H	0.434809	0.621452	0.480702
	H362	H	0.437759	0.623410	0.480904
	O363	O	-0.079427	-0.025438	1.043140
	H364	H	-0.074443	-0.031851	1.034864
	H365	H	-0.094314	-0.027564	1.037764
	O366	O	-0.038618	0.217121	-0.190942
	H367	H	-0.025246	0.221284	-0.191182
	H368	H	-0.024238	0.216459	-0.193847
	O369	O	1.074298	0.078092	0.926629
	H370	H	1.071767	0.078568	0.922587
	H371	H	1.076934	0.059589	0.917226
	O372	O	0.825683	0.202671	0.849122
	H373	H	0.845427	0.215786	0.865349
	H374	H	0.843898	0.213912	0.867533
	O375	O	0.728798	0.537971	0.719736
	H376	H	0.746511	0.535522	0.744920
	H377	H	0.728751	0.556767	0.708325
	O378	O	0.304359	0.507753	0.691824
	H379	H	0.289655	0.513769	0.693073
	H380	H	0.291963	0.525120	0.687557
	O381	O	0.345160	0.734934	0.508978
	H382	H	0.347935	0.716762	0.498341
	H383	H	0.325988	0.759731	0.498820
	O384	O	0.098165	1.149587	0.147099
	H385	H	0.086442	1.146836	0.156999
	H386	H	0.099176	1.152810	0.141681
	O387	O	-0.023891	0.078289	1.164265
	H388	H	-0.035102	0.071252	1.168855
	H389	H	-0.008022	0.061660	1.145045
	O390	O	0.212498	-0.179905	-0.094656
	H391	H	0.218116	-0.200342	-0.064332
	H392	H	0.188502	-0.197824	-0.091173
	O393	O	1.030257	0.906105	0.805929
	H394	H	1.039359	0.892757	0.793058
	H395	H	1.048850	0.910384	0.803347
	O396	O	1.210013	-0.082199	-0.191565
	H397	H	1.233294	-0.059782	-0.212926
	H398	H	1.213782	-0.112746	-0.159926
	O399	O	0.402446	-0.682976	0.716848
	H400	H	0.382117	-0.663873	0.711663
	H401	H	0.398437	-0.692593	0.719045
	O402	O	0.639193	1.478729	0.501364
	H403	H	0.636029	1.458855	0.502768
	H404	H	0.654772	1.477491	0.493630
	O405	O	0.818367	0.819276	0.203940
	H406	H	0.825364	0.813571	0.218752
	H407	H	0.837615	0.840411	0.209332
	O408	O	0.800618	0.024334	0.018460
	H409	H	0.800663	0.014855	0.012497
	H410	H	0.792156	0.012292	-0.004436
	O411	O	0.988364	1.212501	0.030848
	H412	H	1.008903	1.194897	0.025960
	H413	H	1.000762	1.210880	0.024541
	O414	O	-0.081619	-0.195499	0.149191
	H415	H	-0.070199	-0.184422	0.175341
	H416	H	-0.074077	-0.208736	0.166696
	O417	O	0.496559	0.477343	0.313629
	H418	H	0.514567	0.457289	0.309433
	H419	H	0.516715	0.472030	0.329982
	O420	O	0.189309	0.146625	0.088584
	H421	H	0.172162	0.143694	0.074479
	H422	H	0.196177	0.147369	0.094206
	O423	O	0.189289	0.216828	0.121165
	H424	H	0.192777	0.218443	0.132755
	H425	H	0.190824	0.217969	0.138849
	O426	O	0.577949	0.706464	0.681808
	H427	H	0.567210	0.721641	0.706512
	H428	H	0.562562	0.700092	0.663639
	O429	O	0.618546	0.695781	0.389600
	H430	H	0.611667	0.686064	0.385270
	H431	H	0.601470	0.685072	0.399624
	O432	O	0.367389	0.319728	0.468050
	H433	H	0.385790	0.333674	0.447546
	H434	H	0.356464	0.311954	0.475680
	O435	O	0.522205	0.653419	0.585396
	H436	H	0.510877	0.656851	0.600145
	H437	H	0.534596	0.660534	0.573851
	O438	O	0.200065	0.020665	0.204558
	H439	H	0.213809	0.019079	0.200767
	H440	H	0.189125	0.030737	0.188853
	O441	O	0.907221	-0.176970	-0.102754
	H442	H	0.901640	-0.179292	-0.112166
	H443	H	0.875511	-0.180382	-0.113244
	O444	O	0.224008	0.898124	1.015094
	H445	H	0.223283	0.921488	1.013525
	H446	H	0.225011	0.871971	1.019308
	O447	O	0.602496	1.554476	0.408769
	H448	H	0.594011	1.553547	0.403263
	H449	H	0.597131	1.543009	0.409472
	O450	O	0.630611	0.404143	0.670879
	H451	H	0.622626	0.412580	0.686994
	H452	H	0.624580	0.403730	0.678712
	O453	O	0.705486	0.661887	0.624893
	H454	H	0.700904	0.670021	0.595601
	H455	H	0.682404	0.663322	0.625688
