data_Molecule from HDF5

_cell_length_a		16.293250
_cell_length_b		16.230192
_cell_length_c		16.327985
_cell_angle_alpha	90.236695
_cell_angle_beta	89.795558
_cell_angle_gamma	89.928059
_symmetry_space_group_name_H-M	'P 1'
_symmetry_Int_Tables_number		1

loop_
	_symmetry_equiv_pos_as_xyz
	x,y,z

loop_
	_atom_site_label
	_atom_site_type_symbol
	_atom_site_fract_x
	_atom_site_fract_y
	_atom_site_fract_z
	H0	H	0.394673	0.837024	0.711941
	H1	H	0.595946	0.162224	0.713520
	H2	H	0.597081	0.837133	0.278758
	H3	H	0.395966	0.164025	0.282108
	H4	H	0.712332	0.398577	0.835008
	H5	H	0.708539	0.598599	0.160663
	H6	H	0.277756	0.600449	0.835064
	H7	H	0.276959	0.398969	0.159206
	H8	H	0.831806	0.716026	0.398909
	H9	H	0.157919	0.716911	0.596408
	H10	H	0.831626	0.285674	0.596503
	H11	H	0.157689	0.285617	0.395910
	H12	H	0.831672	0.401734	0.711985
	H13	H	0.156732	0.604216	0.715082
	H14	H	0.831465	0.601095	0.282398
	H15	H	0.156668	0.398901	0.278667
	H16	H	0.395659	0.715047	0.834084
	H17	H	0.592603	0.714885	0.159876
	H18	H	0.595733	0.284089	0.833996
	H19	H	0.396045	0.285389	0.160684
	H20	H	0.711158	0.836156	0.395267
	H21	H	0.710240	0.163032	0.596560
	H22	H	0.278369	0.837605	0.597569
	H23	H	0.281189	0.163681	0.397740
	H24	H	0.895576	0.336250	0.211412
	H25	H	0.093871	0.663153	0.212893
	H26	H	0.096432	0.337648	0.777852
	H27	H	0.895312	0.663680	0.785027
	H28	H	0.212475	0.899778	0.333469
	H29	H	0.211610	0.102845	0.658626
	H30	H	0.779767	0.099952	0.333412
	H31	H	0.777708	0.899538	0.658003
	H32	H	0.332474	0.215660	0.897984
	H33	H	0.659007	0.214816	0.095886
	H34	H	0.331355	0.786576	0.096173
	H35	H	0.658939	0.783968	0.897090
	H36	H	0.332946	0.900401	0.213862
	H37	H	0.658670	0.099935	0.212036
	H38	H	0.332646	0.100448	0.780961
	H39	H	0.657912	0.898226	0.779541
	H40	H	0.897915	0.214185	0.332777
	H41	H	0.094442	0.218169	0.658709
	H42	H	0.095196	0.783715	0.333762
	H43	H	0.896027	0.787567	0.659693
	H44	H	0.210515	0.336600	0.895391
	H45	H	0.210475	0.663007	0.098009
	H46	H	0.780963	0.336110	0.095792
	H47	H	0.779883	0.663571	0.899991
	H48	H	0.402449	0.117298	0.591892
	H49	H	0.592897	0.882757	0.583747
	H50	H	0.589706	0.115108	0.408329
	H51	H	0.406635	0.886060	0.408901
	H52	H	0.592336	0.401992	0.116077
	H53	H	0.576713	0.593917	0.884335
	H54	H	0.401969	0.590174	0.112252
	H55	H	0.405099	0.404392	0.881256
	H56	H	0.109802	0.588075	0.405004
	H57	H	0.880056	0.587999	0.593597
	H58	H	0.113217	0.406538	0.593410
	H59	H	0.882993	0.418239	0.410360
	H60	H	0.109794	0.406670	0.582944
	H61	H	0.876470	0.598290	0.594401
	H62	H	0.110752	0.591310	0.402807
	H63	H	0.874631	0.409291	0.391575
	H64	H	0.403734	0.593148	0.111910
	H65	H	0.596367	0.600138	0.875982
	H66	H	0.591117	0.414102	0.112021
	H67	H	0.399599	0.408592	0.880889
	H68	H	0.591670	0.118563	0.400625
	H69	H	0.586726	0.881598	0.593105
	H70	H	0.407547	0.114781	0.589426
	H71	H	0.399636	0.882864	0.404305
	H72	H	0.908310	0.616102	0.096429
	H73	H	0.099944	0.379075	0.087856
	H74	H	0.087713	0.615720	0.907132
	H75	H	0.909168	0.383956	0.899415
	H76	H	0.084312	0.902635	0.612682
	H77	H	0.089242	0.086850	0.382684
	H78	H	0.900648	0.099554	0.614247
	H79	H	0.900046	0.910086	0.379770
	H80	H	0.614367	0.097047	0.899930
	H81	H	0.377629	0.090219	0.098232
	H82	H	0.612532	0.908317	0.091235
	H83	H	0.378948	0.912709	0.897525
	H84	H	0.612168	0.903575	0.086595
	H85	H	0.377817	0.099890	0.087676
	H86	H	0.609062	0.092532	0.910831
	H87	H	0.377791	0.899489	0.904804
	H88	H	0.897429	0.088709	0.611854
	H89	H	0.084093	0.095395	0.381312
	H90	H	0.094485	0.910735	0.613507
	H91	H	0.906733	0.908659	0.381859
	H92	H	0.086152	0.616838	0.903902
	H93	H	0.078234	0.382487	0.100895
	H94	H	0.901156	0.614619	0.081855
	H95	H	0.903952	0.386056	0.911356
	H96	H	0.402924	0.115690	0.585956
	H97	H	0.581830	0.885794	0.584591
	H98	H	0.583413	0.116396	0.403110
	H99	H	0.407631	0.883572	0.400408
	H100	H	0.580788	0.406421	0.111460
	H101	H	0.593268	0.579773	0.883440
	H102	H	0.400307	0.593129	0.112814
	H103	H	0.405523	0.410912	0.884023
	H104	H	0.110245	0.592440	0.405918
	H105	H	0.880793	0.594505	0.585653
	H106	H	0.108607	0.415660	0.588863
	H107	H	0.876530	0.395781	0.410880
	H108	H	0.892265	0.620260	0.093897
	H109	H	0.079493	0.389220	0.075934
	H110	H	0.084413	0.615301	0.906929
	H111	H	0.896918	0.379877	0.901883
	H112	H	0.083560	0.915011	0.608612
	H113	H	0.093831	0.094956	0.378265
	H114	H	0.908019	0.091566	0.609701
	H115	H	0.902029	0.903585	0.378637
	H116	H	0.610298	0.084792	0.900670
	H117	H	0.383180	0.086350	0.085225
	H118	H	0.609847	0.909930	0.085873
	H119	H	0.383119	0.911449	0.911882
	C120	C	0.373965	0.008547	0.618425
	C121	C	0.616643	0.990822	0.617548
	C122	C	0.617462	0.008304	0.374613
	C123	C	0.374966	0.992243	0.375443
	C124	C	0.617400	0.377627	0.005595
	C125	C	0.616661	0.620728	0.988883
	C126	C	0.372727	0.621603	0.005169
	C127	C	0.373405	0.378191	0.989193
	C128	C	0.002942	0.621144	0.375717
	C129	C	0.986304	0.623825	0.620218
	C130	C	0.003128	0.379892	0.617679
	C131	C	0.985812	0.378437	0.374356
	C132	C	0.872672	0.508717	0.119085
	C133	C	0.115137	0.491442	0.117717
	C134	C	0.116155	0.508476	0.874991
	C135	C	0.873800	0.491295	0.876211
	C136	C	0.117742	0.878925	0.504837
	C137	C	0.117681	0.122739	0.487807
	C138	C	0.873645	0.121937	0.504317
	C139	C	0.873227	0.878766	0.487701
	C140	C	0.503774	0.121116	0.875093
	C141	C	0.487366	0.121391	0.118753
	C142	C	0.503926	0.878404	0.118275
	C143	C	0.487129	0.877640	0.874809
	C144	C	0.374645	0.885969	0.674194
	C145	C	0.615381	0.113700	0.674648
	C146	C	0.616535	0.885763	0.317467
	C147	C	0.375953	0.114916	0.319732
	C148	C	0.673647	0.378731	0.883263
	C149	C	0.671064	0.618910	0.111572
	C150	C	0.316039	0.620654	0.883342
	C151	C	0.316136	0.379220	0.111017
	C152	C	0.880419	0.677581	0.378690
	C153	C	0.109005	0.679318	0.617201
	C154	C	0.880338	0.323755	0.616351
	C155	C	0.108529	0.322933	0.375593
	C156	C	0.880334	0.381369	0.673848
	C157	C	0.108456	0.622775	0.676011
	C158	C	0.880424	0.620401	0.320465
	C159	C	0.107956	0.379334	0.317138
	C160	C	0.375061	0.677265	0.882752
	C161	C	0.613433	0.676731	0.111372
	C162	C	0.615732	0.321731	0.883075
	C163	C	0.375386	0.322814	0.111647
	C164	C	0.673334	0.885368	0.375372
	C165	C	0.671985	0.114133	0.616443
	C166	C	0.317106	0.886158	0.617041
	C167	C	0.319088	0.114943	0.377587
	C168	C	0.875308	0.385079	0.173735
	C169	C	0.113736	0.614477	0.174314
	C170	C	0.115632	0.386088	0.817150
	C171	C	0.875159	0.614620	0.822045
	C172	C	0.174069	0.879541	0.382282
	C173	C	0.173436	0.122425	0.609990
	C174	C	0.818263	0.119591	0.381832
	C175	C	0.816529	0.880208	0.609670
	C176	C	0.381238	0.177525	0.877316
	C177	C	0.610164	0.177083	0.116218
	C178	C	0.380723	0.823375	0.116793
	C179	C	0.609977	0.821724	0.876675
	C180	C	0.381378	0.880283	0.175169
	C181	C	0.610184	0.119943	0.174041
	C182	C	0.381402	0.120136	0.819114
	C183	C	0.609479	0.878288	0.818122
	C184	C	0.876890	0.176582	0.381651
	C185	C	0.115209	0.179816	0.610047
	C186	C	0.115978	0.822084	0.382328
	C187	C	0.875259	0.824355	0.610529
	C188	C	0.172638	0.385725	0.875331
	C189	C	0.171626	0.614365	0.117301
	C190	C	0.818068	0.385185	0.116653
	C191	C	0.818292	0.614582	0.879891
	C192	C	0.397511	0.093822	0.595586
	C193	C	0.593989	0.905506	0.594208
	C194	C	0.594956	0.094618	0.397519
	C195	C	0.397853	0.906181	0.398033
	C196	C	0.594702	0.400687	0.091273
	C197	C	0.595029	0.597991	0.903447
	C198	C	0.395219	0.598812	0.090379
	C199	C	0.396584	0.401173	0.903965
	C200	C	0.088273	0.597551	0.397870
	C201	C	0.901153	0.600436	0.597840
	C202	C	0.088307	0.403008	0.595061
	C203	C	0.900032	0.401143	0.397533
	C204	C	0.894252	0.594518	0.097440
	C205	C	0.092587	0.405731	0.094703
	C206	C	0.092957	0.593926	0.898916
	C207	C	0.896678	0.405416	0.897765
	C208	C	0.094495	0.902722	0.589698
	C209	C	0.095439	0.099231	0.402673
	C210	C	0.895520	0.099750	0.589895
	C211	C	0.896236	0.901054	0.402136
	C212	C	0.589107	0.098073	0.897249
	C213	C	0.401748	0.098806	0.096772
	C214	C	0.589445	0.900760	0.094878
	C215	C	0.402044	0.900951	0.897931
	Zn216	Zn	0.495450	-0.000765	0.746286
	Zn217	Zn	0.495992	0.000433	0.246771
	Zn218	Zn	0.745663	0.498997	-0.002692
	Zn219	Zn	0.243797	0.499640	-0.003037
	Zn220	Zn	-0.004935	0.750891	0.496884
	Zn221	Zn	-0.005093	0.251083	0.496286
	Zn222	Zn	-0.005592	0.500563	0.747376
	Zn223	Zn	-0.006126	0.500043	0.246757
	Zn224	Zn	0.494895	0.749885	-0.003213
	Zn225	Zn	0.495503	0.249846	-0.002945
	Zn226	Zn	0.745028	-0.000403	0.496002
	Zn227	Zn	0.246333	0.000465	0.496574
	N228	N	0.409348	0.963010	0.675292
	N229	N	0.581400	0.036102	0.675492
	N230	N	0.582199	0.963344	0.317213
	N231	N	0.410247	0.037524	0.318663
	N232	N	0.674735	0.412937	0.960473
	N233	N	0.673325	0.584845	0.034357
	N234	N	0.314485	0.586935	0.960538
	N235	N	0.314900	0.413021	0.033883
	N236	N	0.957641	0.678045	0.412517
	N237	N	0.032041	0.680064	0.583135
	N238	N	0.957521	0.322559	0.582106
	N239	N	0.031492	0.322289	0.410587
	N240	N	0.957459	0.415729	0.674928
	N241	N	0.030990	0.589103	0.678145
	N242	N	0.957697	0.586125	0.318424
	N243	N	0.030504	0.413095	0.316436
	N244	N	0.409603	0.677962	0.959444
	N245	N	0.580221	0.677978	0.034091
	N246	N	0.581648	0.320960	0.960267
	N247	N	0.410411	0.322291	0.034768
	N248	N	0.673746	0.962661	0.410319
	N249	N	0.672969	0.036994	0.581598
	N250	N	0.316417	0.963491	0.583197
	N251	N	0.318487	0.037468	0.411588
	N252	N	0.908636	0.462929	0.175451
	N253	N	0.079470	0.537127	0.175024
	N254	N	0.081322	0.463581	0.816849
	N255	N	0.909094	0.537018	0.819900
	N256	N	0.175352	0.914100	0.459354
	N257	N	0.175297	0.087850	0.532887
	N258	N	0.816045	0.086257	0.459234
	N259	N	0.815350	0.913403	0.532352
	N260	N	0.458225	0.178023	0.911623
	N261	N	0.532789	0.178303	0.082793
	N262	N	0.457903	0.822014	0.082133
	N263	N	0.532817	0.821111	0.911333
	N264	N	0.458975	0.913615	0.176176
	N265	N	0.532924	0.085978	0.175755
	N266	N	0.458662	0.085825	0.817608
	N267	N	0.532180	0.912266	0.816809
	N268	N	0.910615	0.177989	0.458764
	N269	N	0.081303	0.180113	0.533054
	N270	N	0.081738	0.821444	0.459533
	N271	N	0.909874	0.823314	0.533641
	N272	N	0.173096	0.462834	0.910528
	N273	N	0.172564	0.536893	0.082956
	N274	N	0.816256	0.462704	0.083144
	N275	N	0.817140	0.536615	0.912707
	O276	O	-0.030208	0.012512	-0.039581
	H277	H	-0.034726	0.023273	-0.045569
	H278	H	-0.026453	0.002227	-0.040081
	O279	O	0.392882	0.484041	0.575350
	H280	H	0.388621	0.487259	0.585286
	H281	H	0.389034	0.487614	0.564755
	O282	O	0.443868	0.448525	0.451730
	H283	H	0.441189	0.453690	0.449593
	H284	H	0.451269	0.452992	0.446315
	O285	O	-0.022153	0.974451	0.918046
	H286	H	-0.031535	0.977592	0.917344
	H287	H	-0.013671	0.976071	0.918020
	O288	O	0.533300	0.507024	0.453230
	H289	H	0.533874	0.506825	0.450313
	H290	H	0.523517	0.497187	0.455439
	O291	O	0.987385	0.962096	0.928270
	H292	H	0.986327	0.961899	0.931271
	H293	H	0.987791	0.954746	0.915605
	O294	O	1.116408	0.923164	0.971567
	H295	H	1.121116	0.921235	0.973093
	H296	H	1.115016	0.920961	0.977667
	O297	O	1.007759	0.071230	0.964372
	H298	H	0.999699	0.082725	0.966314
	H299	H	1.010180	0.067720	0.957980
	O300	O	0.444477	0.467351	0.434617
	H301	H	0.431787	0.468044	0.439563
	H302	H	0.442643	0.473416	0.445243
	O303	O	0.957244	-0.054012	-0.073470
	H304	H	0.966970	-0.056408	-0.067659
	H305	H	0.964619	-0.052261	-0.080193
	O306	O	0.100185	0.933841	0.866054
	H307	H	0.110956	0.934219	0.865929
	H308	H	0.111646	0.917252	0.857533
	O309	O	0.492281	0.395508	0.605254
	H310	H	0.490960	0.390298	0.615012
	H311	H	0.491154	0.401646	0.603115
	O312	O	1.362104	0.423013	1.373850
	H313	H	1.366065	0.424236	1.375422
	H314	H	1.357766	0.422805	1.372505
	O315	O	0.421249	0.558602	0.496247
	H316	H	0.424462	0.554642	0.489502
	H317	H	0.442779	0.560087	0.500731
	O318	O	0.363962	0.470423	0.546704
	H319	H	0.356986	0.474476	0.542434
	H320	H	0.361862	0.460147	0.551974
	O321	O	0.956004	1.003622	0.997405
	H322	H	0.945250	0.998462	0.999967
	H323	H	0.941506	1.011446	1.000961
	O324	O	0.458019	0.528189	0.527970
	H325	H	0.462572	0.534257	0.535109
	H326	H	0.461147	0.526793	0.531433
	O327	O	0.581687	0.495870	0.428106
	H328	H	0.587786	0.494868	0.430861
	H329	H	0.582606	0.487167	0.424449
	O330	O	1.003813	-0.023908	1.016984
	H331	H	1.004453	-0.031422	1.023508
	H332	H	0.995490	-0.018014	1.014332
	O333	O	1.077365	1.028796	0.042014
	H334	H	1.074253	1.044319	0.047268
	H335	H	1.083771	1.034478	0.049368
	O336	O	0.571532	0.504842	0.452188
	H337	H	0.572948	0.504378	0.454650
	H338	H	0.562810	0.512220	0.457693
	O339	O	0.557677	0.495188	0.464722
	H340	H	0.565046	0.488547	0.455180
	H341	H	0.546963	0.489238	0.457956
	O342	O	0.010897	1.058718	0.016116
	H343	H	0.004197	1.064238	0.015198
	H344	H	0.009276	1.052559	0.015288
	O345	O	-0.010868	0.002957	-0.035628
	H346	H	-0.000683	-0.001076	-0.033231
	H347	H	-0.009137	0.002661	-0.032730
	O348	O	0.566087	0.609722	0.534329
	H349	H	0.573653	0.601363	0.537621
	H350	H	0.568922	0.605051	0.539136
	O351	O	0.449282	0.442964	0.441864
	H352	H	0.451668	0.449131	0.440355
	H353	H	0.447601	0.441491	0.452292
	O354	O	0.430510	0.545815	0.440229
	H355	H	0.431990	0.548405	0.428117
	H356	H	0.427185	0.550113	0.436864
	O357	O	0.513858	0.500500	0.592594
	H358	H	0.509926	0.496201	0.589298
	H359	H	0.519363	0.496956	0.586746
	O360	O	-0.026578	0.041080	-0.039141
	H361	H	-0.027244	0.034490	-0.033383
	H362	H	-0.038480	0.049248	-0.047737
	O363	O	0.467864	0.539156	0.578469
	H364	H	0.471292	0.542793	0.585581
	H365	H	0.473491	0.541190	0.565244
	O366	O	0.022105	0.007990	0.947685
	H367	H	0.023550	0.001289	0.958876
	H368	H	0.037102	-0.000776	0.940717
	O369	O	0.513175	0.459035	0.483662
	H370	H	0.514807	0.456736	0.478561
	H371	H	0.509449	0.464000	0.483161
