data_Molecule from HDF5

_cell_length_a		16.265595
_cell_length_b		16.412196
_cell_length_c		16.195403
_cell_angle_alpha	89.891584
_cell_angle_beta	90.067569
_cell_angle_gamma	90.270193
_symmetry_space_group_name_H-M	'P 1'
_symmetry_Int_Tables_number		1

loop_
	_symmetry_equiv_pos_as_xyz
	x,y,z

loop_
	_atom_site_label
	_atom_site_type_symbol
	_atom_site_fract_x
	_atom_site_fract_y
	_atom_site_fract_z
	H0	H	0.395193	0.834977	0.713960
	H1	H	0.593451	0.160873	0.714743
	H2	H	0.589808	0.835442	0.284935
	H3	H	0.395561	0.160587	0.284076
	H4	H	0.706769	0.400503	0.836053
	H5	H	0.706845	0.596050	0.164607
	H6	H	0.279790	0.595179	0.835401
	H7	H	0.280744	0.399426	0.164778
	H8	H	0.830751	0.713712	0.397337
	H9	H	0.155908	0.714143	0.601033
	H10	H	0.830749	0.280776	0.601395
	H11	H	0.156096	0.282153	0.399995
	H12	H	0.828965	0.399417	0.712948
	H13	H	0.157570	0.593972	0.711928
	H14	H	0.829766	0.594034	0.286593
	H15	H	0.157920	0.401807	0.287942
	H16	H	0.393429	0.712826	0.836059
	H17	H	0.594976	0.713916	0.163336
	H18	H	0.593223	0.284291	0.836236
	H19	H	0.392261	0.281080	0.162677
	H20	H	0.707127	0.835188	0.400815
	H21	H	0.710213	0.160297	0.598316
	H22	H	0.276314	0.835377	0.599488
	H23	H	0.277438	0.160424	0.400024
	H24	H	0.894465	0.335598	0.215758
	H25	H	0.093826	0.660238	0.215396
	H26	H	0.090655	0.334244	0.785921
	H27	H	0.897286	0.660724	0.785300
	H28	H	0.204068	0.902107	0.335072
	H29	H	0.207084	0.095156	0.664433
	H30	H	0.781398	0.094313	0.334991
	H31	H	0.780021	0.899596	0.665087
	H32	H	0.330191	0.214342	0.896699
	H33	H	0.655394	0.214635	0.099447
	H34	H	0.330954	0.781368	0.099568
	H35	H	0.656953	0.782972	0.898930
	H36	H	0.329195	0.899890	0.212420
	H37	H	0.656855	0.096621	0.211871
	H38	H	0.328617	0.094472	0.785038
	H39	H	0.657633	0.903635	0.786956
	H40	H	0.892742	0.213772	0.336910
	H41	H	0.093391	0.212305	0.664439
	H42	H	0.092200	0.783816	0.336080
	H43	H	0.892207	0.780654	0.663295
	H44	H	0.209094	0.335420	0.900695
	H45	H	0.210693	0.659856	0.099771
	H46	H	0.776011	0.336073	0.101535
	H47	H	0.778936	0.660477	0.901163
	H48	H	0.399770	0.114766	0.593364
	H49	H	0.594173	0.882188	0.589579
	H50	H	0.595724	0.115336	0.406754
	H51	H	0.398326	0.883086	0.406455
	H52	H	0.592508	0.406445	0.119634
	H53	H	0.580951	0.590949	0.884457
	H54	H	0.396976	0.596347	0.120271
	H55	H	0.396440	0.405801	0.881948
	H56	H	0.110405	0.588966	0.405684
	H57	H	0.873883	0.600814	0.589950
	H58	H	0.111937	0.395292	0.591314
	H59	H	0.879917	0.412552	0.408812
	H60	H	0.107767	0.408790	0.586762
	H61	H	0.880876	0.585304	0.583602
	H62	H	0.111487	0.596074	0.406879
	H63	H	0.874188	0.401035	0.402170
	H64	H	0.399642	0.583087	0.115067
	H65	H	0.586895	0.594348	0.881548
	H66	H	0.579758	0.411525	0.113087
	H67	H	0.402850	0.409139	0.884459
	H68	H	0.586074	0.116146	0.398372
	H69	H	0.584009	0.881148	0.601138
	H70	H	0.402281	0.111934	0.591186
	H71	H	0.398171	0.881887	0.406447
	H72	H	0.897984	0.612697	0.088815
	H73	H	0.093093	0.381378	0.090840
	H74	H	0.093900	0.616371	0.899911
	H75	H	0.905868	0.380863	0.893945
	H76	H	0.086412	0.902323	0.618012
	H77	H	0.078838	0.097911	0.382955
	H78	H	0.904747	0.093323	0.617466
	H79	H	0.891980	0.898225	0.379041
	H80	H	0.608189	0.091415	0.909801
	H81	H	0.374834	0.093419	0.091838
	H82	H	0.613505	0.904946	0.101361
	H83	H	0.381353	0.908816	0.916111
	H84	H	0.611308	0.896667	0.085519
	H85	H	0.376954	0.091124	0.087781
	H86	H	0.609492	0.091514	0.904316
	H87	H	0.375688	0.909400	0.897756
	H88	H	0.896971	0.090406	0.618344
	H89	H	0.092878	0.092340	0.380263
	H90	H	0.085147	0.907597	0.616872
	H91	H	0.898152	0.913423	0.384994
	H92	H	0.078795	0.611369	0.903950
	H93	H	0.087077	0.380684	0.100320
	H94	H	0.897667	0.614825	0.097507
	H95	H	0.906482	0.387453	0.918805
	H96	H	0.398492	0.112872	0.590021
	H97	H	0.579705	0.886216	0.587480
	H98	H	0.583784	0.111047	0.409727
	H99	H	0.398195	0.882938	0.406406
	H100	H	0.580340	0.397334	0.117994
	H101	H	0.588180	0.587725	0.883528
	H102	H	0.410297	0.592541	0.115475
	H103	H	0.402688	0.402571	0.881929
	H104	H	0.108622	0.591688	0.411998
	H105	H	0.874619	0.586308	0.601222
	H106	H	0.111341	0.406612	0.601351
	H107	H	0.877912	0.400586	0.415506
	H108	H	0.905847	0.612403	0.094056
	H109	H	0.081689	0.384416	0.091436
	H110	H	0.091015	0.611192	0.915294
	H111	H	0.885128	0.379072	0.908558
	H112	H	0.081816	0.903980	0.617015
	H113	H	0.081261	0.083488	0.386755
	H114	H	0.902763	0.085788	0.615309
	H115	H	0.908729	0.900274	0.383421
	H116	H	0.609856	0.096632	0.907479
	H117	H	0.376701	0.088489	0.092110
	H118	H	0.606245	0.913391	0.087456
	H119	H	0.373957	0.892975	0.907429
	C120	C	0.371365	0.005840	0.620700
	C121	C	0.615622	0.990154	0.621689
	C122	C	0.615845	0.006546	0.376949
	C123	C	0.370719	0.990056	0.377627
	C124	C	0.613790	0.377023	0.008720
	C125	C	0.614597	0.619777	0.991344
	C126	C	0.372607	0.619160	0.008554
	C127	C	0.371935	0.376663	0.991198
	C128	C	0.002057	0.619823	0.378876
	C129	C	0.984632	0.619297	0.620976
	C130	C	0.002053	0.375630	0.621674
	C131	C	0.985066	0.376480	0.379269
	C132	C	0.871468	0.505997	0.122584
	C133	C	0.116051	0.489727	0.122583
	C134	C	0.115596	0.505525	0.877928
	C135	C	0.871474	0.489860	0.878363
	C136	C	0.113473	0.876511	0.508562
	C137	C	0.114047	0.119427	0.491682
	C138	C	0.872626	0.118728	0.508649
	C139	C	0.871134	0.875483	0.491478
	C140	C	0.501135	0.120836	0.877300
	C141	C	0.484212	0.119872	0.119780
	C142	C	0.501986	0.876277	0.120268
	C143	C	0.485066	0.876392	0.878252
	C144	C	0.374182	0.883499	0.676149
	C145	C	0.613297	0.112383	0.676605
	C146	C	0.611225	0.884055	0.322573
	C147	C	0.374370	0.112208	0.322224
	C148	C	0.669512	0.379772	0.885276
	C149	C	0.669873	0.617161	0.115160
	C150	C	0.317461	0.615893	0.884652
	C151	C	0.317742	0.379139	0.115216
	C152	C	0.879431	0.675221	0.378695
	C153	C	0.107414	0.675334	0.620127
	C154	C	0.878961	0.319643	0.620339
	C155	C	0.107800	0.321151	0.380823
	C156	C	0.878234	0.378597	0.676105
	C157	C	0.108207	0.615681	0.675485
	C158	C	0.878836	0.615959	0.323537
	C159	C	0.108625	0.380439	0.324930
	C160	C	0.373702	0.674661	0.885105
	C161	C	0.613843	0.675507	0.114523
	C162	C	0.612682	0.322142	0.885162
	C163	C	0.372757	0.319871	0.114104
	C164	C	0.669408	0.883896	0.380386
	C165	C	0.671576	0.112165	0.619031
	C166	C	0.315383	0.883663	0.619163
	C167	C	0.315539	0.112091	0.379626
	C168	C	0.873645	0.384029	0.178125
	C169	C	0.113803	0.611825	0.177483
	C170	C	0.111718	0.382955	0.823464
	C171	C	0.875325	0.612098	0.822887
	C172	C	0.167928	0.880157	0.384681
	C173	C	0.169685	0.116152	0.615395
	C174	C	0.818177	0.115685	0.384462
	C175	C	0.816646	0.878752	0.615414
	C176	C	0.378569	0.176109	0.877503
	C177	C	0.607009	0.175706	0.118532
	C178	C	0.379260	0.820095	0.119365
	C179	C	0.608277	0.821568	0.879742
	C180	C	0.378416	0.878907	0.175391
	C181	C	0.607691	0.117087	0.174621
	C182	C	0.377785	0.116434	0.822026
	C183	C	0.608622	0.881148	0.823775
	C184	C	0.873461	0.174933	0.385457
	C185	C	0.113078	0.174404	0.615242
	C186	C	0.111756	0.821730	0.385099
	C187	C	0.872417	0.819468	0.614586
	C188	C	0.170168	0.383304	0.881039
	C189	C	0.171722	0.611710	0.119782
	C190	C	0.814897	0.384311	0.121153
	C191	C	0.816902	0.611998	0.880652
	C192	C	0.393723	0.091149	0.598082
	C193	C	0.592739	0.905055	0.599218
	C194	C	0.594800	0.092026	0.398618
	C195	C	0.392049	0.904743	0.399865
	C196	C	0.591007	0.398859	0.094614
	C197	C	0.591864	0.597577	0.905384
	C198	C	0.395573	0.597004	0.094732
	C199	C	0.394321	0.399152	0.905061
	C200	C	0.088000	0.598515	0.401619
	C201	C	0.898617	0.597444	0.598212
	C202	C	0.088185	0.397315	0.599615
	C203	C	0.899429	0.398265	0.401993
	C204	C	0.893931	0.591371	0.099942
	C205	C	0.093795	0.404243	0.100764
	C206	C	0.094026	0.590771	0.899888
	C207	C	0.892768	0.404644	0.900719
	C208	C	0.090925	0.898153	0.594980
	C209	C	0.091121	0.097612	0.405542
	C210	C	0.894998	0.096429	0.594696
	C211	C	0.893159	0.897515	0.404805
	C212	C	0.586921	0.099465	0.900253
	C213	C	0.398148	0.097544	0.097355
	C214	C	0.588060	0.898470	0.097984
	C215	C	0.399227	0.897587	0.900437
	Zn216	Zn	0.492898	-0.001673	0.750065
	Zn217	Zn	0.492904	-0.001868	0.248197
	Zn218	Zn	0.742129	0.498092	0.000545
	Zn219	Zn	0.244376	0.497603	0.000311
	Zn220	Zn	-0.007037	0.747793	0.499839
	Zn221	Zn	-0.006854	0.247867	0.500474
	Zn222	Zn	-0.006759	0.497239	0.748635
	Zn223	Zn	-0.006357	0.498186	0.250914
	Zn224	Zn	0.493824	0.747573	-0.000411
	Zn225	Zn	0.492633	0.248934	-0.000836
	Zn226	Zn	0.744345	-0.001884	0.499747
	Zn227	Zn	0.241538	-0.002070	0.499946
	N228	N	0.408472	0.960328	0.677065
	N229	N	0.578993	0.035575	0.678222
	N230	N	0.578468	0.961143	0.320446
	N231	N	0.407596	0.035277	0.320641
	N232	N	0.670245	0.413430	0.963025
	N233	N	0.670465	0.582800	0.037702
	N234	N	0.316681	0.582123	0.962464
	N235	N	0.316916	0.413604	0.037672
	N236	N	0.956988	0.677703	0.412485
	N237	N	0.029458	0.677702	0.586928
	N238	N	0.956847	0.317651	0.587287
	N239	N	0.029861	0.318347	0.413756
	N240	N	0.955559	0.412866	0.676813
	N241	N	0.030896	0.581482	0.675956
	N242	N	0.956152	0.582150	0.323501
	N243	N	0.031356	0.414070	0.323997
	N244	N	0.407327	0.676728	0.963043
	N245	N	0.580236	0.677122	0.036597
	N246	N	0.578746	0.320273	0.962849
	N247	N	0.405857	0.318346	0.036007
	N248	N	0.672404	0.961049	0.413575
	N249	N	0.673142	0.035135	0.585735
	N250	N	0.313608	0.960660	0.585484
	N251	N	0.313067	0.034980	0.413186
	N252	N	0.908175	0.460633	0.178826
	N253	N	0.079588	0.535070	0.179026
	N254	N	0.078485	0.459934	0.821551
	N255	N	0.908500	0.535071	0.821418
	N256	N	0.169070	0.913636	0.462474
	N257	N	0.170463	0.082828	0.537465
	N258	N	0.817582	0.081364	0.461934
	N259	N	0.815746	0.912883	0.537604
	N260	N	0.456221	0.179071	0.911178
	N261	N	0.529238	0.177352	0.084825
	N262	N	0.457114	0.818095	0.086237
	N263	N	0.530302	0.818188	0.912632
	N264	N	0.455856	0.913205	0.176121
	N265	N	0.530295	0.083009	0.175675
	N266	N	0.455086	0.082964	0.821659
	N267	N	0.531237	0.914412	0.822695
	N268	N	0.906651	0.176877	0.463585
	N269	N	0.078988	0.176477	0.537397
	N270	N	0.078587	0.819466	0.463344
	N271	N	0.905296	0.817319	0.536513
	N272	N	0.173023	0.460648	0.913904
	N273	N	0.173219	0.534654	0.086419
	N274	N	0.813533	0.461257	0.087043
	N275	N	0.814171	0.534964	0.914135
	O276	O	0.434223	0.442227	0.475864
	H277	H	0.425350	0.454108	0.463951
	H278	H	0.441264	0.448416	0.472512
	O279	O	0.457320	0.441080	0.527842
	H280	H	0.451546	0.443197	0.524985
	H281	H	0.453709	0.435095	0.524774
	O282	O	0.486075	0.552023	0.512597
	H283	H	0.491977	0.555699	0.512583
	H284	H	0.493385	0.547120	0.508654
	O285	O	-0.019237	1.011766	1.001690
	H286	H	-0.024146	1.012136	0.992582
	H287	H	-0.029347	1.012755	0.999217
	O288	O	1.010307	1.013858	0.002517
	H289	H	1.011017	1.020850	0.007051
	H290	H	1.015814	1.022517	0.009976
	O291	O	-0.060976	0.030637	1.047558
	H292	H	-0.055697	0.029438	1.044614
	H293	H	-0.067801	0.034990	1.040920
	O294	O	0.540977	0.599016	0.539263
	H295	H	0.555316	0.600464	0.536407
	H296	H	0.535267	0.610509	0.550842
	O297	O	0.574312	0.553237	0.580304
	H298	H	0.572598	0.552779	0.578943
	H299	H	0.564342	0.550802	0.583085
	O300	O	0.559976	0.477103	0.454598
	H301	H	0.558140	0.475693	0.462515
	H302	H	0.571422	0.482713	0.449663
	O303	O	0.504552	0.484753	0.482145
	H304	H	0.518690	0.480455	0.493098
	H305	H	0.496551	0.485569	0.483544
	O306	O	1.012266	0.030619	1.009455
	H307	H	1.018613	0.030947	1.013873
	H308	H	1.007669	0.033834	1.010101
	O309	O	0.542447	0.493871	0.470784
	H310	H	0.549170	0.495135	0.468997
	H311	H	0.537848	0.485850	0.475817
	O312	O	0.483895	0.519414	0.460746
	H313	H	0.493339	0.530733	0.472173
	H314	H	0.491594	0.517886	0.464748
	O315	O	1.032375	-0.006731	1.065659
	H316	H	1.037486	-0.007311	1.063388
	H317	H	1.030065	-0.014224	1.072903
	O318	O	0.090656	-0.009833	0.019854
	H319	H	0.080910	-0.000964	0.023035
	H320	H	0.091665	-0.012461	0.017870
	O321	O	0.494618	0.557950	0.530488
	H322	H	0.493459	0.559681	0.534106
	H323	H	0.492163	0.560441	0.524539
	O324	O	1.034391	0.004388	0.025014
	H325	H	1.045780	-0.004112	0.038259
	H326	H	1.045146	0.001617	0.020566
	O327	O	0.937353	0.982843	-0.029327
	H328	H	0.928258	0.981912	-0.036710
	H329	H	0.939092	0.978746	-0.025044
	O330	O	0.515764	0.487510	0.593219
	H331	H	0.505785	0.492481	0.607119
	H332	H	0.514844	0.477642	0.591221
	O333	O	0.456772	0.517049	0.514562
	H334	H	0.451749	0.515588	0.507535
	H335	H	0.453807	0.520125	0.519927
