data_Molecule from HDF5

_cell_length_a		16.569853
_cell_length_b		16.394481
_cell_length_c		16.427799
_cell_angle_alpha	90.056762
_cell_angle_beta	89.922658
_cell_angle_gamma	89.983800
_symmetry_space_group_name_H-M	'P 1'
_symmetry_Int_Tables_number		1

loop_
	_symmetry_equiv_pos_as_xyz
	x,y,z

loop_
	_atom_site_label
	_atom_site_type_symbol
	_atom_site_fract_x
	_atom_site_fract_y
	_atom_site_fract_z
	H0	H	0.401643	0.846541	0.723641
	H1	H	0.612976	0.163065	0.726748
	H2	H	0.611632	0.847114	0.279874
	H3	H	0.397898	0.162608	0.280850
	H4	H	0.728053	0.396714	0.847486
	H5	H	0.728523	0.614366	0.161138
	H6	H	0.281227	0.611697	0.846878
	H7	H	0.278510	0.395141	0.160023
	H8	H	0.848499	0.731610	0.395719
	H9	H	0.162022	0.724587	0.607054
	H10	H	0.847797	0.282180	0.609858
	H11	H	0.161585	0.283853	0.395930
	H12	H	0.845704	0.400272	0.725154
	H13	H	0.159930	0.610356	0.725557
	H14	H	0.847863	0.615441	0.279814
	H15	H	0.159989	0.399125	0.279204
	H16	H	0.398366	0.726928	0.846560
	H17	H	0.611304	0.728468	0.162045
	H18	H	0.607273	0.285943	0.844460
	H19	H	0.398058	0.283004	0.161556
	H20	H	0.729795	0.849047	0.392991
	H21	H	0.729170	0.162809	0.610309
	H22	H	0.283107	0.848101	0.610973
	H23	H	0.282678	0.163400	0.396380
	H24	H	0.896957	0.348721	0.227710
	H25	H	0.110732	0.663273	0.226308
	H26	H	0.108205	0.347805	0.782016
	H27	H	0.897959	0.665928	0.784633
	H28	H	0.229915	0.897432	0.346683
	H29	H	0.227141	0.112522	0.661120
	H30	H	0.779396	0.116697	0.347741
	H31	H	0.780995	0.897934	0.659255
	H32	H	0.347364	0.226775	0.896212
	H33	H	0.661336	0.225642	0.106806
	H34	H	0.346867	0.782536	0.110912
	H35	H	0.661162	0.780481	0.898345
	H36	H	0.348746	0.897226	0.228043
	H37	H	0.660044	0.112567	0.225604
	H38	H	0.348073	0.109254	0.781138
	H39	H	0.662524	0.897433	0.780928
	H40	H	0.898466	0.229630	0.345698
	H41	H	0.108611	0.225591	0.661703
	H42	H	0.111337	0.784204	0.345193
	H43	H	0.901545	0.788122	0.662353
	H44	H	0.227331	0.348916	0.893654
	H45	H	0.229089	0.660622	0.112507
	H46	H	0.781894	0.347368	0.112172
	H47	H	0.779881	0.663554	0.898657
	H48	H	0.415318	0.120845	0.598998
	H49	H	0.589362	0.894140	0.591429
	H50	H	0.585379	0.115056	0.416444
	H51	H	0.415752	0.891406	0.415085
	H52	H	0.591843	0.417258	0.116524
	H53	H	0.586716	0.587169	0.896216
	H54	H	0.414329	0.596787	0.118648
	H55	H	0.416560	0.415718	0.890941
	H56	H	0.114309	0.597303	0.420491
	H57	H	0.890103	0.597821	0.594744
	H58	H	0.118245	0.414760	0.599310
	H59	H	0.897436	0.424834	0.422412
	H60	H	0.114848	0.412561	0.588138
	H61	H	0.889787	0.598432	0.593844
	H62	H	0.113864	0.588079	0.414844
	H63	H	0.891105	0.420504	0.409043
	H64	H	0.410668	0.586824	0.115942
	H65	H	0.590293	0.598040	0.891112
	H66	H	0.592051	0.413801	0.117551
	H67	H	0.411907	0.416502	0.889573
	H68	H	0.597348	0.117192	0.420940
	H69	H	0.594648	0.894339	0.584979
	H70	H	0.421624	0.117155	0.590639
	H71	H	0.420153	0.893365	0.416214
	H72	H	0.917639	0.619398	0.096721
	H73	H	0.085947	0.396467	0.086712
	H74	H	0.098013	0.621386	0.916759
	H75	H	0.912457	0.392921	0.916609
	H76	H	0.097043	0.913158	0.619072
	H77	H	0.092724	0.091589	0.390730
	H78	H	0.915663	0.094682	0.616828
	H79	H	0.920303	0.917671	0.390209
	H80	H	0.616047	0.093617	0.914454
	H81	H	0.392858	0.090405	0.092496
	H82	H	0.616416	0.911871	0.089406
	H83	H	0.394203	0.918202	0.914983
	H84	H	0.613122	0.919816	0.087814
	H85	H	0.390473	0.094521	0.094045
	H86	H	0.617186	0.094815	0.912965
	H87	H	0.393800	0.915876	0.912552
	H88	H	0.915674	0.088605	0.613781
	H89	H	0.095787	0.097789	0.388752
	H90	H	0.099002	0.922119	0.616318
	H91	H	0.915320	0.918272	0.389228
	H92	H	0.088648	0.619287	0.910944
	H93	H	0.094682	0.392408	0.087815
	H94	H	0.918508	0.615685	0.085997
	H95	H	0.912697	0.392502	0.912276
	H96	H	0.410773	0.119902	0.589450
	H97	H	0.597094	0.891596	0.592028
	H98	H	0.594459	0.120717	0.409227
	H99	H	0.416215	0.893278	0.420032
	H100	H	0.594821	0.416096	0.118180
	H101	H	0.598264	0.588516	0.891535
	H102	H	0.421222	0.590095	0.113819
	H103	H	0.414396	0.420225	0.891515
	H104	H	0.117822	0.596807	0.410451
	H105	H	0.890840	0.597580	0.593692
	H106	H	0.113078	0.423338	0.593298
	H107	H	0.892331	0.410407	0.420438
	H108	H	0.908375	0.620471	0.089687
	H109	H	0.088084	0.391807	0.094985
	H110	H	0.089122	0.615779	0.921510
	H111	H	0.915902	0.393180	0.914859
	H112	H	0.090513	0.918301	0.614572
	H113	H	0.099810	0.092225	0.389475
	H114	H	0.920998	0.092742	0.613099
	H115	H	0.917880	0.922127	0.391290
	H116	H	0.616697	0.095710	0.914981
	H117	H	0.392575	0.094121	0.089479
	H118	H	0.616737	0.918042	0.095253
	H119	H	0.393578	0.915028	0.915891
	C120	C	0.384091	0.014298	0.625036
	C121	C	0.626657	0.997113	0.623469
	C122	C	0.626426	0.013868	0.381149
	C123	C	0.384082	0.996787	0.383160
	C124	C	0.625602	0.383248	0.012756
	C125	C	0.624634	0.625363	0.996806
	C126	C	0.382219	0.625314	0.012680
	C127	C	0.381314	0.383482	0.994713
	C128	C	0.012373	0.628263	0.381951
	C129	C	0.994642	0.628860	0.625694
	C130	C	0.011915	0.384499	0.625494
	C131	C	0.996265	0.384817	0.382555
	C132	C	0.882285	0.514371	0.124870
	C133	C	0.124162	0.496717	0.124120
	C134	C	0.124113	0.514257	0.882915
	C135	C	0.880935	0.497513	0.882413
	C136	C	0.127866	0.884299	0.512300
	C137	C	0.127510	0.126635	0.494405
	C138	C	0.884033	0.126702	0.511333
	C139	C	0.884499	0.885883	0.494612
	C140	C	0.513321	0.127130	0.881125
	C141	C	0.495623	0.126073	0.124266
	C142	C	0.512448	0.883321	0.124761
	C143	C	0.497173	0.882599	0.881725
	C144	C	0.382603	0.894427	0.684348
	C145	C	0.630449	0.115717	0.685483
	C146	C	0.630055	0.895285	0.319424
	C147	C	0.380362	0.115300	0.321455
	C148	C	0.686787	0.379954	0.894271
	C149	C	0.687048	0.630467	0.114366
	C150	C	0.321658	0.629476	0.894202
	C151	C	0.319485	0.378305	0.112852
	C152	C	0.895230	0.690814	0.378136
	C153	C	0.114001	0.686018	0.626334
	C154	C	0.894576	0.322732	0.628038
	C155	C	0.114153	0.324015	0.378343
	C156	C	0.893381	0.381918	0.685094
	C157	C	0.112997	0.629293	0.685423
	C158	C	0.895123	0.633052	0.320085
	C159	C	0.113438	0.381576	0.320187
	C160	C	0.379889	0.686863	0.894177
	C161	C	0.628358	0.687298	0.114987
	C162	C	0.627076	0.324244	0.892910
	C163	C	0.379133	0.322692	0.113779
	C164	C	0.688667	0.895948	0.376257
	C165	C	0.688350	0.115683	0.627821
	C166	C	0.323294	0.895483	0.628549
	C167	C	0.322778	0.115647	0.379068
	C168	C	0.878986	0.396019	0.186953
	C169	C	0.128610	0.615568	0.185898
	C170	C	0.126341	0.395467	0.821934
	C171	C	0.879151	0.617595	0.823665
	C172	C	0.188894	0.880335	0.393631
	C173	C	0.187298	0.130088	0.613487
	C174	C	0.821349	0.132808	0.393861
	C175	C	0.822078	0.880925	0.612130
	C176	C	0.395012	0.186934	0.878238
	C177	C	0.613836	0.186213	0.125728
	C178	C	0.394439	0.822475	0.128473
	C179	C	0.614575	0.821264	0.879662
	C180	C	0.395067	0.879619	0.186861
	C181	C	0.613246	0.129528	0.184709
	C182	C	0.395108	0.128134	0.820937
	C183	C	0.615281	0.879440	0.821383
	C184	C	0.880542	0.189203	0.393318
	C185	C	0.128347	0.186370	0.613809
	C186	C	0.129774	0.823868	0.393181
	C187	C	0.882664	0.826697	0.614091
	C188	C	0.185823	0.396015	0.877458
	C189	C	0.187594	0.614264	0.129388
	C190	C	0.821738	0.395202	0.129242
	C191	C	0.820645	0.616486	0.880680
	C192	C	0.408865	0.097631	0.600276
	C193	C	0.601105	0.914853	0.596974
	C194	C	0.599975	0.096154	0.407913
	C195	C	0.409983	0.914266	0.409568
	C196	C	0.600205	0.408511	0.095741
	C197	C	0.598969	0.598708	0.914319
	C198	C	0.407810	0.598810	0.094874
	C199	C	0.407079	0.409703	0.912222
	C200	C	0.093998	0.601664	0.407768
	C201	C	0.911819	0.604936	0.601057
	C202	C	0.093953	0.409855	0.600771
	C203	C	0.914822	0.411056	0.409444
	C204	C	0.907626	0.596925	0.098517
	C205	C	0.097336	0.414947	0.097460
	C206	C	0.099151	0.597203	0.909110
	C207	C	0.906322	0.414457	0.907386
	C208	C	0.102792	0.910466	0.594914
	C209	C	0.103078	0.101256	0.411366
	C210	C	0.909965	0.099562	0.593276
	C211	C	0.910299	0.911909	0.411633
	C212	C	0.595311	0.101882	0.906776
	C213	C	0.413423	0.100428	0.098969
	C214	C	0.594141	0.909245	0.098352
	C215	C	0.415291	0.908803	0.907070
	Zn216	Zn	0.506163	0.004723	0.752342
	Zn217	Zn	0.503944	0.004726	0.253876
	Zn218	Zn	0.753424	0.504881	0.004946
	Zn219	Zn	0.253013	0.504154	0.003510
	Zn220	Zn	0.004577	0.757240	0.503754
	Zn221	Zn	0.005607	0.254980	0.503165
	Zn222	Zn	0.002669	0.506693	0.754563
	Zn223	Zn	0.003486	0.506288	0.253038
	Zn224	Zn	0.503943	0.753715	0.004553
	Zn225	Zn	0.503457	0.255876	0.003356
	Zn226	Zn	0.755528	0.005930	0.502335
	Zn227	Zn	0.256078	0.005783	0.503625
	N228	N	0.419628	0.969434	0.682541
	N229	N	0.592778	0.041148	0.682936
	N230	N	0.592229	0.969775	0.322106
	N231	N	0.417506	0.040361	0.323674
	N232	N	0.686097	0.415809	0.969921
	N233	N	0.684351	0.592170	0.040013
	N234	N	0.322705	0.592322	0.969005
	N235	N	0.320829	0.415338	0.037849
	N236	N	0.969039	0.687876	0.415910
	N237	N	0.039342	0.685918	0.590159
	N238	N	0.969269	0.324169	0.591635
	N239	N	0.040486	0.326045	0.416644
	N240	N	0.967329	0.419407	0.683893
	N241	N	0.037516	0.594526	0.685399
	N242	N	0.968952	0.594819	0.322150
	N243	N	0.039119	0.418842	0.322708
	N244	N	0.416799	0.684620	0.969040
	N245	N	0.589918	0.683824	0.040965
	N246	N	0.589598	0.326342	0.967624
	N247	N	0.416767	0.325528	0.039197
	N248	N	0.686760	0.970863	0.413766
	N249	N	0.686201	0.041009	0.589877
	N250	N	0.324281	0.970930	0.592180
	N251	N	0.325020	0.040844	0.416782
	N252	N	0.915842	0.471042	0.184605
	N253	N	0.089648	0.541704	0.182671
	N254	N	0.088528	0.470102	0.825115
	N255	N	0.916009	0.542420	0.824713
	N256	N	0.187878	0.917236	0.468773
	N257	N	0.187129	0.093954	0.538019
	N258	N	0.823388	0.094734	0.468234
	N259	N	0.823041	0.916881	0.536453
	N260	N	0.469542	0.186439	0.914831
	N261	N	0.539629	0.184365	0.088891
	N262	N	0.468236	0.824924	0.090409
	N263	N	0.540223	0.823225	0.916431
	N264	N	0.469477	0.916685	0.184867
	N265	N	0.538658	0.092862	0.184096
	N266	N	0.469704	0.091719	0.822472
	N267	N	0.541095	0.916993	0.822696
	N268	N	0.918902	0.185479	0.467302
	N269	N	0.092006	0.184611	0.538672
	N270	N	0.092542	0.826102	0.467967
	N271	N	0.920511	0.829503	0.539635
	N272	N	0.184508	0.471050	0.914672
	N273	N	0.184875	0.539461	0.091522
	N274	N	0.823653	0.469955	0.091402
	N275	N	0.821459	0.540690	0.916227
	O276	O	0.487191	0.351486	0.322648
	H277	H	0.478953	0.354789	0.324108
	H278	H	0.513389	0.351656	0.307927
	O279	O	0.998356	0.209068	0.873322
	H280	H	1.004133	0.217104	0.874561
	H281	H	1.012048	0.204677	0.868240
	O282	O	0.588857	0.626134	0.594957
	H283	H	0.590935	0.642951	0.579697
	H284	H	0.588791	0.626649	0.588711
	O285	O	0.331805	0.690699	0.321855
	H286	H	0.323912	0.664315	0.336040
	H287	H	0.339419	0.678914	0.336021
	O288	O	0.980222	0.794289	0.214209
	H289	H	0.983350	0.764962	0.233000
	H290	H	0.972911	0.795543	0.203384
	O291	O	0.396108	0.437240	0.495951
	H292	H	0.400947	0.427368	0.506484
	H293	H	0.394914	0.430142	0.481736
	O294	O	0.140958	0.154604	0.828884
	H295	H	0.141822	0.157225	0.841192
	H296	H	0.133461	0.139217	0.839187
	O297	O	0.541740	0.553552	0.285859
	H298	H	0.542596	0.583989	0.282059
	H299	H	0.554833	0.547164	0.287179
	O300	O	0.722453	0.606198	0.439828
	H301	H	0.722517	0.618286	0.441498
	H302	H	0.720120	0.611485	0.456328
	O303	O	0.707486	0.300747	0.481103
	H304	H	0.718256	0.315463	0.490087
	H305	H	0.718713	0.289191	0.478740
	O306	O	0.314915	0.578896	0.647433
	H307	H	0.313782	0.558592	0.647970
	H308	H	0.319383	0.570687	0.631110
	O309	O	0.709531	0.499260	0.315783
	H310	H	0.725565	0.518682	0.323277
	H311	H	0.706961	0.495912	0.319829
	O312	O	0.122300	0.923702	0.938902
	H313	H	0.134467	0.932022	0.945801
	H314	H	0.125473	0.921544	0.927118
	O315	O	0.329375	0.543099	0.304649
	H316	H	0.323199	0.532858	0.276333
	H317	H	0.335695	0.517990	0.330541
	O318	O	0.806389	0.178654	-0.053106
	H319	H	0.800637	0.177168	-0.035066
	H320	H	0.828000	0.187864	-0.040918
	O321	O	0.015928	0.106142	-0.007399
	H322	H	0.024398	0.097958	-0.008891
	H323	H	0.019251	0.104548	-0.002967
	O324	O	0.493908	0.345948	0.302250
	H325	H	0.516005	0.335475	0.280494
	H326	H	0.523043	0.353943	0.310861
	O327	O	0.535984	0.412621	0.709597
	H328	H	0.531844	0.401445	0.719201
	H329	H	0.524850	0.416957	0.708323
	O330	O	-0.032831	0.966501	0.061770
	H331	H	-0.026378	0.965555	0.066351
	H332	H	-0.026771	0.963848	0.066718
	O333	O	0.681126	0.458449	0.538153
	H334	H	0.690993	0.468508	0.563892
	H335	H	0.667156	0.469956	0.530566
	O336	O	0.022346	0.212466	0.192632
	H337	H	-0.008368	0.188350	0.192226
	H338	H	0.014298	0.236164	0.210922
	O339	O	0.193846	0.819524	0.811164
	H340	H	0.209585	0.828395	0.826269
	H341	H	0.212611	0.832674	0.811887
	O342	O	0.217936	0.791326	0.974194
	H343	H	0.234371	0.789310	0.982810
	H344	H	0.228087	0.780225	0.975529
	O345	O	0.823343	0.819676	0.019293
	H346	H	0.823826	0.840463	-0.007246
	H347	H	0.832195	0.809197	0.002425
	O348	O	0.304140	0.706413	0.476865
	H349	H	0.299248	0.707924	0.478397
	H350	H	0.302990	0.715445	0.485215
	O351	O	0.029421	0.800918	0.794595
	H352	H	0.072563	0.815493	0.799154
	H353	H	0.037892	0.769428	0.767135
	O354	O	0.198845	0.911854	0.115785
	H355	H	0.202035	0.927456	0.124871
	H356	H	0.193971	0.921161	0.120818
	O357	O	0.007169	0.053496	0.878761
	H358	H	0.001416	0.053064	0.872569
	H359	H	0.003020	0.046082	0.892418
	O360	O	0.518565	0.719855	0.684535
	H361	H	0.514608	0.741390	0.707456
	H362	H	0.532166	0.706000	0.679916
	O363	O	0.143389	-0.016150	0.813850
	H364	H	0.162939	-0.003801	0.823129
	H365	H	0.127330	-0.012385	0.804190
	O366	O	0.191254	0.190237	0.185114
	H367	H	0.145859	0.200872	0.197871
	H368	H	0.202063	0.174731	0.178878
	O369	O	0.326668	0.557466	0.708933
	H370	H	0.333315	0.535946	0.705985
	H371	H	0.314774	0.544407	0.714238
	O372	O	1.044343	-0.010462	1.170963
	H373	H	1.054391	-0.028634	1.175545
	H374	H	1.038646	-0.016207	1.169844
	O375	O	0.454679	0.309348	0.454897
	H376	H	0.472002	0.314814	0.436281
	H377	H	0.475671	0.309971	0.452363
	O378	O	0.664998	0.696479	0.692161
	H379	H	0.675889	0.698384	0.674383
	H380	H	0.648096	0.680151	0.700318
	O381	O	0.503143	0.292543	0.678521
	H382	H	0.496704	0.267237	0.704299
	H383	H	0.517194	0.292019	0.649804
	O384	O	0.695149	0.343367	0.311113
	H385	H	0.709862	0.329446	0.320520
	H386	H	0.706115	0.380806	0.309551
	O387	O	0.007230	0.037684	0.884062
	H388	H	0.015296	0.047175	0.878243
	H389	H	0.005896	0.046830	0.864823
	O390	O	0.217023	0.217554	0.019939
	H391	H	0.232239	0.234832	0.029589
	H392	H	0.221530	0.217230	0.033225
	O393	O	0.983092	0.930591	0.911265
	H394	H	0.979580	0.915647	0.919751
	H395	H	0.976085	0.929588	0.897210
	O396	O	1.165853	0.028179	0.209663
	H397	H	1.164548	0.017547	0.219937
	H398	H	1.168038	0.041268	0.212365
	O399	O	0.857484	0.196619	0.812237
	H400	H	0.872057	0.211452	0.824567
	H401	H	0.868797	0.202757	0.825879
	O402	O	0.978989	0.841272	0.970512
	H403	H	0.961902	0.843698	0.964637
	H404	H	0.997750	0.847301	0.971856
	O405	O	0.822757	0.826127	0.180816
	H406	H	0.822438	0.826030	0.146001
	H407	H	0.841567	0.830066	0.172387
	O408	O	0.800404	-0.042509	-0.126627
	H409	H	0.803696	-0.021714	-0.139607
	H410	H	0.788537	-0.036699	-0.134143
	O411	O	0.786991	0.984205	0.219570
	H412	H	0.762173	0.964433	0.238543
	H413	H	0.775630	0.976926	0.205394
	O414	O	0.489182	0.720759	0.307923
	H415	H	0.489907	0.751874	0.276799
	H416	H	0.458863	0.703722	0.322093
	O417	O	0.299835	0.320042	0.533529
	H418	H	0.294887	0.300522	0.536320
	H419	H	0.310989	0.305774	0.527403
	O420	O	-0.127128	0.118628	0.152204
	H421	H	-0.123254	0.122823	0.140524
	H422	H	-0.130738	0.098715	0.136614
	O423	O	0.718490	0.528653	0.719410
	H424	H	0.722636	0.534502	0.739614
	H425	H	0.719638	0.538346	0.728240
	O426	O	0.622273	0.335007	0.592317
	H427	H	0.630684	0.339846	0.584569
	H428	H	0.635200	0.343111	0.581711
	O429	O	0.503533	0.600330	0.570842
	H430	H	0.499566	0.611147	0.578269
	H431	H	0.492775	0.604412	0.562238
	O432	O	0.539297	0.584056	0.459066
	H433	H	0.522380	0.583599	0.447045
	H434	H	0.535549	0.581714	0.452661
	O435	O	0.314426	0.487904	0.467493
	H436	H	0.313224	0.475384	0.471402
	H437	H	0.309685	0.488227	0.476459
	O438	O	-0.014491	0.185818	-0.002642
	H439	H	-0.012300	0.165416	0.006227
	H440	H	-0.019589	0.182522	-0.005485
	O441	O	0.855990	-0.017582	-0.051920
	H442	H	0.858799	-0.021653	-0.061009
	H443	H	0.854780	-0.006673	-0.063013
	O444	O	-0.046548	1.034427	1.157304
	H445	H	-0.061184	1.010246	1.159359
	H446	H	-0.039501	1.017488	1.164584
	O447	O	0.423827	0.603053	0.620556
	H448	H	0.420670	0.600902	0.613449
	H449	H	0.422309	0.595156	0.622764
	O450	O	0.632309	0.677589	0.518268
	H451	H	0.646724	0.692605	0.524576
	H452	H	0.615515	0.674975	0.516180
	O453	O	0.306565	0.313009	0.700896
	H454	H	0.329252	0.312625	0.687274
	H455	H	0.304973	0.299199	0.696298
