data_Molecule from HDF5

_cell_length_a		16.358195
_cell_length_b		16.216860
_cell_length_c		16.337283
_cell_angle_alpha	90.045775
_cell_angle_beta	90.035519
_cell_angle_gamma	90.093040
_symmetry_space_group_name_H-M	'P 1'
_symmetry_Int_Tables_number		1

loop_
	_symmetry_equiv_pos_as_xyz
	x,y,z

loop_
	_atom_site_label
	_atom_site_type_symbol
	_atom_site_fract_x
	_atom_site_fract_y
	_atom_site_fract_z
	H0	H	0.396968	0.844186	0.721183
	H1	H	0.598632	0.171698	0.721513
	H2	H	0.599048	0.846307	0.286064
	H3	H	0.397001	0.172063	0.290401
	H4	H	0.714065	0.406346	0.843788
	H5	H	0.714967	0.611325	0.166660
	H6	H	0.277286	0.610294	0.843897
	H7	H	0.277496	0.404281	0.166352
	H8	H	0.835264	0.724373	0.407283
	H9	H	0.160020	0.724261	0.607095
	H10	H	0.835483	0.290159	0.607044
	H11	H	0.159770	0.293312	0.406116
	H12	H	0.835344	0.406749	0.723032
	H13	H	0.158107	0.610824	0.724735
	H14	H	0.834655	0.610590	0.289014
	H15	H	0.157933	0.405242	0.286580
	H16	H	0.396020	0.725154	0.842355
	H17	H	0.596866	0.726164	0.167990
	H18	H	0.594680	0.293069	0.842263
	H19	H	0.396570	0.292398	0.167932
	H20	H	0.713546	0.844204	0.404072
	H21	H	0.715512	0.170747	0.607436
	H22	H	0.281582	0.844509	0.606586
	H23	H	0.280559	0.170820	0.403965
	H24	H	0.893512	0.345634	0.222937
	H25	H	0.099086	0.670719	0.223447
	H26	H	0.096729	0.345838	0.788427
	H27	H	0.895270	0.672431	0.788499
	H28	H	0.215736	0.905404	0.343987
	H29	H	0.217936	0.110617	0.667191
	H30	H	0.777168	0.112059	0.345283
	H31	H	0.778336	0.903598	0.666754
	H32	H	0.333660	0.223343	0.904969
	H33	H	0.659172	0.224693	0.103976
	H34	H	0.334427	0.792151	0.106387
	H35	H	0.657697	0.789936	0.902760
	H36	H	0.335998	0.905926	0.224116
	H37	H	0.658159	0.113395	0.224064
	H38	H	0.335557	0.109223	0.787471
	H39	H	0.658100	0.905064	0.787512
	H40	H	0.896747	0.225081	0.343246
	H41	H	0.098945	0.224569	0.668385
	H42	H	0.099364	0.790820	0.343966
	H43	H	0.898216	0.791975	0.668336
	H44	H	0.212682	0.345539	0.901907
	H45	H	0.213421	0.670218	0.106854
	H46	H	0.780921	0.344698	0.104050
	H47	H	0.777953	0.671563	0.902299
	H48	H	0.404864	0.125615	0.601171
	H49	H	0.592809	0.891987	0.593156
	H50	H	0.582867	0.121387	0.415260
	H51	H	0.406671	0.890846	0.411852
	H52	H	0.588214	0.418787	0.119507
	H53	H	0.581719	0.594585	0.894716
	H54	H	0.402479	0.597496	0.120554
	H55	H	0.402050	0.416842	0.889722
	H56	H	0.110742	0.602303	0.418375
	H57	H	0.882663	0.603332	0.592546
	H58	H	0.111758	0.422135	0.601776
	H59	H	0.881819	0.413005	0.415225
	H60	H	0.113783	0.412934	0.600012
	H61	H	0.884647	0.594076	0.597540
	H62	H	0.110642	0.593102	0.414021
	H63	H	0.883649	0.419055	0.416442
	H64	H	0.407274	0.597625	0.118756
	H65	H	0.585769	0.606571	0.888900
	H66	H	0.587137	0.416490	0.120572
	H67	H	0.404774	0.418122	0.890561
	H68	H	0.591815	0.122620	0.420873
	H69	H	0.589907	0.890134	0.602615
	H70	H	0.413419	0.121972	0.596644
	H71	H	0.410862	0.893889	0.415479
	H72	H	0.912076	0.622318	0.097360
	H73	H	0.087377	0.389715	0.102353
	H74	H	0.084916	0.624097	0.914860
	H75	H	0.905550	0.393290	0.916093
	H76	H	0.092700	0.917502	0.621632
	H77	H	0.088770	0.105413	0.389354
	H78	H	0.907944	0.096558	0.618766
	H79	H	0.899675	0.924499	0.392025
	H80	H	0.612860	0.097042	0.905984
	H81	H	0.384527	0.098311	0.093925
	H82	H	0.613153	0.916951	0.099533
	H83	H	0.382808	0.920972	0.915695
	H84	H	0.610003	0.917004	0.091204
	H85	H	0.380733	0.097470	0.104269
	H86	H	0.614396	0.109159	0.914278
	H87	H	0.381356	0.918170	0.909881
	H88	H	0.908316	0.099710	0.619967
	H89	H	0.095129	0.097224	0.390761
	H90	H	0.090359	0.919984	0.619611
	H91	H	0.915367	0.918892	0.393882
	H92	H	0.086331	0.622850	0.917701
	H93	H	0.080888	0.395274	0.095702
	H94	H	0.900998	0.624128	0.091545
	H95	H	0.902669	0.393166	0.914641
	H96	H	0.403768	0.122398	0.591189
	H97	H	0.583782	0.894343	0.595347
	H98	H	0.591651	0.126239	0.410811
	H99	H	0.404602	0.892676	0.416914
	H100	H	0.589799	0.416710	0.121085
	H101	H	0.594733	0.596333	0.889279
	H102	H	0.405513	0.601948	0.120349
	H103	H	0.404063	0.414446	0.890105
	H104	H	0.114699	0.601376	0.408540
	H105	H	0.879906	0.602033	0.602967
	H106	H	0.109778	0.418142	0.592619
	H107	H	0.880651	0.418130	0.411143
	H108	H	0.902448	0.627194	0.103245
	H109	H	0.090573	0.392104	0.092319
	H110	H	0.088614	0.625161	0.915333
	H111	H	0.905090	0.393885	0.912354
	H112	H	0.089085	0.916290	0.620671
	H113	H	0.085760	0.096574	0.393748
	H114	H	0.905511	0.097900	0.620628
	H115	H	0.903589	0.908448	0.388071
	H116	H	0.608478	0.096247	0.919514
	H117	H	0.379433	0.106417	0.098351
	H118	H	0.610006	0.923668	0.095854
	H119	H	0.381962	0.914464	0.915220
	C120	C	0.376615	0.015963	0.626723
	C121	C	0.619298	0.999548	0.627512
	C122	C	0.619083	0.016213	0.384400
	C123	C	0.377190	1.000126	0.385048
	C124	C	0.617458	0.387344	0.013364
	C125	C	0.617912	0.630369	0.997340
	C126	C	0.374533	0.629783	0.013105
	C127	C	0.374169	0.386152	0.996890
	C128	C	0.004845	0.629484	0.384369
	C129	C	0.988976	0.630359	0.627971
	C130	C	0.005395	0.386817	0.627985
	C131	C	0.988723	0.386592	0.384122
	C132	C	0.874691	0.516872	0.126953
	C133	C	0.117347	0.499459	0.127279
	C134	C	0.116721	0.516692	0.884887
	C135	C	0.874591	0.500896	0.883747
	C136	C	0.120004	0.886699	0.513945
	C137	C	0.120550	0.130040	0.497876
	C138	C	0.876196	0.129381	0.513691
	C139	C	0.876473	0.886780	0.497904
	C140	C	0.504860	0.130076	0.883576
	C141	C	0.488447	0.131249	0.128197
	C142	C	0.504716	0.888161	0.126278
	C143	C	0.488630	0.887019	0.883418
	C144	C	0.377239	0.893325	0.683421
	C145	C	0.618440	0.122436	0.683622
	C146	C	0.618850	0.894399	0.325520
	C147	C	0.377719	0.123198	0.328782
	C148	C	0.674796	0.387418	0.891801
	C149	C	0.675816	0.630965	0.118697
	C150	C	0.316661	0.629692	0.891856
	C151	C	0.316643	0.385527	0.118173
	C152	C	0.883462	0.686096	0.386710
	C153	C	0.111149	0.686472	0.626929
	C154	C	0.883903	0.328964	0.627024
	C155	C	0.110706	0.330552	0.385309
	C156	C	0.883523	0.387128	0.684410
	C157	C	0.110207	0.630177	0.685675
	C158	C	0.883394	0.629834	0.327545
	C159	C	0.109776	0.386564	0.326018
	C160	C	0.375656	0.686867	0.891194
	C161	C	0.616731	0.687499	0.119374
	C162	C	0.615471	0.331045	0.891093
	C163	C	0.375881	0.329620	0.118933
	C164	C	0.675620	0.893452	0.384322
	C165	C	0.676537	0.122056	0.626838
	C166	C	0.319880	0.893185	0.626175
	C167	C	0.319593	0.122408	0.385140
	C168	C	0.874678	0.394198	0.183896
	C169	C	0.118079	0.621853	0.184796
	C170	C	0.116024	0.394230	0.827432
	C171	C	0.875177	0.623136	0.826461
	C172	C	0.177203	0.885894	0.392569
	C173	C	0.178819	0.130216	0.618986
	C174	C	0.817178	0.130442	0.393023
	C175	C	0.818639	0.885972	0.619068
	C176	C	0.382588	0.185858	0.884903
	C177	C	0.610453	0.187346	0.125318
	C178	C	0.383000	0.830476	0.126131
	C179	C	0.609615	0.828873	0.883892
	C180	C	0.383816	0.887375	0.184619
	C181	C	0.609978	0.131817	0.185050
	C182	C	0.383685	0.129304	0.826209
	C183	C	0.609729	0.886433	0.826429
	C184	C	0.876642	0.186997	0.392079
	C185	C	0.119434	0.186771	0.619743
	C186	C	0.118988	0.828939	0.392566
	C187	C	0.877944	0.829990	0.619663
	C188	C	0.173787	0.394199	0.883691
	C189	C	0.174889	0.621546	0.126629
	C190	C	0.817997	0.393964	0.125382
	C191	C	0.817150	0.623157	0.883457
	C192	C	0.400340	0.101248	0.603022
	C193	C	0.595700	0.914212	0.604096
	C194	C	0.595671	0.101321	0.408612
	C195	C	0.400605	0.914774	0.407906
	C196	C	0.595144	0.410687	0.098523
	C197	C	0.594455	0.606307	0.912827
	C198	C	0.398134	0.606005	0.097984
	C199	C	0.396947	0.409724	0.912159
	C200	C	0.089852	0.605879	0.407161
	C201	C	0.904433	0.606720	0.604629
	C202	C	0.089833	0.410728	0.604788
	C203	C	0.904065	0.409752	0.407505
	C204	C	0.898153	0.602346	0.104019
	C205	C	0.093224	0.414303	0.103578
	C206	C	0.093375	0.601869	0.908823
	C207	C	0.897727	0.415594	0.907411
	C208	C	0.097299	0.910970	0.598769
	C209	C	0.096703	0.106667	0.413139
	C210	C	0.900236	0.105204	0.597808
	C211	C	0.899479	0.910642	0.413244
	C212	C	0.589942	0.107465	0.906799
	C213	C	0.403535	0.107504	0.105586
	C214	C	0.589102	0.912117	0.102424
	C215	C	0.403799	0.910856	0.906844
	Zn216	Zn	0.497316	0.008303	0.755087
	Zn217	Zn	0.497220	0.009088	0.255836
	Zn218	Zn	0.746708	0.508810	0.005386
	Zn219	Zn	0.245069	0.507545	0.005329
	Zn220	Zn	-0.001757	0.758330	0.506355
	Zn221	Zn	-0.002259	0.258279	0.506112
	Zn222	Zn	-0.003102	0.508943	0.756394
	Zn223	Zn	-0.003858	0.508205	0.255266
	Zn224	Zn	0.496324	0.759435	0.005425
	Zn225	Zn	0.496202	0.258324	0.005024
	Zn226	Zn	0.747035	0.007260	0.506351
	Zn227	Zn	0.248900	0.007418	0.505685
	N228	N	0.412025	0.970663	0.683776
	N229	N	0.583456	0.045247	0.684026
	N230	N	0.584610	0.971837	0.325408
	N231	N	0.412795	0.046271	0.328427
	N232	N	0.676083	0.421709	0.968889
	N233	N	0.676598	0.596217	0.041922
	N234	N	0.315807	0.595006	0.968663
	N235	N	0.315475	0.420085	0.041383
	N236	N	0.960232	0.686226	0.421140
	N237	N	0.034854	0.686758	0.591815
	N238	N	0.960650	0.328544	0.592786
	N239	N	0.034438	0.330420	0.420670
	N240	N	0.960118	0.422334	0.685365
	N241	N	0.033220	0.595875	0.686284
	N242	N	0.960089	0.595503	0.325871
	N243	N	0.032865	0.420755	0.325209
	N244	N	0.410821	0.687165	0.967616
	N245	N	0.581605	0.687426	0.042933
	N246	N	0.580425	0.331104	0.967561
	N247	N	0.411020	0.329889	0.042403
	N248	N	0.676110	0.970389	0.419782
	N249	N	0.677295	0.044557	0.592843
	N250	N	0.319388	0.970450	0.591655
	N251	N	0.319105	0.044893	0.419428
	N252	N	0.909343	0.471575	0.184992
	N253	N	0.083011	0.544862	0.185291
	N254	N	0.081349	0.471484	0.827865
	N255	N	0.910231	0.546099	0.826513
	N256	N	0.177749	0.921212	0.468977
	N257	N	0.179275	0.095502	0.542318
	N258	N	0.816807	0.095286	0.469617
	N259	N	0.817587	0.920657	0.542359
	N260	N	0.459096	0.186385	0.919903
	N261	N	0.533891	0.187348	0.090949
	N262	N	0.459131	0.830893	0.090372
	N263	N	0.533083	0.829078	0.918484
	N264	N	0.460418	0.922634	0.184773
	N265	N	0.532923	0.097732	0.186962
	N266	N	0.460751	0.095598	0.825138
	N267	N	0.533439	0.921975	0.826274
	N268	N	0.912716	0.186354	0.468060
	N269	N	0.083906	0.186909	0.543333
	N270	N	0.083977	0.829262	0.469228
	N271	N	0.913270	0.830479	0.543392
	N272	N	0.174452	0.471368	0.918757
	N273	N	0.174593	0.544423	0.091692
	N274	N	0.818074	0.471220	0.090634
	N275	N	0.816553	0.546177	0.918470
	O276	O	0.886014	0.048571	0.991159
	H277	H	0.887873	0.046242	0.999340
	H278	H	0.885285	0.055281	0.983332
	O279	O	0.032017	0.996987	-0.069336
	H280	H	0.020957	0.992154	-0.067358
	H281	H	0.034387	1.001212	-0.067424
	O282	O	0.432909	0.453976	0.589661
	H283	H	0.431741	0.447151	0.605185
	H284	H	0.429527	0.441036	0.584154
	O285	O	0.456211	0.535985	0.398294
	H286	H	0.444753	0.533201	0.401417
	H287	H	0.461265	0.543273	0.398266
	O288	O	0.601530	0.475364	0.449420
	H289	H	0.603355	0.467930	0.438860
	H290	H	0.612903	0.477762	0.454341
	O291	O	-0.015653	0.028494	0.981152
	H292	H	-0.029231	0.025756	0.986575
	H293	H	-0.020080	0.014239	0.977147
	O294	O	1.062812	0.894505	-0.094147
	H295	H	1.071083	0.899147	-0.084020
	H296	H	1.068042	0.880095	-0.103389
	O297	O	1.133721	1.039494	0.126624
	H298	H	1.120204	1.033868	0.136511
	H299	H	1.127566	1.050247	0.119641
	O300	O	0.574706	0.442077	0.487065
	H301	H	0.584736	0.444243	0.479136
	H302	H	0.564111	0.440228	0.487113
	O303	O	0.493954	0.422005	0.356255
	H304	H	0.496833	0.435194	0.363932
	H305	H	0.487125	0.418116	0.342333
	O306	O	0.357354	0.566862	0.383261
	H307	H	0.359401	0.562181	0.384321
	H308	H	0.357488	0.574811	0.383289
	O309	O	0.519025	0.520338	0.594730
	H310	H	0.523292	0.514266	0.598097
	H311	H	0.513050	0.518724	0.592218
	O312	O	1.060173	1.110421	0.903110
	H313	H	1.070661	1.122784	0.894462
	H314	H	1.043238	1.115995	0.904664
	O315	O	0.555223	0.567587	0.467528
	H316	H	0.568274	0.578392	0.465734
	H317	H	0.558628	0.565918	0.486672
	O318	O	0.475491	0.509173	0.405529
	H319	H	0.460594	0.505840	0.415535
	H320	H	0.465402	0.507816	0.401301
	O321	O	0.464337	0.422403	0.617691
	H322	H	0.469050	0.433154	0.618438
	H323	H	0.479311	0.424677	0.627123
	O324	O	-0.015366	0.971420	1.087384
	H325	H	-0.010761	0.965040	1.074957
	H326	H	-0.021646	0.954625	1.086932
	O327	O	-0.034885	0.930538	1.172870
	H328	H	-0.026255	0.934892	1.184121
	H329	H	-0.040761	0.938341	1.159273
	O330	O	0.051379	0.142681	0.018413
	H331	H	0.048517	0.132662	0.020706
	H332	H	0.053946	0.141362	0.011391
	O333	O	0.490892	0.620901	0.614691
	H334	H	0.494712	0.633947	0.622972
	H335	H	0.489506	0.615629	0.601077
	O336	O	0.116166	-0.054239	-0.005451
	H337	H	0.110388	-0.031018	-0.006694
	H338	H	0.123828	-0.036084	-0.003547
	O339	O	-0.123222	-0.053049	-0.023159
	H340	H	-0.124922	-0.049268	-0.025720
	H341	H	-0.122816	-0.060154	-0.027844
	O342	O	0.415820	0.516252	0.496336
	H343	H	0.418741	0.516670	0.498667
	H344	H	0.417093	0.500237	0.491954
	O345	O	-0.068671	0.961755	1.081672
	H346	H	-0.078540	0.950658	1.071503
	H347	H	-0.065766	0.954857	1.077503
	O348	O	0.949553	-0.068262	0.126627
	H349	H	0.949415	-0.078295	0.114987
	H350	H	0.952513	-0.078678	0.134055
	O351	O	0.577286	0.440362	0.468911
	H352	H	0.576483	0.431870	0.458480
	H353	H	0.570227	0.433094	0.460659
	O354	O	0.096612	0.905688	-0.073764
	H355	H	0.115294	0.910670	-0.076722
	H356	H	0.088602	0.912294	-0.058866
	O357	O	0.926394	0.032084	0.018491
	H358	H	0.917620	0.025741	0.003686
	H359	H	0.924079	0.033728	0.039923
	O360	O	0.983325	-0.110594	0.892083
	H361	H	0.969843	-0.106233	0.876064
	H362	H	1.000932	-0.103310	0.899131
	O363	O	0.420520	0.480891	0.557321
	H364	H	0.420438	0.473842	0.561555
	H365	H	0.417845	0.471233	0.549614
	O366	O	0.486361	0.477112	0.414832
	H367	H	0.481555	0.475132	0.427862
	H368	H	0.488959	0.477247	0.404510
	O369	O	0.917653	0.070102	0.120265
	H370	H	0.919835	0.056751	0.117653
	H371	H	0.906429	0.056063	0.122226
	O372	O	0.610883	0.453522	0.490153
	H373	H	0.604663	0.446081	0.488493
	H374	H	0.616068	0.447534	0.483062
	O375	O	0.898517	0.046809	0.903188
	H376	H	0.891320	0.056031	0.912299
	H377	H	0.922658	0.050242	0.894375
	O378	O	0.031338	1.168317	0.096525
	H379	H	0.028378	1.164727	0.101185
	H380	H	0.033703	1.177828	0.105592
	O381	O	0.524563	0.561230	0.575563
	H382	H	0.522770	0.561368	0.564468
	H383	H	0.525058	0.562726	0.586582
	O384	O	0.932286	1.002468	0.094030
	H385	H	0.933390	0.994771	0.105645
	H386	H	0.933096	0.990970	0.094910
	O387	O	0.991895	0.134094	0.885016
	H388	H	0.985089	0.130758	0.898581
	H389	H	1.005517	0.136807	0.886756
	O390	O	0.941840	0.957003	0.008624
	H391	H	0.938843	0.949654	0.007453
	H392	H	0.946873	0.955859	-0.003479
	O393	O	0.411564	0.509619	0.580807
	H394	H	0.400156	0.501591	0.584913
	H395	H	0.418486	0.515948	0.576842
