data_Molecule from HDF5

_cell_length_a		16.306140
_cell_length_b		16.334561
_cell_length_c		16.371462
_cell_angle_alpha	90.045352
_cell_angle_beta	90.024571
_cell_angle_gamma	90.017016
_symmetry_space_group_name_H-M	'P 1'
_symmetry_Int_Tables_number		1

loop_
	_symmetry_equiv_pos_as_xyz
	x,y,z

loop_
	_atom_site_label
	_atom_site_type_symbol
	_atom_site_fract_x
	_atom_site_fract_y
	_atom_site_fract_z
	H0	H	0.401257	0.836885	0.715180
	H1	H	0.597613	0.163684	0.714800
	H2	H	0.599565	0.837259	0.284421
	H3	H	0.401113	0.162928	0.285537
	H4	H	0.713634	0.402951	0.836678
	H5	H	0.715594	0.598957	0.162569
	H6	H	0.285306	0.597660	0.837078
	H7	H	0.284139	0.401905	0.163156
	H8	H	0.835888	0.713134	0.402615
	H9	H	0.163454	0.714251	0.598069
	H10	H	0.836233	0.285421	0.597963
	H11	H	0.163248	0.285102	0.401959
	H12	H	0.837158	0.400671	0.715188
	H13	H	0.163105	0.599183	0.715351
	H14	H	0.836402	0.597418	0.285322
	H15	H	0.163653	0.402271	0.286535
	H16	H	0.401866	0.714573	0.836978
	H17	H	0.598661	0.715161	0.162612
	H18	H	0.598052	0.285190	0.837611
	H19	H	0.402761	0.286868	0.163438
	H20	H	0.713486	0.836460	0.403115
	H21	H	0.713305	0.163720	0.598190
	H22	H	0.285556	0.836138	0.597694
	H23	H	0.286763	0.163465	0.403698
	H24	H	0.900878	0.336758	0.214834
	H25	H	0.098725	0.662296	0.216158
	H26	H	0.098420	0.337508	0.784914
	H27	H	0.900299	0.662703	0.783794
	H28	H	0.214471	0.902347	0.336673
	H29	H	0.214194	0.097949	0.662943
	H30	H	0.783830	0.098816	0.337360
	H31	H	0.785492	0.902359	0.663106
	H32	H	0.336699	0.214100	0.902867
	H33	H	0.663464	0.214858	0.098501
	H34	H	0.337003	0.785896	0.097943
	H35	H	0.663744	0.785736	0.902750
	H36	H	0.336899	0.901338	0.214201
	H37	H	0.663901	0.098087	0.213942
	H38	H	0.336961	0.098839	0.785327
	H39	H	0.663798	0.901957	0.786235
	H40	H	0.900887	0.214447	0.337085
	H41	H	0.098116	0.214684	0.662521
	H42	H	0.098486	0.784936	0.337222
	H43	H	0.902202	0.785139	0.662748
	H44	H	0.214068	0.337211	0.900791
	H45	H	0.212564	0.663920	0.097517
	H46	H	0.786744	0.336317	0.096761
	H47	H	0.785067	0.663160	0.901301
	H48	H	0.397005	0.119571	0.596280
	H49	H	0.589518	0.884867	0.596137
	H50	H	0.583297	0.114158	0.403553
	H51	H	0.403698	0.881875	0.402689
	H52	H	0.588960	0.410318	0.113223
	H53	H	0.594863	0.597354	0.883315
	H54	H	0.416853	0.588510	0.111297
	H55	H	0.412880	0.404720	0.886965
	H56	H	0.115666	0.594311	0.407553
	H57	H	0.883478	0.594416	0.593633
	H58	H	0.118308	0.400480	0.594867
	H59	H	0.884567	0.404574	0.410790
	H60	H	0.113174	0.407869	0.586496
	H61	H	0.884501	0.592361	0.590807
	H62	H	0.115664	0.591307	0.407262
	H63	H	0.885416	0.411213	0.407031
	H64	H	0.406163	0.606178	0.119196
	H65	H	0.595603	0.589438	0.884823
	H66	H	0.592571	0.401731	0.117390
	H67	H	0.402626	0.402206	0.881857
	H68	H	0.594868	0.113827	0.415874
	H69	H	0.593556	0.885482	0.589254
	H70	H	0.414710	0.116366	0.601253
	H71	H	0.412439	0.884457	0.404267
	H72	H	0.903944	0.616727	0.095034
	H73	H	0.087903	0.384127	0.099210
	H74	H	0.095306	0.614990	0.912328
	H75	H	0.907385	0.382993	0.901532
	H76	H	0.092204	0.901331	0.616456
	H77	H	0.086851	0.101604	0.383880
	H78	H	0.903078	0.087682	0.615200
	H79	H	0.902287	0.903632	0.382279
	H80	H	0.616923	0.097607	0.912623
	H81	H	0.381216	0.094531	0.101283
	H82	H	0.617474	0.898320	0.087189
	H83	H	0.383444	0.899800	0.912088
	H84	H	0.612350	0.915890	0.088410
	H85	H	0.383411	0.099704	0.089220
	H86	H	0.614262	0.086230	0.906781
	H87	H	0.387247	0.914594	0.909634
	H88	H	0.912863	0.092632	0.613010
	H89	H	0.103873	0.094220	0.380586
	H90	H	0.097943	0.908813	0.616284
	H91	H	0.906118	0.911154	0.385742
	H92	H	0.096058	0.618849	0.903032
	H93	H	0.090330	0.387120	0.086843
	H94	H	0.911081	0.615218	0.095510
	H95	H	0.911490	0.386445	0.908878
	H96	H	0.409605	0.112028	0.584214
	H97	H	0.597071	0.882394	0.595840
	H98	H	0.599826	0.119486	0.400912
	H99	H	0.406050	0.885174	0.410960
	H100	H	0.599120	0.410139	0.117247
	H101	H	0.588004	0.593195	0.886235
	H102	H	0.395573	0.586876	0.116374
	H103	H	0.404721	0.412955	0.885639
	H104	H	0.115931	0.593229	0.405152
	H105	H	0.883900	0.590759	0.594681
	H106	H	0.116038	0.412044	0.596951
	H107	H	0.882166	0.404958	0.403462
	H108	H	0.907579	0.614567	0.089503
	H109	H	0.099416	0.381646	0.093614
	H110	H	0.087079	0.614524	0.905635
	H111	H	0.902891	0.383969	0.908970
	H112	H	0.089402	0.909570	0.613616
	H113	H	0.090234	0.083275	0.387323
	H114	H	0.904418	0.098740	0.618156
	H115	H	0.910871	0.903370	0.385135
	H116	H	0.619566	0.096023	0.900251
	H117	H	0.386394	0.087122	0.091553
	H118	H	0.619233	0.907402	0.102913
	H119	H	0.381157	0.906273	0.897684
	C120	C	0.378608	0.007795	0.621862
	C121	C	0.621467	0.992314	0.621925
	C122	C	0.621580	0.008295	0.378264
	C123	C	0.378893	0.991419	0.378309
	C124	C	0.621946	0.378713	0.008399
	C125	C	0.621838	0.622162	0.992013
	C126	C	0.378055	0.622060	0.008126
	C127	C	0.378506	0.378818	0.992314
	C128	C	0.007802	0.621260	0.378063
	C129	C	0.991905	0.621179	0.621557
	C130	C	0.008023	0.378095	0.621350
	C131	C	0.991829	0.378177	0.378413
	C132	C	0.878625	0.507961	0.121382
	C133	C	0.121034	0.491854	0.121633
	C134	C	0.121166	0.508550	0.878494
	C135	C	0.878497	0.491819	0.877839
	C136	C	0.121719	0.878263	0.507977
	C137	C	0.121674	0.121428	0.491622
	C138	C	0.878238	0.121249	0.507834
	C139	C	0.878261	0.878159	0.491958
	C140	C	0.508447	0.121355	0.878963
	C141	C	0.492032	0.121773	0.121882
	C142	C	0.508137	0.878751	0.121162
	C143	C	0.492145	0.878365	0.878293
	C144	C	0.380900	0.885224	0.676884
	C145	C	0.618320	0.114964	0.676758
	C146	C	0.619772	0.885734	0.322626
	C147	C	0.381204	0.114534	0.324028
	C148	C	0.676762	0.381317	0.885654
	C149	C	0.677480	0.619698	0.113935
	C150	C	0.323079	0.618918	0.885619
	C151	C	0.323061	0.381779	0.114739
	C152	C	0.884822	0.676029	0.381402
	C153	C	0.114672	0.676252	0.618937
	C154	C	0.885297	0.322993	0.618626
	C155	C	0.114672	0.323149	0.381267
	C156	C	0.885430	0.380595	0.676541
	C157	C	0.114716	0.618719	0.676699
	C158	C	0.884906	0.618286	0.323593
	C159	C	0.114806	0.381123	0.323702
	C160	C	0.380986	0.676695	0.885509
	C161	C	0.619311	0.677301	0.114201
	C162	C	0.619120	0.323101	0.886093
	C163	C	0.381195	0.323931	0.114767
	C164	C	0.675929	0.885178	0.381824
	C165	C	0.675920	0.115073	0.618916
	C166	C	0.323578	0.884883	0.618445
	C167	C	0.324112	0.114570	0.382254
	C168	C	0.880331	0.385504	0.176933
	C169	C	0.118967	0.614220	0.177618
	C170	C	0.118583	0.386043	0.822982
	C171	C	0.880296	0.614357	0.822327
	C172	C	0.176469	0.881295	0.385326
	C173	C	0.176740	0.119038	0.614053
	C174	C	0.822593	0.118968	0.385640
	C175	C	0.823844	0.881945	0.614580
	C176	C	0.385544	0.176494	0.881944
	C177	C	0.614797	0.177055	0.119194
	C178	C	0.385641	0.823779	0.118557
	C179	C	0.615076	0.823708	0.881701
	C180	C	0.385761	0.881107	0.176418
	C181	C	0.614976	0.119204	0.176649
	C182	C	0.385588	0.118982	0.823963
	C183	C	0.614990	0.881058	0.823677
	C184	C	0.880794	0.176221	0.385300
	C185	C	0.119122	0.176990	0.613966
	C186	C	0.118924	0.823025	0.385519
	C187	C	0.881488	0.823533	0.614498
	C188	C	0.176070	0.385829	0.880725
	C189	C	0.175244	0.614895	0.118724
	C190	C	0.823672	0.385072	0.118192
	C191	C	0.822999	0.614535	0.880489
	C192	C	0.400669	0.093646	0.600294
	C193	C	0.599742	0.906287	0.600234
	C194	C	0.599269	0.093661	0.400274
	C195	C	0.400981	0.906083	0.399441
	C196	C	0.600002	0.401071	0.093848
	C197	C	0.599491	0.599837	0.906546
	C198	C	0.399764	0.600364	0.093569
	C199	C	0.400483	0.400387	0.906912
	C200	C	0.093538	0.599361	0.400104
	C201	C	0.905861	0.598886	0.599556
	C202	C	0.093778	0.400257	0.599353
	C203	C	0.906142	0.400349	0.400472
	C204	C	0.900892	0.593561	0.099596
	C205	C	0.098935	0.406251	0.099671
	C206	C	0.099189	0.594067	0.900616
	C207	C	0.900757	0.406531	0.899875
	C208	C	0.099615	0.900061	0.593489
	C209	C	0.099930	0.099499	0.405987
	C210	C	0.900234	0.099400	0.593361
	C211	C	0.900133	0.899617	0.406449
	C212	C	0.594611	0.099745	0.900375
	C213	C	0.405964	0.100089	0.100421
	C214	C	0.594098	0.900699	0.099274
	C215	C	0.406212	0.900412	0.900091
	Zn216	Zn	0.500128	0.000059	0.750502
	Zn217	Zn	0.500333	-0.000029	0.249726
	Zn218	Zn	0.750262	0.500145	-0.000207
	Zn219	Zn	0.249181	0.499944	-0.000240
	Zn220	Zn	0.000347	0.749373	0.499985
	Zn221	Zn	-0.000248	0.249740	0.499595
	Zn222	Zn	0.000169	0.500111	0.749902
	Zn223	Zn	-0.000360	0.499382	0.249620
	Zn224	Zn	0.500017	0.750330	-0.000119
	Zn225	Zn	0.500619	0.249891	0.000623
	Zn226	Zn	0.749451	0.000336	0.500120
	Zn227	Zn	0.250312	-0.000092	0.500012
	N228	N	0.414276	0.962690	0.679223
	N229	N	0.584989	0.037593	0.678655
	N230	N	0.586352	0.963171	0.320530
	N231	N	0.414515	0.037139	0.321157
	N232	N	0.678153	0.415445	0.962588
	N233	N	0.679165	0.586159	0.036903
	N234	N	0.321332	0.585347	0.962715
	N235	N	0.321277	0.415323	0.037610
	N236	N	0.962417	0.677640	0.414785
	N237	N	0.037280	0.677782	0.585328
	N238	N	0.962491	0.321550	0.584848
	N239	N	0.037423	0.321593	0.414685
	N240	N	0.962948	0.414037	0.678490
	N241	N	0.037198	0.585305	0.678412
	N242	N	0.962260	0.585013	0.321266
	N243	N	0.037279	0.414894	0.321873
	N244	N	0.414460	0.678641	0.962670
	N245	N	0.585500	0.678890	0.037230
	N246	N	0.586092	0.321141	0.963386
	N247	N	0.415055	0.322122	0.037847
	N248	N	0.677308	0.962337	0.415618
	N249	N	0.677985	0.037655	0.585672
	N250	N	0.322026	0.962199	0.585108
	N251	N	0.322646	0.037323	0.415554
	N252	N	0.913853	0.462719	0.178906
	N253	N	0.085839	0.536729	0.179389
	N254	N	0.085405	0.463372	0.821384
	N255	N	0.914136	0.537149	0.820735
	N256	N	0.178328	0.914957	0.462339
	N257	N	0.178065	0.084928	0.537095
	N258	N	0.821051	0.085527	0.462737
	N259	N	0.821562	0.914998	0.537356
	N260	N	0.462922	0.177841	0.915579
	N261	N	0.537433	0.178423	0.085758
	N262	N	0.462851	0.822358	0.084748
	N263	N	0.537603	0.821787	0.914734
	N264	N	0.463154	0.914660	0.178078
	N265	N	0.537564	0.085539	0.178400
	N266	N	0.462999	0.085297	0.822177
	N267	N	0.537515	0.914563	0.821703
	N268	N	0.914806	0.177731	0.462248
	N269	N	0.085493	0.178554	0.536869
	N270	N	0.085623	0.821093	0.462806
	N271	N	0.914672	0.821099	0.537292
	N272	N	0.177722	0.462935	0.914663
	N273	N	0.176648	0.537934	0.084488
	N274	N	0.822374	0.462313	0.084534
	N275	N	0.821825	0.537542	0.914539
