data_Molecule from HDF5

_cell_length_a		16.486840
_cell_length_b		16.544527
_cell_length_c		16.638811
_cell_angle_alpha	89.813917
_cell_angle_beta	89.976005
_cell_angle_gamma	89.933563
_symmetry_space_group_name_H-M	'P 1'
_symmetry_Int_Tables_number		1

loop_
	_symmetry_equiv_pos_as_xyz
	x,y,z

loop_
	_atom_site_label
	_atom_site_type_symbol
	_atom_site_fract_x
	_atom_site_fract_y
	_atom_site_fract_z
	H0	H	0.388384	0.857029	0.724920
	H1	H	0.601356	0.167977	0.723783
	H2	H	0.603422	0.856929	0.278205
	H3	H	0.386553	0.167443	0.276919
	H4	H	0.717448	0.406804	0.845438
	H5	H	0.718567	0.618083	0.156280
	H6	H	0.273268	0.617166	0.845841
	H7	H	0.271216	0.404641	0.156087
	H8	H	0.838270	0.737391	0.391369
	H9	H	0.150250	0.732882	0.604725
	H10	H	0.837780	0.290066	0.608450
	H11	H	0.151168	0.291341	0.397145
	H12	H	0.838353	0.405666	0.724274
	H13	H	0.150935	0.616799	0.721619
	H14	H	0.839602	0.623198	0.274475
	H15	H	0.150510	0.405738	0.279347
	H16	H	0.387783	0.735676	0.846892
	H17	H	0.603402	0.735636	0.155594
	H18	H	0.600999	0.289452	0.845746
	H19	H	0.387699	0.287865	0.156547
	H20	H	0.718317	0.856257	0.395463
	H21	H	0.716521	0.168202	0.606406
	H22	H	0.274998	0.854650	0.606379
	H23	H	0.272440	0.168499	0.395048
	H24	H	0.889934	0.354603	0.222302
	H25	H	0.099272	0.668463	0.221328
	H26	H	0.099163	0.354813	0.780656
	H27	H	0.886850	0.667989	0.777904
	H28	H	0.213385	0.909858	0.344198
	H29	H	0.216629	0.116710	0.657380
	H30	H	0.771927	0.118635	0.345547
	H31	H	0.770905	0.906195	0.657256
	H32	H	0.337663	0.232056	0.897202
	H33	H	0.652885	0.231240	0.105236
	H34	H	0.337868	0.791461	0.105740
	H35	H	0.652092	0.790111	0.896543
	H36	H	0.338284	0.906341	0.222822
	H37	H	0.651128	0.119266	0.224631
	H38	H	0.338285	0.118467	0.779289
	H39	H	0.651749	0.905286	0.778840
	H40	H	0.887366	0.236861	0.345982
	H41	H	0.099459	0.233211	0.657291
	H42	H	0.096841	0.793123	0.344750
	H43	H	0.884399	0.786743	0.656190
	H44	H	0.214761	0.353992	0.897434
	H45	H	0.213877	0.669333	0.102839
	H46	H	0.775783	0.353036	0.104914
	H47	H	0.771064	0.667797	0.895026
	H48	H	0.408610	0.124858	0.594176
	H49	H	0.578198	0.903421	0.587254
	H50	H	0.584410	0.124496	0.410970
	H51	H	0.403393	0.898439	0.410344
	H52	H	0.584273	0.425284	0.111712
	H53	H	0.582262	0.598408	0.890636
	H54	H	0.398663	0.597120	0.114260
	H55	H	0.407967	0.425403	0.891778
	H56	H	0.106134	0.607425	0.416536
	H57	H	0.881300	0.598479	0.592185
	H58	H	0.108746	0.422569	0.593677
	H59	H	0.881202	0.423999	0.411606
	H60	H	0.106483	0.420311	0.588058
	H61	H	0.881114	0.602113	0.588736
	H62	H	0.101723	0.593992	0.415571
	H63	H	0.882086	0.424825	0.414128
	H64	H	0.411004	0.596214	0.109098
	H65	H	0.580206	0.598894	0.891736
	H66	H	0.580232	0.419055	0.112327
	H67	H	0.407754	0.417669	0.889031
	H68	H	0.577463	0.122735	0.410551
	H69	H	0.586771	0.899120	0.589373
	H70	H	0.406910	0.123214	0.586923
	H71	H	0.407195	0.899843	0.408893
	H72	H	0.903300	0.623227	0.087847
	H73	H	0.078261	0.399691	0.096847
	H74	H	0.086754	0.625000	0.912512
	H75	H	0.912324	0.400531	0.909234
	H76	H	0.081554	0.918592	0.613989
	H77	H	0.082236	0.097172	0.392312
	H78	H	0.905911	0.101503	0.612709
	H79	H	0.906822	0.926217	0.391618
	H80	H	0.609921	0.097260	0.903421
	H81	H	0.379192	0.103084	0.098777
	H82	H	0.608229	0.925835	0.092669
	H83	H	0.383572	0.925853	0.913992
	H84	H	0.607761	0.920402	0.088378
	H85	H	0.382942	0.105587	0.081947
	H86	H	0.609182	0.108452	0.915516
	H87	H	0.381870	0.923124	0.909547
	H88	H	0.905091	0.100295	0.611836
	H89	H	0.079452	0.104866	0.390099
	H90	H	0.087844	0.921308	0.614689
	H91	H	0.907116	0.924590	0.391161
	H92	H	0.083162	0.625148	0.907047
	H93	H	0.080826	0.401570	0.085189
	H94	H	0.908141	0.623436	0.090858
	H95	H	0.906941	0.402217	0.918020
	H96	H	0.400883	0.126027	0.591499
	H97	H	0.580005	0.899447	0.595505
	H98	H	0.580996	0.122393	0.416963
	H99	H	0.406396	0.900514	0.413450
	H100	H	0.587042	0.419244	0.114648
	H101	H	0.581703	0.600531	0.891068
	H102	H	0.406809	0.607532	0.114810
	H103	H	0.400942	0.422486	0.888090
	H104	H	0.107968	0.600221	0.404412
	H105	H	0.882796	0.597742	0.587380
	H106	H	0.105629	0.426250	0.589903
	H107	H	0.882375	0.426766	0.412301
	H108	H	0.908304	0.621703	0.085691
	H109	H	0.089467	0.396913	0.092071
	H110	H	0.080714	0.622774	0.912370
	H111	H	0.902273	0.397743	0.909667
	H112	H	0.083132	0.924840	0.611617
	H113	H	0.087564	0.103231	0.388281
	H114	H	0.906772	0.100972	0.611544
	H115	H	0.905782	0.925445	0.390777
	H116	H	0.603687	0.093437	0.918050
	H117	H	0.386401	0.090692	0.089774
	H118	H	0.605216	0.926520	0.086462
	H119	H	0.381996	0.920674	0.914886
	C120	C	0.373821	0.021002	0.622693
	C121	C	0.614880	1.003940	0.622688
	C122	C	0.615472	0.020323	0.380337
	C123	C	0.372845	1.003298	0.378945
	C124	C	0.616616	0.389367	0.009784
	C125	C	0.615567	0.632417	0.993434
	C126	C	0.373191	0.633113	0.010185
	C127	C	0.373032	0.389375	0.992906
	C128	C	0.002310	0.634089	0.378757
	C129	C	0.985205	0.632783	0.622055
	C130	C	0.003397	0.390457	0.622948
	C131	C	0.985745	0.392194	0.380853
	C132	C	0.873809	0.519390	0.121614
	C133	C	0.115460	0.503277	0.122548
	C134	C	0.115667	0.520169	0.879550
	C135	C	0.873030	0.502997	0.879128
	C136	C	0.115597	0.890544	0.510062
	C137	C	0.116107	0.133977	0.493227
	C138	C	0.872428	0.134353	0.509638
	C139	C	0.872416	0.891055	0.493588
	C140	C	0.503513	0.132562	0.880093
	C141	C	0.486398	0.132751	0.123000
	C142	C	0.503422	0.891212	0.122049
	C143	C	0.486401	0.890889	0.880190
	C144	C	0.370871	0.903396	0.683851
	C145	C	0.618763	0.121353	0.683225
	C146	C	0.620180	0.903316	0.319349
	C147	C	0.369241	0.120864	0.317965
	C148	C	0.677063	0.387793	0.892221
	C149	C	0.677552	0.635783	0.109788
	C150	C	0.313154	0.635765	0.892822
	C151	C	0.311748	0.386411	0.109600
	C152	C	0.885229	0.696495	0.374345
	C153	C	0.103203	0.692978	0.623673
	C154	C	0.884934	0.330322	0.625843
	C155	C	0.104058	0.331820	0.378979
	C156	C	0.885167	0.387531	0.683813
	C157	C	0.103756	0.635178	0.681482
	C158	C	0.885799	0.639607	0.315972
	C159	C	0.103676	0.388732	0.320411
	C160	C	0.370137	0.694566	0.893379
	C161	C	0.620381	0.694448	0.109428
	C162	C	0.619101	0.329771	0.892230
	C163	C	0.369643	0.328264	0.109643
	C164	C	0.677397	0.903182	0.377677
	C165	C	0.675934	0.121483	0.624912
	C166	C	0.314357	0.902546	0.624892
	C167	C	0.312124	0.121163	0.376475
	C168	C	0.871505	0.401720	0.182329
	C169	C	0.117542	0.621595	0.181200
	C170	C	0.117772	0.401972	0.820309
	C171	C	0.869262	0.620868	0.818449
	C172	C	0.174121	0.890392	0.391684
	C173	C	0.176141	0.135331	0.610559
	C174	C	0.811833	0.137279	0.392313
	C175	C	0.811179	0.887808	0.610439
	C176	C	0.385132	0.192851	0.878279
	C177	C	0.605080	0.192282	0.124862
	C178	C	0.385272	0.830988	0.124421
	C179	C	0.604876	0.830334	0.877955
	C180	C	0.385438	0.888245	0.182565
	C181	C	0.604252	0.136473	0.184168
	C182	C	0.385430	0.136195	0.819716
	C183	C	0.604768	0.887685	0.819677
	C184	C	0.869380	0.195775	0.392619
	C185	C	0.118029	0.193361	0.610621
	C186	C	0.116000	0.832525	0.391689
	C187	C	0.867437	0.828233	0.609820
	C188	C	0.175098	0.401623	0.878560
	C189	C	0.174575	0.621851	0.122591
	C190	C	0.814860	0.400737	0.123471
	C191	C	0.811519	0.620767	0.876552
	C192	C	0.398541	0.103306	0.597832
	C193	C	0.589041	0.921995	0.597686
	C194	C	0.588695	0.101970	0.405605
	C195	C	0.398411	0.921149	0.403808
	C196	C	0.591231	0.414177	0.091530
	C197	C	0.589027	0.606494	0.912300
	C198	C	0.398315	0.607488	0.091644
	C199	C	0.398497	0.414582	0.910982
	C200	C	0.083983	0.607921	0.404775
	C201	C	0.903062	0.606933	0.596708
	C202	C	0.085513	0.415885	0.597705
	C203	C	0.903387	0.417901	0.405741
	C204	C	0.899252	0.601387	0.095678
	C205	C	0.090382	0.420848	0.098412
	C206	C	0.090770	0.602840	0.903671
	C207	C	0.899480	0.421498	0.904943
	C208	C	0.091074	0.914510	0.592022
	C209	C	0.090582	0.108977	0.411429
	C210	C	0.898338	0.108304	0.590946
	C211	C	0.898980	0.917597	0.412428
	C212	C	0.586065	0.107085	0.905096
	C213	C	0.404185	0.107097	0.097569
	C214	C	0.585607	0.917008	0.096493
	C215	C	0.403967	0.916230	0.905276
	Zn216	Zn	0.494828	0.012040	0.751951
	Zn217	Zn	0.495490	0.011482	0.250659
	Zn218	Zn	0.744881	0.511380	0.001574
	Zn219	Zn	0.244142	0.511582	0.000850
	Zn220	Zn	-0.006986	0.761736	0.501233
	Zn221	Zn	-0.005798	0.262851	0.501309
	Zn222	Zn	-0.005384	0.512164	0.750563
	Zn223	Zn	-0.006020	0.512414	0.251026
	Zn224	Zn	0.495509	0.762182	0.001608
	Zn225	Zn	0.495452	0.260460	0.001490
	Zn226	Zn	0.743986	0.012684	0.501391
	Zn227	Zn	0.245042	0.012048	0.501592
	N228	N	0.407119	0.978050	0.682836
	N229	N	0.581950	0.047038	0.682264
	N230	N	0.582244	0.977353	0.320892
	N231	N	0.406330	0.046564	0.319161
	N232	N	0.675634	0.424068	0.966362
	N233	N	0.674817	0.597980	0.036449
	N234	N	0.314955	0.597914	0.966253
	N235	N	0.313641	0.423622	0.035853
	N236	N	0.958516	0.692911	0.413319
	N237	N	0.028348	0.691701	0.587555
	N238	N	0.959455	0.331885	0.588835
	N239	N	0.029511	0.333909	0.415822
	N240	N	0.959594	0.424549	0.682017
	N241	N	0.029102	0.598764	0.680617
	N242	N	0.959515	0.601139	0.318846
	N243	N	0.029033	0.425610	0.321325
	N244	N	0.406804	0.693126	0.967438
	N245	N	0.582350	0.692179	0.036155
	N246	N	0.582410	0.330559	0.966301
	N247	N	0.407024	0.329925	0.035874
	N248	N	0.674428	0.976913	0.414909
	N249	N	0.673632	0.047414	0.587883
	N250	N	0.316022	0.976636	0.587534
	N251	N	0.314274	0.047016	0.413757
	N252	N	0.907195	0.476697	0.181479
	N253	N	0.081771	0.546674	0.181602
	N254	N	0.081624	0.476871	0.820543
	N255	N	0.906572	0.546569	0.819618
	N256	N	0.174374	0.925408	0.466361
	N257	N	0.174918	0.099137	0.536503
	N258	N	0.813428	0.100000	0.466174
	N259	N	0.814185	0.925960	0.537157
	N260	N	0.459662	0.190789	0.915101
	N261	N	0.530723	0.190347	0.087669
	N262	N	0.459757	0.832678	0.087650
	N263	N	0.530300	0.831916	0.914719
	N264	N	0.459997	0.925082	0.181210
	N265	N	0.529255	0.100343	0.183267
	N266	N	0.460246	0.099785	0.820405
	N267	N	0.530003	0.924550	0.820973
	N268	N	0.905870	0.194390	0.466780
	N269	N	0.081203	0.192447	0.536527
	N270	N	0.080406	0.832230	0.466313
	N271	N	0.904753	0.829986	0.535927
	N272	N	0.173784	0.476125	0.914711
	N273	N	0.173581	0.547090	0.087023
	N274	N	0.815967	0.475194	0.086626
	N275	N	0.813615	0.546373	0.913469
	O276	O	1.296637	0.710111	-0.299087
	H277	H	1.305900	0.698905	-0.302768
	H278	H	1.308301	0.707538	-0.313158
	O279	O	-0.071025	0.040138	1.049550
	H280	H	-0.076080	0.054282	1.030837
	H281	H	-0.067010	0.053524	1.051025
	O282	O	0.637753	0.616173	0.501882
	H283	H	0.637248	0.596570	0.503858
	H284	H	0.641379	0.608374	0.490847
	O285	O	0.090180	0.030297	0.913197
	H286	H	0.101957	0.034283	0.906581
	H287	H	0.096051	0.021611	0.894931
	O288	O	1.009026	-0.015867	0.952224
	H289	H	1.003127	-0.012925	0.945984
	H290	H	1.014993	-0.015311	0.956854
	O291	O	0.239045	0.279211	0.755360
	H292	H	0.241519	0.277763	0.745307
	H293	H	0.246179	0.316738	0.750063
	O294	O	-0.183932	-0.065333	0.083561
	H295	H	-0.181048	-0.068428	0.082542
	H296	H	-0.174832	-0.057586	0.084775
	O297	O	0.551953	0.298383	0.286069
	H298	H	0.551147	0.268143	0.273880
	H299	H	0.527051	0.300061	0.298511
	O300	O	0.163580	-0.019343	-0.061327
	H301	H	0.167278	-0.007161	-0.062831
	H302	H	0.163544	0.000210	-0.062042
	O303	O	-0.038693	0.223205	-0.210383
	H304	H	-0.021751	0.222668	-0.219609
	H305	H	-0.037807	0.227445	-0.209810
	O306	O	0.978645	-0.179971	0.154980
	H307	H	0.988090	-0.159322	0.152858
	H308	H	0.975140	-0.187388	0.174902
	O309	O	0.574628	0.731596	0.424451
	H310	H	0.575563	0.736262	0.404769
	H311	H	0.591715	0.741711	0.417761
	O312	O	0.274486	0.398122	0.485932
	H313	H	0.267290	0.396169	0.477745
	H314	H	0.273377	0.394602	0.484879
	O315	O	0.708526	0.541809	0.718209
	H316	H	0.717693	0.526059	0.725854
	H317	H	0.709433	0.536226	0.728610
	O318	O	1.283676	0.717281	0.291817
	H319	H	1.266834	0.729617	0.270904
	H320	H	1.281215	0.713729	0.323832
	O321	O	0.418944	0.464052	0.545257
	H322	H	0.419606	0.486510	0.540343
	H323	H	0.421919	0.465271	0.549536
	O324	O	1.165681	-0.040485	1.010974
	H325	H	1.176321	-0.039221	1.014005
	H326	H	1.160900	-0.042085	1.003649
	O327	O	0.851969	0.805147	1.174407
	H328	H	0.855196	0.813297	1.165481
	H329	H	0.860693	0.817062	1.181632
	O330	O	0.287715	0.481208	0.712023
	H331	H	0.279568	0.489231	0.708890
	H332	H	0.287039	0.497120	0.714146
	O333	O	0.271983	0.733486	0.464103
	H334	H	0.297886	0.734744	0.463752
	H335	H	0.246870	0.766947	0.468127
	O336	O	0.648285	0.325930	0.650058
	H337	H	0.643592	0.340263	0.637038
	H338	H	0.644149	0.337635	0.639237
	O339	O	0.676396	0.702292	0.692024
	H340	H	0.687610	0.663701	0.688869
	H341	H	0.681921	0.707506	0.657717
	O342	O	0.019810	1.226960	0.206284
	H343	H	0.029124	1.226879	0.208999
	H344	H	0.019489	1.242661	0.211593
	O345	O	0.118810	-0.199670	0.007327
	H346	H	0.116019	-0.196795	0.004867
	H347	H	0.119784	-0.203293	-0.001083
	O348	O	0.452950	0.723859	0.540480
	H349	H	0.463123	0.732268	0.557691
	H350	H	0.479853	0.722938	0.531835
	O351	O	0.022754	0.117579	1.144363
	H352	H	0.027209	0.126094	1.151971
	H353	H	0.028002	0.128933	1.128461
	O354	O	0.889199	-0.051025	0.828450
	H355	H	0.880783	-0.071187	0.836513
	H356	H	0.874544	-0.058487	0.826932
	O357	O	0.712317	0.291861	0.477091
	H358	H	0.713607	0.296287	0.470991
	H359	H	0.733072	0.273590	0.465913
	O360	O	0.274154	0.540551	0.278954
	H361	H	0.260676	0.553641	0.267715
	H362	H	0.273942	0.542820	0.269064
	O363	O	0.641830	0.626372	0.334822
	H364	H	0.644460	0.646874	0.320077
	H365	H	0.640851	0.637608	0.325548
	O366	O	0.795858	0.210850	0.804960
	H367	H	0.835766	0.216494	0.812450
	H368	H	0.776994	0.207822	0.780850
	O369	O	0.193411	0.014901	1.137554
	H370	H	0.182530	0.015619	1.132296
	H371	H	0.207753	0.014449	1.136469
	O372	O	-0.082526	0.812147	0.997185
	H373	H	-0.073289	0.808360	1.008918
	H374	H	-0.091735	0.806327	1.002165
	O375	O	1.146565	-0.142397	0.194566
	H376	H	1.124850	-0.120608	0.186664
	H377	H	1.150828	-0.124581	0.175263
	O378	O	0.422686	0.446978	0.274963
	H379	H	0.425473	0.445831	0.278354
	H380	H	0.423228	0.458409	0.271478
	O381	O	-0.106970	0.983934	0.198390
	H382	H	-0.104801	0.982514	0.202971
	H383	H	-0.108234	1.004747	0.190288
	O384	O	0.678952	0.371417	0.333608
	H385	H	0.660336	0.374486	0.316898
	H386	H	0.661221	0.372260	0.355850
	O387	O	0.199856	0.818354	0.797624
	H388	H	0.205194	0.797730	0.777682
	H389	H	0.180618	0.815233	0.820439
	O390	O	0.660610	0.716005	0.539986
	H391	H	0.667060	0.701818	0.529333
	H392	H	0.685212	0.732100	0.528090
	O393	O	1.207801	0.193851	0.039941
	H394	H	1.225217	0.199473	0.046218
	H395	H	1.203305	0.186800	0.037964
	O396	O	0.544269	0.345127	0.527315
	H397	H	0.529579	0.351489	0.531379
	H398	H	0.559662	0.351246	0.519238
	O399	O	0.511452	0.724455	0.717468
	H400	H	0.543671	0.716341	0.710701
	H401	H	0.525760	0.744434	0.738422
	O402	O	0.899088	0.108557	0.981134
	H403	H	0.894703	0.109052	0.999482
	H404	H	0.895575	0.097283	0.982700
	O405	O	0.408536	0.515771	0.532343
	H406	H	0.403089	0.514678	0.532777
	H407	H	0.401211	0.519106	0.529681
	O408	O	0.892031	1.052193	0.998671
	H409	H	0.904723	1.053036	0.987244
	H410	H	0.884895	1.060433	0.986905
	O411	O	1.003240	0.997596	0.162993
	H412	H	0.982369	1.007054	0.169456
	H413	H	1.012218	1.023599	0.151159
	O414	O	-0.212019	0.029861	-0.174978
	H415	H	-0.228547	0.033636	-0.190731
	H416	H	-0.206216	0.042792	-0.165457
	O417	O	0.712032	0.489503	0.280163
	H418	H	0.712884	0.464821	0.280413
	H419	H	0.728452	0.489419	0.264181
	O420	O	1.017777	0.207546	0.991492
	H421	H	1.011649	0.205843	0.988020
	H422	H	1.017798	0.210341	0.986615
	O423	O	0.860658	0.832514	-0.130102
	H424	H	0.867480	0.831738	-0.127491
	H425	H	0.870184	0.836608	-0.122641
	O426	O	0.669252	0.478881	0.502908
	H427	H	0.659612	0.483371	0.479484
	H428	H	0.665631	0.470986	0.509567
	O429	O	0.301725	0.576470	0.561214
	H430	H	0.296510	0.573857	0.539447
	H431	H	0.304447	0.590179	0.554541
	O432	O	1.027945	-0.207255	0.779699
	H433	H	1.014219	-0.202093	0.778639
	H434	H	1.029429	-0.226039	0.762757
	O435	O	0.461179	0.297446	0.400714
	H436	H	0.456239	0.297125	0.417223
	H437	H	0.449701	0.303878	0.408737
	O438	O	0.299170	0.362227	0.352538
	H439	H	0.304668	0.362974	0.363186
	H440	H	0.311375	0.373632	0.351675
	O441	O	0.469149	0.575542	0.366618
	H442	H	0.468411	0.582196	0.372644
	H443	H	0.487316	0.576264	0.367818
	O444	O	0.473057	0.724086	0.282287
	H445	H	0.468864	0.738914	0.259322
	H446	H	0.449712	0.717097	0.283113
	O447	O	0.572468	0.446065	0.500814
	H448	H	0.579138	0.444318	0.494382
	H449	H	0.566976	0.460389	0.501662
	O450	O	1.195879	0.189971	0.171227
	H451	H	1.186836	0.183830	0.150775
	H452	H	1.218865	0.187328	0.177878
	O453	O	0.512610	0.375279	0.720718
	H454	H	0.511757	0.367679	0.730520
	H455	H	0.505270	0.381359	0.717935
	O456	O	-0.171943	1.096964	1.020857
	H457	H	-0.171361	1.086409	1.003392
	H458	H	-0.179737	1.108315	1.024859
	O459	O	0.460494	0.549693	0.733761
	H460	H	0.453892	0.555324	0.725667
	H461	H	0.470240	0.563410	0.733199
	O462	O	0.829771	1.190681	0.002480
	H463	H	0.815921	1.198533	-0.003949
	H464	H	0.826299	1.190152	-0.017758
	O465	O	0.427003	0.355494	0.607470
	H466	H	0.426653	0.340394	0.598420
	H467	H	0.425604	0.367870	0.618564
	O468	O	0.046554	1.019134	0.000737
	H469	H	0.042323	1.020790	-0.009017
	H470	H	0.057056	1.033600	0.001076
	O471	O	0.626480	0.594015	0.347727
	H472	H	0.615268	0.598246	0.344523
	H473	H	0.636979	0.592938	0.349361
	O474	O	1.200825	0.991750	-0.214728
	H475	H	1.201772	0.982280	-0.224426
	H476	H	1.210154	0.958280	-0.226812
	O477	O	0.375455	0.283986	0.723851
	H478	H	0.375442	0.298267	0.709224
	H479	H	0.380397	0.269921	0.732622
