data_Molecule from HDF5

_cell_length_a		16.379747
_cell_length_b		16.290466
_cell_length_c		16.397001
_cell_angle_alpha	90.273963
_cell_angle_beta	90.306082
_cell_angle_gamma	90.210211
_symmetry_space_group_name_H-M	'P 1'
_symmetry_Int_Tables_number		1

loop_
	_symmetry_equiv_pos_as_xyz
	x,y,z

loop_
	_atom_site_label
	_atom_site_type_symbol
	_atom_site_fract_x
	_atom_site_fract_y
	_atom_site_fract_z
	H0	H	0.370322	0.829788	0.750620
	H1	H	0.577882	0.151968	0.756270
	H2	H	0.578481	0.830280	0.313681
	H3	H	0.369690	0.150938	0.315422
	H4	H	0.691260	0.383563	0.874412
	H5	H	0.696085	0.595926	0.192605
	H6	H	0.253606	0.589456	0.872123
	H7	H	0.254543	0.387264	0.195383
	H8	H	0.812993	0.711874	0.428300
	H9	H	0.132659	0.713588	0.640222
	H10	H	0.811761	0.274106	0.629921
	H11	H	0.135008	0.273248	0.432211
	H12	H	0.812432	0.385996	0.750146
	H13	H	0.132458	0.595310	0.755241
	H14	H	0.813088	0.594456	0.311537
	H15	H	0.134894	0.389172	0.315806
	H16	H	0.371530	0.704471	0.871076
	H17	H	0.578214	0.709968	0.193036
	H18	H	0.572088	0.270051	0.873841
	H19	H	0.370576	0.271481	0.195179
	H20	H	0.692605	0.831995	0.430227
	H21	H	0.691788	0.153418	0.638834
	H22	H	0.250704	0.832703	0.639498
	H23	H	0.258079	0.153806	0.433943
	H24	H	0.872174	0.328097	0.249778
	H25	H	0.079934	0.649988	0.255347
	H26	H	0.075807	0.328617	0.813080
	H27	H	0.866020	0.648961	0.812207
	H28	H	0.191426	0.888613	0.374806
	H29	H	0.194161	0.098943	0.694005
	H30	H	0.751433	0.096726	0.375146
	H31	H	0.751409	0.887654	0.692876
	H32	H	0.310429	0.204717	0.934135
	H33	H	0.631987	0.211044	0.140531
	H34	H	0.311627	0.769844	0.133996
	H35	H	0.633560	0.769692	0.929966
	H36	H	0.312078	0.884824	0.252318
	H37	H	0.631155	0.096017	0.257626
	H38	H	0.312111	0.092004	0.815186
	H39	H	0.632496	0.885260	0.813024
	H40	H	0.874346	0.203749	0.370684
	H41	H	0.075215	0.211056	0.693986
	H42	H	0.077425	0.770494	0.375079
	H43	H	0.865147	0.768850	0.691541
	H44	H	0.188702	0.326675	0.931797
	H45	H	0.194409	0.650090	0.138747
	H46	H	0.755776	0.327831	0.135421
	H47	H	0.750086	0.648352	0.926889
	H48	H	0.384822	0.105223	0.620901
	H49	H	0.560776	0.877630	0.624464
	H50	H	0.552190	0.100332	0.453312
	H51	H	0.377726	0.875102	0.444580
	H52	H	0.566702	0.398151	0.150007
	H53	H	0.562934	0.581942	0.918070
	H54	H	0.387800	0.578745	0.145271
	H55	H	0.382684	0.396457	0.920817
	H56	H	0.088573	0.586194	0.444076
	H57	H	0.858469	0.576624	0.626588
	H58	H	0.085609	0.412257	0.629292
	H59	H	0.862573	0.402234	0.445849
	H60	H	0.092565	0.392943	0.631170
	H61	H	0.858572	0.583835	0.621132
	H62	H	0.083742	0.578923	0.450757
	H63	H	0.857713	0.401194	0.432190
	H64	H	0.381841	0.582411	0.147806
	H65	H	0.566399	0.574020	0.919621
	H66	H	0.565062	0.403862	0.147286
	H67	H	0.378083	0.392913	0.917332
	H68	H	0.572962	0.108776	0.449971
	H69	H	0.563258	0.878071	0.621191
	H70	H	0.379618	0.108668	0.628706
	H71	H	0.383060	0.875175	0.441069
	H72	H	0.880527	0.605996	0.124870
	H73	H	0.056231	0.374972	0.131080
	H74	H	0.061924	0.604606	0.941148
	H75	H	0.878635	0.371139	0.935192
	H76	H	0.053776	0.907717	0.643557
	H77	H	0.070956	0.083801	0.417244
	H78	H	0.877400	0.081503	0.649390
	H79	H	0.881517	0.906469	0.421532
	H80	H	0.588946	0.079762	0.935765
	H81	H	0.357299	0.089006	0.117867
	H82	H	0.584795	0.904596	0.125720
	H83	H	0.362925	0.902399	0.950814
	H84	H	0.588388	0.898006	0.128348
	H85	H	0.362807	0.068316	0.120335
	H86	H	0.588246	0.089105	0.950627
	H87	H	0.359262	0.903596	0.933465
	H88	H	0.887251	0.080569	0.647012
	H89	H	0.065648	0.077047	0.419978
	H90	H	0.062386	0.896670	0.650546
	H91	H	0.886793	0.903878	0.422272
	H92	H	0.059923	0.601786	0.946778
	H93	H	0.062630	0.378224	0.115658
	H94	H	0.888273	0.603715	0.125120
	H95	H	0.890057	0.377048	0.940877
	H96	H	0.389743	0.106528	0.629710
	H97	H	0.564199	0.876150	0.624914
	H98	H	0.557990	0.108137	0.433140
	H99	H	0.382609	0.877085	0.446915
	H100	H	0.560403	0.399581	0.148314
	H101	H	0.558279	0.576092	0.921602
	H102	H	0.381296	0.575113	0.146242
	H103	H	0.376324	0.398700	0.919243
	H104	H	0.085842	0.576461	0.440699
	H105	H	0.862445	0.576509	0.618554
	H106	H	0.084369	0.398912	0.613255
	H107	H	0.856496	0.389606	0.441109
	H108	H	0.883615	0.602641	0.118130
	H109	H	0.072428	0.370366	0.127567
	H110	H	0.066325	0.604100	0.946157
	H111	H	0.878151	0.375031	0.948637
	H112	H	0.068759	0.910671	0.648249
	H113	H	0.062347	0.084963	0.418337
	H114	H	0.883165	0.089681	0.649693
	H115	H	0.881911	0.900695	0.419599
	H116	H	0.582545	0.071893	0.950503
	H117	H	0.354081	0.079536	0.136708
	H118	H	0.585888	0.898022	0.120947
	H119	H	0.355780	0.888443	0.941883
	C120	C	0.352188	0.000617	0.656579
	C121	C	0.594461	0.983476	0.655879
	C122	C	0.593420	-0.000219	0.413563
	C123	C	0.351557	0.982603	0.413778
	C124	C	0.593928	0.368011	0.042627
	C125	C	0.595254	0.610426	1.025002
	C126	C	0.351760	0.609700	0.040899
	C127	C	0.349454	0.366517	1.025733
	C128	C	-0.019337	0.612050	0.412445
	C129	C	0.964621	0.612617	0.655553
	C130	C	-0.018200	0.369185	0.654195
	C131	C	0.965509	0.368224	0.410577
	C132	C	0.852842	0.497710	0.153725
	C133	C	0.095420	0.480937	0.155885
	C134	C	0.093118	0.497027	0.913133
	C135	C	0.850366	0.480483	0.910560
	C136	C	0.093954	0.871383	0.542817
	C137	C	0.096442	0.114221	0.524865
	C138	C	0.851741	0.113465	0.542441
	C139	C	0.850669	0.870812	0.525442
	C140	C	0.480526	0.110543	0.914147
	C141	C	0.463708	0.111188	0.156992
	C142	C	0.480589	0.867751	0.155391
	C143	C	0.465011	0.867599	0.911232
	C144	C	0.351015	0.878657	0.713042
	C145	C	0.596276	0.104043	0.716058
	C146	C	0.596050	0.878890	0.353832
	C147	C	0.351174	0.103238	0.355115
	C148	C	0.651776	0.365548	0.922222
	C149	C	0.655635	0.613362	0.144976
	C150	C	0.293007	0.609143	0.920158
	C151	C	0.292883	0.367459	0.146885
	C152	C	0.860769	0.671629	0.410074
	C153	C	0.084484	0.673337	0.658559
	C154	C	0.860205	0.311933	0.651084
	C155	C	0.086941	0.311766	0.412244
	C156	C	0.860621	0.367829	0.710931
	C157	C	0.084497	0.614815	0.716211
	C158	C	0.861064	0.613379	0.351801
	C159	C	0.086728	0.369397	0.354381
	C160	C	0.351821	0.666139	0.919514
	C161	C	0.596952	0.670276	0.145250
	C162	C	0.592410	0.308911	0.921973
	C163	C	0.350810	0.310083	0.147154
	C164	C	0.653130	0.879592	0.411613
	C165	C	0.652893	0.104813	0.657635
	C166	C	0.291235	0.880342	0.657794
	C167	C	0.295393	0.104649	0.414063
	C168	C	0.852409	0.376526	0.211470
	C169	C	0.097423	0.602148	0.214961
	C170	C	0.093665	0.376282	0.853579
	C171	C	0.848057	0.600749	0.851467
	C172	C	0.152910	0.869317	0.422945
	C173	C	0.154567	0.116761	0.645796
	C174	C	0.791931	0.114380	0.422284
	C175	C	0.790794	0.868638	0.644850
	C176	C	0.359091	0.167082	0.914088
	C177	C	0.583849	0.171259	0.158916
	C178	C	0.360070	0.808753	0.154216
	C179	C	0.585423	0.808912	0.910592
	C180	C	0.360126	0.866186	0.212964
	C181	C	0.583627	0.113987	0.217242
	C182	C	0.359802	0.110880	0.854888
	C183	C	0.584930	0.866507	0.852396
	C184	C	0.853293	0.167683	0.420062
	C185	C	0.095271	0.172457	0.645913
	C186	C	0.095701	0.810825	0.423005
	C187	C	0.847548	0.809680	0.644398
	C188	C	0.150201	0.375398	0.912518
	C189	C	0.154573	0.602149	0.157034
	C190	C	0.794551	0.376292	0.154484
	C191	C	0.790298	0.600484	0.908814
	C192	C	0.377429	0.084880	0.633106
	C193	C	0.569935	0.899244	0.630842
	C194	C	0.568325	0.083814	0.438369
	C195	C	0.374693	0.897719	0.437429
	C196	C	0.570822	0.393115	0.126562
	C197	C	0.570025	0.584968	0.941812
	C198	C	0.376466	0.585783	0.124701
	C199	C	0.372293	0.389272	0.941090
	C200	C	0.064307	0.587570	0.437930
	C201	C	0.881682	0.586732	0.629436
	C202	C	0.065747	0.394070	0.631385
	C203	C	0.881027	0.391022	0.433127
	C204	C	0.876957	0.582157	0.129749
	C205	C	0.070725	0.396472	0.131758
	C206	C	0.069513	0.581583	0.937500
	C207	C	0.875160	0.396228	0.934871
	C208	C	0.068684	0.897401	0.625874
	C209	C	0.073100	0.089341	0.440548
	C210	C	0.875513	0.090245	0.626824
	C211	C	0.876026	0.896320	0.442703
	C212	C	0.564675	0.087042	0.938314
	C213	C	0.379836	0.085872	0.132214
	C214	C	0.564543	0.893029	0.131775
	C215	C	0.381102	0.891395	0.935127
	Zn216	Zn	0.473493	-0.009295	0.784047
	Zn217	Zn	0.472013	-0.010672	0.285276
	Zn218	Zn	0.723842	0.488825	0.033665
	Zn219	Zn	0.221869	0.488632	0.033950
	Zn220	Zn	-0.027405	0.742084	0.533959
	Zn221	Zn	-0.026456	0.240219	0.532515
	Zn222	Zn	-0.027349	0.489623	0.783672
	Zn223	Zn	-0.026664	0.490044	0.282499
	Zn224	Zn	0.473291	0.738875	0.032886
	Zn225	Zn	0.471813	0.239299	0.035067
	Zn226	Zn	0.722342	-0.007362	0.534034
	Zn227	Zn	0.223848	-0.007581	0.534965
	N228	N	0.388205	0.954392	0.712356
	N229	N	0.560880	0.027455	0.715194
	N230	N	0.559539	0.954777	0.355021
	N231	N	0.385344	0.026278	0.354887
	N232	N	0.652795	0.401493	0.998250
	N233	N	0.655053	0.577007	0.069071
	N234	N	0.292742	0.574962	0.996695
	N235	N	0.292169	0.401910	0.070460
	N236	N	0.936352	0.670931	0.446995
	N237	N	0.008923	0.672435	0.621864
	N238	N	0.936474	0.312644	0.616563
	N239	N	0.010502	0.310854	0.446330
	N240	N	0.937076	0.402835	0.712777
	N241	N	0.008885	0.577844	0.714648
	N242	N	0.936616	0.576900	0.353413
	N243	N	0.010286	0.403871	0.353265
	N244	N	0.387648	0.666609	0.995578
	N245	N	0.560300	0.668626	0.069853
	N246	N	0.557082	0.310387	0.997891
	N247	N	0.385243	0.309347	0.070803
	N248	N	0.651643	0.955817	0.447966
	N249	N	0.651993	0.028772	0.620886
	N250	N	0.291803	0.957093	0.623525
	N251	N	0.295603	0.028481	0.449955
	N252	N	0.887650	0.453189	0.211333
	N253	N	0.061125	0.525837	0.214119
	N254	N	0.058639	0.452947	0.854025
	N255	N	0.884769	0.525080	0.852566
	N256	N	0.152068	0.906368	0.498513
	N257	N	0.155494	0.081297	0.569491
	N258	N	0.790784	0.081534	0.499392
	N259	N	0.792563	0.905966	0.569916
	N260	N	0.435116	0.167003	0.950151
	N261	N	0.508129	0.169722	0.122299
	N262	N	0.436173	0.809421	0.119383
	N263	N	0.509898	0.809586	0.946606
	N264	N	0.436330	0.901921	0.214099
	N265	N	0.507906	0.077418	0.216193
	N266	N	0.436231	0.076260	0.854913
	N267	N	0.508912	0.901986	0.852425
	N268	N	0.889873	0.167201	0.495648
	N269	N	0.059842	0.170970	0.569629
	N270	N	0.059935	0.811984	0.498642
	N271	N	0.884257	0.810966	0.569285
	N272	N	0.149880	0.451441	0.948825
	N273	N	0.153443	0.525811	0.121187
	N274	N	0.794707	0.452733	0.119167
	N275	N	0.791524	0.524573	0.944821
	O276	O	0.571436	0.617765	0.595648
	H277	H	0.564554	0.621677	0.584798
	H278	H	0.579328	0.631283	0.587962
	O279	O	0.434908	0.648857	0.469420
	H280	H	0.428851	0.634022	0.465821
	H281	H	0.422555	0.661876	0.460082
	O282	O	1.024326	0.178921	1.085523
	H283	H	1.034173	0.188378	1.093402
	H284	H	1.026315	0.180061	1.073895
	O285	O	0.925199	-0.022456	0.019225
	H286	H	0.919567	-0.029024	0.027860
	H287	H	0.941889	-0.023402	0.016226
	O288	O	0.836520	1.070313	0.930865
	H289	H	0.841474	1.066033	0.923367
	H290	H	0.845679	1.056013	0.930581
	O291	O	0.389767	1.408976	0.698948
	H292	H	0.403013	1.409139	0.697382
	H293	H	0.398961	1.402377	0.707744
	O294	O	0.410859	0.585056	0.564388
	H295	H	0.387152	0.589648	0.560730
	H296	H	0.413966	0.589452	0.575356
	O297	O	0.618823	0.435468	0.547094
	H298	H	0.606742	0.447879	0.533800
	H299	H	0.624506	0.426540	0.548720
	O300	O	0.785009	0.026049	0.134156
	H301	H	0.779163	0.035462	0.121191
	H302	H	0.774778	0.036450	0.137092
	O303	O	0.415618	0.604894	0.493016
	H304	H	0.407391	0.604974	0.469479
	H305	H	0.424961	0.601779	0.496215
	O306	O	0.490907	1.603116	0.411947
	H307	H	0.487968	1.574369	0.399733
	H308	H	0.498381	1.607727	0.412369
	O309	O	1.152827	0.040699	0.186141
	H310	H	1.161140	0.038647	0.191518
	H311	H	1.146912	0.054155	0.197861
	O312	O	0.615609	0.459619	0.369607
	H313	H	0.627270	0.456966	0.377036
	H314	H	0.618635	0.450088	0.363434
	O315	O	0.619913	0.642693	0.713686
	H316	H	0.606446	0.659668	0.707133
	H317	H	0.617989	0.654141	0.696462
	O318	O	0.020425	1.082586	1.186362
	H319	H	0.017123	1.080937	1.177064
	H320	H	0.012860	1.085008	1.196645
	O321	O	0.432641	0.336411	0.407092
	H322	H	0.430868	0.323366	0.417789
	H323	H	0.445241	0.343643	0.406236
	O324	O	0.088289	-0.038472	-1.038526
	H325	H	0.101613	-0.027284	-1.026792
	H326	H	0.070766	-0.051491	-1.024004
	O327	O	0.059359	1.140910	0.084161
	H328	H	0.068684	1.145059	0.092016
	H329	H	0.075233	1.147157	0.094581
	O330	O	0.141732	-0.069741	0.859535
	H331	H	0.141701	-0.058132	0.852777
	H332	H	0.137055	-0.050952	0.846799
	O333	O	-0.145183	0.028721	0.979001
	H334	H	-0.158423	0.034906	0.975572
	H335	H	-0.149669	0.032973	0.953333
	O336	O	0.428669	1.367854	-0.383156
	H337	H	0.429677	1.378225	-0.384317
	H338	H	0.431025	1.376113	-0.379215
	O339	O	0.820102	-0.060377	0.063121
	H340	H	0.803917	-0.065463	0.071219
	H341	H	0.813355	-0.062552	0.058141
	O342	O	-0.185991	0.059458	-0.072834
	H343	H	-0.178852	0.068033	-0.072321
	H344	H	-0.182427	0.051165	-0.087354
	O345	O	0.938834	-0.162071	1.234530
	H346	H	0.924833	-0.154495	1.226163
	H347	H	0.920730	-0.175337	1.258616
	O348	O	1.031280	0.981193	0.055389
	H349	H	1.028387	0.982463	0.073677
	H350	H	1.021041	1.002972	0.055762
	O351	O	0.361748	0.484561	0.518440
	H352	H	0.362504	0.465455	0.521051
	H353	H	0.369411	0.485943	0.513881
	O354	O	0.598187	0.400151	1.537959
	H355	H	0.607312	0.393075	1.541851
	H356	H	0.602601	0.397992	1.522162
	O357	O	0.637015	0.465389	0.530951
	H358	H	0.639824	0.466046	0.548011
	H359	H	0.633651	0.466692	0.532533
	O360	O	1.962634	-0.084673	-0.171427
	H361	H	1.958779	-0.092036	-0.171977
	H362	H	1.958698	-0.087903	-0.174964
	O363	O	-0.221345	0.776209	1.084823
	H364	H	-0.211437	0.767880	1.075462
	H365	H	-0.233862	0.742236	1.085144
	O366	O	0.424520	0.645862	0.343603
	H367	H	0.423434	0.644320	0.331734
	H368	H	0.415526	0.642392	0.339413
	O369	O	0.017732	-0.104684	-1.052387
	H370	H	0.019083	-0.127479	-1.063143
	H371	H	0.036960	-0.107124	-1.038668
	O372	O	-0.182705	-0.152587	1.219608
	H373	H	-0.190964	-0.130723	1.210640
	H374	H	-0.185827	-0.139976	1.202442
	O375	O	0.476217	0.497998	0.632405
	H376	H	0.490253	0.491308	0.642177
	H377	H	0.469632	0.509699	0.636876
	O378	O	1.660080	1.525219	-0.389705
	H379	H	1.670358	1.532529	-0.383264
	H380	H	1.650574	1.555384	-0.393280
	O381	O	1.118364	-0.014264	-0.000998
	H382	H	1.122759	-0.031500	0.009289
	H383	H	1.112842	-0.020519	-0.010795
	O384	O	0.968302	1.065115	0.055004
	H385	H	0.965314	1.057251	0.037130
	H386	H	0.968310	1.062360	0.054281
	O387	O	1.081959	-0.186877	-0.086312
	H388	H	1.086157	-0.170890	-0.105535
	H389	H	1.097777	-0.196828	-0.071176
	O390	O	0.374878	1.399700	-0.490974
	H391	H	0.382838	1.397784	-0.484675
	H392	H	0.382245	1.391811	-0.490962
	O393	O	0.996695	1.041985	1.136365
	H394	H	0.996448	1.027419	1.145056
	H395	H	0.999171	1.043069	1.136565
	O396	O	-0.089463	0.182149	-0.089881
	H397	H	-0.070090	0.179441	-0.089819
	H398	H	-0.099106	0.194520	-0.089939
	O399	O	0.300468	0.531969	0.618752
	H400	H	0.313112	0.519033	0.615050
	H401	H	0.289467	0.527363	0.619426
	O402	O	0.539779	0.411885	0.477709
	H403	H	0.530578	0.411468	0.483970
	H404	H	0.550452	0.416947	0.487309
	O405	O	1.024221	0.799540	-0.011614
	H406	H	1.029317	0.806517	-0.008103
	H407	H	1.045722	0.787984	-0.015082
	O408	O	1.526042	1.368521	-0.505271
	H409	H	1.519044	1.374909	-0.496622
	H410	H	1.543010	1.381654	-0.499738
	O411	O	1.016123	-0.058010	1.039241
	H412	H	1.025213	-0.072304	1.032032
	H413	H	1.021601	-0.052088	1.032115
	O414	O	0.328440	0.684524	0.491040
	H415	H	0.334567	0.667644	0.476093
	H416	H	0.304212	0.700808	0.493093
	O417	O	0.429413	0.380838	0.519034
	H418	H	0.435697	0.376104	0.521170
	H419	H	0.432017	0.365291	0.526424
