data_Molecule from HDF5

_cell_length_a		16.579039
_cell_length_b		16.616683
_cell_length_c		16.618372
_cell_angle_alpha	90.122513
_cell_angle_beta	90.058819
_cell_angle_gamma	89.942835
_symmetry_space_group_name_H-M	'P 1'
_symmetry_Int_Tables_number		1

loop_
	_symmetry_equiv_pos_as_xyz
	x,y,z

loop_
	_atom_site_label
	_atom_site_type_symbol
	_atom_site_fract_x
	_atom_site_fract_y
	_atom_site_fract_z
	H0	H	0.385405	0.844761	0.677795
	H1	H	0.594408	0.155886	0.674689
	H2	H	0.595963	0.845049	0.233041
	H3	H	0.383362	0.154056	0.233178
	H4	H	0.712772	0.394855	0.799985
	H5	H	0.714002	0.606802	0.110997
	H6	H	0.266082	0.608037	0.802228
	H7	H	0.269298	0.393898	0.111201
	H8	H	0.838714	0.725163	0.344878
	H9	H	0.144409	0.724167	0.565680
	H10	H	0.835553	0.277685	0.561086
	H11	H	0.147881	0.277898	0.350468
	H12	H	0.836760	0.391734	0.679544
	H13	H	0.144859	0.607264	0.680202
	H14	H	0.838734	0.608491	0.230074
	H15	H	0.147729	0.394002	0.233999
	H16	H	0.383302	0.722570	0.801526
	H17	H	0.597500	0.723178	0.110669
	H18	H	0.596518	0.278838	0.800527
	H19	H	0.384328	0.276193	0.109420
	H20	H	0.712124	0.844353	0.350287
	H21	H	0.710582	0.156195	0.558619
	H22	H	0.269615	0.843757	0.562103
	H23	H	0.269366	0.154950	0.350514
	H24	H	0.887382	0.343649	0.175897
	H25	H	0.095226	0.655910	0.177174
	H26	H	0.098262	0.344971	0.733031
	H27	H	0.887042	0.655278	0.734625
	H28	H	0.211105	0.895470	0.299544
	H29	H	0.208926	0.101778	0.613851
	H30	H	0.775373	0.098645	0.298288
	H31	H	0.770467	0.894044	0.611852
	H32	H	0.335411	0.221610	0.851353
	H33	H	0.647551	0.219633	0.060263
	H34	H	0.333719	0.780523	0.059505
	H35	H	0.647603	0.778839	0.850810
	H36	H	0.333549	0.897039	0.174963
	H37	H	0.646509	0.104244	0.176718
	H38	H	0.335344	0.105713	0.734188
	H39	H	0.647751	0.896406	0.736065
	H40	H	0.892348	0.214997	0.297879
	H41	H	0.093128	0.218464	0.613089
	H42	H	0.094716	0.779219	0.299760
	H43	H	0.885498	0.777013	0.610475
	H44	H	0.211727	0.343610	0.852453
	H45	H	0.212010	0.655876	0.061834
	H46	H	0.770787	0.343690	0.060443
	H47	H	0.770467	0.655767	0.850648
	H48	H	0.405928	0.108376	0.541305
	H49	H	0.578430	0.888063	0.546629
	H50	H	0.575632	0.110660	0.363203
	H51	H	0.399758	0.885288	0.361303
	H52	H	0.578246	0.413122	0.066064
	H53	H	0.586498	0.589845	0.841574
	H54	H	0.402740	0.587372	0.067337
	H55	H	0.400877	0.413625	0.844756
	H56	H	0.100916	0.586299	0.372904
	H57	H	0.880286	0.587038	0.543532
	H58	H	0.102636	0.412762	0.545578
	H59	H	0.880412	0.411662	0.365116
	H60	H	0.104127	0.408104	0.547416
	H61	H	0.880434	0.586290	0.541596
	H62	H	0.101738	0.582635	0.366773
	H63	H	0.878106	0.407827	0.363122
	H64	H	0.404356	0.589729	0.067414
	H65	H	0.579030	0.583663	0.846166
	H66	H	0.580900	0.407728	0.068180
	H67	H	0.404693	0.414079	0.846061
	H68	H	0.581696	0.110991	0.372202
	H69	H	0.580887	0.888429	0.542274
	H70	H	0.395322	0.112054	0.541685
	H71	H	0.408531	0.890708	0.366994
	H72	H	0.908093	0.607153	0.038226
	H73	H	0.079229	0.389060	0.043256
	H74	H	0.073834	0.609873	0.867986
	H75	H	0.903823	0.388100	0.864274
	H76	H	0.078397	0.908654	0.567091
	H77	H	0.082181	0.092754	0.341893
	H78	H	0.900576	0.084884	0.567630
	H79	H	0.895955	0.919083	0.345201
	H80	H	0.605666	0.092562	0.863013
	H81	H	0.376956	0.090754	0.045431
	H82	H	0.601461	0.911355	0.042546
	H83	H	0.379322	0.906723	0.870622
	H84	H	0.602210	0.913349	0.046708
	H85	H	0.379973	0.090868	0.040684
	H86	H	0.602277	0.091513	0.869315
	H87	H	0.382358	0.916903	0.869135
	H88	H	0.906033	0.091910	0.567827
	H89	H	0.084635	0.086985	0.343017
	H90	H	0.081697	0.911004	0.567782
	H91	H	0.911690	0.911732	0.348542
	H92	H	0.081669	0.609950	0.873076
	H93	H	0.084139	0.386639	0.044455
	H94	H	0.894844	0.613250	0.042568
	H95	H	0.904488	0.389278	0.869684
	H96	H	0.402283	0.112616	0.550769
	H97	H	0.583095	0.886292	0.546388
	H98	H	0.585698	0.114536	0.362773
	H99	H	0.398317	0.888936	0.372594
	H100	H	0.584313	0.413259	0.067872
	H101	H	0.576520	0.593993	0.843691
	H102	H	0.401204	0.590163	0.067541
	H103	H	0.403543	0.410253	0.844338
	H104	H	0.103783	0.589846	0.367527
	H105	H	0.880416	0.585770	0.543170
	H106	H	0.103129	0.408505	0.541988
	H107	H	0.879997	0.407751	0.367723
	H108	H	0.906569	0.612519	0.052129
	H109	H	0.080320	0.387082	0.048461
	H110	H	0.081430	0.613389	0.864307
	H111	H	0.899809	0.387198	0.868064
	H112	H	0.078579	0.912501	0.566056
	H113	H	0.079031	0.088230	0.344844
	H114	H	0.897530	0.092664	0.571017
	H115	H	0.899277	0.902555	0.340012
	H116	H	0.602109	0.086242	0.864986
	H117	H	0.379644	0.086413	0.043901
	H118	H	0.603483	0.909022	0.045619
	H119	H	0.377250	0.911520	0.861252
	C120	C	0.369579	0.008051	0.577074
	C121	C	0.612392	0.991046	0.576638
	C122	C	0.612384	0.008518	0.334151
	C123	C	0.369555	0.990986	0.334669
	C124	C	0.613153	0.378999	-0.035557
	C125	C	0.613119	0.621730	0.946934
	C126	C	0.369331	0.621878	-0.034976
	C127	C	0.370672	0.379461	0.947757
	C128	C	0.000304	0.620323	0.334661
	C129	C	0.982585	0.620455	0.576753
	C130	C	0.000296	0.377058	0.577662
	C131	C	0.983260	0.377557	0.333945
	C132	C	0.871060	0.507782	0.076161
	C133	C	0.113243	0.490859	0.077588
	C134	C	0.111907	0.507989	0.835439
	C135	C	0.870211	0.491321	0.834800
	C136	C	0.111845	0.878528	0.464047
	C137	C	0.113183	0.120754	0.447191
	C138	C	0.870828	0.120095	0.464724
	C139	C	0.869532	0.877794	0.446965
	C140	C	0.500149	0.122224	0.833657
	C141	C	0.482268	0.121289	0.076286
	C142	C	0.499018	0.878922	0.077102
	C143	C	0.482784	0.878888	0.834389
	C144	C	0.367371	0.891272	0.637740
	C145	C	0.613545	0.108939	0.635412
	C146	C	0.614316	0.891504	0.273613
	C147	C	0.366123	0.107698	0.274139
	C148	C	0.672945	0.376202	0.847022
	C149	C	0.673594	0.624527	0.064096
	C150	C	0.307334	0.625372	0.848497
	C151	C	0.309611	0.375830	0.064392
	C152	C	0.884845	0.683612	0.328460
	C153	C	0.098143	0.682720	0.582133
	C154	C	0.882647	0.317500	0.579583
	C155	C	0.100896	0.317577	0.331915
	C156	C	0.883186	0.374337	0.638359
	C157	C	0.098448	0.624801	0.639494
	C158	C	0.884834	0.625721	0.271189
	C159	C	0.100771	0.375386	0.274246
	C160	C	0.365466	0.682360	0.848159
	C161	C	0.615807	0.682513	0.064064
	C162	C	0.615283	0.318571	0.847091
	C163	C	0.366961	0.317572	0.063616
	C164	C	0.671815	0.891085	0.331975
	C165	C	0.671185	0.108982	0.577715
	C166	C	0.309746	0.890793	0.579992
	C167	C	0.309131	0.107959	0.332284
	C168	C	0.868858	0.390413	0.136064
	C169	C	0.114145	0.608795	0.137445
	C170	C	0.115641	0.391348	0.774190
	C171	C	0.868312	0.608745	0.774940
	C172	C	0.171468	0.876718	0.346556
	C173	C	0.170132	0.120852	0.566295
	C174	C	0.813800	0.118954	0.345651
	C175	C	0.809940	0.875564	0.564568
	C176	C	0.382401	0.181826	0.832160
	C177	C	0.600180	0.180395	0.078922
	C178	C	0.380911	0.819827	0.078236
	C179	C	0.600491	0.818837	0.832490
	C180	C	0.380824	0.877875	0.135577
	C181	C	0.599670	0.122922	0.136676
	C182	C	0.382180	0.123863	0.774300
	C183	C	0.600654	0.877196	0.775397
	C184	C	0.871720	0.176670	0.345475
	C185	C	0.112760	0.179042	0.565941
	C186	C	0.113417	0.819294	0.346354
	C187	C	0.867372	0.817571	0.563877
	C188	C	0.171872	0.390566	0.833629
	C189	C	0.171774	0.609078	0.079671
	C190	C	0.810721	0.390820	0.078648
	C191	C	0.810640	0.608958	0.832701
	C192	C	0.394156	0.089740	0.551730
	C193	C	0.587850	0.908876	0.552259
	C194	C	0.588004	0.090768	0.359116
	C195	C	0.394988	0.909522	0.359674
	C196	C	0.588195	0.404165	0.046078
	C197	C	0.587840	0.596534	0.865086
	C198	C	0.395315	0.596463	0.046136
	C199	C	0.395985	0.405470	0.866179
	C200	C	0.081135	0.593625	0.361509
	C201	C	0.901490	0.593823	0.550193
	C202	C	0.082024	0.402577	0.552244
	C203	C	0.900916	0.402215	0.358390
	C204	C	0.896143	0.589756	0.051494
	C205	C	0.088598	0.408788	0.052396
	C206	C	0.086299	0.589803	0.861031
	C207	C	0.895474	0.409625	0.860071
	C208	C	0.086772	0.903445	0.545657
	C209	C	0.088987	0.096296	0.364702
	C210	C	0.894420	0.096739	0.547370
	C211	C	0.894927	0.903642	0.365695
	C212	C	0.581948	0.097331	0.858684
	C213	C	0.400288	0.096471	0.050737
	C214	C	0.581193	0.904003	0.052132
	C215	C	0.400898	0.904298	0.859675
	Zn216	Zn	0.491400	-0.000126	0.705510
	Zn217	Zn	0.490152	0.000399	0.205365
	Zn218	Zn	0.741644	0.500028	-0.044473
	Zn219	Zn	0.241381	0.500057	-0.043864
	Zn220	Zn	-0.008742	0.749023	0.455344
	Zn221	Zn	-0.008309	0.249364	0.455459
	Zn222	Zn	-0.009001	0.499390	0.705650
	Zn223	Zn	-0.008436	0.499385	0.205926
	Zn224	Zn	0.491056	0.750568	-0.044236
	Zn225	Zn	0.491604	0.250428	-0.044204
	Zn226	Zn	0.741396	-0.000551	0.456081
	Zn227	Zn	0.241206	-0.000665	0.456110
	N228	N	0.403730	0.965423	0.636327
	N229	N	0.577733	0.034404	0.635118
	N230	N	0.578139	0.965875	0.274666
	N231	N	0.403142	0.033996	0.275521
	N232	N	0.671917	0.412918	0.920868
	N233	N	0.672180	0.587685	-0.009842
	N234	N	0.309359	0.588490	0.922287
	N235	N	0.311795	0.413742	-0.008936
	N236	N	0.957674	0.680201	0.367540
	N237	N	0.024930	0.680228	0.543798
	N238	N	0.956572	0.319012	0.542530
	N239	N	0.026767	0.318968	0.368594
	N240	N	0.957435	0.410799	0.637327
	N241	N	0.025301	0.586700	0.636389
	N242	N	0.957585	0.586661	0.275023
	N243	N	0.026620	0.412092	0.275429
	N244	N	0.403497	0.680392	0.921543
	N245	N	0.578776	0.681015	-0.009911
	N246	N	0.578872	0.319989	0.921163
	N247	N	0.404241	0.319934	-0.010142
	N248	N	0.670846	0.965040	0.368800
	N249	N	0.670711	0.034627	0.541951
	N250	N	0.310871	0.964513	0.543056
	N251	N	0.311051	0.034328	0.369343
	N252	N	0.905473	0.464576	0.134965
	N253	N	0.078515	0.534134	0.136395
	N254	N	0.078967	0.465466	0.775365
	N255	N	0.904491	0.534370	0.775987
	N256	N	0.170799	0.912826	0.420801
	N257	N	0.170727	0.085673	0.491293
	N258	N	0.812835	0.085019	0.420800
	N259	N	0.811054	0.912342	0.490666
	N260	N	0.456669	0.181058	0.868236
	N261	N	0.525994	0.179825	0.042217
	N262	N	0.455774	0.820126	0.042816
	N263	N	0.525897	0.819663	0.868414
	N264	N	0.455466	0.913672	0.135112
	N265	N	0.525231	0.086896	0.135267
	N266	N	0.456597	0.087572	0.774991
	N267	N	0.526446	0.913819	0.776432
	N268	N	0.906196	0.177919	0.420752
	N269	N	0.078280	0.179413	0.490780
	N270	N	0.077202	0.820143	0.420379
	N271	N	0.903417	0.818565	0.489626
	N272	N	0.169989	0.464407	0.870773
	N273	N	0.171527	0.534668	0.043432
	N274	N	0.811802	0.464877	0.042325
	N275	N	0.811817	0.534949	0.869212
	O276	O	-0.004311	0.791497	0.108567
	H277	H	-0.004018	0.778695	0.122679
	H278	H	-0.006256	0.800499	0.093294
	O279	O	0.479693	0.357805	0.325302
	H280	H	0.495050	0.353878	0.326552
	H281	H	0.487601	0.346873	0.318530
	O282	O	1.202082	-0.036727	0.841070
	H283	H	1.203302	-0.037251	0.858155
	H284	H	1.217838	-0.037956	0.844128
	O285	O	0.282168	0.461829	0.673601
	H286	H	0.253150	0.458448	0.683910
	H287	H	0.269559	0.464749	0.651552
	O288	O	0.522959	0.716255	0.497590
	H289	H	0.524372	0.722524	0.511345
	H290	H	0.523458	0.715793	0.507728
	O291	O	-0.215486	-0.204901	0.162777
	H292	H	-0.194010	-0.183566	0.166364
	H293	H	-0.243087	-0.235509	0.195043
	O294	O	1.207006	0.028531	1.153677
	H295	H	1.224435	0.044892	1.174666
	H296	H	1.202540	0.054494	1.156493
	O297	O	0.015621	0.824770	1.012379
	H298	H	0.024908	0.825586	0.997236
	H299	H	0.012484	0.827924	1.007876
	O300	O	-0.209526	-0.147953	1.027521
	H301	H	-0.220921	-0.139412	1.047694
	H302	H	-0.225354	-0.154907	1.034923
	O303	O	0.558270	0.432657	0.672874
	H304	H	0.538177	0.411422	0.669716
	H305	H	0.558728	0.425068	0.665602
	O306	O	0.304213	0.691934	0.646239
	H307	H	0.319721	0.686253	0.650060
	H308	H	0.301233	0.686998	0.631569
	O309	O	1.013511	0.214615	0.943641
	H310	H	1.018807	0.225669	0.931646
	H311	H	0.998825	0.201607	0.923128
	O312	O	0.521609	0.560017	0.251870
	H313	H	0.520594	0.546903	0.255288
	H314	H	0.533186	0.539264	0.246081
	O315	O	1.527388	1.377993	1.505224
	H316	H	1.512368	1.376648	1.510474
	H317	H	1.532064	1.367520	1.499470
	O318	O	0.648005	0.463160	0.298780
	H319	H	0.656323	0.454655	0.297713
	H320	H	0.659705	0.447544	0.300162
	O321	O	0.530574	1.447318	0.431633
	H322	H	0.523934	1.438238	0.433775
	H323	H	0.531063	1.451746	0.434803
	O324	O	1.281451	1.501026	0.484981
	H325	H	1.279214	1.508895	0.464262
	H326	H	1.291526	1.510952	0.481938
	O327	O	-0.191931	0.184279	1.135959
	H328	H	-0.173421	0.173027	1.117524
	H329	H	-0.183545	0.162084	1.114893
	O330	O	0.939962	-0.073337	0.780894
	H331	H	0.952618	-0.065284	0.786536
	H332	H	0.936043	-0.088707	0.773447
	O333	O	0.413689	0.455667	0.231902
	H334	H	0.415212	0.454139	0.246988
	H335	H	0.406933	0.462293	0.229173
	O336	O	1.193263	0.014133	-0.055257
	H337	H	1.191324	-0.021735	-0.045655
	H338	H	1.199080	0.010434	-0.046363
	O339	O	0.873759	-0.840593	0.871992
	H340	H	0.878611	-0.842918	0.870845
	H341	H	0.869111	-0.827900	0.861071
	O342	O	-0.483225	0.717055	0.672175
	H343	H	-0.491529	0.715203	0.690054
	H344	H	-0.485854	0.711153	0.685452
	O345	O	-0.410143	1.371347	1.254522
	H346	H	-0.398733	1.376240	1.244537
	H347	H	-0.391529	1.352553	1.248218
	O348	O	0.290938	-0.293103	0.263136
	H349	H	0.320088	-0.286257	0.256314
	H350	H	0.285933	-0.289008	0.247948
	O351	O	0.708453	0.524014	0.439360
	H352	H	0.711445	0.520520	0.454913
	H353	H	0.718596	0.524660	0.429820
	O354	O	-0.543094	0.282474	1.676353
	H355	H	-0.556474	0.252007	1.703044
	H356	H	-0.569183	0.280411	1.659746
	O357	O	0.131878	0.148862	-0.189617
	H358	H	0.125115	0.138945	-0.175780
	H359	H	0.119942	0.138514	-0.178705
	O360	O	0.638046	0.567466	0.597874
	H361	H	0.631824	0.586265	0.590653
	H362	H	0.649696	0.571713	0.608499
	O363	O	0.274351	0.283166	0.493711
	H364	H	0.283469	0.306074	0.500593
	H365	H	0.242774	0.262612	0.486572
	O366	O	0.702890	0.286962	0.243371
	H367	H	0.701960	0.281633	0.260000
	H368	H	0.728442	0.268815	0.221324
	O369	O	0.793748	0.197087	-0.243811
	H370	H	0.767727	0.221490	-0.272045
	H371	H	0.787894	0.158144	-0.238735
	O372	O	0.476162	0.605127	0.316859
	H373	H	0.473981	0.616086	0.324828
	H374	H	0.490838	0.597909	0.304718
	O375	O	0.548960	-0.344071	0.436098
	H376	H	0.536107	-0.342167	0.447031
	H377	H	0.541860	-0.359727	0.435872
	O378	O	1.203427	0.783030	0.927426
	H379	H	1.202597	0.773749	0.922103
	H380	H	1.212027	0.767256	0.915131
	O381	O	0.192915	1.205740	1.160195
	H382	H	0.197441	1.223211	1.158384
	H383	H	0.193530	1.222092	1.153855
	O384	O	1.092338	-0.032844	0.796028
	H385	H	1.080340	-0.056032	0.805897
	H386	H	1.108922	-0.028702	0.778086
	O387	O	0.902257	1.033632	0.016106
	H388	H	0.897651	1.039024	0.013111
	H389	H	0.888009	1.043560	0.011466
	O390	O	0.513187	0.345116	0.468961
	H391	H	0.490189	0.336969	0.466870
	H392	H	0.518753	0.343801	0.448668
	O393	O	0.679229	0.308104	0.646128
	H394	H	0.668449	0.331452	0.631730
	H395	H	0.650940	0.316007	0.625386
	O396	O	-0.317548	0.692868	1.265998
	H397	H	-0.334207	0.662172	1.273217
	H398	H	-0.334601	0.690284	1.296206
	O399	O	-0.060248	0.028677	0.834332
	H400	H	-0.068346	0.023637	0.829827
	H401	H	-0.048890	0.030803	0.830149
	O402	O	0.327459	0.456033	0.486338
	H403	H	0.329270	0.467963	0.481497
	H404	H	0.323910	0.458658	0.495787
	O405	O	0.865181	-0.066964	0.926831
	H406	H	0.867939	-0.072084	0.927224
	H407	H	0.859603	-0.068550	0.937564
	O408	O	0.674366	0.389372	0.508934
	H409	H	0.676767	0.374860	0.499638
	H410	H	0.674315	0.404072	0.526644
	O411	O	0.400800	0.614667	0.459063
	H412	H	0.385718	0.638384	0.460851
	H413	H	0.419201	0.601665	0.465868
	O414	O	0.777844	-0.011773	0.135654
	H415	H	0.774742	-0.013578	0.135854
	H416	H	0.772594	-0.020711	0.131779
	O417	O	0.102811	1.211951	0.990436
	H418	H	0.095623	1.214717	0.994673
	H419	H	0.116118	1.222341	0.987448
	O420	O	-0.213225	1.052542	0.964623
	H421	H	-0.214575	1.062519	0.942208
	H422	H	-0.215159	1.048767	0.950719
	O423	O	-0.163012	-0.121401	0.833875
	H424	H	-0.153071	-0.121211	0.827010
	H425	H	-0.161250	-0.118877	0.843808
	O426	O	0.192777	0.796489	0.756108
	H427	H	0.184053	0.781154	0.736281
	H428	H	0.191620	0.818591	0.774193
	O429	O	0.486744	0.721791	0.281252
	H430	H	0.496587	0.712663	0.284373
	H431	H	0.496368	0.735401	0.272248
	O432	O	0.345420	0.291079	0.312459
	H433	H	0.363749	0.297452	0.304760
	H434	H	0.330477	0.301955	0.321627
	O435	O	-0.079508	0.906904	-0.042960
	H436	H	-0.088584	0.912400	-0.028765
	H437	H	-0.088423	0.885004	-0.035583
	O438	O	0.007975	-0.214378	-0.226359
	H439	H	-0.003022	-0.223060	-0.226048
	H440	H	0.007358	-0.221091	-0.228105
	O441	O	0.040598	-0.015751	0.168154
	H442	H	0.024632	-0.010512	0.172690
	H443	H	0.051275	-0.005220	0.171809
	O444	O	0.719746	0.665314	0.467962
	H445	H	0.724399	0.666803	0.466048
	H446	H	0.730893	0.685417	0.472089
	O447	O	0.281883	1.290295	1.662734
	H448	H	0.272996	1.306372	1.644508
	H449	H	0.264504	1.274697	1.674878
	O450	O	0.288702	1.429815	1.361324
	H451	H	0.309966	1.452854	1.359649
	H452	H	0.285191	1.451765	1.356258
	O453	O	0.781940	1.031104	0.746282
	H454	H	0.770591	1.026825	0.734580
	H455	H	0.795108	1.017859	0.746133
	O456	O	-0.030687	0.216419	0.748426
	H457	H	-0.060898	0.211286	0.741734
	H458	H	-0.044272	0.222551	0.729344
	O459	O	0.719064	0.273306	0.413893
	H460	H	0.729786	0.262211	0.409504
	H461	H	0.727328	0.259567	0.416281
	O462	O	0.937014	-0.043443	1.154926
	H463	H	0.929705	-0.036724	1.146763
	H464	H	0.942304	-0.043298	1.160834
	O465	O	1.663803	0.499782	0.525403
	H466	H	1.668010	0.483431	0.545614
	H467	H	1.666926	0.491796	0.525278
	O468	O	0.700977	0.705769	0.662839
	H469	H	0.710075	0.699621	0.667486
	H470	H	0.663992	0.707178	0.653262
	O471	O	1.004345	-0.025520	0.886253
	H472	H	1.010635	-0.032389	0.896839
	H473	H	1.005925	-0.022959	0.889180
	O474	O	0.209654	1.120213	-0.068948
	H475	H	0.218451	1.121059	-0.061277
	H476	H	0.203882	1.111459	-0.062876
	O477	O	0.261237	0.721390	1.428728
	H478	H	0.228194	0.755011	1.418013
	H479	H	0.284873	0.721074	1.404498
	O480	O	1.017452	0.201840	0.162438
	H481	H	1.014705	0.207840	0.149332
	H482	H	1.027513	0.212795	0.166567
	O483	O	0.150457	0.847900	0.074667
	H484	H	0.147655	0.845624	0.066755
	H485	H	0.132914	0.864320	0.071650
	O486	O	1.431757	-0.434340	1.685527
	H487	H	1.418689	-0.446708	1.689117
	H488	H	1.424144	-0.456165	1.683536
	O489	O	1.270530	0.548074	0.233142
	H490	H	1.276771	0.567860	0.233779
	H491	H	1.250342	0.554536	0.204225
