data_Molecule from HDF5

_cell_length_a		16.202372
_cell_length_b		16.357751
_cell_length_c		16.351745
_cell_angle_alpha	90.263435
_cell_angle_beta	89.929295
_cell_angle_gamma	89.942747
_symmetry_space_group_name_H-M	'P 1'
_symmetry_Int_Tables_number		1

loop_
	_symmetry_equiv_pos_as_xyz
	x,y,z

loop_
	_atom_site_label
	_atom_site_type_symbol
	_atom_site_fract_x
	_atom_site_fract_y
	_atom_site_fract_z
	H0	H	0.395177	0.836805	0.720862
	H1	H	0.594610	0.161483	0.723277
	H2	H	0.596087	0.837448	0.288602
	H3	H	0.393835	0.161785	0.291393
	H4	H	0.707180	0.402130	0.843262
	H5	H	0.707915	0.599037	0.169807
	H6	H	0.279051	0.596804	0.843528
	H7	H	0.279572	0.402351	0.170003
	H8	H	0.830038	0.714121	0.409553
	H9	H	0.158220	0.713310	0.608156
	H10	H	0.829533	0.284618	0.606062
	H11	H	0.157634	0.283496	0.407839
	H12	H	0.829397	0.401102	0.721007
	H13	H	0.156792	0.598888	0.723706
	H14	H	0.829365	0.598465	0.293810
	H15	H	0.158140	0.399222	0.292660
	H16	H	0.393892	0.714307	0.843257
	H17	H	0.595072	0.718885	0.168112
	H18	H	0.593879	0.282934	0.844255
	H19	H	0.392236	0.282636	0.168632
	H20	H	0.709325	0.836278	0.407706
	H21	H	0.708411	0.162231	0.605047
	H22	H	0.281434	0.835900	0.603741
	H23	H	0.279249	0.162181	0.409326
	H24	H	0.893350	0.335969	0.221527
	H25	H	0.093699	0.661238	0.224637
	H26	H	0.094104	0.337501	0.789863
	H27	H	0.892776	0.660965	0.791446
	H28	H	0.209143	0.900060	0.343888
	H29	H	0.207990	0.096156	0.670895
	H30	H	0.780696	0.095610	0.344393
	H31	H	0.779787	0.901401	0.670406
	H32	H	0.329685	0.212027	0.908835
	H33	H	0.658422	0.214668	0.105630
	H34	H	0.329958	0.785854	0.104357
	H35	H	0.657254	0.783217	0.905815
	H36	H	0.329868	0.900679	0.221327
	H37	H	0.658475	0.100028	0.222407
	H38	H	0.330045	0.096686	0.793355
	H39	H	0.658376	0.899788	0.791710
	H40	H	0.893604	0.214286	0.345833
	H41	H	0.094180	0.215698	0.670292
	H42	H	0.095572	0.780483	0.345481
	H43	H	0.895314	0.785236	0.671028
	H44	H	0.207516	0.336106	0.908451
	H45	H	0.208053	0.662877	0.106073
	H46	H	0.778523	0.336356	0.104401
	H47	H	0.780470	0.663160	0.911017
	H48	H	0.406438	0.116096	0.609139
	H49	H	0.580572	0.887401	0.593862
	H50	H	0.586491	0.115799	0.414377
	H51	H	0.404257	0.882632	0.407491
	H52	H	0.591666	0.411491	0.122838
	H53	H	0.583262	0.595487	0.891540
	H54	H	0.399525	0.595508	0.122612
	H55	H	0.402092	0.401935	0.890459
	H56	H	0.106708	0.587149	0.423626
	H57	H	0.876408	0.595463	0.599355
	H58	H	0.109888	0.417242	0.607228
	H59	H	0.878625	0.410059	0.413562
	H60	H	0.114784	0.395692	0.603664
	H61	H	0.878365	0.589712	0.598326
	H62	H	0.110722	0.584319	0.408279
	H63	H	0.874818	0.403915	0.411784
	H64	H	0.401081	0.591104	0.121660
	H65	H	0.591044	0.593722	0.888343
	H66	H	0.577728	0.410451	0.118581
	H67	H	0.399205	0.406012	0.890255
	H68	H	0.586907	0.114416	0.414566
	H69	H	0.594763	0.881764	0.596676
	H70	H	0.404647	0.112375	0.593690
	H71	H	0.407796	0.886059	0.416396
	H72	H	0.896374	0.613641	0.095611
	H73	H	0.083693	0.381647	0.109812
	H74	H	0.083801	0.610459	0.926899
	H75	H	0.895846	0.383685	0.918386
	H76	H	0.091377	0.903297	0.624632
	H77	H	0.089690	0.088099	0.392037
	H78	H	0.898148	0.092944	0.624679
	H79	H	0.909250	0.899326	0.392435
	H80	H	0.612941	0.092346	0.909045
	H81	H	0.379225	0.090179	0.097575
	H82	H	0.610702	0.908773	0.099669
	H83	H	0.376341	0.905397	0.911679
	H84	H	0.611065	0.907298	0.095208
	H85	H	0.378038	0.089960	0.101058
	H86	H	0.612075	0.096435	0.915976
	H87	H	0.376878	0.906079	0.912274
	H88	H	0.902735	0.089469	0.622353
	H89	H	0.081991	0.091311	0.392969
	H90	H	0.087742	0.909356	0.621800
	H91	H	0.895381	0.902844	0.389202
	H92	H	0.098245	0.619493	0.910786
	H93	H	0.080212	0.387484	0.093558
	H94	H	0.896508	0.618012	0.109223
	H95	H	0.899474	0.381290	0.907708
	H96	H	0.392196	0.118298	0.601887
	H97	H	0.584460	0.881714	0.607586
	H98	H	0.586943	0.114491	0.415008
	H99	H	0.397674	0.883516	0.415194
	H100	H	0.584493	0.399080	0.124526
	H101	H	0.585751	0.587975	0.892149
	H102	H	0.404644	0.595371	0.121214
	H103	H	0.403461	0.406171	0.891969
	H104	H	0.112619	0.598794	0.415115
	H105	H	0.875904	0.591259	0.603517
	H106	H	0.106808	0.408473	0.587495
	H107	H	0.877416	0.404452	0.418496
	H108	H	0.909139	0.613439	0.102866
	H109	H	0.095873	0.381540	0.097532
	H110	H	0.075035	0.615381	0.905781
	H111	H	0.906902	0.385763	0.915380
	H112	H	0.084021	0.902760	0.622969
	H113	H	0.087660	0.095376	0.390160
	H114	H	0.904321	0.095180	0.623658
	H115	H	0.904709	0.913142	0.394826
	H116	H	0.609906	0.088637	0.915602
	H117	H	0.377769	0.093279	0.099109
	H118	H	0.608677	0.911076	0.096508
	H119	H	0.375924	0.906083	0.911374
	C120	C	0.372815	0.007856	0.628643
	C121	C	0.615957	0.990771	0.628597
	C122	C	0.616067	0.007523	0.385062
	C123	C	0.373453	0.991152	0.384822
	C124	C	0.614653	0.378072	0.014862
	C125	C	0.615338	0.622010	0.998375
	C126	C	0.372744	0.621496	0.014193
	C127	C	0.372032	0.376484	0.998252
	C128	C	0.001986	0.619709	0.386862
	C129	C	0.985431	0.620379	0.629196
	C130	C	0.002112	0.378149	0.628342
	C131	C	0.985220	0.377085	0.385522
	C132	C	0.871607	0.507363	0.129890
	C133	C	0.115750	0.490949	0.129381
	C134	C	0.114926	0.507734	0.885318
	C135	C	0.872059	0.491058	0.885787
	C136	C	0.116881	0.876089	0.515593
	C137	C	0.115962	0.120762	0.499426
	C138	C	0.872519	0.120809	0.516155
	C139	C	0.873421	0.876891	0.499685
	C140	C	0.502883	0.120254	0.885561
	C141	C	0.486301	0.121170	0.128300
	C142	C	0.502126	0.879319	0.126944
	C143	C	0.485140	0.877667	0.883804
	C144	C	0.375147	0.885517	0.683251
	C145	C	0.614645	0.112925	0.684800
	C146	C	0.615517	0.885715	0.327561
	C147	C	0.374061	0.113330	0.329581
	C148	C	0.669987	0.380926	0.892238
	C149	C	0.670138	0.619548	0.121083
	C150	C	0.317123	0.617871	0.891918
	C151	C	0.316842	0.380723	0.120958
	C152	C	0.878753	0.675723	0.389267
	C153	C	0.109034	0.675781	0.628028
	C154	C	0.878576	0.322664	0.626107
	C155	C	0.108816	0.321611	0.387599
	C156	C	0.878570	0.380473	0.683375
	C157	C	0.108285	0.618835	0.685464
	C158	C	0.878699	0.618379	0.331366
	C159	C	0.108772	0.378792	0.330079
	C160	C	0.374341	0.676078	0.891658
	C161	C	0.614270	0.679402	0.120002
	C162	C	0.613734	0.321571	0.892724
	C163	C	0.372897	0.321137	0.120329
	C164	C	0.671353	0.884836	0.387048
	C165	C	0.671105	0.113414	0.625977
	C166	C	0.318657	0.884879	0.624666
	C167	C	0.317049	0.113362	0.387994
	C168	C	0.873572	0.384640	0.183837
	C169	C	0.113674	0.613097	0.185729
	C170	C	0.113581	0.385575	0.828958
	C171	C	0.873258	0.612948	0.830162
	C172	C	0.171968	0.878870	0.392961
	C173	C	0.170631	0.117533	0.621978
	C174	C	0.817662	0.117156	0.393381
	C175	C	0.817689	0.880484	0.621861
	C176	C	0.378952	0.174755	0.888187
	C177	C	0.609320	0.176995	0.126410
	C178	C	0.378824	0.823628	0.125159
	C179	C	0.608561	0.821722	0.885972
	C180	C	0.379175	0.880579	0.183401
	C181	C	0.609579	0.119689	0.183919
	C182	C	0.378972	0.117454	0.830810
	C183	C	0.609202	0.879715	0.829427
	C184	C	0.873897	0.176154	0.394082
	C185	C	0.114387	0.177145	0.621589
	C186	C	0.115345	0.819754	0.393551
	C187	C	0.875011	0.822435	0.622147
	C188	C	0.170063	0.385008	0.887838
	C189	C	0.170336	0.613959	0.126631
	C190	C	0.816153	0.384964	0.125892
	C191	C	0.817502	0.614094	0.889806
	C192	C	0.394585	0.093643	0.607671
	C193	C	0.593242	0.905502	0.606098
	C194	C	0.593366	0.092668	0.407867
	C195	C	0.396451	0.906113	0.406697
	C196	C	0.591456	0.400656	0.100139
	C197	C	0.593270	0.599212	0.912775
	C198	C	0.395127	0.600360	0.099690
	C199	C	0.395011	0.398325	0.912877
	C200	C	0.087742	0.596872	0.409225
	C201	C	0.899291	0.598645	0.606706
	C202	C	0.088280	0.400555	0.605965
	C203	C	0.899246	0.399402	0.408148
	C204	C	0.893962	0.592939	0.108702
	C205	C	0.093379	0.405547	0.106832
	C206	C	0.092252	0.593101	0.907725
	C207	C	0.894254	0.405579	0.907426
	C208	C	0.094360	0.898554	0.601170
	C209	C	0.093138	0.098144	0.413807
	C210	C	0.895161	0.099031	0.601562
	C211	C	0.896439	0.898790	0.414252
	C212	C	0.589410	0.098753	0.907147
	C213	C	0.400314	0.097992	0.105778
	C214	C	0.587942	0.902186	0.103701
	C215	C	0.398853	0.899578	0.905507
	Zn216	Zn	0.494523	-0.000479	0.757143
	Zn217	Zn	0.494935	-0.000152	0.256125
	Zn218	Zn	0.743379	0.499667	0.007498
	Zn219	Zn	0.244078	0.499411	0.006908
	Zn220	Zn	-0.005574	0.748027	0.508206
	Zn221	Zn	-0.005982	0.249620	0.507452
	Zn222	Zn	-0.006700	0.499130	0.756789
	Zn223	Zn	-0.006417	0.498209	0.258103
	Zn224	Zn	0.493679	0.750733	0.005579
	Zn225	Zn	0.494061	0.248512	0.006474
	Zn226	Zn	0.744555	-0.001464	0.506984
	Zn227	Zn	0.244691	-0.001334	0.507241
	N228	N	0.408199	0.963028	0.685863
	N229	N	0.581094	0.035688	0.686494
	N230	N	0.581717	0.962943	0.326347
	N231	N	0.408357	0.036449	0.327362
	N232	N	0.670623	0.415360	0.969256
	N233	N	0.671026	0.584749	0.044444
	N234	N	0.315988	0.584558	0.968968
	N235	N	0.316234	0.414464	0.044113
	N236	N	0.956552	0.676744	0.422828
	N237	N	0.031662	0.677006	0.593769
	N238	N	0.956331	0.321363	0.592327
	N239	N	0.031112	0.320377	0.421249
	N240	N	0.956362	0.414185	0.684716
	N241	N	0.030551	0.584963	0.686350
	N242	N	0.956220	0.583958	0.329867
	N243	N	0.030949	0.412502	0.328611
	N244	N	0.408170	0.678477	0.968839
	N245	N	0.580899	0.680768	0.042638
	N246	N	0.579944	0.319864	0.969777
	N247	N	0.406468	0.318604	0.042992
	N248	N	0.672012	0.961436	0.421947
	N249	N	0.672002	0.036550	0.591698
	N250	N	0.317033	0.961872	0.591549
	N251	N	0.316206	0.036387	0.421440
	N252	N	0.907281	0.461777	0.186512
	N253	N	0.080612	0.535678	0.187528
	N254	N	0.079799	0.462709	0.827613
	N255	N	0.906485	0.535574	0.827769
	N256	N	0.172897	0.913202	0.469957
	N257	N	0.171577	0.083314	0.544994
	N258	N	0.816694	0.083472	0.470307
	N259	N	0.816499	0.913505	0.544597
	N260	N	0.456906	0.176672	0.921389
	N261	N	0.531693	0.177793	0.092544
	N262	N	0.456238	0.822706	0.090892
	N263	N	0.530507	0.820291	0.919060
	N264	N	0.456932	0.914640	0.184476
	N265	N	0.531935	0.085643	0.185335
	N266	N	0.457080	0.084274	0.829067
	N267	N	0.531661	0.913926	0.828031
	N268	N	0.907374	0.178366	0.471280
	N269	N	0.080990	0.179081	0.544103
	N270	N	0.081955	0.817939	0.470904
	N271	N	0.908969	0.820269	0.545010
	N272	N	0.171226	0.461943	0.922166
	N273	N	0.171686	0.536890	0.092346
	N274	N	0.814615	0.462317	0.093270
	N275	N	0.816649	0.537302	0.923739
	O276	O	0.467090	0.532242	0.459965
	H277	H	0.464412	0.523273	0.468296
	H278	H	0.460371	0.526437	0.459808
	O279	O	0.491885	0.524520	0.476457
	H280	H	0.491587	0.523959	0.468769
	H281	H	0.495189	0.517405	0.471370
	O282	O	0.467146	0.545383	0.526295
	H283	H	0.469207	0.544747	0.517933
	H284	H	0.469649	0.546229	0.532434
	O285	O	0.025920	1.026686	1.090053
	H286	H	0.020211	1.018885	1.094200
	H287	H	0.031054	1.027894	1.099119
	O288	O	0.504405	1.482458	-0.502524
	H289	H	0.510017	1.483768	-0.506997
	H290	H	0.490145	1.490519	-0.517095
	O291	O	0.006688	-0.013520	1.106016
	H292	H	0.008004	-0.008362	1.098940
	H293	H	0.012745	-0.019888	1.106831
	O294	O	0.415564	0.484525	0.422461
	H295	H	0.412865	0.486311	0.419226
	H296	H	0.415879	0.488718	0.413631
	O297	O	0.513004	0.447935	0.483237
	H298	H	0.514147	0.453987	0.478407
	H299	H	0.511541	0.448206	0.475442
	O300	O	0.544322	0.471843	0.389072
	H301	H	0.542595	0.469266	0.397962
	H302	H	0.546227	0.480583	0.380718
	O303	O	0.553522	0.411475	0.509674
	H304	H	0.560257	0.404444	0.512234
	H305	H	0.541162	0.413555	0.510940
	O306	O	1.012542	0.042826	1.070345
	H307	H	1.017330	0.052758	1.072490
	H308	H	1.018981	0.045367	1.075758
	O309	O	0.531701	0.483410	0.559822
	H310	H	0.528110	0.476213	0.559273
	H311	H	0.531524	0.480455	0.563746
	O312	O	0.471886	0.542870	0.448711
	H313	H	0.474706	0.555218	0.448879
	H314	H	0.475701	0.537779	0.443483
	O315	O	1.019748	-0.022113	1.111250
	H316	H	1.017700	-0.026672	1.111483
	H317	H	1.019230	-0.021328	1.110010
	O318	O	0.044683	-0.017488	0.110096
	H319	H	0.042854	-0.028827	0.107999
	H320	H	0.049062	-0.018053	0.108844
	O321	O	0.469922	0.499312	0.493344
	H322	H	0.477921	0.501584	0.501314
	H323	H	0.479645	0.504388	0.490912
	O324	O	0.985636	-0.017151	0.043979
	H325	H	0.979735	-0.015710	0.046366
	H326	H	0.986298	-0.011298	0.043647
	O327	O	1.398245	0.592746	-0.533611
	H328	H	1.392010	0.602890	-0.537530
	H329	H	1.394546	0.584876	-0.527799
	O330	O	0.524274	0.456392	0.487870
	H331	H	0.523005	0.456435	0.478023
	H332	H	0.524518	0.459663	0.486487
	O333	O	0.514201	0.520984	0.438374
	H334	H	0.513520	0.513826	0.457607
	H335	H	0.508397	0.521845	0.439909
