data_Molecule from HDF5

_cell_length_a		16.454274
_cell_length_b		16.391076
_cell_length_c		16.299004
_cell_angle_alpha	90.020421
_cell_angle_beta	90.165813
_cell_angle_gamma	90.008752
_symmetry_space_group_name_H-M	'P 1'
_symmetry_Int_Tables_number		1

loop_
	_symmetry_equiv_pos_as_xyz
	x,y,z

loop_
	_atom_site_label
	_atom_site_type_symbol
	_atom_site_fract_x
	_atom_site_fract_y
	_atom_site_fract_z
	H0	H	0.393917	0.849025	0.720845
	H1	H	0.599381	0.169113	0.722250
	H2	H	0.597148	0.848484	0.283552
	H3	H	0.393177	0.170102	0.284389
	H4	H	0.712454	0.405868	0.841288
	H5	H	0.716514	0.616383	0.161096
	H6	H	0.274438	0.613975	0.841346
	H7	H	0.271871	0.404540	0.161550
	H8	H	0.835850	0.730949	0.396702
	H9	H	0.153393	0.728984	0.607621
	H10	H	0.835225	0.287525	0.604855
	H11	H	0.152974	0.286297	0.394292
	H12	H	0.833147	0.407865	0.717901
	H13	H	0.154185	0.609607	0.720741
	H14	H	0.835400	0.615276	0.279629
	H15	H	0.151996	0.404124	0.279381
	H16	H	0.391929	0.727853	0.840753
	H17	H	0.597157	0.727473	0.163751
	H18	H	0.596092	0.290839	0.842295
	H19	H	0.387166	0.288450	0.162482
	H20	H	0.715553	0.849184	0.396858
	H21	H	0.719250	0.168059	0.608886
	H22	H	0.275563	0.849306	0.607215
	H23	H	0.273868	0.168066	0.395427
	H24	H	0.888196	0.350280	0.221736
	H25	H	0.095754	0.669958	0.221655
	H26	H	0.093342	0.348468	0.786883
	H27	H	0.892269	0.670617	0.784253
	H28	H	0.214884	0.902218	0.340932
	H29	H	0.213350	0.110050	0.662563
	H30	H	0.775951	0.111502	0.341150
	H31	H	0.775210	0.903381	0.662530
	H32	H	0.334970	0.229230	0.897696
	H33	H	0.653269	0.231127	0.108329
	H34	H	0.334903	0.790125	0.105076
	H35	H	0.654192	0.788633	0.898563
	H36	H	0.334849	0.906594	0.221221
	H37	H	0.655006	0.111423	0.221442
	H38	H	0.335692	0.112061	0.781598
	H39	H	0.655021	0.905533	0.782555
	H40	H	0.892641	0.226035	0.341021
	H41	H	0.097731	0.226695	0.662089
	H42	H	0.096099	0.789342	0.340389
	H43	H	0.892962	0.790842	0.663691
	H44	H	0.213562	0.351507	0.898595
	H45	H	0.213940	0.669583	0.108033
	H46	H	0.772149	0.351188	0.106803
	H47	H	0.775637	0.670346	0.898953
	H48	H	0.402129	0.121765	0.586368
	H49	H	0.589650	0.896034	0.585862
	H50	H	0.588046	0.121850	0.417957
	H51	H	0.407659	0.895773	0.408899
	H52	H	0.577783	0.425132	0.113935
	H53	H	0.581148	0.591823	0.890535
	H54	H	0.402854	0.600357	0.117150
	H55	H	0.410139	0.417956	0.889315
	H56	H	0.108573	0.594912	0.404938
	H57	H	0.880993	0.599113	0.592187
	H58	H	0.105639	0.422533	0.592087
	H59	H	0.882138	0.412012	0.419996
	H60	H	0.110486	0.416207	0.599178
	H61	H	0.878859	0.601618	0.594975
	H62	H	0.109104	0.606436	0.415591
	H63	H	0.884277	0.426728	0.414391
	H64	H	0.403358	0.600990	0.117213
	H65	H	0.577872	0.606163	0.887640
	H66	H	0.582453	0.415670	0.118439
	H67	H	0.398914	0.417229	0.885902
	H68	H	0.589242	0.125135	0.409560
	H69	H	0.587311	0.893560	0.596850
	H70	H	0.402152	0.125089	0.594741
	H71	H	0.405148	0.896710	0.415096
	H72	H	0.902861	0.623029	0.086521
	H73	H	0.078388	0.396903	0.093423
	H74	H	0.075632	0.621945	0.911137
	H75	H	0.903722	0.396278	0.911207
	H76	H	0.092078	0.918651	0.617725
	H77	H	0.083637	0.099150	0.386098
	H78	H	0.899687	0.090659	0.616471
	H79	H	0.900050	0.922336	0.387003
	H80	H	0.609112	0.091578	0.903143
	H81	H	0.381491	0.095704	0.096741
	H82	H	0.609600	0.920399	0.099161
	H83	H	0.380377	0.914378	0.913235
	H84	H	0.609079	0.912625	0.089818
	H85	H	0.379060	0.106040	0.092416
	H86	H	0.612702	0.113171	0.910566
	H87	H	0.385503	0.922161	0.915183
	H88	H	0.915629	0.093713	0.612804
	H89	H	0.087695	0.097466	0.385936
	H90	H	0.083889	0.923880	0.613373
	H91	H	0.908735	0.921367	0.389337
	H92	H	0.090812	0.624733	0.919162
	H93	H	0.082242	0.399202	0.083906
	H94	H	0.902805	0.625071	0.092970
	H95	H	0.898925	0.394778	0.912857
	H96	H	0.409505	0.121610	0.590773
	H97	H	0.579112	0.898462	0.590129
	H98	H	0.581407	0.121760	0.412254
	H99	H	0.401840	0.892993	0.410793
	H100	H	0.589092	0.424986	0.116321
	H101	H	0.591337	0.601085	0.884743
	H102	H	0.402764	0.600978	0.117180
	H103	H	0.402956	0.427453	0.890985
	H104	H	0.102583	0.592565	0.419795
	H105	H	0.879656	0.602071	0.591166
	H106	H	0.108057	0.412760	0.589345
	H107	H	0.878033	0.415933	0.404919
	H108	H	0.908756	0.622324	0.090437
	H109	H	0.088253	0.394644	0.091076
	H110	H	0.088539	0.628789	0.902462
	H111	H	0.900159	0.392904	0.908182
	H112	H	0.082471	0.914599	0.616469
	H113	H	0.083875	0.095665	0.386953
	H114	H	0.906115	0.106118	0.619068
	H115	H	0.904244	0.914415	0.385997
	H116	H	0.602834	0.097948	0.925344
	H117	H	0.383531	0.097026	0.085591
	H118	H	0.605414	0.923979	0.088283
	H119	H	0.381257	0.921679	0.906855
	C120	C	0.374113	0.017045	0.622363
	C121	C	0.617659	1.001044	0.623633
	C122	C	0.616832	0.017191	0.381185
	C123	C	0.373364	1.000816	0.380015
	C124	C	0.614726	0.389650	0.010585
	C125	C	0.615432	0.631566	0.993712
	C126	C	0.372090	0.631952	0.010468
	C127	C	0.372004	0.388800	0.994130
	C128	C	0.001997	0.630184	0.381007
	C129	C	0.985155	0.631355	0.624306
	C130	C	0.002473	0.386538	0.623654
	C131	C	0.986068	0.386904	0.380146
	C132	C	0.872482	0.518336	0.122679
	C133	C	0.114676	0.501851	0.122886
	C134	C	0.115174	0.519121	0.880109
	C135	C	0.871240	0.501268	0.880069
	C136	C	0.116998	0.886947	0.509952
	C137	C	0.116153	0.129101	0.492392
	C138	C	0.874885	0.128695	0.510422
	C139	C	0.873588	0.887747	0.493893
	C140	C	0.503103	0.131759	0.880619
	C141	C	0.486226	0.131540	0.124063
	C142	C	0.503028	0.887872	0.123719
	C143	C	0.487379	0.887893	0.880412
	C144	C	0.374035	0.896998	0.681694
	C145	C	0.619025	0.121210	0.683038
	C146	C	0.616717	0.896779	0.322402
	C147	C	0.373107	0.121467	0.321993
	C148	C	0.673063	0.387607	0.889753
	C149	C	0.675986	0.634237	0.113590
	C150	C	0.314024	0.632477	0.889427
	C151	C	0.311919	0.386430	0.114195
	C152	C	0.883094	0.690825	0.378373
	C153	C	0.105502	0.689547	0.626168
	C154	C	0.882747	0.327383	0.623897
	C155	C	0.105049	0.326515	0.376541
	C156	C	0.881592	0.387497	0.679843
	C157	C	0.105814	0.630384	0.682616
	C158	C	0.882974	0.633236	0.320063
	C159	C	0.104685	0.385113	0.319109
	C160	C	0.372309	0.689458	0.889125
	C161	C	0.616512	0.689670	0.114798
	C162	C	0.615270	0.330279	0.889974
	C163	C	0.369461	0.328617	0.114346
	C164	C	0.675615	0.897012	0.379018
	C165	C	0.678305	0.120616	0.626516
	C166	C	0.315331	0.897111	0.624762
	C167	C	0.314282	0.120665	0.378178
	C168	C	0.870457	0.398281	0.182064
	C169	C	0.115588	0.621767	0.182966
	C170	C	0.113974	0.397509	0.824065
	C171	C	0.872494	0.622089	0.822671
	C172	C	0.175347	0.884631	0.388903
	C173	C	0.174446	0.129657	0.613896
	C174	C	0.815642	0.130091	0.389482
	C175	C	0.814922	0.885494	0.614536
	C176	C	0.383072	0.189856	0.879084
	C177	C	0.605831	0.191142	0.126160
	C178	C	0.382841	0.829443	0.124462
	C179	C	0.606845	0.828327	0.879473
	C180	C	0.382591	0.887787	0.181786
	C181	C	0.606703	0.131651	0.182692
	C182	C	0.383308	0.131620	0.821136
	C183	C	0.607194	0.886735	0.821902
	C184	C	0.873663	0.186996	0.389224
	C185	C	0.117139	0.187776	0.613645
	C186	C	0.116498	0.828002	0.388805
	C187	C	0.873615	0.829416	0.615140
	C188	C	0.173597	0.398857	0.879754
	C189	C	0.173967	0.621863	0.125906
	C190	C	0.812404	0.398829	0.124919
	C191	C	0.814277	0.622128	0.879568
	C192	C	0.397939	0.100998	0.597815
	C193	C	0.592644	0.917848	0.598340
	C194	C	0.593066	0.101045	0.406134
	C195	C	0.397834	0.916849	0.404405
	C196	C	0.590150	0.414898	0.094380
	C197	C	0.590557	0.606726	0.909468
	C198	C	0.395960	0.607648	0.095187
	C199	C	0.396833	0.413875	0.910648
	C200	C	0.085026	0.605028	0.406283
	C201	C	0.901533	0.607870	0.599924
	C202	C	0.086149	0.410289	0.600152
	C203	C	0.903190	0.411272	0.405717
	C204	C	0.897746	0.601822	0.097398
	C205	C	0.089966	0.418636	0.097062
	C206	C	0.091741	0.603240	0.903952
	C207	C	0.894119	0.416531	0.903933
	C208	C	0.093081	0.911725	0.593903
	C209	C	0.091994	0.104600	0.408291
	C210	C	0.899906	0.103990	0.594289
	C211	C	0.897529	0.912134	0.409389
	C212	C	0.586623	0.107672	0.905829
	C213	C	0.402986	0.106724	0.098922
	C214	C	0.586337	0.912099	0.099671
	C215	C	0.404095	0.912462	0.904783
	Zn216	Zn	0.495527	0.009411	0.751862
	Zn217	Zn	0.494986	0.009000	0.252571
	Zn218	Zn	0.743546	0.510583	0.001702
	Zn219	Zn	0.243993	0.510548	0.002326
	Zn220	Zn	-0.005293	0.759617	0.502071
	Zn221	Zn	-0.005525	0.257928	0.501480
	Zn222	Zn	-0.006793	0.509159	0.752211
	Zn223	Zn	-0.006241	0.509517	0.251401
	Zn224	Zn	0.494330	0.758933	0.002181
	Zn225	Zn	0.493799	0.260695	0.002748
	Zn226	Zn	0.745867	0.008523	0.502277
	Zn227	Zn	0.245173	0.008286	0.500630
	N228	N	0.410127	0.972584	0.680177
	N229	N	0.581997	0.046038	0.681436
	N230	N	0.580704	0.972528	0.323806
	N231	N	0.409081	0.045882	0.322999
	N232	N	0.672879	0.423759	0.965852
	N233	N	0.675302	0.598650	0.037314
	N234	N	0.313811	0.597565	0.966130
	N235	N	0.313500	0.423346	0.038617
	N236	N	0.958139	0.689080	0.415731
	N237	N	0.029609	0.690539	0.590740
	N238	N	0.958967	0.326759	0.589637
	N239	N	0.030254	0.327343	0.413654
	N240	N	0.956941	0.423443	0.679988
	N241	N	0.030005	0.595017	0.681792
	N242	N	0.957752	0.596210	0.321708
	N243	N	0.029786	0.422184	0.321313
	N244	N	0.407668	0.689257	0.965550
	N245	N	0.579376	0.687813	0.039099
	N246	N	0.579849	0.331171	0.966292
	N247	N	0.406467	0.330050	0.038899
	N248	N	0.675806	0.972846	0.414995
	N249	N	0.677351	0.045007	0.590299
	N250	N	0.315241	0.972868	0.588570
	N251	N	0.314076	0.044354	0.413133
	N252	N	0.906845	0.473787	0.180806
	N253	N	0.079374	0.546181	0.180942
	N254	N	0.078303	0.473359	0.824220
	N255	N	0.907240	0.545730	0.822841
	N256	N	0.175950	0.920293	0.465273
	N257	N	0.174262	0.094182	0.537517
	N258	N	0.816125	0.094524	0.465931
	N259	N	0.814914	0.921065	0.538167
	N260	N	0.458567	0.189876	0.915281
	N261	N	0.529886	0.191122	0.090524
	N262	N	0.458485	0.829357	0.089117
	N263	N	0.531428	0.829294	0.915474
	N264	N	0.458406	0.923321	0.181613
	N265	N	0.531381	0.095192	0.181517
	N266	N	0.459149	0.096320	0.821954
	N267	N	0.532015	0.923215	0.822606
	N268	N	0.909715	0.186188	0.465337
	N269	N	0.081912	0.187881	0.537049
	N270	N	0.080952	0.829423	0.464947
	N271	N	0.909279	0.830523	0.538914
	N272	N	0.174589	0.475552	0.913909
	N273	N	0.173757	0.546273	0.089358
	N274	N	0.813518	0.474543	0.088684
	N275	N	0.813284	0.545873	0.914425
	O276	O	0.571031	0.408652	0.434675
	H277	H	0.542290	0.398584	0.429024
	H278	H	0.579723	0.424481	0.428967
	O279	O	1.102590	0.042998	-0.046709
	H280	H	1.096409	0.033586	-0.041257
	H281	H	1.115729	0.045368	-0.046312
	O282	O	0.456982	0.514982	0.372234
	H283	H	0.439514	0.509059	0.378541
	H284	H	0.448926	0.515156	0.369572
	O285	O	1.168363	0.173007	0.172176
	H286	H	1.156505	0.166308	0.176839
	H287	H	1.157502	0.176501	0.149214
	O288	O	-0.191733	0.031939	0.829151
	H289	H	-0.202727	0.030435	0.820556
	H290	H	-0.185980	0.043719	0.826423
	O291	O	0.336301	0.550903	0.296905
	H292	H	0.337923	0.563592	0.310360
	H293	H	0.343120	0.554242	0.280460
	O294	O	0.346428	0.657353	0.594880
	H295	H	0.366738	0.645559	0.593876
	H296	H	0.355967	0.662889	0.585555
	O297	O	1.134897	1.112701	0.846322
	H298	H	1.123672	1.091840	0.837041
	H299	H	1.142423	1.115279	0.861312
	O300	O	0.121498	-0.051530	-0.152196
	H301	H	0.114885	-0.050836	-0.158132
	H302	H	0.120366	-0.047574	-0.145558
	O303	O	0.295922	0.451440	0.439905
	H304	H	0.297580	0.453739	0.431365
	H305	H	0.287830	0.444681	0.431165
	O306	O	0.976865	0.194805	0.151150
	H307	H	0.986705	0.206800	0.161099
	H308	H	0.975841	0.196087	0.152731
	O309	O	0.417184	0.564039	0.672584
	H310	H	0.413113	0.566572	0.661454
	H311	H	0.422405	0.555455	0.669977
	O312	O	0.487623	1.547643	-0.372856
	H313	H	0.478635	1.549339	-0.383284
	H314	H	0.486753	1.556029	-0.385648
	O315	O	0.553866	0.334740	0.349558
	H316	H	0.567005	0.322949	0.340663
	H317	H	0.530886	0.329838	0.366371
	O318	O	0.491524	0.310766	0.434729
	H319	H	0.499902	0.320418	0.439182
	H320	H	0.485680	0.292248	0.440172
	O321	O	1.044039	0.044339	0.944456
	H322	H	1.049147	0.047571	0.948956
	H323	H	1.034953	0.039052	0.930651
	O324	O	0.049819	-0.155451	0.900473
	H325	H	0.052753	-0.147877	0.901417
	H326	H	0.056201	-0.164590	0.890723
	O327	O	0.371754	0.404445	0.703221
	H328	H	0.368951	0.400286	0.708870
	H329	H	0.370501	0.419636	0.708009
	O330	O	0.683083	0.329428	0.505775
	H331	H	0.682232	0.343171	0.509452
	H332	H	0.692120	0.323202	0.496888
	O333	O	0.808654	0.925433	1.115616
	H334	H	0.792339	0.934766	1.123778
	H335	H	0.799557	0.933483	1.107990
	O336	O	0.641553	0.636415	0.529290
	H337	H	0.650661	0.633942	0.509520
	H338	H	0.652845	0.629919	0.517204
	O339	O	1.616959	-0.498898	1.308946
	H340	H	1.618652	-0.527264	1.300906
	H341	H	1.635975	-0.508637	1.299953
	O342	O	0.154212	1.111065	1.117581
	H343	H	0.161890	1.130548	1.131721
	H344	H	0.149216	1.126446	1.132167
	O345	O	-0.058207	0.896226	0.926742
	H346	H	-0.064411	0.894438	0.922332
	H347	H	-0.066724	0.894925	0.937763
	O348	O	1.124310	-0.058227	1.073759
	H349	H	1.135379	-0.061282	1.061355
	H350	H	1.121062	-0.046249	1.066170
	O351	O	-0.020547	0.031478	0.006184
	H352	H	-0.028549	0.014008	0.002260
	H353	H	-0.007273	0.015344	0.017841
	O354	O	0.887451	1.004071	0.005677
	H355	H	0.883256	1.000166	0.002300
	H356	H	0.891620	1.010322	-0.010436
	O357	O	-0.005455	1.047716	-0.144779
	H358	H	0.019066	1.028823	-0.149883
	H359	H	-0.018343	1.040192	-0.153606
	O360	O	0.588829	0.356719	0.405091
	H361	H	0.569917	0.360767	0.412379
	H362	H	0.586548	0.348064	0.388634
	O363	O	0.059017	0.025036	0.159660
	H364	H	0.065946	0.003311	0.162312
	H365	H	0.049727	0.030913	0.168903
	O366	O	-0.104433	1.169211	-0.145031
	H367	H	-0.104565	1.152594	-0.143404
	H368	H	-0.091479	1.174916	-0.150861
	O369	O	0.486364	0.325840	0.646944
	H370	H	0.478375	0.323833	0.656479
	H371	H	0.497952	0.325504	0.643233
	O372	O	0.597229	0.505768	0.550475
	H373	H	0.588198	0.488285	0.548291
	H374	H	0.593687	0.508172	0.542704
	O375	O	0.330179	0.662164	0.461716
	H376	H	0.329500	0.666742	0.466743
	H377	H	0.326747	0.676386	0.476132
	O378	O	0.276567	0.291175	0.531732
	H379	H	0.268354	0.286034	0.560963
	H380	H	0.261391	0.279400	0.530275
	O381	O	0.506192	0.589831	0.329740
	H382	H	0.517363	0.581283	0.334026
	H383	H	0.494201	0.572905	0.325589
	O384	O	-0.186558	1.187928	0.897248
	H385	H	-0.191627	1.188603	0.882250
	H386	H	-0.184619	1.208405	0.892660
	O387	O	1.307978	0.624893	-0.650417
	H388	H	1.319153	0.634087	-0.649778
	H389	H	1.300259	0.633101	-0.663469
	O390	O	0.592949	0.617946	0.658614
	H391	H	0.603882	0.627339	0.660906
	H392	H	0.582217	0.612950	0.663278
	O393	O	0.974168	-0.155733	1.026593
	H394	H	0.974172	-0.155761	1.027773
	H395	H	0.978879	-0.157797	1.036712
	O396	O	-0.169171	1.047304	1.069707
	H397	H	-0.167532	1.055710	1.061291
	H398	H	-0.156947	1.052284	1.070238
	O399	O	0.628705	0.675922	0.510364
	H400	H	0.626579	0.669323	0.521747
	H401	H	0.638538	0.690732	0.515633
	O402	O	1.100410	0.064395	1.011445
	H403	H	1.096208	0.060392	0.997783
	H404	H	1.092926	0.064872	1.002934
	O405	O	0.495643	-0.433413	0.506632
	H406	H	0.491374	-0.438474	0.499187
	H407	H	0.484704	-0.422227	0.498407
	O408	O	0.851418	1.048736	1.055997
	H409	H	0.847538	1.028252	1.037895
	H410	H	0.844983	1.050831	1.045303
	O411	O	0.697777	0.493121	0.527803
	H412	H	0.707231	0.489893	0.515658
	H413	H	0.701821	0.506824	0.538398
	O414	O	0.164818	-0.083827	0.825746
	H415	H	0.169548	-0.086662	0.835896
	H416	H	0.173414	-0.078429	0.824627
	O417	O	0.299336	0.323606	0.695429
	H418	H	0.314757	0.334447	0.689823
	H419	H	0.304886	0.339286	0.704621
	O420	O	0.619844	1.623636	-0.330113
	H421	H	0.615285	1.609874	-0.320613
	H422	H	0.629147	1.618740	-0.352055
	O423	O	0.927382	-0.130991	0.173272
	H424	H	0.932324	-0.138387	0.180627
	H425	H	0.922117	-0.129575	0.172101
	O426	O	0.082323	-0.083514	1.145860
	H427	H	0.073282	-0.088326	1.133725
	H428	H	0.102155	-0.063247	1.156992
	O429	O	0.507236	0.677970	0.386245
	H430	H	0.522824	0.674268	0.378499
	H431	H	0.511382	0.688326	0.377819
