data_Molecule from HDF5

_cell_length_a		16.550852
_cell_length_b		16.407918
_cell_length_c		16.439306
_cell_angle_alpha	90.123436
_cell_angle_beta	90.040432
_cell_angle_gamma	89.994267
_symmetry_space_group_name_H-M	'P 1'
_symmetry_Int_Tables_number		1

loop_
	_symmetry_equiv_pos_as_xyz
	x,y,z

loop_
	_atom_site_label
	_atom_site_type_symbol
	_atom_site_fract_x
	_atom_site_fract_y
	_atom_site_fract_z
	H0	H	0.413026	0.852259	0.723326
	H1	H	0.619184	0.170512	0.725687
	H2	H	0.623212	0.854801	0.279044
	H3	H	0.405201	0.167456	0.278175
	H4	H	0.739181	0.402570	0.847891
	H5	H	0.740616	0.620545	0.161008
	H6	H	0.292930	0.614984	0.848241
	H7	H	0.289506	0.398853	0.160783
	H8	H	0.858741	0.734545	0.396119
	H9	H	0.170176	0.734250	0.611437
	H10	H	0.859213	0.286363	0.611903
	H11	H	0.170961	0.285503	0.397184
	H12	H	0.858700	0.402530	0.728191
	H13	H	0.170781	0.616660	0.726736
	H14	H	0.859316	0.618273	0.279805
	H15	H	0.170659	0.399220	0.279644
	H16	H	0.414689	0.726069	0.845331
	H17	H	0.623059	0.735003	0.161135
	H18	H	0.621445	0.288402	0.846592
	H19	H	0.406331	0.286448	0.161052
	H20	H	0.738140	0.854243	0.395809
	H21	H	0.737723	0.169065	0.612590
	H22	H	0.293482	0.853971	0.610189
	H23	H	0.287163	0.165964	0.390990
	H24	H	0.907161	0.352528	0.227916
	H25	H	0.122715	0.667319	0.229371
	H26	H	0.120905	0.352289	0.782428
	H27	H	0.908893	0.668199	0.782103
	H28	H	0.240143	0.900005	0.347705
	H29	H	0.239644	0.119406	0.660866
	H30	H	0.789606	0.120786	0.348162
	H31	H	0.792071	0.904132	0.661347
	H32	H	0.358602	0.235402	0.895105
	H33	H	0.668982	0.240160	0.116272
	H34	H	0.358219	0.788382	0.108688
	H35	H	0.672814	0.787615	0.897463
	H36	H	0.358723	0.903615	0.226648
	H37	H	0.669695	0.123021	0.231796
	H38	H	0.358163	0.117135	0.781451
	H39	H	0.673360	0.906189	0.783118
	H40	H	0.908098	0.233756	0.347344
	H41	H	0.119838	0.231285	0.663255
	H42	H	0.121741	0.786651	0.346906
	H43	H	0.911383	0.791895	0.663406
	H44	H	0.237130	0.352148	0.897478
	H45	H	0.238794	0.666898	0.114088
	H46	H	0.789718	0.354122	0.114039
	H47	H	0.792095	0.668319	0.897795
	H48	H	0.425105	0.125373	0.592607
	H49	H	0.603076	0.900807	0.585978
	H50	H	0.604013	0.121984	0.423679
	H51	H	0.425839	0.900951	0.421900
	H52	H	0.593883	0.427871	0.112544
	H53	H	0.601049	0.594036	0.894747
	H54	H	0.423759	0.593596	0.117573
	H55	H	0.425318	0.417498	0.889595
	H56	H	0.125188	0.598852	0.420624
	H57	H	0.903283	0.600488	0.590441
	H58	H	0.123096	0.426879	0.588567
	H59	H	0.903031	0.420376	0.418285
	H60	H	0.128498	0.424437	0.600566
	H61	H	0.901927	0.597765	0.595311
	H62	H	0.125242	0.594202	0.417298
	H63	H	0.905719	0.425085	0.419489
	H64	H	0.431762	0.599644	0.117014
	H65	H	0.602335	0.602773	0.891217
	H66	H	0.603169	0.418232	0.118470
	H67	H	0.420274	0.427879	0.891957
	H68	H	0.602853	0.125045	0.414592
	H69	H	0.611197	0.895599	0.594580
	H70	H	0.427057	0.124507	0.593640
	H71	H	0.425787	0.896927	0.413616
	H72	H	0.926343	0.621652	0.089267
	H73	H	0.107386	0.398913	0.084274
	H74	H	0.103940	0.622451	0.918377
	H75	H	0.924979	0.395971	0.912735
	H76	H	0.103384	0.916455	0.618694
	H77	H	0.104768	0.097645	0.391194
	H78	H	0.925789	0.095001	0.616105
	H79	H	0.920439	0.926843	0.390984
	H80	H	0.623433	0.093682	0.919647
	H81	H	0.403839	0.097405	0.093298
	H82	H	0.625964	0.924733	0.092889
	H83	H	0.401138	0.919515	0.907728
	H84	H	0.627305	0.922498	0.091125
	H85	H	0.404699	0.100206	0.089329
	H86	H	0.627996	0.097802	0.910611
	H87	H	0.401872	0.912583	0.914552
	H88	H	0.928529	0.099125	0.615916
	H89	H	0.101470	0.093033	0.394268
	H90	H	0.112160	0.925335	0.618334
	H91	H	0.931915	0.927355	0.394619
	H92	H	0.105945	0.624108	0.916301
	H93	H	0.107265	0.393083	0.099083
	H94	H	0.928260	0.623469	0.094694
	H95	H	0.930808	0.399666	0.916768
	H96	H	0.426267	0.123723	0.590982
	H97	H	0.599154	0.898894	0.598432
	H98	H	0.596033	0.120685	0.419036
	H99	H	0.433475	0.901309	0.416492
	H100	H	0.607123	0.431859	0.115659
	H101	H	0.609894	0.596625	0.890638
	H102	H	0.423080	0.603210	0.121266
	H103	H	0.431481	0.425377	0.895120
	H104	H	0.127193	0.599310	0.415443
	H105	H	0.900130	0.603335	0.594879
	H106	H	0.128283	0.415182	0.591513
	H107	H	0.902830	0.424442	0.414538
	H108	H	0.932589	0.620191	0.091019
	H109	H	0.094692	0.399931	0.093092
	H110	H	0.102490	0.623293	0.915278
	H111	H	0.924013	0.397726	0.919981
	H112	H	0.100548	0.927926	0.614133
	H113	H	0.098889	0.099140	0.392654
	H114	H	0.924076	0.099408	0.618251
	H115	H	0.927486	0.916874	0.389866
	H116	H	0.627253	0.104262	0.919711
	H117	H	0.406287	0.095727	0.089877
	H118	H	0.625625	0.924999	0.089414
	H119	H	0.405260	0.921857	0.916451
	C120	C	0.394533	0.019580	0.624859
	C121	C	0.636865	1.002881	0.626247
	C122	C	0.636019	0.019800	0.383593
	C123	C	0.393265	1.002820	0.382392
	C124	C	0.635875	0.390700	0.012543
	C125	C	0.637600	0.632131	0.995760
	C126	C	0.394274	0.630327	0.013646
	C127	C	0.392809	0.389511	0.996050
	C128	C	0.023075	0.631699	0.383386
	C129	C	1.005344	0.632803	0.626380
	C130	C	0.023397	0.388890	0.626465
	C131	C	1.006854	0.388600	0.383486
	C132	C	0.894474	0.518209	0.125383
	C133	C	0.136693	0.501094	0.126797
	C134	C	0.136199	0.518640	0.883705
	C135	C	0.893818	0.502241	0.883615
	C136	C	0.137954	0.888539	0.513169
	C137	C	0.135941	0.131117	0.496124
	C138	C	0.893124	0.132207	0.513023
	C139	C	0.893956	0.890625	0.495941
	C140	C	0.522786	0.131917	0.883451
	C141	C	0.506753	0.133646	0.126309
	C142	C	0.523338	0.890020	0.124513
	C143	C	0.506997	0.887155	0.881319
	C144	C	0.393519	0.900221	0.684148
	C145	C	0.638204	0.122497	0.686317
	C146	C	0.640493	0.901947	0.320435
	C147	C	0.388370	0.120292	0.319394
	C148	C	0.698310	0.385352	0.894864
	C149	C	0.699467	0.637216	0.113889
	C150	C	0.333712	0.633033	0.895263
	C151	C	0.330989	0.383667	0.113964
	C152	C	0.905862	0.693891	0.378751
	C153	C	0.123330	0.693660	0.629230
	C154	C	0.905851	0.327245	0.629748
	C155	C	0.123876	0.326125	0.379546
	C156	C	0.905763	0.385164	0.687789
	C157	C	0.123629	0.635081	0.686462
	C158	C	0.906042	0.635841	0.320991
	C159	C	0.123755	0.383062	0.320715
	C160	C	0.394355	0.688010	0.893725
	C161	C	0.641385	0.694515	0.113969
	C162	C	0.639545	0.328579	0.894273
	C163	C	0.389058	0.326872	0.113704
	C164	C	0.698042	0.901768	0.378424
	C165	C	0.697070	0.121945	0.629764
	C166	C	0.334480	0.900816	0.627419
	C167	C	0.329258	0.119494	0.375739
	C168	C	0.889584	0.400156	0.187560
	C169	C	0.140725	0.619585	0.189093
	C170	C	0.138830	0.399872	0.822488
	C171	C	0.890565	0.620849	0.822382
	C172	C	0.199091	0.883447	0.394760
	C173	C	0.198270	0.136000	0.614011
	C174	C	0.830764	0.137486	0.395262
	C175	C	0.832899	0.886868	0.614280
	C176	C	0.405542	0.194339	0.878550
	C177	C	0.622519	0.198340	0.132819
	C178	C	0.405773	0.828256	0.127733
	C179	C	0.625594	0.827828	0.879518
	C180	C	0.405689	0.886065	0.186066
	C181	C	0.622921	0.139754	0.190358
	C182	C	0.405178	0.135513	0.821693
	C183	C	0.625843	0.886672	0.822289
	C184	C	0.890090	0.193498	0.394729
	C185	C	0.138649	0.191800	0.615342
	C186	C	0.140138	0.826963	0.394440
	C187	C	0.892509	0.831027	0.615394
	C188	C	0.196686	0.399685	0.880216
	C189	C	0.198449	0.619395	0.131490
	C190	C	0.830959	0.401090	0.130737
	C191	C	0.832810	0.620957	0.880222
	C192	C	0.419097	0.102991	0.599553
	C193	C	0.611763	0.920066	0.600346
	C194	C	0.608941	0.101322	0.411272
	C195	C	0.420653	0.920990	0.409872
	C196	C	0.609210	0.418046	0.094211
	C197	C	0.611696	0.605481	0.913577
	C198	C	0.419007	0.605817	0.097078
	C199	C	0.418548	0.416025	0.913755
	C200	C	0.104548	0.605067	0.410179
	C201	C	0.923123	0.607735	0.600916
	C202	C	0.105386	0.414684	0.600695
	C203	C	0.925291	0.415636	0.409889
	C204	C	0.921370	0.600346	0.099109
	C205	C	0.110501	0.418881	0.100176
	C206	C	0.111240	0.601528	0.909414
	C207	C	0.919184	0.419624	0.909113
	C208	C	0.112738	0.915468	0.595363
	C209	C	0.109320	0.104359	0.414109
	C210	C	0.918796	0.105572	0.595347
	C211	C	0.919350	0.916306	0.413399
	C212	C	0.604713	0.105881	0.909341
	C213	C	0.425972	0.105833	0.098676
	C214	C	0.604905	0.916555	0.098660
	C215	C	0.424258	0.911214	0.905957
	Zn216	Zn	0.515366	0.011368	0.754084
	Zn217	Zn	0.515037	0.010952	0.254651
	Zn218	Zn	0.765496	0.510581	0.004601
	Zn219	Zn	0.264677	0.509667	0.005069
	Zn220	Zn	0.014576	0.761502	0.504546
	Zn221	Zn	0.015121	0.259656	0.505132
	Zn222	Zn	0.015131	0.510711	0.755294
	Zn223	Zn	0.015130	0.509508	0.254549
	Zn224	Zn	0.515997	0.759689	0.004555
	Zn225	Zn	0.514488	0.261802	0.003607
	Zn226	Zn	0.764878	0.011430	0.504722
	Zn227	Zn	0.264948	0.011038	0.503889
	N228	N	0.430203	0.975296	0.682468
	N229	N	0.601727	0.047359	0.684429
	N230	N	0.602914	0.976471	0.323198
	N231	N	0.427332	0.046324	0.323343
	N232	N	0.696359	0.422935	0.969550
	N233	N	0.697188	0.599109	0.039358
	N234	N	0.333447	0.598083	0.971164
	N235	N	0.333087	0.421728	0.039702
	N236	N	0.979741	0.691427	0.416891
	N237	N	0.048784	0.692295	0.592545
	N238	N	0.979824	0.329601	0.592143
	N239	N	0.050074	0.329337	0.417740
	N240	N	0.979929	0.422796	0.685886
	N241	N	0.049160	0.598130	0.685046
	N242	N	0.979917	0.597702	0.323724
	N243	N	0.049823	0.421226	0.323032
	N244	N	0.431218	0.686554	0.968581
	N245	N	0.603788	0.691525	0.039560
	N246	N	0.601601	0.331530	0.968580
	N247	N	0.427041	0.330437	0.039432
	N248	N	0.695475	0.976224	0.416793
	N249	N	0.696438	0.046464	0.593120
	N250	N	0.334931	0.976219	0.591283
	N251	N	0.332231	0.045245	0.414229
	N252	N	0.928452	0.474051	0.184486
	N253	N	0.103174	0.544985	0.186415
	N254	N	0.102010	0.474780	0.824595
	N255	N	0.927765	0.546037	0.824310
	N256	N	0.198033	0.920941	0.469569
	N257	N	0.196809	0.099187	0.538799
	N258	N	0.832510	0.100149	0.470032
	N259	N	0.833367	0.923004	0.538880
	N260	N	0.479637	0.192042	0.916304
	N261	N	0.549181	0.194763	0.093792
	N262	N	0.479763	0.830763	0.090168
	N263	N	0.550743	0.828034	0.915426
	N264	N	0.479949	0.923593	0.184581
	N265	N	0.549874	0.100207	0.186490
	N266	N	0.478852	0.097147	0.824721
	N267	N	0.551036	0.923142	0.823354
	N268	N	0.927968	0.190385	0.469077
	N269	N	0.100571	0.188836	0.541049
	N270	N	0.103014	0.829696	0.469187
	N271	N	0.929769	0.833337	0.540733
	N272	N	0.195423	0.474734	0.917535
	N273	N	0.196406	0.544568	0.093677
	N274	N	0.833804	0.475657	0.092906
	N275	N	0.834569	0.546094	0.917282
	O276	O	0.649848	0.694590	0.695405
	H277	H	0.653043	0.695623	0.698811
	H278	H	0.667923	0.685223	0.679323
	O279	O	0.889275	-0.097986	0.910142
	H280	H	0.907545	-0.078915	0.893777
	H281	H	0.871913	-0.116867	0.905974
	O282	O	0.373090	0.491650	0.289069
	H283	H	0.366441	0.495677	0.296063
	H284	H	0.356364	0.492068	0.283618
	O285	O	0.490264	0.575827	0.430795
	H286	H	0.473918	0.567362	0.418136
	H287	H	0.479389	0.575456	0.458384
	O288	O	1.219917	1.031039	0.208721
	H289	H	1.238510	1.024747	0.232888
	H290	H	1.210562	1.004113	0.184839
	O291	O	0.648414	0.315445	0.529463
	H292	H	0.652865	0.327151	0.499174
	H293	H	0.669665	0.309354	0.518702
	O294	O	-0.113450	-0.058897	1.120257
	H295	H	-0.098093	-0.052018	1.111350
	H296	H	-0.126660	-0.047531	1.112623
	O297	O	0.439115	0.661320	0.632963
	H298	H	0.446591	0.643902	0.641571
	H299	H	0.448231	0.668501	0.644729
	O300	O	1.098353	0.814786	0.982852
	H301	H	1.090841	0.813264	0.992429
	H302	H	1.101659	0.810858	0.977381
	O303	O	0.300868	0.297394	0.524024
	H304	H	0.310751	0.272950	0.512958
	H305	H	0.307626	0.274878	0.513121
	O306	O	0.415338	0.592965	0.625129
	H307	H	0.430924	0.590771	0.628106
	H308	H	0.419121	0.577616	0.629004
	O309	O	0.634362	0.668756	0.452331
	H310	H	0.622694	0.668714	0.440941
	H311	H	0.630302	0.664645	0.427824
	O312	O	0.067377	0.958324	1.219907
	H313	H	0.049554	0.960079	1.215991
	H314	H	0.069298	0.958966	1.220101
	O315	O	0.661148	0.422964	0.309231
	H316	H	0.661291	0.455480	0.297397
	H317	H	0.642937	0.417394	0.304664
	O318	O	1.128157	-0.196557	-0.201389
	H319	H	1.145900	-0.205142	-0.224545
	H320	H	1.151945	-0.185635	-0.194608
	O321	O	-0.197686	0.032492	-0.204077
	H322	H	-0.204044	0.031083	-0.230580
	H323	H	-0.190967	0.048796	-0.198011
	O324	O	0.462703	0.635861	0.644108
	H325	H	0.483761	0.629029	0.654260
	H326	H	0.460052	0.628482	0.633353
	O327	O	0.611991	0.313028	0.301088
	H328	H	0.587764	0.326265	0.292854
	H329	H	0.615500	0.321930	0.274059
	O330	O	-0.066775	1.163044	0.105416
	H331	H	-0.050809	1.157771	0.088370
	H332	H	-0.091873	1.157473	0.097387
	O333	O	0.491187	0.307304	0.706199
	H334	H	0.498568	0.296688	0.726767
	H335	H	0.520027	0.330463	0.701201
	O336	O	-1.007449	-0.114781	1.018026
	H337	H	-1.015543	-0.120122	1.037855
	H338	H	-1.010701	-0.106146	0.999392
	O339	O	0.031221	1.211324	1.213293
	H340	H	0.017320	1.211789	1.210045
	H341	H	0.025550	1.231604	1.215334
	O342	O	0.105192	0.876524	0.961705
	H343	H	0.100544	0.876908	0.949655
	H344	H	0.112645	0.868547	0.970238
	O345	O	1.223113	0.900265	-0.182142
	H346	H	1.235409	0.902071	-0.155598
	H347	H	1.235623	0.891880	-0.197261
	O348	O	0.505465	0.721075	0.305265
	H349	H	0.469520	0.720791	0.320886
	H350	H	0.496933	0.741021	0.282526
	O351	O	0.513306	0.647209	0.491428
	H352	H	0.510644	0.640905	0.484725
	H353	H	0.515989	0.664091	0.497529
	O354	O	-0.211788	1.068073	0.065477
	H355	H	-0.210610	1.051307	0.065996
	H356	H	-0.208059	1.077613	0.051116
	O357	O	-0.170171	-0.172285	1.189977
	H358	H	-0.178785	-0.147565	1.168934
	H359	H	-0.153140	-0.179705	1.168807
	O360	O	0.649832	0.585998	0.306553
	H361	H	0.643960	0.577987	0.311663
	H362	H	0.648903	0.613183	0.308044
	O363	O	0.120488	0.006269	1.028568
	H364	H	0.121184	0.026028	1.017070
	H365	H	0.118032	-0.018875	1.018145
	O366	O	0.046856	0.151759	-0.186365
	H367	H	0.064274	0.149925	-0.179490
	H368	H	0.059424	0.156311	-0.193286
	O369	O	0.718219	0.505848	0.371973
	H370	H	0.698999	0.535441	0.378786
	H371	H	0.723212	0.500722	0.367163
	O372	O	1.006391	0.192334	1.018777
	H373	H	0.993661	0.187050	1.011688
	H374	H	1.015226	0.175637	1.023145
	O375	O	0.310354	0.499071	0.712056
	H376	H	0.298348	0.484148	0.725096
	H377	H	0.315254	0.459559	0.712157
	O378	O	0.554140	0.346009	0.475199
	H379	H	0.565271	0.364828	0.472595
	H380	H	0.561287	0.343348	0.454205
	O381	O	0.332528	0.338915	0.682921
	H382	H	0.323192	0.324305	0.636776
	H383	H	0.380633	0.325116	0.689025
	O384	O	0.321465	0.618538	0.307084
	H385	H	0.299341	0.627186	0.323463
	H386	H	0.308605	0.581664	0.317108
	O387	O	0.218931	0.212080	1.023021
	H388	H	0.219207	0.210003	1.048947
	H389	H	0.238124	0.219188	1.038660
	O390	O	0.128890	-0.126959	0.064815
	H391	H	0.112321	-0.124388	0.058484
	H392	H	0.123003	-0.132418	0.065375
	O393	O	1.193713	1.193699	1.183113
	H394	H	1.163258	1.183920	1.195746
	H395	H	1.196519	1.159934	1.179935
	O396	O	0.729964	-0.529047	0.542829
	H397	H	0.750148	-0.540901	0.529523
	H398	H	0.726978	-0.513889	0.527204
	O399	O	0.430552	-0.403569	0.594669
	H400	H	0.428388	-0.395230	0.601882
	H401	H	0.418530	-0.385499	0.594843
	O402	O	0.826582	1.197678	0.818143
	H403	H	0.856527	1.207095	0.831627
	H404	H	0.836116	1.182017	0.803347
	O405	O	1.011698	1.053222	-0.089734
	H406	H	1.017401	1.047699	-0.074789
	H407	H	1.015754	1.057529	-0.091255
	O408	O	0.999761	-0.207995	-0.125242
	H409	H	1.005594	-0.202424	-0.149614
	H410	H	1.023317	-0.210692	-0.132296
	O411	O	1.123598	1.128225	-0.127116
	H412	H	1.141431	1.137161	-0.109336
	H413	H	1.120335	1.149978	-0.122274
	O414	O	-0.204562	-0.007508	0.221149
	H415	H	-0.195780	-0.010094	0.196260
	H416	H	-0.242775	-0.014303	0.257966
	O417	O	0.700688	0.465594	0.696553
	H418	H	0.704846	0.457868	0.678836
	H419	H	0.708859	0.466651	0.699833
	O420	O	-0.008688	-0.191190	0.211979
	H421	H	-0.011047	-0.207034	0.239927
	H422	H	-0.020668	-0.179395	0.206562
	O423	O	0.351526	0.508830	0.454398
	H424	H	0.365351	0.505690	0.446417
	H425	H	0.343113	0.510163	0.473913
	O426	O	0.718783	0.634367	0.533495
	H427	H	0.719226	0.645876	0.518873
	H428	H	0.726368	0.634743	0.523537
	O429	O	0.435435	0.297995	0.444485
	H430	H	0.465227	0.299737	0.456790
	H431	H	0.462702	0.297449	0.426740
	O432	O	0.542482	0.437132	0.454941
	H433	H	0.527689	0.440672	0.470661
	H434	H	0.551451	0.437208	0.453531
	O435	O	0.336446	0.472504	0.468867
	H436	H	0.336719	0.464303	0.484285
	H437	H	0.336295	0.456225	0.470875
	O438	O	0.147766	0.127429	-0.074849
	H439	H	0.146722	0.129476	-0.055482
	H440	H	0.157656	0.121534	-0.054659
	O441	O	0.810507	-0.076875	-0.083707
	H442	H	0.808155	-0.081767	-0.088122
	H443	H	0.829223	-0.063141	-0.083462
	O444	O	0.138283	0.971364	0.848535
	H445	H	0.149492	0.949875	0.852558
	H446	H	0.155081	0.985471	0.842569
	O447	O	-0.203111	1.225603	-0.017875
	H448	H	-0.208698	1.211148	-0.030591
	H449	H	-0.228192	1.250209	-0.031433
	O450	O	0.715461	0.562870	0.596624
	H451	H	0.728683	0.568566	0.608215
	H452	H	0.718788	0.554770	0.574862
	O453	O	0.332362	0.711341	0.570500
	H454	H	0.345134	0.706844	0.580225
	H455	H	0.319792	0.712303	0.571775
