data_Molecule from HDF5

_cell_length_a		16.217172
_cell_length_b		16.249140
_cell_length_c		16.361400
_cell_angle_alpha	90.120385
_cell_angle_beta	89.534766
_cell_angle_gamma	90.361022
_symmetry_space_group_name_H-M	'P 1'
_symmetry_Int_Tables_number		1

loop_
	_symmetry_equiv_pos_as_xyz
	x,y,z

loop_
	_atom_site_label
	_atom_site_type_symbol
	_atom_site_fract_x
	_atom_site_fract_y
	_atom_site_fract_z
	H0	H	0.398214	0.841034	0.720010
	H1	H	0.600703	0.168642	0.715909
	H2	H	0.603788	0.841702	0.283997
	H3	H	0.404790	0.168178	0.289980
	H4	H	0.717804	0.407586	0.838057
	H5	H	0.720396	0.607744	0.163426
	H6	H	0.291278	0.602637	0.837930
	H7	H	0.285495	0.405103	0.163139
	H8	H	0.838359	0.714740	0.402726
	H9	H	0.167089	0.717372	0.596324
	H10	H	0.839563	0.286708	0.600331
	H11	H	0.167000	0.289354	0.400568
	H12	H	0.841255	0.398974	0.719477
	H13	H	0.167937	0.603897	0.713725
	H14	H	0.840114	0.601375	0.285683
	H15	H	0.165842	0.401812	0.282339
	H16	H	0.405263	0.720009	0.839693
	H17	H	0.603299	0.720969	0.164132
	H18	H	0.603017	0.289604	0.839289
	H19	H	0.401413	0.289112	0.164212
	H20	H	0.715510	0.839222	0.402308
	H21	H	0.719636	0.166494	0.602268
	H22	H	0.286271	0.839925	0.601678
	H23	H	0.290912	0.168114	0.406532
	H24	H	0.900655	0.339763	0.215178
	H25	H	0.106120	0.665523	0.218913
	H26	H	0.104606	0.340026	0.784251
	H27	H	0.906102	0.666487	0.785136
	H28	H	0.220643	0.904847	0.339480
	H29	H	0.213525	0.101921	0.665624
	H30	H	0.789106	0.100188	0.338708
	H31	H	0.784592	0.901034	0.664513
	H32	H	0.338737	0.217787	0.905444
	H33	H	0.667481	0.219802	0.099136
	H34	H	0.339365	0.788365	0.103351
	H35	H	0.668141	0.794029	0.904385
	H36	H	0.339059	0.904966	0.218923
	H37	H	0.666258	0.108490	0.218214
	H38	H	0.338489	0.103785	0.789407
	H39	H	0.665511	0.905783	0.784577
	H40	H	0.903454	0.217648	0.338659
	H41	H	0.101556	0.220412	0.662944
	H42	H	0.103047	0.788017	0.337405
	H43	H	0.900220	0.784801	0.663512
	H44	H	0.217425	0.339630	0.901816
	H45	H	0.218512	0.667847	0.098542
	H46	H	0.786035	0.341052	0.098754
	H47	H	0.791321	0.668333	0.902420
	H48	H	0.405927	0.118500	0.586750
	H49	H	0.600928	0.885915	0.589932
	H50	H	0.596335	0.123028	0.400282
	H51	H	0.411605	0.885629	0.402957
	H52	H	0.587222	0.418609	0.113273
	H53	H	0.596261	0.600427	0.885580
	H54	H	0.410809	0.593701	0.116073
	H55	H	0.406874	0.408153	0.883451
	H56	H	0.121141	0.595243	0.403264
	H57	H	0.888343	0.586358	0.594512
	H58	H	0.119067	0.412069	0.587887
	H59	H	0.882274	0.404967	0.399583
	H60	H	0.120247	0.414833	0.594234
	H61	H	0.884833	0.595095	0.601553
	H62	H	0.120227	0.599030	0.410750
	H63	H	0.886313	0.402339	0.416631
	H64	H	0.411780	0.597800	0.116959
	H65	H	0.600539	0.599154	0.884832
	H66	H	0.591563	0.402736	0.119325
	H67	H	0.412360	0.414690	0.887635
	H68	H	0.587782	0.116335	0.415405
	H69	H	0.590423	0.885168	0.605626
	H70	H	0.398860	0.125388	0.604023
	H71	H	0.416844	0.891010	0.413968
	H72	H	0.912985	0.620283	0.093257
	H73	H	0.092082	0.391866	0.080932
	H74	H	0.095535	0.620239	0.905163
	H75	H	0.909067	0.384868	0.903762
	H76	H	0.090217	0.901590	0.616904
	H77	H	0.096886	0.097922	0.385182
	H78	H	0.912597	0.099064	0.617951
	H79	H	0.902263	0.911181	0.384454
	H80	H	0.624818	0.098381	0.893602
	H81	H	0.388421	0.095648	0.089274
	H82	H	0.619139	0.912453	0.090194
	H83	H	0.383152	0.905143	0.908702
	H84	H	0.618437	0.918093	0.094248
	H85	H	0.386637	0.089935	0.102575
	H86	H	0.621264	0.109175	0.915522
	H87	H	0.388263	0.911528	0.918955
	H88	H	0.905548	0.094204	0.617771
	H89	H	0.100355	0.096121	0.384915
	H90	H	0.100142	0.911226	0.618409
	H91	H	0.915284	0.912011	0.389244
	H92	H	0.098644	0.619392	0.908339
	H93	H	0.105473	0.383622	0.093046
	H94	H	0.914753	0.619533	0.094584
	H95	H	0.915109	0.388867	0.910087
	H96	H	0.417989	0.119926	0.603053
	H97	H	0.582984	0.892056	0.589607
	H98	H	0.605357	0.121157	0.415445
	H99	H	0.404661	0.886578	0.413008
	H100	H	0.603109	0.416436	0.119320
	H101	H	0.597300	0.597038	0.886458
	H102	H	0.407569	0.596315	0.117980
	H103	H	0.416504	0.405659	0.884985
	H104	H	0.117485	0.590635	0.409644
	H105	H	0.887089	0.597042	0.589490
	H106	H	0.121139	0.408447	0.592798
	H107	H	0.888857	0.418333	0.409283
	H108	H	0.914122	0.619357	0.092261
	H109	H	0.086743	0.386327	0.100659
	H110	H	0.099747	0.621012	0.904845
	H111	H	0.906530	0.386837	0.912716
	H112	H	0.087540	0.914742	0.613635
	H113	H	0.096882	0.093823	0.385847
	H114	H	0.912873	0.090726	0.614853
	H115	H	0.910131	0.901487	0.383909
	H116	H	0.614696	0.086067	0.912548
	H117	H	0.383509	0.103525	0.100551
	H118	H	0.620550	0.912099	0.097178
	H119	H	0.386329	0.917976	0.908062
	C120	C	0.378910	0.012569	0.625974
	C121	C	0.621949	0.995935	0.623503
	C122	C	0.625044	0.012578	0.380241
	C123	C	0.382523	0.995851	0.382243
	C124	C	0.624213	0.383435	0.010032
	C125	C	0.626645	0.627976	0.993180
	C126	C	0.382249	0.625198	0.009812
	C127	C	0.381237	0.381013	0.992428
	C128	C	0.011467	0.623356	0.379030
	C129	C	0.995119	0.623262	0.622367
	C130	C	0.011991	0.381309	0.621779
	C131	C	0.994087	0.380171	0.378409
	C132	C	0.881994	0.512435	0.122631
	C133	C	0.124842	0.495097	0.121235
	C134	C	0.126513	0.511870	0.877466
	C135	C	0.882584	0.495033	0.879840
	C136	C	0.123302	0.881349	0.508845
	C137	C	0.125255	0.125161	0.493029
	C138	C	0.881666	0.123487	0.509384
	C139	C	0.879200	0.878630	0.493036
	C140	C	0.511412	0.125866	0.880628
	C141	C	0.494574	0.126287	0.124820
	C142	C	0.511494	0.883697	0.124309
	C143	C	0.494140	0.883512	0.881932
	C144	C	0.379277	0.889922	0.681789
	C145	C	0.620812	0.119318	0.678219
	C146	C	0.623333	0.890073	0.322798
	C147	C	0.384895	0.119279	0.327824
	C148	C	0.680113	0.386413	0.887149
	C149	C	0.681945	0.626733	0.115021
	C150	C	0.328801	0.622738	0.886749
	C151	C	0.323899	0.384236	0.114686
	C152	C	0.887746	0.677659	0.381838
	C153	C	0.118123	0.679506	0.617761
	C154	C	0.888694	0.324808	0.620628
	C155	C	0.117762	0.325766	0.379873
	C156	C	0.889889	0.380181	0.680344
	C157	C	0.118571	0.623028	0.676215
	C158	C	0.888561	0.621038	0.324051
	C159	C	0.116911	0.381605	0.320975
	C160	C	0.384939	0.681588	0.887786
	C161	C	0.623740	0.683417	0.115332
	C162	C	0.623360	0.327414	0.887980
	C163	C	0.381718	0.326823	0.115431
	C164	C	0.678842	0.888721	0.381804
	C165	C	0.680016	0.118243	0.621707
	C166	C	0.323649	0.889182	0.622611
	C167	C	0.328059	0.119108	0.385719
	C168	C	0.881339	0.389040	0.177540
	C169	C	0.124519	0.617221	0.179005
	C170	C	0.124560	0.388935	0.822229
	C171	C	0.885747	0.618020	0.823637
	C172	C	0.181267	0.884220	0.387361
	C173	C	0.177299	0.122362	0.616308
	C174	C	0.826610	0.120662	0.387290
	C175	C	0.822740	0.880677	0.615471
	C176	C	0.387622	0.180017	0.885101
	C177	C	0.618338	0.182012	0.120340
	C178	C	0.388564	0.826651	0.123482
	C179	C	0.618425	0.830037	0.883360
	C180	C	0.388286	0.884757	0.181093
	C181	C	0.617827	0.126422	0.179385
	C182	C	0.387424	0.123507	0.827161
	C183	C	0.617183	0.885905	0.824153
	C184	C	0.883810	0.178966	0.387236
	C185	C	0.121838	0.181553	0.615049
	C186	C	0.122581	0.826331	0.386379
	C187	C	0.880100	0.822722	0.614981
	C188	C	0.180782	0.388812	0.880496
	C189	C	0.180647	0.618533	0.119273
	C190	C	0.824058	0.389782	0.119950
	C191	C	0.828707	0.618995	0.881888
	C192	C	0.401284	0.099024	0.604380
	C193	C	0.598422	0.909926	0.601487
	C194	C	0.603050	0.097943	0.403490
	C195	C	0.404561	0.910064	0.403564
	C196	C	0.600989	0.406204	0.095224
	C197	C	0.604611	0.605426	0.907711
	C198	C	0.403851	0.602780	0.094863
	C199	C	0.404946	0.402925	0.907480
	C200	C	0.097308	0.601471	0.401167
	C201	C	0.908847	0.599686	0.601454
	C202	C	0.097941	0.404866	0.598457
	C203	C	0.908084	0.402160	0.401566
	C204	C	0.906630	0.597645	0.099944
	C205	C	0.101639	0.409471	0.098165
	C206	C	0.104417	0.598048	0.899614
	C207	C	0.903768	0.409399	0.902425
	C208	C	0.099760	0.903073	0.594237
	C209	C	0.104131	0.102719	0.407297
	C210	C	0.903910	0.101329	0.594614
	C211	C	0.902422	0.901346	0.407955
	C212	C	0.597658	0.104280	0.901069
	C213	C	0.408429	0.103003	0.103794
	C214	C	0.597449	0.907446	0.100647
	C215	C	0.408319	0.905176	0.905147
	Zn216	Zn	0.501210	0.004347	0.753302
	Zn217	Zn	0.503450	0.005520	0.252903
	Zn218	Zn	0.753766	0.505351	0.001427
	Zn219	Zn	0.254047	0.503844	-0.000351
	Zn220	Zn	0.001952	0.751079	0.500242
	Zn221	Zn	0.003608	0.253077	0.500435
	Zn222	Zn	0.004129	0.502314	0.750910
	Zn223	Zn	0.002643	0.502196	0.251007
	Zn224	Zn	0.503376	0.754751	0.002126
	Zn225	Zn	0.503356	0.253094	0.002566
	Zn226	Zn	0.751579	0.002178	0.502224
	Zn227	Zn	0.253134	0.003706	0.502711
	N228	N	0.412890	0.967824	0.684102
	N229	N	0.585472	0.042136	0.679456
	N230	N	0.590838	0.968014	0.321524
	N231	N	0.418059	0.041630	0.325290
	N232	N	0.680706	0.420667	0.964057
	N233	N	0.683950	0.592899	0.037877
	N234	N	0.326762	0.588598	0.963539
	N235	N	0.323341	0.417240	0.037241
	N236	N	0.965249	0.679277	0.415406
	N237	N	0.040229	0.679991	0.585185
	N238	N	0.965731	0.325203	0.585162
	N239	N	0.040291	0.324608	0.414883
	N240	N	0.967572	0.414922	0.680842
	N241	N	0.040859	0.588642	0.679076
	N242	N	0.966338	0.587831	0.322236
	N243	N	0.039078	0.414554	0.320048
	N244	N	0.417414	0.683302	0.965252
	N245	N	0.589969	0.684139	0.038579
	N246	N	0.589261	0.325591	0.965230
	N247	N	0.416488	0.324541	0.038554
	N248	N	0.680122	0.965755	0.417022
	N249	N	0.680714	0.040443	0.588216
	N250	N	0.323403	0.966584	0.588671
	N251	N	0.326461	0.041364	0.418882
	N252	N	0.916579	0.466316	0.179407
	N253	N	0.090595	0.539299	0.180479
	N254	N	0.091487	0.466601	0.820522
	N255	N	0.918389	0.539990	0.822203
	N256	N	0.181661	0.917605	0.464541
	N257	N	0.179366	0.087898	0.539531
	N258	N	0.825368	0.086609	0.464284
	N259	N	0.821760	0.914798	0.538504
	N260	N	0.465541	0.181773	0.917629
	N261	N	0.540729	0.181961	0.087102
	N262	N	0.466300	0.825712	0.089251
	N263	N	0.541004	0.828451	0.918577
	N264	N	0.465850	0.919613	0.181560
	N265	N	0.539974	0.092288	0.182129
	N266	N	0.465162	0.090389	0.824346
	N267	N	0.539064	0.918412	0.823193
	N268	N	0.917350	0.180819	0.464115
	N269	N	0.089997	0.183384	0.537292
	N270	N	0.087229	0.824459	0.463115
	N271	N	0.914293	0.821238	0.537902
	N272	N	0.182216	0.466366	0.914270
	N273	N	0.180848	0.541593	0.084112
	N274	N	0.824162	0.467504	0.086652
	N275	N	0.826277	0.541803	0.916021
	O276	O	0.425467	0.514166	0.499829
	H277	H	0.436192	0.516389	0.500002
	H278	H	0.422532	0.509711	0.502397
	O279	O	0.478868	0.479520	0.425498
	H280	H	0.478748	0.487387	0.418790
	H281	H	0.471570	0.493276	0.437052
	O282	O	0.996566	0.845569	0.041520
	H283	H	0.998500	0.856693	0.033277
	H284	H	0.995537	0.840595	0.036720
	O285	O	0.997195	-0.014928	1.020571
	H286	H	0.993760	-0.031983	1.033612
	H287	H	1.003124	-0.013499	1.014101
	O288	O	0.548088	0.524026	0.544020
	H289	H	0.553169	0.518528	0.546616
	H290	H	0.557043	0.521587	0.547764
	O291	O	0.591655	0.542918	0.504694
	H292	H	0.585595	0.540225	0.507806
	H293	H	0.595788	0.546821	0.493203
	O294	O	0.424006	0.461560	0.547276
	H295	H	0.417989	0.461720	0.558108
	H296	H	0.422804	0.458161	0.545171
	O297	O	0.584262	0.543020	0.533088
	H298	H	0.592347	0.544369	0.532700
	H299	H	0.578578	0.548304	0.537897
	O300	O	1.013264	0.100847	1.025334
	H301	H	1.007571	0.097844	1.025415
	H302	H	1.014122	0.104264	1.013657
	O303	O	1.060301	0.968302	-0.039058
	H304	H	1.055496	0.954539	-0.036070
	H305	H	1.074695	0.970576	-0.047169
	O306	O	0.048159	1.077873	1.164432
	H307	H	0.046702	1.081095	1.174113
	H308	H	0.052481	1.071593	1.158684
	O309	O	0.394008	0.510005	0.487960
	H310	H	0.392163	0.516599	0.492790
	H311	H	0.394955	0.508379	0.485448
	O312	O	-0.009934	0.036488	-0.008868
	H313	H	-0.008218	0.041423	-0.012528
	H314	H	-0.017587	0.031204	-0.016704
	O315	O	1.003271	0.033766	0.060791
	H316	H	1.006262	0.035949	0.072483
	H317	H	1.000954	0.034811	0.069424
	O318	O	0.979495	0.909408	1.000234
	H319	H	0.983229	0.914939	1.007590
	H320	H	0.988867	0.901594	1.003505
	O321	O	-0.590565	-0.561558	0.557180
	H322	H	-0.585927	-0.555569	0.552545
	H323	H	-0.586989	-0.562583	0.562449
	O324	O	0.430606	0.566543	0.388045
	H325	H	0.429276	0.549721	0.393255
	H326	H	0.427264	0.573424	0.384615
	O327	O	-0.510057	-0.445908	0.384392
	H328	H	-0.509300	-0.454217	0.371783
	H329	H	-0.519094	-0.438318	0.391758
	O330	O	0.575755	0.454953	0.509394
	H331	H	0.576924	0.448587	0.505241
	H332	H	0.581786	0.461569	0.514288
	O333	O	-0.430076	0.531221	0.465714
	H334	H	-0.426782	0.520770	0.465314
	H335	H	-0.433487	0.542129	0.467586
	O336	O	0.083826	-0.077126	0.016375
	H337	H	0.091702	-0.089419	0.000459
	H338	H	0.077690	-0.076215	0.014019
	O339	O	-0.099190	0.972579	0.980848
	H340	H	-0.103582	0.988336	0.981569
	H341	H	-0.103399	0.978442	0.990746
	O342	O	0.931428	0.975203	1.007471
	H343	H	0.923069	0.977769	1.013369
	H344	H	0.925655	0.975246	1.014781
	O345	O	1.051733	1.129145	0.097581
	H346	H	1.057593	1.135467	0.101166
	H347	H	1.051657	1.133803	0.110788
	O348	O	0.446424	0.428067	0.596765
	H349	H	0.448388	0.427448	0.593509
	H350	H	0.440007	0.423485	0.597655
	O351	O	0.582336	0.551812	0.606898
	H352	H	0.588319	0.565593	0.599257
	H353	H	0.594349	0.548823	0.617962
	O354	O	0.547363	0.462578	0.541731
	H355	H	0.549483	0.458669	0.545367
	H356	H	0.549641	0.471309	0.549961
	O357	O	1.068832	-0.030106	0.915755
	H358	H	1.080693	-0.026796	0.914888
	H359	H	1.077663	-0.033011	0.908058
	O360	O	0.581799	0.593030	0.590241
	H361	H	0.574401	0.579813	0.589255
	H362	H	0.578664	0.593760	0.580135
	O363	O	1.027843	0.988492	-0.049019
	H364	H	1.024802	0.993208	-0.034019
	H365	H	1.026564	0.988692	-0.065908
	O366	O	0.929473	1.018712	1.033505
	H367	H	0.923429	1.009143	1.038119
	H368	H	0.921011	1.020239	1.020553
	O369	O	1.015961	-0.003527	1.002339
	H370	H	1.000303	-0.022098	1.005743
	H371	H	1.016574	0.005775	0.999767
	O372	O	0.010036	-0.017586	-0.127762
	H373	H	0.008421	-0.012821	-0.126880
	H374	H	0.014827	-0.015106	-0.123132
	O375	O	1.014109	-0.036255	0.012561
	H376	H	1.011994	-0.036161	0.006556
	H377	H	1.017843	-0.034225	0.018740
	O378	O	0.507230	0.548577	0.451295
	H379	H	0.507229	0.542426	0.445946
	H380	H	0.513940	0.550557	0.449882
	O381	O	0.437917	0.505239	0.392626
	H382	H	0.431494	0.507195	0.394357
	H383	H	0.438480	0.509592	0.387453
