data_Molecule from HDF5

_cell_length_a		16.236674
_cell_length_b		16.398899
_cell_length_c		16.212978
_cell_angle_alpha	90.108902
_cell_angle_beta	89.617429
_cell_angle_gamma	89.702551
_symmetry_space_group_name_H-M	'P 1'
_symmetry_Int_Tables_number		1

loop_
	_symmetry_equiv_pos_as_xyz
	x,y,z

loop_
	_atom_site_label
	_atom_site_type_symbol
	_atom_site_fract_x
	_atom_site_fract_y
	_atom_site_fract_z
	H0	H	0.406896	0.841332	0.724264
	H1	H	0.603467	0.166305	0.721803
	H2	H	0.607179	0.840606	0.290928
	H3	H	0.407962	0.166364	0.292125
	H4	H	0.722070	0.403871	0.842063
	H5	H	0.719037	0.598794	0.170539
	H6	H	0.295221	0.600442	0.840940
	H7	H	0.293132	0.407113	0.170604
	H8	H	0.844592	0.720764	0.404362
	H9	H	0.170784	0.719233	0.605516
	H10	H	0.843376	0.289883	0.605547
	H11	H	0.170650	0.286903	0.403974
	H12	H	0.843188	0.406004	0.719781
	H13	H	0.173017	0.597716	0.716381
	H14	H	0.842671	0.600792	0.293161
	H15	H	0.171752	0.404320	0.290047
	H16	H	0.407048	0.718651	0.842977
	H17	H	0.607268	0.717991	0.170068
	H18	H	0.610842	0.285440	0.843317
	H19	H	0.408539	0.290036	0.170585
	H20	H	0.723610	0.841133	0.407665
	H21	H	0.720603	0.166945	0.605330
	H22	H	0.290871	0.840947	0.607193
	H23	H	0.292319	0.166463	0.409242
	H24	H	0.907190	0.339974	0.222573
	H25	H	0.103209	0.666222	0.219335
	H26	H	0.106866	0.339076	0.789874
	H27	H	0.908689	0.665442	0.791410
	H28	H	0.224499	0.904452	0.341854
	H29	H	0.218320	0.101408	0.670304
	H30	H	0.795209	0.100117	0.340592
	H31	H	0.793377	0.907009	0.670605
	H32	H	0.344997	0.220444	0.907669
	H33	H	0.671993	0.217802	0.106615
	H34	H	0.343496	0.788335	0.109111
	H35	H	0.670809	0.785598	0.905102
	H36	H	0.342971	0.907356	0.221688
	H37	H	0.672608	0.098245	0.218395
	H38	H	0.342545	0.101548	0.795962
	H39	H	0.671120	0.904127	0.790962
	H40	H	0.907587	0.218580	0.341756
	H41	H	0.105472	0.219004	0.668992
	H42	H	0.110059	0.786840	0.341886
	H43	H	0.905368	0.787241	0.668918
	H44	H	0.223104	0.339328	0.906843
	H45	H	0.219881	0.665522	0.102760
	H46	H	0.792453	0.339318	0.104268
	H47	H	0.790202	0.664476	0.905772
	H48	H	0.413359	0.116619	0.597957
	H49	H	0.596887	0.889016	0.598922
	H50	H	0.602492	0.121060	0.407667
	H51	H	0.419271	0.888476	0.410060
	H52	H	0.604347	0.413712	0.124193
	H53	H	0.600616	0.604514	0.886417
	H54	H	0.413536	0.591294	0.121329
	H55	H	0.417469	0.404124	0.887661
	H56	H	0.123331	0.595203	0.417617
	H57	H	0.889737	0.591593	0.607573
	H58	H	0.128757	0.406136	0.609182
	H59	H	0.891663	0.413505	0.414824
	H60	H	0.124432	0.397913	0.586064
	H61	H	0.888445	0.607202	0.596380
	H62	H	0.123762	0.591474	0.410002
	H63	H	0.889530	0.409297	0.410547
	H64	H	0.418183	0.600219	0.122745
	H65	H	0.606838	0.587597	0.888792
	H66	H	0.593402	0.410520	0.120722
	H67	H	0.412290	0.412905	0.889077
	H68	H	0.596931	0.117268	0.413240
	H69	H	0.601148	0.889498	0.595088
	H70	H	0.408905	0.120213	0.601103
	H71	H	0.418207	0.890575	0.418356
	H72	H	0.910258	0.618599	0.099392
	H73	H	0.095785	0.386315	0.102994
	H74	H	0.098697	0.620058	0.900961
	H75	H	0.918933	0.389080	0.913765
	H76	H	0.094670	0.904647	0.623254
	H77	H	0.100710	0.095897	0.388216
	H78	H	0.912023	0.101345	0.624029
	H79	H	0.917180	0.899286	0.385430
	H80	H	0.624265	0.096128	0.916386
	H81	H	0.391978	0.098984	0.096226
	H82	H	0.625259	0.903344	0.095559
	H83	H	0.388036	0.897763	0.919846
	H84	H	0.621634	0.912572	0.093538
	H85	H	0.390938	0.093702	0.101342
	H86	H	0.623772	0.092847	0.914676
	H87	H	0.395803	0.918745	0.926014
	H88	H	0.911585	0.095136	0.622402
	H89	H	0.100625	0.094652	0.388919
	H90	H	0.103946	0.910166	0.623915
	H91	H	0.906061	0.916009	0.387462
	H92	H	0.095336	0.614658	0.916730
	H93	H	0.098991	0.389722	0.091209
	H94	H	0.913605	0.617472	0.100815
	H95	H	0.912015	0.386720	0.914949
	H96	H	0.414475	0.118441	0.604339
	H97	H	0.602692	0.887688	0.600117
	H98	H	0.604923	0.119943	0.415728
	H99	H	0.410975	0.887362	0.413918
	H100	H	0.600959	0.402528	0.125869
	H101	H	0.589100	0.592123	0.893349
	H102	H	0.408347	0.598759	0.125342
	H103	H	0.422280	0.412453	0.891709
	H104	H	0.125568	0.599860	0.410346
	H105	H	0.895399	0.590800	0.588948
	H106	H	0.119140	0.421714	0.592062
	H107	H	0.890848	0.407236	0.416497
	H108	H	0.913264	0.616798	0.097236
	H109	H	0.108175	0.385015	0.099052
	H110	H	0.110799	0.619354	0.912658
	H111	H	0.915492	0.386091	0.908226
	H112	H	0.094523	0.915570	0.619678
	H113	H	0.098984	0.095550	0.388943
	H114	H	0.917331	0.098787	0.621008
	H115	H	0.925410	0.915927	0.393310
	H116	H	0.624454	0.095293	0.912108
	H117	H	0.389278	0.101644	0.103359
	H118	H	0.624938	0.910432	0.102331
	H119	H	0.389265	0.915094	0.904541
	C120	C	0.383732	0.011592	0.630032
	C121	C	0.628375	0.996026	0.627452
	C122	C	0.630346	0.011971	0.383608
	C123	C	0.386875	0.996024	0.386007
	C124	C	0.629756	0.380290	0.014995
	C125	C	0.627614	0.623332	0.997787
	C126	C	0.385345	0.624704	0.014379
	C127	C	0.386873	0.381831	0.997665
	C128	C	0.015734	0.624406	0.384211
	C129	C	0.999585	0.624514	0.626447
	C130	C	0.016033	0.381032	0.626012
	C131	C	0.999204	0.381097	0.383813
	C132	C	0.884435	0.510300	0.127866
	C133	C	0.128422	0.494425	0.126264
	C134	C	0.130324	0.510530	0.882119
	C135	C	0.885891	0.494484	0.883701
	C136	C	0.128823	0.881263	0.514004
	C137	C	0.127760	0.124611	0.497115
	C138	C	0.885137	0.125994	0.514001
	C139	C	0.886515	0.882334	0.497410
	C140	C	0.516037	0.124368	0.885879
	C141	C	0.499667	0.125273	0.128383
	C142	C	0.515853	0.880941	0.127976
	C143	C	0.498876	0.880936	0.885960
	C144	C	0.386607	0.889675	0.685802
	C145	C	0.624735	0.117932	0.683514
	C146	C	0.628045	0.889382	0.328620
	C147	C	0.388312	0.117938	0.330383
	C148	C	0.685030	0.382864	0.891323
	C149	C	0.681969	0.619996	0.121444
	C150	C	0.332017	0.621135	0.890437
	C151	C	0.331241	0.385797	0.121433
	C152	C	0.893042	0.681531	0.385257
	C153	C	0.122587	0.680125	0.624779
	C154	C	0.892358	0.327113	0.625181
	C155	C	0.121929	0.325111	0.384252
	C156	C	0.892397	0.385206	0.681786
	C157	C	0.123432	0.620035	0.680105
	C158	C	0.892223	0.621761	0.329966
	C159	C	0.122430	0.383759	0.327783
	C160	C	0.387216	0.680467	0.891530
	C161	C	0.626054	0.679080	0.121207
	C162	C	0.629636	0.324070	0.892073
	C163	C	0.388391	0.327700	0.121547
	C164	C	0.685936	0.889608	0.386481
	C165	C	0.683073	0.118111	0.625759
	C166	C	0.328775	0.889507	0.627683
	C167	C	0.330754	0.118074	0.388691
	C168	C	0.886994	0.388314	0.183869
	C169	C	0.124520	0.617332	0.181447
	C170	C	0.127992	0.387920	0.827347
	C171	C	0.888231	0.616795	0.828864
	C172	C	0.186392	0.883690	0.390834
	C173	C	0.181303	0.122122	0.621052
	C174	C	0.831390	0.121618	0.390218
	C175	C	0.831010	0.885959	0.621174
	C176	C	0.393279	0.181435	0.887941
	C177	C	0.622905	0.179885	0.126236
	C178	C	0.392468	0.826571	0.127977
	C179	C	0.621868	0.823952	0.885370
	C180	C	0.392302	0.885516	0.184204
	C181	C	0.623375	0.120452	0.181917
	C182	C	0.392209	0.122110	0.832344
	C183	C	0.622101	0.882803	0.828842
	C184	C	0.887439	0.180374	0.390485
	C185	C	0.125510	0.180848	0.620174
	C186	C	0.129420	0.825420	0.390707
	C187	C	0.886471	0.826409	0.620382
	C188	C	0.185795	0.388077	0.885273
	C189	C	0.182602	0.617132	0.123714
	C190	C	0.829672	0.387989	0.125311
	C191	C	0.829304	0.616339	0.886020
	C192	C	0.405800	0.096571	0.607726
	C193	C	0.606520	0.910839	0.604696
	C194	C	0.607803	0.097210	0.405676
	C195	C	0.409331	0.910696	0.407956
	C196	C	0.606522	0.402509	0.101171
	C197	C	0.605304	0.601258	0.911729
	C198	C	0.406889	0.603109	0.100747
	C199	C	0.410403	0.403276	0.911707
	C200	C	0.101885	0.602125	0.406240
	C201	C	0.913614	0.602887	0.604192
	C202	C	0.101927	0.402273	0.602582
	C203	C	0.912803	0.403389	0.407166
	C204	C	0.906056	0.595408	0.105577
	C205	C	0.107213	0.409208	0.104307
	C206	C	0.108205	0.596046	0.903780
	C207	C	0.908828	0.409283	0.905878
	C208	C	0.104568	0.903386	0.600037
	C209	C	0.106153	0.102118	0.410936
	C210	C	0.907255	0.104818	0.600136
	C211	C	0.909711	0.903907	0.411161
	C212	C	0.601983	0.101447	0.907955
	C213	C	0.413026	0.104491	0.106774
	C214	C	0.601898	0.902414	0.104128
	C215	C	0.413328	0.903851	0.909812
	Zn216	Zn	0.507043	0.003518	0.757838
	Zn217	Zn	0.508075	0.003487	0.255525
	Zn218	Zn	0.756156	0.502200	0.005730
	Zn219	Zn	0.258143	0.502987	0.005221
	Zn220	Zn	0.007623	0.753358	0.505273
	Zn221	Zn	0.006942	0.252822	0.505002
	Zn222	Zn	0.008057	0.502303	0.754022
	Zn223	Zn	0.007188	0.502736	0.256317
	Zn224	Zn	0.506943	0.752465	0.006951
	Zn225	Zn	0.508450	0.253384	0.006856
	Zn226	Zn	0.758244	0.004019	0.505879
	Zn227	Zn	0.256021	0.003187	0.506968
	N228	N	0.419876	0.966529	0.687328
	N229	N	0.591447	0.040946	0.684609
	N230	N	0.593941	0.966382	0.326942
	N231	N	0.422743	0.041201	0.328895
	N232	N	0.685156	0.417022	0.968844
	N233	N	0.682976	0.585803	0.043782
	N234	N	0.330592	0.587332	0.968003
	N235	N	0.330074	0.418501	0.043427
	N236	N	0.970954	0.683222	0.418352
	N237	N	0.044420	0.683138	0.592162
	N238	N	0.970165	0.324531	0.590787
	N239	N	0.044210	0.323454	0.418460
	N240	N	0.970166	0.417882	0.682504
	N241	N	0.046105	0.586310	0.681146
	N242	N	0.969433	0.586935	0.329365
	N243	N	0.044913	0.417850	0.327713
	N244	N	0.419814	0.682700	0.969617
	N245	N	0.592973	0.681071	0.043334
	N246	N	0.595739	0.322463	0.969919
	N247	N	0.422611	0.325318	0.043702
	N248	N	0.687578	0.966746	0.419726
	N249	N	0.685511	0.041221	0.591718
	N250	N	0.326779	0.966243	0.593782
	N251	N	0.329781	0.041235	0.422869
	N252	N	0.920192	0.465303	0.185720
	N253	N	0.091615	0.540279	0.183101
	N254	N	0.094149	0.464863	0.825507
	N255	N	0.922722	0.540005	0.827406
	N256	N	0.186063	0.917695	0.468549
	N257	N	0.182982	0.087928	0.543515
	N258	N	0.829692	0.088869	0.468100
	N259	N	0.831116	0.920129	0.543703
	N260	N	0.471382	0.183412	0.920200
	N261	N	0.544711	0.183038	0.093648
	N262	N	0.470231	0.823712	0.093876
	N263	N	0.544451	0.822895	0.920247
	N264	N	0.470145	0.918659	0.184195
	N265	N	0.545793	0.087477	0.183203
	N266	N	0.469623	0.087631	0.831013
	N267	N	0.544663	0.917355	0.828765
	N268	N	0.920103	0.183233	0.468525
	N269	N	0.092946	0.182330	0.542071
	N270	N	0.094630	0.823695	0.468250
	N271	N	0.920377	0.824161	0.542367
	N272	N	0.187510	0.465397	0.918524
	N273	N	0.185309	0.539913	0.090145
	N274	N	0.827954	0.464646	0.090990
	N275	N	0.827744	0.539263	0.919263
	O276	O	-0.006578	-0.029685	0.020881
	H277	H	-0.006575	-0.026694	0.014808
	H278	H	0.006671	-0.029860	0.009160
	O279	O	0.527585	0.440583	0.465181
	H280	H	0.526121	0.446061	0.467226
	H281	H	0.536114	0.429579	0.471762
	O282	O	0.577307	0.494546	0.518268
	H283	H	0.576938	0.494658	0.504910
	H284	H	0.579946	0.511616	0.528003
	O285	O	1.013280	-0.009970	0.940603
	H286	H	1.010112	-0.015248	0.937038
	H287	H	0.999418	-0.007871	0.946230
	O288	O	0.980528	-0.002529	0.026342
	H289	H	0.971960	-0.004328	0.033299
	H290	H	0.984986	0.005079	0.022699
	O291	O	0.499804	0.549225	0.587031
	H292	H	0.501193	0.543203	0.596613
	H293	H	0.494980	0.544728	0.578577
	O294	O	1.049847	-0.024788	0.904414
	H295	H	1.057435	-0.032075	0.907908
	H296	H	1.042344	-0.024135	0.899089
	O297	O	-0.028236	0.036324	-0.011842
	H298	H	-0.023962	0.030779	-0.010932
	H299	H	-0.028265	0.026658	-0.007483
	O300	O	0.422002	0.529330	0.536034
	H301	H	0.421275	0.531107	0.527708
	H302	H	0.426624	0.528011	0.539376
	O303	O	0.585346	0.534485	0.512842
	H304	H	0.583957	0.538213	0.515170
	H305	H	0.589547	0.538704	0.507735
	O306	O	1.036194	-0.037179	-0.073258
	H307	H	1.039880	-0.036582	-0.068531
	H308	H	1.036079	-0.042052	-0.076917
	O309	O	-0.060057	0.004899	1.031122
	H310	H	-0.057711	-0.005718	1.036787
	H311	H	-0.066331	0.011458	1.019252
	O312	O	1.046178	0.954956	0.977863
	H313	H	1.047504	0.949077	0.970923
	H314	H	1.057005	0.950363	0.979842
	O315	O	0.388684	0.554039	0.528290
	H316	H	0.384612	0.551312	0.536308
	H317	H	0.405993	0.552046	0.523771
	O318	O	0.544322	0.446835	0.554583
	H319	H	0.533436	0.445021	0.559205
	H320	H	0.549737	0.445950	0.554040
	O321	O	-0.080379	0.957577	0.977130
	H322	H	-0.080773	0.970331	0.979826
	H323	H	-0.075506	0.970423	0.974448
	O324	O	0.533690	0.598638	0.576861
	H325	H	0.522421	0.587832	0.582478
	H326	H	0.527590	0.603504	0.580877
	O327	O	0.932008	0.939805	0.060766
	H328	H	0.938499	0.936441	0.057864
	H329	H	0.931127	0.937880	0.061883
	O330	O	0.526911	0.463512	0.549475
	H331	H	0.528899	0.454057	0.539274
	H332	H	0.530332	0.458475	0.540087
	O333	O	0.487073	0.476505	0.480387
	H334	H	0.499770	0.475058	0.475009
	H335	H	0.480326	0.466353	0.484165
	O336	O	0.578689	0.512317	0.421532
	H337	H	0.578112	0.515252	0.419530
	H338	H	0.585144	0.522046	0.413948
	O339	O	1.011553	1.009678	-0.004964
	H340	H	1.010212	1.007774	-0.003284
	H341	H	1.017973	1.011874	-0.013596
	O342	O	0.503724	0.383738	0.579811
	H343	H	0.506864	0.384542	0.582419
	H344	H	0.505232	0.371134	0.579970
	O345	O	0.554869	0.494027	0.506025
	H346	H	0.552060	0.505287	0.508911
	H347	H	0.549245	0.497703	0.500188
	O348	O	0.112755	-0.002232	-0.036011
	H349	H	0.111546	-0.010509	-0.028147
	H350	H	0.115398	-0.002572	-0.038013
	O351	O	-0.492932	0.441827	0.493521
	H352	H	-0.493277	0.437729	0.489451
	H353	H	-0.486874	0.442728	0.488262
	O354	O	0.421842	0.604627	0.453593
	H355	H	0.416764	0.606985	0.453789
	H356	H	0.419624	0.598112	0.458666
	O357	O	-0.429876	1.542291	0.472762
	H358	H	-0.437649	1.548645	0.478733
	H359	H	-0.430611	1.537997	0.475594
