data_Molecule from HDF5

_cell_length_a		16.404879
_cell_length_b		16.306379
_cell_length_c		16.358021
_cell_angle_alpha	89.748538
_cell_angle_beta	89.975992
_cell_angle_gamma	90.130536
_symmetry_space_group_name_H-M	'P 1'
_symmetry_Int_Tables_number		1

loop_
	_symmetry_equiv_pos_as_xyz
	x,y,z

loop_
	_atom_site_label
	_atom_site_type_symbol
	_atom_site_fract_x
	_atom_site_fract_y
	_atom_site_fract_z
	H0	H	0.384771	0.824079	0.738956
	H1	H	0.593885	0.145396	0.737562
	H2	H	0.588218	0.822403	0.303179
	H3	H	0.385864	0.145082	0.298976
	H4	H	0.706558	0.381619	0.856768
	H5	H	0.706301	0.586588	0.178010
	H6	H	0.270159	0.589512	0.855384
	H7	H	0.267201	0.381273	0.177630
	H8	H	0.825926	0.702299	0.415952
	H9	H	0.149705	0.702561	0.617799
	H10	H	0.827518	0.265345	0.619666
	H11	H	0.147573	0.265108	0.412185
	H12	H	0.828218	0.381061	0.737074
	H13	H	0.149123	0.588139	0.735446
	H14	H	0.826947	0.589493	0.297040
	H15	H	0.147326	0.383331	0.296926
	H16	H	0.386341	0.705483	0.856118
	H17	H	0.588293	0.700457	0.179526
	H18	H	0.590059	0.266447	0.857069
	H19	H	0.383008	0.264764	0.178379
	H20	H	0.705345	0.822617	0.416771
	H21	H	0.709309	0.144880	0.622230
	H22	H	0.267851	0.823701	0.623933
	H23	H	0.268570	0.144015	0.411458
	H24	H	0.881922	0.325332	0.238294
	H25	H	0.088966	0.647013	0.232534
	H26	H	0.089221	0.323212	0.800673
	H27	H	0.890192	0.647417	0.800806
	H28	H	0.207269	0.881002	0.357096
	H29	H	0.208306	0.087704	0.677464
	H30	H	0.769549	0.087117	0.357005
	H31	H	0.771104	0.882199	0.679306
	H32	H	0.327784	0.204979	0.912997
	H33	H	0.648978	0.203087	0.119995
	H34	H	0.326591	0.767069	0.119244
	H35	H	0.649520	0.769412	0.918215
	H36	H	0.327210	0.881716	0.237339
	H37	H	0.649923	0.084810	0.234941
	H38	H	0.328458	0.089996	0.795817
	H39	H	0.648306	0.882137	0.798551
	H40	H	0.884303	0.204906	0.356950
	H41	H	0.092489	0.203732	0.677635
	H42	H	0.087819	0.769218	0.355637
	H43	H	0.888819	0.767060	0.679595
	H44	H	0.207734	0.325180	0.912782
	H45	H	0.205460	0.646758	0.117640
	H46	H	0.767797	0.324262	0.122316
	H47	H	0.770816	0.646489	0.913593
	H48	H	0.388759	0.100044	0.601287
	H49	H	0.578089	0.869914	0.609141
	H50	H	0.576510	0.096745	0.432863
	H51	H	0.392921	0.868694	0.433122
	H52	H	0.578771	0.388548	0.134106
	H53	H	0.583366	0.568251	0.904086
	H54	H	0.398340	0.577234	0.131190
	H55	H	0.392269	0.396983	0.902550
	H56	H	0.102874	0.584036	0.425207
	H57	H	0.872848	0.581563	0.607419
	H58	H	0.099466	0.396048	0.601525
	H59	H	0.873325	0.395847	0.426101
	H60	H	0.101913	0.398865	0.613039
	H61	H	0.876727	0.571175	0.604016
	H62	H	0.099198	0.572584	0.429105
	H63	H	0.875048	0.394133	0.430282
	H64	H	0.393367	0.576275	0.132420
	H65	H	0.569218	0.579299	0.904841
	H66	H	0.583278	0.398483	0.131830
	H67	H	0.401445	0.401341	0.906290
	H68	H	0.588593	0.102002	0.427410
	H69	H	0.576310	0.870946	0.607774
	H70	H	0.400092	0.101696	0.616289
	H71	H	0.395943	0.867177	0.422824
	H72	H	0.900938	0.599262	0.109769
	H73	H	0.077892	0.368214	0.114398
	H74	H	0.079722	0.602775	0.918630
	H75	H	0.897317	0.370366	0.926150
	H76	H	0.076958	0.888440	0.633465
	H77	H	0.085211	0.071870	0.401309
	H78	H	0.891209	0.072830	0.633188
	H79	H	0.894113	0.891889	0.401116
	H80	H	0.601200	0.072082	0.926701
	H81	H	0.374014	0.072705	0.111526
	H82	H	0.602232	0.885352	0.101800
	H83	H	0.376706	0.897063	0.935446
	H84	H	0.599205	0.904088	0.110458
	H85	H	0.372864	0.077116	0.109683
	H86	H	0.601400	0.077644	0.927613
	H87	H	0.374678	0.901724	0.923251
	H88	H	0.902403	0.067564	0.628252
	H89	H	0.073417	0.070424	0.406699
	H90	H	0.083871	0.895719	0.632762
	H91	H	0.894674	0.896259	0.403205
	H92	H	0.074043	0.597804	0.928535
	H93	H	0.070430	0.373259	0.104212
	H94	H	0.898393	0.598196	0.100275
	H95	H	0.896227	0.370072	0.929053
	H96	H	0.406949	0.092724	0.600421
	H97	H	0.578763	0.870436	0.606811
	H98	H	0.576872	0.101179	0.418909
	H99	H	0.403331	0.871533	0.430098
	H100	H	0.573222	0.396208	0.129426
	H101	H	0.585011	0.584900	0.898271
	H102	H	0.396048	0.572545	0.130637
	H103	H	0.401360	0.390291	0.903035
	H104	H	0.102887	0.573906	0.417552
	H105	H	0.873178	0.572945	0.615038
	H106	H	0.104650	0.387604	0.609329
	H107	H	0.875441	0.398787	0.428831
	H108	H	0.891837	0.601731	0.106982
	H109	H	0.083214	0.370090	0.102034
	H110	H	0.085766	0.601126	0.929677
	H111	H	0.894655	0.369228	0.926562
	H112	H	0.075204	0.897230	0.629640
	H113	H	0.076874	0.081107	0.401775
	H114	H	0.901943	0.080183	0.632637
	H115	H	0.898102	0.893255	0.403157
	H116	H	0.599009	0.074021	0.931693
	H117	H	0.375726	0.073084	0.107191
	H118	H	0.607483	0.888495	0.122011
	H119	H	0.371422	0.889083	0.926209
	C120	C	0.366968	-0.007527	0.638646
	C121	C	0.609609	0.976669	0.639328
	C122	C	0.609841	-0.007040	0.396991
	C123	C	0.366495	0.975210	0.396626
	C124	C	0.609101	0.363580	0.025821
	C125	C	0.609538	0.606935	1.009002
	C126	C	0.366061	0.606794	0.024936
	C127	C	0.366238	0.363806	1.009585
	C128	C	-0.004706	0.607145	0.394342
	C129	C	0.980508	0.605971	0.638499
	C130	C	-0.003607	0.362923	0.639144
	C131	C	0.979534	0.364379	0.395509
	C132	C	0.865617	0.493576	0.138027
	C133	C	0.108293	0.477159	0.136997
	C134	C	0.110135	0.493881	0.895172
	C135	C	0.866402	0.476647	0.895859
	C136	C	0.109344	0.863391	0.525825
	C137	C	0.110293	0.106101	0.508920
	C138	C	0.866951	0.105407	0.525616
	C139	C	0.866230	0.863066	0.509353
	C140	C	0.495771	0.106753	0.895918
	C141	C	0.480506	0.105452	0.139732
	C142	C	0.496447	0.862138	0.141100
	C143	C	0.479980	0.864564	0.897174
	C144	C	0.365371	0.872300	0.699475
	C145	C	0.611710	0.097119	0.698159
	C146	C	0.608474	0.870928	0.340856
	C147	C	0.366477	0.096699	0.337853
	C148	C	0.667598	0.362667	0.905158
	C149	C	0.667252	0.605991	0.129907
	C150	C	0.308931	0.608052	0.903704
	C151	C	0.306520	0.362120	0.129709
	C152	C	0.874470	0.664560	0.395369
	C153	C	0.101488	0.663474	0.637124
	C154	C	0.875958	0.304154	0.639478
	C155	C	0.099606	0.305127	0.393757
	C156	C	0.876081	0.362031	0.697678
	C157	C	0.101235	0.606511	0.695975
	C158	C	0.874880	0.608286	0.336262
	C159	C	0.099585	0.363666	0.336183
	C160	C	0.366930	0.665807	0.904042
	C161	C	0.608399	0.662703	0.130789
	C162	C	0.609425	0.305210	0.905185
	C163	C	0.364339	0.304400	0.130064
	C164	C	0.666626	0.871268	0.397609
	C165	C	0.669464	0.096880	0.640808
	C166	C	0.307385	0.872028	0.642100
	C167	C	0.308252	0.096272	0.394327
	C168	C	0.863895	0.373292	0.198202
	C169	C	0.108360	0.598738	0.193989
	C170	C	0.109540	0.372196	0.838336
	C171	C	0.868656	0.598633	0.838499
	C172	C	0.167809	0.862419	0.405029
	C173	C	0.168930	0.106721	0.629408
	C174	C	0.808476	0.106488	0.405036
	C175	C	0.809322	0.862440	0.630875
	C176	C	0.375677	0.165552	0.894459
	C177	C	0.600950	0.163659	0.139091
	C178	C	0.375057	0.805243	0.139454
	C179	C	0.601263	0.807730	0.898047
	C180	C	0.375275	0.862280	0.198228
	C181	C	0.601663	0.104664	0.196228
	C182	C	0.376056	0.108343	0.836181
	C183	C	0.600651	0.863994	0.838725
	C184	C	0.865662	0.164903	0.404907
	C185	C	0.111050	0.164401	0.629505
	C186	C	0.108143	0.806937	0.404091
	C187	C	0.868033	0.805466	0.631163
	C188	C	0.168486	0.373015	0.894214
	C189	C	0.166387	0.598500	0.136757
	C190	C	0.806876	0.372594	0.140355
	C191	C	0.809827	0.598315	0.895171
	C192	C	0.391489	0.076305	0.613231
	C193	C	0.584654	0.892404	0.614938
	C194	C	0.586964	0.077816	0.419633
	C195	C	0.390371	0.891133	0.421448
	C196	C	0.585309	0.387542	0.109962
	C197	C	0.585989	0.584126	0.924383
	C198	C	0.389131	0.582341	0.109608
	C199	C	0.391106	0.388892	0.925809
	C200	C	0.079745	0.583517	0.417381
	C201	C	0.896056	0.582069	0.615485
	C202	C	0.080185	0.387397	0.614979
	C203	C	0.896241	0.389062	0.420822
	C204	C	0.890002	0.577918	0.112747
	C205	C	0.084234	0.392510	0.113635
	C206	C	0.086632	0.578569	0.918615
	C207	C	0.889327	0.391743	0.919985
	C208	C	0.085659	0.886846	0.609920
	C209	C	0.085625	0.081532	0.425168
	C210	C	0.891391	0.080676	0.609456
	C211	C	0.889111	0.886698	0.424611
	C212	C	0.578863	0.081649	0.921233
	C213	C	0.396027	0.081384	0.116296
	C214	C	0.581032	0.885911	0.118111
	C215	C	0.396219	0.888759	0.921166
	Zn216	Zn	0.488334	-0.014625	0.767291
	Zn217	Zn	0.488240	-0.015643	0.269589
	Zn218	Zn	0.737645	0.484997	0.017067
	Zn219	Zn	0.237286	0.485157	0.016533
	Zn220	Zn	-0.012331	0.734585	0.517025
	Zn221	Zn	-0.011950	0.234204	0.517091
	Zn222	Zn	-0.011590	0.484867	0.767780
	Zn223	Zn	-0.012979	0.485931	0.266018
	Zn224	Zn	0.487855	0.735375	0.017520
	Zn225	Zn	0.487198	0.234784	0.018174
	Zn226	Zn	0.737943	-0.015904	0.518188
	Zn227	Zn	0.238556	-0.016295	0.517436
	N228	N	0.401684	0.948290	0.697565
	N229	N	0.575044	0.021291	0.697152
	N230	N	0.573864	0.947646	0.340387
	N231	N	0.402065	0.020504	0.339155
	N232	N	0.667468	0.398253	0.981091
	N233	N	0.667962	0.572161	0.053096
	N234	N	0.308352	0.572098	0.980032
	N235	N	0.307613	0.398394	0.053733
	N236	N	0.950520	0.664296	0.430581
	N237	N	0.025362	0.663123	0.602003
	N238	N	0.951791	0.304633	0.603877
	N239	N	0.023956	0.305302	0.429879
	N240	N	0.952036	0.397831	0.697546
	N241	N	0.024952	0.571497	0.696815
	N242	N	0.951106	0.573494	0.335499
	N243	N	0.023893	0.399620	0.337124
	N244	N	0.401693	0.665095	0.980544
	N245	N	0.573225	0.663584	0.054453
	N246	N	0.573561	0.305754	0.981170
	N247	N	0.400807	0.305390	0.054414
	N248	N	0.667624	0.948000	0.431983
	N249	N	0.668140	0.020861	0.604822
	N250	N	0.308458	0.947724	0.604922
	N251	N	0.308065	0.019780	0.430150
	N252	N	0.899970	0.449581	0.196784
	N253	N	0.073034	0.522123	0.194463
	N254	N	0.074133	0.448533	0.838547
	N255	N	0.903221	0.521987	0.838979
	N256	N	0.168685	0.896622	0.481669
	N257	N	0.168695	0.071187	0.553339
	N258	N	0.809078	0.070363	0.481093
	N259	N	0.808267	0.897351	0.554289
	N260	N	0.451140	0.164743	0.930911
	N261	N	0.524434	0.163920	0.104611
	N262	N	0.451502	0.805071	0.104720
	N263	N	0.525445	0.808066	0.933701
	N264	N	0.451891	0.896664	0.199574
	N265	N	0.525531	0.069287	0.196811
	N266	N	0.451754	0.072471	0.836985
	N267	N	0.524117	0.898448	0.837776
	N268	N	0.901371	0.164194	0.480955
	N269	N	0.075083	0.163994	0.553583
	N270	N	0.072209	0.807455	0.480017
	N271	N	0.902580	0.805458	0.554482
	N272	N	0.169130	0.449687	0.928542
	N273	N	0.166349	0.521798	0.102072
	N274	N	0.807761	0.448499	0.103718
	N275	N	0.808151	0.521303	0.929815
	O276	O	0.309442	0.395359	0.412750
	H277	H	0.310543	0.384218	0.426477
	H278	H	0.305608	0.387605	0.419224
	O279	O	0.543297	0.528303	0.382804
	H280	H	0.540308	0.518667	0.387098
	H281	H	0.541858	0.531809	0.372171
	O282	O	1.143700	-0.061965	0.913842
	H283	H	1.144253	-0.064844	0.900418
	H284	H	1.146359	-0.057611	0.913580
	O285	O	0.504281	0.436595	0.532318
	H286	H	0.502612	0.433631	0.523795
	H287	H	0.498539	0.438554	0.535224
	O288	O	0.873590	1.028950	1.032735
	H289	H	0.861329	1.035591	1.028748
	H290	H	0.883998	1.022669	1.038926
	O291	O	0.652347	1.675065	0.591906
	H292	H	0.659374	1.674905	0.589013
	H293	H	0.642353	1.671966	0.587758
	O294	O	0.527115	0.384519	0.350459
	H295	H	0.535533	0.385629	0.354590
	H296	H	0.529211	0.395734	0.360477
	O297	O	0.458779	0.345618	0.622692
	H298	H	0.451570	0.366246	0.626231
	H299	H	0.441221	0.350661	0.624216
	O300	O	0.500571	0.580721	0.474911
	H301	H	0.497775	0.583524	0.477226
	H302	H	0.489232	0.595879	0.465836
	O303	O	0.493955	0.439163	0.568814
	H304	H	0.495021	0.441407	0.584668
	H305	H	0.493324	0.436090	0.582053
	O306	O	1.133219	1.010702	0.865495
	H307	H	1.131258	1.015556	0.871608
	H308	H	1.136596	1.019805	0.849204
	O309	O	0.433383	0.577223	0.434583
	H310	H	0.423925	0.578360	0.451178
	H311	H	0.429455	0.575434	0.423357
	O312	O	-0.116429	-0.099937	0.156996
	H313	H	-0.111107	-0.087634	0.155547
	H314	H	-0.130597	-0.094142	0.157760
	O315	O	0.491371	0.301313	0.367962
	H316	H	0.506277	0.301222	0.384835
	H317	H	0.495055	0.295976	0.357017
	O318	O	0.054111	0.949118	1.017038
	H319	H	0.049238	0.939156	1.002816
	H320	H	0.056804	0.949489	1.024245
	O321	O	0.409137	0.370501	0.506655
	H322	H	0.409796	0.388791	0.516656
	H323	H	0.428795	0.360176	0.503919
	O324	O	0.465179	0.481333	-0.496359
	H325	H	0.461233	0.488738	-0.504240
	H326	H	0.461394	0.481268	-0.493321
	O327	O	0.065474	0.961571	0.059918
	H328	H	0.061529	0.956846	0.050252
	H329	H	0.065858	0.957665	0.065955
	O330	O	0.181119	0.153729	1.130070
	H331	H	0.185059	0.158622	1.137024
	H332	H	0.183102	0.135812	1.131307
	O333	O	-0.011673	0.051346	1.033693
	H334	H	0.012347	0.055276	1.037802
	H335	H	-0.010934	0.050710	1.029426
	O336	O	0.421813	0.617570	0.364637
	H337	H	0.418647	0.604762	0.363575
	H338	H	0.417899	0.609537	0.365601
	O339	O	1.089348	-0.044193	-0.123509
	H340	H	1.074742	-0.044884	-0.115779
	H341	H	1.086085	-0.043951	-0.128793
	O342	O	-0.012513	-0.046301	-0.007641
	H343	H	-0.012001	-0.058403	-0.002199
	H344	H	-0.008789	-0.029332	-0.000030
	O345	O	0.926947	0.086828	0.836403
	H346	H	0.923853	0.093663	0.832799
	H347	H	0.928321	0.081248	0.826783
	O348	O	0.967406	0.845825	-0.120814
	H349	H	0.964279	0.853005	-0.118420
	H350	H	0.971401	0.843150	-0.109236
	O351	O	0.643215	0.503660	0.455599
	H352	H	0.643391	0.510224	0.444868
	H353	H	0.636385	0.499509	0.452625
	O354	O	0.978786	0.073067	1.185234
	H355	H	0.975962	0.074079	1.171586
	H356	H	0.985113	0.061450	1.190957
	O357	O	0.304066	0.460317	0.558307
	H358	H	0.306563	0.467247	0.554916
	H359	H	0.308095	0.459833	0.562632
	O360	O	0.882992	0.120585	-0.068101
	H361	H	0.887967	0.108537	-0.064777
	H362	H	0.878103	0.121603	-0.054024
	O363	O	0.084398	0.997106	1.157621
	H364	H	0.076196	0.978016	1.155919
	H365	H	0.072088	0.989993	1.173288
	O366	O	0.466878	0.567626	0.400674
	H367	H	0.453807	0.552347	0.398236
	H368	H	0.466340	0.576695	0.400242
	O369	O	-0.586663	0.510952	-0.305073
	H370	H	-0.584027	0.530807	-0.312245
	H371	H	-0.581024	0.507957	-0.298548
	O372	O	0.546921	0.557743	0.645782
	H373	H	0.561376	0.549048	0.649129
	H374	H	0.554107	0.551657	0.633113
	O375	O	0.515046	0.496109	0.658611
	H376	H	0.526210	0.492609	0.673915
	H377	H	0.524823	0.507244	0.661659
	O378	O	1.386460	1.604251	-0.406047
	H379	H	1.385432	1.604571	-0.396898
	H380	H	1.387607	1.611800	-0.410175
	O381	O	0.940524	-0.131620	0.135778
	H382	H	0.939449	-0.134245	0.128229
	H383	H	0.930243	-0.133972	0.139367
	O384	O	0.888096	0.825837	0.040741
	H385	H	0.882940	0.826670	0.044637
	H386	H	0.881898	0.821182	0.049539
	O387	O	-0.105547	0.138655	0.075089
	H388	H	-0.107590	0.147978	0.088656
	H389	H	-0.087430	0.133230	0.072886
	O390	O	0.646314	1.576840	-0.455760
	H391	H	0.647756	1.583430	-0.458186
	H392	H	0.658861	1.578828	-0.460853
	O393	O	0.921537	1.004770	0.975252
	H394	H	0.924742	1.014579	0.990554
	H395	H	0.918640	1.003447	0.971720
	O396	O	-0.116509	0.009521	0.087923
	H397	H	-0.120481	0.017532	0.085042
	H398	H	-0.105137	0.008766	0.083237
	O399	O	-0.004905	1.076156	1.081868
	H400	H	-0.004171	1.094587	1.091563
	H401	H	0.004720	1.076314	1.088250
	O402	O	0.459419	0.454938	0.588362
	H403	H	0.456677	0.455530	0.583664
	H404	H	0.457913	0.439796	0.582540
	O405	O	1.137868	0.910182	0.019495
	H406	H	1.135528	0.905697	0.000974
	H407	H	1.135192	0.896811	0.021242
	O408	O	1.556757	1.503470	-0.364094
	H409	H	1.574744	1.510297	-0.345436
	H410	H	1.546372	1.493971	-0.376924
	O411	O	0.972113	-0.076526	0.946386
	H412	H	0.972518	-0.055757	0.946847
	H413	H	0.977709	-0.077050	0.939596
	O414	O	0.388814	0.379187	0.622872
	H415	H	0.393469	0.362490	0.621915
	H416	H	0.399649	0.377182	0.608054
	O417	O	0.578280	0.313942	0.535566
	H418	H	0.562287	0.309671	0.544743
	H419	H	0.582849	0.301600	0.546718
