data_Molecule from HDF5

_cell_length_a		16.504136
_cell_length_b		16.457847
_cell_length_c		16.307218
_cell_angle_alpha	89.882946
_cell_angle_beta	90.110343
_cell_angle_gamma	89.780046
_symmetry_space_group_name_H-M	'P 1'
_symmetry_Int_Tables_number		1

loop_
	_symmetry_equiv_pos_as_xyz
	x,y,z

loop_
	_atom_site_label
	_atom_site_type_symbol
	_atom_site_fract_x
	_atom_site_fract_y
	_atom_site_fract_z
	H0	H	0.391987	0.849470	0.723690
	H1	H	0.602514	0.164520	0.721507
	H2	H	0.603262	0.848931	0.277750
	H3	H	0.393608	0.166082	0.282202
	H4	H	0.721685	0.398540	0.841835
	H5	H	0.719918	0.612520	0.158819
	H6	H	0.271952	0.616849	0.841851
	H7	H	0.276149	0.400699	0.159333
	H8	H	0.840395	0.732536	0.389914
	H9	H	0.153352	0.730004	0.608463
	H10	H	0.840197	0.284066	0.606776
	H11	H	0.152672	0.280529	0.390739
	H12	H	0.838674	0.401964	0.721223
	H13	H	0.152908	0.613411	0.723253
	H14	H	0.840221	0.613839	0.275962
	H15	H	0.155941	0.401249	0.279547
	H16	H	0.386523	0.732911	0.843068
	H17	H	0.602476	0.726389	0.160368
	H18	H	0.604807	0.283917	0.841258
	H19	H	0.395515	0.289035	0.160765
	H20	H	0.723136	0.850611	0.389490
	H21	H	0.720050	0.163626	0.607159
	H22	H	0.274004	0.850039	0.609988
	H23	H	0.272602	0.162967	0.391927
	H24	H	0.895743	0.348217	0.218878
	H25	H	0.100959	0.666080	0.219428
	H26	H	0.099064	0.347225	0.780790
	H27	H	0.889914	0.665774	0.777682
	H28	H	0.218510	0.900469	0.340704
	H29	H	0.217965	0.111441	0.660098
	H30	H	0.774624	0.113517	0.341211
	H31	H	0.775094	0.899599	0.658623
	H32	H	0.339248	0.230305	0.892270
	H33	H	0.654222	0.225628	0.105088
	H34	H	0.338899	0.783728	0.107240
	H35	H	0.653735	0.781973	0.892793
	H36	H	0.336493	0.903061	0.219728
	H37	H	0.654663	0.106172	0.218766
	H38	H	0.338827	0.112379	0.778324
	H39	H	0.655165	0.901431	0.779991
	H40	H	0.889637	0.229141	0.341233
	H41	H	0.102058	0.227562	0.659883
	H42	H	0.102141	0.785561	0.340430
	H43	H	0.892872	0.787069	0.660048
	H44	H	0.218026	0.347854	0.894293
	H45	H	0.218464	0.664919	0.104733
	H46	H	0.776686	0.349301	0.106744
	H47	H	0.771196	0.663661	0.891004
	H48	H	0.401246	0.119667	0.583095
	H49	H	0.589138	0.892065	0.590108
	H50	H	0.585426	0.121228	0.404898
	H51	H	0.409874	0.894301	0.411656
	H52	H	0.583771	0.416547	0.112537
	H53	H	0.580874	0.587229	0.890574
	H54	H	0.412749	0.598003	0.112522
	H55	H	0.401951	0.416990	0.883614
	H56	H	0.111137	0.602025	0.412370
	H57	H	0.884649	0.596910	0.584267
	H58	H	0.111657	0.414411	0.592971
	H59	H	0.884526	0.415133	0.410606
	H60	H	0.109244	0.414522	0.584756
	H61	H	0.885219	0.594227	0.586499
	H62	H	0.107076	0.594153	0.415925
	H63	H	0.886387	0.419735	0.413863
	H64	H	0.403118	0.596042	0.115677
	H65	H	0.578635	0.598500	0.887850
	H66	H	0.588661	0.414574	0.115549
	H67	H	0.407920	0.424128	0.888306
	H68	H	0.580031	0.116485	0.414349
	H69	H	0.581408	0.894980	0.589046
	H70	H	0.406557	0.121767	0.594917
	H71	H	0.404864	0.892307	0.414009
	H72	H	0.913499	0.619527	0.089671
	H73	H	0.086718	0.395196	0.084080
	H74	H	0.085382	0.618878	0.913499
	H75	H	0.904360	0.394734	0.914232
	H76	H	0.084196	0.915918	0.614294
	H77	H	0.079185	0.091868	0.390024
	H78	H	0.909874	0.092233	0.612369
	H79	H	0.903724	0.923736	0.385717
	H80	H	0.611498	0.092863	0.903740
	H81	H	0.381432	0.103510	0.089070
	H82	H	0.605879	0.923006	0.089280
	H83	H	0.387050	0.918173	0.919564
	H84	H	0.611798	0.913965	0.096010
	H85	H	0.383389	0.095579	0.086567
	H86	H	0.610719	0.104539	0.914715
	H87	H	0.387344	0.925244	0.912008
	H88	H	0.910580	0.097325	0.614521
	H89	H	0.085141	0.100130	0.384604
	H90	H	0.088045	0.918956	0.614484
	H91	H	0.913736	0.923117	0.389573
	H92	H	0.086740	0.620246	0.911900
	H93	H	0.094315	0.392296	0.090983
	H94	H	0.907484	0.618511	0.079833
	H95	H	0.910280	0.394387	0.906778
	H96	H	0.413690	0.116970	0.584845
	H97	H	0.586573	0.895808	0.583230
	H98	H	0.591508	0.119008	0.415318
	H99	H	0.406288	0.891672	0.408740
	H100	H	0.588485	0.420267	0.113406
	H101	H	0.589428	0.593598	0.885455
	H102	H	0.408419	0.588630	0.111141
	H103	H	0.411911	0.414714	0.886069
	H104	H	0.110407	0.594076	0.406680
	H105	H	0.883838	0.597334	0.587745
	H106	H	0.108074	0.421475	0.589254
	H107	H	0.884099	0.420954	0.407925
	H108	H	0.902271	0.622493	0.089743
	H109	H	0.083941	0.393002	0.094213
	H110	H	0.084749	0.618902	0.910839
	H111	H	0.913566	0.397359	0.915082
	H112	H	0.084160	0.920313	0.611839
	H113	H	0.090139	0.090059	0.386367
	H114	H	0.905406	0.094765	0.614000
	H115	H	0.909697	0.913966	0.383960
	H116	H	0.605058	0.090208	0.918289
	H117	H	0.380531	0.096562	0.094284
	H118	H	0.608228	0.911089	0.083984
	H119	H	0.383538	0.915970	0.910063
	C120	C	0.375300	0.015450	0.621642
	C121	C	0.618457	0.998195	0.620969
	C122	C	0.618480	0.015055	0.378257
	C123	C	0.375039	0.997649	0.379043
	C124	C	0.619466	0.384524	0.008644
	C125	C	0.616423	0.626189	0.992694
	C126	C	0.374605	0.628162	0.008554
	C127	C	0.376236	0.386433	0.991611
	C128	C	0.005880	0.629849	0.377671
	C129	C	0.988067	0.628412	0.620420
	C130	C	0.005375	0.384621	0.621488
	C131	C	0.988815	0.385628	0.378327
	C132	C	0.876638	0.515517	0.120000
	C133	C	0.119848	0.498145	0.121722
	C134	C	0.118021	0.515035	0.878742
	C135	C	0.874975	0.499038	0.878426
	C136	C	0.118391	0.885324	0.508561
	C137	C	0.117709	0.127086	0.491985
	C138	C	0.875122	0.128247	0.508617
	C139	C	0.876027	0.886428	0.491368
	C140	C	0.505098	0.128888	0.878444
	C141	C	0.487173	0.128132	0.121458
	C142	C	0.504143	0.884158	0.122325
	C143	C	0.489134	0.885331	0.879706
	C144	C	0.373565	0.896826	0.683482
	C145	C	0.620775	0.117052	0.681576
	C146	C	0.621492	0.896433	0.317381
	C147	C	0.373853	0.117628	0.320213
	C148	C	0.681049	0.380766	0.889604
	C149	C	0.678296	0.629654	0.111895
	C150	C	0.312401	0.633457	0.889522
	C151	C	0.316732	0.383646	0.111730
	C152	C	0.887721	0.691608	0.372842
	C153	C	0.106058	0.689552	0.625354
	C154	C	0.887187	0.324067	0.624744
	C155	C	0.106356	0.322555	0.374084
	C156	C	0.886457	0.383081	0.681572
	C157	C	0.105876	0.631523	0.682854
	C158	C	0.887414	0.632088	0.316341
	C159	C	0.108001	0.382671	0.318625
	C160	C	0.369551	0.691490	0.890227
	C161	C	0.620249	0.686870	0.112244
	C162	C	0.622231	0.324125	0.888905
	C163	C	0.375845	0.327579	0.112389
	C164	C	0.681339	0.897468	0.373178
	C165	C	0.679337	0.116606	0.624621
	C166	C	0.314899	0.897039	0.626542
	C167	C	0.313893	0.116303	0.375122
	C168	C	0.876245	0.396208	0.180035
	C169	C	0.119948	0.618230	0.180149
	C170	C	0.118932	0.395207	0.819444
	C171	C	0.871818	0.618095	0.817714
	C172	C	0.178846	0.882508	0.388803
	C173	C	0.177699	0.129588	0.612227
	C174	C	0.814449	0.131369	0.389139
	C175	C	0.815433	0.882360	0.610991
	C176	C	0.386651	0.190029	0.874672
	C177	C	0.606968	0.185720	0.123046
	C178	C	0.385768	0.824446	0.124610
	C179	C	0.606630	0.822943	0.875192
	C180	C	0.384799	0.883432	0.181165
	C181	C	0.607045	0.126642	0.179846
	C182	C	0.386655	0.131544	0.817398
	C183	C	0.607532	0.882484	0.819034
	C184	C	0.872284	0.188705	0.388967
	C185	C	0.119893	0.187264	0.612069
	C186	C	0.120887	0.825203	0.388549
	C187	C	0.873933	0.825976	0.611576
	C188	C	0.177710	0.395458	0.876460
	C189	C	0.178596	0.617599	0.123210
	C190	C	0.817042	0.396630	0.123974
	C191	C	0.812429	0.616821	0.873900
	C192	C	0.400062	0.097803	0.595359
	C193	C	0.593164	0.915760	0.595015
	C194	C	0.592938	0.097534	0.404201
	C195	C	0.399758	0.914559	0.404442
	C196	C	0.594108	0.409992	0.092048
	C197	C	0.590344	0.600470	0.909645
	C198	C	0.400652	0.601532	0.091455
	C199	C	0.400350	0.411326	0.907816
	C200	C	0.087998	0.604121	0.404103
	C201	C	0.905992	0.603311	0.593761
	C202	C	0.088028	0.409801	0.596148
	C203	C	0.906726	0.411320	0.403606
	C204	C	0.900670	0.598543	0.093959
	C205	C	0.095450	0.415140	0.096960
	C206	C	0.092896	0.597804	0.904300
	C207	C	0.901651	0.416810	0.904742
	C208	C	0.092937	0.910767	0.591905
	C209	C	0.092138	0.101345	0.408684
	C210	C	0.901205	0.102228	0.592085
	C211	C	0.901745	0.912694	0.408142
	C212	C	0.587552	0.103339	0.904754
	C213	C	0.403693	0.105061	0.096867
	C214	C	0.587039	0.908716	0.097156
	C215	C	0.407265	0.912051	0.906213
	Zn216	Zn	0.497382	0.006933	0.749861
	Zn217	Zn	0.495420	0.006397	0.250190
	Zn218	Zn	0.746271	0.506927	0.000135
	Zn219	Zn	0.247413	0.506518	-0.000413
	Zn220	Zn	-0.003601	0.758011	0.499927
	Zn221	Zn	-0.003231	0.256359	0.500083
	Zn222	Zn	-0.003878	0.507357	0.749487
	Zn223	Zn	-0.001977	0.507087	0.249443
	Zn224	Zn	0.496552	0.755805	0.000771
	Zn225	Zn	0.496862	0.257420	-0.000079
	Zn226	Zn	0.747253	0.006557	0.500067
	Zn227	Zn	0.246693	0.006664	0.500220
	N228	N	0.410714	0.971497	0.680534
	N229	N	0.583566	0.042583	0.679445
	N230	N	0.582948	0.970463	0.320511
	N231	N	0.411212	0.042959	0.322598
	N232	N	0.679489	0.417459	0.965154
	N233	N	0.675950	0.592655	0.036565
	N234	N	0.315637	0.594599	0.964167
	N235	N	0.316696	0.419504	0.035608
	N236	N	0.962343	0.690311	0.410315
	N237	N	0.031772	0.687818	0.587258
	N238	N	0.962067	0.325195	0.588094
	N239	N	0.031494	0.324338	0.410712
	N240	N	0.961049	0.420052	0.679666
	N241	N	0.031732	0.594044	0.679846
	N242	N	0.961862	0.594389	0.319107
	N243	N	0.034044	0.421349	0.320957
	N244	N	0.407769	0.688293	0.965003
	N245	N	0.582050	0.684584	0.037170
	N246	N	0.584651	0.326230	0.964020
	N247	N	0.412267	0.329245	0.036694
	N248	N	0.679574	0.972181	0.410569
	N249	N	0.677956	0.041748	0.587511
	N250	N	0.315770	0.971692	0.588999
	N251	N	0.314455	0.040673	0.411234
	N252	N	0.912581	0.471216	0.177942
	N253	N	0.084274	0.542924	0.179469
	N254	N	0.082843	0.470669	0.820393
	N255	N	0.909882	0.543780	0.820160
	N256	N	0.177565	0.918981	0.464563
	N257	N	0.176459	0.092959	0.536626
	N258	N	0.816333	0.094258	0.464656
	N259	N	0.816432	0.919027	0.535312
	N260	N	0.461610	0.188857	0.911425
	N261	N	0.531428	0.186758	0.087382
	N262	N	0.461201	0.824605	0.088935
	N263	N	0.531919	0.824380	0.911968
	N264	N	0.459709	0.919727	0.179999
	N265	N	0.531578	0.091851	0.178937
	N266	N	0.461329	0.094432	0.819452
	N267	N	0.533294	0.920505	0.821498
	N268	N	0.909290	0.186884	0.464413
	N269	N	0.083285	0.185848	0.536213
	N270	N	0.084215	0.826489	0.464147
	N271	N	0.911064	0.828569	0.536033
	N272	N	0.177562	0.471015	0.912252
	N273	N	0.178679	0.541902	0.087863
	N274	N	0.817123	0.471976	0.087439
	N275	N	0.814328	0.541708	0.910911
	O276	O	0.634628	0.306944	0.517324
	H277	H	0.614175	0.305926	0.503036
	H278	H	0.644660	0.306478	0.510405
	O279	O	0.344782	0.412945	0.360197
	H280	H	0.321730	0.411043	0.364716
	H281	H	0.352382	0.436477	0.338698
	O282	O	0.418711	0.520749	0.292159
	H283	H	0.403230	0.536983	0.271411
	H284	H	0.431748	0.533371	0.296685
	O285	O	0.895151	0.861304	0.188201
	H286	H	0.882365	0.857419	0.184086
	H287	H	0.910387	0.859302	0.201706
	O288	O	0.697758	0.418604	0.300429
	H289	H	0.715816	0.438830	0.300620
	H290	H	0.706166	0.429418	0.331497
	O291	O	0.283478	0.566198	0.543469
	H292	H	0.278054	0.548210	0.534316
	H293	H	0.279672	0.566254	0.546149
	O294	O	1.119412	0.973343	0.876930
	H295	H	1.123087	0.972491	0.874178
	H296	H	1.124072	0.985714	0.896343
	O297	O	0.700828	0.720860	0.511209
	H298	H	0.695145	0.723300	0.522469
	H299	H	0.718739	0.739524	0.507224
	O300	O	0.144752	0.095109	0.103299
	H301	H	0.135489	0.081693	0.112917
	H302	H	0.140957	0.087942	0.106351
	O303	O	0.540637	0.302124	0.309498
	H304	H	0.551704	0.313015	0.313524
	H305	H	0.530594	0.288587	0.288265
	O306	O	-0.044342	0.143650	1.147121
	H307	H	-0.031692	0.151409	1.150017
	H308	H	-0.046465	0.153710	1.151493
	O309	O	1.004868	-0.048510	-0.111878
	H310	H	1.025422	-0.046950	-0.093946
	H311	H	1.007078	-0.057538	-0.113413
	O312	O	0.589337	0.710970	0.409911
	H313	H	0.601645	0.698037	0.408177
	H314	H	0.576402	0.706779	0.421047
	O315	O	0.282249	0.722024	0.479484
	H316	H	0.269494	0.723094	0.491336
	H317	H	0.279185	0.735609	0.487998
	O318	O	0.452611	-0.701949	0.706246
	H319	H	0.451188	-0.695584	0.710185
	H320	H	0.464730	-0.725264	0.717553
	O321	O	0.670141	0.681174	0.674183
	H322	H	0.646042	0.689748	0.658714
	H323	H	0.651509	0.673964	0.679898
	O324	O	1.010786	-0.019931	1.038266
	H325	H	1.017685	-0.027172	1.027637
	H326	H	1.008033	0.001169	1.031966
	O327	O	0.706442	0.529095	0.706438
	H328	H	0.717997	0.539517	0.729771
	H329	H	0.698171	0.546246	0.709913
	O330	O	0.144599	1.187181	1.169437
	H331	H	0.138624	1.190104	1.177965
	H332	H	0.148444	1.185701	1.159771
	O333	O	0.409994	0.313151	-0.480901
	H334	H	0.412744	0.315250	-0.476551
	H335	H	0.420702	0.314734	-0.489577
	O336	O	0.797924	1.010072	0.126474
	H337	H	0.799182	1.010063	0.132684
	H338	H	0.783099	1.002180	0.121092
	O339	O	0.108980	1.013104	1.195087
	H340	H	0.099432	1.010563	1.201033
	H341	H	0.092734	1.019403	1.206358
	O342	O	0.372083	0.532611	0.384288
	H343	H	0.374546	0.551850	0.378188
	H344	H	0.342682	0.536631	0.364947
	O345	O	-0.005552	0.095844	0.973413
	H346	H	-0.002689	0.102309	0.976479
	H347	H	-0.007242	0.109465	0.985977
	O348	O	0.316051	0.686773	0.316935
	H349	H	0.360036	0.698950	0.316984
	H350	H	0.315051	0.700201	0.353063
	O351	O	0.963185	0.835337	-0.044300
	H352	H	0.962218	0.843411	-0.038665
	H353	H	0.965730	0.837849	-0.048415
	O354	O	0.310415	0.324332	1.633764
	H355	H	0.313885	0.327016	1.619492
	H356	H	0.335910	0.307523	1.631641
	O357	O	-0.203749	-0.102698	-0.007781
	H358	H	-0.198106	-0.083745	-0.024340
	H359	H	-0.202754	-0.104728	-0.005197
	O360	O	0.286678	0.480051	0.717367
	H361	H	0.253486	0.475841	0.752527
	H362	H	0.293833	0.452901	0.688702
	O363	O	0.910712	-0.062164	-0.049306
	H364	H	0.903014	-0.051443	-0.047718
	H365	H	0.910677	-0.061255	-0.039554
	O366	O	-0.014306	-0.001713	0.801826
	H367	H	-0.011510	-0.003920	0.810725
	H368	H	-0.007440	-0.000866	0.791405
	O369	O	0.798367	0.076723	0.840775
	H370	H	0.804934	0.087683	0.836122
	H371	H	0.796834	0.081889	0.834365
	O372	O	0.516024	0.711530	0.703260
	H373	H	0.502465	0.712966	0.711173
	H374	H	0.500247	0.704367	0.719907
	O375	O	0.004571	0.068427	0.971647
	H376	H	0.016870	0.074533	0.978119
	H377	H	-0.006987	0.068612	0.979525
	O378	O	0.695675	0.537448	0.389119
	H379	H	0.692363	0.534612	0.420855
	H380	H	0.697128	0.555027	0.393275
	O381	O	0.064901	1.077358	-0.142238
	H382	H	0.072620	1.071168	-0.147403
	H383	H	0.060525	1.060891	-0.146645
	O384	O	0.423915	0.716060	0.556588
	H385	H	0.425306	0.710371	0.560330
	H386	H	0.428999	0.708015	0.557913
	O387	O	0.569795	0.375766	0.647263
	H388	H	0.588106	0.367457	0.641749
	H389	H	0.571994	0.394091	0.640963
	O390	O	1.154369	0.819030	0.005992
	H391	H	1.158949	0.814736	0.006797
	H392	H	1.158786	0.822739	-0.003729
	O393	O	0.970687	0.166449	0.950262
	H394	H	0.973141	0.165044	0.948786
	H395	H	0.958362	0.152324	0.935872
	O396	O	0.716888	0.460576	0.513031
	H397	H	0.714388	0.459848	0.537688
	H398	H	0.712223	0.452205	0.512782
	O399	O	0.553775	0.295457	0.540465
	H400	H	0.544217	0.299829	0.554697
	H401	H	0.544155	0.302158	0.528807
	O402	O	0.943765	0.844935	0.197999
	H403	H	0.943089	0.838391	0.195308
	H404	H	0.946995	0.846088	0.190981
	O405	O	0.049200	0.060255	-0.102162
	H406	H	0.046098	0.055598	-0.089491
	H407	H	0.048269	0.066226	-0.103977
	O408	O	0.478925	0.456398	0.496921
	H409	H	0.494175	0.465220	0.485858
	H410	H	0.473794	0.468466	0.519561
	O411	O	1.143825	0.865446	0.939641
	H412	H	1.133495	0.868402	0.934010
	H413	H	1.145676	0.866259	0.932736
	O414	O	0.403297	0.466355	0.487348
	H415	H	0.411786	0.462947	0.473517
	H416	H	0.399874	0.477423	0.478246
	O417	O	-0.045381	0.939132	1.110353
	H418	H	-0.063442	0.947248	1.100734
	H419	H	-0.032367	0.937919	1.111575
	O420	O	0.481106	1.487922	1.411606
	H421	H	0.479898	1.475142	1.413652
	H422	H	0.476191	1.483708	1.400246
	O423	O	0.098277	0.986614	-0.145120
	H424	H	0.092069	0.983951	-0.131496
	H425	H	0.104559	1.002634	-0.135468
	O426	O	0.744981	0.258777	0.186121
	H427	H	0.730108	0.262401	0.184080
	H428	H	0.722330	0.275275	0.174721
	O429	O	0.542772	0.505373	0.498023
	H430	H	0.542347	0.493323	0.494856
	H431	H	0.533109	0.490896	0.497660
	O432	O	0.424667	0.574250	0.707988
	H433	H	0.422543	0.557570	0.706964
	H434	H	0.394758	0.559349	0.700389
	O435	O	-0.019507	0.074999	-0.023828
	H436	H	-0.020967	0.070605	-0.034889
	H437	H	-0.023346	0.071783	-0.030922
	O438	O	-0.178097	1.180404	1.051496
	H439	H	-0.192974	1.195083	1.051195
	H440	H	-0.167572	1.183884	1.033573
	O441	O	0.476235	0.714456	0.294060
	H442	H	0.481790	0.731366	0.270953
	H443	H	0.502095	0.710674	0.307411
