data_Molecule from HDF5

_cell_length_a		16.474404
_cell_length_b		16.409673
_cell_length_c		16.481395
_cell_angle_alpha	90.130463
_cell_angle_beta	89.888081
_cell_angle_gamma	90.164995
_symmetry_space_group_name_H-M	'P 1'
_symmetry_Int_Tables_number		1

loop_
	_symmetry_equiv_pos_as_xyz
	x,y,z

loop_
	_atom_site_label
	_atom_site_type_symbol
	_atom_site_fract_x
	_atom_site_fract_y
	_atom_site_fract_z
	H0	H	0.410972	0.858308	0.728207
	H1	H	0.618129	0.178215	0.724176
	H2	H	0.624661	0.858943	0.283370
	H3	H	0.414705	0.174922	0.288540
	H4	H	0.734915	0.412863	0.848009
	H5	H	0.738095	0.625099	0.165354
	H6	H	0.292357	0.624129	0.849754
	H7	H	0.296165	0.415497	0.165673
	H8	H	0.858310	0.739357	0.403739
	H9	H	0.174506	0.740274	0.613574
	H10	H	0.857600	0.295964	0.609052
	H11	H	0.176282	0.302635	0.404905
	H12	H	0.856884	0.411577	0.727017
	H13	H	0.172928	0.625359	0.731541
	H14	H	0.858808	0.626134	0.284810
	H15	H	0.175319	0.418147	0.286890
	H16	H	0.409312	0.738994	0.848918
	H17	H	0.622011	0.741645	0.164399
	H18	H	0.615965	0.299528	0.847840
	H19	H	0.414062	0.300461	0.166810
	H20	H	0.740611	0.859751	0.398926
	H21	H	0.734709	0.178458	0.608117
	H22	H	0.293187	0.859513	0.613988
	H23	H	0.300179	0.176638	0.405374
	H24	H	0.912690	0.359050	0.226193
	H25	H	0.123812	0.676422	0.229622
	H26	H	0.116994	0.357969	0.787879
	H27	H	0.906901	0.674628	0.783617
	H28	H	0.240406	0.912460	0.348896
	H29	H	0.237501	0.123967	0.665215
	H30	H	0.792128	0.126525	0.350144
	H31	H	0.794567	0.912490	0.663104
	H32	H	0.355714	0.232955	0.908742
	H33	H	0.674722	0.237566	0.111059
	H34	H	0.359365	0.790661	0.117449
	H35	H	0.672710	0.795449	0.901962
	H36	H	0.359426	0.905570	0.235257
	H37	H	0.674808	0.120894	0.227484
	H38	H	0.357640	0.121029	0.787770
	H39	H	0.673977	0.914014	0.787145
	H40	H	0.911440	0.240011	0.348552
	H41	H	0.120898	0.240748	0.664323
	H42	H	0.126290	0.793960	0.349772
	H43	H	0.912715	0.797590	0.664247
	H44	H	0.232504	0.357513	0.904130
	H45	H	0.241574	0.674365	0.116250
	H46	H	0.799183	0.357244	0.107140
	H47	H	0.791623	0.674469	0.899915
	H48	H	0.425738	0.130384	0.594209
	H49	H	0.609105	0.902752	0.597183
	H50	H	0.604777	0.128582	0.420931
	H51	H	0.421910	0.902073	0.424132
	H52	H	0.610895	0.433690	0.120534
	H53	H	0.599444	0.608566	0.896091
	H54	H	0.426681	0.602332	0.119011
	H55	H	0.423195	0.428087	0.893441
	H56	H	0.130933	0.611100	0.417839
	H57	H	0.904054	0.602964	0.600427
	H58	H	0.131092	0.428004	0.601846
	H59	H	0.903452	0.427584	0.419293
	H60	H	0.128886	0.426606	0.592441
	H61	H	0.902711	0.612592	0.595066
	H62	H	0.127340	0.604328	0.420519
	H63	H	0.902682	0.431242	0.414582
	H64	H	0.430115	0.601566	0.116460
	H65	H	0.609157	0.604483	0.894216
	H66	H	0.599393	0.426037	0.118852
	H67	H	0.426338	0.422943	0.892772
	H68	H	0.609082	0.131161	0.416516
	H69	H	0.603126	0.905041	0.598455
	H70	H	0.424257	0.132911	0.602549
	H71	H	0.430612	0.901717	0.413422
	H72	H	0.928952	0.631025	0.096054
	H73	H	0.101529	0.406919	0.092834
	H74	H	0.102056	0.629754	0.918643
	H75	H	0.930800	0.408226	0.924523
	H76	H	0.106302	0.931683	0.618508
	H77	H	0.107414	0.107128	0.393767
	H78	H	0.923414	0.103926	0.618788
	H79	H	0.931637	0.919444	0.391148
	H80	H	0.630220	0.109360	0.914679
	H81	H	0.401347	0.114445	0.097312
	H82	H	0.623333	0.934758	0.092250
	H83	H	0.406109	0.932870	0.923656
	H84	H	0.626632	0.931453	0.097357
	H85	H	0.406453	0.102531	0.094216
	H86	H	0.631421	0.110163	0.914277
	H87	H	0.401342	0.931683	0.911191
	H88	H	0.932547	0.104198	0.615673
	H89	H	0.108837	0.111490	0.392399
	H90	H	0.103552	0.930113	0.618218
	H91	H	0.918823	0.935391	0.392091
	H92	H	0.104032	0.629633	0.921562
	H93	H	0.107803	0.403747	0.094873
	H94	H	0.925194	0.630945	0.093373
	H95	H	0.914753	0.400669	0.917681
	H96	H	0.432386	0.130032	0.600034
	H97	H	0.605927	0.905216	0.592251
	H98	H	0.603319	0.129945	0.414996
	H99	H	0.435118	0.907343	0.425358
	H100	H	0.611227	0.420956	0.124307
	H101	H	0.601785	0.598459	0.898521
	H102	H	0.429535	0.605016	0.118346
	H103	H	0.420711	0.422553	0.890966
	H104	H	0.129769	0.604796	0.413214
	H105	H	0.907462	0.603408	0.589906
	H106	H	0.126116	0.434871	0.596875
	H107	H	0.900952	0.425836	0.414389
	H108	H	0.925173	0.632901	0.097331
	H109	H	0.102452	0.404819	0.099753
	H110	H	0.105451	0.631136	0.918574
	H111	H	0.930187	0.402347	0.906581
	H112	H	0.106418	0.928581	0.619221
	H113	H	0.112064	0.107615	0.392482
	H114	H	0.928884	0.111510	0.620094
	H115	H	0.937896	0.937283	0.399133
	H116	H	0.630424	0.110498	0.915655
	H117	H	0.401335	0.104103	0.106318
	H118	H	0.625239	0.928222	0.090412
	H119	H	0.401202	0.921319	0.919668
	C120	C	0.394319	0.026309	0.630473
	C121	C	0.637550	1.009611	0.627598
	C122	C	0.638880	0.025401	0.384683
	C123	C	0.397453	1.008094	0.388307
	C124	C	0.637038	0.395865	0.015575
	C125	C	0.636726	0.638075	0.999629
	C126	C	0.394381	0.637758	0.014861
	C127	C	0.393357	0.394908	0.998083
	C128	C	0.025137	0.640159	0.385166
	C129	C	1.007989	0.639787	0.629013
	C130	C	0.023830	0.396719	0.627921
	C131	C	1.007696	0.397801	0.385001
	C132	C	0.894765	0.526494	0.127334
	C133	C	0.137127	0.509855	0.128416
	C134	C	0.135472	0.525425	0.886929
	C135	C	0.892588	0.508271	0.884297
	C136	C	0.138863	0.897118	0.514775
	C137	C	0.139779	0.140467	0.497985
	C138	C	0.895840	0.139278	0.514209
	C139	C	0.896310	0.897687	0.498025
	C140	C	0.524719	0.139391	0.885741
	C141	C	0.507886	0.138616	0.129853
	C142	C	0.522519	0.895936	0.128510
	C143	C	0.507194	0.896498	0.886352
	C144	C	0.392034	0.906399	0.689336
	C145	C	0.637999	0.129889	0.685788
	C146	C	0.642522	0.906436	0.323835
	C147	C	0.395914	0.127782	0.328368
	C148	C	0.695401	0.394548	0.895887
	C149	C	0.697785	0.642536	0.117959
	C150	C	0.332691	0.641695	0.896923
	C151	C	0.335780	0.396016	0.118302
	C152	C	0.906060	0.700219	0.384203
	C153	C	0.126849	0.700250	0.632148
	C154	C	0.904948	0.336056	0.628419
	C155	C	0.128395	0.341160	0.384973
	C156	C	0.904432	0.394058	0.686587
	C157	C	0.125941	0.643314	0.690984
	C158	C	0.906165	0.643674	0.325068
	C159	C	0.127897	0.398587	0.326657
	C160	C	0.391160	0.698971	0.896502
	C161	C	0.640041	0.700785	0.117457
	C162	C	0.636203	0.337907	0.895718
	C163	C	0.394270	0.338906	0.118895
	C164	C	0.700341	0.907008	0.381341
	C165	C	0.695867	0.130054	0.628024
	C166	C	0.333140	0.907206	0.632730
	C167	C	0.339020	0.128437	0.386497
	C168	C	0.893877	0.406614	0.186370
	C169	C	0.141107	0.628797	0.189255
	C170	C	0.135830	0.405578	0.827691
	C171	C	0.889385	0.627174	0.823930
	C172	C	0.199950	0.894380	0.396263
	C173	C	0.198209	0.142511	0.617398
	C174	C	0.833849	0.143297	0.396619
	C175	C	0.835023	0.894524	0.616374
	C176	C	0.403950	0.195125	0.887868
	C177	C	0.627179	0.197889	0.130083
	C178	C	0.406102	0.831821	0.134460
	C179	C	0.625631	0.836075	0.883937
	C180	C	0.406200	0.889176	0.193204
	C181	C	0.627017	0.140106	0.188281
	C182	C	0.404799	0.139291	0.828088
	C183	C	0.626519	0.894944	0.826932
	C184	C	0.892957	0.200174	0.395877
	C185	C	0.140097	0.200496	0.616924
	C186	C	0.142867	0.835332	0.396532
	C187	C	0.893792	0.837419	0.616628
	C188	C	0.193672	0.405661	0.885282
	C189	C	0.199739	0.627683	0.132477
	C190	C	0.837286	0.405699	0.127425
	C191	C	0.831901	0.627220	0.881857
	C192	C	0.420018	0.109491	0.605921
	C193	C	0.613146	0.926042	0.603166
	C194	C	0.613226	0.108324	0.410229
	C195	C	0.422222	0.925260	0.413640
	C196	C	0.613798	0.419945	0.099385
	C197	C	0.610768	0.611429	0.917709
	C198	C	0.421083	0.610878	0.096527
	C199	C	0.416696	0.417904	0.914255
	C200	C	0.107690	0.614269	0.409962
	C201	C	0.926183	0.613817	0.602707
	C202	C	0.107205	0.422514	0.603849
	C203	C	0.924237	0.421361	0.409050
	C204	C	0.919304	0.609879	0.102699
	C205	C	0.111028	0.426739	0.102972
	C206	C	0.110840	0.608615	0.912368
	C207	C	0.917884	0.425439	0.909125
	C208	C	0.112708	0.922689	0.597178
	C209	C	0.116172	0.115885	0.414619
	C210	C	0.921210	0.113580	0.596675
	C211	C	0.922227	0.923374	0.415704
	C212	C	0.608791	0.116381	0.908271
	C213	C	0.424592	0.113871	0.106069
	C214	C	0.604079	0.923575	0.101145
	C215	C	0.424238	0.921470	0.911092
	Zn216	Zn	0.516503	0.017640	0.757190
	Zn217	Zn	0.516398	0.015717	0.258592
	Zn218	Zn	0.765895	0.517337	0.007350
	Zn219	Zn	0.265322	0.516887	0.007016
	Zn220	Zn	0.017561	0.767971	0.506361
	Zn221	Zn	0.016733	0.268109	0.505723
	Zn222	Zn	0.015443	0.517585	0.756901
	Zn223	Zn	0.015825	0.518996	0.256299
	Zn224	Zn	0.514719	0.766989	0.007057
	Zn225	Zn	0.515423	0.267269	0.007667
	Zn226	Zn	0.766493	0.018335	0.506423
	Zn227	Zn	0.268163	0.017875	0.507737
	N228	N	0.429119	0.981500	0.688192
	N229	N	0.602615	0.053860	0.685832
	N230	N	0.605146	0.981165	0.325741
	N231	N	0.431165	0.052022	0.329074
	N232	N	0.695855	0.430147	0.971479
	N233	N	0.696136	0.604533	0.043555
	N234	N	0.334430	0.604618	0.971701
	N235	N	0.334967	0.430114	0.042207
	N236	N	0.981104	0.698251	0.420516
	N237	N	0.052555	0.698660	0.594704
	N238	N	0.980448	0.337784	0.592610
	N239	N	0.052795	0.340374	0.420441
	N240	N	0.979365	0.430913	0.686257
	N241	N	0.050696	0.606904	0.689650
	N242	N	0.981247	0.607403	0.325267
	N243	N	0.051815	0.432773	0.326271
	N244	N	0.428551	0.696677	0.970972
	N245	N	0.602834	0.698299	0.042986
	N246	N	0.600701	0.338550	0.971189
	N247	N	0.429269	0.338057	0.043245
	N248	N	0.698220	0.982079	0.418330
	N249	N	0.695875	0.054113	0.592698
	N250	N	0.334400	0.982886	0.597032
	N251	N	0.339686	0.053105	0.422768
	N252	N	0.928779	0.482861	0.186726
	N253	N	0.102372	0.554588	0.186398
	N254	N	0.100406	0.481302	0.828454
	N255	N	0.926304	0.552279	0.825112
	N256	N	0.197415	0.932187	0.470685
	N257	N	0.198229	0.105894	0.542200
	N258	N	0.835610	0.106253	0.471184
	N259	N	0.836272	0.931078	0.541424
	N260	N	0.479452	0.195317	0.923001
	N261	N	0.551889	0.197240	0.094658
	N262	N	0.479304	0.836298	0.094818
	N263	N	0.550381	0.837069	0.920162
	N264	N	0.479826	0.928624	0.189235
	N265	N	0.551836	0.103829	0.188348
	N266	N	0.481005	0.105254	0.826673
	N267	N	0.551642	0.931452	0.828072
	N268	N	0.931010	0.197549	0.469947
	N269	N	0.104686	0.199281	0.541655
	N270	N	0.105614	0.836963	0.471367
	N271	N	0.931127	0.839078	0.542148
	N272	N	0.193777	0.481338	0.921094
	N273	N	0.196994	0.552761	0.095063
	N274	N	0.837849	0.481280	0.091668
	N275	N	0.833821	0.552291	0.918680
	O276	O	0.681275	0.476040	0.421624
	H277	H	0.673215	0.473975	0.422601
	H278	H	0.682510	0.469238	0.401343
	O279	O	1.212687	-0.111608	0.812203
	H280	H	1.215256	-0.094907	0.810206
	H281	H	1.223887	-0.120009	0.815551
	O282	O	0.725537	0.453888	0.367109
	H283	H	0.723498	0.445039	0.364359
	H284	H	0.746056	0.443500	0.354001
	O285	O	0.322614	0.468906	0.612895
	H286	H	0.316793	0.474924	0.639838
	H287	H	0.311254	0.436037	0.617841
	O288	O	1.020487	1.173391	0.110289
	H289	H	1.031857	1.179273	0.106103
	H290	H	1.024535	1.162167	0.100751
	O291	O	0.332655	0.594860	0.318582
	H292	H	0.326975	0.577742	0.330331
	H293	H	0.358775	0.595082	0.322504
	O294	O	-0.128711	0.013782	0.822778
	H295	H	-0.135721	0.027912	0.815481
	H296	H	-0.136193	0.033519	0.832376
	O297	O	0.642891	0.406854	0.433686
	H298	H	0.620399	0.407283	0.437620
	H299	H	0.659124	0.395648	0.424965
	O300	O	1.208737	1.161080	0.864660
	H301	H	1.193511	1.146038	0.885064
	H302	H	1.200435	1.136386	0.861535
	O303	O	0.545960	0.483157	0.403837
	H304	H	0.546408	0.464417	0.410185
	H305	H	0.566199	0.488738	0.402010
	O306	O	0.589487	0.382917	0.446991
	H307	H	0.570685	0.380893	0.458725
	H308	H	0.577552	0.395085	0.443365
	O309	O	0.576723	0.705336	0.453250
	H310	H	0.562068	0.702030	0.461086
	H311	H	0.561369	0.705107	0.420570
	O312	O	-0.627773	0.374352	0.352082
	H313	H	-0.645264	0.361753	0.355086
	H314	H	-0.650089	0.385964	0.361566
	O315	O	0.909226	0.214189	0.996530
	H316	H	0.899115	0.204379	1.011814
	H317	H	0.901062	0.215910	0.996675
	O318	O	1.402615	-0.305025	-0.680851
	H319	H	1.400909	-0.310544	-0.654895
	H320	H	1.410593	-0.321796	-0.683687
	O321	O	0.003244	0.048025	0.209842
	H322	H	0.010623	0.044082	0.213733
	H323	H	0.024835	0.056808	0.216820
	O324	O	0.495627	0.501240	0.635108
	H325	H	0.490336	0.510424	0.638038
	H326	H	0.501763	0.523120	0.641297
	O327	O	0.704297	0.587288	0.511760
	H328	H	0.701359	0.597789	0.514156
	H329	H	0.701801	0.585034	0.524786
	O330	O	0.040577	0.928358	0.169335
	H331	H	0.043691	0.915265	0.166962
	H332	H	0.053685	0.932755	0.158309
	O333	O	0.311304	0.717244	0.482734
	H334	H	0.316549	0.710614	0.496708
	H335	H	0.289573	0.723977	0.485518
	O336	O	-1.046011	0.142193	0.906778
	H337	H	-1.056834	0.133354	0.902782
	H338	H	-1.047546	0.141625	0.909852
	O339	O	-0.103588	1.110729	1.165138
	H340	H	-0.084719	1.123806	1.177352
	H341	H	-0.092086	1.104531	1.176595
	O342	O	0.111683	1.061488	0.865813
	H343	H	0.098576	1.075304	0.861060
	H344	H	0.093761	1.045644	0.867864
	O345	O	1.227936	1.049267	0.220946
	H346	H	1.240427	1.038266	0.213962
	H347	H	1.241447	1.038071	0.224857
	O348	O	0.541747	0.391841	0.438922
	H349	H	0.530919	0.385875	0.416451
	H350	H	0.533576	0.396380	0.451317
	O351	O	0.429018	0.454779	0.344675
	H352	H	0.423809	0.441900	0.357407
	H353	H	0.421637	0.472074	0.334223
	O354	O	0.222826	1.038515	-0.140016
	H355	H	0.206756	1.041949	-0.147311
	H356	H	0.227882	1.038455	-0.152505
	O357	O	-0.479556	-0.557125	1.709267
	H358	H	-0.463812	-0.548143	1.695397
	H359	H	-0.468621	-0.531220	1.715651
	O360	O	0.303684	0.514082	0.561518
	H361	H	0.306883	0.507212	0.569824
	H362	H	0.306135	0.498887	0.592997
	O363	O	-0.292735	0.327298	1.317808
	H364	H	-0.310879	0.320911	1.330969
	H365	H	-0.309750	0.315980	1.309975
	O366	O	-0.046409	0.122159	-0.161223
	H367	H	-0.055009	0.125618	-0.149917
	H368	H	-0.053940	0.119328	-0.164314
	O369	O	0.967233	-0.202225	0.958118
	H370	H	0.958224	-0.200224	0.949251
	H371	H	0.952799	-0.204766	0.945990
	O372	O	0.861641	0.133531	0.932395
	H373	H	0.853850	0.140217	0.946758
	H374	H	0.863461	0.103350	0.933715
	O375	O	0.716034	0.717402	0.706624
	H376	H	0.723778	0.706302	0.670285
	H377	H	0.742788	0.745083	0.710526
	O378	O	0.407176	0.493690	0.636066
	H379	H	0.401319	0.481942	0.640727
	H380	H	0.409530	0.494231	0.657636
	O381	O	0.509524	0.644088	0.367571
	H382	H	0.504627	0.632072	0.354673
	H383	H	0.486759	0.653732	0.353588
	O384	O	0.220012	0.811052	-0.069344
	H385	H	0.206866	0.789743	-0.078628
	H386	H	0.214137	0.798297	-0.050600
	O387	O	-0.076976	0.116183	0.932724
	H388	H	-0.078819	0.106801	0.925426
	H389	H	-0.093961	0.111598	0.935452
	O390	O	-0.068987	-0.042236	0.012434
	H391	H	-0.089448	-0.050755	0.017998
	H392	H	-0.065571	-0.031388	0.018004
	O393	O	0.913754	0.812689	1.032742
	H394	H	0.891611	0.800446	1.033167
	H395	H	0.914748	0.834485	1.053309
	O396	O	1.152160	-0.078351	0.002851
	H397	H	1.158455	-0.089479	0.001607
	H398	H	1.125178	-0.070554	0.000767
	O399	O	0.314016	-0.680429	0.631441
	H400	H	0.324922	-0.689950	0.661241
	H401	H	0.315690	-0.681968	0.641239
	O402	O	0.777640	1.186929	0.859825
	H403	H	0.761908	1.201292	0.861508
	H404	H	0.774454	1.192477	0.878907
	O405	O	0.813506	0.818232	0.124450
	H406	H	0.810305	0.834460	0.158112
	H407	H	0.828212	0.796074	0.134072
	O408	O	0.828757	-0.062418	0.198054
	H409	H	0.846646	-0.065600	0.214400
	H410	H	0.825553	-0.046617	0.208807
	O411	O	0.859720	0.861871	-0.188758
	H412	H	0.858168	0.883181	-0.180603
	H413	H	0.877556	0.881507	-0.168783
	O414	O	0.037590	-0.201457	-0.202733
	H415	H	0.037531	-0.223369	-0.222837
	H416	H	0.050887	-0.195914	-0.209060
	O417	O	0.388250	0.447615	0.426508
	H418	H	0.381139	0.438458	0.451476
	H419	H	0.386341	0.463332	0.433085
	O420	O	-0.005054	0.074130	-0.089869
	H421	H	0.016502	0.070465	-0.081302
	H422	H	-0.011810	0.071456	-0.090714
	O423	O	0.037594	0.226684	0.225872
	H424	H	0.054562	0.248644	0.244331
	H425	H	0.064553	0.231614	0.224616
	O426	O	0.548301	0.733097	0.727303
	H427	H	0.570365	0.748392	0.741007
	H428	H	0.578355	0.745939	0.735978
	O429	O	0.480700	0.702388	0.569441
	H430	H	0.485015	0.718885	0.575114
	H431	H	0.485074	0.701314	0.582592
	O432	O	0.648298	0.369835	0.642641
	H433	H	0.647202	0.360506	0.626855
	H434	H	0.641325	0.390473	0.632492
	O435	O	0.413039	0.386827	0.712850
	H436	H	0.448836	0.385983	0.704109
	H437	H	0.417108	0.383680	0.734075
	O438	O	0.133344	0.130825	0.030714
	H439	H	0.132162	0.122737	0.027652
	H440	H	0.118086	0.130353	0.009367
	O441	O	1.228619	-0.042048	0.090042
	H442	H	1.222126	-0.048636	0.076562
	H443	H	1.230994	-0.053731	0.078988
	O444	O	-0.005902	0.806250	1.218843
	H445	H	0.004253	0.778269	1.235070
	H446	H	0.014605	0.808502	1.208930
	O447	O	0.218321	1.221500	0.208708
	H448	H	0.219783	1.216914	0.174234
	H449	H	0.227315	1.196229	0.202696
	O450	O	0.695001	0.549169	0.638798
	H451	H	0.717874	0.546632	0.659972
	H452	H	0.700941	0.554929	0.617893
	O453	O	0.720558	0.725814	0.541035
	H454	H	0.710900	0.723864	0.516871
	H455	H	0.723579	0.730892	0.521468
