data_Molecule from HDF5

_cell_length_a		16.243905
_cell_length_b		16.274472
_cell_length_c		16.331202
_cell_angle_alpha	89.177138
_cell_angle_beta	90.415707
_cell_angle_gamma	89.206640
_symmetry_space_group_name_H-M	'P 1'
_symmetry_Int_Tables_number		1

loop_
	_symmetry_equiv_pos_as_xyz
	x,y,z

loop_
	_atom_site_label
	_atom_site_type_symbol
	_atom_site_fract_x
	_atom_site_fract_y
	_atom_site_fract_z
	H0	H	0.397469	0.841857	0.707933
	H1	H	0.593012	0.168314	0.703065
	H2	H	0.595176	0.839064	0.279778
	H3	H	0.388477	0.165177	0.266723
	H4	H	0.713274	0.403644	0.826788
	H5	H	0.712551	0.598935	0.151747
	H6	H	0.278407	0.607290	0.826410
	H7	H	0.285043	0.404675	0.152829
	H8	H	0.832365	0.724227	0.386050
	H9	H	0.160427	0.714200	0.586688
	H10	H	0.830964	0.292342	0.588029
	H11	H	0.158236	0.288047	0.391858
	H12	H	0.832800	0.403962	0.706611
	H13	H	0.158367	0.600193	0.705321
	H14	H	0.833185	0.610017	0.269023
	H15	H	0.159858	0.405348	0.278964
	H16	H	0.394389	0.723410	0.826309
	H17	H	0.595707	0.715173	0.152581
	H18	H	0.596058	0.288595	0.825869
	H19	H	0.400074	0.286545	0.151584
	H20	H	0.713231	0.842328	0.394027
	H21	H	0.706594	0.168953	0.586498
	H22	H	0.285088	0.839933	0.588017
	H23	H	0.275697	0.167013	0.386036
	H24	H	0.899211	0.341691	0.208633
	H25	H	0.094542	0.668644	0.202635
	H26	H	0.096963	0.340147	0.778912
	H27	H	0.891198	0.666372	0.770129
	H28	H	0.211388	0.905166	0.325764
	H29	H	0.209788	0.099085	0.652239
	H30	H	0.774482	0.110621	0.327125
	H31	H	0.784711	0.907564	0.653485
	H32	H	0.332493	0.222987	0.886716
	H33	H	0.660189	0.213243	0.087848
	H34	H	0.331518	0.789824	0.088248
	H35	H	0.659364	0.788378	0.893173
	H36	H	0.332299	0.903225	0.204999
	H37	H	0.658030	0.098567	0.204968
	H38	H	0.332215	0.107750	0.771820
	H39	H	0.659365	0.904042	0.777409
	H40	H	0.891018	0.226208	0.326883
	H41	H	0.093122	0.216002	0.652350
	H42	H	0.094259	0.790535	0.325783
	H43	H	0.898114	0.787800	0.651317
	H44	H	0.213039	0.341484	0.894650
	H45	H	0.208979	0.668646	0.085881
	H46	H	0.785882	0.339098	0.089813
	H47	H	0.776860	0.666193	0.887079
	H48	H	0.408410	0.122790	0.592956
	H49	H	0.586342	0.887296	0.592355
	H50	H	0.566407	0.114151	0.397049
	H51	H	0.388999	0.884926	0.403014
	H52	H	0.584115	0.408061	0.102474
	H53	H	0.578533	0.595032	0.876846
	H54	H	0.403035	0.592002	0.103577
	H55	H	0.403604	0.409805	0.871382
	H56	H	0.114613	0.597884	0.388550
	H57	H	0.881053	0.599762	0.570335
	H58	H	0.110834	0.411087	0.581568
	H59	H	0.882820	0.420208	0.403743
	H60	H	0.112892	0.410246	0.588015
	H61	H	0.881055	0.588739	0.581060
	H62	H	0.112902	0.602832	0.401406
	H63	H	0.878023	0.422000	0.389924
	H64	H	0.406268	0.599270	0.104476
	H65	H	0.586453	0.603607	0.870942
	H66	H	0.593070	0.401446	0.106568
	H67	H	0.398974	0.416188	0.872117
	H68	H	0.592683	0.119651	0.407975
	H69	H	0.586783	0.891339	0.578548
	H70	H	0.409457	0.114855	0.567891
	H71	H	0.407259	0.884521	0.382541
	H72	H	0.902804	0.615817	0.068087
	H73	H	0.097213	0.387207	0.085304
	H74	H	0.080825	0.619707	0.892168
	H75	H	0.905575	0.387775	0.898394
	H76	H	0.089648	0.906907	0.604890
	H77	H	0.085677	0.097911	0.373112
	H78	H	0.895908	0.091897	0.604590
	H79	H	0.906498	0.911415	0.372887
	H80	H	0.612052	0.097146	0.899044
	H81	H	0.377656	0.089580	0.089280
	H82	H	0.616710	0.897457	0.088344
	H83	H	0.376112	0.906337	0.897360
	H84	H	0.608361	0.910619	0.073093
	H85	H	0.375986	0.108933	0.078001
	H86	H	0.611959	0.091779	0.894244
	H87	H	0.382862	0.918246	0.905711
	H88	H	0.909123	0.097182	0.602285
	H89	H	0.083635	0.095805	0.374490
	H90	H	0.091231	0.907525	0.604961
	H91	H	0.897222	0.916410	0.371739
	H92	H	0.086573	0.619811	0.899159
	H93	H	0.087486	0.388299	0.090660
	H94	H	0.894763	0.623098	0.081351
	H95	H	0.906426	0.387266	0.897767
	H96	H	0.386810	0.124421	0.577566
	H97	H	0.598407	0.885541	0.585138
	H98	H	0.586853	0.125889	0.380087
	H99	H	0.414956	0.893871	0.407607
	H100	H	0.594753	0.412513	0.105079
	H101	H	0.591167	0.591723	0.873694
	H102	H	0.398967	0.598421	0.107553
	H103	H	0.406691	0.416618	0.874782
	H104	H	0.109431	0.589615	0.398382
	H105	H	0.876083	0.602976	0.584523
	H106	H	0.113229	0.404809	0.583518
	H107	H	0.876759	0.409312	0.397069
	H108	H	0.911457	0.618688	0.082708
	H109	H	0.088767	0.390879	0.080236
	H110	H	0.089761	0.623550	0.891489
	H111	H	0.906587	0.387610	0.899272
	H112	H	0.089893	0.909333	0.604437
	H113	H	0.082877	0.098673	0.374079
	H114	H	0.898709	0.106017	0.608038
	H115	H	0.905313	0.921411	0.376211
	H116	H	0.614250	0.098173	0.892531
	H117	H	0.383755	0.090832	0.067341
	H118	H	0.611438	0.916953	0.092659
	H119	H	0.378271	0.920895	0.890090
	C120	C	0.374135	0.012760	0.610319
	C121	C	0.617157	0.996601	0.612013
	C122	C	0.614331	0.012251	0.368519
	C123	C	0.372226	0.995353	0.366371
	C124	C	0.619392	0.379660	-0.002502
	C125	C	0.616039	0.624045	0.981208
	C126	C	0.373066	0.627277	-0.002472
	C127	C	0.375825	0.383779	0.980528
	C128	C	0.004253	0.627885	0.365959
	C129	C	0.987361	0.624735	0.608902
	C130	C	0.003912	0.381802	0.612354
	C131	C	0.986760	0.385705	0.369128
	C132	C	0.875291	0.511925	0.109865
	C133	C	0.118681	0.496853	0.112174
	C134	C	0.116370	0.512890	0.868179
	C135	C	0.874063	0.494752	0.867129
	C136	C	0.118435	0.880897	0.497055
	C137	C	0.114532	0.124691	0.481193
	C138	C	0.870499	0.129614	0.497581
	C139	C	0.874963	0.885421	0.481124
	C140	C	0.504585	0.126773	0.865799
	C141	C	0.486973	0.123571	0.108796
	C142	C	0.504049	0.879967	0.112761
	C143	C	0.487314	0.884565	0.869393
	C144	C	0.377284	0.890256	0.668654
	C145	C	0.613140	0.119588	0.665262
	C146	C	0.614875	0.888732	0.316033
	C147	C	0.369953	0.117044	0.306660
	C148	C	0.674933	0.383007	0.875042
	C149	C	0.673712	0.620015	0.103266
	C150	C	0.316685	0.627018	0.875113
	C151	C	0.322248	0.384565	0.103796
	C152	C	0.881444	0.685856	0.366062
	C153	C	0.111072	0.677448	0.607032
	C154	C	0.880366	0.328911	0.609105
	C155	C	0.109740	0.327217	0.371795
	C156	C	0.881314	0.384460	0.668125
	C157	C	0.110005	0.621202	0.666374
	C158	C	0.881756	0.629070	0.308059
	C159	C	0.110636	0.385671	0.315841
	C160	C	0.374270	0.684829	0.875099
	C161	C	0.615460	0.677696	0.103783
	C162	C	0.616750	0.325901	0.874746
	C163	C	0.379042	0.325654	0.103080
	C164	C	0.673543	0.890284	0.372728
	C165	C	0.669680	0.119968	0.607273
	C166	C	0.321457	0.889223	0.609004
	C167	C	0.314283	0.117913	0.366191
	C168	C	0.878649	0.390067	0.169156
	C169	C	0.115234	0.619657	0.165565
	C170	C	0.116308	0.389404	0.815698
	C171	C	0.872269	0.617477	0.808938
	C172	C	0.173515	0.884581	0.374621
	C173	C	0.171119	0.120285	0.603607
	C174	C	0.813234	0.129739	0.375673
	C175	C	0.821407	0.886900	0.604073
	C176	C	0.381566	0.184663	0.866627
	C177	C	0.610829	0.176285	0.107549
	C178	C	0.380745	0.826327	0.109293
	C179	C	0.610474	0.827195	0.872702
	C180	C	0.380901	0.883079	0.166780
	C181	C	0.609779	0.119326	0.165991
	C182	C	0.381412	0.127332	0.809500
	C183	C	0.610561	0.884976	0.815401
	C184	C	0.871314	0.187226	0.375457
	C185	C	0.112904	0.178106	0.603892
	C186	C	0.115202	0.827765	0.374169
	C187	C	0.877977	0.827594	0.603142
	C188	C	0.173986	0.389926	0.873190
	C189	C	0.172136	0.619713	0.107469
	C190	C	0.822341	0.388546	0.110019
	C191	C	0.815801	0.617550	0.867289
	C192	C	0.395306	0.098429	0.586528
	C193	C	0.596456	0.910429	0.591536
	C194	C	0.589368	0.097691	0.389008
	C195	C	0.396657	0.909835	0.390658
	C196	C	0.597279	0.401032	0.082572
	C197	C	0.592264	0.602871	0.895954
	C198	C	0.396103	0.603561	0.083214
	C199	C	0.396964	0.407235	0.894978
	C200	C	0.089996	0.603721	0.389346
	C201	C	0.901650	0.603471	0.585390
	C202	C	0.089963	0.402456	0.590717
	C203	C	0.901382	0.409976	0.390581
	C204	C	0.896890	0.597205	0.084732
	C205	C	0.097275	0.410800	0.091661
	C206	C	0.092749	0.598745	0.888556
	C207	C	0.898811	0.409690	0.891437
	C208	C	0.096632	0.901641	0.582644
	C209	C	0.090970	0.103571	0.395798
	C210	C	0.894158	0.105282	0.582986
	C211	C	0.896557	0.909425	0.395611
	C212	C	0.590574	0.102736	0.888704
	C213	C	0.401422	0.102708	0.085194
	C214	C	0.589922	0.901746	0.091215
	C215	C	0.401394	0.908285	0.891320
	Zn216	Zn	0.495868	0.004804	0.739702
	Zn217	Zn	0.494019	0.002536	0.238499
	Zn218	Zn	0.746064	0.502329	-0.011403
	Zn219	Zn	0.245663	0.505027	-0.010538
	Zn220	Zn	-0.004026	0.754224	0.487952
	Zn221	Zn	-0.005617	0.255776	0.489219
	Zn222	Zn	-0.004762	0.503343	0.739041
	Zn223	Zn	-0.003448	0.505408	0.239761
	Zn224	Zn	0.495355	0.754570	-0.010080
	Zn225	Zn	0.496620	0.252949	-0.012067
	Zn226	Zn	0.744141	0.006093	0.489778
	Zn227	Zn	0.245350	0.003911	0.488571
	N228	N	0.409439	0.968145	0.669502
	N229	N	0.581168	0.041865	0.668249
	N230	N	0.578408	0.965647	0.313297
	N231	N	0.405668	0.039784	0.306890
	N232	N	0.677039	0.415367	0.952321
	N233	N	0.674139	0.587145	0.025917
	N234	N	0.315656	0.592180	0.952291
	N235	N	0.320098	0.420126	0.026859
	N236	N	0.958668	0.685156	0.401274
	N237	N	0.033725	0.679789	0.572068
	N238	N	0.957608	0.326864	0.575072
	N239	N	0.031820	0.327155	0.404347
	N240	N	0.959239	0.416380	0.670386
	N241	N	0.032214	0.588969	0.667456
	N242	N	0.959120	0.593752	0.307814
	N243	N	0.033388	0.421388	0.313933
	N244	N	0.408607	0.685050	0.952376
	N245	N	0.580409	0.680257	0.027035
	N246	N	0.583034	0.323574	0.951789
	N247	N	0.411796	0.325219	0.025546
	N248	N	0.673509	0.968020	0.404315
	N249	N	0.672275	0.042442	0.574701
	N250	N	0.319258	0.966323	0.573564
	N251	N	0.315997	0.041254	0.402740
	N252	N	0.910673	0.467891	0.169201
	N253	N	0.082755	0.542040	0.168555
	N254	N	0.081120	0.466737	0.812499
	N255	N	0.907914	0.540249	0.808859
	N256	N	0.175472	0.917112	0.452000
	N257	N	0.172331	0.088040	0.526243
	N258	N	0.812679	0.094733	0.452734
	N259	N	0.819703	0.922512	0.527136
	N260	N	0.459245	0.184612	0.900982
	N261	N	0.533547	0.178727	0.072503
	N262	N	0.458309	0.824534	0.076184
	N263	N	0.532705	0.827021	0.905656
	N264	N	0.458617	0.915360	0.169435
	N265	N	0.531895	0.087135	0.166822
	N266	N	0.458900	0.092186	0.808975
	N267	N	0.532932	0.919731	0.813187
	N268	N	0.906291	0.187149	0.452349
	N269	N	0.078417	0.180857	0.526731
	N270	N	0.081626	0.825367	0.451235
	N271	N	0.910601	0.826617	0.525652
	N272	N	0.173986	0.467565	0.905336
	N273	N	0.174269	0.542256	0.075052
	N274	N	0.820092	0.465297	0.073760
	N275	N	0.816386	0.540318	0.902508
	O276	O	0.038755	0.078816	-0.013463
	H277	H	0.048337	0.074587	-0.004189
	H278	H	0.043233	0.072728	-0.013463
	O279	O	0.865389	0.078741	0.877550
	H280	H	0.859644	0.071663	0.880700
	H281	H	0.860189	0.080338	0.886307
	O282	O	0.601842	0.588580	0.584809
	H283	H	0.593580	0.599801	0.571647
	H284	H	0.607609	0.598568	0.587118
	O285	O	0.005216	0.976210	1.030732
	H286	H	0.013291	0.960579	1.029259
	H287	H	0.005974	0.971680	1.027593
	O288	O	0.494636	0.479075	0.485229
	H289	H	0.498564	0.460488	0.492684
	H290	H	0.493391	0.492440	0.480716
	O291	O	0.442060	0.417409	1.505138
	H292	H	0.448990	0.407769	1.504402
	H293	H	0.448108	0.417916	1.508112
	O294	O	0.979778	1.019449	0.966960
	H295	H	0.981444	1.022929	0.962448
	H296	H	0.989914	1.018046	0.974617
	O297	O	1.076666	-0.035890	0.976981
	H298	H	1.075814	-0.025717	0.972288
	H299	H	1.075517	-0.034693	0.962126
	O300	O	0.506077	0.408520	0.491765
	H301	H	0.511857	0.396440	0.502718
	H302	H	0.517803	0.395413	0.495438
	O303	O	0.914352	0.025295	-0.080146
	H304	H	0.912263	0.024247	-0.090342
	H305	H	0.911103	0.032424	-0.077422
	O306	O	0.011821	0.912028	1.056429
	H307	H	0.015333	0.910950	1.058855
	H308	H	0.010106	0.909652	1.053601
	O309	O	0.436319	0.547604	0.515039
	H310	H	0.444706	0.543653	0.518613
	H311	H	0.430867	0.549635	0.503394
	O312	O	1.506519	0.567224	1.589965
	H313	H	1.512704	0.562125	1.589830
	H314	H	1.499617	0.577870	1.591419
	O315	O	0.452416	0.452935	0.552667
	H316	H	0.452666	0.443251	0.546139
	H317	H	0.454719	0.462141	0.549560
	O318	O	0.579664	0.543617	0.426274
	H319	H	0.574445	0.546799	0.421774
	H320	H	0.580142	0.541903	0.423000
	O321	O	0.992793	1.046172	0.999228
	H322	H	0.984746	1.054385	0.997961
	H323	H	1.000430	1.052692	1.005735
	O324	O	0.541138	0.625491	0.466384
	H325	H	0.533787	0.617837	0.454060
	H326	H	0.540199	0.625065	0.448246
	O327	O	0.520047	0.432184	0.431672
	H328	H	0.518432	0.437158	0.438855
	H329	H	0.530571	0.433087	0.436674
	O330	O	0.981818	0.022251	1.014252
	H331	H	0.982040	0.030478	1.009335
	H332	H	0.976283	0.021971	1.015866
	O333	O	0.925691	1.003225	0.006465
	H334	H	0.934144	0.994019	0.006847
	H335	H	0.922857	0.998848	0.006323
	O336	O	0.545857	0.405384	0.600606
	H337	H	0.551086	0.403808	0.606022
	H338	H	0.552744	0.424225	0.599158
	O339	O	0.576582	0.481552	0.472742
	H340	H	0.578890	0.477489	0.467124
	H341	H	0.565281	0.480938	0.478367
	O342	O	0.030036	0.968245	0.047190
	H343	H	0.034030	0.960092	0.050975
	H344	H	0.018134	0.973743	0.033591
	O345	O	-0.040432	0.033776	-0.062883
	H346	H	-0.043695	0.037714	-0.055125
	H347	H	-0.048975	0.031028	-0.069644
	O348	O	0.424403	0.616591	0.408042
	H349	H	0.417265	0.623239	0.398614
	H350	H	0.412425	0.611677	0.408143
	O351	O	0.538420	0.466093	0.422660
	H352	H	0.537472	0.460701	0.430294
	H353	H	0.541535	0.462942	0.419215
	O354	O	0.445267	0.433922	0.477232
	H355	H	0.445437	0.440801	0.483433
	H356	H	0.444453	0.441670	0.477798
	O357	O	0.448879	0.566436	0.483340
	H358	H	0.443747	0.581426	0.477633
	H359	H	0.433472	0.557119	0.489539
	O360	O	-0.037549	0.021267	-0.069611
	H361	H	-0.042399	0.021844	-0.060640
	H362	H	-0.042052	0.024984	-0.070781
	O363	O	0.439642	0.461490	0.420952
	H364	H	0.438630	0.452561	0.427557
	H365	H	0.444278	0.449574	0.433238
	O366	O	0.018837	-0.046057	0.925929
	H367	H	0.017111	-0.041975	0.928712
	H368	H	0.018974	-0.046760	0.928960
	O369	O	0.402978	0.587430	0.505542
	H370	H	0.385456	0.599522	0.499529
	H371	H	0.408140	0.587579	0.494751
