data_Molecule from HDF5

_cell_length_a		16.544712
_cell_length_b		16.473482
_cell_length_c		16.515019
_cell_angle_alpha	90.012297
_cell_angle_beta	89.957037
_cell_angle_gamma	90.178058
_symmetry_space_group_name_H-M	'P 1'
_symmetry_Int_Tables_number		1

loop_
	_symmetry_equiv_pos_as_xyz
	x,y,z

loop_
	_atom_site_label
	_atom_site_type_symbol
	_atom_site_fract_x
	_atom_site_fract_y
	_atom_site_fract_z
	H0	H	0.388205	0.843036	0.715403
	H1	H	0.600700	0.156800	0.716321
	H2	H	0.605263	0.845250	0.267663
	H3	H	0.391164	0.157550	0.273717
	H4	H	0.715356	0.395246	0.837275
	H5	H	0.718775	0.610848	0.150511
	H6	H	0.269550	0.609059	0.838072
	H7	H	0.271252	0.395305	0.150992
	H8	H	0.837189	0.724492	0.387755
	H9	H	0.150725	0.723290	0.600129
	H10	H	0.837748	0.276194	0.602369
	H11	H	0.150232	0.280735	0.389221
	H12	H	0.836843	0.394239	0.717594
	H13	H	0.151016	0.605969	0.715189
	H14	H	0.837483	0.610004	0.270173
	H15	H	0.147806	0.393318	0.269262
	H16	H	0.387765	0.723272	0.837052
	H17	H	0.601940	0.725019	0.150746
	H18	H	0.595888	0.282202	0.836468
	H19	H	0.387092	0.279139	0.151169
	H20	H	0.719151	0.844572	0.384594
	H21	H	0.718238	0.155737	0.600830
	H22	H	0.271087	0.843782	0.600970
	H23	H	0.273999	0.156869	0.388788
	H24	H	0.886838	0.343337	0.216447
	H25	H	0.101804	0.658028	0.219771
	H26	H	0.096522	0.344041	0.775157
	H27	H	0.885831	0.658876	0.771642
	H28	H	0.215794	0.895469	0.335664
	H29	H	0.215960	0.105425	0.650649
	H30	H	0.771738	0.107719	0.337521
	H31	H	0.769686	0.891313	0.648754
	H32	H	0.335267	0.218174	0.891756
	H33	H	0.651103	0.223953	0.098126
	H34	H	0.338012	0.777644	0.101158
	H35	H	0.651155	0.778200	0.887458
	H36	H	0.338014	0.894208	0.216551
	H37	H	0.652561	0.107340	0.214525
	H38	H	0.337337	0.103331	0.773323
	H39	H	0.650689	0.894666	0.771548
	H40	H	0.888175	0.224455	0.337758
	H41	H	0.098111	0.220153	0.651934
	H42	H	0.099291	0.779372	0.336411
	H43	H	0.886466	0.777949	0.649367
	H44	H	0.212879	0.344311	0.890079
	H45	H	0.220529	0.656453	0.106462
	H46	H	0.771558	0.342830	0.099103
	H47	H	0.772649	0.660155	0.890570
	H48	H	0.407882	0.112490	0.582578
	H49	H	0.583892	0.889891	0.574508
	H50	H	0.591989	0.117266	0.401455
	H51	H	0.406682	0.888371	0.408156
	H52	H	0.579503	0.421155	0.103000
	H53	H	0.585119	0.588220	0.882131
	H54	H	0.410581	0.588182	0.104150
	H55	H	0.402628	0.411621	0.881385
	H56	H	0.103108	0.588086	0.409263
	H57	H	0.881280	0.591158	0.583045
	H58	H	0.106216	0.410982	0.584377
	H59	H	0.879106	0.413212	0.401587
	H60	H	0.105685	0.411830	0.585733
	H61	H	0.882391	0.589103	0.580243
	H62	H	0.103609	0.586339	0.405761
	H63	H	0.880924	0.407470	0.411275
	H64	H	0.404252	0.590994	0.106744
	H65	H	0.580722	0.586739	0.884319
	H66	H	0.576126	0.406981	0.106905
	H67	H	0.402867	0.410046	0.880734
	H68	H	0.573932	0.110361	0.400736
	H69	H	0.586040	0.885581	0.585226
	H70	H	0.403604	0.112914	0.581635
	H71	H	0.404105	0.886104	0.405610
	H72	H	0.906818	0.611266	0.080578
	H73	H	0.077078	0.388347	0.089307
	H74	H	0.074685	0.612434	0.905599
	H75	H	0.903928	0.390217	0.904812
	H76	H	0.078201	0.916352	0.602103
	H77	H	0.083415	0.087970	0.382089
	H78	H	0.908705	0.089260	0.606018
	H79	H	0.910458	0.913524	0.382608
	H80	H	0.605992	0.093391	0.908930
	H81	H	0.381535	0.087475	0.088705
	H82	H	0.606399	0.914363	0.084218
	H83	H	0.382107	0.912613	0.902725
	H84	H	0.606821	0.910483	0.080055
	H85	H	0.381339	0.093066	0.083875
	H86	H	0.605209	0.085866	0.904146
	H87	H	0.381866	0.909590	0.906687
	H88	H	0.904684	0.088906	0.606513
	H89	H	0.082772	0.093250	0.380369
	H90	H	0.081970	0.906048	0.607871
	H91	H	0.905739	0.912147	0.380839
	H92	H	0.085707	0.613339	0.912508
	H93	H	0.076577	0.394404	0.076365
	H94	H	0.902764	0.614155	0.083202
	H95	H	0.904374	0.389569	0.906197
	H96	H	0.405209	0.114016	0.585846
	H97	H	0.575478	0.889683	0.583022
	H98	H	0.584347	0.109109	0.416926
	H99	H	0.407921	0.886835	0.403997
	H100	H	0.590034	0.412464	0.109567
	H101	H	0.581331	0.591383	0.882771
	H102	H	0.404903	0.584018	0.104554
	H103	H	0.401234	0.410463	0.880610
	H104	H	0.104658	0.590009	0.406113
	H105	H	0.882132	0.587333	0.583535
	H106	H	0.106250	0.410806	0.585847
	H107	H	0.884729	0.418596	0.410103
	H108	H	0.907877	0.612863	0.085539
	H109	H	0.088361	0.387585	0.080745
	H110	H	0.085462	0.618391	0.900081
	H111	H	0.903470	0.388520	0.905627
	H112	H	0.089334	0.915751	0.607138
	H113	H	0.087486	0.090986	0.379294
	H114	H	0.906325	0.085922	0.604311
	H115	H	0.906437	0.917082	0.382655
	H116	H	0.608719	0.093554	0.900771
	H117	H	0.384687	0.086532	0.082044
	H118	H	0.604842	0.915369	0.078596
	H119	H	0.383892	0.913478	0.906832
	C120	C	0.372631	0.008961	0.615714
	C121	C	0.615241	0.991780	0.614481
	C122	C	0.616915	0.009002	0.372193
	C123	C	0.374603	0.991391	0.373650
	C124	C	0.614024	0.380870	0.002421
	C125	C	0.615673	0.622385	0.986342
	C126	C	0.372662	0.621897	0.002317
	C127	C	0.370841	0.378929	0.985347
	C128	C	0.001435	0.622393	0.372900
	C129	C	0.985520	0.622170	0.615224
	C130	C	0.002105	0.378863	0.617056
	C131	C	0.984653	0.380567	0.374135
	C132	C	0.871834	0.509206	0.116086
	C133	C	0.114846	0.493044	0.116909
	C134	C	0.113635	0.510320	0.874164
	C135	C	0.871536	0.493595	0.873128
	C136	C	0.116214	0.879344	0.502028
	C137	C	0.116389	0.122470	0.484912
	C138	C	0.872770	0.122193	0.502641
	C139	C	0.873354	0.879975	0.484756
	C140	C	0.502510	0.121612	0.873137
	C141	C	0.486389	0.122678	0.116493
	C142	C	0.503055	0.879443	0.115203
	C143	C	0.486015	0.878896	0.872516
	C144	C	0.369792	0.890562	0.675914
	C145	C	0.618848	0.109551	0.675914
	C146	C	0.621807	0.892079	0.309063
	C147	C	0.372765	0.110091	0.313611
	C148	C	0.674531	0.377842	0.884411
	C149	C	0.677706	0.627243	0.103613
	C150	C	0.310329	0.626750	0.884984
	C151	C	0.311198	0.377199	0.103661
	C152	C	0.884064	0.684048	0.369624
	C153	C	0.103367	0.683004	0.618236
	C154	C	0.884644	0.317185	0.620124
	C155	C	0.102678	0.320233	0.370883
	C156	C	0.884070	0.375978	0.677454
	C157	C	0.103563	0.624883	0.675801
	C158	C	0.884177	0.626869	0.311137
	C159	C	0.101504	0.376369	0.311235
	C160	C	0.369210	0.683737	0.884540
	C161	C	0.619368	0.684327	0.103787
	C162	C	0.615380	0.321352	0.883834
	C163	C	0.368991	0.319344	0.103885
	C164	C	0.678599	0.891575	0.367380
	C165	C	0.677129	0.109145	0.618513
	C166	C	0.311487	0.890847	0.618716
	C167	C	0.314480	0.109950	0.370703
	C168	C	0.868679	0.390560	0.176352
	C169	C	0.119667	0.610550	0.179562
	C170	C	0.114968	0.391423	0.814786
	C171	C	0.868665	0.612039	0.812624
	C172	C	0.175814	0.877136	0.383411
	C173	C	0.175942	0.123820	0.603447
	C174	C	0.811663	0.125906	0.384749
	C175	C	0.810724	0.874846	0.601854
	C176	C	0.383243	0.179451	0.872289
	C177	C	0.604057	0.183830	0.117453
	C178	C	0.385029	0.818286	0.118720
	C179	C	0.603786	0.818173	0.869413
	C180	C	0.385365	0.876133	0.176542
	C181	C	0.604838	0.125507	0.175236
	C182	C	0.384156	0.122320	0.813502
	C183	C	0.603732	0.876181	0.811641
	C184	C	0.869504	0.184002	0.384871
	C185	C	0.117095	0.180698	0.604227
	C186	C	0.117734	0.819407	0.383576
	C187	C	0.869012	0.818319	0.602352
	C188	C	0.173145	0.391679	0.871911
	C189	C	0.178668	0.609753	0.122940
	C190	C	0.811166	0.390546	0.118167
	C191	C	0.812010	0.612349	0.871644
	C192	C	0.398144	0.091595	0.590524
	C193	C	0.589224	0.909750	0.588371
	C194	C	0.590821	0.090879	0.398782
	C195	C	0.399315	0.908738	0.398878
	C196	C	0.588925	0.406158	0.084810
	C197	C	0.589740	0.596192	0.904502
	C198	C	0.398957	0.595325	0.083762
	C199	C	0.395400	0.403685	0.902443
	C200	C	0.082673	0.595690	0.399398
	C201	C	0.903351	0.596394	0.589647
	C202	C	0.084592	0.404201	0.592385
	C203	C	0.902757	0.406175	0.400075
	C204	C	0.898236	0.591292	0.090738
	C205	C	0.088135	0.411436	0.089950
	C206	C	0.088938	0.593141	0.898999
	C207	C	0.896634	0.410933	0.898278
	C208	C	0.090716	0.904977	0.584146
	C209	C	0.091551	0.097756	0.402158
	C210	C	0.898920	0.095612	0.584202
	C211	C	0.899788	0.906721	0.403357
	C212	C	0.585212	0.097813	0.897624
	C213	C	0.403960	0.096712	0.091844
	C214	C	0.584651	0.905672	0.088703
	C215	C	0.404000	0.904444	0.898089
	Zn216	Zn	0.494491	0.000347	0.743809
	Zn217	Zn	0.495596	0.000315	0.244704
	Zn218	Zn	0.743540	0.501026	-0.005156
	Zn219	Zn	0.242458	0.501712	-0.005700
	Zn220	Zn	-0.006264	0.751704	0.494140
	Zn221	Zn	-0.005734	0.250534	0.494834
	Zn222	Zn	-0.006762	0.502372	0.744980
	Zn223	Zn	-0.007193	0.501030	0.244567
	Zn224	Zn	0.494577	0.750606	-0.005348
	Zn225	Zn	0.492995	0.251289	-0.006048
	Zn226	Zn	0.744661	0.000223	0.493469
	Zn227	Zn	0.244967	0.000371	0.493508
	N228	N	0.407216	0.965059	0.674122
	N229	N	0.580999	0.035421	0.673550
	N230	N	0.584179	0.966237	0.311954
	N231	N	0.409418	0.035429	0.315252
	N232	N	0.673776	0.414171	0.959327
	N233	N	0.675487	0.589460	0.029505
	N234	N	0.312031	0.589354	0.959304
	N235	N	0.311928	0.413395	0.028671
	N236	N	0.958047	0.681526	0.407357
	N237	N	0.028859	0.681709	0.581466
	N238	N	0.959039	0.319041	0.583281
	N239	N	0.029079	0.322528	0.409365
	N240	N	0.958180	0.413802	0.675824
	N241	N	0.029088	0.587898	0.674183
	N242	N	0.958242	0.589393	0.312951
	N243	N	0.027167	0.413182	0.313231
	N244	N	0.407212	0.681042	0.958521
	N245	N	0.581527	0.681553	0.029855
	N246	N	0.578477	0.323050	0.958258
	N247	N	0.405128	0.320126	0.029167
	N248	N	0.675592	0.965363	0.406016
	N249	N	0.675043	0.034795	0.581193
	N250	N	0.313146	0.965621	0.581943
	N251	N	0.315513	0.035146	0.407463
	N252	N	0.905645	0.465434	0.175212
	N253	N	0.080816	0.536840	0.176070
	N254	N	0.078709	0.466294	0.816113
	N255	N	0.904645	0.537036	0.813142
	N256	N	0.175060	0.913447	0.458203
	N257	N	0.175702	0.088318	0.528125
	N258	N	0.813632	0.088162	0.458951
	N259	N	0.813029	0.912450	0.527627
	N260	N	0.457799	0.179074	0.908766
	N261	N	0.529151	0.182397	0.081833
	N262	N	0.459252	0.820068	0.081421
	N263	N	0.529459	0.819666	0.906548
	N264	N	0.459819	0.913306	0.174662
	N265	N	0.530344	0.088596	0.175011
	N266	N	0.459303	0.087215	0.813790
	N267	N	0.529414	0.913021	0.813299
	N268	N	0.906566	0.181968	0.459153
	N269	N	0.080812	0.179911	0.529507
	N270	N	0.081500	0.820556	0.458545
	N271	N	0.907324	0.821297	0.528653
	N272	N	0.172470	0.466667	0.908320
	N273	N	0.175847	0.535766	0.084662
	N274	N	0.812759	0.465435	0.081847
	N275	N	0.813680	0.537592	0.908455
	O276	O	0.479972	0.301056	0.298376
	H277	H	0.468072	0.311012	0.294996
	H278	H	0.481110	0.307803	0.285309
	O279	O	0.654238	0.400165	0.275979
	H280	H	0.674069	0.389517	0.245669
	H281	H	0.636255	0.377007	0.287865
	O282	O	1.027697	0.804704	0.047427
	H283	H	1.022275	0.815087	0.023054
	H284	H	1.058167	0.797286	0.032053
	O285	O	0.605920	0.557886	0.276295
	H286	H	0.610815	0.547784	0.269498
	H287	H	0.609652	0.553510	0.263185
	O288	O	-0.200954	0.174385	-0.008225
	H289	H	-0.200143	0.163341	-0.033041
	H290	H	-0.204881	0.191069	-0.014703
	O291	O	1.163382	1.198514	-0.130728
	H292	H	1.153352	1.204351	-0.108841
	H293	H	1.176758	1.220916	-0.139394
	O294	O	0.210080	0.779855	-0.024575
	H295	H	0.206275	0.779878	-0.057741
	H296	H	0.229975	0.756506	-0.043943
	O297	O	0.423113	0.290041	0.701319
	H298	H	0.430314	0.288693	0.689400
	H299	H	0.427712	0.270258	0.728220
	O300	O	0.503372	0.519769	0.502616
	H301	H	0.513186	0.517128	0.516740
	H302	H	0.493650	0.525437	0.490438
	O303	O	0.452710	0.482393	0.287906
	H304	H	0.444327	0.495052	0.296577
	H305	H	0.447265	0.495827	0.286825
	O306	O	-0.122056	1.221510	1.112531
	H307	H	-0.122640	1.217685	1.115168
	H308	H	-0.131018	1.213179	1.110830
	O309	O	0.655687	0.575098	0.396047
	H310	H	0.648966	0.579768	0.385692
	H311	H	0.661673	0.559517	0.402579
	O312	O	0.319807	0.450773	0.421804
	H313	H	0.318537	0.440714	0.409920
	H314	H	0.335000	0.452493	0.426578
	O315	O	-0.028355	-0.207854	1.198136
	H316	H	-0.016551	-0.216446	1.211333
	H317	H	-0.005553	-0.221729	1.180178
	O318	O	-0.024068	0.972709	-0.004511
	H319	H	-0.022978	0.977458	0.004399
	H320	H	-0.013114	0.971101	0.013971
	O321	O	0.595424	0.488442	0.482065
	H322	H	0.595858	0.516560	0.489449
	H323	H	0.591992	0.491958	0.495681
	O324	O	0.289376	0.322246	0.460439
	H325	H	0.283206	0.308356	0.464594
	H326	H	0.292229	0.312940	0.449984
	O327	O	0.786384	-0.036299	0.963470
	H328	H	0.786001	-0.068718	0.964261
	H329	H	0.790330	-0.037219	0.943842
	O330	O	1.007372	-0.212006	-0.217223
	H331	H	1.003706	-0.224213	-0.211275
	H332	H	1.027400	-0.220366	-0.217735
	O333	O	0.801669	0.855884	1.186465
	H334	H	0.804171	0.884018	1.189678
	H335	H	0.826006	0.850544	1.186239
	O336	O	1.022298	0.210887	0.975903
	H337	H	1.023803	0.214680	0.982464
	H338	H	1.025205	0.210272	0.979139
	O339	O	0.297860	0.525663	0.665444
	H340	H	0.302039	0.511204	0.659960
	H341	H	0.296863	0.518948	0.658508
	O342	O	0.512707	0.722641	0.519733
	H343	H	0.500279	0.724754	0.523763
	H344	H	0.504322	0.724251	0.507968
	O345	O	0.218323	0.220204	0.220258
	H346	H	0.196514	0.206863	0.217205
	H347	H	0.209095	0.196726	0.218727
	O348	O	0.887656	0.033220	0.795623
	H349	H	0.880597	0.047301	0.796020
	H350	H	0.893278	0.029550	0.804331
	O351	O	1.307852	0.685386	0.310780
	H352	H	1.322571	0.669779	0.316292
	H353	H	1.307590	0.663327	0.299967
	O354	O	0.680487	0.309319	0.369067
	H355	H	0.696728	0.302285	0.387490
	H356	H	0.665120	0.306519	0.372867
	O357	O	0.834558	0.845831	0.851754
	H358	H	0.833744	0.839436	0.848509
	H359	H	0.853537	0.838632	0.853295
	O360	O	0.289810	0.510423	0.294332
	H361	H	0.264394	0.507114	0.269274
	H362	H	0.287328	0.486931	0.324742
	O363	O	0.531539	0.474280	0.693352
	H364	H	0.546622	0.488942	0.685063
	H365	H	0.539634	0.472204	0.697933
	O366	O	1.161739	-0.026918	0.799460
	H367	H	1.166572	-0.023398	0.776750
	H368	H	1.152901	-0.013564	0.801161
	O369	O	0.470280	0.291317	0.473141
	H370	H	0.489195	0.290798	0.468878
	H371	H	0.484269	0.289435	0.460022
	O372	O	0.289181	0.347407	0.693851
	H373	H	0.300153	0.341078	0.684293
	H374	H	0.286385	0.354845	0.680397
	O375	O	0.002205	0.912206	1.198388
	H376	H	0.005457	0.921239	1.189792
	H377	H	0.009764	0.891636	1.204632
	O378	O	0.642563	0.648968	0.407496
	H379	H	0.633247	0.642175	0.393249
	H380	H	0.644455	0.656099	0.396679
	O381	O	1.075803	-0.010367	-0.093988
	H382	H	1.061677	-0.015162	-0.101381
	H383	H	1.076903	-0.002678	-0.093858
	O384	O	-0.045541	-0.180615	0.930565
	H385	H	-0.057160	-0.175350	0.940405
	H386	H	-0.062025	-0.165781	0.933913
	O387	O	0.168996	0.817932	0.814338
	H388	H	0.178495	0.832341	0.797036
	H389	H	0.152800	0.832918	0.812507
	O390	O	0.196080	0.026465	0.897586
	H391	H	0.193045	0.021155	0.883993
	H392	H	0.192316	0.042371	0.892787
	O393	O	0.843186	0.850145	0.020005
	H394	H	0.823543	0.833395	0.018107
	H395	H	0.854275	0.860391	0.041754
	O396	O	0.384889	0.624986	0.680893
	H397	H	0.387005	0.593680	0.677969
	H398	H	0.376883	0.615472	0.655550
	O399	O	0.694355	0.705031	0.516903
	H400	H	0.704813	0.726037	0.501241
	H401	H	0.678821	0.695479	0.495682
	O402	O	0.019936	0.166979	0.807556
	H403	H	0.017602	0.172881	0.819301
	H404	H	0.012316	0.167784	0.812381
	O405	O	-0.048842	0.052482	0.200074
	H406	H	-0.047719	0.043682	0.200156
	H407	H	-0.060184	0.053251	0.200124
	O408	O	1.079425	1.073581	1.111031
	H409	H	1.065333	1.082133	1.123000
	H410	H	1.084020	1.058694	1.109237
	O411	O	0.336768	0.573307	0.501452
	H412	H	0.325040	0.575296	0.496661
	H413	H	0.338195	0.554480	0.505244
	O414	O	0.591949	0.447004	0.440550
	H415	H	0.577440	0.441600	0.448694
	H416	H	0.593142	0.450464	0.426421
	O417	O	0.859198	0.212933	0.783793
	H418	H	0.875703	0.235925	0.767695
	H419	H	0.835959	0.188596	0.774323
	O420	O	0.339486	0.417138	0.529654
	H421	H	0.337749	0.398936	0.527063
	H422	H	0.345355	0.413430	0.535560
	O423	O	0.189085	1.016573	0.181733
	H424	H	0.185527	0.994727	0.171348
	H425	H	0.197832	1.007020	0.180333
	O426	O	0.826063	1.088146	0.797959
	H427	H	0.827310	1.072190	0.796610
	H428	H	0.812970	1.095741	0.780170
	O429	O	0.457123	0.712592	0.323499
	H430	H	0.462598	0.698081	0.331972
	H431	H	0.454044	0.734360	0.296995
	O432	O	0.608371	0.290964	0.603382
	H433	H	0.620200	0.315815	0.590365
	H434	H	0.607345	0.287015	0.603130
	O435	O	-0.012167	0.136933	0.069876
	H436	H	-0.026792	0.137400	0.081695
	H437	H	-0.035616	0.130515	0.063636
	O438	O	1.203932	-0.053171	0.048249
	H439	H	1.206930	-0.042409	0.026305
	H440	H	1.207915	-0.057250	0.021348
	O441	O	0.623509	0.281432	0.542276
	H442	H	0.648638	0.284992	0.535362
	H443	H	0.640050	0.286020	0.545413
	O444	O	0.147875	1.209349	1.075921
	H445	H	0.147345	1.221374	1.084975
	H446	H	0.147723	1.209728	1.094136
	O447	O	0.684581	0.689325	0.679256
	H448	H	0.673361	0.697241	0.646358
	H449	H	0.650796	0.699240	0.669315
	O450	O	0.275022	0.721002	0.468100
	H451	H	0.274870	0.713086	0.437597
	H452	H	0.252179	0.743266	0.470667
	O453	O	0.513572	0.676524	0.696810
	H454	H	0.497907	0.671232	0.709487
	H455	H	0.502416	0.685807	0.700011
	O456	O	0.813110	0.034723	0.173560
	H457	H	0.801441	0.023342	0.180618
	H458	H	0.795948	0.045002	0.154755
	O459	O	0.566266	0.460679	0.654805
	H460	H	0.568327	0.466699	0.666485
	H461	H	0.572445	0.470199	0.650067
	O462	O	0.719299	0.528732	0.713728
	H463	H	0.740915	0.547587	0.738147
	H464	H	0.716755	0.565861	0.716334
	O465	O	0.778714	0.121182	0.048631
	H466	H	0.778513	0.130260	0.027933
	H467	H	0.773614	0.108034	0.022561
