data_Molecule from HDF5

_cell_length_a		16.349960
_cell_length_b		16.450164
_cell_length_c		16.186967
_cell_angle_alpha	90.250503
_cell_angle_beta	90.218533
_cell_angle_gamma	90.015553
_symmetry_space_group_name_H-M	'P 1'
_symmetry_Int_Tables_number		1

loop_
	_symmetry_equiv_pos_as_xyz
	x,y,z

loop_
	_atom_site_label
	_atom_site_type_symbol
	_atom_site_fract_x
	_atom_site_fract_y
	_atom_site_fract_z
	H0	H	0.396960	0.838168	0.721850
	H1	H	0.599236	0.159665	0.723746
	H2	H	0.598793	0.837665	0.284835
	H3	H	0.397278	0.160105	0.289809
	H4	H	0.710837	0.396576	0.840270
	H5	H	0.715761	0.600029	0.167150
	H6	H	0.281168	0.597484	0.840949
	H7	H	0.281892	0.399337	0.167973
	H8	H	0.837090	0.717661	0.396941
	H9	H	0.157503	0.717844	0.608534
	H10	H	0.835878	0.277838	0.607127
	H11	H	0.157159	0.276020	0.399798
	H12	H	0.833943	0.398215	0.718207
	H13	H	0.160102	0.597609	0.720262
	H14	H	0.834964	0.595773	0.287182
	H15	H	0.159517	0.396742	0.287703
	H16	H	0.394501	0.715036	0.842353
	H17	H	0.602908	0.717762	0.166681
	H18	H	0.598252	0.279323	0.842208
	H19	H	0.396198	0.282379	0.168121
	H20	H	0.715536	0.837396	0.400131
	H21	H	0.718764	0.157709	0.610479
	H22	H	0.277373	0.838711	0.610368
	H23	H	0.278499	0.159110	0.404044
	H24	H	0.897448	0.335699	0.218010
	H25	H	0.097126	0.658977	0.221423
	H26	H	0.095690	0.336269	0.786817
	H27	H	0.897912	0.659515	0.788254
	H28	H	0.214690	0.895179	0.341524
	H29	H	0.215419	0.100347	0.667290
	H30	H	0.779288	0.097229	0.340572
	H31	H	0.782491	0.897780	0.667449
	H32	H	0.336226	0.215322	0.901907
	H33	H	0.658769	0.217669	0.109942
	H34	H	0.337331	0.778813	0.109020
	H35	H	0.657411	0.777727	0.900644
	H36	H	0.334781	0.899941	0.219212
	H37	H	0.660287	0.096529	0.221149
	H38	H	0.335772	0.098100	0.787891
	H39	H	0.659603	0.898431	0.789091
	H40	H	0.893583	0.214166	0.340425
	H41	H	0.100558	0.216564	0.666756
	H42	H	0.101185	0.778634	0.341237
	H43	H	0.894436	0.779257	0.665147
	H44	H	0.214454	0.337307	0.901406
	H45	H	0.216398	0.658169	0.108871
	H46	H	0.777892	0.337170	0.105678
	H47	H	0.777495	0.658558	0.901294
	H48	H	0.400706	0.113112	0.591824
	H49	H	0.587448	0.883089	0.600490
	H50	H	0.586760	0.113577	0.409030
	H51	H	0.402428	0.881940	0.408411
	H52	H	0.588661	0.412027	0.118491
	H53	H	0.582341	0.581248	0.893285
	H54	H	0.407252	0.591924	0.121449
	H55	H	0.404158	0.398835	0.886050
	H56	H	0.113548	0.588596	0.411079
	H57	H	0.885996	0.586378	0.587831
	H58	H	0.115130	0.395234	0.594822
	H59	H	0.883859	0.407803	0.412386
	H60	H	0.107663	0.409440	0.584719
	H61	H	0.882038	0.585983	0.599052
	H62	H	0.112269	0.592513	0.416264
	H63	H	0.880958	0.403996	0.409338
	H64	H	0.404682	0.588325	0.120343
	H65	H	0.581429	0.597049	0.887747
	H66	H	0.584305	0.404568	0.120376
	H67	H	0.401195	0.410650	0.888233
	H68	H	0.581986	0.108481	0.419582
	H69	H	0.586708	0.887063	0.592102
	H70	H	0.405935	0.114149	0.601957
	H71	H	0.409487	0.885312	0.412915
	H72	H	0.905279	0.610353	0.089727
	H73	H	0.091644	0.381476	0.101314
	H74	H	0.091844	0.611996	0.914008
	H75	H	0.902947	0.382604	0.907289
	H76	H	0.088773	0.920069	0.616215
	H77	H	0.075850	0.084679	0.393213
	H78	H	0.896861	0.091689	0.623529
	H79	H	0.896275	0.914564	0.386748
	H80	H	0.612054	0.093357	0.918721
	H81	H	0.384212	0.089478	0.095416
	H82	H	0.610616	0.903848	0.087287
	H83	H	0.383025	0.909608	0.912758
	H84	H	0.610227	0.914527	0.096036
	H85	H	0.381224	0.092396	0.099450
	H86	H	0.611487	0.086690	0.916427
	H87	H	0.381481	0.903461	0.913801
	H88	H	0.908594	0.079971	0.616154
	H89	H	0.089606	0.097970	0.384807
	H90	H	0.075277	0.902107	0.617245
	H91	H	0.917298	0.911769	0.393207
	H92	H	0.089375	0.613557	0.910414
	H93	H	0.083918	0.386087	0.092597
	H94	H	0.902478	0.613669	0.097420
	H95	H	0.907104	0.384374	0.912684
	H96	H	0.411153	0.109675	0.593223
	H97	H	0.594791	0.883544	0.594682
	H98	H	0.594106	0.111927	0.419307
	H99	H	0.401655	0.884624	0.416430
	H100	H	0.593072	0.405020	0.122706
	H101	H	0.595833	0.587737	0.885748
	H102	H	0.408955	0.588211	0.119776
	H103	H	0.413107	0.406861	0.890854
	H104	H	0.110224	0.586043	0.416443
	H105	H	0.880716	0.595867	0.593121
	H106	H	0.111950	0.412114	0.602516
	H107	H	0.882626	0.402984	0.414852
	H108	H	0.911052	0.610477	0.096953
	H109	H	0.095769	0.383271	0.089225
	H110	H	0.087486	0.611430	0.914019
	H111	H	0.899851	0.383445	0.913680
	H112	H	0.096770	0.901004	0.624899
	H113	H	0.095083	0.078148	0.388739
	H114	H	0.914184	0.097327	0.619968
	H115	H	0.905751	0.895110	0.382724
	H116	H	0.613956	0.091471	0.911946
	H117	H	0.381331	0.094841	0.094571
	H118	H	0.615504	0.902540	0.100791
	H119	H	0.384685	0.906418	0.917918
	C120	C	0.375500	0.006724	0.626797
	C121	C	0.620100	0.990285	0.627169
	C122	C	0.618015	0.005579	0.384031
	C123	C	0.374701	0.990283	0.382876
	C124	C	0.618117	0.376739	0.012813
	C125	C	0.618189	0.619444	0.996401
	C126	C	0.376591	0.619002	0.013081
	C127	C	0.376292	0.376518	0.996260
	C128	C	0.005620	0.618974	0.382453
	C129	C	0.989312	0.619497	0.624855
	C130	C	0.004854	0.375817	0.624679
	C131	C	0.988923	0.374847	0.381789
	C132	C	0.875984	0.505213	0.124444
	C133	C	0.119818	0.489667	0.125454
	C134	C	0.118890	0.506180	0.882242
	C135	C	0.874112	0.489588	0.881277
	C136	C	0.118369	0.876420	0.512362
	C137	C	0.117797	0.118359	0.496286
	C138	C	0.875446	0.119387	0.512134
	C139	C	0.876370	0.876817	0.495153
	C140	C	0.506041	0.120038	0.884298
	C141	C	0.489127	0.121411	0.127243
	C142	C	0.505887	0.877079	0.125434
	C143	C	0.489199	0.876127	0.883433
	C144	C	0.376667	0.886164	0.684041
	C145	C	0.619417	0.111110	0.685207
	C146	C	0.617999	0.885430	0.324849
	C147	C	0.376484	0.111596	0.327387
	C148	C	0.673515	0.377154	0.889613
	C149	C	0.676567	0.619247	0.118498
	C150	C	0.319296	0.617920	0.890106
	C151	C	0.319445	0.378570	0.118809
	C152	C	0.884965	0.677459	0.379704
	C153	C	0.109848	0.677932	0.626764
	C154	C	0.883970	0.317556	0.625465
	C155	C	0.109634	0.316246	0.381375
	C156	C	0.883084	0.377527	0.680908
	C157	C	0.111081	0.617965	0.682421
	C158	C	0.883883	0.616894	0.324941
	C159	C	0.110825	0.376098	0.325499
	C160	C	0.375904	0.676038	0.890800
	C161	C	0.620446	0.678273	0.118133
	C162	C	0.617418	0.318719	0.890429
	C163	C	0.376598	0.320536	0.119134
	C164	C	0.676283	0.885371	0.382264
	C165	C	0.679039	0.110332	0.628892
	C166	C	0.317139	0.886640	0.628098
	C167	C	0.317327	0.110908	0.384140
	C168	C	0.877264	0.384099	0.180573
	C169	C	0.118020	0.610580	0.183248
	C170	C	0.116412	0.384726	0.825124
	C171	C	0.876616	0.611094	0.825534
	C172	C	0.176095	0.876063	0.390224
	C173	C	0.176019	0.119163	0.618643
	C174	C	0.817517	0.118117	0.389389
	C175	C	0.820306	0.877662	0.618011
	C176	C	0.384696	0.176903	0.883240
	C177	C	0.610562	0.178335	0.128584
	C178	C	0.384925	0.818984	0.126795
	C179	C	0.609772	0.817781	0.882128
	C180	C	0.383705	0.879152	0.181712
	C181	C	0.611351	0.118193	0.183825
	C182	C	0.384417	0.118455	0.826314
	C183	C	0.610943	0.878091	0.826788
	C184	C	0.874485	0.175925	0.389433
	C185	C	0.119134	0.177255	0.618206
	C186	C	0.119258	0.818187	0.390029
	C187	C	0.876404	0.818944	0.617042
	C188	C	0.175801	0.385404	0.881835
	C189	C	0.177221	0.610348	0.126985
	C190	C	0.817785	0.385049	0.124209
	C191	C	0.817231	0.610573	0.882194
	C192	C	0.399038	0.090491	0.602589
	C193	C	0.596504	0.906531	0.602883
	C194	C	0.594338	0.089448	0.408826
	C195	C	0.397873	0.905821	0.405816
	C196	C	0.595363	0.400364	0.098342
	C197	C	0.593519	0.595613	0.911135
	C198	C	0.400199	0.596002	0.098488
	C199	C	0.399450	0.399017	0.910615
	C200	C	0.089892	0.595578	0.407254
	C201	C	0.904764	0.596227	0.600313
	C202	C	0.089752	0.398819	0.600878
	C203	C	0.904525	0.398284	0.405232
	C204	C	0.899529	0.589630	0.101482
	C205	C	0.097042	0.405330	0.101360
	C206	C	0.096275	0.590395	0.905855
	C207	C	0.896666	0.405334	0.904326
	C208	C	0.093937	0.900503	0.597501
	C209	C	0.093664	0.094017	0.411022
	C210	C	0.899564	0.096470	0.597637
	C211	C	0.899629	0.900158	0.409747
	C212	C	0.590642	0.097145	0.908840
	C213	C	0.404485	0.098771	0.103436
	C214	C	0.590206	0.900130	0.101714
	C215	C	0.404920	0.899657	0.907832
	Zn216	Zn	0.497603	-0.001390	0.755620
	Zn217	Zn	0.497314	-0.001529	0.254145
	Zn218	Zn	0.745649	0.497977	0.003873
	Zn219	Zn	0.248688	0.498495	0.003858
	Zn220	Zn	-0.002504	0.748486	0.503140
	Zn221	Zn	-0.003277	0.246498	0.503858
	Zn222	Zn	-0.003010	0.497811	0.752982
	Zn223	Zn	-0.002122	0.497088	0.253749
	Zn224	Zn	0.496726	0.747516	0.004955
	Zn225	Zn	0.497838	0.248927	0.005276
	Zn226	Zn	0.748353	-0.002202	0.504137
	Zn227	Zn	0.246159	-0.002300	0.505018
	N228	N	0.412208	0.961848	0.683500
	N229	N	0.583562	0.035519	0.684382
	N230	N	0.582243	0.961051	0.326178
	N231	N	0.411096	0.035402	0.326043
	N232	N	0.674221	0.412507	0.966774
	N233	N	0.675326	0.583669	0.041683
	N234	N	0.319634	0.583109	0.967182
	N235	N	0.319012	0.412603	0.041363
	N236	N	0.961577	0.678801	0.414946
	N237	N	0.033151	0.679021	0.591760
	N238	N	0.960860	0.316442	0.591140
	N239	N	0.032772	0.315213	0.415494
	N240	N	0.959297	0.412939	0.680607
	N241	N	0.034949	0.582381	0.681339
	N242	N	0.959865	0.581045	0.326544
	N243	N	0.034914	0.411814	0.325636
	N244	N	0.410769	0.676742	0.968195
	N245	N	0.584917	0.678573	0.040924
	N246	N	0.583758	0.318364	0.968046
	N247	N	0.411179	0.319281	0.041887
	N248	N	0.676313	0.961166	0.418642
	N249	N	0.679710	0.034216	0.593492
	N250	N	0.316314	0.962586	0.593212
	N251	N	0.316055	0.034318	0.417722
	N252	N	0.912821	0.459952	0.180843
	N253	N	0.083029	0.534668	0.182449
	N254	N	0.081814	0.460801	0.825225
	N255	N	0.911144	0.534928	0.824633
	N256	N	0.175621	0.911694	0.467263
	N257	N	0.175340	0.083429	0.541811
	N258	N	0.817948	0.083776	0.466746
	N259	N	0.820232	0.912992	0.541146
	N260	N	0.461346	0.177962	0.918582
	N261	N	0.533633	0.180399	0.094084
	N262	N	0.461747	0.817646	0.092398
	N263	N	0.533077	0.816403	0.916529
	N264	N	0.459787	0.914689	0.181036
	N265	N	0.534789	0.083463	0.182984
	N266	N	0.460804	0.083661	0.826994
	N267	N	0.534916	0.913681	0.827429
	N268	N	0.909624	0.176815	0.466722
	N269	N	0.083363	0.176690	0.541176
	N270	N	0.084143	0.818249	0.467206
	N271	N	0.910369	0.818223	0.539507
	N272	N	0.177559	0.461824	0.916477
	N273	N	0.178600	0.533994	0.091847
	N274	N	0.816882	0.461511	0.090398
	N275	N	0.815509	0.534123	0.916102
	O276	O	-0.094798	-0.018677	-0.145306
	H277	H	-0.094275	-0.014652	-0.151597
	H278	H	-0.093120	-0.024686	-0.151766
	O279	O	0.647901	0.664597	0.534739
	H280	H	0.643164	0.658899	0.528529
	H281	H	0.631286	0.658202	0.532141
	O282	O	2.120995	1.101131	1.144736
	H283	H	2.128508	1.110129	1.145688
	H284	H	2.122403	1.106774	1.140226
	O285	O	-0.460319	0.441270	0.432081
	H286	H	-0.461255	0.459086	0.436826
	H287	H	-0.479112	0.448491	0.428457
	O288	O	0.594285	0.391298	0.562764
	H289	H	0.608656	0.368683	0.565214
	H290	H	0.600437	0.412078	0.578274
	O291	O	0.686769	0.454256	0.412158
	H292	H	0.701972	0.447698	0.414577
	H293	H	0.681076	0.456929	0.386616
	O294	O	0.902555	0.951445	0.991249
	H295	H	0.917509	0.952336	0.996978
	H296	H	0.905193	0.958240	0.977787
	O297	O	0.017860	0.106790	-0.026445
	H298	H	0.023558	0.099689	-0.025724
	H299	H	0.012334	0.112503	-0.030384
	O300	O	0.481025	0.595491	0.479241
	H301	H	0.491463	0.579988	0.485929
	H302	H	0.477688	0.590335	0.499228
	O303	O	-0.062447	0.947942	1.012840
	H304	H	-0.050153	0.952604	1.016156
	H305	H	-0.076973	0.934803	1.012923
	O306	O	0.500823	0.567132	0.390288
	H307	H	0.491549	0.572985	0.380857
	H308	H	0.517675	0.572729	0.394605
	O309	O	1.535441	0.607511	-0.492266
	H310	H	1.538486	0.613499	-0.473493
	H311	H	1.535173	0.613846	-0.486469
	O312	O	-0.050662	0.082507	0.958300
	H313	H	-0.049641	0.093950	0.952657
	H314	H	-0.044735	0.079779	0.952165
	O315	O	0.074271	1.068916	-0.063288
	H316	H	0.075362	1.077247	-0.068795
	H317	H	0.086685	1.048086	-0.054090
	O318	O	0.560849	0.597150	0.384499
	H319	H	0.572683	0.608564	0.384311
	H320	H	0.548113	0.595269	0.382891
	O321	O	0.428943	0.535050	0.460705
	H322	H	0.425542	0.549330	0.456538
	H323	H	0.411742	0.530061	0.463330
	O324	O	0.388864	0.465406	0.339604
	H325	H	0.393555	0.468421	0.342546
	H326	H	0.386529	0.452962	0.346528
	O327	O	0.562319	0.546079	0.644438
	H328	H	0.555372	0.555707	0.639218
	H329	H	0.556865	0.552611	0.643201
	O330	O	0.516835	0.441202	0.388422
	H331	H	0.518116	0.443914	0.385757
	H332	H	0.514446	0.449047	0.384150
	O333	O	-0.136696	0.916953	1.086072
	H334	H	-0.138083	0.908510	1.094469
	H335	H	-0.144105	0.933826	1.077548
	O336	O	0.986402	0.937271	0.933709
	H337	H	0.993707	0.931962	0.940822
	H338	H	0.977405	0.936589	0.928279
	O339	O	0.304222	0.658024	0.447235
	H340	H	0.302060	0.659925	0.445785
	H341	H	0.292517	0.650090	0.445009
	O342	O	0.922006	-0.035313	0.014072
	H343	H	0.912322	-0.045203	0.009458
	H344	H	0.936629	-0.033958	0.012320
	O345	O	0.514456	0.486031	0.428002
	H346	H	0.519125	0.474195	0.432136
	H347	H	0.526555	0.487612	0.437114
	O348	O	1.069159	1.048741	0.929285
	H349	H	1.077390	1.049665	0.936809
	H350	H	1.079012	1.042476	0.927107
	O351	O	1.109652	0.851179	-0.119445
	H352	H	1.120348	0.844189	-0.102076
	H353	H	1.114383	0.844761	-0.118229
	O354	O	0.394204	0.513900	0.637148
	H355	H	0.391534	0.508741	0.644961
	H356	H	0.390662	0.495742	0.637325
	O357	O	-0.031826	-0.047721	0.111722
	H358	H	-0.036524	-0.051775	0.115395
	H359	H	-0.041034	-0.032941	0.103963
	O360	O	-0.011333	0.166206	0.001038
	H361	H	-0.025062	0.175905	0.009098
	H362	H	0.004965	0.176434	-0.018339
	O363	O	0.433742	0.392122	0.430536
	H364	H	0.434628	0.386273	0.441505
	H365	H	0.445902	0.388517	0.450745
	O366	O	-0.007616	0.073071	0.144570
	H367	H	0.005115	0.078200	0.141309
	H368	H	-0.011278	0.078402	0.148627
	O369	O	0.426023	0.335076	0.492392
	H370	H	0.429860	0.340533	0.486203
	H371	H	0.431060	0.332249	0.477946
	O372	O	0.457718	0.411785	0.476563
	H373	H	0.460325	0.417361	0.469969
	H374	H	0.468007	0.411387	0.483356
	O375	O	0.476701	0.563525	0.536630
	H376	H	0.471661	0.562876	0.527371
	H377	H	0.469814	0.559353	0.538051
	O378	O	0.550650	0.407727	0.673319
	H379	H	0.557471	0.402915	0.671463
	H380	H	0.546530	0.398325	0.668172
	O381	O	0.434779	0.350642	0.590036
	H382	H	0.449788	0.341892	0.590628
	H383	H	0.441652	0.356541	0.588815
	O384	O	0.112614	1.003410	0.021280
	H385	H	0.114367	1.002612	0.021485
	H386	H	0.103252	1.000110	0.018911
	O387	O	1.120300	-0.064686	0.921066
	H388	H	1.125823	-0.061912	0.936832
	H389	H	1.127200	-0.075325	0.914378
	O390	O	-0.027227	1.015692	0.053236
	H391	H	-0.026543	1.027995	0.051682
	H392	H	-0.038349	1.017157	0.044006
	O393	O	1.025130	1.013047	0.015853
	H394	H	1.016033	1.018914	0.020036
	H395	H	1.020858	1.015169	0.021301
	O396	O	0.562972	0.524750	0.659632
	H397	H	0.572503	0.533799	0.651894
	H398	H	0.562332	0.532671	0.655717
	O399	O	0.134909	0.937438	0.855461
	H400	H	0.142737	0.928110	0.861342
	H401	H	0.137819	0.941096	0.866859
	O402	O	0.973082	0.853784	1.064565
	H403	H	0.957796	0.859875	1.066394
	H404	H	0.960129	0.861999	1.057819
	O405	O	0.518355	0.518747	0.633530
	H406	H	0.522627	0.536831	0.621497
	H407	H	0.525491	0.518816	0.645582
