data_Molecule from HDF5

_cell_length_a		16.132258
_cell_length_b		16.368156
_cell_length_c		16.349161
_cell_angle_alpha	90.131052
_cell_angle_beta	89.777723
_cell_angle_gamma	89.924836
_symmetry_space_group_name_H-M	'P 1'
_symmetry_Int_Tables_number		1

loop_
	_symmetry_equiv_pos_as_xyz
	x,y,z

loop_
	_atom_site_label
	_atom_site_type_symbol
	_atom_site_fract_x
	_atom_site_fract_y
	_atom_site_fract_z
	H0	H	0.397092	0.845609	0.717844
	H1	H	0.599430	0.169477	0.717485
	H2	H	0.601239	0.845098	0.282165
	H3	H	0.396968	0.168500	0.283644
	H4	H	0.714937	0.410450	0.834780
	H5	H	0.716131	0.606088	0.162055
	H6	H	0.289770	0.604285	0.833942
	H7	H	0.287110	0.413870	0.162083
	H8	H	0.835171	0.721267	0.399329
	H9	H	0.163018	0.723082	0.597877
	H10	H	0.835085	0.295074	0.600203
	H11	H	0.162413	0.288603	0.395671
	H12	H	0.838693	0.406365	0.717701
	H13	H	0.166193	0.606370	0.709604
	H14	H	0.837653	0.609640	0.280764
	H15	H	0.165529	0.407451	0.284220
	H16	H	0.402298	0.723365	0.835819
	H17	H	0.602570	0.725427	0.161149
	H18	H	0.604756	0.288026	0.838328
	H19	H	0.399563	0.294233	0.162216
	H20	H	0.714280	0.843907	0.402086
	H21	H	0.713343	0.169735	0.599689
	H22	H	0.284086	0.843726	0.598751
	H23	H	0.284817	0.170244	0.403767
	H24	H	0.899929	0.345438	0.215893
	H25	H	0.103403	0.669440	0.215423
	H26	H	0.104720	0.345923	0.779852
	H27	H	0.902246	0.669539	0.781804
	H28	H	0.213920	0.908768	0.337260
	H29	H	0.210596	0.105603	0.663944
	H30	H	0.782312	0.106022	0.337394
	H31	H	0.785004	0.910067	0.663427
	H32	H	0.335786	0.224072	0.901860
	H33	H	0.664811	0.222550	0.100455
	H34	H	0.335691	0.793844	0.098489
	H35	H	0.665218	0.794278	0.897984
	H36	H	0.334759	0.909532	0.212775
	H37	H	0.663713	0.107578	0.216571
	H38	H	0.334120	0.106759	0.788420
	H39	H	0.663832	0.908758	0.783004
	H40	H	0.894912	0.225765	0.338112
	H41	H	0.100003	0.227006	0.660591
	H42	H	0.101038	0.789333	0.338253
	H43	H	0.894613	0.789002	0.660613
	H44	H	0.216555	0.344547	0.900261
	H45	H	0.212637	0.672517	0.092420
	H46	H	0.786442	0.344412	0.097077
	H47	H	0.786315	0.670524	0.898996
	H48	H	0.401840	0.124880	0.599086
	H49	H	0.583518	0.893946	0.593992
	H50	H	0.590865	0.121358	0.409682
	H51	H	0.400772	0.887925	0.403491
	H52	H	0.592950	0.423193	0.112572
	H53	H	0.592260	0.609235	0.881627
	H54	H	0.405905	0.605179	0.115335
	H55	H	0.412745	0.420235	0.886095
	H56	H	0.116949	0.594892	0.405551
	H57	H	0.884838	0.594558	0.586355
	H58	H	0.115784	0.420550	0.587692
	H59	H	0.883548	0.407916	0.416652
	H60	H	0.119650	0.414069	0.591209
	H61	H	0.882446	0.595220	0.597452
	H62	H	0.118852	0.602773	0.403526
	H63	H	0.887732	0.429818	0.407111
	H64	H	0.406793	0.599501	0.113423
	H65	H	0.600980	0.599993	0.882068
	H66	H	0.587009	0.410467	0.113456
	H67	H	0.416557	0.408740	0.882602
	H68	H	0.589420	0.122185	0.405906
	H69	H	0.593648	0.892478	0.587699
	H70	H	0.409677	0.121614	0.596104
	H71	H	0.413445	0.891881	0.402012
	H72	H	0.911259	0.624022	0.095199
	H73	H	0.090439	0.392739	0.094173
	H74	H	0.093541	0.623656	0.902318
	H75	H	0.911081	0.392614	0.904473
	H76	H	0.096765	0.914995	0.617428
	H77	H	0.098517	0.107365	0.379403
	H78	H	0.905906	0.109811	0.617709
	H79	H	0.905270	0.907081	0.381777
	H80	H	0.617128	0.098301	0.908023
	H81	H	0.379396	0.108370	0.095767
	H82	H	0.616237	0.922850	0.091996
	H83	H	0.379880	0.913326	0.901353
	H84	H	0.620547	0.913480	0.096736
	H85	H	0.384922	0.101667	0.085326
	H86	H	0.616376	0.099297	0.908832
	H87	H	0.382274	0.908489	0.913768
	H88	H	0.900185	0.095909	0.615367
	H89	H	0.093595	0.087232	0.386925
	H90	H	0.085431	0.919759	0.613136
	H91	H	0.902270	0.920187	0.384527
	H92	H	0.097328	0.624013	0.904082
	H93	H	0.094382	0.393654	0.085968
	H94	H	0.914615	0.620047	0.087441
	H95	H	0.912203	0.393140	0.906372
	H96	H	0.402429	0.122130	0.589957
	H97	H	0.593541	0.888585	0.599190
	H98	H	0.587108	0.120645	0.408579
	H99	H	0.406887	0.893111	0.413583
	H100	H	0.600853	0.412296	0.117579
	H101	H	0.589012	0.597523	0.885539
	H102	H	0.411058	0.603624	0.114502
	H103	H	0.404351	0.412343	0.881002
	H104	H	0.116491	0.600876	0.411766
	H105	H	0.880639	0.605023	0.591199
	H106	H	0.117436	0.413259	0.583494
	H107	H	0.877366	0.411876	0.393670
	H108	H	0.905880	0.622718	0.087749
	H109	H	0.098679	0.389681	0.092822
	H110	H	0.096755	0.625003	0.900930
	H111	H	0.909630	0.391768	0.906536
	H112	H	0.086211	0.906974	0.616826
	H113	H	0.078085	0.103352	0.387387
	H114	H	0.914599	0.099318	0.611613
	H115	H	0.915029	0.915604	0.386887
	H116	H	0.615465	0.097503	0.908935
	H117	H	0.383229	0.095305	0.097282
	H118	H	0.616230	0.912985	0.085502
	H119	H	0.384966	0.921565	0.911368
	C120	C	0.375457	0.015718	0.623552
	C121	C	0.619642	0.999036	0.622553
	C122	C	0.619976	0.014674	0.378535
	C123	C	0.377088	0.998306	0.378187
	C124	C	0.623628	0.385308	0.007415
	C125	C	0.623670	0.630869	0.990633
	C126	C	0.379652	0.630337	0.006629
	C127	C	0.380698	0.386709	0.990706
	C128	C	0.008925	0.628648	0.377434
	C129	C	0.991366	0.628036	0.619697
	C130	C	0.009312	0.386758	0.618478
	C131	C	0.991453	0.386250	0.376561
	C132	C	0.880146	0.515274	0.119903
	C133	C	0.123124	0.499772	0.119368
	C134	C	0.125293	0.516319	0.874287
	C135	C	0.881112	0.499621	0.876648
	C136	C	0.120148	0.884670	0.508825
	C137	C	0.119469	0.129022	0.491747
	C138	C	0.876395	0.130291	0.508090
	C139	C	0.877277	0.885353	0.491379
	C140	C	0.508049	0.128447	0.879923
	C141	C	0.491166	0.130234	0.122348
	C142	C	0.508685	0.887299	0.120040
	C143	C	0.491424	0.886353	0.878569
	C144	C	0.377086	0.893774	0.679421
	C145	C	0.618724	0.121010	0.678939
	C146	C	0.620341	0.893308	0.321323
	C147	C	0.377457	0.120257	0.322067
	C148	C	0.678481	0.388500	0.884407
	C149	C	0.678789	0.627464	0.113102
	C150	C	0.326416	0.625709	0.883267
	C151	C	0.324854	0.391663	0.113637
	C152	C	0.884809	0.683929	0.379025
	C153	C	0.114479	0.684845	0.617927
	C154	C	0.885001	0.332027	0.619097
	C155	C	0.114073	0.328159	0.376955
	C156	C	0.886645	0.387433	0.677664
	C157	C	0.115929	0.626695	0.673390
	C158	C	0.885900	0.628072	0.320256
	C159	C	0.115767	0.387380	0.321679
	C160	C	0.382248	0.685100	0.884313
	C161	C	0.622118	0.686787	0.112691
	C162	C	0.623437	0.328010	0.885995
	C163	C	0.380816	0.332366	0.113664
	C164	C	0.676065	0.892403	0.381417
	C165	C	0.675675	0.121095	0.620470
	C166	C	0.321014	0.892889	0.620026
	C167	C	0.322178	0.121200	0.382338
	C168	C	0.880650	0.393773	0.176780
	C169	C	0.122397	0.621482	0.176028
	C170	C	0.124396	0.394351	0.818258
	C171	C	0.882093	0.621347	0.820380
	C172	C	0.176426	0.887469	0.386271
	C173	C	0.173813	0.126597	0.614567
	C174	C	0.820052	0.127313	0.386125
	C175	C	0.822039	0.888699	0.614437
	C176	C	0.384615	0.185262	0.882030
	C177	C	0.615364	0.185252	0.120827
	C178	C	0.384857	0.831722	0.118517
	C179	C	0.615645	0.831647	0.878749
	C180	C	0.384211	0.889297	0.175162
	C181	C	0.614682	0.128189	0.178491
	C182	C	0.383783	0.126898	0.825620
	C183	C	0.615004	0.888580	0.821557
	C184	C	0.875964	0.186982	0.386425
	C185	C	0.118983	0.187217	0.612789
	C186	C	0.120183	0.828304	0.386677
	C187	C	0.876526	0.828365	0.612884
	C188	C	0.179992	0.393655	0.878297
	C189	C	0.176670	0.622996	0.114835
	C190	C	0.824220	0.393206	0.117624
	C191	C	0.824563	0.621901	0.878698
	C192	C	0.398167	0.100720	0.601498
	C193	C	0.597065	0.913727	0.600255
	C194	C	0.596312	0.099516	0.401360
	C195	C	0.400348	0.913115	0.399749
	C196	C	0.600296	0.408442	0.092567
	C197	C	0.600884	0.608704	0.905224
	C198	C	0.401286	0.609126	0.092314
	C199	C	0.404519	0.407676	0.905458
	C200	C	0.095115	0.606063	0.400310
	C201	C	0.904958	0.604972	0.597893
	C202	C	0.095178	0.409333	0.594293
	C203	C	0.905201	0.409713	0.399243
	C204	C	0.903640	0.600138	0.096910
	C205	C	0.101029	0.414271	0.097559
	C206	C	0.102676	0.601921	0.896052
	C207	C	0.904273	0.414658	0.899264
	C208	C	0.096265	0.907062	0.593821
	C209	C	0.096811	0.106017	0.406745
	C210	C	0.899925	0.108183	0.592862
	C211	C	0.900617	0.907730	0.406445
	C212	C	0.594079	0.105322	0.902019
	C213	C	0.404955	0.108292	0.099562
	C214	C	0.595189	0.909685	0.097848
	C215	C	0.404803	0.908122	0.902004
	Zn216	Zn	0.498311	0.007610	0.751665
	Zn217	Zn	0.499125	0.007170	0.248701
	Zn218	Zn	0.751475	0.507661	-0.001560
	Zn219	Zn	0.251993	0.508040	-0.002223
	Zn220	Zn	-0.001562	0.756181	0.499567
	Zn221	Zn	-0.001313	0.259222	0.498746
	Zn222	Zn	0.002294	0.507219	0.746605
	Zn223	Zn	0.001593	0.507945	0.249267
	Zn224	Zn	0.501060	0.759561	-0.000769
	Zn225	Zn	0.501049	0.257305	0.000240
	Zn226	Zn	0.748736	0.006853	0.500550
	Zn227	Zn	0.248280	0.006937	0.500832
	N228	N	0.410525	0.971126	0.681719
	N229	N	0.584612	0.044065	0.680371
	N230	N	0.586079	0.970315	0.319608
	N231	N	0.410917	0.042816	0.319180
	N232	N	0.678740	0.423399	0.960970
	N233	N	0.679605	0.593285	0.036348
	N234	N	0.324898	0.592138	0.960296
	N235	N	0.324569	0.424443	0.036381
	N236	N	0.962339	0.684461	0.413998
	N237	N	0.036010	0.685898	0.585304
	N238	N	0.962282	0.331695	0.582938
	N239	N	0.035481	0.327060	0.410105
	N240	N	0.964871	0.420675	0.677553
	N241	N	0.038483	0.591692	0.674290
	N242	N	0.964099	0.594738	0.319065
	N243	N	0.038529	0.422897	0.321370
	N244	N	0.414772	0.688151	0.961981
	N245	N	0.588584	0.689088	0.035320
	N246	N	0.590169	0.325814	0.963643
	N247	N	0.415167	0.329385	0.036407
	N248	N	0.676184	0.969088	0.416056
	N249	N	0.676399	0.044344	0.586109
	N250	N	0.319759	0.969690	0.586149
	N251	N	0.321525	0.044490	0.416436
	N252	N	0.915025	0.470778	0.178245
	N253	N	0.089966	0.543855	0.179143
	N254	N	0.090999	0.471670	0.815687
	N255	N	0.916619	0.544383	0.818868
	N256	N	0.176251	0.922076	0.463097
	N257	N	0.174460	0.091234	0.538219
	N258	N	0.819965	0.092851	0.462713
	N259	N	0.822508	0.923659	0.538071
	N260	N	0.462949	0.186388	0.915036
	N261	N	0.537560	0.186689	0.086643
	N262	N	0.463247	0.830367	0.085000
	N263	N	0.537740	0.830193	0.913478
	N264	N	0.462175	0.923386	0.176153
	N265	N	0.536554	0.094713	0.179618
	N266	N	0.461383	0.092251	0.824205
	N267	N	0.536687	0.921755	0.821226
	N268	N	0.910205	0.188990	0.463332
	N269	N	0.085825	0.188753	0.535333
	N270	N	0.085939	0.826372	0.463813
	N271	N	0.910068	0.825993	0.535341
	N272	N	0.180695	0.470599	0.912207
	N273	N	0.177278	0.546182	0.080266
	N274	N	0.823825	0.469768	0.082994
	N275	N	0.823773	0.545174	0.912964
	O276	O	0.471000	0.414230	0.477602
	H277	H	0.470596	0.415511	0.480690
	H278	H	0.469335	0.405318	0.470937
	O279	O	0.492056	0.594207	0.463038
	H280	H	0.493933	0.594652	0.450708
	H281	H	0.488959	0.594400	0.464255
	O282	O	1.073877	1.066765	0.008158
	H283	H	1.074962	1.065512	0.007433
	H284	H	1.075759	1.058995	0.013328
	O285	O	1.120653	0.084548	1.125412
	H286	H	1.132627	0.074156	1.130473
	H287	H	1.122756	0.090482	1.129654
	O288	O	0.508105	0.431526	0.487374
	H289	H	0.517415	0.430033	0.476342
	H290	H	0.513232	0.434066	0.481780
	O291	O	0.522080	0.483108	0.516677
	H292	H	0.530678	0.484866	0.521169
	H293	H	0.523120	0.482081	0.522702
	O294	O	0.490191	0.490938	0.467591
	H295	H	0.497713	0.496903	0.470371
	H296	H	0.503971	0.490160	0.476267
	O297	O	0.040444	0.103886	0.991363
	H298	H	0.048628	0.100320	0.991658
	H299	H	0.047616	0.110759	0.977896
	O300	O	0.992869	0.053366	1.005109
	H301	H	0.993438	0.056622	1.009917
	H302	H	0.991671	0.048429	1.014787
	O303	O	0.977266	0.896239	0.125077
	H304	H	0.983251	0.892322	0.125326
	H305	H	0.987597	0.891338	0.125362
	O306	O	-0.071308	0.890149	1.032543
	H307	H	-0.083158	0.889494	1.028735
	H308	H	-0.071038	0.887082	1.033757
	O309	O	0.478432	0.449756	0.458531
	H310	H	0.500304	0.462165	0.458757
	H311	H	0.478067	0.434152	0.449295
	O312	O	0.004366	-0.007532	0.085213
	H313	H	-0.005932	-0.018208	0.087965
	H314	H	-0.000203	-0.010702	0.086396
	O315	O	1.092344	-0.045095	-0.064242
	H316	H	1.096568	-0.042342	-0.061190
	H317	H	1.105038	-0.052065	-0.059543
	O318	O	0.915872	1.077013	0.934876
	H319	H	0.920053	1.076430	0.922580
	H320	H	0.909381	1.086376	0.938698
	O321	O	-0.494592	-0.440791	0.473757
	H322	H	-0.494224	-0.440557	0.477359
	H323	H	-0.501765	-0.440160	0.473966
	O324	O	0.590688	0.436153	0.530398
	H325	H	0.589206	0.430741	0.532801
	H326	H	0.588153	0.430729	0.537489
	O327	O	-0.423239	-0.552036	0.495265
	H328	H	-0.421910	-0.548802	0.492527
	H329	H	-0.415410	-0.544863	0.485495
	O330	O	0.579205	0.550308	0.580035
	H331	H	0.572000	0.559811	0.575928
	H332	H	0.579036	0.546687	0.577370
	O333	O	-0.136463	0.932765	1.060177
	H334	H	-0.129394	0.937223	1.049511
	H335	H	-0.148752	0.933027	1.052486
	O336	O	-0.050853	-0.037240	0.043200
	H337	H	-0.044661	-0.031933	0.047829
	H338	H	-0.052801	-0.042821	0.030454
	O339	O	0.516823	0.602215	0.489900
	H340	H	0.519085	0.604849	0.504899
	H341	H	0.518378	0.590710	0.494468
	O342	O	1.016851	1.042789	1.036592
	H343	H	1.010237	1.045552	1.042112
	H344	H	1.013992	1.052581	1.020462
	O345	O	0.917852	1.106508	-0.102558
	H346	H	0.915733	1.106162	-0.107493
	H347	H	0.906347	1.102194	-0.114402
	O348	O	0.545884	0.504824	0.565464
	H349	H	0.535324	0.502986	0.557685
	H350	H	0.537869	0.502254	0.565464
	O351	O	0.402956	0.420671	0.534078
	H352	H	0.394405	0.412038	0.537216
	H353	H	0.411336	0.417567	0.533692
	O354	O	0.474976	0.487495	0.526958
	H355	H	0.472998	0.486710	0.526376
	H356	H	0.468831	0.497575	0.518287
	O357	O	1.049566	0.073783	1.063378
	H358	H	1.049212	0.076931	1.069415
	H359	H	1.061427	0.068698	1.069067
	O360	O	0.470392	0.544932	0.371407
	H361	H	0.459248	0.541287	0.362040
	H362	H	0.479901	0.535762	0.370245
	O363	O	1.002029	1.064849	-0.018674
	H364	H	0.990779	1.078908	-0.015630
	H365	H	0.993797	1.056719	-0.009694
	O366	O	1.096965	0.998407	0.904597
	H367	H	1.093168	0.997940	0.901481
	H368	H	1.092343	1.018085	0.925658
	O369	O	1.000905	-0.091316	0.950711
	H370	H	1.005834	-0.094534	0.954335
	H371	H	1.007948	-0.100786	0.960513
	O372	O	-0.030860	-0.127306	-0.006822
	H373	H	-0.027519	-0.120422	-0.014085
	H374	H	-0.039337	-0.141621	-0.009928
	O375	O	1.004357	0.078850	-0.069492
	H376	H	0.992816	0.081976	-0.075333
	H377	H	1.009045	0.074233	-0.076186
	O378	O	0.450100	0.448525	0.422821
	H379	H	0.456363	0.435727	0.411873
	H380	H	0.439865	0.457079	0.427871
	O381	O	0.492781	0.437152	0.565047
	H382	H	0.486603	0.439739	0.564318
	H383	H	0.495040	0.431832	0.578823
