data_Molecule from HDF5

_cell_length_a		16.342064
_cell_length_b		16.295993
_cell_length_c		16.334281
_cell_angle_alpha	90.052582
_cell_angle_beta	89.863524
_cell_angle_gamma	89.776400
_symmetry_space_group_name_H-M	'P 1'
_symmetry_Int_Tables_number		1

loop_
	_symmetry_equiv_pos_as_xyz
	x,y,z

loop_
	_atom_site_label
	_atom_site_type_symbol
	_atom_site_fract_x
	_atom_site_fract_y
	_atom_site_fract_z
	H0	H	0.403772	0.837386	0.719656
	H1	H	0.598394	0.164868	0.719891
	H2	H	0.602436	0.837665	0.289895
	H3	H	0.401651	0.164256	0.291341
	H4	H	0.718216	0.401551	0.842482
	H5	H	0.715516	0.601129	0.168933
	H6	H	0.287675	0.599109	0.841854
	H7	H	0.285308	0.402591	0.168611
	H8	H	0.838478	0.715864	0.409231
	H9	H	0.165379	0.715103	0.602989
	H10	H	0.839313	0.286997	0.605522
	H11	H	0.165138	0.285700	0.404942
	H12	H	0.839199	0.403263	0.721411
	H13	H	0.164961	0.598820	0.719776
	H14	H	0.838113	0.601151	0.291555
	H15	H	0.164679	0.402716	0.289892
	H16	H	0.403762	0.715622	0.841941
	H17	H	0.597293	0.714955	0.169306
	H18	H	0.602600	0.284247	0.842632
	H19	H	0.403307	0.287729	0.168937
	H20	H	0.717251	0.838012	0.407083
	H21	H	0.716575	0.164304	0.605784
	H22	H	0.286978	0.837697	0.604476
	H23	H	0.286385	0.164604	0.408541
	H24	H	0.903694	0.337397	0.220269
	H25	H	0.097076	0.665603	0.218514
	H26	H	0.102336	0.338369	0.790059
	H27	H	0.902436	0.665013	0.790651
	H28	H	0.217030	0.902318	0.342521
	H29	H	0.215254	0.100112	0.668442
	H30	H	0.786641	0.100025	0.341593
	H31	H	0.786430	0.903523	0.668444
	H32	H	0.338280	0.216915	0.908579
	H33	H	0.665362	0.215076	0.102965
	H34	H	0.338066	0.788318	0.103288
	H35	H	0.664576	0.786604	0.907591
	H36	H	0.338435	0.903629	0.220748
	H37	H	0.664228	0.100407	0.220981
	H38	H	0.338157	0.101624	0.790952
	H39	H	0.664712	0.901100	0.789803
	H40	H	0.903482	0.217133	0.342344
	H41	H	0.098611	0.215748	0.668852
	H42	H	0.099946	0.787341	0.342052
	H43	H	0.903687	0.787861	0.669080
	H44	H	0.217134	0.338758	0.907160
	H45	H	0.214970	0.665031	0.103442
	H46	H	0.787224	0.337821	0.103733
	H47	H	0.787029	0.665520	0.907837
	H48	H	0.402476	0.118441	0.596951
	H49	H	0.595222	0.885149	0.598528
	H50	H	0.601473	0.119212	0.413029
	H51	H	0.408467	0.886384	0.417304
	H52	H	0.592278	0.403229	0.122091
	H53	H	0.591039	0.590915	0.892300
	H54	H	0.404210	0.592503	0.120985
	H55	H	0.403582	0.404801	0.887433
	H56	H	0.118670	0.597033	0.410752
	H57	H	0.887036	0.590694	0.600168
	H58	H	0.118092	0.405811	0.597028
	H59	H	0.887425	0.411755	0.412523
	H60	H	0.117132	0.410219	0.597593
	H61	H	0.884158	0.597521	0.602432
	H62	H	0.116441	0.593575	0.413868
	H63	H	0.886070	0.408207	0.411635
	H64	H	0.411528	0.594002	0.119740
	H65	H	0.593372	0.600468	0.888353
	H66	H	0.601009	0.411765	0.121957
	H67	H	0.408330	0.417466	0.891419
	H68	H	0.586728	0.116774	0.406410
	H69	H	0.594224	0.885009	0.599205
	H70	H	0.408197	0.118836	0.603928
	H71	H	0.404607	0.882896	0.409987
	H72	H	0.907190	0.616997	0.098204
	H73	H	0.094586	0.385791	0.098065
	H74	H	0.103282	0.618991	0.914939
	H75	H	0.913632	0.387067	0.912451
	H76	H	0.096605	0.905622	0.622926
	H77	H	0.095441	0.091765	0.389522
	H78	H	0.904905	0.093884	0.621094
	H79	H	0.907486	0.903202	0.388558
	H80	H	0.621259	0.102303	0.905746
	H81	H	0.383939	0.100135	0.100614
	H82	H	0.619821	0.901367	0.099435
	H83	H	0.387172	0.914529	0.911716
	H84	H	0.614362	0.911079	0.091494
	H85	H	0.387375	0.094858	0.095907
	H86	H	0.614647	0.095081	0.923448
	H87	H	0.384167	0.907188	0.908958
	H88	H	0.911686	0.092592	0.619038
	H89	H	0.091566	0.094194	0.390669
	H90	H	0.095583	0.913419	0.620663
	H91	H	0.905450	0.912144	0.389912
	H92	H	0.091824	0.620265	0.903123
	H93	H	0.093515	0.385996	0.097118
	H94	H	0.906151	0.618214	0.100521
	H95	H	0.908099	0.386589	0.916075
	H96	H	0.411348	0.114991	0.596205
	H97	H	0.594354	0.884963	0.597782
	H98	H	0.589325	0.112536	0.422279
	H99	H	0.413154	0.885644	0.410309
	H100	H	0.589905	0.414519	0.117057
	H101	H	0.600955	0.592397	0.888200
	H102	H	0.407192	0.598998	0.122406
	H103	H	0.417186	0.406100	0.891956
	H104	H	0.118275	0.592346	0.408754
	H105	H	0.886902	0.596338	0.595252
	H106	H	0.118499	0.408251	0.601289
	H107	H	0.886886	0.409498	0.414947
	H108	H	0.909229	0.617611	0.100542
	H109	H	0.094843	0.385830	0.097152
	H110	H	0.087559	0.614830	0.918084
	H111	H	0.908216	0.384481	0.910159
	H112	H	0.089288	0.908111	0.619451
	H113	H	0.095737	0.095902	0.388724
	H114	H	0.909504	0.098633	0.621381
	H115	H	0.913641	0.909259	0.391189
	H116	H	0.614769	0.082878	0.907472
	H117	H	0.385329	0.093023	0.103307
	H118	H	0.617807	0.913319	0.104452
	H119	H	0.386813	0.907533	0.916829
	C120	C	0.379059	0.009343	0.627758
	C121	C	0.622989	0.992918	0.627261
	C122	C	0.622761	0.008784	0.384477
	C123	C	0.379815	0.992867	0.384400
	C124	C	0.623662	0.379702	0.012909
	C125	C	0.623144	0.623487	0.997325
	C126	C	0.379162	0.623534	0.013585
	C127	C	0.380644	0.380860	0.997771
	C128	C	0.010022	0.623283	0.383442
	C129	C	0.993598	0.623451	0.627583
	C130	C	0.010049	0.380240	0.627057
	C131	C	0.994264	0.380412	0.383858
	C132	C	0.879426	0.509326	0.127817
	C133	C	0.122703	0.493444	0.126601
	C134	C	0.123560	0.510266	0.883438
	C135	C	0.880551	0.493823	0.884098
	C136	C	0.122889	0.879995	0.513442
	C137	C	0.122568	0.122611	0.497311
	C138	C	0.879526	0.123709	0.513019
	C139	C	0.880271	0.880328	0.497661
	C140	C	0.509187	0.122643	0.884185
	C141	C	0.493477	0.123935	0.127698
	C142	C	0.509622	0.880450	0.126940
	C143	C	0.493690	0.880298	0.883903
	C144	C	0.382764	0.886339	0.682255
	C145	C	0.619706	0.115969	0.682268
	C146	C	0.621485	0.886348	0.328542
	C147	C	0.381695	0.115716	0.329742
	C148	C	0.679420	0.381541	0.890767
	C149	C	0.677882	0.621106	0.119987
	C150	C	0.324429	0.620891	0.890695
	C151	C	0.324340	0.383079	0.120199
	C152	C	0.887201	0.678145	0.387599
	C153	C	0.116714	0.677447	0.623685
	C154	C	0.887796	0.325241	0.625283
	C155	C	0.116478	0.324131	0.385493
	C156	C	0.887832	0.382822	0.683103
	C157	C	0.116652	0.619753	0.681644
	C158	C	0.886928	0.621093	0.329291
	C159	C	0.116418	0.382358	0.328173
	C160	C	0.382466	0.678195	0.890540
	C161	C	0.619074	0.677716	0.120517
	C162	C	0.622185	0.323168	0.891031
	C163	C	0.383042	0.326061	0.120574
	C164	C	0.679114	0.886501	0.386308
	C165	C	0.678116	0.115700	0.625386
	C166	C	0.324889	0.886424	0.624882
	C167	C	0.324209	0.115727	0.387582
	C168	C	0.882759	0.386230	0.182567
	C169	C	0.119034	0.616470	0.181537
	C170	C	0.121757	0.387194	0.828280
	C171	C	0.882730	0.616574	0.829224
	C172	C	0.178854	0.882069	0.391059
	C173	C	0.177453	0.120498	0.619950
	C174	C	0.824223	0.120921	0.390525
	C175	C	0.825053	0.883208	0.620072
	C176	C	0.386557	0.178568	0.887696
	C177	C	0.616467	0.177788	0.123993
	C178	C	0.386753	0.825990	0.123870
	C179	C	0.616021	0.824374	0.886598
	C180	C	0.386959	0.883296	0.182257
	C181	C	0.615993	0.120801	0.182731
	C182	C	0.386751	0.121519	0.829069
	C183	C	0.616128	0.881620	0.828294
	C184	C	0.882347	0.178761	0.390557
	C185	C	0.119742	0.178131	0.620161
	C186	C	0.120873	0.824802	0.390897
	C187	C	0.883051	0.825499	0.620164
	C188	C	0.179492	0.387525	0.885792
	C189	C	0.177250	0.616343	0.124246
	C190	C	0.824837	0.386538	0.124888
	C191	C	0.825347	0.616883	0.887275
	C192	C	0.400910	0.095301	0.605714
	C193	C	0.601140	0.907067	0.604837
	C194	C	0.599379	0.094229	0.407208
	C195	C	0.402209	0.907095	0.406241
	C196	C	0.600897	0.402933	0.098332
	C197	C	0.601469	0.601308	0.911683
	C198	C	0.401086	0.601565	0.098889
	C199	C	0.403085	0.402989	0.912406
	C200	C	0.095632	0.600736	0.404779
	C201	C	0.908141	0.601503	0.605683
	C202	C	0.095740	0.401635	0.604939
	C203	C	0.908895	0.403149	0.406637
	C204	C	0.901173	0.595281	0.106115
	C205	C	0.100775	0.407848	0.104143
	C206	C	0.100829	0.595887	0.905623
	C207	C	0.903130	0.408129	0.906371
	C208	C	0.100412	0.902320	0.599034
	C209	C	0.100619	0.100563	0.411787
	C210	C	0.901904	0.101510	0.598499
	C211	C	0.902288	0.902013	0.411815
	C212	C	0.594702	0.100156	0.905934
	C213	C	0.407666	0.102373	0.106274
	C214	C	0.595224	0.902191	0.104870
	C215	C	0.408195	0.903117	0.906060
	Zn216	Zn	0.501094	0.001472	0.755180
	Zn217	Zn	0.501332	0.001326	0.255777
	Zn218	Zn	0.751849	0.501741	0.005148
	Zn219	Zn	0.251153	0.501896	0.005161
	Zn220	Zn	0.002083	0.751399	0.505488
	Zn221	Zn	0.001925	0.251824	0.505374
	Zn222	Zn	0.002225	0.501660	0.755771
	Zn223	Zn	0.001245	0.501702	0.255384
	Zn224	Zn	0.501171	0.751731	0.005471
	Zn225	Zn	0.501727	0.251786	0.005521
	Zn226	Zn	0.751040	0.001431	0.505477
	Zn227	Zn	0.251066	0.001337	0.505852
	N228	N	0.415858	0.963760	0.683900
	N229	N	0.586018	0.038713	0.683432
	N230	N	0.587164	0.963674	0.327281
	N231	N	0.415586	0.038426	0.327572
	N232	N	0.680639	0.415684	0.967719
	N233	N	0.680289	0.588004	0.042405
	N234	N	0.322524	0.587570	0.967930
	N235	N	0.322879	0.416505	0.042800
	N236	N	0.964500	0.679705	0.420484
	N237	N	0.039124	0.679870	0.590838
	N238	N	0.964747	0.323692	0.591076
	N239	N	0.039201	0.322708	0.419324
	N240	N	0.964946	0.416460	0.684327
	N241	N	0.039366	0.586992	0.684222
	N242	N	0.964336	0.587644	0.326741
	N243	N	0.039545	0.416658	0.327276
	N244	N	0.415454	0.680480	0.967974
	N245	N	0.585679	0.679366	0.043266
	N246	N	0.588008	0.322304	0.968012
	N247	N	0.417206	0.324440	0.043588
	N248	N	0.679713	0.963587	0.420403
	N249	N	0.680268	0.038101	0.591940
	N250	N	0.322467	0.963860	0.591640
	N251	N	0.323083	0.038304	0.421026
	N252	N	0.915933	0.463692	0.184392
	N253	N	0.085672	0.539150	0.182821
	N254	N	0.087634	0.464571	0.826796
	N255	N	0.916303	0.539114	0.827163
	N256	N	0.179776	0.916118	0.468223
	N257	N	0.179115	0.086712	0.542842
	N258	N	0.822436	0.087530	0.467999
	N259	N	0.823309	0.916383	0.542880
	N260	N	0.463764	0.179572	0.921227
	N261	N	0.539227	0.180055	0.090874
	N262	N	0.463827	0.824307	0.090148
	N263	N	0.538917	0.823539	0.920486
	N264	N	0.464421	0.916195	0.184333
	N265	N	0.538529	0.088192	0.185204
	N266	N	0.463903	0.087550	0.826932
	N267	N	0.539088	0.915870	0.826661
	N268	N	0.915763	0.180808	0.467625
	N269	N	0.086178	0.179334	0.543021
	N270	N	0.087076	0.823372	0.467949
	N271	N	0.916888	0.823670	0.542858
	N272	N	0.180402	0.464800	0.919569
	N273	N	0.179369	0.539065	0.090603
	N274	N	0.822643	0.463984	0.091735
	N275	N	0.824039	0.539418	0.920685
	O276	O	0.019713	-0.030415	0.983556
	H277	H	0.017927	-0.030815	0.983381
	H278	H	0.017207	-0.033260	0.978953
	O279	O	0.604501	0.424024	0.439215
	H280	H	0.611421	0.420201	0.438262
	H281	H	0.616259	0.430233	0.425107
	O282	O	0.591764	0.434070	0.398765
	H283	H	0.585618	0.427431	0.403593
	H284	H	0.594949	0.430436	0.389716
	O285	O	0.562948	0.409941	0.431115
	H286	H	0.559198	0.410678	0.433239
	H287	H	0.572067	0.406177	0.436786
	O288	O	0.008935	0.972410	-0.018097
	H289	H	0.007625	0.980416	-0.022280
	H290	H	0.007507	0.961754	-0.019532
	O291	O	0.008658	0.992579	0.918538
	H292	H	0.015197	0.988788	0.921896
	H293	H	0.004736	0.999901	0.917805
	O294	O	0.615564	0.394787	0.385940
	H295	H	0.613680	0.390562	0.386933
	H296	H	0.617094	0.389305	0.378134
	O297	O	1.019190	-0.029349	-0.081820
	H298	H	1.022517	-0.025074	-0.080273
	H299	H	1.021444	-0.034893	-0.088173
