data_Molecule from HDF5

_cell_length_a		16.266724
_cell_length_b		16.337569
_cell_length_c		16.318021
_cell_angle_alpha	89.942910
_cell_angle_beta	90.162943
_cell_angle_gamma	89.818631
_symmetry_space_group_name_H-M	'P 1'
_symmetry_Int_Tables_number		1

loop_
	_symmetry_equiv_pos_as_xyz
	x,y,z

loop_
	_atom_site_label
	_atom_site_type_symbol
	_atom_site_fract_x
	_atom_site_fract_y
	_atom_site_fract_z
	H0	H	0.398576	0.835967	0.704483
	H1	H	0.597380	0.161391	0.706637
	H2	H	0.596776	0.835453	0.275894
	H3	H	0.397482	0.161826	0.274835
	H4	H	0.713221	0.399467	0.827060
	H5	H	0.712309	0.596192	0.153916
	H6	H	0.283612	0.595916	0.826797
	H7	H	0.284092	0.400628	0.153930
	H8	H	0.834391	0.714659	0.391652
	H9	H	0.162434	0.712613	0.589424
	H10	H	0.833109	0.285583	0.588574
	H11	H	0.161055	0.283180	0.392753
	H12	H	0.833477	0.401862	0.704683
	H13	H	0.161999	0.596069	0.705335
	H14	H	0.834364	0.598992	0.275212
	H15	H	0.161747	0.399437	0.276849
	H16	H	0.396667	0.714264	0.827526
	H17	H	0.596386	0.712886	0.153776
	H18	H	0.596649	0.283366	0.826806
	H19	H	0.399057	0.283012	0.153432
	H20	H	0.713408	0.836430	0.391927
	H21	H	0.710967	0.162552	0.588331
	H22	H	0.284173	0.835285	0.587231
	H23	H	0.282233	0.162242	0.392097
	H24	H	0.898404	0.337016	0.206623
	H25	H	0.098401	0.661187	0.208451
	H26	H	0.098115	0.336847	0.775904
	H27	H	0.897982	0.662841	0.775970
	H28	H	0.210856	0.900549	0.326721
	H29	H	0.212669	0.096545	0.653346
	H30	H	0.782588	0.097370	0.326705
	H31	H	0.783280	0.901068	0.653822
	H32	H	0.333678	0.214870	0.889513
	H33	H	0.661702	0.212364	0.089007
	H34	H	0.333562	0.784228	0.087761
	H35	H	0.660927	0.783666	0.892023
	H36	H	0.333086	0.900728	0.203585
	H37	H	0.661554	0.096285	0.205011
	H38	H	0.333468	0.098973	0.773812
	H39	H	0.660979	0.899776	0.775703
	H40	H	0.896414	0.215396	0.327474
	H41	H	0.096383	0.212397	0.654093
	H42	H	0.096743	0.783215	0.327462
	H43	H	0.899146	0.784397	0.653658
	H44	H	0.213080	0.336358	0.893353
	H45	H	0.212581	0.662798	0.089950
	H46	H	0.784483	0.335830	0.088832
	H47	H	0.780522	0.661605	0.890998
	H48	H	0.403412	0.113033	0.577324
	H49	H	0.583971	0.886163	0.580256
	H50	H	0.584686	0.112248	0.399090
	H51	H	0.408232	0.885997	0.402019
	H52	H	0.591273	0.405858	0.105670
	H53	H	0.596930	0.581774	0.875744
	H54	H	0.405722	0.597591	0.108127
	H55	H	0.406747	0.408559	0.876059
	H56	H	0.109649	0.586842	0.409675
	H57	H	0.880453	0.597404	0.584038
	H58	H	0.110648	0.409207	0.575553
	H59	H	0.884051	0.402809	0.412268
	H60	H	0.115057	0.410356	0.592664
	H61	H	0.884001	0.591233	0.580023
	H62	H	0.114682	0.583586	0.389462
	H63	H	0.884498	0.421459	0.391818
	H64	H	0.399776	0.589988	0.107776
	H65	H	0.577760	0.588917	0.878889
	H66	H	0.591029	0.402657	0.106588
	H67	H	0.405803	0.402739	0.874104
	H68	H	0.593212	0.114847	0.400401
	H69	H	0.596958	0.882847	0.578505
	H70	H	0.399673	0.117146	0.585593
	H71	H	0.396446	0.880961	0.396675
	H72	H	0.908429	0.615236	0.087928
	H73	H	0.098372	0.380445	0.088469
	H74	H	0.093553	0.616121	0.895344
	H75	H	0.906965	0.383559	0.897279
	H76	H	0.082658	0.903935	0.604536
	H77	H	0.088444	0.084163	0.376660
	H78	H	0.907293	0.099088	0.607611
	H79	H	0.902149	0.904214	0.373160
	H80	H	0.612114	0.089065	0.899822
	H81	H	0.379682	0.092871	0.086961
	H82	H	0.613769	0.905338	0.084995
	H83	H	0.378987	0.909413	0.888320
	H84	H	0.613371	0.904212	0.081828
	H85	H	0.381936	0.094798	0.077961
	H86	H	0.612396	0.088769	0.895887
	H87	H	0.379011	0.897439	0.897787
	H88	H	0.897067	0.092261	0.608267
	H89	H	0.082851	0.095978	0.375363
	H90	H	0.096706	0.899076	0.610240
	H91	H	0.904579	0.911177	0.375835
	H92	H	0.087583	0.615549	0.896099
	H93	H	0.083069	0.384899	0.088045
	H94	H	0.908581	0.612743	0.077949
	H95	H	0.905545	0.383949	0.899286
	H96	H	0.409242	0.114150	0.584762
	H97	H	0.591564	0.881009	0.590105
	H98	H	0.589199	0.116325	0.392367
	H99	H	0.407690	0.881215	0.389369
	H100	H	0.593906	0.404152	0.106500
	H101	H	0.592847	0.601604	0.870144
	H102	H	0.409080	0.588927	0.104458
	H103	H	0.401083	0.406055	0.873384
	H104	H	0.117196	0.602612	0.398255
	H105	H	0.880543	0.590039	0.587729
	H106	H	0.116324	0.394899	0.584545
	H107	H	0.874896	0.396344	0.387377
	H108	H	0.899578	0.616146	0.082423
	H109	H	0.091581	0.385848	0.074841
	H110	H	0.091213	0.614420	0.900540
	H111	H	0.904394	0.383609	0.897093
	H112	H	0.094666	0.913671	0.605255
	H113	H	0.095633	0.093762	0.371766
	H114	H	0.907258	0.087202	0.604410
	H115	H	0.909834	0.905524	0.375742
	H116	H	0.613996	0.091446	0.897285
	H117	H	0.383369	0.086561	0.081344
	H118	H	0.613060	0.907554	0.082962
	H119	H	0.384218	0.910981	0.902916
	C120	C	0.375913	0.007052	0.610914
	C121	C	0.619339	0.990781	0.612020
	C122	C	0.618793	0.006939	0.368216
	C123	C	0.374941	0.990292	0.367471
	C124	C	0.620171	0.375999	-0.001801
	C125	C	0.618517	0.619640	0.982307
	C126	C	0.376164	0.620269	-0.001187
	C127	C	0.376327	0.377402	0.982302
	C128	C	0.006027	0.620802	0.369515
	C129	C	0.990113	0.620827	0.612385
	C130	C	0.005548	0.377295	0.612365
	C131	C	0.989392	0.377429	0.369394
	C132	C	0.877123	0.507304	0.111508
	C133	C	0.119988	0.491056	0.112672
	C134	C	0.119266	0.507560	0.869636
	C135	C	0.875800	0.491074	0.868726
	C136	C	0.119665	0.877015	0.498785
	C137	C	0.118329	0.119948	0.482352
	C138	C	0.875120	0.121276	0.498722
	C139	C	0.876527	0.877866	0.482376
	C140	C	0.504853	0.119718	0.868444
	C141	C	0.489498	0.120145	0.111542
	C142	C	0.505306	0.877093	0.111360
	C143	C	0.488619	0.876639	0.867971
	C144	C	0.378753	0.884399	0.665976
	C145	C	0.617045	0.113173	0.667752
	C146	C	0.617069	0.884260	0.313536
	C147	C	0.376974	0.113109	0.312765
	C148	C	0.674858	0.379117	0.875586
	C149	C	0.674186	0.617003	0.105225
	C150	C	0.320868	0.617327	0.875757
	C151	C	0.322021	0.380019	0.105425
	C152	C	0.883111	0.676568	0.371349
	C153	C	0.113344	0.675268	0.610173
	C154	C	0.882104	0.323298	0.609128
	C155	C	0.112382	0.321361	0.372044
	C156	C	0.882467	0.380714	0.667210
	C157	C	0.113273	0.617327	0.667664
	C158	C	0.883291	0.619156	0.313315
	C159	C	0.112840	0.379519	0.314866
	C160	C	0.377427	0.675536	0.875915
	C161	C	0.616729	0.675091	0.105055
	C162	C	0.617368	0.321116	0.875599
	C163	C	0.379286	0.321714	0.104913
	C164	C	0.675155	0.884858	0.371158
	C165	C	0.673847	0.113643	0.609336
	C166	C	0.321583	0.884163	0.608165
	C167	C	0.319912	0.113333	0.371194
	C168	C	0.878788	0.385185	0.167766
	C169	C	0.118269	0.613173	0.169146
	C170	C	0.118048	0.385105	0.814206
	C171	C	0.877768	0.613945	0.813763
	C172	C	0.173971	0.879619	0.375707
	C173	C	0.174363	0.117154	0.604858
	C174	C	0.820026	0.118238	0.375639
	C175	C	0.821135	0.880466	0.605151
	C176	C	0.382455	0.176490	0.869598
	C177	C	0.612697	0.174439	0.109207
	C178	C	0.382202	0.822363	0.108502
	C179	C	0.611845	0.821244	0.871008
	C180	C	0.382097	0.880151	0.165975
	C181	C	0.612571	0.117074	0.167147
	C182	C	0.382128	0.118404	0.812377
	C183	C	0.611935	0.879008	0.813175
	C184	C	0.876774	0.176873	0.376072
	C185	C	0.116507	0.174799	0.605094
	C186	C	0.117156	0.821449	0.376103
	C187	C	0.878703	0.822509	0.605106
	C188	C	0.174817	0.384824	0.872770
	C189	C	0.175215	0.613789	0.110562
	C190	C	0.821984	0.384686	0.109316
	C191	C	0.819281	0.613340	0.870780
	C192	C	0.397603	0.092680	0.589017
	C193	C	0.597320	0.905296	0.589662
	C194	C	0.595859	0.092445	0.390671
	C195	C	0.397387	0.904702	0.389561
	C196	C	0.598508	0.397766	0.084096
	C197	C	0.595880	0.597276	0.896942
	C198	C	0.398475	0.598709	0.084525
	C199	C	0.398036	0.399467	0.896552
	C200	C	0.091774	0.597734	0.392386
	C201	C	0.903896	0.599265	0.590144
	C202	C	0.091662	0.398648	0.590640
	C203	C	0.903422	0.400163	0.390866
	C204	C	0.899227	0.592494	0.089301
	C205	C	0.097560	0.405931	0.090453
	C206	C	0.097111	0.593167	0.891054
	C207	C	0.898868	0.405784	0.891241
	C208	C	0.097723	0.899146	0.584503
	C209	C	0.095449	0.097778	0.396739
	C210	C	0.897480	0.099358	0.584598
	C211	C	0.898996	0.900273	0.396998
	C212	C	0.590616	0.096436	0.891056
	C213	C	0.403640	0.098025	0.088703
	C214	C	0.591215	0.899126	0.089669
	C215	C	0.402888	0.899324	0.889851
	Zn216	Zn	0.497070	-0.001407	0.739864
	Zn217	Zn	0.497329	-0.001471	0.239909
	Zn218	Zn	0.747918	0.498905	-0.009562
	Zn219	Zn	0.247842	0.499602	-0.008964
	Zn220	Zn	-0.001912	0.748980	0.490954
	Zn221	Zn	-0.002849	0.249004	0.490510
	Zn222	Zn	-0.001803	0.499257	0.740771
	Zn223	Zn	-0.002058	0.499071	0.240977
	Zn224	Zn	0.497138	0.748641	-0.009978
	Zn225	Zn	0.497651	0.248022	-0.010129
	Zn226	Zn	0.747814	-0.000531	0.490467
	Zn227	Zn	0.247169	-0.001312	0.489806
	N228	N	0.411792	0.961815	0.667974
	N229	N	0.583796	0.035851	0.669595
	N230	N	0.582834	0.961492	0.311675
	N231	N	0.410571	0.035790	0.310507
	N232	N	0.676951	0.412273	0.953026
	N233	N	0.675530	0.583467	0.027888
	N234	N	0.319880	0.583639	0.953095
	N235	N	0.319838	0.413521	0.028250
	N236	N	0.960570	0.677685	0.405430
	N237	N	0.035652	0.677434	0.576651
	N238	N	0.959689	0.320985	0.575782
	N239	N	0.034708	0.319873	0.404901
	N240	N	0.960233	0.413508	0.669356
	N241	N	0.035620	0.584056	0.669074
	N242	N	0.960713	0.584943	0.312288
	N243	N	0.035141	0.413626	0.312919
	N244	N	0.410751	0.677751	0.953435
	N245	N	0.582733	0.676754	0.027722
	N246	N	0.584229	0.319006	0.952952
	N247	N	0.412067	0.319748	0.027221
	N248	N	0.676072	0.961936	0.404669
	N249	N	0.675174	0.036605	0.575235
	N250	N	0.319849	0.961334	0.574498
	N251	N	0.318496	0.035812	0.404436
	N252	N	0.912282	0.462321	0.169309
	N253	N	0.084649	0.536025	0.170726
	N254	N	0.084243	0.462312	0.812107
	N255	N	0.912057	0.536804	0.812093
	N256	N	0.175597	0.913470	0.452950
	N257	N	0.175549	0.083796	0.527612
	N258	N	0.819088	0.084321	0.452844
	N259	N	0.819678	0.914274	0.527912
	N260	N	0.459834	0.177262	0.903914
	N261	N	0.535088	0.176459	0.075503
	N262	N	0.459773	0.820516	0.075267
	N263	N	0.534301	0.819686	0.904228
	N264	N	0.459752	0.913585	0.167907
	N265	N	0.534804	0.084041	0.168709
	N266	N	0.459386	0.083776	0.811591
	N267	N	0.534279	0.912840	0.811209
	N268	N	0.910316	0.178778	0.453479
	N269	N	0.082308	0.176572	0.527818
	N270	N	0.084089	0.819729	0.453560
	N271	N	0.912434	0.820874	0.527939
	N272	N	0.175785	0.461976	0.906407
	N273	N	0.176396	0.536780	0.076386
	N274	N	0.820834	0.461592	0.074875
	N275	N	0.818015	0.535935	0.904130
	O276	O	1.935401	0.018075	1.057360
	H277	H	1.941130	0.022456	1.053751
	H278	H	1.933922	0.018694	1.058112
	O279	O	0.014103	0.036759	-0.019334
	H280	H	0.001361	0.044695	-0.010373
	H281	H	0.014969	0.031422	-0.030128
	O282	O	-0.013755	0.098393	0.987171
	H283	H	-0.018737	0.102833	0.985193
	H284	H	-0.011280	0.087998	0.995955
	O285	O	0.571731	0.505483	0.488193
	H286	H	0.588586	0.500845	0.480735
	H287	H	0.569650	0.510482	0.486239
	O288	O	0.527324	0.490163	0.496963
	H289	H	0.526817	0.484536	0.507124
	H290	H	0.525053	0.487554	0.498200
	O291	O	-0.046365	1.010477	0.922692
	H292	H	-0.043080	1.013100	0.933974
	H293	H	-0.051067	1.004528	0.917345
	O294	O	0.072126	0.072801	0.041605
	H295	H	0.071129	0.069622	0.041936
	H296	H	0.078399	0.081463	0.037680
	O297	O	0.548840	0.499109	0.472149
	H298	H	0.543370	0.495986	0.470386
	H299	H	0.537434	0.501217	0.469232
	O300	O	-0.008039	1.009738	0.946716
	H301	H	-0.000589	1.009224	0.932074
	H302	H	-0.017898	1.017018	0.946709
	O303	O	0.470179	0.487933	0.512316
	H304	H	0.482360	0.483306	0.515892
	H305	H	0.475357	0.481766	0.520002
	O306	O	-0.039814	0.023929	1.055538
	H307	H	-0.024142	0.021382	1.051764
	H308	H	-0.036405	0.023121	1.055469
	O309	O	0.967043	1.017260	0.954389
	H310	H	0.953305	1.015619	0.963211
	H311	H	0.970955	1.018543	0.954109
	O312	O	0.513606	0.481697	0.482968
	H313	H	0.503271	0.491695	0.483070
	H314	H	0.506213	0.485193	0.486343
	O315	O	0.505621	0.504654	0.512288
	H316	H	0.507914	0.501830	0.519971
	H317	H	0.516505	0.508546	0.507995
	O318	O	-0.006986	1.032087	0.027022
	H319	H	-0.010343	1.031430	0.028729
	H320	H	-0.012656	1.029476	0.024035
	O321	O	1.016099	1.030514	-0.028756
	H322	H	1.019157	1.031038	-0.025234
	H323	H	1.014629	1.047053	-0.024613
