data_Molecule from HDF5

_cell_length_a		16.643249
_cell_length_b		16.651958
_cell_length_c		16.706012
_cell_angle_alpha	90.058327
_cell_angle_beta	90.136849
_cell_angle_gamma	90.134346
_symmetry_space_group_name_H-M	'P 1'
_symmetry_Int_Tables_number		1

loop_
	_symmetry_equiv_pos_as_xyz
	x,y,z

loop_
	_atom_site_label
	_atom_site_type_symbol
	_atom_site_fract_x
	_atom_site_fract_y
	_atom_site_fract_z
	H0	H	0.388490	0.852667	0.735443
	H1	H	0.608250	0.157840	0.733935
	H2	H	0.602432	0.850077	0.288897
	H3	H	0.394688	0.159488	0.288851
	H4	H	0.722263	0.397807	0.855840
	H5	H	0.724308	0.612322	0.161762
	H6	H	0.280178	0.610083	0.855061
	H7	H	0.275417	0.398920	0.162223
	H8	H	0.844121	0.726218	0.403182
	H9	H	0.154596	0.726400	0.613116
	H10	H	0.846140	0.282193	0.615604
	H11	H	0.152636	0.282283	0.400337
	H12	H	0.847313	0.396480	0.732653
	H13	H	0.153854	0.612703	0.731099
	H14	H	0.845038	0.610510	0.286161
	H15	H	0.152709	0.397916	0.284849
	H16	H	0.396096	0.726165	0.854959
	H17	H	0.607703	0.728236	0.162432
	H18	H	0.605948	0.281698	0.856710
	H19	H	0.390041	0.281303	0.162289
	H20	H	0.718279	0.849788	0.405205
	H21	H	0.724031	0.158091	0.618109
	H22	H	0.274473	0.851679	0.617516
	H23	H	0.279739	0.160247	0.406651
	H24	H	0.887755	0.354217	0.234494
	H25	H	0.109485	0.657999	0.233930
	H26	H	0.113382	0.355202	0.780417
	H27	H	0.891648	0.659871	0.784913
	H28	H	0.221603	0.898464	0.356265
	H29	H	0.225284	0.115428	0.661567
	H30	H	0.775114	0.112110	0.355904
	H31	H	0.773980	0.895007	0.661409
	H32	H	0.346983	0.230620	0.898513
	H33	H	0.649397	0.234052	0.122769
	H34	H	0.346168	0.782486	0.115504
	H35	H	0.652587	0.781775	0.900834
	H36	H	0.344919	0.898603	0.230393
	H37	H	0.650566	0.117036	0.236891
	H38	H	0.348150	0.115648	0.782557
	H39	H	0.650433	0.892790	0.781757
	H40	H	0.889054	0.230038	0.356368
	H41	H	0.109541	0.231249	0.660805
	H42	H	0.105414	0.782298	0.356114
	H43	H	0.890115	0.779995	0.661723
	H44	H	0.228498	0.355071	0.896824
	H45	H	0.224000	0.659143	0.117807
	H46	H	0.773704	0.353957	0.117318
	H47	H	0.776001	0.659300	0.899906
	H48	H	0.411625	0.113900	0.593141
	H49	H	0.582797	0.893342	0.599203
	H50	H	0.587288	0.117690	0.418418
	H51	H	0.410835	0.891418	0.414625
	H52	H	0.589740	0.418524	0.120981
	H53	H	0.590673	0.595411	0.896075
	H54	H	0.405156	0.593692	0.122164
	H55	H	0.413066	0.415112	0.898224
	H56	H	0.112752	0.595012	0.414456
	H57	H	0.887998	0.590423	0.596812
	H58	H	0.109845	0.421970	0.595906
	H59	H	0.888601	0.414504	0.424472
	H60	H	0.111288	0.418110	0.595870
	H61	H	0.887405	0.593354	0.598999
	H62	H	0.110519	0.599196	0.423993
	H63	H	0.890807	0.423002	0.421124
	H64	H	0.415179	0.589949	0.118340
	H65	H	0.587764	0.591666	0.898654
	H66	H	0.586278	0.424048	0.117068
	H67	H	0.410726	0.421057	0.899514
	H68	H	0.582909	0.114848	0.422740
	H69	H	0.583808	0.896821	0.593414
	H70	H	0.413716	0.115864	0.598918
	H71	H	0.411510	0.894617	0.422790
	H72	H	0.910958	0.615760	0.091682
	H73	H	0.082650	0.398733	0.091654
	H74	H	0.088696	0.618704	0.914907
	H75	H	0.912839	0.394773	0.916514
	H76	H	0.081807	0.915115	0.619216
	H77	H	0.088608	0.098149	0.396932
	H78	H	0.910901	0.091293	0.619400
	H79	H	0.916382	0.917424	0.401804
	H80	H	0.608500	0.090752	0.921864
	H81	H	0.388452	0.091778	0.099973
	H82	H	0.612637	0.916742	0.103523
	H83	H	0.387694	0.916926	0.918658
	H84	H	0.611834	0.914393	0.097125
	H85	H	0.387807	0.094937	0.096085
	H86	H	0.609788	0.093791	0.925118
	H87	H	0.389316	0.915957	0.926178
	H88	H	0.913977	0.092822	0.617243
	H89	H	0.090240	0.089466	0.399816
	H90	H	0.090162	0.915116	0.621852
	H91	H	0.908071	0.909234	0.395751
	H92	H	0.081845	0.613384	0.922518
	H93	H	0.091229	0.394615	0.092940
	H94	H	0.912092	0.618046	0.098930
	H95	H	0.915876	0.397387	0.922411
	H96	H	0.417808	0.112854	0.594868
	H97	H	0.589004	0.893423	0.596137
	H98	H	0.589320	0.116013	0.424721
	H99	H	0.403878	0.890567	0.420085
	H100	H	0.582625	0.417566	0.118341
	H101	H	0.586136	0.596946	0.898666
	H102	H	0.413926	0.600721	0.122168
	H103	H	0.416398	0.419517	0.901918
	H104	H	0.108240	0.588821	0.422092
	H105	H	0.888566	0.593713	0.595294
	H106	H	0.109546	0.419609	0.592104
	H107	H	0.886042	0.416734	0.415861
	H108	H	0.917866	0.614130	0.095639
	H109	H	0.084749	0.394285	0.100423
	H110	H	0.092513	0.615994	0.925734
	H111	H	0.908939	0.394969	0.922838
	H112	H	0.086895	0.922035	0.618045
	H113	H	0.082171	0.092927	0.400466
	H114	H	0.912304	0.095060	0.619809
	H115	H	0.904861	0.921611	0.398146
	H116	H	0.607037	0.090189	0.926074
	H117	H	0.389702	0.091458	0.095406
	H118	H	0.610160	0.920804	0.098366
	H119	H	0.391224	0.922486	0.922586
	C120	C	0.378995	0.013208	0.630185
	C121	C	0.620410	0.996004	0.630821
	C122	C	0.619259	0.013944	0.388517
	C123	C	0.377313	0.995583	0.387967
	C124	C	0.620374	0.384884	0.017889
	C125	C	0.621199	0.627130	0.999904
	C126	C	0.379487	0.626812	0.018460
	C127	C	0.378207	0.384654	1.000852
	C128	C	0.007908	0.626522	0.387429
	C129	C	0.990671	0.625666	0.629137
	C130	C	0.008794	0.385138	0.629013
	C131	C	0.990389	0.384720	0.387262
	C132	C	0.878740	0.514759	0.129251
	C133	C	0.120579	0.497108	0.129556
	C134	C	0.122224	0.514900	0.886745
	C135	C	0.878663	0.497460	0.886589
	C136	C	0.119466	0.884559	0.518179
	C137	C	0.120861	0.127291	0.500361
	C138	C	0.878289	0.126130	0.517402
	C139	C	0.876318	0.882044	0.499887
	C140	C	0.507889	0.126366	0.888969
	C141	C	0.489849	0.127174	0.131616
	C142	C	0.508907	0.884141	0.131266
	C143	C	0.490793	0.884253	0.888048
	C144	C	0.372558	0.898520	0.693543
	C145	C	0.625428	0.111630	0.693090
	C146	C	0.621085	0.896692	0.328679
	C147	C	0.375759	0.112968	0.328915
	C148	C	0.681416	0.380466	0.902141
	C149	C	0.683311	0.630394	0.115737
	C150	C	0.319964	0.628422	0.901689
	C151	C	0.316073	0.380780	0.116116
	C152	C	0.891042	0.686310	0.384803
	C153	C	0.107783	0.686312	0.631483
	C154	C	0.892846	0.322889	0.633294
	C155	C	0.106296	0.323066	0.383265
	C156	C	0.893567	0.379775	0.691643
	C157	C	0.107415	0.629950	0.690139
	C158	C	0.891280	0.629053	0.326678
	C159	C	0.106346	0.380764	0.325880
	C160	C	0.377615	0.686203	0.901738
	C161	C	0.625575	0.688046	0.115968
	C162	C	0.623868	0.322438	0.902761
	C163	C	0.373120	0.322601	0.116245
	C164	C	0.678476	0.896644	0.386618
	C165	C	0.683005	0.111626	0.635462
	C166	C	0.315732	0.897843	0.634926
	C167	C	0.319156	0.113397	0.387693
	C168	C	0.872166	0.399895	0.192457
	C169	C	0.126033	0.612020	0.192470
	C170	C	0.129197	0.400764	0.822530
	C171	C	0.874541	0.613096	0.825274
	C172	C	0.180757	0.881037	0.402388
	C173	C	0.183468	0.132210	0.615433
	C174	C	0.815865	0.129696	0.402058
	C175	C	0.814905	0.878086	0.615226
	C176	C	0.393116	0.189411	0.882376
	C177	C	0.603988	0.191583	0.138435
	C178	C	0.392612	0.822921	0.133654
	C179	C	0.606108	0.821872	0.883140
	C180	C	0.392111	0.880664	0.190958
	C181	C	0.604315	0.133737	0.195602
	C182	C	0.393865	0.132188	0.824434
	C183	C	0.605124	0.877689	0.824201
	C184	C	0.872705	0.188342	0.402228
	C185	C	0.125765	0.189952	0.615216
	C186	C	0.123153	0.823143	0.402262
	C187	C	0.872614	0.820540	0.615302
	C188	C	0.186372	0.400623	0.880580
	C189	C	0.183156	0.612546	0.134602
	C190	C	0.815386	0.399643	0.134114
	C191	C	0.816692	0.612862	0.882537
	C192	C	0.406527	0.093386	0.603313
	C193	C	0.592940	0.915406	0.604048
	C194	C	0.593837	0.094927	0.414297
	C195	C	0.401776	0.913442	0.412286
	C196	C	0.593865	0.412372	0.098002
	C197	C	0.595404	0.601806	0.918860
	C198	C	0.404256	0.602028	0.099771
	C199	C	0.405522	0.411080	0.920689
	C200	C	0.089435	0.601323	0.412845
	C201	C	0.909329	0.599963	0.604150
	C202	C	0.089250	0.412133	0.602385
	C203	C	0.909608	0.410622	0.413088
	C204	C	0.906021	0.594950	0.102969
	C205	C	0.093668	0.416565	0.102592
	C206	C	0.095263	0.595078	0.913543
	C207	C	0.904987	0.416553	0.913056
	C208	C	0.093575	0.910330	0.598666
	C209	C	0.094396	0.100843	0.419719
	C210	C	0.904909	0.100410	0.597898
	C211	C	0.902477	0.908561	0.419367
	C212	C	0.587719	0.099357	0.916776
	C213	C	0.409409	0.100191	0.104586
	C214	C	0.590336	0.910044	0.106610
	C215	C	0.410373	0.910920	0.914928
	Zn216	Zn	0.499504	0.004887	0.759826
	Zn217	Zn	0.498745	0.005532	0.259398
	Zn218	Zn	0.749754	0.506385	0.008063
	Zn219	Zn	0.249647	0.505980	0.009043
	Zn220	Zn	-0.001255	0.755032	0.509101
	Zn221	Zn	-0.000658	0.255576	0.508327
	Zn222	Zn	0.000129	0.506052	0.758619
	Zn223	Zn	-0.000489	0.505895	0.258127
	Zn224	Zn	0.500534	0.756404	0.009337
	Zn225	Zn	0.498644	0.255582	0.010074
	Zn226	Zn	0.748802	0.004774	0.509243
	Zn227	Zn	0.249280	0.005238	0.509971
	N228	N	0.411308	0.971325	0.690725
	N229	N	0.587292	0.038394	0.690475
	N230	N	0.584868	0.970765	0.329694
	N231	N	0.410963	0.038468	0.328774
	N232	N	0.679589	0.418528	0.975035
	N233	N	0.680952	0.593542	0.042389
	N234	N	0.320653	0.592431	0.975420
	N235	N	0.318887	0.418479	0.043134
	N236	N	0.964765	0.685013	0.421679
	N237	N	0.034168	0.684028	0.594407
	N238	N	0.965612	0.326009	0.594973
	N239	N	0.033118	0.325434	0.420934
	N240	N	0.966858	0.417660	0.689429
	N241	N	0.033630	0.592994	0.688868
	N242	N	0.965195	0.592640	0.328087
	N243	N	0.033169	0.418318	0.327843
	N244	N	0.413725	0.685663	0.975571
	N245	N	0.587688	0.686203	0.042979
	N246	N	0.586602	0.324972	0.975882
	N247	N	0.411012	0.324734	0.043393
	N248	N	0.677583	0.970463	0.423102
	N249	N	0.680008	0.038627	0.597393
	N250	N	0.319697	0.970308	0.596100
	N251	N	0.319553	0.039130	0.423202
	N252	N	0.911364	0.472292	0.189425
	N253	N	0.087793	0.539039	0.189604
	N254	N	0.089512	0.472804	0.826282
	N255	N	0.912316	0.539982	0.827625
	N256	N	0.178956	0.918333	0.475579
	N257	N	0.180589	0.093847	0.542799
	N258	N	0.818925	0.091755	0.474858
	N259	N	0.817095	0.915863	0.542307
	N260	N	0.465123	0.185914	0.922064
	N261	N	0.531687	0.187822	0.099231
	N262	N	0.466428	0.824752	0.097184
	N263	N	0.533907	0.825927	0.922505
	N264	N	0.465424	0.918269	0.189518
	N265	N	0.532086	0.094126	0.191480
	N266	N	0.466276	0.093404	0.828328
	N267	N	0.532392	0.916009	0.827238
	N268	N	0.910832	0.186470	0.475105
	N269	N	0.087504	0.187056	0.542461
	N270	N	0.085607	0.825152	0.475346
	N271	N	0.910187	0.822847	0.542336
	N272	N	0.182117	0.472630	0.919960
	N273	N	0.179838	0.539878	0.095879
	N274	N	0.819377	0.471815	0.095071
	N275	N	0.818994	0.539637	0.920123
	O276	O	-0.059478	1.244983	0.060183
	H277	H	-0.060583	1.227549	0.066383
	H278	H	-0.063387	1.251360	0.085937
	O279	O	-0.031370	0.163510	0.178087
	H280	H	-0.025298	0.132977	0.167523
	H281	H	-0.017761	0.157435	0.186920
	O282	O	1.451885	0.482933	0.621651
	H283	H	1.450321	0.475391	0.630137
	H284	H	1.462337	0.480064	0.620657
	O285	O	0.485233	0.286956	0.702456
	H286	H	0.504463	0.280748	0.688198
	H287	H	0.488833	0.282044	0.714922
	O288	O	0.434593	0.735941	0.568663
	H289	H	0.438259	0.723882	0.564944
	H290	H	0.441389	0.741852	0.558759
	O291	O	0.539511	0.391883	0.465571
	H292	H	0.531795	0.406701	0.464216
	H293	H	0.557187	0.389482	0.463068
	O294	O	1.048530	-0.174119	1.099743
	H295	H	1.045893	-0.180881	1.099782
	H296	H	1.050587	-0.176287	1.105959
	O297	O	0.647706	0.520701	0.457644
	H298	H	0.649529	0.519237	0.449137
	H299	H	0.652250	0.509266	0.470291
	O300	O	0.045283	0.049040	0.901642
	H301	H	0.051958	0.033201	0.905962
	H302	H	0.034660	0.034948	0.905260
	O303	O	0.477024	0.386561	0.310497
	H304	H	0.474541	0.364758	0.304313
	H305	H	0.455419	0.395863	0.313162
	O306	O	0.770224	0.871598	0.121025
	H307	H	0.770303	0.884632	0.104264
	H308	H	0.757915	0.862209	0.134557
	O309	O	0.315588	0.690271	0.699621
	H310	H	0.337095	0.682917	0.674560
	H311	H	0.338344	0.662790	0.698129
	O312	O	0.554830	0.561852	0.302103
	H313	H	0.539687	0.554796	0.301258
	H314	H	0.539441	0.576197	0.299112
	O315	O	0.775771	1.225960	0.989308
	H316	H	0.768555	1.229179	0.992348
	H317	H	0.777156	1.236016	0.990541
	O318	O	0.605757	0.436858	0.705890
	H319	H	0.629467	0.424482	0.713623
	H320	H	0.599518	0.437298	0.692247
	O321	O	0.211612	0.786495	0.793571
	H322	H	0.193741	0.793695	0.811140
	H323	H	0.244756	0.755060	0.763240
	O324	O	0.970704	0.790974	0.225549
	H325	H	0.954707	0.763474	0.253981
	H326	H	0.932899	0.797198	0.219003
	O327	O	-0.263395	0.275321	0.746085
	H328	H	-0.250982	0.251923	0.784499
	H329	H	-0.248297	0.273075	0.739177
	O330	O	0.544876	0.689571	0.467894
	H331	H	0.536468	0.678619	0.466680
	H332	H	0.543232	0.693921	0.457343
	O333	O	0.660303	0.372132	0.460959
	H334	H	0.673808	0.346941	0.458861
	H335	H	0.663664	0.369498	0.452595
	O336	O	0.883830	0.151263	-0.205938
	H337	H	0.895982	0.162459	-0.186076
	H338	H	0.893995	0.137558	-0.202554
	O339	O	1.086859	-0.060018	1.144831
	H340	H	1.087667	-0.052957	1.141823
	H341	H	1.091016	-0.066127	1.134631
	O342	O	-0.078166	-0.004342	0.169499
	H343	H	-0.069145	0.001733	0.173908
	H344	H	-0.072788	-0.011032	0.168626
	O345	O	-0.015816	1.232358	0.781131
	H346	H	-0.016989	1.261478	0.777213
	H347	H	-0.013893	1.251703	0.798903
	O348	O	-0.216096	-0.110692	-0.082422
	H349	H	-0.215094	-0.098386	-0.083909
	H350	H	-0.223655	-0.107058	-0.091212
	O351	O	0.816218	0.822961	0.187212
	H352	H	0.807510	0.832519	0.189051
	H353	H	0.796463	0.811664	0.193247
	O354	O	0.071935	0.097866	0.790328
	H355	H	0.079234	0.103506	0.785940
	H356	H	0.079796	0.109163	0.794731
	O357	O	0.264138	0.555173	0.576125
	H358	H	0.258107	0.565579	0.582736
	H359	H	0.263704	0.568575	0.583273
	O360	O	0.331529	0.305486	0.654498
	H361	H	0.372852	0.300718	0.661846
	H362	H	0.315750	0.305239	0.673588
	O363	O	0.225678	-0.221512	-0.019145
	H364	H	0.249072	-0.245252	-0.023787
	H365	H	0.211093	-0.224732	-0.030920
	O366	O	0.471086	0.714516	0.298690
	H367	H	0.439373	0.709090	0.303540
	H368	H	0.459142	0.737293	0.280683
	O369	O	1.111459	-0.078130	-0.080565
	H370	H	1.111720	-0.085342	-0.086470
	H371	H	1.123331	-0.086879	-0.069064
	O372	O	0.849846	0.868802	-0.198700
	H373	H	0.865681	0.864751	-0.193776
	H374	H	0.862655	0.900961	-0.196631
	O375	O	1.118965	0.113111	0.160055
	H376	H	1.127245	0.129421	0.165528
	H377	H	1.128212	0.118773	0.148201
	O378	O	0.587645	0.287454	0.603054
	H379	H	0.594242	0.279690	0.606830
	H380	H	0.602004	0.283306	0.593803
	O381	O	0.055745	1.246120	0.939234
	H382	H	0.051806	1.252382	0.961244
	H383	H	0.069381	1.242843	0.964293
	O384	O	0.832989	-0.017695	1.017506
	H385	H	0.840994	-0.013422	1.010115
	H386	H	0.823439	-0.023987	1.020267
	O387	O	1.218281	1.133095	-0.116331
	H388	H	1.214793	1.136347	-0.114723
	H389	H	1.201376	1.134258	-0.105505
	O390	O	0.232646	0.123125	0.025467
	H391	H	0.218912	0.104226	0.047766
	H392	H	0.255300	0.146374	0.030066
	O393	O	0.699358	0.712359	0.535381
	H394	H	0.691217	0.703708	0.524521
	H395	H	0.712081	0.728444	0.537469
	O396	O	0.074760	1.095639	0.963221
	H397	H	0.087669	1.094715	0.970309
	H398	H	0.066303	1.103149	0.961427
	O399	O	0.221045	0.033522	1.235411
	H400	H	0.232590	0.025623	1.245777
	H401	H	0.222923	0.035672	1.235323
	O402	O	0.445867	0.314189	0.389776
	H403	H	0.437605	0.324103	0.407678
	H404	H	0.447112	0.299396	0.392122
	O405	O	0.771367	0.015671	0.797307
	H406	H	0.776836	0.030135	0.786260
	H407	H	0.769892	0.015618	0.771770
	O408	O	0.213995	-0.036130	-0.201239
	H409	H	0.237694	-0.048159	-0.216268
	H410	H	0.207629	-0.051391	-0.184779
	O411	O	0.347165	0.481274	0.717304
	H412	H	0.355192	0.473521	0.706481
	H413	H	0.344812	0.458495	0.733882
	O414	O	0.486617	0.512527	0.497162
	H415	H	0.495933	0.510622	0.501282
	H416	H	0.479135	0.501311	0.496469
	O417	O	0.212829	0.219672	0.225560
	H418	H	0.211917	0.180290	0.223381
	H419	H	0.246652	0.249328	0.257255
	O420	O	0.284586	0.468534	0.444075
	H421	H	0.297239	0.456377	0.461382
	H422	H	0.278274	0.478628	0.468100
	O423	O	-0.034817	0.000531	0.933457
	H424	H	-0.048933	-0.023642	0.938393
	H425	H	-0.014971	-0.002121	0.926536
	O426	O	0.722031	0.529811	0.726511
	H427	H	0.707905	0.545009	0.725634
	H428	H	0.747764	0.537371	0.751963
	O429	O	0.698671	0.706917	0.706628
	H430	H	0.703139	0.708400	0.683248
	H431	H	0.690514	0.707025	0.712546
	O432	O	0.723477	0.447783	0.572367
	H433	H	0.724654	0.443347	0.590705
	H434	H	0.724128	0.421523	0.576555
	O435	O	0.316578	0.317061	0.320416
	H436	H	0.345283	0.334335	0.326766
	H437	H	0.324673	0.332913	0.350544
	O438	O	-0.239442	0.247845	0.249238
	H439	H	-0.254893	0.250458	0.248067
	H440	H	-0.222295	0.233145	0.233764
	O441	O	-0.024978	0.129719	0.231781
	H442	H	-0.008930	0.126367	0.230792
	H443	H	-0.010078	0.135451	0.238007
	O444	O	0.522422	0.720869	0.718758
	H445	H	0.532819	0.735215	0.729578
	H446	H	0.521228	0.722999	0.715427
	O447	O	0.195767	0.810643	1.207582
	H448	H	0.169282	0.823546	1.191198
	H449	H	0.182248	0.827702	1.186419
	O450	O	-0.001441	0.768355	0.977366
	H451	H	-0.013073	0.767687	0.994576
	H452	H	-0.023767	0.763052	0.969363
	O453	O	0.277167	0.285966	0.534830
	H454	H	0.289466	0.296210	0.580608
	H455	H	0.241964	0.250834	0.540428
	O456	O	0.099526	0.143390	1.068166
	H457	H	0.097506	0.125500	1.078185
	H458	H	0.106434	0.147123	1.063399
	O459	O	1.059901	1.016121	0.158068
	H460	H	1.054515	1.004882	0.159621
	H461	H	1.056805	1.006801	0.154955
	O462	O	0.288674	0.717494	0.481494
	H463	H	0.283034	0.737918	0.485606
	H464	H	0.292173	0.721235	0.453985
	O465	O	0.781338	-0.025546	0.228210
	H466	H	0.766915	-0.024812	0.235904
	H467	H	0.791991	-0.014266	0.227119
	O468	O	0.708535	0.294583	0.379437
	H469	H	0.720926	0.288467	0.367287
	H470	H	0.708358	0.311954	0.367479
	O471	O	0.459887	0.488789	0.422074
	H472	H	0.461806	0.491094	0.425181
	H473	H	0.462639	0.502000	0.430309
	O474	O	0.663800	0.695856	0.349987
	H475	H	0.637345	0.679374	0.356739
	H476	H	0.658744	0.678464	0.370636
	O477	O	0.394587	0.470442	1.638758
	H478	H	0.409002	0.467874	1.633699
	H479	H	0.395889	0.477050	1.637592
	O480	O	0.293492	0.531997	0.292184
	H481	H	0.279373	0.524186	0.299857
	H482	H	0.272884	0.533648	0.289441
	O483	O	0.587220	0.564712	0.603717
	H484	H	0.591283	0.564540	0.609278
	H485	H	0.590708	0.559809	0.609421
	O486	O	0.941896	-0.096460	0.871192
	H487	H	0.952892	-0.106143	0.857316
	H488	H	0.940961	-0.082361	0.878111
	O489	O	0.787406	0.785812	0.029787
	H490	H	0.762496	0.774757	0.040556
	H491	H	0.782766	0.792050	0.036845
	O492	O	0.301711	-0.295757	0.312518
	H493	H	0.274540	-0.271104	0.282684
	H494	H	0.292250	-0.323278	0.323288
	O495	O	0.032355	0.784317	0.784578
	H496	H	0.028442	0.763668	0.779645
	H497	H	0.048913	0.787404	0.773964
	O498	O	0.929278	1.058022	1.050015
	H499	H	0.936007	1.041082	1.039977
	H500	H	0.926730	1.064693	1.037241
	O501	O	0.705091	0.472812	0.305473
	H502	H	0.707811	0.478928	0.302802
	H503	H	0.700001	0.477735	0.299070
