data_Molecule from HDF5

_cell_length_a		16.367774
_cell_length_b		16.416309
_cell_length_c		16.293232
_cell_angle_alpha	90.042537
_cell_angle_beta	89.705073
_cell_angle_gamma	90.168674
_symmetry_space_group_name_H-M	'P 1'
_symmetry_Int_Tables_number		1

loop_
	_symmetry_equiv_pos_as_xyz
	x,y,z

loop_
	_atom_site_label
	_atom_site_type_symbol
	_atom_site_fract_x
	_atom_site_fract_y
	_atom_site_fract_z
	H0	H	0.397104	0.829097	0.723261
	H1	H	0.599986	0.150903	0.723629
	H2	H	0.601510	0.829413	0.287584
	H3	H	0.398431	0.150627	0.286818
	H4	H	0.717400	0.388346	0.841993
	H5	H	0.718034	0.592276	0.165134
	H6	H	0.284129	0.589895	0.842734
	H7	H	0.281333	0.386611	0.165886
	H8	H	0.840495	0.709881	0.403030
	H9	H	0.159974	0.712020	0.611324
	H10	H	0.840161	0.270894	0.611813
	H11	H	0.161081	0.273406	0.402971
	H12	H	0.839443	0.390184	0.723816
	H13	H	0.162155	0.591306	0.722721
	H14	H	0.839868	0.592340	0.288393
	H15	H	0.160528	0.389128	0.287200
	H16	H	0.399210	0.705960	0.842546
	H17	H	0.603932	0.709255	0.164776
	H18	H	0.602900	0.270824	0.843650
	H19	H	0.398479	0.273543	0.167207
	H20	H	0.718043	0.830181	0.404565
	H21	H	0.721186	0.149849	0.612027
	H22	H	0.278803	0.831837	0.611993
	H23	H	0.284538	0.152939	0.406518
	H24	H	0.896973	0.328872	0.224328
	H25	H	0.103809	0.650099	0.223710
	H26	H	0.102430	0.328871	0.786352
	H27	H	0.900033	0.649804	0.787772
	H28	H	0.218256	0.890981	0.345443
	H29	H	0.217495	0.095346	0.668651
	H30	H	0.781473	0.094535	0.345386
	H31	H	0.779423	0.886228	0.666712
	H32	H	0.338980	0.208285	0.902862
	H33	H	0.660844	0.210040	0.108787
	H34	H	0.340270	0.768973	0.109070
	H35	H	0.660036	0.770266	0.898342
	H36	H	0.338741	0.888259	0.223130
	H37	H	0.661270	0.091424	0.222552
	H38	H	0.337912	0.091042	0.788573
	H39	H	0.660190	0.888793	0.786024
	H40	H	0.897701	0.209764	0.345362
	H41	H	0.103297	0.210985	0.667732
	H42	H	0.104796	0.771918	0.346039
	H43	H	0.895980	0.771897	0.667391
	H44	H	0.217519	0.327770	0.902291
	H45	H	0.221543	0.648118	0.108158
	H46	H	0.780284	0.329442	0.107899
	H47	H	0.781868	0.648419	0.899815
	H48	H	0.410806	0.103844	0.594886
	H49	H	0.586023	0.877268	0.597301
	H50	H	0.592996	0.105668	0.414141
	H51	H	0.411110	0.877580	0.414871
	H52	H	0.598719	0.398290	0.121931
	H53	H	0.584529	0.580601	0.890897
	H54	H	0.415973	0.579427	0.118364
	H55	H	0.397978	0.387650	0.882628
	H56	H	0.114603	0.583216	0.417687
	H57	H	0.887163	0.577598	0.596010
	H58	H	0.114514	0.395940	0.592545
	H59	H	0.886248	0.398816	0.419394
	H60	H	0.113382	0.403591	0.593189
	H61	H	0.884760	0.582492	0.601263
	H62	H	0.114570	0.579101	0.414965
	H63	H	0.886075	0.400966	0.414754
	H64	H	0.408261	0.581587	0.120416
	H65	H	0.594996	0.585801	0.885605
	H66	H	0.588027	0.407740	0.116338
	H67	H	0.406296	0.411631	0.892275
	H68	H	0.588391	0.104877	0.413114
	H69	H	0.590835	0.877755	0.590705
	H70	H	0.406679	0.106092	0.598089
	H71	H	0.406639	0.876979	0.418864
	H72	H	0.910428	0.602346	0.097385
	H73	H	0.092278	0.376819	0.090424
	H74	H	0.087210	0.603227	0.909676
	H75	H	0.916179	0.377117	0.915872
	H76	H	0.087605	0.899451	0.621724
	H77	H	0.095363	0.090491	0.388599
	H78	H	0.913395	0.076861	0.618050
	H79	H	0.906216	0.894494	0.387908
	H80	H	0.613613	0.072124	0.907735
	H81	H	0.386296	0.087776	0.089391
	H82	H	0.616661	0.900158	0.103394
	H83	H	0.385272	0.896968	0.915363
	H84	H	0.616924	0.890228	0.092474
	H85	H	0.389910	0.072076	0.093361
	H86	H	0.617229	0.091354	0.913253
	H87	H	0.385257	0.896785	0.916086
	H88	H	0.912398	0.084418	0.621659
	H89	H	0.098690	0.074551	0.392386
	H90	H	0.090275	0.900802	0.622001
	H91	H	0.906855	0.906927	0.392853
	H92	H	0.091399	0.600015	0.922116
	H93	H	0.093957	0.372648	0.100124
	H94	H	0.909232	0.602671	0.094653
	H95	H	0.905883	0.375014	0.920123
	H96	H	0.411485	0.104574	0.601009
	H97	H	0.592799	0.874940	0.597731
	H98	H	0.590617	0.103109	0.417187
	H99	H	0.405456	0.875872	0.413542
	H100	H	0.584104	0.393175	0.119828
	H101	H	0.595740	0.574021	0.890100
	H102	H	0.408613	0.574310	0.117971
	H103	H	0.423420	0.390651	0.891863
	H104	H	0.115518	0.583159	0.413341
	H105	H	0.885870	0.584113	0.594000
	H106	H	0.116180	0.400297	0.598969
	H107	H	0.884502	0.396150	0.415279
	H108	H	0.907790	0.604567	0.097116
	H109	H	0.084305	0.376620	0.097794
	H110	H	0.100273	0.605570	0.913633
	H111	H	0.908430	0.372090	0.909654
	H112	H	0.087195	0.901991	0.621245
	H113	H	0.083134	0.080560	0.395100
	H114	H	0.906251	0.079280	0.620832
	H115	H	0.918186	0.898969	0.393674
	H116	H	0.609162	0.078186	0.925855
	H117	H	0.383119	0.082204	0.104680
	H118	H	0.611234	0.903648	0.089828
	H119	H	0.383862	0.897233	0.916530
	C120	C	0.377656	-0.000993	0.629123
	C121	C	0.620913	0.982182	0.627445
	C122	C	0.621343	-0.001287	0.384305
	C123	C	0.378111	0.982943	0.385285
	C124	C	0.621539	0.368246	0.012944
	C125	C	0.622357	0.611469	0.995176
	C126	C	0.380242	0.609092	0.012445
	C127	C	0.378335	0.366892	0.995905
	C128	C	0.008803	0.612333	0.384804
	C129	C	0.991996	0.612113	0.627613
	C130	C	0.008707	0.369162	0.626950
	C131	C	0.991446	0.368650	0.385163
	C132	C	0.877850	0.497566	0.127280
	C133	C	0.121735	0.481185	0.126487
	C134	C	0.123151	0.497106	0.883515
	C135	C	0.880024	0.480821	0.884174
	C136	C	0.120772	0.870035	0.515332
	C137	C	0.122330	0.113080	0.498475
	C138	C	0.879159	0.111770	0.514328
	C139	C	0.878748	0.869229	0.497948
	C140	C	0.507438	0.111023	0.884660
	C141	C	0.492269	0.111613	0.126725
	C142	C	0.508591	0.867316	0.126673
	C143	C	0.491093	0.867312	0.883676
	C144	C	0.377536	0.877933	0.685650
	C145	C	0.620636	0.102608	0.685830
	C146	C	0.621241	0.877704	0.326295
	C147	C	0.378857	0.103098	0.326565
	C148	C	0.678781	0.368485	0.890623
	C149	C	0.679558	0.611492	0.116707
	C150	C	0.323196	0.608850	0.890944
	C151	C	0.320516	0.367456	0.117654
	C152	C	0.888359	0.670262	0.384396
	C153	C	0.112291	0.671456	0.629168
	C154	C	0.888040	0.310767	0.629089
	C155	C	0.112806	0.311739	0.384123
	C156	C	0.887500	0.369983	0.685141
	C157	C	0.113512	0.611500	0.684736
	C158	C	0.887964	0.612027	0.327187
	C159	C	0.112553	0.369337	0.326447
	C160	C	0.380110	0.666968	0.891024
	C161	C	0.622550	0.669590	0.116640
	C162	C	0.621700	0.310409	0.891484
	C163	C	0.378789	0.311080	0.118345
	C164	C	0.679248	0.878192	0.384346
	C165	C	0.680454	0.102293	0.629698
	C166	C	0.318496	0.879256	0.629939
	C167	C	0.322311	0.104184	0.386272
	C168	C	0.877229	0.376947	0.185340
	C169	C	0.122759	0.601744	0.184580
	C170	C	0.122344	0.376905	0.825056
	C171	C	0.880462	0.601621	0.826450
	C172	C	0.179714	0.870474	0.393949
	C173	C	0.179199	0.114012	0.620108
	C174	C	0.820342	0.113404	0.393659
	C175	C	0.819116	0.867749	0.618680
	C176	C	0.386984	0.169092	0.883900
	C177	C	0.612819	0.170191	0.127220
	C178	C	0.387954	0.808784	0.127792
	C179	C	0.611924	0.809669	0.881014
	C180	C	0.387323	0.868067	0.184471
	C181	C	0.613243	0.111195	0.183772
	C182	C	0.386345	0.110386	0.827206
	C183	C	0.611975	0.868580	0.824904
	C184	C	0.878342	0.170531	0.393560
	C185	C	0.122351	0.171703	0.619637
	C186	C	0.123179	0.811503	0.393999
	C187	C	0.877191	0.810761	0.618954
	C188	C	0.179445	0.376149	0.883016
	C189	C	0.181270	0.600798	0.127044
	C190	C	0.818899	0.377269	0.127633
	C191	C	0.821345	0.600778	0.882227
	C192	C	0.402363	0.083212	0.605092
	C193	C	0.596762	0.898423	0.602540
	C194	C	0.597602	0.082419	0.407810
	C195	C	0.400986	0.898699	0.409031
	C196	C	0.597346	0.392696	0.097391
	C197	C	0.598756	0.587293	0.910814
	C198	C	0.403971	0.585386	0.097070
	C199	C	0.402347	0.389864	0.910821
	C200	C	0.092986	0.588598	0.408365
	C201	C	0.907818	0.588322	0.603962
	C202	C	0.092779	0.393019	0.602071
	C203	C	0.907506	0.391919	0.409461
	C204	C	0.902139	0.581239	0.103454
	C205	C	0.097154	0.397183	0.103185
	C206	C	0.099784	0.581114	0.908142
	C207	C	0.903532	0.396702	0.908302
	C208	C	0.095656	0.893802	0.599535
	C209	C	0.099165	0.088953	0.413908
	C210	C	0.903502	0.087271	0.598332
	C211	C	0.903426	0.893372	0.413469
	C212	C	0.591496	0.087338	0.908567
	C213	C	0.408134	0.087682	0.102797
	C214	C	0.592945	0.891010	0.102288
	C215	C	0.406810	0.890348	0.908764
	Zn216	Zn	0.499199	-0.010384	0.756664
	Zn217	Zn	0.499928	-0.009696	0.255050
	Zn218	Zn	0.750210	0.489125	0.003973
	Zn219	Zn	0.250947	0.488214	0.004399
	Zn220	Zn	0.000250	0.741058	0.506150
	Zn221	Zn	0.000485	0.240000	0.506518
	Zn222	Zn	0.000994	0.489521	0.755815
	Zn223	Zn	-0.000140	0.490137	0.256411
	Zn224	Zn	0.500140	0.738722	0.004209
	Zn225	Zn	0.500038	0.240215	0.005104
	Zn226	Zn	0.750959	-0.009072	0.506251
	Zn227	Zn	0.249258	-0.008427	0.508092
	N228	N	0.413429	0.953561	0.685367
	N229	N	0.584459	0.027042	0.684428
	N230	N	0.585917	0.953658	0.326125
	N231	N	0.413029	0.026740	0.325941
	N232	N	0.678781	0.403984	0.967078
	N233	N	0.680020	0.576421	0.040059
	N234	N	0.323165	0.573476	0.967444
	N235	N	0.320174	0.401412	0.040539
	N236	N	0.964647	0.670521	0.419352
	N237	N	0.035929	0.672025	0.594516
	N238	N	0.964310	0.310239	0.593647
	N239	N	0.036609	0.311091	0.419919
	N240	N	0.963598	0.405586	0.683822
	N241	N	0.037600	0.575486	0.684203
	N242	N	0.964010	0.576735	0.327178
	N243	N	0.036387	0.404176	0.326937
	N244	N	0.414858	0.667246	0.967794
	N245	N	0.588181	0.670149	0.039970
	N246	N	0.587085	0.310070	0.968514
	N247	N	0.414012	0.310736	0.041581
	N248	N	0.679571	0.954093	0.419654
	N249	N	0.681124	0.026309	0.594225
	N250	N	0.318468	0.955756	0.595581
	N251	N	0.321587	0.028238	0.421793
	N252	N	0.913007	0.452807	0.185499
	N253	N	0.086571	0.526105	0.184629
	N254	N	0.087862	0.453203	0.825277
	N255	N	0.916155	0.526027	0.827578
	N256	N	0.178441	0.906082	0.470372
	N257	N	0.179245	0.078258	0.543855
	N258	N	0.820792	0.077455	0.469882
	N259	N	0.820041	0.903301	0.542393
	N260	N	0.463082	0.169470	0.919046
	N261	N	0.536535	0.170563	0.092450
	N262	N	0.464606	0.807996	0.092739
	N263	N	0.535747	0.808820	0.917003
	N264	N	0.463500	0.903493	0.184128
	N265	N	0.537207	0.075548	0.183613
	N266	N	0.462342	0.074914	0.827587
	N267	N	0.535817	0.903598	0.826322
	N268	N	0.914065	0.169737	0.469610
	N269	N	0.087616	0.171356	0.542930
	N270	N	0.087459	0.811027	0.470400
	N271	N	0.913617	0.811387	0.542685
	N272	N	0.180279	0.452213	0.918305
	N273	N	0.180598	0.524888	0.091634
	N274	N	0.819249	0.453203	0.092145
	N275	N	0.821004	0.524652	0.917530
	O276	O	0.596948	0.420184	0.446689
	H277	H	0.594513	0.425878	0.453672
	H278	H	0.595487	0.430607	0.439191
	O279	O	0.486938	0.566974	0.567853
	H280	H	0.491365	0.572539	0.569243
	H281	H	0.478761	0.560414	0.564509
	O282	O	0.849444	0.148392	0.986282
	H283	H	0.857635	0.146065	0.984185
	H284	H	0.850347	0.142723	0.988542
	O285	O	0.624232	0.336064	0.423068
	H286	H	0.621451	0.334344	0.423826
	H287	H	0.643164	0.337568	0.418507
	O288	O	0.977550	1.003291	0.980974
	H289	H	0.977056	0.998003	0.983131
	H290	H	0.981528	0.994571	0.980497
	O291	O	0.133507	0.828686	-0.177723
	H292	H	0.135338	0.813569	-0.156843
	H293	H	0.125126	0.832835	-0.177022
	O294	O	0.533558	0.532250	0.578936
	H295	H	0.527327	0.524235	0.585390
	H296	H	0.534727	0.543991	0.583175
	O297	O	0.491011	0.600259	0.510606
	H298	H	0.490781	0.604746	0.505945
	H299	H	0.489030	0.605066	0.503687
	O300	O	0.521342	0.440440	0.550361
	H301	H	0.521363	0.444438	0.548315
	H302	H	0.509906	0.443417	0.560906
	O303	O	0.554989	0.403174	0.377242
	H304	H	0.562878	0.406094	0.389354
	H305	H	0.547335	0.395155	0.378921
	O306	O	0.599883	0.547893	0.566339
	H307	H	0.595082	0.557627	0.563131
	H308	H	0.598138	0.552851	0.568021
	O309	O	0.521454	0.493796	0.653717
	H310	H	0.520243	0.476001	0.661723
	H311	H	0.521785	0.487953	0.651070
	O312	O	-0.036518	0.176149	-0.017111
	H313	H	-0.042298	0.194136	-0.014588
	H314	H	-0.030826	0.159019	-0.035693
	O315	O	0.523260	0.345830	0.440738
	H316	H	0.529814	0.353491	0.435771
	H317	H	0.517687	0.337733	0.431042
	O318	O	0.151305	1.002594	0.987456
	H319	H	0.153911	1.005837	0.997055
	H320	H	0.140332	1.005272	0.978012
	O321	O	0.514403	0.547570	0.540392
	H322	H	0.508958	0.546895	0.548096
	H323	H	0.523349	0.561966	0.537156
	O324	O	-0.196178	0.817940	0.094104
	H325	H	-0.190860	0.821685	0.088907
	H326	H	-0.214184	0.796654	0.094513
	O327	O	0.301725	0.766042	0.242325
	H328	H	0.300739	0.770277	0.250467
	H329	H	0.293657	0.767794	0.242973
	O330	O	-0.142464	-0.064238	0.906772
	H331	H	-0.141490	-0.050915	0.906224
	H332	H	-0.122090	-0.071218	0.889936
	O333	O	0.132982	0.172185	1.130598
	H334	H	0.130453	0.179731	1.124931
	H335	H	0.128075	0.170171	1.120619
	O336	O	0.354349	0.466264	0.582735
	H337	H	0.366877	0.463310	0.581755
	H338	H	0.365844	0.462946	0.578449
	O339	O	0.933321	0.040240	-0.108465
	H340	H	0.938235	0.027096	-0.113605
	H341	H	0.948570	0.028964	-0.098816
	O342	O	0.125264	0.116762	0.052906
	H343	H	0.135141	0.128748	0.062171
	H344	H	0.134351	0.119239	0.047050
	O345	O	1.019772	0.063437	1.106670
	H346	H	1.021117	0.061275	1.112737
	H347	H	1.012585	0.058589	1.106955
	O348	O	0.933164	1.004480	0.034216
	H349	H	0.931770	0.991423	0.039805
	H350	H	0.927745	1.008205	0.018655
	O351	O	0.503118	0.392403	0.441572
	H352	H	0.514359	0.403119	0.436453
	H353	H	0.502861	0.378682	0.441190
	O354	O	1.019226	-0.084394	0.837190
	H355	H	1.029795	-0.083349	0.839939
	H356	H	1.000707	-0.098475	0.829552
	O357	O	0.314765	0.568268	0.386207
	H358	H	0.306135	0.586771	0.372371
	H359	H	0.308533	0.566840	0.372752
	O360	O	0.508070	0.377596	0.609983
	H361	H	0.513922	0.356467	0.621007
	H362	H	0.505588	0.376588	0.611785
	O363	O	0.085264	0.921761	0.881483
	H364	H	0.085868	0.915926	0.884866
	H365	H	0.078361	0.925913	0.875520
	O366	O	0.399914	0.455305	0.362639
	H367	H	0.390951	0.450664	0.353659
	H368	H	0.391719	0.453853	0.375015
	O369	O	-0.163871	0.961899	-0.120281
	H370	H	-0.157001	0.971871	-0.111372
	H371	H	-0.179800	0.971317	-0.123040
	O372	O	0.354658	0.577261	0.555764
	H373	H	0.352644	0.571444	0.544021
	H374	H	0.349577	0.576596	0.556683
	O375	O	0.639073	0.536530	0.449798
	H376	H	0.644888	0.521431	0.452109
	H377	H	0.645445	0.549024	0.440656
	O378	O	1.000734	0.790149	-0.018524
	H379	H	0.991276	0.804771	-0.007272
	H380	H	1.003068	0.783880	-0.008016
	O381	O	1.008121	-0.095992	0.174994
	H382	H	0.995680	-0.080634	0.181168
	H383	H	1.005653	-0.082203	0.171086
	O384	O	1.155418	1.099223	0.053261
	H385	H	1.174308	1.110513	0.048841
	H386	H	1.165088	1.090791	0.055249
	O387	O	0.056317	-0.198278	0.054977
	H388	H	0.049214	-0.196253	0.078411
	H389	H	0.051948	-0.207420	0.058522
	O390	O	0.061600	1.028398	-0.095834
	H391	H	0.056271	1.018866	-0.095121
	H392	H	0.065257	1.027691	-0.092747
	O393	O	0.981062	1.071694	1.085386
	H394	H	0.966264	1.060912	1.090210
	H395	H	0.989121	1.078650	1.093433
	O396	O	0.488300	0.607556	0.483463
	H397	H	0.474830	0.618016	0.483574
	H398	H	0.492509	0.592095	0.504138
	O399	O	0.112130	1.047500	0.899011
	H400	H	0.116336	1.054057	0.881484
	H401	H	0.108765	1.034001	0.897671
	O402	O	0.629320	0.611040	0.406212
	H403	H	0.624737	0.595312	0.411195
	H404	H	0.624066	0.612731	0.403684
	O405	O	0.801047	0.888983	0.187629
	H406	H	0.797761	0.882910	0.182800
	H407	H	0.797661	0.888696	0.197502
	O408	O	0.905192	0.790583	0.208959
	H409	H	0.908032	0.796417	0.213411
	H410	H	0.889829	0.772505	0.214440
	O411	O	0.876424	0.033299	1.088685
	H412	H	0.871989	0.042178	1.089975
	H413	H	0.868796	0.035318	1.090529
	O414	O	0.484501	0.475694	0.375578
	H415	H	0.486015	0.490062	0.362282
	H416	H	0.469557	0.479339	0.375547
	O417	O	0.410887	0.435666	0.499486
	H418	H	0.416911	0.439642	0.508623
	H419	H	0.402516	0.428804	0.499296
