data_Molecule from HDF5

_cell_length_a		16.371287
_cell_length_b		16.306790
_cell_length_c		16.222606
_cell_angle_alpha	90.017209
_cell_angle_beta	89.974049
_cell_angle_gamma	90.094143
_symmetry_space_group_name_H-M	'P 1'
_symmetry_Int_Tables_number		1

loop_
	_symmetry_equiv_pos_as_xyz
	x,y,z

loop_
	_atom_site_label
	_atom_site_type_symbol
	_atom_site_fract_x
	_atom_site_fract_y
	_atom_site_fract_z
	H0	H	0.391577	0.839728	0.717663
	H1	H	0.587682	0.166475	0.718783
	H2	H	0.588397	0.839530	0.290522
	H3	H	0.393546	0.166710	0.290631
	H4	H	0.703940	0.402926	0.840229
	H5	H	0.703658	0.601565	0.167215
	H6	H	0.274167	0.601910	0.840127
	H7	H	0.273714	0.403111	0.167157
	H8	H	0.827018	0.718821	0.404239
	H9	H	0.152582	0.719257	0.603459
	H10	H	0.827972	0.286698	0.603647
	H11	H	0.151241	0.286670	0.402012
	H12	H	0.826371	0.404829	0.717127
	H13	H	0.152125	0.602612	0.719306
	H14	H	0.826215	0.600322	0.290015
	H15	H	0.152150	0.405370	0.287972
	H16	H	0.390289	0.716911	0.839505
	H17	H	0.587102	0.715882	0.167875
	H18	H	0.587084	0.288328	0.839840
	H19	H	0.389628	0.287812	0.167576
	H20	H	0.706885	0.841412	0.403417
	H21	H	0.706766	0.166207	0.606245
	H22	H	0.272999	0.841112	0.603538
	H23	H	0.274964	0.166246	0.403128
	H24	H	0.890329	0.339595	0.218822
	H25	H	0.087227	0.666616	0.217055
	H26	H	0.086296	0.338999	0.788446
	H27	H	0.891003	0.666700	0.789385
	H28	H	0.204453	0.904064	0.339538
	H29	H	0.205494	0.104329	0.666708
	H30	H	0.774847	0.103112	0.340382
	H31	H	0.774524	0.903739	0.667528
	H32	H	0.327631	0.217861	0.903963
	H33	H	0.651341	0.220558	0.103805
	H34	H	0.327132	0.787200	0.102991
	H35	H	0.652753	0.787120	0.904156
	H36	H	0.326556	0.905048	0.218583
	H37	H	0.653539	0.100855	0.217884
	H38	H	0.327668	0.101432	0.788673
	H39	H	0.652780	0.904684	0.788440
	H40	H	0.892114	0.217213	0.339512
	H41	H	0.089142	0.218822	0.667111
	H42	H	0.088226	0.789976	0.339290
	H43	H	0.890351	0.788308	0.667621
	H44	H	0.205832	0.339629	0.901049
	H45	H	0.206245	0.664815	0.103816
	H46	H	0.773355	0.339283	0.103107
	H47	H	0.772711	0.665375	0.903354
	H48	H	0.393767	0.121358	0.598786
	H49	H	0.582008	0.885936	0.600231
	H50	H	0.582593	0.120689	0.406670
	H51	H	0.398168	0.888469	0.414363
	H52	H	0.565475	0.417071	0.114148
	H53	H	0.581451	0.595822	0.886318
	H54	H	0.397380	0.591127	0.118830
	H55	H	0.398757	0.410938	0.887138
	H56	H	0.103179	0.595463	0.416437
	H57	H	0.874790	0.594545	0.597041
	H58	H	0.106665	0.411474	0.600562
	H59	H	0.875434	0.414174	0.410359
	H60	H	0.105534	0.407237	0.592682
	H61	H	0.873875	0.597918	0.596617
	H62	H	0.105716	0.592515	0.405766
	H63	H	0.871616	0.407890	0.407969
	H64	H	0.399303	0.597893	0.120434
	H65	H	0.583067	0.594595	0.886582
	H66	H	0.583344	0.394023	0.126297
	H67	H	0.395676	0.407703	0.886200
	H68	H	0.579767	0.117637	0.414611
	H69	H	0.579447	0.889104	0.593105
	H70	H	0.401522	0.118117	0.598009
	H71	H	0.393311	0.886048	0.412937
	H72	H	0.892045	0.620405	0.096471
	H73	H	0.090044	0.385342	0.091166
	H74	H	0.088883	0.619686	0.913689
	H75	H	0.898386	0.390280	0.917823
	H76	H	0.089479	0.914365	0.621360
	H77	H	0.081288	0.094686	0.387197
	H78	H	0.906426	0.098464	0.619211
	H79	H	0.903722	0.909963	0.388738
	H80	H	0.608100	0.102051	0.909582
	H81	H	0.374011	0.095640	0.098656
	H82	H	0.608502	0.904565	0.100388
	H83	H	0.376985	0.913010	0.913307
	H84	H	0.603439	0.907949	0.091464
	H85	H	0.374319	0.096105	0.096435
	H86	H	0.603612	0.095369	0.917891
	H87	H	0.373112	0.909553	0.906625
	H88	H	0.890300	0.101924	0.624206
	H89	H	0.082392	0.097099	0.386376
	H90	H	0.076977	0.916622	0.616312
	H91	H	0.892811	0.906082	0.384463
	H92	H	0.079059	0.618624	0.905645
	H93	H	0.079787	0.384191	0.104488
	H94	H	0.898310	0.619167	0.098665
	H95	H	0.887593	0.384301	0.910733
	H96	H	0.396478	0.118524	0.591832
	H97	H	0.587591	0.886665	0.593723
	H98	H	0.587844	0.119985	0.414154
	H99	H	0.397162	0.886607	0.409261
	H100	H	0.595152	0.422327	0.120601
	H101	H	0.581532	0.593779	0.887463
	H102	H	0.392879	0.595999	0.122068
	H103	H	0.394879	0.411611	0.887101
	H104	H	0.106939	0.602875	0.408916
	H105	H	0.874827	0.596385	0.593624
	H106	H	0.103326	0.415820	0.593554
	H107	H	0.874085	0.408808	0.414947
	H108	H	0.896209	0.617578	0.092805
	H109	H	0.073907	0.390339	0.090171
	H110	H	0.077609	0.614396	0.918352
	H111	H	0.900131	0.386016	0.904618
	H112	H	0.080047	0.903869	0.621686
	H113	H	0.083888	0.094846	0.386649
	H114	H	0.895177	0.086419	0.618552
	H115	H	0.894169	0.918045	0.388227
	H116	H	0.605828	0.090835	0.907973
	H117	H	0.374603	0.094325	0.097522
	H118	H	0.604958	0.914143	0.099566
	H119	H	0.374284	0.904705	0.913784
	C120	C	0.368092	0.011644	0.625242
	C121	C	0.611777	0.994927	0.625438
	C122	C	0.611841	0.011716	0.382987
	C123	C	0.368215	0.995012	0.382722
	C124	C	0.610160	0.381566	0.012320
	C125	C	0.610400	0.623605	0.995154
	C126	C	0.367621	0.624045	0.012212
	C127	C	0.367615	0.381160	0.995124
	C128	C	-0.002284	0.625461	0.381732
	C129	C	0.981567	0.625347	0.625419
	C130	C	-0.002235	0.382422	0.624303
	C131	C	0.980730	0.381567	0.381577
	C132	C	0.866863	0.510955	0.125214
	C133	C	0.110550	0.494238	0.124755
	C134	C	0.110715	0.510308	0.882270
	C135	C	0.866847	0.494594	0.881718
	C136	C	0.110905	0.882464	0.511625
	C137	C	0.111300	0.125061	0.495107
	C138	C	0.868683	0.124744	0.512192
	C139	C	0.867941	0.882123	0.495458
	C140	C	0.498281	0.124140	0.882705
	C141	C	0.481504	0.124671	0.126132
	C142	C	0.498179	0.880507	0.125969
	C143	C	0.482100	0.880525	0.882175
	C144	C	0.371111	0.888704	0.680044
	C145	C	0.608771	0.117799	0.681054
	C146	C	0.609278	0.888665	0.327912
	C147	C	0.372137	0.117760	0.327716
	C148	C	0.665752	0.382990	0.889111
	C149	C	0.665654	0.621691	0.118434
	C150	C	0.312053	0.622491	0.888931
	C151	C	0.311735	0.382773	0.118235
	C152	C	0.875547	0.680764	0.383887
	C153	C	0.103594	0.681291	0.623604
	C154	C	0.875999	0.325672	0.622888
	C155	C	0.103203	0.325726	0.382434
	C156	C	0.875187	0.384165	0.679548
	C157	C	0.103594	0.623420	0.681373
	C158	C	0.875050	0.622062	0.327074
	C159	C	0.103592	0.384442	0.325831
	C160	C	0.370354	0.679253	0.888783
	C161	C	0.607883	0.678549	0.118647
	C162	C	0.607868	0.326056	0.888895
	C163	C	0.369337	0.325700	0.118448
	C164	C	0.667943	0.889457	0.384194
	C165	C	0.667863	0.117586	0.624955
	C166	C	0.311952	0.889416	0.623537
	C167	C	0.312869	0.117533	0.383550
	C168	C	0.869630	0.388251	0.180718
	C169	C	0.108071	0.617407	0.179658
	C170	C	0.107663	0.387795	0.826141
	C171	C	0.870134	0.617629	0.826881
	C172	C	0.166487	0.884128	0.388412
	C173	C	0.167299	0.123938	0.617835
	C174	C	0.813598	0.122477	0.388804
	C175	C	0.812533	0.883742	0.618765
	C176	C	0.376085	0.179701	0.884180
	C177	C	0.603558	0.181140	0.123805
	C178	C	0.375843	0.825018	0.123784
	C179	C	0.604288	0.825080	0.883929
	C180	C	0.375441	0.883726	0.180919
	C181	C	0.604439	0.121953	0.180489
	C182	C	0.376187	0.121870	0.826696
	C183	C	0.604385	0.883423	0.826428
	C184	C	0.871554	0.179608	0.388620
	C185	C	0.109469	0.180784	0.618095
	C186	C	0.108753	0.827173	0.388448
	C187	C	0.870034	0.826181	0.618599
	C188	C	0.166861	0.388207	0.882154
	C189	C	0.167532	0.616362	0.123755
	C190	C	0.811371	0.388249	0.123514
	C191	C	0.811360	0.617151	0.883592
	C192	C	0.390536	0.097288	0.602718
	C193	C	0.589569	0.909374	0.602436
	C194	C	0.589990	0.097213	0.405470
	C195	C	0.389813	0.909137	0.405689
	C196	C	0.587673	0.404352	0.098169
	C197	C	0.588511	0.601370	0.908992
	C198	C	0.389788	0.601399	0.098259
	C199	C	0.390036	0.403541	0.909051
	C200	C	0.083231	0.603544	0.403840
	C201	C	0.896317	0.602744	0.602606
	C202	C	0.083165	0.404959	0.602094
	C203	C	0.895739	0.403720	0.404475
	C204	C	0.888882	0.596858	0.102476
	C205	C	0.087794	0.408825	0.102019
	C206	C	0.088363	0.595582	0.905778
	C207	C	0.888811	0.408959	0.904285
	C208	C	0.088875	0.905077	0.597646
	C209	C	0.088953	0.102124	0.408867
	C210	C	0.890811	0.102240	0.598343
	C211	C	0.890170	0.904705	0.409400
	C212	C	0.583734	0.102446	0.905086
	C213	C	0.396349	0.102089	0.104063
	C214	C	0.583353	0.902496	0.103690
	C215	C	0.397094	0.902613	0.904512
	Zn216	Zn	0.490072	0.003254	0.753840
	Zn217	Zn	0.490250	0.002617	0.254884
	Zn218	Zn	0.738444	0.502517	0.003613
	Zn219	Zn	0.239500	0.501829	0.003442
	Zn220	Zn	-0.010071	0.754315	0.503185
	Zn221	Zn	-0.009923	0.253425	0.503621
	Zn222	Zn	-0.010572	0.502836	0.753731
	Zn223	Zn	-0.010970	0.503003	0.253388
	Zn224	Zn	0.490061	0.751606	0.003716
	Zn225	Zn	0.489233	0.253423	0.003860
	Zn226	Zn	0.740233	0.004081	0.504220
	Zn227	Zn	0.238874	0.003723	0.503228
	N228	N	0.405066	0.965863	0.681218
	N229	N	0.574620	0.040693	0.681303
	N230	N	0.574983	0.965432	0.327086
	N231	N	0.405748	0.040543	0.327152
	N232	N	0.667254	0.416834	0.966798
	N233	N	0.667441	0.588250	0.040556
	N234	N	0.310304	0.588579	0.966496
	N235	N	0.310401	0.416373	0.040479
	N236	N	0.952749	0.682770	0.417210
	N237	N	0.026610	0.682681	0.589693
	N238	N	0.953179	0.324641	0.589240
	N239	N	0.026289	0.323823	0.416411
	N240	N	0.951773	0.418980	0.680367
	N241	N	0.026677	0.589222	0.682609
	N242	N	0.952089	0.588470	0.325437
	N243	N	0.026624	0.418640	0.325254
	N244	N	0.404004	0.680521	0.966536
	N245	N	0.574243	0.679591	0.041037
	N246	N	0.574054	0.324997	0.966554
	N247	N	0.403599	0.324738	0.041040
	N248	N	0.669413	0.966816	0.418166
	N249	N	0.669974	0.040092	0.591066
	N250	N	0.309796	0.966923	0.590140
	N251	N	0.310383	0.040002	0.416970
	N252	N	0.903242	0.465548	0.181971
	N253	N	0.073420	0.540467	0.180464
	N254	N	0.073501	0.464706	0.826136
	N255	N	0.903876	0.540430	0.825605
	N256	N	0.167973	0.918094	0.466010
	N257	N	0.168466	0.089909	0.540217
	N258	N	0.811547	0.089394	0.466771
	N259	N	0.811096	0.917855	0.541157
	N260	N	0.452899	0.181189	0.918489
	N261	N	0.526126	0.183067	0.090823
	N262	N	0.453079	0.822811	0.090463
	N263	N	0.527359	0.823242	0.917850
	N264	N	0.452530	0.917635	0.182540
	N265	N	0.527719	0.087514	0.182026
	N266	N	0.452989	0.088011	0.825961
	N267	N	0.527509	0.917247	0.825123
	N268	N	0.904863	0.181333	0.466372
	N269	N	0.075374	0.181510	0.540567
	N270	N	0.074945	0.826180	0.466077
	N271	N	0.903853	0.825194	0.541013
	N272	N	0.169012	0.465555	0.916312
	N273	N	0.169160	0.538814	0.090258
	N274	N	0.809502	0.465713	0.089879
	N275	N	0.809495	0.539715	0.917256
	O276	O	0.543401	0.470596	0.521602
	H277	H	0.546331	0.473917	0.525055
	H278	H	0.546723	0.462420	0.523234
	O279	O	0.484184	0.530102	0.531749
	H280	H	0.483354	0.529348	0.532750
	H281	H	0.491590	0.533198	0.522752
	O282	O	0.504340	0.447166	0.455598
	H283	H	0.503822	0.446036	0.459662
	H284	H	0.503931	0.445307	0.461531
	O285	O	0.053503	0.980119	0.956008
	H286	H	0.059746	0.984405	0.954165
	H287	H	0.062108	0.970488	0.959269
	O288	O	1.081933	0.952982	-0.001408
	H289	H	1.076863	0.952428	0.004429
	H290	H	1.095516	0.950228	0.014799
	O291	O	0.014843	-0.032600	1.001050
	H292	H	0.015970	-0.039021	0.994782
	H293	H	0.013559	-0.027438	0.999922
	O294	O	0.498300	0.550002	0.549334
	H295	H	0.499836	0.547862	0.542271
	H296	H	0.489957	0.552318	0.552282
	O297	O	0.537643	0.522466	0.587890
	H298	H	0.537242	0.524044	0.574329
	H299	H	0.557791	0.531959	0.585556
	O300	O	0.468481	0.495288	0.494942
	H301	H	0.468608	0.495990	0.503076
	H302	H	0.470588	0.496696	0.495440
	O303	O	0.475562	0.517350	0.486256
	H304	H	0.469392	0.517894	0.491650
	H305	H	0.475453	0.521066	0.490353
	O306	O	1.050143	-0.029085	1.017005
	H307	H	1.049881	-0.028950	1.007057
	H308	H	1.047658	-0.040862	1.014074
	O309	O	0.477981	0.504521	0.422183
	H310	H	0.477141	0.504537	0.422693
	H311	H	0.471016	0.497314	0.419847
	O312	O	0.469160	0.487369	0.534877
	H313	H	0.465236	0.497653	0.538783
	H314	H	0.473716	0.488303	0.522282
	O315	O	1.080736	-0.074051	1.032328
	H316	H	1.075070	-0.073515	1.024103
	H317	H	1.080556	-0.075406	1.031123
	O318	O	0.048450	-0.047519	-0.073267
	H319	H	0.042147	-0.054974	-0.077980
	H320	H	0.051671	-0.050494	-0.076258
	O321	O	0.484873	0.446218	0.542092
	H322	H	0.486543	0.457415	0.543173
	H323	H	0.495303	0.444135	0.544630
	O324	O	1.050892	-0.042157	-0.044713
	H325	H	1.052510	-0.033617	-0.044650
	H326	H	1.047063	-0.033161	-0.047659
	O327	O	1.319828	0.671383	-0.323433
	H328	H	1.323247	0.672722	-0.321722
	H329	H	1.319837	0.661823	-0.323134
	O330	O	0.487207	0.490321	0.469141
	H331	H	0.480443	0.478173	0.467797
	H332	H	0.482174	0.490468	0.472971
	O333	O	0.512347	0.572618	0.534906
	H334	H	0.509599	0.581762	0.517050
	H335	H	0.515981	0.563210	0.542067
