data_Molecule from HDF5

_cell_length_a		16.727519
_cell_length_b		16.531893
_cell_length_c		16.561461
_cell_angle_alpha	89.927596
_cell_angle_beta	89.883527
_cell_angle_gamma	90.233356
_symmetry_space_group_name_H-M	'P 1'
_symmetry_Int_Tables_number		1

loop_
	_symmetry_equiv_pos_as_xyz
	x,y,z

loop_
	_atom_site_label
	_atom_site_type_symbol
	_atom_site_fract_x
	_atom_site_fract_y
	_atom_site_fract_z
	H0	H	0.400133	0.854878	0.712871
	H1	H	0.606365	0.169610	0.712977
	H2	H	0.607386	0.857288	0.272061
	H3	H	0.399137	0.170183	0.274210
	H4	H	0.726930	0.407106	0.838083
	H5	H	0.726408	0.619681	0.149012
	H6	H	0.284819	0.618826	0.836019
	H7	H	0.281400	0.406409	0.147657
	H8	H	0.848302	0.734180	0.386648
	H9	H	0.157156	0.736572	0.597713
	H10	H	0.848826	0.288786	0.600760
	H11	H	0.158423	0.291837	0.390148
	H12	H	0.849488	0.405585	0.717321
	H13	H	0.158820	0.618842	0.713489
	H14	H	0.849208	0.618215	0.269362
	H15	H	0.159354	0.409371	0.273688
	H16	H	0.403764	0.732835	0.836397
	H17	H	0.609742	0.734894	0.149106
	H18	H	0.607119	0.294403	0.835688
	H19	H	0.399985	0.292813	0.148610
	H20	H	0.724053	0.857780	0.386420
	H21	H	0.726285	0.167128	0.600938
	H22	H	0.279525	0.856460	0.601627
	H23	H	0.283497	0.169609	0.390894
	H24	H	0.899658	0.354903	0.212209
	H25	H	0.107063	0.668885	0.212030
	H26	H	0.103914	0.355002	0.775533
	H27	H	0.900343	0.669425	0.772234
	H28	H	0.223990	0.909271	0.337242
	H29	H	0.221104	0.116215	0.651267
	H30	H	0.777913	0.120762	0.338820
	H31	H	0.780027	0.904341	0.648350
	H32	H	0.348541	0.234296	0.888330
	H33	H	0.660094	0.232842	0.094615
	H34	H	0.349733	0.789268	0.099729
	H35	H	0.658860	0.792471	0.888714
	H36	H	0.348546	0.907625	0.215341
	H37	H	0.659933	0.117203	0.213070
	H38	H	0.347475	0.115970	0.773325
	H39	H	0.658286	0.908392	0.771413
	H40	H	0.897465	0.233640	0.337554
	H41	H	0.101461	0.228495	0.652162
	H42	H	0.104211	0.796205	0.334991
	H43	H	0.898887	0.791760	0.649126
	H44	H	0.222606	0.356462	0.888846
	H45	H	0.224052	0.669256	0.096013
	H46	H	0.782556	0.356056	0.097824
	H47	H	0.781857	0.668072	0.885144
	H48	H	0.415426	0.124634	0.585502
	H49	H	0.596164	0.897235	0.585144
	H50	H	0.587156	0.124644	0.401528
	H51	H	0.411505	0.899127	0.402249
	H52	H	0.597638	0.430179	0.105681
	H53	H	0.596922	0.599164	0.881437
	H54	H	0.412032	0.597524	0.104545
	H55	H	0.409260	0.425763	0.878624
	H56	H	0.112667	0.599553	0.402708
	H57	H	0.894753	0.595947	0.583357
	H58	H	0.116154	0.421283	0.586790
	H59	H	0.894855	0.427069	0.406410
	H60	H	0.114391	0.418659	0.581303
	H61	H	0.890703	0.602117	0.585551
	H62	H	0.116551	0.605168	0.398868
	H63	H	0.890510	0.422784	0.397660
	H64	H	0.416129	0.600999	0.105332
	H65	H	0.591119	0.601005	0.883689
	H66	H	0.587303	0.424650	0.103166
	H67	H	0.416896	0.427492	0.882390
	H68	H	0.589063	0.122105	0.412825
	H69	H	0.586228	0.900942	0.585015
	H70	H	0.412361	0.123707	0.578811
	H71	H	0.416591	0.901733	0.406373
	H72	H	0.916593	0.627308	0.090009
	H73	H	0.094354	0.398737	0.083523
	H74	H	0.094413	0.626366	0.902749
	H75	H	0.914402	0.401378	0.906170
	H76	H	0.087145	0.924282	0.603980
	H77	H	0.094468	0.099342	0.380862
	H78	H	0.908507	0.100354	0.606693
	H79	H	0.912288	0.927485	0.381901
	H80	H	0.610369	0.095278	0.907365
	H81	H	0.394264	0.103584	0.077142
	H82	H	0.613134	0.928173	0.084324
	H83	H	0.396434	0.927490	0.909213
	H84	H	0.615601	0.922535	0.085803
	H85	H	0.393317	0.096153	0.088597
	H86	H	0.616786	0.102154	0.894784
	H87	H	0.391060	0.924596	0.897266
	H88	H	0.914012	0.094968	0.602686
	H89	H	0.092757	0.102598	0.381675
	H90	H	0.093279	0.920947	0.607159
	H91	H	0.914889	0.923827	0.380933
	H92	H	0.095059	0.626467	0.903976
	H93	H	0.091158	0.400625	0.081584
	H94	H	0.921834	0.620962	0.076556
	H95	H	0.915258	0.401398	0.906534
	H96	H	0.408423	0.126108	0.584210
	H97	H	0.592181	0.901663	0.576220
	H98	H	0.597656	0.126600	0.405958
	H99	H	0.410189	0.900698	0.409110
	H100	H	0.596354	0.418326	0.107721
	H101	H	0.594476	0.604896	0.880739
	H102	H	0.411037	0.602304	0.107297
	H103	H	0.415222	0.419414	0.879550
	H104	H	0.113403	0.606380	0.405907
	H105	H	0.893631	0.601672	0.578416
	H106	H	0.113071	0.425264	0.582190
	H107	H	0.891700	0.416612	0.406421
	H108	H	0.906714	0.626023	0.077591
	H109	H	0.095143	0.399631	0.079859
	H110	H	0.095886	0.626448	0.903234
	H111	H	0.914884	0.401657	0.906886
	H112	H	0.093911	0.928515	0.605177
	H113	H	0.095881	0.102671	0.380304
	H114	H	0.916749	0.102768	0.605073
	H115	H	0.910373	0.923564	0.379483
	H116	H	0.614771	0.110427	0.907791
	H117	H	0.389689	0.109165	0.088242
	H118	H	0.614188	0.923801	0.080088
	H119	H	0.391766	0.915475	0.907766
	C120	C	0.380477	0.021082	0.615402
	C121	C	0.623604	1.003632	0.614408
	C122	C	0.623218	0.021392	0.373627
	C123	C	0.381595	1.004283	0.373341
	C124	C	0.624858	0.392500	0.001615
	C125	C	0.626195	0.634245	0.985121
	C126	C	0.382604	0.633482	0.001723
	C127	C	0.382139	0.391714	0.983486
	C128	C	0.011589	0.634661	0.370518
	C129	C	0.995042	0.633642	0.614369
	C130	C	0.011755	0.390033	0.615474
	C131	C	0.994833	0.390553	0.371523
	C132	C	0.882575	0.521250	0.114106
	C133	C	0.125098	0.503547	0.113291
	C134	C	0.125354	0.522099	0.871770
	C135	C	0.882919	0.504524	0.873018
	C136	C	0.123049	0.892888	0.501601
	C137	C	0.124104	0.132932	0.485262
	C138	C	0.880461	0.132869	0.501952
	C139	C	0.880855	0.891706	0.484150
	C140	C	0.511374	0.134070	0.871771
	C141	C	0.495359	0.135106	0.115460
	C142	C	0.511775	0.891691	0.115306
	C143	C	0.495667	0.891093	0.872501
	C144	C	0.379910	0.902334	0.674238
	C145	C	0.625025	0.122207	0.673303
	C146	C	0.625479	0.904037	0.312357
	C147	C	0.380501	0.122665	0.313957
	C148	C	0.685488	0.389783	0.884173
	C149	C	0.685967	0.637510	0.102418
	C150	C	0.324054	0.636962	0.883522
	C151	C	0.321862	0.388610	0.100944
	C152	C	0.894870	0.694043	0.368270
	C153	C	0.111084	0.695391	0.616133
	C154	C	0.895212	0.329338	0.618579
	C155	C	0.111821	0.331466	0.370698
	C156	C	0.895469	0.387559	0.676325
	C157	C	0.111849	0.637046	0.673909
	C158	C	0.895227	0.636206	0.310117
	C159	C	0.112395	0.389776	0.312795
	C160	C	0.383079	0.693551	0.883576
	C161	C	0.627837	0.694476	0.102583
	C162	C	0.626219	0.333568	0.883185
	C163	C	0.380477	0.332098	0.101499
	C164	C	0.683407	0.904201	0.369216
	C165	C	0.684781	0.120977	0.617787
	C166	C	0.320214	0.903196	0.618896
	C167	C	0.323014	0.122525	0.371988
	C168	C	0.880973	0.402504	0.173010
	C169	C	0.125970	0.622113	0.172173
	C170	C	0.124371	0.402712	0.813841
	C171	C	0.881432	0.622186	0.812125
	C172	C	0.183400	0.890964	0.383944
	C173	C	0.181451	0.134399	0.604182
	C174	C	0.819273	0.137434	0.385204
	C175	C	0.820630	0.887486	0.601697
	C176	C	0.394759	0.193583	0.870321
	C177	C	0.613112	0.193712	0.114756
	C178	C	0.395734	0.830525	0.117676
	C179	C	0.612437	0.832286	0.870403
	C180	C	0.395088	0.889167	0.175210
	C181	C	0.613022	0.136223	0.173543
	C182	C	0.394248	0.134986	0.812953
	C183	C	0.612048	0.890133	0.812195
	C184	C	0.878833	0.193465	0.384449
	C185	C	0.122263	0.190349	0.604467
	C186	C	0.123932	0.834849	0.382666
	C187	C	0.879498	0.831376	0.602067
	C188	C	0.182990	0.403358	0.870147
	C189	C	0.184073	0.622036	0.114770
	C190	C	0.822724	0.403128	0.116223
	C191	C	0.822559	0.621511	0.868347
	C192	C	0.405154	0.103312	0.590102
	C193	C	0.598706	0.921352	0.589259
	C194	C	0.598161	0.103177	0.399380
	C195	C	0.405949	0.921980	0.398586
	C196	C	0.600580	0.417294	0.083979
	C197	C	0.601367	0.608797	0.903329
	C198	C	0.406390	0.607885	0.084143
	C199	C	0.406982	0.416745	0.901327
	C200	C	0.092861	0.610470	0.395259
	C201	C	0.913984	0.607411	0.589410
	C202	C	0.093261	0.414853	0.590408
	C203	C	0.913503	0.415196	0.396283
	C204	C	0.907934	0.603453	0.088902
	C205	C	0.100593	0.420993	0.088678
	C206	C	0.101808	0.604839	0.896160
	C207	C	0.907660	0.422713	0.898992
	C208	C	0.098286	0.917323	0.583994
	C209	C	0.101061	0.108469	0.402578
	C210	C	0.905829	0.106754	0.583715
	C211	C	0.905461	0.917551	0.402111
	C212	C	0.592818	0.109666	0.896267
	C213	C	0.413575	0.110241	0.091410
	C214	C	0.593089	0.917356	0.090328
	C215	C	0.414168	0.915535	0.897724
	Zn216	Zn	0.502776	0.011996	0.742598
	Zn217	Zn	0.503470	0.013504	0.244936
	Zn218	Zn	0.753850	0.513052	-0.006225
	Zn219	Zn	0.253743	0.512352	-0.008088
	Zn220	Zn	0.002509	0.763474	0.492549
	Zn221	Zn	0.002862	0.261114	0.493685
	Zn222	Zn	0.003497	0.512531	0.744308
	Zn223	Zn	0.004154	0.512067	0.241931
	Zn224	Zn	0.504735	0.761518	-0.005953
	Zn225	Zn	0.503902	0.263879	-0.007445
	Zn226	Zn	0.752118	0.011771	0.493421
	Zn227	Zn	0.253083	0.012459	0.494625
	N228	N	0.416392	0.976839	0.672691
	N229	N	0.587760	0.048156	0.671446
	N230	N	0.588727	0.977985	0.314952
	N231	N	0.416158	0.047965	0.314408
	N232	N	0.685005	0.425424	0.959002
	N233	N	0.685432	0.601065	0.028193
	N234	N	0.323701	0.600239	0.957972
	N235	N	0.322582	0.424771	0.026312
	N236	N	0.968209	0.693323	0.405137
	N237	N	0.037336	0.693504	0.579688
	N238	N	0.968422	0.330978	0.580972
	N239	N	0.037667	0.331484	0.406333
	N240	N	0.968933	0.424634	0.674564
	N241	N	0.038660	0.599096	0.672907
	N242	N	0.968756	0.599991	0.311266
	N243	N	0.038413	0.425578	0.313000
	N244	N	0.418490	0.691755	0.958362
	N245	N	0.591517	0.692767	0.028510
	N246	N	0.589089	0.335201	0.957244
	N247	N	0.417158	0.333588	0.027437
	N248	N	0.682124	0.978173	0.406885
	N249	N	0.684282	0.045979	0.582082
	N250	N	0.320297	0.978167	0.583366
	N251	N	0.323698	0.047834	0.408355
	N252	N	0.917406	0.477171	0.172142
	N253	N	0.089915	0.547384	0.171378
	N254	N	0.089442	0.477828	0.814356
	N255	N	0.918457	0.548405	0.814839
	N256	N	0.183284	0.925893	0.459180
	N257	N	0.182974	0.099605	0.528986
	N258	N	0.820152	0.100724	0.459530
	N259	N	0.821219	0.924127	0.527245
	N260	N	0.468686	0.193313	0.905994
	N261	N	0.538794	0.193319	0.079596
	N262	N	0.469397	0.831982	0.081289
	N263	N	0.539199	0.832978	0.907530
	N264	N	0.468369	0.926428	0.174073
	N265	N	0.538590	0.100841	0.174498
	N266	N	0.467816	0.098727	0.813555
	N267	N	0.538307	0.926152	0.813376
	N268	N	0.916180	0.190973	0.458183
	N269	N	0.087617	0.190046	0.529426
	N270	N	0.087346	0.835588	0.456959
	N271	N	0.916117	0.833598	0.527823
	N272	N	0.183988	0.478624	0.905082
	N273	N	0.183709	0.547174	0.079045
	N274	N	0.823458	0.478068	0.080472
	N275	N	0.823535	0.547433	0.905813
	O276	O	-0.011505	0.903721	-0.112433
	H277	H	-0.014741	0.903618	-0.120143
	H278	H	-0.029789	0.883648	-0.116656
	O279	O	0.640118	0.530378	0.452260
	H280	H	0.640267	0.541255	0.458393
	H281	H	0.628417	0.539172	0.468152
	O282	O	0.885337	0.055326	1.181854
	H283	H	0.895335	0.070931	1.187711
	H284	H	0.886328	0.045221	1.185533
	O285	O	0.569981	0.323589	0.587661
	H286	H	0.541020	0.324360	0.580916
	H287	H	0.544720	0.324360	0.596496
	O288	O	0.398637	0.588305	0.523272
	H289	H	0.386284	0.588062	0.503427
	H290	H	0.400377	0.591849	0.524336
	O291	O	0.219900	0.222930	0.054179
	H292	H	0.236876	0.237354	0.057107
	H293	H	0.212616	0.226056	0.041394
	O294	O	0.788895	0.219335	0.783854
	H295	H	0.805851	0.229008	0.791618
	H296	H	0.767870	0.248527	0.771326
	O297	O	0.321981	0.505560	0.541695
	H298	H	0.324792	0.513081	0.550766
	H299	H	0.333880	0.502373	0.521002
	O300	O	-0.148045	0.221634	0.967331
	H301	H	-0.137019	0.214619	0.971773
	H302	H	-0.160181	0.241464	0.979779
	O303	O	0.705439	0.694984	0.507443
	H304	H	0.717916	0.719432	0.514500
	H305	H	0.697538	0.692301	0.541221
	O306	O	0.538096	0.287849	0.267229
	H307	H	0.539131	0.252335	0.233523
	H308	H	0.581999	0.298104	0.276566
	O309	O	0.727418	0.462369	0.534184
	H310	H	0.726220	0.470379	0.525169
	H311	H	0.726963	0.452217	0.521953
	O312	O	0.444707	0.451955	0.273384
	H313	H	0.468133	0.454489	0.276716
	H314	H	0.462419	0.442727	0.262817
	O315	O	1.034292	1.013179	0.933718
	H316	H	1.027573	1.012596	0.950569
	H317	H	1.025301	1.015249	0.927100
	O318	O	0.363576	0.564937	0.279433
	H319	H	0.356274	0.563072	0.275828
	H320	H	0.379528	0.554627	0.273997
	O321	O	0.216701	1.122268	1.205134
	H322	H	0.225158	1.130162	1.172238
	H323	H	0.237589	1.133900	1.228522
	O324	O	1.196605	0.986807	0.140219
	H325	H	1.213696	1.006196	0.144058
	H326	H	1.191189	1.000889	0.117431
	O327	O	-0.170311	0.087148	0.818913
	H328	H	-0.189279	0.090410	0.798520
	H329	H	-0.166725	0.106889	0.824403
	O330	O	0.373562	0.418620	0.385511
	H331	H	0.351189	0.399155	0.383056
	H332	H	0.402531	0.412416	0.381141
	O333	O	0.694862	0.334914	0.676963
	H334	H	0.686136	0.353435	0.655308
	H335	H	0.670761	0.348161	0.657635
	O336	O	1.240604	-0.007998	0.004472
	H337	H	1.235427	0.002235	-0.008028
	H338	H	1.244741	-0.003255	0.008507
	O339	O	0.716709	-0.464595	0.702023
	H340	H	0.697608	-0.469247	0.700142
	H341	H	0.735428	-0.474953	0.702991
	O342	O	0.037846	0.217298	0.182840
	H343	H	0.023414	0.220878	0.196321
	H344	H	0.052781	0.226107	0.195123
	O345	O	-0.064970	1.214536	1.136933
	H346	H	-0.054868	1.212639	1.129843
	H347	H	-0.067426	1.220073	1.158566
	O348	O	0.085641	0.156045	0.008323
	H349	H	0.084205	0.124701	0.012711
	H350	H	0.074953	0.155922	0.014020
	O351	O	0.303036	0.649515	0.637516
	H352	H	0.302926	0.656763	0.618615
	H353	H	0.288233	0.668699	0.644503
	O354	O	-0.051713	0.052558	0.890335
	H355	H	-0.061677	0.050415	0.901041
	H356	H	-0.050076	0.052299	0.890158
	O357	O	0.447174	0.595944	0.700760
	H358	H	0.432850	0.575244	0.697484
	H359	H	0.428855	0.597419	0.706444
	O360	O	0.294612	0.301485	0.657563
	H361	H	0.268004	0.277265	0.684843
	H362	H	0.291572	0.332568	0.669439
	O363	O	-0.122137	-0.043378	0.127244
	H364	H	-0.114845	-0.027306	0.127399
	H365	H	-0.128771	-0.024805	0.122957
	O366	O	0.728458	0.506000	0.326221
	H367	H	0.722756	0.524105	0.350016
	H368	H	0.754307	0.521515	0.312985
	O369	O	1.013978	-0.199728	-0.015664
	H370	H	1.012102	-0.195916	-0.013805
	H371	H	0.991216	-0.196301	-0.025863
	O372	O	1.028281	0.796937	0.119359
	H373	H	1.017594	0.783064	0.124701
	H374	H	1.007794	0.800348	0.098880
	O375	O	0.761360	-0.230923	0.239263
	H376	H	0.750893	-0.221126	0.237676
	H377	H	0.768411	-0.231285	0.243930
	O378	O	0.284974	0.540428	0.404557
	H379	H	0.280499	0.527230	0.397142
	H380	H	0.288636	0.518707	0.407402
	O381	O	-0.064800	1.215400	0.862073
	H382	H	-0.067005	1.215152	0.866972
	H383	H	-0.070295	1.220899	0.859166
	O384	O	0.787207	-0.208211	1.016397
	H385	H	0.752762	-0.235845	1.021757
	H386	H	0.796353	-0.189788	1.047369
	O387	O	1.050371	1.114692	-0.201273
	H388	H	1.059484	1.101554	-0.176210
	H389	H	1.029769	1.103757	-0.207714
	O390	O	0.637518	0.674802	0.582659
	H391	H	0.621323	0.682199	0.588573
	H392	H	0.629376	0.666217	0.587140
	O393	O	0.742267	0.744791	0.729866
	H394	H	0.711068	0.724516	0.721898
	H395	H	0.730979	0.733251	0.729055
	O396	O	0.029048	0.976021	1.208251
	H397	H	0.025348	0.952090	1.206362
	H398	H	0.050140	0.973712	1.214963
	O399	O	0.133001	0.064298	0.967091
	H400	H	0.130728	0.056525	0.956539
	H401	H	0.124458	0.057888	0.970880
	O402	O	0.634901	0.623632	0.357802
	H403	H	0.636863	0.641179	0.342177
	H404	H	0.632121	0.627669	0.382440
	O405	O	0.860468	-0.103640	0.842780
	H406	H	0.842451	-0.118859	0.838145
	H407	H	0.857494	-0.100766	0.840084
	O408	O	0.192394	0.204199	-0.192813
	H409	H	0.176093	0.189491	-0.170089
	H410	H	0.169007	0.182928	-0.181656
	O411	O	0.563726	0.502023	0.667082
	H412	H	0.560441	0.476062	0.674157
	H413	H	0.555924	0.509747	0.659882
	O414	O	0.461561	0.741438	0.533249
	H415	H	0.434780	0.745494	0.524846
	H416	H	0.466958	0.739650	0.525558
	O417	O	0.521186	0.654882	0.399024
	H418	H	0.510552	0.652858	0.391311
	H419	H	0.522294	0.668346	0.387579
	O420	O	0.221583	0.797503	0.959287
	H421	H	0.244735	0.771254	0.962975
	H422	H	0.213123	0.810884	0.956367
	O423	O	0.038914	-0.192647	0.784233
	H424	H	0.021794	-0.191542	0.778579
	H425	H	0.018110	-0.195452	0.783670
	O426	O	0.286886	0.426185	0.713901
	H427	H	0.268992	0.451760	0.709534
	H428	H	0.265495	0.427025	0.720209
	O429	O	0.949265	1.067148	1.041609
	H430	H	0.942706	1.064527	1.047049
	H431	H	0.934800	1.078478	1.053944
	O432	O	0.280956	0.733405	0.466492
	H433	H	0.269917	0.748421	0.445955
	H434	H	0.272063	0.739255	0.436313
	O435	O	-0.101125	0.802723	0.200544
	H436	H	-0.099937	0.812315	0.199679
	H437	H	-0.121427	0.788206	0.221806
	O438	O	0.223206	-0.023118	-0.219449
	H439	H	0.235581	-0.021466	-0.244302
	H440	H	0.221533	-0.043032	-0.215861
	O441	O	-0.214782	0.000832	-0.040917
	H442	H	-0.204080	-0.000219	-0.056923
	H443	H	-0.220244	-0.005754	-0.062160
	O444	O	0.550850	0.710185	0.692277
	H445	H	0.529962	0.718838	0.683047
	H446	H	0.528712	0.689004	0.699101
	O447	O	0.203028	0.813382	0.793569
	H448	H	0.183470	0.806950	0.822696
	H449	H	0.181859	0.831681	0.790065
	O450	O	-0.126388	1.018972	0.947219
	H451	H	-0.143385	1.023370	0.934914
	H452	H	-0.121468	1.047844	0.953038
	O453	O	0.288910	0.332465	0.500152
	H454	H	0.270737	0.309514	0.495330
	H455	H	0.299227	0.324588	0.535681
	O456	O	0.194458	-0.177854	1.181594
	H457	H	0.172588	-0.163788	1.160250
	H458	H	0.182627	-0.155190	1.161503
	O459	O	0.463893	0.445029	0.558935
	H460	H	0.454684	0.451807	0.567437
	H461	H	0.458443	0.457685	0.550094
	O462	O	0.708232	0.311267	0.293682
	H463	H	0.707446	0.336017	0.311135
	H464	H	0.714308	0.331187	0.321342
	O465	O	0.786954	0.040832	0.031674
	H466	H	0.780223	0.048125	0.004809
	H467	H	0.782434	0.049447	0.032211
	O468	O	0.621110	0.482208	0.291093
	H469	H	0.637799	0.494476	0.294390
	H470	H	0.633672	0.492483	0.299340
	O471	O	0.469977	0.299546	0.438490
	H472	H	0.476837	0.316778	0.423054
	H473	H	0.466117	0.294900	0.425030
	O474	O	0.274672	0.285290	0.260680
	H475	H	0.278964	0.295324	0.270703
	H476	H	0.281619	0.285302	0.269566
	O477	O	0.469519	0.291269	1.708453
	H478	H	0.453108	0.270108	1.731764
	H479	H	0.441981	0.294140	1.710531
	O480	O	0.722693	0.304184	0.470654
	H481	H	0.687168	0.295507	0.490505
	H482	H	0.746438	0.279464	0.472969
	O483	O	0.495629	0.509995	0.537223
	H484	H	0.491955	0.519106	0.529930
	H485	H	0.486716	0.515232	0.536869
	O486	O	1.291812	-0.276275	1.287413
	H487	H	1.286134	-0.330585	1.278650
	H488	H	1.258797	-0.248256	1.251718
	O489	O	1.470540	0.731824	0.274432
	H490	H	1.462803	0.752630	0.256642
	H491	H	1.436954	0.737707	0.269049
