data_Molecule from HDF5

_cell_length_a		16.202379
_cell_length_b		16.363123
_cell_length_c		16.273584
_cell_angle_alpha	90.157398
_cell_angle_beta	89.803258
_cell_angle_gamma	90.049637
_symmetry_space_group_name_H-M	'P 1'
_symmetry_Int_Tables_number		1

loop_
	_symmetry_equiv_pos_as_xyz
	x,y,z

loop_
	_atom_site_label
	_atom_site_type_symbol
	_atom_site_fract_x
	_atom_site_fract_y
	_atom_site_fract_z
	H0	H	0.406378	0.838444	0.715426
	H1	H	0.608302	0.162882	0.715472
	H2	H	0.608970	0.838034	0.280827
	H3	H	0.409691	0.163300	0.283832
	H4	H	0.721555	0.401161	0.835277
	H5	H	0.719703	0.600307	0.162434
	H6	H	0.293181	0.597398	0.833874
	H7	H	0.291739	0.403676	0.162006
	H8	H	0.843996	0.716653	0.396531
	H9	H	0.170559	0.715269	0.598868
	H10	H	0.842079	0.284926	0.596792
	H11	H	0.170622	0.285326	0.397447
	H12	H	0.842249	0.400345	0.713299
	H13	H	0.170233	0.598872	0.713200
	H14	H	0.841038	0.595991	0.286190
	H15	H	0.170354	0.401781	0.282916
	H16	H	0.404718	0.717271	0.835755
	H17	H	0.606431	0.717804	0.161285
	H18	H	0.607971	0.283960	0.835951
	H19	H	0.404829	0.284890	0.161056
	H20	H	0.722986	0.836922	0.398796
	H21	H	0.723284	0.162527	0.597492
	H22	H	0.291452	0.837767	0.598175
	H23	H	0.292626	0.163025	0.400834
	H24	H	0.906104	0.336943	0.212224
	H25	H	0.105632	0.661899	0.214064
	H26	H	0.105894	0.337162	0.781988
	H27	H	0.905728	0.661982	0.781681
	H28	H	0.223598	0.900523	0.335317
	H29	H	0.219510	0.097989	0.663249
	H30	H	0.794162	0.096544	0.334304
	H31	H	0.792070	0.902503	0.662071
	H32	H	0.343354	0.215213	0.897627
	H33	H	0.669771	0.217900	0.098266
	H34	H	0.342933	0.785778	0.098432
	H35	H	0.670282	0.784472	0.896638
	H36	H	0.343780	0.902132	0.213902
	H37	H	0.672421	0.099490	0.210165
	H38	H	0.343331	0.099198	0.784351
	H39	H	0.671677	0.902795	0.783887
	H40	H	0.907858	0.213203	0.334372
	H41	H	0.107630	0.217313	0.660751
	H42	H	0.109840	0.782541	0.335969
	H43	H	0.905200	0.783092	0.661406
	H44	H	0.221698	0.337778	0.898291
	H45	H	0.220916	0.662796	0.097971
	H46	H	0.790491	0.337426	0.096811
	H47	H	0.792202	0.663480	0.901249
	H48	H	0.416542	0.116911	0.598299
	H49	H	0.597983	0.885850	0.589886
	H50	H	0.607767	0.117088	0.406130
	H51	H	0.419876	0.884988	0.402859
	H52	H	0.607832	0.403863	0.119877
	H53	H	0.589496	0.587716	0.886183
	H54	H	0.407794	0.592709	0.115611
	H55	H	0.414144	0.400374	0.878941
	H56	H	0.126038	0.594117	0.397794
	H57	H	0.888835	0.590203	0.595489
	H58	H	0.125260	0.398940	0.587594
	H59	H	0.886979	0.402907	0.399557
	H60	H	0.119060	0.412840	0.583407
	H61	H	0.889187	0.597049	0.586175
	H62	H	0.122533	0.596627	0.412283
	H63	H	0.888593	0.401206	0.410024
	H64	H	0.417377	0.590277	0.112450
	H65	H	0.597621	0.603670	0.878903
	H66	H	0.596796	0.418719	0.111462
	H67	H	0.410399	0.410016	0.881539
	H68	H	0.599681	0.117238	0.397924
	H69	H	0.599971	0.884954	0.591077
	H70	H	0.417883	0.113960	0.587917
	H71	H	0.415387	0.885914	0.411020
	H72	H	0.907648	0.617789	0.091408
	H73	H	0.099882	0.382073	0.096202
	H74	H	0.094943	0.616395	0.901078
	H75	H	0.923294	0.386303	0.901930
	H76	H	0.099117	0.902692	0.616152
	H77	H	0.099053	0.083601	0.385023
	H78	H	0.920776	0.090028	0.612027
	H79	H	0.914948	0.910165	0.382991
	H80	H	0.624151	0.091899	0.905533
	H81	H	0.391000	0.093822	0.088052
	H82	H	0.623281	0.905327	0.084389
	H83	H	0.388799	0.908049	0.902867
	H84	H	0.623165	0.912313	0.089845
	H85	H	0.391175	0.090005	0.093044
	H86	H	0.624334	0.094795	0.905954
	H87	H	0.389544	0.904583	0.908486
	H88	H	0.916081	0.099512	0.615499
	H89	H	0.093264	0.098002	0.383039
	H90	H	0.102626	0.909709	0.615060
	H91	H	0.919972	0.904451	0.383153
	H92	H	0.097466	0.613370	0.910134
	H93	H	0.093533	0.385719	0.087766
	H94	H	0.915110	0.617477	0.098528
	H95	H	0.912542	0.387012	0.915883
	H96	H	0.408342	0.117668	0.591087
	H97	H	0.598266	0.884594	0.591579
	H98	H	0.597295	0.114332	0.408751
	H99	H	0.411454	0.883566	0.403221
	H100	H	0.588079	0.400815	0.114225
	H101	H	0.608749	0.587720	0.880722
	H102	H	0.415240	0.599811	0.116112
	H103	H	0.420170	0.407507	0.884255
	H104	H	0.120270	0.583080	0.406243
	H105	H	0.893540	0.586084	0.585505
	H106	H	0.125393	0.410264	0.597659
	H107	H	0.890582	0.410542	0.405726
	H108	H	0.917369	0.613169	0.088452
	H109	H	0.103650	0.383814	0.086185
	H110	H	0.104615	0.617348	0.904180
	H111	H	0.906161	0.381240	0.900207
	H112	H	0.094806	0.908545	0.613356
	H113	H	0.108134	0.095355	0.379003
	H114	H	0.910126	0.090561	0.615264
	H115	H	0.913376	0.903633	0.380564
	H116	H	0.622942	0.092599	0.908820
	H117	H	0.388202	0.096409	0.094134
	H118	H	0.626202	0.905162	0.092822
	H119	H	0.392030	0.911861	0.908227
	C120	C	0.385032	0.008765	0.621348
	C121	C	0.628656	0.992294	0.620207
	C122	C	0.630075	0.008654	0.375739
	C123	C	0.386333	0.992008	0.376953
	C124	C	0.627745	0.378577	0.007336
	C125	C	0.627638	0.622545	0.989868
	C126	C	0.384732	0.622323	0.006467
	C127	C	0.384376	0.377829	0.989486
	C128	C	0.014976	0.620674	0.376538
	C129	C	0.998600	0.620681	0.618731
	C130	C	0.014800	0.378362	0.618968
	C131	C	0.997341	0.377033	0.375775
	C132	C	0.883743	0.508435	0.120802
	C133	C	0.127577	0.491394	0.119204
	C134	C	0.128209	0.508553	0.875780
	C135	C	0.884525	0.491946	0.876758
	C136	C	0.128895	0.878003	0.506978
	C137	C	0.128924	0.121656	0.490192
	C138	C	0.886178	0.121220	0.506247
	C139	C	0.885810	0.877413	0.490012
	C140	C	0.515607	0.121742	0.877560
	C141	C	0.498560	0.122422	0.120022
	C142	C	0.515845	0.878959	0.119055
	C143	C	0.498549	0.879121	0.876682
	C144	C	0.386783	0.886780	0.676899
	C145	C	0.627725	0.114313	0.676598
	C146	C	0.628263	0.886195	0.319663
	C147	C	0.388808	0.114628	0.321712
	C148	C	0.683900	0.380865	0.884337
	C149	C	0.682011	0.620610	0.113380
	C150	C	0.329835	0.619141	0.883265
	C151	C	0.328787	0.381622	0.112745
	C152	C	0.892225	0.677249	0.377725
	C153	C	0.121630	0.676827	0.617937
	C154	C	0.891229	0.322806	0.616951
	C155	C	0.121331	0.322540	0.377228
	C156	C	0.891212	0.380011	0.674931
	C157	C	0.121643	0.618682	0.674608
	C158	C	0.890890	0.617598	0.322368
	C159	C	0.121416	0.380530	0.320496
	C160	C	0.385585	0.678331	0.884008
	C161	C	0.625776	0.679032	0.112701
	C162	C	0.627211	0.322669	0.884519
	C163	C	0.385239	0.322820	0.112260
	C164	C	0.685138	0.885750	0.378164
	C165	C	0.684888	0.114093	0.617897
	C166	C	0.329757	0.886398	0.618614
	C167	C	0.330967	0.114585	0.379797
	C168	C	0.885380	0.385904	0.175271
	C169	C	0.125417	0.613629	0.175515
	C170	C	0.126074	0.385950	0.820156
	C171	C	0.885914	0.613934	0.820482
	C172	C	0.184949	0.880405	0.383925
	C173	C	0.183181	0.119133	0.613621
	C174	C	0.831673	0.117418	0.383264
	C175	C	0.829715	0.880847	0.613004
	C176	C	0.392370	0.177462	0.878394
	C177	C	0.621437	0.178914	0.118209
	C178	C	0.392060	0.824025	0.117824
	C179	C	0.621510	0.823058	0.877360
	C180	C	0.392487	0.881443	0.175509
	C181	C	0.622555	0.120231	0.174097
	C182	C	0.392234	0.119565	0.822114
	C183	C	0.622364	0.881858	0.821343
	C184	C	0.888057	0.175679	0.383381
	C185	C	0.127588	0.178579	0.612359
	C186	C	0.128619	0.821477	0.384501
	C187	C	0.886008	0.821753	0.612774
	C188	C	0.183706	0.386206	0.877733
	C189	C	0.182652	0.614169	0.117530
	C190	C	0.827888	0.386266	0.117662
	C191	C	0.829292	0.614590	0.879662
	C192	C	0.407431	0.094075	0.598749
	C193	C	0.605604	0.907058	0.597465
	C194	C	0.608122	0.094116	0.397889
	C195	C	0.409050	0.906977	0.399151
	C196	C	0.604335	0.401103	0.093014
	C197	C	0.605263	0.599732	0.904353
	C198	C	0.406774	0.600700	0.092327
	C199	C	0.407886	0.399721	0.903712
	C200	C	0.100683	0.597889	0.398758
	C201	C	0.912706	0.597849	0.595697
	C202	C	0.100973	0.400856	0.596484
	C203	C	0.911117	0.398516	0.398267
	C204	C	0.906543	0.594027	0.099070
	C205	C	0.105521	0.406088	0.096601
	C206	C	0.105616	0.593661	0.898332
	C207	C	0.907347	0.406843	0.899357
	C208	C	0.105533	0.900462	0.592599
	C209	C	0.106734	0.098884	0.404461
	C210	C	0.908886	0.099580	0.592132
	C211	C	0.909307	0.899477	0.404379
	C212	C	0.601629	0.099498	0.900117
	C213	C	0.412486	0.099930	0.098163
	C214	C	0.601959	0.901093	0.095850
	C215	C	0.412340	0.901627	0.899670
	Zn216	Zn	0.507122	0.000969	0.749483
	Zn217	Zn	0.508245	0.000455	0.247301
	Zn218	Zn	0.755285	0.501042	-0.001084
	Zn219	Zn	0.256755	0.500293	-0.002433
	Zn220	Zn	0.007278	0.749012	0.498315
	Zn221	Zn	0.006779	0.250013	0.497490
	Zn222	Zn	0.006097	0.499758	0.747573
	Zn223	Zn	0.006273	0.499150	0.248546
	Zn224	Zn	0.506503	0.750516	-0.002088
	Zn225	Zn	0.506447	0.249902	-0.001776
	Zn226	Zn	0.757906	-0.000482	0.497931
	Zn227	Zn	0.256659	0.000150	0.498716
	N228	N	0.420721	0.963906	0.678508
	N229	N	0.593376	0.037431	0.678092
	N230	N	0.594833	0.963446	0.317894
	N231	N	0.422755	0.037549	0.319963
	N232	N	0.684487	0.414946	0.961916
	N233	N	0.683321	0.586240	0.036160
	N234	N	0.329120	0.584981	0.960455
	N235	N	0.328100	0.415025	0.035234
	N236	N	0.970300	0.679574	0.410507
	N237	N	0.044076	0.677937	0.583754
	N238	N	0.969139	0.321509	0.582829
	N239	N	0.043408	0.320456	0.410948
	N240	N	0.968895	0.413858	0.676150
	N241	N	0.044104	0.584277	0.675054
	N242	N	0.968280	0.582968	0.321647
	N243	N	0.043471	0.413553	0.319309
	N244	N	0.419056	0.680416	0.961513
	N245	N	0.592844	0.680655	0.034666
	N246	N	0.593008	0.321074	0.961899
	N247	N	0.419111	0.320395	0.034518
	N248	N	0.686511	0.962806	0.412176
	N249	N	0.685417	0.037173	0.583475
	N250	N	0.328641	0.963259	0.584740
	N251	N	0.329089	0.037490	0.413186
	N252	N	0.919637	0.462892	0.177294
	N253	N	0.092041	0.536189	0.176789
	N254	N	0.092193	0.462953	0.818690
	N255	N	0.919529	0.536643	0.818623
	N256	N	0.185420	0.914602	0.461175
	N257	N	0.184066	0.084351	0.536512
	N258	N	0.830556	0.084162	0.460673
	N259	N	0.829220	0.914427	0.535644
	N260	N	0.470238	0.178946	0.912229
	N261	N	0.543524	0.180419	0.085282
	N262	N	0.469810	0.822389	0.083459
	N263	N	0.543618	0.821494	0.911009
	N264	N	0.470354	0.914904	0.176420
	N265	N	0.545064	0.085528	0.175288
	N266	N	0.469702	0.085659	0.821421
	N267	N	0.544690	0.916021	0.820644
	N268	N	0.921506	0.177996	0.460971
	N269	N	0.094551	0.180232	0.534574
	N270	N	0.094437	0.819844	0.462021
	N271	N	0.920170	0.819561	0.535295
	N272	N	0.185193	0.463330	0.911649
	N273	N	0.184330	0.537214	0.083353
	N274	N	0.826556	0.463642	0.084738
	N275	N	0.828376	0.537853	0.913932
	O276	O	-0.038703	0.049487	0.026124
	H277	H	-0.030847	0.060283	0.017227
	H278	H	-0.046855	0.057620	0.030695
	O279	O	0.560545	0.508483	0.532493
	H280	H	0.552698	0.505631	0.519299
	H281	H	0.565227	0.514053	0.539901
	O282	O	0.498946	0.562987	0.566320
	H283	H	0.504049	0.564734	0.567631
	H284	H	0.486459	0.551147	0.565094
	O285	O	0.999317	0.036254	1.013674
	H286	H	0.999862	0.033615	1.022223
	H287	H	1.003273	0.031665	1.016250
	O288	O	1.077789	0.028892	0.066365
	H289	H	1.085510	0.021659	0.066444
	H290	H	1.067556	0.033238	0.061806
	O291	O	0.543929	0.465091	0.488669
	H292	H	0.543154	0.459244	0.482239
	H293	H	0.549507	0.471845	0.494438
	O294	O	0.988464	0.009452	1.060044
	H295	H	0.990186	0.003360	1.054110
	H296	H	0.986288	0.012781	1.063646
	O297	O	-0.049387	0.041234	-0.017167
	H298	H	-0.052293	0.043645	-0.009663
	H299	H	-0.046909	0.049532	-0.021902
	O300	O	0.579299	0.500372	0.592250
	H301	H	0.583324	0.504495	0.588358
	H302	H	0.570436	0.504271	0.601063
	O303	O	0.478392	0.460062	0.465669
	H304	H	0.480087	0.474269	0.465580
	H305	H	0.472164	0.458776	0.458088
	O306	O	1.052720	0.001190	0.039736
	H307	H	1.056334	-0.000546	0.038822
	H308	H	1.050614	-0.000372	0.038386
	O309	O	-0.034494	-0.023390	1.002599
	H310	H	-0.035573	-0.024800	0.995305
	H311	H	-0.040128	-0.026310	1.005675
	O312	O	1.028400	1.024233	1.040161
	H313	H	1.029151	1.024106	1.047233
	H314	H	1.035704	1.022370	1.038543
	O315	O	0.548190	0.536061	0.473257
	H316	H	0.545507	0.533306	0.480050
	H317	H	0.561806	0.537378	0.477446
	O318	O	0.464367	0.423397	0.553972
	H319	H	0.464995	0.425639	0.553119
	H320	H	0.456672	0.420184	0.550474
	O321	O	0.059712	0.972575	0.928719
	H322	H	0.068927	0.981804	0.934214
	H323	H	0.060991	0.962846	0.932585
	O324	O	0.499137	0.491866	0.463502
	H325	H	0.508291	0.491561	0.464847
	H326	H	0.506119	0.487282	0.475417
	O327	O	0.495426	0.530034	0.460375
	H328	H	0.503410	0.528031	0.465319
	H329	H	0.495550	0.532295	0.463708
	O330	O	0.507920	0.663393	0.486574
	H331	H	0.526613	0.668854	0.488342
	H332	H	0.509638	0.659416	0.494078
	O333	O	0.546563	0.531308	0.526593
	H334	H	0.553283	0.521807	0.526744
	H335	H	0.540941	0.531326	0.539768
	O336	O	0.493254	0.501279	0.544768
	H337	H	0.491691	0.500578	0.535564
	H338	H	0.491438	0.500246	0.559298
	O339	O	0.998414	0.989577	0.040259
	H340	H	0.995956	0.987646	0.052059
	H341	H	1.009178	0.989344	0.039620
	O342	O	0.465389	0.497853	0.501889
	H343	H	0.470765	0.499065	0.497956
	H344	H	0.458764	0.504907	0.499822
	O345	O	0.492764	0.491849	0.594549
	H346	H	0.487284	0.495245	0.601065
	H347	H	0.481652	0.481685	0.582946
	O348	O	0.048590	0.076064	-0.031984
	H349	H	0.050245	0.088956	-0.028616
	H350	H	0.039109	0.075588	-0.033751
	O351	O	0.023524	0.912039	0.955159
	H352	H	0.020442	0.909526	0.946983
	H353	H	0.027964	0.900545	0.953314
	O354	O	0.480342	0.510218	0.365788
	H355	H	0.475837	0.509935	0.355030
	H356	H	0.483263	0.503229	0.362655
	O357	O	-0.484233	1.519000	0.486245
	H358	H	-0.476900	1.521761	0.484787
	H359	H	-0.490368	1.521609	0.484916
