data_Molecule from HDF5

_cell_length_a		16.258372
_cell_length_b		16.306006
_cell_length_c		16.382098
_cell_angle_alpha	90.378452
_cell_angle_beta	90.090868
_cell_angle_gamma	90.061701
_symmetry_space_group_name_H-M	'P 1'
_symmetry_Int_Tables_number		1

loop_
	_symmetry_equiv_pos_as_xyz
	x,y,z

loop_
	_atom_site_label
	_atom_site_type_symbol
	_atom_site_fract_x
	_atom_site_fract_y
	_atom_site_fract_z
	H0	H	0.404753	0.836925	0.723460
	H1	H	0.606585	0.162277	0.723679
	H2	H	0.606218	0.836736	0.289586
	H3	H	0.406498	0.162680	0.291889
	H4	H	0.721648	0.398546	0.844093
	H5	H	0.723578	0.599266	0.169338
	H6	H	0.292975	0.595353	0.843018
	H7	H	0.292892	0.401493	0.170305
	H8	H	0.843622	0.711929	0.406237
	H9	H	0.170100	0.714624	0.605560
	H10	H	0.842843	0.284831	0.602274
	H11	H	0.171046	0.283584	0.407132
	H12	H	0.844108	0.397920	0.721092
	H13	H	0.170412	0.598758	0.722163
	H14	H	0.843702	0.596024	0.291150
	H15	H	0.171472	0.398745	0.291570
	H16	H	0.408023	0.714068	0.844041
	H17	H	0.605869	0.715259	0.169821
	H18	H	0.605647	0.282339	0.844725
	H19	H	0.408879	0.284940	0.169981
	H20	H	0.719806	0.834641	0.408313
	H21	H	0.721876	0.162453	0.605484
	H22	H	0.292257	0.835480	0.604202
	H23	H	0.291414	0.162299	0.409558
	H24	H	0.908343	0.334522	0.219351
	H25	H	0.107990	0.661350	0.223837
	H26	H	0.107828	0.335335	0.788628
	H27	H	0.908272	0.661321	0.791439
	H28	H	0.222777	0.898474	0.344125
	H29	H	0.221696	0.098417	0.669858
	H30	H	0.790519	0.096251	0.343299
	H31	H	0.793037	0.901658	0.669047
	H32	H	0.343097	0.212986	0.909305
	H33	H	0.671048	0.214451	0.106968
	H34	H	0.343017	0.785811	0.103302
	H35	H	0.671208	0.785583	0.909186
	H36	H	0.342541	0.900815	0.220540
	H37	H	0.670405	0.097884	0.222437
	H38	H	0.343398	0.098491	0.791831
	H39	H	0.670155	0.898953	0.791244
	H40	H	0.907822	0.212395	0.342819
	H41	H	0.107302	0.216759	0.668226
	H42	H	0.105761	0.782055	0.343429
	H43	H	0.907497	0.783503	0.668278
	H44	H	0.220917	0.334218	0.908231
	H45	H	0.221417	0.662819	0.104272
	H46	H	0.793362	0.335051	0.101533
	H47	H	0.792871	0.661921	0.908436
	H48	H	0.404220	0.118798	0.602797
	H49	H	0.593405	0.883549	0.605269
	H50	H	0.596062	0.113231	0.417283
	H51	H	0.408334	0.880666	0.407443
	H52	H	0.600002	0.406174	0.122533
	H53	H	0.598692	0.592751	0.891603
	H54	H	0.416281	0.587741	0.119295
	H55	H	0.414291	0.405696	0.891327
	H56	H	0.120866	0.582686	0.415471
	H57	H	0.894403	0.581313	0.597377
	H58	H	0.124386	0.411600	0.607102
	H59	H	0.891620	0.406632	0.409791
	H60	H	0.125904	0.397366	0.596027
	H61	H	0.887592	0.593711	0.607723
	H62	H	0.126314	0.591713	0.407287
	H63	H	0.889978	0.403053	0.410608
	H64	H	0.417827	0.597166	0.121856
	H65	H	0.601800	0.591645	0.891123
	H66	H	0.601571	0.407616	0.122612
	H67	H	0.415037	0.403751	0.892008
	H68	H	0.603498	0.115878	0.416288
	H69	H	0.599400	0.885433	0.592669
	H70	H	0.422896	0.114655	0.609635
	H71	H	0.423037	0.884848	0.408605
	H72	H	0.918053	0.612966	0.098283
	H73	H	0.102622	0.383559	0.095283
	H74	H	0.097754	0.613189	0.912736
	H75	H	0.905638	0.380229	0.914673
	H76	H	0.093772	0.909499	0.618153
	H77	H	0.092505	0.085320	0.395114
	H78	H	0.922706	0.094706	0.619538
	H79	H	0.904718	0.911432	0.390784
	H80	H	0.618913	0.078172	0.915958
	H81	H	0.389532	0.098576	0.095353
	H82	H	0.623234	0.906935	0.100119
	H83	H	0.390209	0.906940	0.913081
	H84	H	0.624235	0.906622	0.100548
	H85	H	0.393521	0.085481	0.097287
	H86	H	0.626722	0.095629	0.905049
	H87	H	0.390198	0.905727	0.913444
	H88	H	0.909209	0.098461	0.624383
	H89	H	0.098866	0.098782	0.389688
	H90	H	0.099573	0.900994	0.623017
	H91	H	0.923809	0.907268	0.393843
	H92	H	0.100510	0.613444	0.915895
	H93	H	0.103376	0.380724	0.102296
	H94	H	0.912691	0.615274	0.099544
	H95	H	0.916805	0.380526	0.902909
	H96	H	0.418344	0.111006	0.590197
	H97	H	0.606898	0.880057	0.602918
	H98	H	0.598216	0.115836	0.410541
	H99	H	0.413731	0.885459	0.420745
	H100	H	0.599809	0.407764	0.121672
	H101	H	0.599219	0.589765	0.892190
	H102	H	0.409375	0.593035	0.123744
	H103	H	0.412973	0.403844	0.891159
	H104	H	0.122834	0.595433	0.419484
	H105	H	0.891470	0.596619	0.591440
	H106	H	0.119057	0.413339	0.590307
	H107	H	0.891577	0.405071	0.413281
	H108	H	0.917455	0.614892	0.103885
	H109	H	0.096382	0.382905	0.100378
	H110	H	0.101732	0.614647	0.912455
	H111	H	0.920726	0.386123	0.917879
	H112	H	0.104352	0.910832	0.621150
	H113	H	0.107781	0.085822	0.390054
	H114	H	0.911940	0.085136	0.619581
	H115	H	0.911356	0.893052	0.386630
	H116	H	0.621792	0.097397	0.926695
	H117	H	0.388175	0.092933	0.107492
	H118	H	0.623310	0.906466	0.099673
	H119	H	0.390889	0.906155	0.914421
	C120	C	0.385771	0.007168	0.628599
	C121	C	0.628370	0.990912	0.628948
	C122	C	0.628108	0.006918	0.385336
	C123	C	0.385212	0.991060	0.384491
	C124	C	0.628880	0.377253	0.014849
	C125	C	0.629048	0.620868	0.998808
	C126	C	0.385369	0.620820	0.014483
	C127	C	0.385646	0.376908	0.999267
	C128	C	0.015393	0.618903	0.384939
	C129	C	0.998908	0.619823	0.627631
	C130	C	0.015290	0.377743	0.626271
	C131	C	0.999205	0.375957	0.383072
	C132	C	0.886717	0.506506	0.127857
	C133	C	0.129563	0.490346	0.128499
	C134	C	0.129022	0.506147	0.884531
	C135	C	0.885675	0.490149	0.883847
	C136	C	0.128928	0.876827	0.513967
	C137	C	0.128954	0.120209	0.498704
	C138	C	0.885571	0.120157	0.513580
	C139	C	0.884969	0.876386	0.497899
	C140	C	0.514896	0.119584	0.886558
	C141	C	0.498585	0.121339	0.129270
	C142	C	0.515259	0.878190	0.128098
	C143	C	0.498583	0.877491	0.885183
	C144	C	0.386271	0.885085	0.684207
	C145	C	0.626854	0.113714	0.685293
	C146	C	0.626117	0.884827	0.328711
	C147	C	0.386486	0.113932	0.329859
	C148	C	0.683531	0.378791	0.892611
	C149	C	0.685194	0.619638	0.120995
	C150	C	0.330437	0.616793	0.891870
	C151	C	0.330465	0.380265	0.121490
	C152	C	0.892497	0.674222	0.386415
	C153	C	0.121505	0.676152	0.626058
	C154	C	0.891920	0.322507	0.623059
	C155	C	0.122256	0.321169	0.386570
	C156	C	0.892644	0.378448	0.682327
	C157	C	0.121578	0.618759	0.684027
	C158	C	0.892482	0.616429	0.329203
	C159	C	0.122604	0.378746	0.329342
	C160	C	0.387764	0.675542	0.892165
	C161	C	0.626609	0.676995	0.121172
	C162	C	0.625888	0.320852	0.893038
	C163	C	0.388146	0.322717	0.121409
	C164	C	0.682523	0.883944	0.387729
	C165	C	0.683535	0.114009	0.626320
	C166	C	0.330092	0.884457	0.625104
	C167	C	0.329624	0.113886	0.388442
	C168	C	0.888429	0.383449	0.181651
	C169	C	0.127772	0.613057	0.184721
	C170	C	0.127122	0.383550	0.828150
	C171	C	0.887818	0.612667	0.829228
	C172	C	0.184322	0.878239	0.392295
	C173	C	0.184428	0.118960	0.620893
	C174	C	0.829400	0.116663	0.391593
	C175	C	0.830324	0.880331	0.620417
	C176	C	0.391993	0.175057	0.888895
	C177	C	0.621897	0.176941	0.127401
	C178	C	0.391635	0.823484	0.124594
	C179	C	0.622027	0.822701	0.888269
	C180	C	0.391515	0.880906	0.182486
	C181	C	0.621644	0.119154	0.184634
	C182	C	0.392057	0.117844	0.830708
	C183	C	0.621663	0.879352	0.829884
	C184	C	0.887347	0.174756	0.391345
	C185	C	0.127470	0.177743	0.620148
	C186	C	0.126435	0.820111	0.392197
	C187	C	0.887120	0.821682	0.620072
	C188	C	0.183821	0.383075	0.887162
	C189	C	0.184007	0.613800	0.125439
	C190	C	0.831283	0.383541	0.123297
	C191	C	0.830498	0.613098	0.887353
	C192	C	0.408440	0.092824	0.607095
	C193	C	0.606256	0.905163	0.606902
	C194	C	0.605786	0.092860	0.408114
	C195	C	0.408004	0.905760	0.405924
	C196	C	0.606988	0.400615	0.100426
	C197	C	0.606563	0.598024	0.913605
	C198	C	0.408027	0.599366	0.099669
	C199	C	0.407614	0.398235	0.913666
	C200	C	0.101229	0.596523	0.407632
	C201	C	0.913431	0.597033	0.605314
	C202	C	0.101036	0.400506	0.604045
	C203	C	0.913041	0.398295	0.404880
	C204	C	0.909377	0.592264	0.106829
	C205	C	0.107283	0.404713	0.106097
	C206	C	0.106484	0.591684	0.906952
	C207	C	0.907837	0.404523	0.905429
	C208	C	0.105882	0.900250	0.598881
	C209	C	0.106273	0.096747	0.413420
	C210	C	0.908103	0.099069	0.599020
	C211	C	0.906904	0.897601	0.412684
	C212	C	0.600549	0.096825	0.909269
	C213	C	0.412832	0.098857	0.106719
	C214	C	0.601194	0.900044	0.106506
	C215	C	0.412699	0.899695	0.907007
	Zn216	Zn	0.506958	-0.001163	0.757320
	Zn217	Zn	0.506585	-0.000437	0.256484
	Zn218	Zn	0.757885	0.498738	0.006075
	Zn219	Zn	0.257141	0.498112	0.006346
	Zn220	Zn	0.006728	0.747690	0.505830
	Zn221	Zn	0.007171	0.248949	0.505300
	Zn222	Zn	0.007239	0.497839	0.755738
	Zn223	Zn	0.007565	0.497948	0.256446
	Zn224	Zn	0.507216	0.749665	0.006819
	Zn225	Zn	0.507243	0.248623	0.007517
	Zn226	Zn	0.756587	-0.001622	0.506734
	Zn227	Zn	0.257706	-0.001225	0.506821
	N228	N	0.420245	0.962215	0.686371
	N229	N	0.593185	0.036189	0.686832
	N230	N	0.592928	0.962272	0.327283
	N231	N	0.420682	0.036786	0.327617
	N232	N	0.685454	0.413103	0.969433
	N233	N	0.686741	0.585196	0.044078
	N234	N	0.328735	0.583673	0.968859
	N235	N	0.328825	0.413267	0.044334
	N236	N	0.969829	0.675461	0.420508
	N237	N	0.044385	0.677010	0.591895
	N238	N	0.969201	0.322140	0.588832
	N239	N	0.044403	0.319526	0.419418
	N240	N	0.970233	0.412200	0.684335
	N241	N	0.044298	0.584139	0.685062
	N242	N	0.970024	0.582641	0.328177
	N243	N	0.044927	0.411956	0.327056
	N244	N	0.421097	0.678219	0.969392
	N245	N	0.592573	0.677926	0.044195
	N246	N	0.592924	0.319741	0.970287
	N247	N	0.421501	0.320389	0.044398
	N248	N	0.683471	0.960987	0.422590
	N249	N	0.684809	0.036824	0.592115
	N250	N	0.329889	0.961397	0.591156
	N251	N	0.328576	0.036586	0.421599
	N252	N	0.922066	0.460852	0.184386
	N253	N	0.094606	0.535511	0.186480
	N254	N	0.093992	0.461147	0.826369
	N255	N	0.921455	0.535362	0.827170
	N256	N	0.186012	0.912625	0.468927
	N257	N	0.185084	0.083586	0.544259
	N258	N	0.828108	0.083660	0.468683
	N259	N	0.828554	0.913337	0.543421
	N260	N	0.469370	0.176300	0.922854
	N261	N	0.544345	0.178338	0.093422
	N262	N	0.469201	0.821685	0.091416
	N263	N	0.544630	0.821637	0.922138
	N264	N	0.469371	0.913992	0.184917
	N265	N	0.544263	0.085326	0.185802
	N266	N	0.469637	0.084137	0.829234
	N267	N	0.544062	0.912504	0.827761
	N268	N	0.921673	0.176828	0.468121
	N269	N	0.093779	0.178667	0.543186
	N270	N	0.092639	0.819349	0.469257
	N271	N	0.920440	0.819096	0.543005
	N272	N	0.184869	0.460147	0.921628
	N273	N	0.185433	0.536453	0.091223
	N274	N	0.829862	0.461061	0.090512
	N275	N	0.829054	0.535769	0.920613
	O276	O	0.516952	0.499758	0.549854
	H277	H	0.524155	0.501532	0.550083
	H278	H	0.522531	0.500443	0.547786
	O279	O	0.037311	0.031543	-0.042640
	H280	H	0.040062	0.034697	-0.041959
	H281	H	0.032237	0.031638	-0.044933
	O282	O	0.536351	0.553627	0.510110
	H283	H	0.535926	0.558828	0.504992
	H284	H	0.547290	0.558018	0.512898
	O285	O	0.486319	0.538933	0.527574
	H286	H	0.480093	0.531506	0.537053
	H287	H	0.480719	0.538236	0.521349
	O288	O	1.044528	0.030077	-0.046764
	H289	H	1.049707	0.029735	-0.052619
	H290	H	1.050073	0.024502	-0.052770
	O291	O	-0.460807	0.512187	-0.472394
	H292	H	-0.466998	0.514604	-0.474405
	H293	H	-0.462302	0.507830	-0.478574
	O294	O	0.471895	0.629616	0.457372
	H295	H	0.474265	0.628080	0.455907
	H296	H	0.474222	0.621717	0.456144
	O297	O	0.030089	1.047003	-0.021763
	H298	H	0.018929	1.053861	-0.015686
	H299	H	0.041305	1.038814	-0.019395
	O300	O	0.558492	0.515845	0.522410
	H301	H	0.554857	0.531831	0.520835
	H302	H	0.560568	0.514190	0.530419
	O303	O	0.552461	0.552595	0.479157
	H304	H	0.544848	0.563097	0.473698
	H305	H	0.561415	0.551285	0.487960
	O306	O	0.040681	1.020985	0.985118
	H307	H	0.031797	1.023168	0.986822
	H308	H	0.046891	1.018653	0.984234
	O309	O	0.465864	0.640609	0.528322
	H310	H	0.458792	0.635504	0.532318
	H311	H	0.462195	0.644069	0.523940
