data_Molecule from HDF5

_cell_length_a		16.398094
_cell_length_b		16.351870
_cell_length_c		16.317488
_cell_angle_alpha	89.786580
_cell_angle_beta	90.198821
_cell_angle_gamma	89.945391
_symmetry_space_group_name_H-M	'P 1'
_symmetry_Int_Tables_number		1

loop_
	_symmetry_equiv_pos_as_xyz
	x,y,z

loop_
	_atom_site_label
	_atom_site_type_symbol
	_atom_site_fract_x
	_atom_site_fract_y
	_atom_site_fract_z
	H0	H	0.395529	0.827153	0.726348
	H1	H	0.597268	0.149999	0.719854
	H2	H	0.599727	0.825775	0.288871
	H3	H	0.395885	0.148433	0.287010
	H4	H	0.714837	0.387972	0.843527
	H5	H	0.719975	0.590780	0.166753
	H6	H	0.279841	0.593389	0.845217
	H7	H	0.279346	0.381438	0.165303
	H8	H	0.838928	0.707480	0.400354
	H9	H	0.159307	0.705129	0.608641
	H10	H	0.838012	0.266746	0.609831
	H11	H	0.158118	0.265335	0.402960
	H12	H	0.838246	0.383582	0.724097
	H13	H	0.160564	0.587405	0.723107
	H14	H	0.838597	0.590323	0.284732
	H15	H	0.159541	0.383134	0.287711
	H16	H	0.396750	0.707133	0.844863
	H17	H	0.603675	0.706094	0.166989
	H18	H	0.600314	0.272184	0.843825
	H19	H	0.397307	0.268683	0.166191
	H20	H	0.716019	0.825554	0.404230
	H21	H	0.718691	0.146369	0.610996
	H22	H	0.283216	0.824598	0.607612
	H23	H	0.279463	0.147512	0.403042
	H24	H	0.895565	0.327053	0.224814
	H25	H	0.103848	0.647285	0.226257
	H26	H	0.101743	0.325348	0.788107
	H27	H	0.897106	0.646986	0.785387
	H28	H	0.217763	0.881470	0.345255
	H29	H	0.217063	0.087574	0.666552
	H30	H	0.775659	0.091636	0.346375
	H31	H	0.782390	0.884517	0.667664
	H32	H	0.339679	0.209818	0.900045
	H33	H	0.660510	0.206149	0.108659
	H34	H	0.341326	0.765026	0.112293
	H35	H	0.659027	0.769663	0.903238
	H36	H	0.339684	0.882816	0.225255
	H37	H	0.658863	0.090969	0.226950
	H38	H	0.338406	0.092075	0.785805
	H39	H	0.658955	0.886354	0.786991
	H40	H	0.892814	0.206199	0.345990
	H41	H	0.098986	0.200332	0.667960
	H42	H	0.101322	0.768086	0.344568
	H43	H	0.898137	0.768812	0.667608
	H44	H	0.221760	0.328052	0.900258
	H45	H	0.220764	0.646908	0.110931
	H46	H	0.781325	0.326527	0.107666
	H47	H	0.780541	0.648029	0.901624
	H48	H	0.402019	0.104972	0.599530
	H49	H	0.590849	0.872949	0.594040
	H50	H	0.584320	0.099857	0.416483
	H51	H	0.405231	0.869824	0.408572
	H52	H	0.588730	0.397244	0.119757
	H53	H	0.589210	0.577937	0.891159
	H54	H	0.412677	0.572983	0.118085
	H55	H	0.410368	0.401357	0.892002
	H56	H	0.113650	0.579665	0.414784
	H57	H	0.886949	0.572078	0.595763
	H58	H	0.117093	0.391917	0.608230
	H59	H	0.883392	0.395199	0.413739
	H60	H	0.113781	0.384338	0.589578
	H61	H	0.882419	0.579148	0.598960
	H62	H	0.111156	0.577937	0.419599
	H63	H	0.885697	0.396589	0.417833
	H64	H	0.412654	0.580393	0.120769
	H65	H	0.589658	0.580917	0.891117
	H66	H	0.592618	0.393389	0.122817
	H67	H	0.411452	0.397531	0.890392
	H68	H	0.589160	0.100881	0.419560
	H69	H	0.590876	0.870482	0.600139
	H70	H	0.412111	0.100306	0.596927
	H71	H	0.415145	0.874467	0.415799
	H72	H	0.905324	0.602093	0.092046
	H73	H	0.096009	0.371601	0.095528
	H74	H	0.092739	0.602495	0.914865
	H75	H	0.906759	0.369579	0.909100
	H76	H	0.092710	0.897750	0.619868
	H77	H	0.090185	0.074528	0.390237
	H78	H	0.902883	0.076690	0.622725
	H79	H	0.898125	0.898759	0.388986
	H80	H	0.612070	0.079374	0.915382
	H81	H	0.384259	0.072995	0.104305
	H82	H	0.614309	0.894972	0.097271
	H83	H	0.384792	0.894256	0.919372
	H84	H	0.612120	0.897294	0.092066
	H85	H	0.382561	0.089862	0.092678
	H86	H	0.613916	0.079236	0.910128
	H87	H	0.386553	0.903032	0.917693
	H88	H	0.908899	0.070945	0.618716
	H89	H	0.084777	0.075162	0.391878
	H90	H	0.087214	0.894747	0.619864
	H91	H	0.912560	0.903032	0.394486
	H92	H	0.087419	0.601802	0.911090
	H93	H	0.085371	0.373353	0.100710
	H94	H	0.910097	0.602590	0.098829
	H95	H	0.912660	0.374413	0.917392
	H96	H	0.404403	0.101145	0.588811
	H97	H	0.585213	0.872720	0.597244
	H98	H	0.589030	0.102345	0.414359
	H99	H	0.402836	0.872681	0.420860
	H100	H	0.594189	0.398721	0.121206
	H101	H	0.591811	0.578786	0.891679
	H102	H	0.406714	0.576545	0.121180
	H103	H	0.407215	0.399363	0.890063
	H104	H	0.111405	0.574448	0.414639
	H105	H	0.885959	0.579068	0.590554
	H106	H	0.108553	0.403552	0.593235
	H107	H	0.886156	0.399434	0.413852
	H108	H	0.913300	0.599593	0.091960
	H109	H	0.086899	0.376514	0.089768
	H110	H	0.087680	0.599644	0.917262
	H111	H	0.901659	0.371827	0.919336
	H112	H	0.092320	0.891899	0.622564
	H113	H	0.087193	0.079399	0.390297
	H114	H	0.911943	0.079411	0.621295
	H115	H	0.910199	0.888297	0.388623
	H116	H	0.614912	0.083128	0.913254
	H117	H	0.391325	0.072726	0.084944
	H118	H	0.612350	0.901322	0.097462
	H119	H	0.383211	0.897915	0.911403
	C120	C	0.376507	-0.004433	0.626736
	C121	C	0.619511	0.978586	0.627737
	C122	C	0.619011	-0.004931	0.385545
	C123	C	0.376507	0.978213	0.383641
	C124	C	0.621262	0.366484	0.014273
	C125	C	0.622038	0.609919	0.997617
	C126	C	0.378867	0.608870	0.014029
	C127	C	0.378806	0.367469	0.997034
	C128	C	0.007014	0.609110	0.383705
	C129	C	0.991307	0.607336	0.626079
	C130	C	0.006973	0.363300	0.627884
	C131	C	0.990513	0.364931	0.384255
	C132	C	0.878094	0.495985	0.126282
	C133	C	0.121446	0.479260	0.127372
	C134	C	0.120911	0.495302	0.883697
	C135	C	0.876918	0.478217	0.883734
	C136	C	0.120852	0.864267	0.514390
	C137	C	0.118537	0.106517	0.497285
	C138	C	0.875715	0.107857	0.514877
	C139	C	0.877236	0.865343	0.497401
	C140	C	0.507739	0.111482	0.882438
	C141	C	0.491438	0.109256	0.126069
	C142	C	0.507885	0.865919	0.127397
	C143	C	0.490648	0.867456	0.884723
	C144	C	0.376419	0.875015	0.686396
	C145	C	0.618243	0.100670	0.683281
	C146	C	0.619445	0.874168	0.327478
	C147	C	0.376248	0.099797	0.325891
	C148	C	0.676610	0.368313	0.892058
	C149	C	0.680363	0.609729	0.118528
	C150	C	0.319580	0.611215	0.893280
	C151	C	0.319415	0.364351	0.117411
	C152	C	0.886536	0.667722	0.381921
	C153	C	0.111584	0.665480	0.627142
	C154	C	0.886429	0.305565	0.628743
	C155	C	0.110344	0.305281	0.383753
	C156	C	0.886290	0.363975	0.685421
	C157	C	0.112018	0.607092	0.684323
	C158	C	0.886654	0.609728	0.324115
	C159	C	0.111109	0.364021	0.326517
	C160	C	0.378014	0.667672	0.893022
	C161	C	0.622510	0.667284	0.118711
	C162	C	0.620115	0.310306	0.892405
	C163	C	0.377679	0.307648	0.117735
	C164	C	0.677256	0.874111	0.385093
	C165	C	0.678482	0.098842	0.628853
	C166	C	0.320213	0.873684	0.627484
	C167	C	0.318180	0.099252	0.383367
	C168	C	0.876868	0.375077	0.185509
	C169	C	0.122889	0.599293	0.186743
	C170	C	0.121724	0.374233	0.826055
	C171	C	0.877466	0.599112	0.824879
	C172	C	0.178409	0.863398	0.393114
	C173	C	0.177277	0.106395	0.618505
	C174	C	0.815801	0.109917	0.394331
	C175	C	0.820861	0.865073	0.619358
	C176	C	0.387275	0.170161	0.881464
	C177	C	0.612080	0.167381	0.127864
	C178	C	0.388603	0.805516	0.129947
	C179	C	0.611111	0.809143	0.884214
	C180	C	0.387822	0.864054	0.186493
	C181	C	0.611432	0.110038	0.186628
	C182	C	0.386762	0.111682	0.824520
	C183	C	0.610939	0.867212	0.826443
	C184	C	0.873943	0.167153	0.394210
	C185	C	0.118591	0.162751	0.619225
	C186	C	0.120541	0.806755	0.393001
	C187	C	0.878510	0.807502	0.619153
	C188	C	0.181418	0.375654	0.882201
	C189	C	0.181125	0.599176	0.129528
	C190	C	0.819913	0.374888	0.127340
	C191	C	0.819553	0.599783	0.882570
	C192	C	0.399465	0.080215	0.602255
	C193	C	0.595663	0.894039	0.604062
	C194	C	0.594555	0.079312	0.409753
	C195	C	0.400668	0.894202	0.407950
	C196	C	0.598451	0.389658	0.099252
	C197	C	0.597309	0.586170	0.913090
	C198	C	0.403488	0.583702	0.098290
	C199	C	0.402772	0.392190	0.912863
	C200	C	0.090482	0.584501	0.408990
	C201	C	0.906927	0.583491	0.601994
	C202	C	0.091397	0.386575	0.603965
	C203	C	0.906898	0.389691	0.408259
	C204	C	0.902453	0.579573	0.101586
	C205	C	0.096620	0.395711	0.102429
	C206	C	0.096226	0.579417	0.907533
	C207	C	0.900204	0.394041	0.908185
	C208	C	0.097614	0.887879	0.598614
	C209	C	0.094365	0.083094	0.412988
	C210	C	0.900684	0.082879	0.599074
	C211	C	0.900005	0.889795	0.412917
	C212	C	0.591780	0.087625	0.906092
	C213	C	0.407930	0.085178	0.101267
	C214	C	0.591137	0.890743	0.102646
	C215	C	0.406675	0.891607	0.909086
	Zn216	Zn	0.498274	-0.011655	0.755172
	Zn217	Zn	0.498938	-0.012628	0.255634
	Zn218	Zn	0.749406	0.487419	0.005598
	Zn219	Zn	0.250283	0.488257	0.005269
	Zn220	Zn	-0.001301	0.737382	0.505351
	Zn221	Zn	-0.001779	0.235473	0.506311
	Zn222	Zn	-0.000909	0.485872	0.755098
	Zn223	Zn	-0.000468	0.487151	0.255135
	Zn224	Zn	0.499448	0.737756	0.006110
	Zn225	Zn	0.499729	0.239230	0.005169
	Zn226	Zn	0.747921	-0.014069	0.506866
	Zn227	Zn	0.248019	-0.014110	0.505572
	N228	N	0.410544	0.951792	0.686109
	N229	N	0.582379	0.024679	0.682759
	N230	N	0.584084	0.950513	0.327637
	N231	N	0.411560	0.023466	0.325670
	N232	N	0.677610	0.402576	0.968863
	N233	N	0.680094	0.574942	0.041996
	N234	N	0.319985	0.575468	0.969660
	N235	N	0.319638	0.400541	0.041246
	N236	N	0.962353	0.667461	0.418171
	N237	N	0.035459	0.665707	0.591592
	N238	N	0.962535	0.305100	0.593672
	N239	N	0.034204	0.305701	0.418857
	N240	N	0.962452	0.399096	0.685120
	N241	N	0.035956	0.571509	0.683716
	N242	N	0.962461	0.573981	0.325129
	N243	N	0.035549	0.400516	0.326783
	N244	N	0.414007	0.666595	0.969252
	N245	N	0.586881	0.667446	0.042278
	N246	N	0.586466	0.309204	0.969427
	N247	N	0.413970	0.309557	0.041829
	N248	N	0.677109	0.950353	0.420437
	N249	N	0.679434	0.021877	0.595002
	N250	N	0.320081	0.949778	0.591104
	N251	N	0.317812	0.022460	0.418072
	N252	N	0.912285	0.451225	0.185131
	N253	N	0.086563	0.523648	0.185518
	N254	N	0.084637	0.449700	0.827037
	N255	N	0.912397	0.522780	0.825356
	N256	N	0.178906	0.898475	0.469397
	N257	N	0.177658	0.072210	0.541614
	N258	N	0.816717	0.073973	0.470599
	N259	N	0.819748	0.900200	0.542732
	N260	N	0.463473	0.170141	0.916917
	N261	N	0.536602	0.167198	0.091125
	N262	N	0.464192	0.806477	0.093998
	N263	N	0.535151	0.809112	0.919770
	N264	N	0.462941	0.901058	0.184962
	N265	N	0.535467	0.074570	0.185656
	N266	N	0.462465	0.075714	0.825052
	N267	N	0.534998	0.902872	0.826785
	N268	N	0.910228	0.166198	0.470298
	N269	N	0.082874	0.163030	0.542843
	N270	N	0.085431	0.807085	0.469374
	N271	N	0.912741	0.807463	0.542375
	N272	N	0.180867	0.451879	0.917497
	N273	N	0.180272	0.523493	0.093090
	N274	N	0.820543	0.450923	0.091176
	N275	N	0.819029	0.523619	0.918444
	O276	O	0.649466	0.314362	0.498018
	H277	H	0.644847	0.317848	0.477140
	H278	H	0.656994	0.288984	0.488872
	O279	O	0.517004	0.470712	0.633216
	H280	H	0.531374	0.466473	0.620170
	H281	H	0.514260	0.456868	0.626847
	O282	O	0.843027	0.134622	0.938180
	H283	H	0.836503	0.132670	0.948373
	H284	H	0.849826	0.125976	0.926491
	O285	O	0.577347	0.355194	0.394457
	H286	H	0.570726	0.365448	0.393478
	H287	H	0.567183	0.348751	0.378905
	O288	O	1.094605	1.174548	1.176665
	H289	H	1.080380	1.149495	1.189251
	H290	H	1.084300	1.194497	1.188389
	O291	O	0.203433	0.909309	0.059541
	H292	H	0.222891	0.908288	0.064448
	H293	H	0.204072	0.889259	0.041953
	O294	O	0.563706	0.438165	0.426430
	H295	H	0.573295	0.443118	0.442009
	H296	H	0.579670	0.451224	0.413552
	O297	O	0.651015	0.540996	0.494046
	H298	H	0.659884	0.545859	0.508634
	H299	H	0.648101	0.557407	0.506272
	O300	O	0.457157	0.394439	0.570392
	H301	H	0.454651	0.394706	0.569593
	H302	H	0.444936	0.387483	0.575199
	O303	O	0.508372	0.294046	0.388328
	H304	H	0.497213	0.294263	0.390197
	H305	H	0.501849	0.289062	0.371755
	O306	O	0.703687	0.673627	0.593090
	H307	H	0.724757	0.702740	0.596722
	H308	H	0.690449	0.668757	0.627893
	O309	O	0.522984	0.516460	0.418694
	H310	H	0.537398	0.521656	0.426961
	H311	H	0.531772	0.519600	0.428818
	O312	O	-0.157349	0.121198	-0.041632
	H313	H	-0.163410	0.107657	-0.052076
	H314	H	-0.148137	0.114155	-0.041881
	O315	O	0.383654	0.545403	0.489671
	H316	H	0.373770	0.546860	0.482474
	H317	H	0.379195	0.531612	0.482317
	O318	O	0.060274	1.114161	0.917265
	H319	H	0.056160	1.110180	0.916543
	H320	H	0.047728	1.106539	0.923205
	O321	O	0.448311	0.583468	0.396599
	H322	H	0.457125	0.583443	0.410261
	H323	H	0.450686	0.588793	0.406691
	O324	O	0.151159	0.832479	-0.072670
	H325	H	0.163239	0.830593	-0.081971
	H326	H	0.130648	0.827100	-0.098179
	O327	O	0.030632	0.935976	0.006211
	H328	H	0.032053	0.942742	0.012553
	H329	H	0.025683	0.932066	0.019729
	O330	O	0.011231	0.091703	1.011239
	H331	H	0.009344	0.085212	1.034991
	H332	H	0.019998	0.103753	1.013517
	O333	O	0.194274	0.089940	1.072988
	H334	H	0.192269	0.099951	1.053991
	H335	H	0.181057	0.089902	1.071760
	O336	O	0.367292	0.649918	0.461110
	H337	H	0.359512	0.661644	0.472159
	H338	H	0.377038	0.646702	0.470357
	O339	O	1.064093	-0.067363	0.002033
	H340	H	1.063333	-0.071832	-0.008688
	H341	H	1.074565	-0.066773	-0.016527
	O342	O	0.167997	0.160268	-0.032978
	H343	H	0.148272	0.173412	-0.031826
	H344	H	0.162170	0.168177	-0.027788
	O345	O	1.075807	0.072315	0.942724
	H346	H	1.075473	0.081775	0.940627
	H347	H	1.063065	0.073852	0.953262
	O348	O	1.080448	0.836530	-0.169836
	H349	H	1.065972	0.838525	-0.167785
	H350	H	1.079631	0.848378	-0.170758
	O351	O	0.420595	0.500208	0.441543
	H352	H	0.417576	0.494582	0.429646
	H353	H	0.420048	0.504005	0.450332
	O354	O	0.868228	-0.192233	1.176827
	H355	H	0.864623	-0.189105	1.180642
	H356	H	0.873761	-0.213772	1.175474
	O357	O	0.333289	0.472637	0.519045
	H358	H	0.326208	0.478854	0.512140
	H359	H	0.338501	0.479883	0.529830
	O360	O	0.500167	0.379077	0.611190
	H361	H	0.509970	0.371244	0.601174
	H362	H	0.496651	0.372560	0.598924
	O363	O	-0.134787	1.026574	0.825351
	H364	H	-0.132906	1.025670	0.829473
	H365	H	-0.145424	1.033904	0.822779
	O366	O	0.450465	0.412073	0.536908
	H367	H	0.448152	0.417066	0.542391
	H368	H	0.439095	0.410146	0.535783
	O369	O	-0.189679	0.886751	-0.073040
	H370	H	-0.199667	0.891559	-0.077481
	H371	H	-0.191481	0.883583	-0.058162
	O372	O	0.509239	0.549390	0.553687
	H373	H	0.510014	0.532515	0.546759
	H374	H	0.503140	0.542962	0.539838
	O375	O	0.435212	0.522537	0.368105
	H376	H	0.444818	0.537931	0.370922
	H377	H	0.422500	0.517727	0.357419
	O378	O	0.949285	0.928430	-0.022781
	H379	H	0.950666	0.939268	-0.014689
	H380	H	0.950191	0.930447	-0.020725
	O381	O	0.994242	0.054696	0.129310
	H382	H	0.992970	0.054826	0.133281
	H383	H	1.004448	0.049027	0.123922
	O384	O	1.036740	0.933011	0.010787
	H385	H	1.035969	0.920447	0.022070
	H386	H	1.052285	0.929189	0.006517
	O387	O	0.002992	-0.092366	0.149664
	H388	H	0.001054	-0.107635	0.144394
	H389	H	0.021545	-0.086242	0.152031
	O390	O	-0.024385	0.810698	-0.103156
	H391	H	-0.030869	0.820863	-0.101380
	H392	H	-0.019836	0.812751	-0.096504
	O393	O	1.127181	1.008881	1.187420
	H394	H	1.142701	1.013253	1.196513
	H395	H	1.137670	1.032664	1.188427
	O396	O	0.463720	0.411028	0.560649
	H397	H	0.468360	0.415236	0.552649
	H398	H	0.446645	0.416093	0.555647
	O399	O	0.018408	1.059422	0.885420
	H400	H	0.018042	1.065105	0.885127
	H401	H	0.024435	1.060514	0.901863
	O402	O	0.675453	0.633401	0.639023
	H403	H	0.651124	0.627063	0.641651
	H404	H	0.680032	0.610228	0.653168
	O405	O	0.806925	0.956404	0.197573
	H406	H	0.803579	0.935606	0.183977
	H407	H	0.800106	0.957960	0.217607
	O408	O	0.902944	0.795320	0.169893
	H409	H	0.920492	0.797047	0.156421
	H410	H	0.898718	0.787005	0.168990
	O411	O	0.919622	0.062062	0.970106
	H412	H	0.927624	0.061198	0.963164
	H413	H	0.912409	0.057494	0.971544
	O414	O	0.514681	0.576995	0.556328
	H415	H	0.520318	0.562424	0.559217
	H416	H	0.516044	0.562767	0.548549
	O417	O	0.572925	0.622397	0.409236
	H418	H	0.587254	0.623630	0.409125
	H419	H	0.569519	0.625119	0.411894
