data_Molecule from HDF5

_cell_length_a		16.311855
_cell_length_b		16.320331
_cell_length_c		16.268521
_cell_angle_alpha	89.914053
_cell_angle_beta	89.974453
_cell_angle_gamma	89.970180
_symmetry_space_group_name_H-M	'P 1'
_symmetry_Int_Tables_number		1

loop_
	_symmetry_equiv_pos_as_xyz
	x,y,z

loop_
	_atom_site_label
	_atom_site_type_symbol
	_atom_site_fract_x
	_atom_site_fract_y
	_atom_site_fract_z
	H0	H	0.402086	0.836656	0.716197
	H1	H	0.598290	0.163875	0.716006
	H2	H	0.596608	0.835818	0.287419
	H3	H	0.401202	0.163286	0.287920
	H4	H	0.715309	0.400312	0.837734
	H5	H	0.714443	0.599132	0.164475
	H6	H	0.284210	0.599991	0.838200
	H7	H	0.283829	0.401401	0.164739
	H8	H	0.836478	0.716289	0.400647
	H9	H	0.161078	0.715727	0.600859
	H10	H	0.836303	0.283401	0.601027
	H11	H	0.162008	0.284214	0.400345
	H12	H	0.836156	0.400197	0.716688
	H13	H	0.162274	0.599662	0.715743
	H14	H	0.835419	0.598047	0.286893
	H15	H	0.161511	0.401233	0.286415
	H16	H	0.398817	0.716226	0.838526
	H17	H	0.598021	0.714203	0.165385
	H18	H	0.601846	0.282010	0.839321
	H19	H	0.401383	0.287002	0.165361
	H20	H	0.714525	0.836096	0.402736
	H21	H	0.715512	0.162665	0.600662
	H22	H	0.284861	0.837029	0.601567
	H23	H	0.283643	0.162005	0.401585
	H24	H	0.900724	0.336544	0.215223
	H25	H	0.097100	0.663049	0.216456
	H26	H	0.099085	0.337598	0.785578
	H27	H	0.900286	0.663446	0.785149
	H28	H	0.215174	0.900984	0.337943
	H29	H	0.212863	0.097318	0.664891
	H30	H	0.784028	0.099257	0.338048
	H31	H	0.784492	0.898763	0.665245
	H32	H	0.336957	0.217606	0.901724
	H33	H	0.661955	0.215487	0.101960
	H34	H	0.335407	0.785669	0.100406
	H35	H	0.661789	0.783418	0.901451
	H36	H	0.335737	0.902031	0.215826
	H37	H	0.662359	0.097746	0.216097
	H38	H	0.335937	0.100133	0.786770
	H39	H	0.663004	0.900576	0.786859
	H40	H	0.901112	0.213932	0.337434
	H41	H	0.099983	0.215093	0.663946
	H42	H	0.098550	0.784889	0.337560
	H43	H	0.899549	0.783056	0.664122
	H44	H	0.215166	0.337416	0.902341
	H45	H	0.212828	0.663890	0.099159
	H46	H	0.783752	0.337560	0.100493
	H47	H	0.783959	0.663357	0.901457
	H48	H	0.409436	0.114222	0.590926
	H49	H	0.592613	0.883146	0.599425
	H50	H	0.595509	0.115404	0.410719
	H51	H	0.412770	0.882341	0.400032
	H52	H	0.591709	0.405745	0.117457
	H53	H	0.595835	0.591679	0.884228
	H54	H	0.406588	0.593879	0.118773
	H55	H	0.409582	0.407381	0.885354
	H56	H	0.113106	0.586320	0.410677
	H57	H	0.885315	0.588701	0.589682
	H58	H	0.114810	0.411038	0.597715
	H59	H	0.887764	0.416255	0.415680
	H60	H	0.116827	0.401888	0.594844
	H61	H	0.881942	0.589675	0.598812
	H62	H	0.117341	0.593303	0.402443
	H63	H	0.879135	0.406618	0.395757
	H64	H	0.404243	0.592159	0.117640
	H65	H	0.587787	0.588775	0.887960
	H66	H	0.593670	0.409460	0.117290
	H67	H	0.404932	0.407345	0.884410
	H68	H	0.593026	0.115952	0.405433
	H69	H	0.588927	0.885804	0.593067
	H70	H	0.400842	0.117211	0.592657
	H71	H	0.411791	0.888405	0.417718
	H72	H	0.908863	0.614702	0.092587
	H73	H	0.086799	0.384688	0.096514
	H74	H	0.097249	0.617020	0.910365
	H75	H	0.906105	0.386708	0.916868
	H76	H	0.095796	0.907849	0.618738
	H77	H	0.111003	0.091163	0.379596
	H78	H	0.905099	0.095479	0.619167
	H79	H	0.911639	0.900905	0.384732
	H80	H	0.615272	0.095934	0.912725
	H81	H	0.382687	0.098164	0.089876
	H82	H	0.614367	0.911371	0.096941
	H83	H	0.382740	0.910224	0.904828
	H84	H	0.617828	0.901610	0.096900
	H85	H	0.384705	0.087568	0.093945
	H86	H	0.613253	0.088658	0.910192
	H87	H	0.381865	0.902573	0.909317
	H88	H	0.906050	0.086452	0.616299
	H89	H	0.083430	0.077180	0.391258
	H90	H	0.089396	0.909320	0.616150
	H91	H	0.898923	0.907191	0.382797
	H92	H	0.091412	0.617996	0.901698
	H93	H	0.092939	0.385872	0.087920
	H94	H	0.902982	0.616901	0.092668
	H95	H	0.901995	0.381741	0.905283
	H96	H	0.407748	0.117378	0.599287
	H97	H	0.596404	0.883537	0.592890
	H98	H	0.589790	0.113751	0.410500
	H99	H	0.396243	0.880503	0.409371
	H100	H	0.589703	0.409185	0.116058
	H101	H	0.589037	0.596658	0.884453
	H102	H	0.407269	0.591787	0.117523
	H103	H	0.407031	0.410760	0.885997
	H104	H	0.114681	0.597831	0.412249
	H105	H	0.881697	0.597605	0.592458
	H106	H	0.112993	0.408239	0.587786
	H107	H	0.880805	0.394071	0.414502
	H108	H	0.906896	0.617821	0.098100
	H109	H	0.097142	0.381890	0.096521
	H110	H	0.087214	0.613629	0.910676
	H111	H	0.914140	0.386175	0.906476
	H112	H	0.091167	0.902254	0.617726
	H113	H	0.084052	0.109006	0.382726
	H114	H	0.913430	0.092585	0.615596
	H115	H	0.909960	0.914129	0.388304
	H116	H	0.616220	0.093840	0.904996
	H117	H	0.380365	0.095885	0.100587
	H118	H	0.613413	0.906049	0.088247
	H119	H	0.385849	0.910613	0.913413
	C120	C	0.378020	0.008369	0.623345
	C121	C	0.621576	0.991709	0.623661
	C122	C	0.621075	0.007578	0.380066
	C123	C	0.378065	0.991410	0.380203
	C124	C	0.621286	0.378457	0.009480
	C125	C	0.620125	0.621219	0.993496
	C126	C	0.376947	0.622201	0.010183
	C127	C	0.378292	0.379721	0.993187
	C128	C	0.007112	0.621193	0.379688
	C129	C	0.990867	0.620882	0.622250
	C130	C	0.007402	0.377640	0.622794
	C131	C	0.990375	0.377611	0.379608
	C132	C	0.877737	0.508684	0.122885
	C133	C	0.120691	0.491939	0.122837
	C134	C	0.121054	0.508709	0.878974
	C135	C	0.877738	0.492304	0.879550
	C136	C	0.121001	0.877814	0.509536
	C137	C	0.121405	0.121221	0.492447
	C138	C	0.878714	0.120640	0.509249
	C139	C	0.877717	0.877918	0.492982
	C140	C	0.507493	0.122434	0.880159
	C141	C	0.490587	0.121976	0.123731
	C142	C	0.507229	0.877903	0.123167
	C143	C	0.490989	0.878690	0.879927
	C144	C	0.380968	0.885520	0.678673
	C145	C	0.618788	0.114928	0.678389
	C146	C	0.617951	0.884616	0.325033
	C147	C	0.380230	0.114177	0.325023
	C148	C	0.677592	0.380053	0.886930
	C149	C	0.675997	0.619078	0.115957
	C150	C	0.321906	0.620254	0.887110
	C151	C	0.322630	0.381626	0.116178
	C152	C	0.884793	0.677544	0.381000
	C153	C	0.113066	0.676674	0.620186
	C154	C	0.885110	0.321696	0.620982
	C155	C	0.113104	0.322536	0.381190
	C156	C	0.884779	0.379734	0.678486
	C157	C	0.113360	0.619503	0.677954
	C158	C	0.884108	0.618768	0.324787
	C159	C	0.112995	0.380548	0.324301
	C160	C	0.379077	0.677859	0.887258
	C161	C	0.617798	0.676272	0.116455
	C162	C	0.620752	0.321632	0.887435
	C163	C	0.380627	0.324543	0.116456
	C164	C	0.676263	0.884708	0.382506
	C165	C	0.676804	0.114456	0.620852
	C166	C	0.322789	0.885760	0.621514
	C167	C	0.322160	0.113764	0.382046
	C168	C	0.880135	0.385524	0.177839
	C169	C	0.118144	0.614446	0.178393
	C170	C	0.119215	0.386084	0.823881
	C171	C	0.879646	0.614663	0.823323
	C172	C	0.176554	0.880396	0.386506
	C173	C	0.175984	0.118635	0.615751
	C174	C	0.822553	0.118849	0.386843
	C175	C	0.822255	0.879001	0.616077
	C176	C	0.385113	0.178547	0.881970
	C177	C	0.613391	0.177114	0.121645
	C178	C	0.384341	0.823098	0.121029
	C179	C	0.613532	0.822411	0.881769
	C180	C	0.384419	0.881156	0.178173
	C181	C	0.613644	0.118604	0.178453
	C182	C	0.384858	0.120518	0.824532
	C183	C	0.613983	0.880658	0.824673
	C184	C	0.880625	0.176146	0.386519
	C185	C	0.119632	0.177039	0.615258
	C186	C	0.118522	0.823035	0.386311
	C187	C	0.879713	0.821531	0.615655
	C188	C	0.176857	0.386088	0.881838
	C189	C	0.175262	0.614857	0.120104
	C190	C	0.822023	0.385934	0.120871
	C191	C	0.822088	0.614758	0.881252
	C192	C	0.399869	0.094229	0.600969
	C193	C	0.599270	0.906374	0.601558
	C194	C	0.599203	0.092992	0.402326
	C195	C	0.400301	0.905850	0.402629
	C196	C	0.598402	0.401411	0.094911
	C197	C	0.597488	0.598843	0.907577
	C198	C	0.399485	0.599303	0.095940
	C199	C	0.400869	0.402042	0.907552
	C200	C	0.092920	0.598961	0.401902
	C201	C	0.905079	0.598579	0.600190
	C202	C	0.092844	0.400386	0.600123
	C203	C	0.904638	0.399263	0.402017
	C204	C	0.899697	0.594253	0.100851
	C205	C	0.098558	0.406313	0.100368
	C206	C	0.098642	0.594217	0.901170
	C207	C	0.900636	0.406985	0.902658
	C208	C	0.098813	0.899860	0.595372
	C209	C	0.099379	0.098912	0.406723
	C210	C	0.901421	0.098048	0.594908
	C211	C	0.900258	0.900843	0.407396
	C212	C	0.592905	0.099721	0.902655
	C213	C	0.404817	0.100243	0.101454
	C214	C	0.593150	0.899752	0.100697
	C215	C	0.405585	0.901232	0.902537
	Zn216	Zn	0.499370	0.000415	0.751802
	Zn217	Zn	0.498793	-0.000237	0.251356
	Zn218	Zn	0.749232	0.500547	0.001186
	Zn219	Zn	0.249353	0.500711	0.001215
	Zn220	Zn	-0.001071	0.749617	0.501068
	Zn221	Zn	0.000064	0.248909	0.500738
	Zn222	Zn	-0.000992	0.500090	0.750723
	Zn223	Zn	-0.001293	0.499720	0.251639
	Zn224	Zn	0.498709	0.749911	0.001533
	Zn225	Zn	0.499151	0.250397	0.002112
	Zn226	Zn	0.749974	-0.000918	0.501795
	Zn227	Zn	0.249621	-0.000442	0.501373
	N228	N	0.414515	0.962853	0.679902
	N229	N	0.585181	0.037638	0.680257
	N230	N	0.584273	0.961902	0.323470
	N231	N	0.414450	0.037082	0.324004
	N232	N	0.677983	0.414830	0.963834
	N233	N	0.677164	0.585364	0.038565
	N234	N	0.320804	0.586245	0.964460
	N235	N	0.320720	0.414912	0.038440
	N236	N	0.962294	0.679112	0.414447
	N237	N	0.035831	0.677760	0.586422
	N238	N	0.962362	0.320210	0.587166
	N239	N	0.035939	0.320773	0.415012
	N240	N	0.961858	0.413847	0.679729
	N241	N	0.036252	0.585405	0.679204
	N242	N	0.961164	0.584375	0.323903
	N243	N	0.035705	0.414268	0.323245
	N244	N	0.412598	0.679282	0.964885
	N245	N	0.583862	0.677695	0.039019
	N246	N	0.586594	0.320488	0.964651
	N247	N	0.414808	0.323336	0.039066
	N248	N	0.678613	0.962156	0.415785
	N249	N	0.678818	0.036962	0.587804
	N250	N	0.320966	0.963121	0.587671
	N251	N	0.320561	0.036425	0.415626
	N252	N	0.914136	0.462654	0.179169
	N253	N	0.084890	0.537011	0.180195
	N254	N	0.085226	0.463152	0.822050
	N255	N	0.913565	0.537505	0.822349
	N256	N	0.178177	0.913904	0.464005
	N257	N	0.177311	0.084604	0.538460
	N258	N	0.821278	0.085008	0.464400
	N259	N	0.821035	0.913388	0.538872
	N260	N	0.462527	0.180160	0.915425
	N261	N	0.535849	0.179338	0.088286
	N262	N	0.461675	0.821195	0.087321
	N263	N	0.536147	0.820910	0.915434
	N264	N	0.461806	0.914614	0.179405
	N265	N	0.536435	0.084895	0.179579
	N266	N	0.461990	0.086211	0.823423
	N267	N	0.536887	0.914922	0.823506
	N268	N	0.914995	0.177122	0.463633
	N269	N	0.086630	0.179023	0.537473
	N270	N	0.084713	0.821332	0.463864
	N271	N	0.913534	0.820681	0.538149
	N272	N	0.178101	0.463491	0.915456
	N273	N	0.177125	0.537602	0.086524
	N274	N	0.820127	0.463447	0.087531
	N275	N	0.820745	0.537590	0.915394
	O276	O	0.445040	0.480434	0.609385
	H277	H	0.442995	0.485022	0.619964
	H278	H	0.436358	0.466729	0.617414
	O279	O	0.422356	0.519817	0.463561
	H280	H	0.424246	0.520624	0.467211
	H281	H	0.428000	0.519367	0.467485
	O282	O	0.437138	0.499392	0.535534
	H283	H	0.438331	0.496266	0.519714
	H284	H	0.432549	0.501666	0.529751
	O285	O	-0.003554	0.991772	0.961893
	H286	H	0.001974	0.990452	0.962893
	H287	H	-0.001458	0.995985	0.967313
	O288	O	0.727079	0.740154	0.164565
	H289	H	0.730180	0.739059	0.167676
	H290	H	0.731569	0.736110	0.158171
	O291	O	-0.040364	0.078846	0.926445
	H292	H	-0.040750	0.090475	0.927819
	H293	H	-0.049311	0.076991	0.920736
	O294	O	0.500582	0.446614	0.555501
	H295	H	0.494099	0.446741	0.563202
	H296	H	0.493238	0.450041	0.560729
	O297	O	0.414001	0.573133	0.428590
	H298	H	0.415713	0.584291	0.433539
	H299	H	0.418809	0.567838	0.425029
	O300	O	0.450814	0.476576	0.549190
	H301	H	0.452502	0.469555	0.545168
	H302	H	0.450169	0.473892	0.554780
	O303	O	0.581869	0.498861	0.552929
	H304	H	0.576256	0.508739	0.549302
	H305	H	0.587851	0.496996	0.548784
	O306	O	1.022215	0.047422	0.974371
	H307	H	1.025451	0.052397	0.970394
	H308	H	1.025415	0.046833	0.971343
	O309	O	0.442695	0.440149	0.520496
	H310	H	0.436222	0.436548	0.522820
	H311	H	0.441018	0.444882	0.515269
	O312	O	0.525253	0.477016	0.496043
	H313	H	0.534948	0.483975	0.497156
	H314	H	0.524564	0.470764	0.491416
	O315	O	0.945403	0.025002	0.941295
	H316	H	0.945869	0.017353	0.948209
	H317	H	0.947120	0.024948	0.946393
	O318	O	-0.061163	0.058320	-0.116789
	H319	H	-0.069043	0.062151	-0.121429
	H320	H	-0.058530	0.059884	-0.126593
	O321	O	0.519540	0.525971	0.622609
	H322	H	0.518581	0.526235	0.634555
	H323	H	0.523514	0.529988	0.619116
	O324	O	0.947652	0.051100	-0.083868
	H325	H	0.936797	0.048883	-0.085124
	H326	H	0.953576	0.055733	-0.079507
	O327	O	0.925997	1.016495	-0.043787
	H328	H	0.921589	1.021125	-0.047963
	H329	H	0.928332	1.012827	-0.040648
	O330	O	0.437453	0.480158	0.541283
	H331	H	0.429858	0.477657	0.539502
	H332	H	0.435538	0.486464	0.543054
	O333	O	0.528347	0.459075	0.443927
	H334	H	0.529669	0.462314	0.441884
	H335	H	0.525533	0.449333	0.451846
