data_Molecule from HDF5

_cell_length_a		16.262847
_cell_length_b		16.306969
_cell_length_c		16.319724
_cell_angle_alpha	90.069619
_cell_angle_beta	90.074732
_cell_angle_gamma	89.748058
_symmetry_space_group_name_H-M	'P 1'
_symmetry_Int_Tables_number		1

loop_
	_symmetry_equiv_pos_as_xyz
	x,y,z

loop_
	_atom_site_label
	_atom_site_type_symbol
	_atom_site_fract_x
	_atom_site_fract_y
	_atom_site_fract_z
	H0	H	0.404886	0.834966	0.711525
	H1	H	0.605604	0.159824	0.713509
	H2	H	0.605032	0.834766	0.281396
	H3	H	0.404534	0.161348	0.280125
	H4	H	0.719812	0.398128	0.833081
	H5	H	0.717693	0.594607	0.159872
	H6	H	0.288296	0.595474	0.832874
	H7	H	0.290987	0.399892	0.159854
	H8	H	0.841177	0.713626	0.397016
	H9	H	0.168279	0.712798	0.597472
	H10	H	0.839869	0.284717	0.594444
	H11	H	0.168125	0.282348	0.397996
	H12	H	0.840501	0.400297	0.710681
	H13	H	0.167258	0.596541	0.713837
	H14	H	0.840628	0.597318	0.281432
	H15	H	0.168166	0.397444	0.281934
	H16	H	0.402402	0.714019	0.832587
	H17	H	0.602437	0.712049	0.159170
	H18	H	0.604680	0.281452	0.832883
	H19	H	0.405963	0.282870	0.159404
	H20	H	0.719473	0.834797	0.398167
	H21	H	0.718944	0.161879	0.594616
	H22	H	0.290256	0.834913	0.594306
	H23	H	0.289077	0.161447	0.396448
	H24	H	0.905512	0.334369	0.211348
	H25	H	0.102623	0.660343	0.212911
	H26	H	0.104380	0.334708	0.781657
	H27	H	0.902804	0.660513	0.780389
	H28	H	0.219224	0.898598	0.332193
	H29	H	0.220838	0.096829	0.658848
	H30	H	0.789069	0.097245	0.333076
	H31	H	0.790010	0.899594	0.658610
	H32	H	0.340447	0.213360	0.896201
	H33	H	0.668367	0.210508	0.094185
	H34	H	0.340112	0.785872	0.092990
	H35	H	0.667940	0.780845	0.895857
	H36	H	0.341287	0.900962	0.209925
	H37	H	0.668532	0.095937	0.210493
	H38	H	0.340896	0.098676	0.779263
	H39	H	0.668732	0.896959	0.780591
	H40	H	0.904171	0.214068	0.333084
	H41	H	0.104191	0.212982	0.659463
	H42	H	0.104884	0.779798	0.333544
	H43	H	0.905359	0.783277	0.659087
	H44	H	0.219131	0.333445	0.898343
	H45	H	0.218822	0.660872	0.097093
	H46	H	0.791299	0.333958	0.093530
	H47	H	0.787865	0.660587	0.897213
	H48	H	0.411697	0.115449	0.593113
	H49	H	0.599383	0.882901	0.585136
	H50	H	0.599659	0.116907	0.397126
	H51	H	0.400524	0.878579	0.400863
	H52	H	0.605060	0.396617	0.116092
	H53	H	0.602025	0.585768	0.879720
	H54	H	0.415208	0.604295	0.113396
	H55	H	0.412732	0.404359	0.880885
	H56	H	0.119170	0.591848	0.410359
	H57	H	0.890269	0.590016	0.582599
	H58	H	0.122433	0.405390	0.596975
	H59	H	0.888257	0.402806	0.406502
	H60	H	0.121141	0.397983	0.586001
	H61	H	0.888982	0.585688	0.593109
	H62	H	0.118396	0.582421	0.405655
	H63	H	0.888901	0.409578	0.402556
	H64	H	0.399491	0.588491	0.114406
	H65	H	0.590667	0.587581	0.882517
	H66	H	0.600503	0.413403	0.109636
	H67	H	0.410721	0.404303	0.880408
	H68	H	0.591861	0.112267	0.401706
	H69	H	0.600317	0.881235	0.590547
	H70	H	0.417947	0.111730	0.587130
	H71	H	0.420880	0.881831	0.392604
	H72	H	0.903426	0.617097	0.096504
	H73	H	0.097916	0.383650	0.083202
	H74	H	0.099328	0.612800	0.907680
	H75	H	0.905830	0.381094	0.909172
	H76	H	0.091523	0.908303	0.608245
	H77	H	0.091441	0.083105	0.384518
	H78	H	0.911097	0.085164	0.610500
	H79	H	0.920910	0.915846	0.386180
	H80	H	0.622031	0.093127	0.902060
	H81	H	0.390352	0.082464	0.087940
	H82	H	0.619595	0.904923	0.083649
	H83	H	0.387777	0.904100	0.901631
	H84	H	0.621408	0.907630	0.093356
	H85	H	0.384681	0.095046	0.096535
	H86	H	0.619345	0.089024	0.907289
	H87	H	0.389794	0.906206	0.906672
	H88	H	0.919140	0.092330	0.610385
	H89	H	0.092291	0.100293	0.378811
	H90	H	0.097652	0.897935	0.613916
	H91	H	0.918308	0.892902	0.377464
	H92	H	0.095862	0.614752	0.899790
	H93	H	0.103730	0.378470	0.093659
	H94	H	0.921462	0.611595	0.092699
	H95	H	0.912166	0.378750	0.895718
	H96	H	0.408322	0.113318	0.584180
	H97	H	0.594514	0.882780	0.589132
	H98	H	0.599573	0.114142	0.406824
	H99	H	0.416434	0.887075	0.413792
	H100	H	0.588771	0.399740	0.110288
	H101	H	0.597183	0.595582	0.878037
	H102	H	0.419713	0.583805	0.106940
	H103	H	0.411744	0.405786	0.880604
	H104	H	0.121837	0.590787	0.400311
	H105	H	0.885980	0.596322	0.591257
	H106	H	0.117216	0.410757	0.586129
	H107	H	0.885767	0.402799	0.398774
	H108	H	0.907385	0.611708	0.078767
	H109	H	0.091845	0.382073	0.093704
	H110	H	0.090366	0.611185	0.906560
	H111	H	0.920014	0.384941	0.906439
	H112	H	0.104432	0.909086	0.612037
	H113	H	0.106678	0.089691	0.377862
	H114	H	0.909204	0.095144	0.614114
	H115	H	0.899566	0.908138	0.377079
	H116	H	0.619803	0.086331	0.900551
	H117	H	0.389069	0.097489	0.080806
	H118	H	0.623811	0.898391	0.089804
	H119	H	0.389386	0.909100	0.902122
	C120	C	0.383427	0.005900	0.616982
	C121	C	0.627107	0.989823	0.617486
	C122	C	0.626688	0.006409	0.373699
	C123	C	0.382838	0.990163	0.373510
	C124	C	0.626898	0.375001	0.004304
	C125	C	0.625142	0.618205	0.987887
	C126	C	0.381598	0.620616	0.004201
	C127	C	0.383412	0.376253	0.988272
	C128	C	0.012345	0.618284	0.375606
	C129	C	0.996238	0.619632	0.618724
	C130	C	0.012146	0.376690	0.618024
	C131	C	0.995940	0.375712	0.374794
	C132	C	0.883041	0.505673	0.117707
	C133	C	0.126342	0.489224	0.119456
	C134	C	0.125038	0.505185	0.875804
	C135	C	0.882433	0.489124	0.874706
	C136	C	0.126958	0.875593	0.504071
	C137	C	0.126405	0.119877	0.487704
	C138	C	0.883167	0.119715	0.504374
	C139	C	0.883734	0.876931	0.487775
	C140	C	0.512593	0.119174	0.873917
	C141	C	0.496134	0.119586	0.117576
	C142	C	0.513149	0.876056	0.117222
	C143	C	0.496776	0.876504	0.874335
	C144	C	0.384884	0.883482	0.673007
	C145	C	0.625365	0.111899	0.674191
	C146	C	0.624734	0.883609	0.319155
	C147	C	0.384481	0.112719	0.318351
	C148	C	0.682232	0.377196	0.881789
	C149	C	0.680423	0.615700	0.110811
	C150	C	0.325920	0.617100	0.881628
	C151	C	0.328641	0.379109	0.111128
	C152	C	0.889530	0.675081	0.376799
	C153	C	0.119090	0.674991	0.617662
	C154	C	0.889047	0.322003	0.615347
	C155	C	0.119144	0.320198	0.377433
	C156	C	0.889212	0.379480	0.672969
	C157	C	0.118771	0.617126	0.675290
	C158	C	0.889407	0.617084	0.319659
	C159	C	0.119070	0.377203	0.319524
	C160	C	0.382613	0.675902	0.881491
	C161	C	0.622908	0.673908	0.110556
	C162	C	0.624776	0.319461	0.881703
	C163	C	0.385659	0.320755	0.110674
	C164	C	0.682291	0.883913	0.376815
	C165	C	0.681730	0.112779	0.615130
	C166	C	0.328049	0.883493	0.614492
	C167	C	0.326818	0.112631	0.375865
	C168	C	0.885452	0.382878	0.173010
	C169	C	0.123471	0.611666	0.175028
	C170	C	0.124191	0.383135	0.819786
	C171	C	0.883184	0.611839	0.818934
	C172	C	0.182118	0.877533	0.381265
	C173	C	0.182696	0.117803	0.610238
	C174	C	0.827460	0.117640	0.381507
	C175	C	0.827621	0.879077	0.609895
	C176	C	0.389570	0.175396	0.875930
	C177	C	0.619544	0.173295	0.115025
	C178	C	0.389570	0.822501	0.114087
	C179	C	0.619397	0.819542	0.875891
	C180	C	0.390050	0.879603	0.172146
	C181	C	0.619410	0.116125	0.172564
	C182	C	0.389552	0.117986	0.817999
	C183	C	0.619704	0.877264	0.818555
	C184	C	0.884578	0.175738	0.381895
	C185	C	0.124841	0.175496	0.610394
	C186	C	0.125351	0.818451	0.381923
	C187	C	0.885123	0.821290	0.610414
	C188	C	0.181209	0.382583	0.877942
	C189	C	0.181204	0.611846	0.117260
	C190	C	0.828833	0.382547	0.114476
	C191	C	0.826216	0.611965	0.876971
	C192	C	0.406115	0.091342	0.594594
	C193	C	0.604687	0.904379	0.594727
	C194	C	0.603760	0.092456	0.395610
	C195	C	0.405998	0.904512	0.395875
	C196	C	0.604631	0.396997	0.089900
	C197	C	0.603146	0.596145	0.902262
	C198	C	0.404624	0.598728	0.089540
	C199	C	0.405297	0.398403	0.902758
	C200	C	0.097650	0.595109	0.398615
	C201	C	0.910589	0.597315	0.595777
	C202	C	0.098197	0.398341	0.596160
	C203	C	0.909839	0.398465	0.396179
	C204	C	0.904636	0.591277	0.095791
	C205	C	0.104398	0.403395	0.096756
	C206	C	0.101974	0.590781	0.898169
	C207	C	0.905822	0.403836	0.897154
	C208	C	0.104706	0.898257	0.589277
	C209	C	0.103551	0.097442	0.402375
	C210	C	0.906277	0.097322	0.589704
	C211	C	0.906400	0.899141	0.402339
	C212	C	0.598167	0.096313	0.896564
	C213	C	0.410233	0.098026	0.095207
	C214	C	0.599469	0.897327	0.095218
	C215	C	0.411139	0.899747	0.896734
	Zn216	Zn	0.504578	-0.002477	0.745804
	Zn217	Zn	0.505026	-0.001955	0.245692
	Zn218	Zn	0.754653	0.497143	-0.003916
	Zn219	Zn	0.254003	0.497355	-0.003251
	Zn220	Zn	0.004300	0.747386	0.496434
	Zn221	Zn	0.003996	0.248367	0.496466
	Zn222	Zn	0.004059	0.497356	0.747055
	Zn223	Zn	0.004032	0.497563	0.247079
	Zn224	Zn	0.504349	0.748132	-0.004341
	Zn225	Zn	0.504738	0.247455	-0.004201
	Zn226	Zn	0.755062	-0.001471	0.495683
	Zn227	Zn	0.255100	-0.001629	0.495230
	N228	N	0.418831	0.960591	0.674497
	N229	N	0.591868	0.034570	0.675621
	N230	N	0.590993	0.961116	0.317139
	N231	N	0.418558	0.035394	0.316717
	N232	N	0.683502	0.411182	0.958921
	N233	N	0.681917	0.581695	0.033576
	N234	N	0.324932	0.583584	0.958919
	N235	N	0.327148	0.412983	0.033996
	N236	N	0.966855	0.675981	0.410957
	N237	N	0.041807	0.676635	0.583249
	N238	N	0.966486	0.320374	0.581696
	N239	N	0.041774	0.319239	0.411129
	N240	N	0.966835	0.412585	0.674930
	N241	N	0.041379	0.583371	0.676034
	N242	N	0.966561	0.582399	0.318930
	N243	N	0.041406	0.411117	0.317718
	N244	N	0.416841	0.678134	0.958624
	N245	N	0.589309	0.675593	0.033208
	N246	N	0.591174	0.317941	0.958953
	N247	N	0.418963	0.318826	0.033271
	N248	N	0.683404	0.961283	0.410114
	N249	N	0.682952	0.035665	0.580874
	N250	N	0.327231	0.960607	0.580392
	N251	N	0.325755	0.035202	0.409348
	N252	N	0.918565	0.460392	0.175115
	N253	N	0.090316	0.534213	0.176521
	N254	N	0.089927	0.460482	0.818425
	N255	N	0.917565	0.534496	0.817441
	N256	N	0.183446	0.912322	0.458151
	N257	N	0.183699	0.083913	0.533060
	N258	N	0.826407	0.083727	0.458630
	N259	N	0.826911	0.913024	0.532725
	N260	N	0.466968	0.176167	0.910216
	N261	N	0.542106	0.175684	0.081466
	N262	N	0.467245	0.820299	0.080602
	N263	N	0.542044	0.819044	0.910026
	N264	N	0.467895	0.912183	0.174121
	N265	N	0.541643	0.083133	0.174092
	N266	N	0.466978	0.083753	0.816639
	N267	N	0.542488	0.912216	0.817614
	N268	N	0.918609	0.177136	0.459282
	N269	N	0.090551	0.176960	0.533231
	N270	N	0.091677	0.817173	0.459109
	N271	N	0.919351	0.819834	0.533454
	N272	N	0.181612	0.459600	0.912293
	N273	N	0.183084	0.534500	0.083606
	N274	N	0.827368	0.459722	0.080569
	N275	N	0.825673	0.534767	0.910868
	O276	O	1.013471	1.006096	-0.075592
	H277	H	1.011177	1.007829	-0.079492
	H278	H	1.014107	1.008214	-0.075490
	O279	O	0.039572	-0.032254	1.002323
	H280	H	0.040187	-0.035578	1.004369
	H281	H	0.048341	-0.032555	0.996137
	O282	O	-0.073683	0.058434	0.035628
	H283	H	-0.071097	0.051678	0.020277
	H284	H	-0.074251	0.050599	0.038955
	O285	O	0.473402	0.542290	0.432955
	H286	H	0.471082	0.554050	0.429130
	H287	H	0.481663	0.554867	0.431200
	O288	O	0.039967	0.006136	-0.043819
	H289	H	0.047612	0.006167	-0.043456
	H290	H	0.049271	0.001650	-0.048683
	O291	O	-0.033793	1.009632	-0.065932
	H292	H	-0.038926	1.018896	-0.067044
	H293	H	-0.047512	1.014748	-0.058804
	O294	O	0.002110	0.969866	-0.009992
	H295	H	0.008674	0.974471	-0.013174
	H296	H	0.009244	0.958014	0.001430
	O297	O	0.486351	0.503488	0.556448
	H298	H	0.498162	0.505395	0.557186
	H299	H	0.496399	0.505296	0.560928
	O300	O	0.483501	0.502963	0.571469
	H301	H	0.478561	0.501400	0.577179
	H302	H	0.479404	0.505742	0.572538
	O303	O	1.019890	0.082531	1.032348
	H304	H	1.018997	0.094533	1.029778
	H305	H	1.012608	0.078782	1.034095
	O306	O	0.040392	0.903950	0.942374
	H307	H	0.033789	0.901120	0.943628
	H308	H	0.048476	0.909424	0.942479
	O309	O	-0.044374	1.019747	0.950175
	H310	H	-0.040745	1.022978	0.956641
	H311	H	-0.041122	1.012279	0.949731
	O312	O	-0.000068	0.000480	1.054215
	H313	H	-0.009136	-0.000573	1.051600
	H314	H	0.007989	0.006073	1.054077
	O315	O	0.453030	0.449923	0.540373
	H316	H	0.443175	0.451185	0.547631
	H317	H	0.445887	0.449260	0.540470
	O318	O	0.025667	0.033418	0.969596
	H319	H	0.028769	0.034004	0.980765
	H320	H	0.021493	0.046641	0.958311
	O321	O	0.532195	0.545602	0.485424
	H322	H	0.530040	0.550627	0.484607
	H323	H	0.530458	0.539035	0.468893
	O324	O	1.102768	-0.047290	0.977584
	H325	H	1.101448	-0.051796	0.975901
	H326	H	1.096093	-0.055901	0.980452
	O327	O	1.028782	0.950067	0.963965
	H328	H	1.014956	0.953882	0.965051
	H329	H	1.031644	0.951394	0.968019
	O330	O	0.429878	0.442729	0.462088
	H331	H	0.437641	0.431847	0.459687
	H332	H	0.415936	0.435862	0.468551
	O333	O	0.438030	0.504024	0.436372
	H334	H	0.435026	0.506378	0.443861
	H335	H	0.432421	0.500214	0.440662
	O336	O	0.494930	0.554567	0.505249
	H337	H	0.498974	0.554121	0.501558
	H338	H	0.494524	0.556235	0.504992
	O339	O	0.456861	0.477292	0.501882
	H340	H	0.455908	0.477616	0.493853
	H341	H	0.448664	0.478385	0.501614
	O342	O	0.430073	0.506141	0.461257
	H343	H	0.426503	0.509730	0.456233
	H344	H	0.432447	0.504833	0.467887
	O345	O	0.501836	0.515512	0.492901
	H346	H	0.503607	0.525260	0.474283
	H347	H	0.492234	0.514493	0.496102
