data_Molecule from HDF5

_cell_length_a		16.395311
_cell_length_b		16.237113
_cell_length_c		16.523652
_cell_angle_alpha	90.105752
_cell_angle_beta	90.044419
_cell_angle_gamma	90.002884
_symmetry_space_group_name_H-M	'P 1'
_symmetry_Int_Tables_number		1

loop_
	_symmetry_equiv_pos_as_xyz
	x,y,z

loop_
	_atom_site_label
	_atom_site_type_symbol
	_atom_site_fract_x
	_atom_site_fract_y
	_atom_site_fract_z
	H0	H	0.392088	0.838437	0.720087
	H1	H	0.605637	0.159137	0.718294
	H2	H	0.606863	0.839110	0.275018
	H3	H	0.396619	0.159878	0.280353
	H4	H	0.719432	0.392188	0.838214
	H5	H	0.720909	0.605502	0.154756
	H6	H	0.277857	0.604079	0.838339
	H7	H	0.277262	0.393928	0.154828
	H8	H	0.838898	0.716234	0.393759
	H9	H	0.160296	0.715038	0.597518
	H10	H	0.839703	0.277123	0.599620
	H11	H	0.160980	0.282395	0.397804
	H12	H	0.840672	0.389301	0.719385
	H13	H	0.157709	0.604355	0.718563
	H14	H	0.839336	0.602862	0.276315
	H15	H	0.157735	0.391802	0.274872
	H16	H	0.395428	0.719069	0.838859
	H17	H	0.601938	0.718800	0.155936
	H18	H	0.600857	0.278410	0.837466
	H19	H	0.397753	0.281284	0.156664
	H20	H	0.717429	0.836419	0.394494
	H21	H	0.722273	0.158309	0.603344
	H22	H	0.280437	0.837078	0.602180
	H23	H	0.282700	0.160159	0.397336
	H24	H	0.891499	0.337375	0.217356
	H25	H	0.100097	0.659516	0.214944
	H26	H	0.105391	0.339022	0.774787
	H27	H	0.891991	0.658598	0.775663
	H28	H	0.220732	0.893951	0.339092
	H29	H	0.222378	0.104414	0.655787
	H30	H	0.777290	0.103715	0.339906
	H31	H	0.774878	0.886647	0.652789
	H32	H	0.337696	0.214322	0.897785
	H33	H	0.659303	0.219062	0.100902
	H34	H	0.338964	0.781083	0.099517
	H35	H	0.658992	0.778252	0.895463
	H36	H	0.340950	0.893977	0.219492
	H37	H	0.658046	0.107362	0.220434
	H38	H	0.340884	0.104394	0.775757
	H39	H	0.656652	0.887477	0.772707
	H40	H	0.896756	0.216743	0.338620
	H41	H	0.106127	0.221046	0.654827
	H42	H	0.101930	0.779010	0.337452
	H43	H	0.896363	0.776043	0.654629
	H44	H	0.217944	0.337601	0.892869
	H45	H	0.216608	0.659549	0.099610
	H46	H	0.778869	0.336346	0.099277
	H47	H	0.780142	0.660146	0.895472
	H48	H	0.410921	0.111525	0.583940
	H49	H	0.582296	0.884334	0.591430
	H50	H	0.584538	0.111356	0.410236
	H51	H	0.405827	0.882129	0.409194
	H52	H	0.585787	0.402122	0.110511
	H53	H	0.589259	0.588529	0.883822
	H54	H	0.409027	0.585709	0.109157
	H55	H	0.408289	0.402468	0.882184
	H56	H	0.113665	0.586431	0.403403
	H57	H	0.890718	0.579934	0.576507
	H58	H	0.109508	0.418576	0.587549
	H59	H	0.884060	0.401158	0.410034
	H60	H	0.116211	0.406770	0.593940
	H61	H	0.885071	0.579848	0.597050
	H62	H	0.113509	0.587061	0.405065
	H63	H	0.888556	0.414885	0.408211
	H64	H	0.407624	0.591626	0.111199
	H65	H	0.589495	0.586345	0.884795
	H66	H	0.596886	0.410929	0.111540
	H67	H	0.402737	0.410850	0.882653
	H68	H	0.593176	0.113647	0.413244
	H69	H	0.584022	0.887408	0.579637
	H70	H	0.408175	0.114233	0.588430
	H71	H	0.413082	0.882091	0.402319
	H72	H	0.903476	0.612070	0.081018
	H73	H	0.088003	0.383810	0.083504
	H74	H	0.091054	0.615339	0.905734
	H75	H	0.910696	0.384492	0.906852
	H76	H	0.093032	0.906750	0.611361
	H77	H	0.088565	0.086484	0.386109
	H78	H	0.915478	0.083371	0.606490
	H79	H	0.909144	0.899420	0.380211
	H80	H	0.614363	0.085274	0.903613
	H81	H	0.383449	0.096717	0.088141
	H82	H	0.613955	0.905838	0.086025
	H83	H	0.391079	0.917878	0.913695
	H84	H	0.611229	0.913817	0.084130
	H85	H	0.388889	0.083358	0.084657
	H86	H	0.613964	0.090552	0.908809
	H87	H	0.383742	0.913933	0.897061
	H88	H	0.911991	0.088652	0.610673
	H89	H	0.092067	0.089887	0.383853
	H90	H	0.089903	0.909544	0.608834
	H91	H	0.901748	0.913008	0.383381
	H92	H	0.084273	0.613581	0.903879
	H93	H	0.090580	0.380922	0.087123
	H94	H	0.907951	0.615565	0.094566
	H95	H	0.910863	0.384674	0.908686
	H96	H	0.413739	0.112073	0.589591
	H97	H	0.593675	0.883026	0.585645
	H98	H	0.590655	0.115167	0.404479
	H99	H	0.414599	0.885273	0.411679
	H100	H	0.584438	0.415528	0.105761
	H101	H	0.586704	0.587923	0.884801
	H102	H	0.403013	0.587223	0.110414
	H103	H	0.411940	0.411008	0.885927
	H104	H	0.113043	0.585268	0.405300
	H105	H	0.882384	0.597261	0.585817
	H106	H	0.111191	0.405618	0.579728
	H107	H	0.882702	0.407555	0.397427
	H108	H	0.916997	0.608867	0.085015
	H109	H	0.085539	0.383143	0.088148
	H110	H	0.087119	0.612474	0.910182
	H111	H	0.909163	0.383891	0.908311
	H112	H	0.088935	0.904612	0.610526
	H113	H	0.093190	0.085059	0.385399
	H114	H	0.908682	0.082422	0.609434
	H115	H	0.916492	0.910951	0.387494
	H116	H	0.611248	0.083305	0.909708
	H117	H	0.384118	0.086038	0.098514
	H118	H	0.613827	0.912132	0.092415
	H119	H	0.383663	0.900766	0.910811
	C120	C	0.378698	0.006495	0.619022
	C121	C	0.620573	0.990274	0.618582
	C122	C	0.621062	0.007145	0.376645
	C123	C	0.379771	0.989991	0.377478
	C124	C	0.620662	0.376535	0.004885
	C125	C	0.620317	0.619955	0.988984
	C126	C	0.375772	0.620450	0.005348
	C127	C	0.376782	0.376770	0.988382
	C128	C	0.007461	0.618119	0.374520
	C129	C	0.991175	0.618159	0.617482
	C130	C	0.007337	0.376619	0.618742
	C131	C	0.990656	0.376064	0.374434
	C132	C	0.876948	0.505937	0.118002
	C133	C	0.118939	0.489444	0.117568
	C134	C	0.119619	0.507802	0.875008
	C135	C	0.877533	0.489882	0.875756
	C136	C	0.121651	0.875988	0.505485
	C137	C	0.122480	0.119495	0.489522
	C138	C	0.879205	0.118280	0.505086
	C139	C	0.877293	0.874978	0.487802
	C140	C	0.507605	0.118597	0.876494
	C141	C	0.491010	0.121216	0.120922
	C142	C	0.507839	0.878258	0.119019
	C143	C	0.490736	0.876743	0.874992
	C144	C	0.375754	0.886209	0.679071
	C145	C	0.623771	0.110776	0.678686
	C146	C	0.624042	0.886888	0.315544
	C147	C	0.378014	0.111444	0.319440
	C148	C	0.679969	0.374015	0.885775
	C149	C	0.680694	0.622931	0.107614
	C150	C	0.317134	0.622537	0.886253
	C151	C	0.317531	0.375613	0.107655
	C152	C	0.887211	0.677221	0.374590
	C153	C	0.111783	0.676564	0.617309
	C154	C	0.887619	0.316403	0.619224
	C155	C	0.112250	0.319893	0.376543
	C156	C	0.888214	0.372432	0.678743
	C157	C	0.110440	0.621599	0.677776
	C158	C	0.887240	0.620788	0.315860
	C159	C	0.110501	0.374276	0.315501
	C160	C	0.376063	0.679636	0.886316
	C161	C	0.621423	0.679581	0.108185
	C162	C	0.620892	0.317221	0.885362
	C163	C	0.377350	0.319354	0.108653
	C164	C	0.679384	0.885390	0.374868
	C165	C	0.682099	0.110215	0.621547
	C166	C	0.319423	0.885569	0.620670
	C167	C	0.321357	0.111478	0.377711
	C168	C	0.874305	0.385305	0.177209
	C169	C	0.119762	0.610970	0.176145
	C170	C	0.122567	0.386787	0.815148
	C171	C	0.874950	0.610772	0.816208
	C172	C	0.180853	0.875001	0.386219
	C173	C	0.182392	0.122448	0.608193
	C174	C	0.818256	0.121351	0.387066
	C175	C	0.816468	0.870657	0.606243
	C176	C	0.386437	0.176470	0.877302
	C177	C	0.611191	0.180353	0.120638
	C178	C	0.387328	0.819832	0.119397
	C179	C	0.610819	0.816962	0.875037
	C180	C	0.388521	0.875825	0.179133
	C181	C	0.610515	0.124956	0.180544
	C182	C	0.387972	0.121419	0.816790
	C183	C	0.609496	0.871327	0.813970
	C184	C	0.877642	0.177803	0.386290
	C185	C	0.124456	0.180554	0.607802
	C186	C	0.121810	0.817794	0.385327
	C187	C	0.876539	0.815053	0.606880
	C188	C	0.178511	0.386025	0.873904
	C189	C	0.177262	0.611132	0.118429
	C190	C	0.817657	0.385080	0.118552
	C191	C	0.818822	0.611558	0.875109
	C192	C	0.403825	0.090878	0.594239
	C193	C	0.594302	0.906606	0.593107
	C194	C	0.596466	0.091460	0.402108
	C195	C	0.404313	0.905205	0.401044
	C196	C	0.596082	0.402253	0.087734
	C197	C	0.595704	0.594649	0.906123
	C198	C	0.399732	0.595553	0.088650
	C199	C	0.400673	0.401117	0.905304
	C200	C	0.091630	0.593330	0.397870
	C201	C	0.907520	0.592968	0.593317
	C202	C	0.090669	0.402810	0.594189
	C203	C	0.906773	0.400545	0.398265
	C204	C	0.902235	0.590292	0.093837
	C205	C	0.095032	0.404760	0.093423
	C206	C	0.094707	0.591765	0.899533
	C207	C	0.902901	0.406094	0.900528
	C208	C	0.097601	0.900067	0.588507
	C209	C	0.098160	0.094364	0.406647
	C210	C	0.904701	0.092368	0.587554
	C211	C	0.901906	0.900442	0.405439
	C212	C	0.591169	0.093631	0.900453
	C213	C	0.407360	0.096012	0.097109
	C214	C	0.591280	0.903322	0.094657
	C215	C	0.407717	0.903149	0.900023
	Zn216	Zn	0.499595	-0.001753	0.746942
	Zn217	Zn	0.500280	-0.000686	0.248644
	Zn218	Zn	0.749369	0.498569	-0.003731
	Zn219	Zn	0.246993	0.498442	-0.003722
	Zn220	Zn	-0.000045	0.746753	0.495958
	Zn221	Zn	-0.000264	0.248434	0.497099
	Zn222	Zn	-0.001446	0.498332	0.747509
	Zn223	Zn	-0.001708	0.497690	0.246003
	Zn224	Zn	0.498808	0.749144	-0.002027
	Zn225	Zn	0.499006	0.247737	-0.002824
	Zn226	Zn	0.749063	-0.002795	0.497225
	Zn227	Zn	0.251113	-0.002247	0.497944
	N228	N	0.411828	0.962572	0.678074
	N229	N	0.586584	0.034905	0.677211
	N230	N	0.588547	0.963734	0.316577
	N231	N	0.413837	0.034976	0.319298
	N232	N	0.680066	0.410105	0.961178
	N233	N	0.679721	0.586381	0.032524
	N234	N	0.316934	0.586551	0.961391
	N235	N	0.316909	0.410586	0.031971
	N236	N	0.963089	0.675742	0.410367
	N237	N	0.036430	0.674724	0.580637
	N238	N	0.963003	0.318800	0.582860
	N239	N	0.036658	0.320695	0.412342
	N240	N	0.963770	0.408919	0.678663
	N241	N	0.034352	0.585963	0.677916
	N242	N	0.963007	0.584639	0.315985
	N243	N	0.033648	0.408196	0.313974
	N244	N	0.411791	0.678592	0.961638
	N245	N	0.584511	0.677989	0.033509
	N246	N	0.585108	0.318455	0.960547
	N247	N	0.413215	0.319809	0.033513
	N248	N	0.677644	0.961051	0.412215
	N249	N	0.680480	0.034067	0.585268
	N250	N	0.321381	0.961362	0.583766
	N251	N	0.322226	0.034832	0.412983
	N252	N	0.910193	0.461665	0.177148
	N253	N	0.084233	0.534174	0.175692
	N254	N	0.086655	0.463194	0.815763
	N255	N	0.910641	0.534072	0.816385
	N256	N	0.180951	0.910444	0.461863
	N257	N	0.181157	0.085215	0.533555
	N258	N	0.819007	0.084919	0.462177
	N259	N	0.816772	0.907315	0.531285
	N260	N	0.461733	0.174673	0.914000
	N261	N	0.535775	0.178183	0.084333
	N262	N	0.462331	0.821456	0.082636
	N263	N	0.535882	0.820087	0.912281
	N264	N	0.464674	0.911405	0.179026
	N265	N	0.534838	0.088801	0.180737
	N266	N	0.464180	0.086334	0.816151
	N267	N	0.533887	0.907875	0.814010
	N268	N	0.915055	0.175767	0.460679
	N269	N	0.087771	0.178845	0.533013
	N270	N	0.085812	0.818367	0.460237
	N271	N	0.913679	0.817549	0.532485
	N272	N	0.176944	0.462180	0.910443
	N273	N	0.177139	0.534455	0.082953
	N274	N	0.819260	0.461144	0.082327
	N275	N	0.820268	0.535479	0.911426
	O276	O	0.597457	0.307593	0.401208
	H277	H	0.587812	0.302248	0.406906
	H278	H	0.599168	0.298311	0.415903
	O279	O	0.626515	0.547594	0.665799
	H280	H	0.621889	0.543444	0.677421
	H281	H	0.638708	0.568485	0.647033
	O282	O	0.514256	0.388367	0.483654
	H283	H	0.506443	0.395436	0.483955
	H284	H	0.517169	0.388021	0.473287
	O285	O	0.969755	-0.024941	-0.209701
	H286	H	1.002120	-0.010873	-0.204169
	H287	H	0.979255	-0.061956	-0.210691
	O288	O	-0.196285	-0.012969	0.966999
	H289	H	-0.196595	0.000621	0.964186
	H290	H	-0.191392	-0.019570	0.965700
	O291	O	0.590865	0.444810	0.444353
	H292	H	0.593893	0.426992	0.456247
	H293	H	0.591446	0.429030	0.438229
	O294	O	0.377916	0.450940	0.595561
	H295	H	0.384380	0.439709	0.589901
	H296	H	0.369589	0.435620	0.593814
	O297	O	0.979228	1.062215	1.098188
	H298	H	0.985791	1.069850	1.086264
	H299	H	0.967748	1.065874	1.108606
	O300	O	0.051745	-0.012852	0.034330
	H301	H	0.054674	-0.004237	0.051622
	H302	H	0.055130	-0.007521	0.045695
	O303	O	0.329773	0.586499	0.495702
	H304	H	0.325980	0.584976	0.508146
	H305	H	0.317609	0.585611	0.494994
	O306	O	1.026901	0.209309	0.131830
	H307	H	1.041811	0.209222	0.107097
	H308	H	1.031105	0.232449	0.149525
	O309	O	0.591302	0.447363	0.402662
	H310	H	0.595797	0.458334	0.417786
	H311	H	0.586217	0.444112	0.391427
	O312	O	1.065158	0.969858	0.168103
	H313	H	1.050506	0.980833	0.167992
	H314	H	1.066758	0.971286	0.155771
	O315	O	0.367633	0.346749	0.487606
	H316	H	0.371254	0.353139	0.485317
	H317	H	0.374036	0.350749	0.468701
	O318	O	0.673433	0.472145	0.436309
	H319	H	0.668466	0.478290	0.443067
	H320	H	0.679116	0.479692	0.419393
	O321	O	0.979567	0.210405	0.788141
	H322	H	0.977560	0.243197	0.761931
	H323	H	0.949136	0.191074	0.793663
	O324	O	-0.157646	-0.030214	1.147818
	H325	H	-0.163263	-0.055521	1.137268
	H326	H	-0.167923	-0.029354	1.161106
	O327	O	0.522197	0.588680	0.468878
	H328	H	0.507946	0.584235	0.463265
	H329	H	0.515415	0.581716	0.462634
	O330	O	0.329958	0.501068	0.441041
	H331	H	0.329473	0.512258	0.436249
	H332	H	0.339256	0.508474	0.438041
	O333	O	0.829634	0.981930	0.794580
	H334	H	0.834301	0.977907	0.787726
	H335	H	0.822034	0.979468	0.769657
	O336	O	0.372893	0.372240	0.476543
	H337	H	0.377684	0.368878	0.477542
	H338	H	0.377470	0.373217	0.462749
	O339	O	0.826047	0.174557	0.823159
	H340	H	0.831936	0.142113	0.814842
	H341	H	0.811539	0.188823	0.867325
	O342	O	0.123192	0.896233	1.138042
	H343	H	0.113910	0.910547	1.142989
	H344	H	0.129470	0.908933	1.128751
	O345	O	-0.049744	1.037866	0.773235
	H346	H	-0.037589	1.066265	0.782799
	H347	H	-0.066876	1.058870	0.748285
	O348	O	0.620406	0.548413	0.686636
	H349	H	0.608437	0.548558	0.682361
	H350	H	0.628291	0.555388	0.685100
	O351	O	0.090161	0.096502	-0.056415
	H352	H	0.082179	0.106650	-0.059420
	H353	H	0.090582	0.090154	-0.047793
	O354	O	1.015111	0.794666	-0.177241
	H355	H	1.032810	0.790681	-0.171436
	H356	H	1.014586	0.790562	-0.183813
	O357	O	0.138981	1.163175	0.113305
	H358	H	0.122674	1.164560	0.108467
	H359	H	0.144880	1.155384	0.120246
	O360	O	0.524005	0.369007	0.506267
	H361	H	0.518429	0.363795	0.495929
	H362	H	0.512953	0.375064	0.518009
	O363	O	0.499493	0.508979	0.574812
	H364	H	0.495648	0.508746	0.573634
	H365	H	0.512252	0.505398	0.562845
	O366	O	0.356295	0.599405	0.331186
	H367	H	0.345853	0.609069	0.338537
	H368	H	0.380737	0.608862	0.333389
	O369	O	0.481153	0.684619	0.318277
	H370	H	0.469715	0.695202	0.310201
	H371	H	0.471779	0.693228	0.324093
	O372	O	0.430949	0.606449	0.601728
	H373	H	0.425090	0.602795	0.609225
	H374	H	0.428617	0.597220	0.607767
	O375	O	0.584547	0.565193	0.638857
	H376	H	0.574266	0.570831	0.646318
	H377	H	0.595949	0.572082	0.639783
	O378	O	0.298850	0.524604	0.413079
	H379	H	0.296821	0.540143	0.405662
	H380	H	0.294246	0.545297	0.424008
	O381	O	0.539434	0.584790	0.620770
	H382	H	0.546808	0.596747	0.629936
	H383	H	0.550999	0.590126	0.634505
	O384	O	0.040810	0.906386	0.980290
	H385	H	0.039454	0.904458	0.983323
	H386	H	0.043839	0.900564	0.970947
	O387	O	0.947037	0.903968	0.138735
	H388	H	0.946095	0.886533	0.117847
	H389	H	0.970283	0.899980	0.157201
	O390	O	0.688828	0.667836	0.512271
	H391	H	0.697618	0.677361	0.500028
	H392	H	0.691803	0.656883	0.498703
	O393	O	1.192401	-0.014443	0.822587
	H394	H	1.199126	-0.004654	0.809315
	H395	H	1.200594	-0.008835	0.844332
	O396	O	0.015030	1.038129	1.020357
	H397	H	-0.008316	1.033624	1.011074
	H398	H	0.013123	1.037934	1.028411
	O399	O	0.500715	0.393320	0.449591
	H400	H	0.514579	0.421704	0.449200
	H401	H	0.520817	0.377007	0.444866
	O402	O	1.175703	-0.176148	0.830379
	H403	H	1.158097	-0.157759	0.826062
	H404	H	1.185471	-0.158937	0.837826
	O405	O	-0.003021	0.169796	0.120425
	H406	H	-0.007247	0.181462	0.124490
	H407	H	-0.010533	0.163287	0.113047
	O408	O	0.823478	1.013687	1.085683
	H409	H	0.836792	1.017977	1.068292
	H410	H	0.823633	1.004789	1.104542
	O411	O	1.199592	1.043464	0.091747
	H412	H	1.200838	1.048887	0.105211
	H413	H	1.191510	1.066088	0.096505
	O414	O	-0.161575	0.188725	1.014038
	H415	H	-0.166149	0.190213	1.015171
	H416	H	-0.174069	0.181530	1.015333
	O417	O	0.499799	0.526901	0.591759
	H418	H	0.478824	0.532791	0.596192
	H419	H	0.499482	0.512254	0.611040
	O420	O	0.067441	0.808625	0.017194
	H421	H	0.066810	0.795526	0.006504
	H422	H	0.056973	0.812002	-0.003546
	O423	O	0.835252	-0.176574	0.063667
	H424	H	0.842579	-0.156095	0.044551
	H425	H	0.818700	-0.187224	0.065885
	O426	O	0.136466	-0.100178	1.070466
	H427	H	0.151946	-0.114240	1.064370
	H428	H	0.127587	-0.082321	1.093126
	O429	O	0.598188	0.516294	0.351786
	H430	H	0.599248	0.503098	0.356143
	H431	H	0.595655	0.526794	0.347045
