data_Molecule from HDF5

_cell_length_a		16.350762
_cell_length_b		16.222129
_cell_length_c		16.301307
_cell_angle_alpha	89.901247
_cell_angle_beta	89.756887
_cell_angle_gamma	90.468160
_symmetry_space_group_name_H-M	'P 1'
_symmetry_Int_Tables_number		1

loop_
	_symmetry_equiv_pos_as_xyz
	x,y,z

loop_
	_atom_site_label
	_atom_site_type_symbol
	_atom_site_fract_x
	_atom_site_fract_y
	_atom_site_fract_z
	H0	H	0.393169	0.840770	0.716929
	H1	H	0.595288	0.167691	0.712918
	H2	H	0.592206	0.839620	0.284761
	H3	H	0.396012	0.167155	0.286610
	H4	H	0.709772	0.406139	0.834716
	H5	H	0.713055	0.603922	0.161419
	H6	H	0.281794	0.605451	0.836237
	H7	H	0.277989	0.400501	0.160477
	H8	H	0.833000	0.715974	0.397940
	H9	H	0.157857	0.720401	0.596154
	H10	H	0.833752	0.285065	0.598007
	H11	H	0.159620	0.290017	0.399696
	H12	H	0.834427	0.399265	0.716277
	H13	H	0.158874	0.604774	0.713266
	H14	H	0.834153	0.600281	0.281883
	H15	H	0.158366	0.402139	0.280576
	H16	H	0.398669	0.719822	0.836937
	H17	H	0.596137	0.718815	0.162475
	H18	H	0.595096	0.288958	0.836390
	H19	H	0.398256	0.290368	0.163109
	H20	H	0.709140	0.839438	0.398936
	H21	H	0.714905	0.164755	0.601007
	H22	H	0.276002	0.841098	0.602573
	H23	H	0.282883	0.167204	0.402667
	H24	H	0.896065	0.338085	0.212317
	H25	H	0.099851	0.665120	0.215047
	H26	H	0.094907	0.338833	0.783275
	H27	H	0.897284	0.665525	0.780915
	H28	H	0.212388	0.902730	0.337535
	H29	H	0.211848	0.106687	0.661782
	H30	H	0.778871	0.102252	0.336645
	H31	H	0.776092	0.898319	0.661272
	H32	H	0.332888	0.216899	0.902980
	H33	H	0.658922	0.218884	0.097286
	H34	H	0.334561	0.784355	0.101458
	H35	H	0.659285	0.791923	0.901078
	H36	H	0.332372	0.901703	0.216219
	H37	H	0.657369	0.105159	0.217150
	H38	H	0.334171	0.105632	0.783190
	H39	H	0.656371	0.901671	0.780084
	H40	H	0.897840	0.216811	0.334677
	H41	H	0.095560	0.220121	0.661114
	H42	H	0.093747	0.789923	0.335413
	H43	H	0.891847	0.782783	0.660635
	H44	H	0.212395	0.339582	0.896020
	H45	H	0.216638	0.664272	0.100428
	H46	H	0.778016	0.339661	0.097899
	H47	H	0.781780	0.666967	0.896213
	H48	H	0.396668	0.124396	0.597594
	H49	H	0.596585	0.883162	0.592232
	H50	H	0.587332	0.115906	0.420624
	H51	H	0.407151	0.890694	0.418095
	H52	H	0.590264	0.417237	0.113109
	H53	H	0.586969	0.592885	0.885353
	H54	H	0.401227	0.595701	0.115822
	H55	H	0.406837	0.404124	0.881233
	H56	H	0.112059	0.593736	0.403603
	H57	H	0.884626	0.583696	0.586081
	H58	H	0.106320	0.423580	0.586472
	H59	H	0.879042	0.414573	0.394294
	H60	H	0.116732	0.410247	0.605879
	H61	H	0.879241	0.590987	0.599292
	H62	H	0.112799	0.598706	0.404552
	H63	H	0.876582	0.396449	0.406095
	H64	H	0.403932	0.588526	0.113386
	H65	H	0.587538	0.603535	0.881324
	H66	H	0.583733	0.409505	0.113885
	H67	H	0.397338	0.413088	0.881055
	H68	H	0.597390	0.122636	0.405821
	H69	H	0.577237	0.886309	0.603081
	H70	H	0.410394	0.119392	0.595569
	H71	H	0.390329	0.883199	0.409731
	H72	H	0.905513	0.620204	0.091500
	H73	H	0.094429	0.385696	0.083926
	H74	H	0.095561	0.620792	0.906729
	H75	H	0.895071	0.386755	0.913884
	H76	H	0.083106	0.907016	0.615476
	H77	H	0.088823	0.101940	0.381050
	H78	H	0.907564	0.091901	0.612248
	H79	H	0.907868	0.901688	0.382494
	H80	H	0.612176	0.093079	0.902577
	H81	H	0.377899	0.095489	0.100943
	H82	H	0.610830	0.909385	0.089733
	H83	H	0.382045	0.911826	0.913126
	H84	H	0.609700	0.918508	0.093661
	H85	H	0.378861	0.101575	0.092071
	H86	H	0.613267	0.102202	0.906364
	H87	H	0.381643	0.915484	0.908629
	H88	H	0.904345	0.095294	0.614493
	H89	H	0.096607	0.094096	0.381485
	H90	H	0.090004	0.913032	0.615813
	H91	H	0.890826	0.909251	0.379732
	H92	H	0.086459	0.619731	0.900938
	H93	H	0.086302	0.384471	0.096839
	H94	H	0.905939	0.618466	0.090114
	H95	H	0.901746	0.383622	0.898722
	H96	H	0.401082	0.118005	0.584213
	H97	H	0.579085	0.891999	0.581062
	H98	H	0.578585	0.118382	0.403421
	H99	H	0.406500	0.884677	0.398675
	H100	H	0.593191	0.408580	0.118330
	H101	H	0.596743	0.597608	0.881472
	H102	H	0.408909	0.594272	0.113898
	H103	H	0.409309	0.416417	0.885901
	H104	H	0.110469	0.595667	0.407547
	H105	H	0.879667	0.598679	0.585901
	H106	H	0.113596	0.399143	0.583217
	H107	H	0.885543	0.414792	0.415101
	H108	H	0.904361	0.619305	0.090467
	H109	H	0.079596	0.390236	0.083907
	H110	H	0.086495	0.616201	0.911104
	H111	H	0.911147	0.390607	0.911119
	H112	H	0.081276	0.915087	0.612637
	H113	H	0.086086	0.091479	0.385987
	H114	H	0.902763	0.090292	0.613812
	H115	H	0.905077	0.919421	0.387377
	H116	H	0.609145	0.094170	0.912359
	H117	H	0.381787	0.091023	0.092207
	H118	H	0.613390	0.910930	0.099463
	H119	H	0.380352	0.909923	0.908069
	C120	C	0.372540	0.012568	0.622458
	C121	C	0.615920	0.994532	0.621387
	C122	C	0.615917	0.011144	0.379478
	C123	C	0.373137	0.994418	0.379678
	C124	C	0.617935	0.382638	0.007491
	C125	C	0.619308	0.626563	0.990420
	C126	C	0.375468	0.623944	0.007300
	C127	C	0.374714	0.381328	0.990166
	C128	C	0.004225	0.624165	0.376171
	C129	C	0.987942	0.623116	0.619684
	C130	C	0.004834	0.379993	0.620854
	C131	C	0.988004	0.380751	0.376565
	C132	C	0.874625	0.511143	0.119984
	C133	C	0.117793	0.494140	0.118815
	C134	C	0.118111	0.511071	0.876712
	C135	C	0.874883	0.494678	0.877384
	C136	C	0.115222	0.882574	0.507418
	C137	C	0.118460	0.125497	0.490485
	C138	C	0.874896	0.122896	0.506489
	C139	C	0.871397	0.878883	0.490369
	C140	C	0.503989	0.125308	0.878884
	C141	C	0.486925	0.125727	0.123347
	C142	C	0.503949	0.882032	0.123488
	C143	C	0.487884	0.882748	0.879125
	C144	C	0.373463	0.889710	0.678788
	C145	C	0.615650	0.118228	0.675943
	C146	C	0.612941	0.888362	0.322989
	C147	C	0.375979	0.117960	0.324229
	C148	C	0.672347	0.385404	0.883924
	C149	C	0.675137	0.624379	0.112888
	C150	C	0.319933	0.624276	0.885111
	C151	C	0.317251	0.381869	0.112268
	C152	C	0.881973	0.678514	0.377983
	C153	C	0.109485	0.681432	0.617091
	C154	C	0.882461	0.322915	0.618769
	C155	C	0.110717	0.326853	0.379120
	C156	C	0.882692	0.379947	0.677313
	C157	C	0.110061	0.623745	0.675195
	C158	C	0.882351	0.621053	0.320156
	C159	C	0.110105	0.382662	0.319752
	C160	C	0.378253	0.681184	0.885427
	C161	C	0.616878	0.681308	0.113552
	C162	C	0.615524	0.326971	0.884836
	C163	C	0.376881	0.326805	0.113689
	C164	C	0.671106	0.888277	0.379594
	C165	C	0.675024	0.116631	0.620352
	C166	C	0.315212	0.889669	0.621689
	C167	C	0.319655	0.118088	0.382055
	C168	C	0.875711	0.387465	0.175058
	C169	C	0.118849	0.616550	0.176173
	C170	C	0.115288	0.387769	0.821157
	C171	C	0.877088	0.617151	0.819589
	C172	C	0.173379	0.883345	0.385826
	C173	C	0.173715	0.125394	0.612931
	C174	C	0.818004	0.121821	0.384746
	C175	C	0.814719	0.878884	0.612575
	C176	C	0.381901	0.180284	0.881720
	C177	C	0.609832	0.181363	0.119433
	C178	C	0.382655	0.823577	0.121544
	C179	C	0.610099	0.828300	0.880384
	C180	C	0.381401	0.882340	0.178366
	C181	C	0.609219	0.124476	0.178563
	C182	C	0.382584	0.124515	0.822223
	C183	C	0.608783	0.883505	0.820453
	C184	C	0.877171	0.178731	0.383630
	C185	C	0.115910	0.182042	0.612805
	C186	C	0.113829	0.827379	0.384685
	C187	C	0.872165	0.821110	0.612170
	C188	C	0.174141	0.388334	0.876875
	C189	C	0.176633	0.616009	0.119010
	C190	C	0.817188	0.388243	0.117933
	C191	C	0.819964	0.618002	0.877350
	C192	C	0.395965	0.098232	0.599429
	C193	C	0.591566	0.909420	0.598800
	C194	C	0.593984	0.096815	0.402966
	C195	C	0.394987	0.908379	0.402252
	C196	C	0.595518	0.405211	0.092850
	C197	C	0.597026	0.604621	0.904906
	C198	C	0.398194	0.599981	0.092533
	C199	C	0.397922	0.404476	0.904805
	C200	C	0.089749	0.602335	0.398717
	C201	C	0.903007	0.598263	0.597244
	C202	C	0.089950	0.403857	0.598409
	C203	C	0.902491	0.402406	0.398703
	C204	C	0.898242	0.596934	0.097357
	C205	C	0.093678	0.409005	0.095111
	C206	C	0.095973	0.596694	0.899626
	C207	C	0.896501	0.409058	0.900868
	C208	C	0.091765	0.905287	0.592577
	C209	C	0.096775	0.102476	0.404934
	C210	C	0.898210	0.099320	0.591351
	C211	C	0.894547	0.902875	0.405295
	C212	C	0.589389	0.102884	0.900818
	C213	C	0.401577	0.102832	0.101553
	C214	C	0.589361	0.906057	0.100882
	C215	C	0.403230	0.905624	0.903177
	Zn216	Zn	0.495277	0.004101	0.750127
	Zn217	Zn	0.494455	0.003739	0.252182
	Zn218	Zn	0.746612	0.504354	-0.002187
	Zn219	Zn	0.246399	0.502265	-0.002779
	Zn220	Zn	-0.005224	0.752323	0.498212
	Zn221	Zn	-0.003475	0.252427	0.498118
	Zn222	Zn	-0.003583	0.502102	0.749473
	Zn223	Zn	-0.003124	0.502110	0.247673
	Zn224	Zn	0.496871	0.753731	0.000056
	Zn225	Zn	0.496197	0.253933	0.000002
	Zn226	Zn	0.744563	0.001567	0.499882
	Zn227	Zn	0.245106	0.003659	0.500435
	N228	N	0.408633	0.967019	0.679250
	N229	N	0.579611	0.041449	0.676757
	N230	N	0.579437	0.965873	0.322878
	N231	N	0.408729	0.040038	0.322793
	N232	N	0.674214	0.419087	0.961182
	N233	N	0.677109	0.591519	0.035045
	N234	N	0.318035	0.589469	0.962153
	N235	N	0.315857	0.415025	0.034421
	N236	N	0.958821	0.680454	0.411949
	N237	N	0.032648	0.680849	0.583373
	N238	N	0.959373	0.322782	0.584615
	N239	N	0.033763	0.325532	0.413660
	N240	N	0.959656	0.414551	0.678900
	N241	N	0.033271	0.588093	0.677025
	N242	N	0.959571	0.588075	0.318778
	N243	N	0.032783	0.415098	0.317749
	N244	N	0.412054	0.681231	0.962545
	N245	N	0.583090	0.682921	0.036517
	N246	N	0.582381	0.325197	0.962545
	N247	N	0.411850	0.326245	0.036891
	N248	N	0.672890	0.965530	0.414269
	N249	N	0.675406	0.038742	0.587091
	N250	N	0.314440	0.967235	0.587730
	N251	N	0.317511	0.040325	0.415755
	N252	N	0.910858	0.464802	0.176412
	N253	N	0.082712	0.539684	0.176206
	N254	N	0.081275	0.465112	0.820555
	N255	N	0.910462	0.539539	0.819464
	N256	N	0.174250	0.917033	0.463252
	N257	N	0.175242	0.090838	0.535956
	N258	N	0.816376	0.087983	0.462197
	N259	N	0.814068	0.914086	0.535919
	N260	N	0.458567	0.180850	0.916242
	N261	N	0.532870	0.182399	0.085814
	N262	N	0.459907	0.823389	0.087945
	N263	N	0.533884	0.827756	0.916172
	N264	N	0.458191	0.917694	0.179703
	N265	N	0.531727	0.091112	0.181353
	N266	N	0.459582	0.091231	0.820236
	N267	N	0.531643	0.916677	0.819611
	N268	N	0.911975	0.179236	0.460354
	N269	N	0.082265	0.182423	0.535576
	N270	N	0.078081	0.826911	0.461168
	N271	N	0.906614	0.820871	0.535086
	N272	N	0.175868	0.465906	0.910760
	N273	N	0.175879	0.539109	0.083831
	N274	N	0.816231	0.466238	0.084561
	N275	N	0.818739	0.540986	0.912664
	O276	O	0.500006	0.472104	0.484076
	H277	H	0.497367	0.481492	0.488595
	H278	H	0.493538	0.472302	0.475433
	O279	O	0.505880	0.440306	0.466075
	H280	H	0.505348	0.447473	0.476862
	H281	H	0.495227	0.435355	0.456110
	O282	O	0.885955	1.059037	-0.022294
	H283	H	0.883591	1.066195	-0.034053
	H284	H	0.882944	1.050737	-0.016289
	O285	O	1.038226	-0.022908	1.022583
	H286	H	1.023332	-0.013716	1.025095
	H287	H	1.048187	-0.038290	1.018528
	O288	O	0.562662	0.547184	0.584116
	H289	H	0.566650	0.536922	0.584834
	H290	H	0.561341	0.545502	0.588609
	O291	O	0.464236	0.398418	0.414463
	H292	H	0.474448	0.404970	0.412665
	H293	H	0.462921	0.387270	0.404154
	O294	O	0.572705	0.548183	0.402684
	H295	H	0.582928	0.549721	0.394726
	H296	H	0.571847	0.544859	0.410549
	O297	O	0.154199	-0.002198	0.991194
	H298	H	0.156542	0.010797	0.983294
	H299	H	0.166408	-0.005381	0.995265
	O300	O	0.956369	-0.017135	0.950015
	H301	H	0.942599	-0.026251	0.964521
	H302	H	0.970408	-0.008788	0.951146
	O303	O	1.087197	0.905304	-0.035792
	H304	H	1.089332	0.895861	-0.034274
	H305	H	1.097514	0.906317	-0.039940
	O306	O	-0.119480	0.912460	1.012659
	H307	H	-0.114188	0.932937	1.005317
	H308	H	-0.120574	0.900160	1.014884
	O309	O	0.603882	0.491056	0.487777
	H310	H	0.605280	0.496658	0.487544
	H311	H	0.602085	0.492641	0.490438
	O312	O	0.101789	-0.009789	-0.118627
	H313	H	0.102276	-0.013924	-0.111687
	H314	H	0.109393	-0.011804	-0.126879
	O315	O	0.944176	0.101521	0.065451
	H316	H	0.961194	0.098914	0.055035
	H317	H	0.952495	0.094475	0.072493
	O318	O	0.934090	0.997598	1.022004
	H319	H	0.935512	0.992620	1.017350
	H320	H	0.932273	1.006470	1.026416
	O321	O	0.040983	0.060437	0.957563
	H322	H	0.050721	0.058745	0.952648
	H323	H	0.056009	0.060835	0.954258
	O324	O	0.457581	0.528331	0.518033
	H325	H	0.449162	0.530623	0.509472
	H326	H	0.449629	0.524309	0.515822
	O327	O	0.081407	-0.122814	-0.097834
	H328	H	0.075130	-0.139029	-0.106929
	H329	H	0.067015	-0.129470	-0.095491
	O330	O	0.435224	0.531925	0.485609
	H331	H	0.438096	0.534367	0.471258
	H332	H	0.436510	0.535165	0.484627
	O333	O	-0.065027	0.995081	1.035124
	H334	H	-0.068052	1.003969	1.034463
	H335	H	-0.068616	0.991840	1.031865
	O336	O	-0.071213	0.135360	0.010086
	H337	H	-0.057525	0.129311	0.003534
	H338	H	-0.068436	0.133990	0.024045
	O339	O	0.530255	0.420859	0.507655
	H340	H	0.536826	0.421271	0.502427
	H341	H	0.535988	0.427868	0.500942
	O342	O	0.977358	0.990675	1.036617
	H343	H	0.974528	0.987712	1.033855
	H344	H	0.981999	1.000481	1.040247
	O345	O	0.972291	0.850254	0.085403
	H346	H	0.953850	0.848815	0.102198
	H347	H	0.967473	0.847607	0.074416
	O348	O	0.564817	0.531252	0.418593
	H349	H	0.571228	0.530544	0.416051
	H350	H	0.573986	0.517475	0.412068
	O351	O	0.546342	0.525107	0.593040
	H352	H	0.538209	0.527800	0.600518
	H353	H	0.553395	0.528600	0.592766
	O354	O	0.481591	0.492170	0.548400
	H355	H	0.492626	0.500376	0.551106
	H356	H	0.478514	0.494337	0.550397
	O357	O	1.001901	0.072730	0.950294
	H358	H	1.004968	0.066438	0.946672
	H359	H	0.991634	0.086870	0.945730
	O360	O	0.564040	0.580279	0.544466
	H361	H	0.558829	0.579615	0.557685
	H362	H	0.576067	0.584600	0.539280
	O363	O	0.597435	0.644276	0.397244
	H364	H	0.588314	0.649239	0.405461
	H365	H	0.593991	0.636970	0.394648
	O366	O	0.884613	0.953261	0.993363
	H367	H	0.871972	0.960422	0.996422
	H368	H	0.879525	0.956510	0.977043
	O369	O	1.117933	0.029584	0.912438
	H370	H	1.127049	0.023117	0.903235
	H371	H	1.113094	0.010861	0.916301
	O372	O	-0.024908	0.072840	-0.085051
	H373	H	-0.041892	0.078746	-0.090622
	H374	H	-0.032805	0.084386	-0.079043
	O375	O	0.949827	0.091060	0.010579
	H376	H	0.951367	0.100747	0.017126
	H377	H	0.951620	0.089001	0.008509
	O378	O	0.568174	0.453795	0.447349
	H379	H	0.568379	0.448233	0.434593
	H380	H	0.577552	0.451776	0.458820
	O381	O	0.432445	0.510895	0.537926
	H382	H	0.432277	0.511433	0.533550
	H383	H	0.428375	0.502489	0.541851
