data_Molecule from HDF5

_cell_length_a		16.409820
_cell_length_b		16.390509
_cell_length_c		16.466543
_cell_angle_alpha	90.218906
_cell_angle_beta	90.094197
_cell_angle_gamma	90.072814
_symmetry_space_group_name_H-M	'P 1'
_symmetry_Int_Tables_number		1

loop_
	_symmetry_equiv_pos_as_xyz
	x,y,z

loop_
	_atom_site_label
	_atom_site_type_symbol
	_atom_site_fract_x
	_atom_site_fract_y
	_atom_site_fract_z
	H0	H	0.386324	0.854081	0.716337
	H1	H	0.596276	0.171984	0.718742
	H2	H	0.593140	0.854515	0.274542
	H3	H	0.382193	0.173087	0.275708
	H4	H	0.711236	0.408481	0.838621
	H5	H	0.713297	0.620953	0.155137
	H6	H	0.268052	0.619760	0.839959
	H7	H	0.272819	0.411782	0.157356
	H8	H	0.830682	0.730357	0.391968
	H9	H	0.148715	0.734543	0.604367
	H10	H	0.832047	0.290500	0.602933
	H11	H	0.151026	0.293405	0.396682
	H12	H	0.833312	0.404400	0.721221
	H13	H	0.148806	0.618501	0.719749
	H14	H	0.832201	0.614066	0.276233
	H15	H	0.150377	0.405468	0.277374
	H16	H	0.387379	0.731238	0.837397
	H17	H	0.596313	0.736406	0.154975
	H18	H	0.596011	0.291643	0.839016
	H19	H	0.386144	0.292817	0.155685
	H20	H	0.709296	0.852442	0.391519
	H21	H	0.713939	0.170539	0.604200
	H22	H	0.271974	0.852616	0.599058
	H23	H	0.267412	0.171836	0.392037
	H24	H	0.884555	0.352364	0.217118
	H25	H	0.096053	0.669341	0.221256
	H26	H	0.098430	0.354223	0.775725
	H27	H	0.883176	0.668770	0.773448
	H28	H	0.210496	0.906031	0.338665
	H29	H	0.211786	0.117333	0.654654
	H30	H	0.767926	0.117954	0.339322
	H31	H	0.767250	0.905716	0.654298
	H32	H	0.331615	0.234122	0.892659
	H33	H	0.648444	0.237967	0.105259
	H34	H	0.331606	0.794497	0.099532
	H35	H	0.648827	0.792165	0.890946
	H36	H	0.331197	0.909308	0.216321
	H37	H	0.646481	0.125797	0.223796
	H38	H	0.331889	0.118815	0.775633
	H39	H	0.649240	0.909300	0.775268
	H40	H	0.885757	0.232161	0.338449
	H41	H	0.096933	0.233782	0.655204
	H42	H	0.093923	0.790031	0.339253
	H43	H	0.881608	0.788499	0.654554
	H44	H	0.211055	0.354291	0.895084
	H45	H	0.209465	0.672859	0.102964
	H46	H	0.765816	0.355764	0.104641
	H47	H	0.769485	0.669765	0.890895
	H48	H	0.400035	0.125419	0.583055
	H49	H	0.579205	0.900369	0.585654
	H50	H	0.583120	0.128850	0.406743
	H51	H	0.401103	0.900621	0.405625
	H52	H	0.579282	0.427817	0.109092
	H53	H	0.576271	0.603541	0.885379
	H54	H	0.401985	0.608720	0.111996
	H55	H	0.398733	0.421682	0.883295
	H56	H	0.102663	0.593891	0.408101
	H57	H	0.874708	0.598644	0.596072
	H58	H	0.104307	0.425932	0.594957
	H59	H	0.879672	0.429868	0.407752
	H60	H	0.106890	0.415371	0.584447
	H61	H	0.876853	0.606915	0.580756
	H62	H	0.105907	0.603478	0.405839
	H63	H	0.873710	0.418562	0.397834
	H64	H	0.397417	0.603749	0.111856
	H65	H	0.583213	0.605674	0.882188
	H66	H	0.576940	0.427001	0.108775
	H67	H	0.399268	0.427509	0.884656
	H68	H	0.572154	0.123592	0.408568
	H69	H	0.577926	0.899763	0.586805
	H70	H	0.397449	0.128969	0.588700
	H71	H	0.401744	0.900910	0.405682
	H72	H	0.902866	0.624203	0.085152
	H73	H	0.085699	0.398245	0.084800
	H74	H	0.078618	0.627607	0.905562
	H75	H	0.890340	0.398117	0.918030
	H76	H	0.080338	0.918159	0.612555
	H77	H	0.068421	0.107369	0.385222
	H78	H	0.898827	0.101519	0.610503
	H79	H	0.902743	0.928564	0.387256
	H80	H	0.603379	0.099701	0.906463
	H81	H	0.378818	0.098455	0.085182
	H82	H	0.601413	0.933279	0.085991
	H83	H	0.380970	0.933882	0.908279
	H84	H	0.606275	0.923950	0.091750
	H85	H	0.376323	0.104315	0.088081
	H86	H	0.605016	0.104629	0.908078
	H87	H	0.372269	0.920422	0.895091
	H88	H	0.903357	0.095786	0.607970
	H89	H	0.087776	0.106842	0.379246
	H90	H	0.083856	0.926758	0.610868
	H91	H	0.906970	0.914523	0.383617
	H92	H	0.076770	0.625539	0.910328
	H93	H	0.082743	0.395532	0.090523
	H94	H	0.902371	0.626543	0.089318
	H95	H	0.903795	0.395184	0.895941
	H96	H	0.404358	0.126486	0.588444
	H97	H	0.577383	0.900014	0.585534
	H98	H	0.580041	0.123854	0.417062
	H99	H	0.401422	0.900125	0.406274
	H100	H	0.578812	0.426203	0.109622
	H101	H	0.582741	0.598812	0.885371
	H102	H	0.403648	0.603304	0.109339
	H103	H	0.404184	0.423253	0.885073
	H104	H	0.101548	0.601353	0.415492
	H105	H	0.882372	0.590659	0.582775
	H106	H	0.100180	0.428274	0.581316
	H107	H	0.876533	0.415277	0.412718
	H108	H	0.906490	0.624456	0.088165
	H109	H	0.078687	0.399089	0.085472
	H110	H	0.082294	0.627347	0.909702
	H111	H	0.915176	0.406145	0.916978
	H112	H	0.075395	0.924145	0.607882
	H113	H	0.079793	0.090189	0.387411
	H114	H	0.906170	0.102545	0.608989
	H115	H	0.893301	0.918689	0.381442
	H116	H	0.601960	0.101610	0.911101
	H117	H	0.377918	0.104134	0.081826
	H118	H	0.603006	0.922693	0.080525
	H119	H	0.376606	0.914825	0.914346
	C120	C	0.369033	0.021528	0.617802
	C121	C	0.611698	1.004500	0.618723
	C122	C	0.611107	0.021146	0.376115
	C123	C	0.368319	1.005482	0.374773
	C124	C	0.611760	0.393127	0.005416
	C125	C	0.613208	0.635840	0.988573
	C126	C	0.368965	0.635920	0.005914
	C127	C	0.369880	0.393040	0.989438
	C128	C	-0.001298	0.631670	0.376937
	C129	C	0.982291	0.632431	0.619254
	C130	C	-0.000635	0.390160	0.619720
	C131	C	0.982155	0.389524	0.375368
	C132	C	0.869892	0.520510	0.119143
	C133	C	0.113241	0.503312	0.119588
	C134	C	0.111864	0.521577	0.876731
	C135	C	0.870544	0.503734	0.876906
	C136	C	0.111712	0.890270	0.505856
	C137	C	0.111364	0.133520	0.488482
	C138	C	0.869514	0.132932	0.505063
	C139	C	0.868019	0.888913	0.488594
	C140	C	0.498579	0.134453	0.875976
	C141	C	0.481800	0.136345	0.119099
	C142	C	0.498465	0.894055	0.117177
	C143	C	0.481767	0.891665	0.874168
	C144	C	0.367818	0.901547	0.676551
	C145	C	0.614685	0.124048	0.679018
	C146	C	0.612648	0.902060	0.314530
	C147	C	0.365202	0.125212	0.315635
	C148	C	0.671739	0.390119	0.886308
	C149	C	0.673138	0.638806	0.107540
	C150	C	0.308358	0.637562	0.887235
	C151	C	0.311338	0.392284	0.109150
	C152	C	0.879130	0.691072	0.373895
	C153	C	0.100965	0.694067	0.622394
	C154	C	0.879823	0.330231	0.621498
	C155	C	0.102721	0.331753	0.376380
	C156	C	0.880429	0.386801	0.680522
	C157	C	0.101295	0.636186	0.679816
	C158	C	0.879664	0.633324	0.316084
	C159	C	0.102319	0.387416	0.316854
	C160	C	0.368159	0.692815	0.885711
	C161	C	0.615232	0.696620	0.107444
	C162	C	0.614532	0.331821	0.886551
	C163	C	0.368258	0.333322	0.108533
	C164	C	0.670234	0.900808	0.372866
	C165	C	0.673200	0.123415	0.621801
	C166	C	0.310645	0.900954	0.618202
	C167	C	0.307609	0.124676	0.373501
	C168	C	0.866535	0.400718	0.177942
	C169	C	0.114435	0.622444	0.180465
	C170	C	0.115231	0.401784	0.816662
	C171	C	0.866371	0.622015	0.814865
	C172	C	0.171270	0.887516	0.386753
	C173	C	0.171702	0.135605	0.607545
	C174	C	0.808973	0.135152	0.386191
	C175	C	0.807404	0.887478	0.607122
	C176	C	0.379366	0.194405	0.874193
	C177	C	0.600558	0.198157	0.123298
	C178	C	0.379068	0.834299	0.117953
	C179	C	0.601424	0.832226	0.872388
	C180	C	0.378984	0.891654	0.176387
	C181	C	0.599537	0.142274	0.182444
	C182	C	0.379406	0.137016	0.815997
	C183	C	0.601507	0.890419	0.815030
	C184	C	0.867109	0.192611	0.386138
	C185	C	0.114670	0.193702	0.607645
	C186	C	0.113178	0.829555	0.386900
	C187	C	0.864583	0.829187	0.607460
	C188	C	0.171740	0.401839	0.875599
	C189	C	0.170873	0.624158	0.121559
	C190	C	0.807399	0.402215	0.121784
	C191	C	0.809860	0.622715	0.873588
	C192	C	0.393632	0.105144	0.593682
	C193	C	0.585760	0.921529	0.593238
	C194	C	0.585928	0.103696	0.403005
	C195	C	0.393925	0.922209	0.398916
	C196	C	0.585948	0.419328	0.087671
	C197	C	0.588013	0.610256	0.905782
	C198	C	0.393854	0.612270	0.089254
	C199	C	0.393915	0.417190	0.906163
	C200	C	0.081652	0.606688	0.402570
	C201	C	0.899485	0.606207	0.593782
	C202	C	0.082120	0.415830	0.594264
	C203	C	0.898610	0.413999	0.399123
	C204	C	0.896307	0.603438	0.094460
	C205	C	0.089248	0.419396	0.094213
	C206	C	0.086478	0.605062	0.901226
	C207	C	0.896042	0.421245	0.902836
	C208	C	0.086814	0.915591	0.588747
	C209	C	0.085861	0.108566	0.405471
	C210	C	0.895271	0.107283	0.587674
	C211	C	0.893567	0.913537	0.405681
	C212	C	0.581992	0.109135	0.901358
	C213	C	0.399335	0.109821	0.092550
	C214	C	0.581759	0.919380	0.093001
	C215	C	0.398275	0.915997	0.898798
	Zn216	Zn	0.490005	0.013804	0.746774
	Zn217	Zn	0.489752	0.015197	0.246734
	Zn218	Zn	0.741569	0.513358	-0.002206
	Zn219	Zn	0.240719	0.514304	-0.001934
	Zn220	Zn	-0.010178	0.760710	0.498057
	Zn221	Zn	-0.009547	0.262275	0.497657
	Zn222	Zn	-0.008983	0.511374	0.747953
	Zn223	Zn	-0.008566	0.510464	0.247169
	Zn224	Zn	0.491076	0.763722	-0.003874
	Zn225	Zn	0.490861	0.263588	-0.002930
	Zn226	Zn	0.740264	0.012000	0.497073
	Zn227	Zn	0.240584	0.012752	0.496766
	N228	N	0.403366	0.977587	0.676652
	N229	N	0.577306	0.049122	0.677241
	N230	N	0.576791	0.977720	0.316422
	N231	N	0.402272	0.050121	0.316621
	N232	N	0.670278	0.427181	0.961339
	N233	N	0.672168	0.601984	0.032633
	N234	N	0.308835	0.602793	0.963069
	N235	N	0.312486	0.428951	0.034204
	N236	N	0.954186	0.690221	0.411009
	N237	N	0.025862	0.691817	0.585547
	N238	N	0.954692	0.332533	0.584195
	N239	N	0.027028	0.332688	0.411847
	N240	N	0.955712	0.423260	0.679464
	N241	N	0.026291	0.598771	0.678223
	N242	N	0.955124	0.597018	0.317745
	N243	N	0.026174	0.422360	0.315920
	N244	N	0.405223	0.691952	0.960639
	N245	N	0.578693	0.694985	0.032285
	N246	N	0.578146	0.333240	0.961714
	N247	N	0.403971	0.333539	0.033155
	N248	N	0.669666	0.975904	0.410356
	N249	N	0.671429	0.048091	0.584939
	N250	N	0.311381	0.976530	0.582511
	N251	N	0.309276	0.049037	0.409481
	N252	N	0.904969	0.475212	0.176236
	N253	N	0.079612	0.546237	0.179344
	N254	N	0.078832	0.477219	0.817257
	N255	N	0.903622	0.547065	0.816809
	N256	N	0.170496	0.924471	0.461747
	N257	N	0.169751	0.098769	0.532480
	N258	N	0.810105	0.098882	0.461307
	N259	N	0.809298	0.923731	0.532178
	N260	N	0.454721	0.192859	0.910848
	N261	N	0.526490	0.194523	0.084445
	N262	N	0.454601	0.835435	0.082059
	N263	N	0.526046	0.832909	0.908537
	N264	N	0.454338	0.928347	0.176049
	N265	N	0.524636	0.104657	0.180069
	N266	N	0.454674	0.100539	0.817120
	N267	N	0.526060	0.926568	0.816082
	N268	N	0.903900	0.191472	0.461113
	N269	N	0.077758	0.192571	0.532737
	N270	N	0.076894	0.831009	0.462058
	N271	N	0.901680	0.829970	0.532615
	N272	N	0.169865	0.477358	0.912208
	N273	N	0.170193	0.549029	0.084340
	N274	N	0.809233	0.477862	0.086109
	N275	N	0.812459	0.548385	0.911580
	O276	O	0.474584	0.671792	0.535539
	H277	H	0.488588	0.678606	0.543502
	H278	H	0.480983	0.664490	0.537204
	O279	O	0.681108	0.687290	0.551387
	H280	H	0.683371	0.691209	0.571227
	H281	H	0.700028	0.694932	0.554278
	O282	O	0.343610	0.701586	0.312360
	H283	H	0.345829	0.698381	0.314657
	H284	H	0.362296	0.716764	0.315054
	O285	O	1.532086	1.392940	0.626991
	H286	H	1.532041	1.394863	0.618621
	H287	H	1.535480	1.387190	0.625294
	O288	O	0.460618	0.344438	0.593083
	H289	H	0.465175	0.355604	0.591518
	H290	H	0.464054	0.349259	0.586084
	O291	O	0.450154	0.425230	0.397428
	H292	H	0.444240	0.446322	0.391539
	H293	H	0.454967	0.437759	0.391446
	O294	O	0.812774	0.819315	1.128456
	H295	H	0.840708	0.813954	1.103956
	H296	H	0.810439	0.806263	1.127961
	O297	O	0.529377	0.425174	0.355055
	H298	H	0.519572	0.427721	0.355776
	H299	H	0.518039	0.423856	0.368665
	O300	O	-0.624531	-0.525494	-0.316702
	H301	H	-0.633023	-0.532412	-0.313434
	H302	H	-0.619260	-0.554738	-0.312813
	O303	O	0.934504	-0.043791	0.780316
	H304	H	0.956736	-0.036731	0.786196
	H305	H	0.951007	-0.070307	0.775184
	O306	O	0.066680	-0.186544	0.792763
	H307	H	0.076982	-0.206763	0.806900
	H308	H	0.092733	-0.175162	0.788578
	O309	O	0.787338	0.032987	-0.205365
	H310	H	0.797284	0.018626	-0.215435
	H311	H	0.783237	0.024323	-0.222027
	O312	O	0.321566	0.320548	0.672764
	H313	H	0.315481	0.326343	0.665969
	H314	H	0.351260	0.310701	0.684003
	O315	O	0.635789	0.471467	0.401007
	H316	H	0.631441	0.484031	0.391263
	H317	H	0.623401	0.459518	0.401291
	O318	O	0.948330	-1.059069	-0.000588
	H319	H	0.952485	-1.064201	0.003016
	H320	H	0.958379	-1.044661	0.001385
	O321	O	0.676052	0.699468	0.679052
	H322	H	0.665391	0.677279	0.674289
	H323	H	0.669270	0.714732	0.696291
	O324	O	1.123454	0.049981	1.170912
	H325	H	1.121442	0.087301	1.156877
	H326	H	1.145992	0.052607	1.189536
	O327	O	-0.220002	1.225364	0.944376
	H328	H	-0.223666	1.195958	0.978803
	H329	H	-0.251413	1.246104	0.942606
	O330	O	-0.096988	0.808847	0.828655
	H331	H	-0.059637	0.816518	0.844262
	H332	H	-0.099030	0.806590	0.824702
	O333	O	0.604338	0.563108	-0.615764
	H334	H	0.596543	0.559600	-0.603998
	H335	H	0.614958	0.555962	-0.624391
	O336	O	1.177117	0.944466	-0.136972
	H337	H	1.184541	0.926984	-0.108804
	H338	H	1.178963	0.966596	-0.153692
	O339	O	0.107335	1.068433	0.825698
	H340	H	0.106708	1.067311	0.837757
	H341	H	0.089641	1.097691	0.819300
	O342	O	0.413000	0.362063	0.510940
	H343	H	0.404504	0.368995	0.508712
	H344	H	0.412206	0.364892	0.529190
	O345	O	0.050479	0.135178	0.971647
	H346	H	0.056627	0.125694	0.969155
	H347	H	0.050327	0.128809	0.966593
	O348	O	0.567212	0.575195	0.331267
	H349	H	0.565327	0.571136	0.342407
	H350	H	0.569976	0.579651	0.332080
	O351	O	0.773306	0.975078	0.215784
	H352	H	0.774975	0.935215	0.214696
	H353	H	0.747205	0.981150	0.240243
	O354	O	0.352910	0.653680	1.298943
	H355	H	0.359059	0.647546	1.291336
	H356	H	0.366182	0.664764	1.304211
	O357	O	0.097337	-0.115874	0.124900
	H358	H	0.100001	-0.121699	0.133748
	H359	H	0.084959	-0.096221	0.135338
	O360	O	0.826180	-0.201555	0.994911
	H361	H	0.820569	-0.205397	1.001455
	H362	H	0.830369	-0.194539	0.978466
	O363	O	1.036500	-0.186893	0.043629
	H364	H	1.032416	-0.189134	0.066859
	H365	H	1.017307	-0.178028	0.036479
	O366	O	-0.070059	0.205694	1.048988
	H367	H	-0.077558	0.208310	1.031622
	H368	H	-0.073477	0.195938	1.039284
	O369	O	1.092613	-0.067077	1.026887
	H370	H	1.089450	-0.060328	1.034509
	H371	H	1.103909	-0.082288	1.037514
	O372	O	0.630683	0.369329	0.446176
	H373	H	0.644315	0.367994	0.446851
	H374	H	0.620183	0.364347	0.451616
	O375	O	0.171538	0.183531	1.137133
	H376	H	0.146234	0.191727	1.141140
	H377	H	0.171962	0.180678	1.113108
	O378	O	0.665429	0.532879	0.620676
	H379	H	0.671278	0.538047	0.625156
	H380	H	0.655380	0.528855	0.604388
	O381	O	-0.208739	0.970963	-0.042339
	H382	H	-0.190929	0.971428	-0.049505
	H383	H	-0.205236	0.960839	-0.054905
	O384	O	0.596127	0.324073	0.412964
	H385	H	0.592394	0.312362	0.409631
	H386	H	0.588839	0.334202	0.408815
	O387	O	0.844595	0.196018	0.811177
	H388	H	0.825200	0.158295	0.807546
	H389	H	0.832528	0.214273	0.844895
	O390	O	1.186416	1.039249	0.017774
	H391	H	1.188625	1.050740	0.015017
	H392	H	1.169239	1.036336	0.004391
	O393	O	0.940358	-0.175754	1.185592
	H394	H	0.955212	-0.156557	1.189807
	H395	H	0.935501	-0.183916	1.179765
	O396	O	0.296105	0.511638	0.449796
	H397	H	0.298335	0.537587	0.443769
	H398	H	0.283851	0.519713	0.458366
	O399	O	0.407500	0.615532	0.638221
	H400	H	0.404945	0.604735	0.630752
	H401	H	0.407744	0.604245	0.634128
	O402	O	1.145768	1.057722	-0.155899
	H403	H	1.153378	1.052012	-0.160526
	H404	H	1.132031	1.060094	-0.165797
	O405	O	-0.012714	0.196040	-0.213854
	H406	H	-0.045291	0.205223	-0.215706
	H407	H	-0.029063	0.211650	-0.223122
	O408	O	0.347380	0.507024	0.350561
	H409	H	0.352452	0.518327	0.357710
	H410	H	0.336510	0.506882	0.328582
	O411	O	1.187027	1.147222	1.077448
	H412	H	1.179269	1.136113	1.065112
	H413	H	1.203067	1.146909	1.080464
	O414	O	0.540562	0.670764	0.690564
	H415	H	0.520729	0.659542	0.682596
	H416	H	0.543906	0.672386	0.700926
	O417	O	-0.217617	1.078635	1.072092
	H418	H	-0.223211	1.056577	1.092967
	H419	H	-0.211865	1.058298	1.056536
	O420	O	0.296452	1.715826	1.472876
	H421	H	0.304975	1.726808	1.468541
	H422	H	0.282709	1.717815	1.480484
	O423	O	-0.018604	1.023896	0.198782
	H424	H	-0.027699	1.039998	0.193902
	H425	H	-0.035753	1.039392	0.205985
	O426	O	1.135072	-0.062011	-0.058085
	H427	H	1.107342	-0.065794	-0.061337
	H428	H	1.141937	-0.066114	-0.049607
	O429	O	0.544890	0.394416	0.518961
	H430	H	0.552782	0.382164	0.520479
	H431	H	0.542527	0.390835	0.511732
	O432	O	0.625090	0.460566	0.486423
	H433	H	0.629410	0.446097	0.475344
	H434	H	0.620472	0.464725	0.479153
	O435	O	0.020344	0.222890	0.211359
	H436	H	0.028397	0.249430	0.236949
	H437	H	0.002770	0.228404	0.190256
	O438	O	-0.684761	1.556330	0.663992
	H439	H	-0.680953	1.547029	0.669026
	H440	H	-0.697872	1.553545	0.671552
	O441	O	0.511245	0.617628	0.402935
	H442	H	0.520402	0.628831	0.404291
	H443	H	0.501570	0.613718	0.408649
