data_Molecule from HDF5

_cell_length_a		16.390116
_cell_length_b		16.331078
_cell_length_c		16.156166
_cell_angle_alpha	90.342386
_cell_angle_beta	89.903985
_cell_angle_gamma	89.742455
_symmetry_space_group_name_H-M	'P 1'
_symmetry_Int_Tables_number		1

loop_
	_symmetry_equiv_pos_as_xyz
	x,y,z

loop_
	_atom_site_label
	_atom_site_type_symbol
	_atom_site_fract_x
	_atom_site_fract_y
	_atom_site_fract_z
	H0	H	0.400927	0.849373	0.724227
	H1	H	0.594757	0.176093	0.729052
	H2	H	0.597683	0.850739	0.294945
	H3	H	0.399134	0.176763	0.300369
	H4	H	0.710047	0.410809	0.849275
	H5	H	0.709445	0.614547	0.176122
	H6	H	0.279199	0.610436	0.847589
	H7	H	0.277305	0.411798	0.175506
	H8	H	0.835471	0.734145	0.412668
	H9	H	0.159137	0.729630	0.614800
	H10	H	0.835948	0.295097	0.615366
	H11	H	0.157909	0.296232	0.410211
	H12	H	0.832118	0.417813	0.725577
	H13	H	0.158717	0.612108	0.729243
	H14	H	0.831827	0.613558	0.299465
	H15	H	0.157558	0.413588	0.296129
	H16	H	0.394802	0.726620	0.846932
	H17	H	0.591962	0.728068	0.176326
	H18	H	0.594003	0.295993	0.849068
	H19	H	0.393377	0.299013	0.176718
	H20	H	0.716444	0.851206	0.409059
	H21	H	0.714533	0.174598	0.616445
	H22	H	0.281199	0.851207	0.613646
	H23	H	0.278908	0.174005	0.409926
	H24	H	0.895968	0.350099	0.226282
	H25	H	0.090373	0.677176	0.226480
	H26	H	0.094075	0.350265	0.795892
	H27	H	0.895874	0.677116	0.800104
	H28	H	0.213889	0.910987	0.348743
	H29	H	0.213324	0.115425	0.676446
	H30	H	0.780739	0.115270	0.349686
	H31	H	0.781142	0.912534	0.675562
	H32	H	0.332900	0.229951	0.911379
	H33	H	0.655900	0.231390	0.114378
	H34	H	0.332094	0.798692	0.113406
	H35	H	0.655533	0.791647	0.908762
	H36	H	0.333455	0.915791	0.229799
	H37	H	0.658679	0.112414	0.227308
	H38	H	0.333410	0.110472	0.797585
	H39	H	0.658823	0.911838	0.797316
	H40	H	0.897017	0.227883	0.348960
	H41	H	0.099287	0.232513	0.674958
	H42	H	0.099922	0.794791	0.349959
	H43	H	0.899006	0.801560	0.677551
	H44	H	0.212468	0.351158	0.908186
	H45	H	0.212003	0.674746	0.115641
	H46	H	0.778626	0.351282	0.112655
	H47	H	0.774946	0.674339	0.910017
	H48	H	0.397966	0.130885	0.602814
	H49	H	0.595801	0.897309	0.601303
	H50	H	0.599669	0.131128	0.422547
	H51	H	0.407036	0.896746	0.418747
	H52	H	0.580556	0.421465	0.128281
	H53	H	0.587181	0.597609	0.896556
	H54	H	0.398038	0.606287	0.129914
	H55	H	0.402769	0.421824	0.896543
	H56	H	0.108393	0.605512	0.426087
	H57	H	0.879578	0.606057	0.613696
	H58	H	0.111047	0.421474	0.602851
	H59	H	0.877524	0.416234	0.415431
	H60	H	0.110212	0.423485	0.603288
	H61	H	0.879614	0.617842	0.604457
	H62	H	0.109348	0.599045	0.418841
	H63	H	0.881472	0.415574	0.426991
	H64	H	0.403950	0.601744	0.126032
	H65	H	0.581058	0.604557	0.895506
	H66	H	0.589360	0.416746	0.131240
	H67	H	0.405488	0.420569	0.895717
	H68	H	0.586039	0.129240	0.413939
	H69	H	0.590502	0.895897	0.607749
	H70	H	0.404674	0.130114	0.611032
	H71	H	0.408203	0.899439	0.423308
	H72	H	0.903080	0.625857	0.098301
	H73	H	0.088963	0.397401	0.104310
	H74	H	0.080800	0.627558	0.921439
	H75	H	0.901707	0.397865	0.921166
	H76	H	0.091650	0.920666	0.631051
	H77	H	0.080241	0.105900	0.398210
	H78	H	0.908508	0.110325	0.629427
	H79	H	0.908139	0.923849	0.396996
	H80	H	0.611681	0.106892	0.920511
	H81	H	0.375652	0.116757	0.109282
	H82	H	0.610564	0.911688	0.096606
	H83	H	0.378148	0.923996	0.909204
	H84	H	0.605423	0.928577	0.097836
	H85	H	0.383906	0.105284	0.095940
	H86	H	0.609339	0.106386	0.926315
	H87	H	0.377470	0.910000	0.921229
	H88	H	0.901605	0.103252	0.631063
	H89	H	0.095181	0.111639	0.391536
	H90	H	0.092227	0.925511	0.629381
	H91	H	0.908406	0.921871	0.397074
	H92	H	0.089154	0.626855	0.928097
	H93	H	0.085430	0.397813	0.103055
	H94	H	0.893518	0.631443	0.105405
	H95	H	0.899919	0.396802	0.919144
	H96	H	0.408210	0.125924	0.601749
	H97	H	0.588518	0.899455	0.600321
	H98	H	0.586340	0.124875	0.429795
	H99	H	0.403423	0.896868	0.422431
	H100	H	0.589446	0.427836	0.129188
	H101	H	0.589696	0.605784	0.893806
	H102	H	0.405538	0.609672	0.129423
	H103	H	0.402325	0.418645	0.894605
	H104	H	0.112504	0.608466	0.417319
	H105	H	0.884524	0.605229	0.599732
	H106	H	0.110446	0.422218	0.604730
	H107	H	0.882506	0.426124	0.420543
	H108	H	0.905997	0.629017	0.110441
	H109	H	0.088239	0.398135	0.101289
	H110	H	0.090566	0.631124	0.918653
	H111	H	0.902359	0.397363	0.918647
	H112	H	0.087828	0.922966	0.629759
	H113	H	0.093867	0.094626	0.397149
	H114	H	0.910351	0.100644	0.626850
	H115	H	0.907310	0.922778	0.396158
	H116	H	0.609225	0.102162	0.922138
	H117	H	0.379971	0.098472	0.113262
	H118	H	0.612500	0.920171	0.111612
	H119	H	0.384623	0.926685	0.926218
	C120	C	0.375415	0.021645	0.633822
	C121	C	0.619552	1.004822	0.634173
	C122	C	0.620485	0.021536	0.390806
	C123	C	0.376441	1.005057	0.392037
	C124	C	0.615538	0.391504	0.021246
	C125	C	0.615143	0.633092	1.003615
	C126	C	0.372783	0.634247	0.019974
	C127	C	0.373391	0.391674	1.003928
	C128	C	0.003698	0.635313	0.391583
	C129	C	0.988472	0.637155	0.635738
	C130	C	0.004005	0.392523	0.633682
	C131	C	0.987363	0.390426	0.390454
	C132	C	0.872410	0.521473	0.134143
	C133	C	0.116202	0.504993	0.133667
	C134	C	0.116249	0.521242	0.891590
	C135	C	0.872188	0.504898	0.890592
	C136	C	0.120291	0.891812	0.521701
	C137	C	0.119402	0.134996	0.503717
	C138	C	0.876916	0.134203	0.521360
	C139	C	0.877628	0.893558	0.504175
	C140	C	0.503246	0.134359	0.892280
	C141	C	0.486631	0.136207	0.135745
	C142	C	0.502897	0.891674	0.133113
	C143	C	0.486918	0.890071	0.889391
	C144	C	0.379158	0.898587	0.687905
	C145	C	0.616087	0.127100	0.691192
	C146	C	0.618618	0.899505	0.333209
	C147	C	0.378232	0.127490	0.337093
	C148	C	0.671801	0.391458	0.898189
	C149	C	0.671122	0.633495	0.127069
	C150	C	0.317306	0.630894	0.896486
	C151	C	0.316114	0.392938	0.126902
	C152	C	0.882898	0.693903	0.393332
	C153	C	0.110408	0.691677	0.634280
	C154	C	0.883279	0.335206	0.633542
	C155	C	0.109234	0.334600	0.390920
	C156	C	0.881446	0.396009	0.688539
	C157	C	0.110216	0.633224	0.691537
	C158	C	0.881211	0.633896	0.336727
	C159	C	0.109043	0.393001	0.334030
	C160	C	0.374381	0.688947	0.896236
	C161	C	0.612850	0.689926	0.127133
	C162	C	0.613828	0.334655	0.897995
	C163	C	0.374017	0.336863	0.127655
	C164	C	0.677632	0.899615	0.389914
	C165	C	0.675580	0.126578	0.634995
	C166	C	0.319670	0.899608	0.632920
	C167	C	0.318535	0.126124	0.391844
	C168	C	0.875359	0.399013	0.188955
	C169	C	0.112900	0.627516	0.190013
	C170	C	0.114570	0.398979	0.834029
	C171	C	0.874963	0.627923	0.836695
	C172	C	0.176245	0.891453	0.398183
	C173	C	0.175123	0.134721	0.627012
	C174	C	0.819560	0.134095	0.398460
	C175	C	0.820250	0.893692	0.627175
	C176	C	0.381314	0.191040	0.892224
	C177	C	0.607876	0.192779	0.134371
	C178	C	0.380853	0.836561	0.132942
	C179	C	0.608042	0.831747	0.889974
	C180	C	0.381600	0.894569	0.191144
	C181	C	0.609248	0.133379	0.190411
	C182	C	0.381533	0.131882	0.835491
	C183	C	0.609619	0.891508	0.834409
	C184	C	0.877571	0.190152	0.398036
	C185	C	0.118166	0.192802	0.626603
	C186	C	0.119284	0.833813	0.398691
	C187	C	0.878849	0.838575	0.628195
	C188	C	0.173167	0.399418	0.890259
	C189	C	0.172952	0.626558	0.134406
	C190	C	0.816789	0.399687	0.132700
	C191	C	0.814672	0.626497	0.891354
	C192	C	0.397137	0.106955	0.611598
	C193	C	0.598052	0.919553	0.610050
	C194	C	0.597456	0.106420	0.415171
	C195	C	0.399586	0.919563	0.414895
	C196	C	0.593077	0.415147	0.107417
	C197	C	0.592588	0.609498	0.917427
	C198	C	0.395717	0.612310	0.106118
	C199	C	0.396621	0.413994	0.918024
	C200	C	0.088228	0.611246	0.414131
	C201	C	0.903372	0.615771	0.612830
	C202	C	0.088754	0.415605	0.610484
	C203	C	0.902565	0.412841	0.413992
	C204	C	0.894290	0.606725	0.111388
	C205	C	0.094083	0.419807	0.109903
	C206	C	0.093466	0.606342	0.915708
	C207	C	0.894705	0.419685	0.913059
	C208	C	0.097359	0.916129	0.607616
	C209	C	0.096569	0.111064	0.417854
	C210	C	0.900052	0.111573	0.606955
	C211	C	0.901156	0.916146	0.418919
	C212	C	0.587917	0.111733	0.916135
	C213	C	0.401724	0.113550	0.112908
	C214	C	0.587524	0.913695	0.108953
	C215	C	0.402147	0.913484	0.912144
	Zn216	Zn	0.496640	0.012743	0.762200
	Zn217	Zn	0.496425	0.013320	0.263540
	Zn218	Zn	0.743656	0.512696	0.012428
	Zn219	Zn	0.245411	0.512478	0.012237
	Zn220	Zn	-0.002315	0.765890	0.513767
	Zn221	Zn	-0.002898	0.262044	0.512366
	Zn222	Zn	-0.004923	0.513828	0.763532
	Zn223	Zn	-0.005760	0.512785	0.262193
	Zn224	Zn	0.494399	0.762031	0.011427
	Zn225	Zn	0.493651	0.264020	0.013585
	Zn226	Zn	0.749398	0.013483	0.512812
	Zn227	Zn	0.247399	0.012921	0.512411
	N228	N	0.413345	0.975344	0.688519
	N229	N	0.582250	0.050312	0.691081
	N230	N	0.584008	0.976158	0.333544
	N231	N	0.413678	0.051082	0.337494
	N232	N	0.672904	0.426281	0.975804
	N233	N	0.672686	0.598918	0.049205
	N234	N	0.316139	0.597871	0.974646
	N235	N	0.315379	0.426123	0.048934
	N236	N	0.960147	0.695108	0.426709
	N237	N	0.033657	0.694279	0.600335
	N238	N	0.960642	0.332889	0.600399
	N239	N	0.032606	0.332958	0.425289
	N240	N	0.957614	0.431107	0.688667
	N241	N	0.033147	0.600256	0.692766
	N242	N	0.957337	0.598370	0.335584
	N243	N	0.032236	0.427319	0.333649
	N244	N	0.408109	0.691188	0.974113
	N245	N	0.578813	0.689888	0.049353
	N246	N	0.579510	0.334585	0.975677
	N247	N	0.409005	0.335963	0.050287
	N248	N	0.679155	0.976685	0.425006
	N249	N	0.677825	0.049528	0.600328
	N250	N	0.316994	0.977181	0.600143
	N251	N	0.317387	0.048740	0.425177
	N252	N	0.909123	0.475919	0.190055
	N253	N	0.078398	0.550867	0.189599
	N254	N	0.079607	0.475714	0.834814
	N255	N	0.910085	0.551433	0.836160
	N256	N	0.177029	0.926660	0.475718
	N257	N	0.175770	0.099055	0.549704
	N258	N	0.818704	0.100273	0.476241
	N259	N	0.819483	0.927315	0.549355
	N260	N	0.457905	0.192566	0.926928
	N261	N	0.530703	0.194678	0.101065
	N262	N	0.457321	0.834752	0.097511
	N263	N	0.530946	0.830814	0.923525
	N264	N	0.458386	0.928160	0.191443
	N265	N	0.532778	0.099004	0.191376
	N266	N	0.458317	0.097398	0.835239
	N267	N	0.533379	0.927121	0.833878
	N268	N	0.912422	0.190509	0.475404
	N269	N	0.084565	0.193316	0.548706
	N270	N	0.085317	0.833774	0.476604
	N271	N	0.913830	0.837941	0.550692
	N272	N	0.174244	0.476302	0.925291
	N273	N	0.175010	0.549434	0.099926
	N274	N	0.814833	0.476782	0.099184
	N275	N	0.812714	0.548944	0.924252
	O276	O	1.042292	-0.120845	0.873397
	H277	H	1.042898	-0.114140	0.870318
	H278	H	1.046914	-0.109029	0.897310
	O279	O	0.018697	0.928209	0.062510
	H280	H	0.021630	0.925888	0.051980
	H281	H	0.017678	0.933669	0.051862
	O282	O	0.385965	0.568764	0.532205
	H283	H	0.392543	0.557152	0.529307
	H284	H	0.393670	0.552313	0.534001
	O285	O	0.446033	0.543118	0.563231
	H286	H	0.454270	0.537777	0.556316
	H287	H	0.447810	0.544664	0.556551
	O288	O	0.402428	0.461614	0.620364
	H289	H	0.395544	0.455906	0.627617
	H290	H	0.417110	0.461146	0.621658
	O291	O	-0.124336	0.092660	0.959766
	H292	H	-0.130809	0.096422	0.954327
	H293	H	-0.113745	0.102802	0.957513
	O294	O	1.420560	0.642059	-0.548285
	H295	H	1.413962	0.636596	-0.547648
	H296	H	1.405989	0.640292	-0.547718
	O297	O	1.014758	1.138026	-0.077945
	H298	H	1.027980	1.138808	-0.074345
	H299	H	1.018492	1.149397	-0.077147
	O300	O	0.381289	0.534603	0.382145
	H301	H	0.377840	0.538785	0.376496
	H302	H	0.377380	0.523606	0.392446
	O303	O	0.625616	0.540884	0.563162
	H304	H	0.634316	0.540265	0.557722
	H305	H	0.621898	0.547123	0.572540
	O306	O	0.461421	0.446013	0.480975
	H307	H	0.460534	0.449366	0.484135
	H308	H	0.456512	0.433483	0.483620
	O309	O	0.622519	0.446305	0.481488
	H310	H	0.613910	0.449515	0.469917
	H311	H	0.630278	0.447622	0.485829
	O312	O	1.077160	1.074339	0.900314
	H313	H	1.068010	1.075168	0.907731
	H314	H	1.083734	1.066896	0.896530
	O315	O	0.493208	0.574396	0.370520
	H316	H	0.486919	0.582467	0.372874
	H317	H	0.470314	0.562445	0.379919
	O318	O	0.493849	0.491192	0.555912
	H319	H	0.512200	0.489088	0.554621
	H320	H	0.496441	0.498903	0.549924
	O321	O	0.571823	0.578293	0.459822
	H322	H	0.560410	0.574044	0.459094
	H323	H	0.578954	0.582475	0.447585
	O324	O	0.094012	0.984721	1.074800
	H325	H	0.092989	0.975009	1.075945
	H326	H	0.093729	0.999565	1.079964
	O327	O	-0.053018	1.062571	1.111481
	H328	H	-0.069810	1.057634	1.109943
	H329	H	-0.067940	1.057386	1.114664
	O330	O	-0.060220	-0.068126	0.138085
	H331	H	-0.054329	-0.078263	0.141563
	H332	H	-0.053895	-0.074153	0.129647
	O333	O	0.434260	0.626060	0.500452
	H334	H	0.404192	0.633558	0.490086
	H335	H	0.436573	0.633394	0.488239
	O336	O	-0.016837	-0.009018	0.036311
	H337	H	-0.030113	-0.000617	0.032542
	H338	H	-0.028751	-0.026733	0.038067
	O339	O	0.065715	-0.101001	-0.078593
	H340	H	0.071979	-0.099738	-0.076340
	H341	H	0.073722	-0.100962	-0.087171
	O342	O	0.448675	0.459428	0.549551
	H343	H	0.456182	0.470819	0.553221
	H344	H	0.464162	0.471709	0.547264
	O345	O	0.035447	0.997922	0.969572
	H346	H	0.042872	0.998874	0.951354
	H347	H	0.034364	0.997649	0.977237
	O348	O	0.867405	0.023606	0.090886
	H349	H	0.862188	0.023701	0.083466
	H350	H	0.866572	0.013826	0.105724
	O351	O	0.633370	0.579429	0.486873
	H352	H	0.644059	0.572730	0.489467
	H353	H	0.630667	0.600718	0.491081
	O354	O	0.079874	1.001680	-0.133506
	H355	H	0.073523	0.999046	-0.123761
	H356	H	0.074312	1.008648	-0.144795
	O357	O	0.886567	0.056066	-0.072424
	H358	H	0.886180	0.053932	-0.082385
	H359	H	0.901779	0.055431	-0.065087
	O360	O	0.930235	-0.094913	1.066672
	H361	H	0.944914	-0.097463	1.043249
	H362	H	0.930171	-0.087762	1.074607
	O363	O	0.524311	0.412418	0.455452
	H364	H	0.541971	0.397957	0.446234
	H365	H	0.518820	0.398786	0.449442
	O366	O	0.522216	0.569731	0.632951
	H367	H	0.518537	0.558838	0.625841
	H368	H	0.505003	0.574149	0.636828
	O369	O	1.037069	0.044094	-0.069105
	H370	H	1.039410	0.039201	-0.058211
	H371	H	1.042564	0.046207	-0.067836
	O372	O	0.621863	0.364889	0.486664
	H373	H	0.630010	0.361252	0.471613
	H374	H	0.635365	0.368874	0.493373
	O375	O	0.927493	-0.018439	0.981892
	H376	H	0.929129	-0.025174	0.972838
	H377	H	0.939447	-0.028640	0.982961
	O378	O	-0.098949	0.993387	0.205482
	H379	H	-0.113330	0.976338	0.213848
	H380	H	-0.116931	0.977389	0.208308
	O381	O	0.610569	0.474595	0.492520
	H382	H	0.613928	0.486543	0.497287
	H383	H	0.613412	0.479176	0.488094
	O384	O	0.992624	1.061539	-0.000923
	H385	H	0.987361	1.059241	-0.000153
	H386	H	0.993170	1.061288	0.000443
	O387	O	0.506424	-0.434566	0.419665
	H388	H	0.488133	-0.431845	0.408080
	H389	H	0.512802	-0.440470	0.430211
	O390	O	1.001789	1.044494	0.080980
	H391	H	1.005915	1.045277	0.088655
	H392	H	0.990236	1.042755	0.090355
	O393	O	0.454068	0.421951	0.526815
	H394	H	0.443611	0.409278	0.531215
	H395	H	0.466981	0.421611	0.544883
