data_Molecule from HDF5

_cell_length_a		16.333931
_cell_length_b		16.333339
_cell_length_c		16.315702
_cell_angle_alpha	90.094860
_cell_angle_beta	90.001521
_cell_angle_gamma	89.904745
_symmetry_space_group_name_H-M	'P 1'
_symmetry_Int_Tables_number		1

loop_
	_symmetry_equiv_pos_as_xyz
	x,y,z

loop_
	_atom_site_label
	_atom_site_type_symbol
	_atom_site_fract_x
	_atom_site_fract_y
	_atom_site_fract_z
	H0	H	0.406582	0.835912	0.716873
	H1	H	0.602956	0.163308	0.718263
	H2	H	0.602834	0.836672	0.288410
	H3	H	0.406636	0.163846	0.289297
	H4	H	0.718822	0.402048	0.839263
	H5	H	0.717593	0.596873	0.167747
	H6	H	0.290892	0.596928	0.839975
	H7	H	0.292335	0.402364	0.167875
	H8	H	0.841776	0.715173	0.405348
	H9	H	0.169043	0.712802	0.600806
	H10	H	0.841560	0.286240	0.602078
	H11	H	0.168405	0.285598	0.406032
	H12	H	0.840604	0.404099	0.716499
	H13	H	0.168569	0.595937	0.717206
	H14	H	0.841772	0.598397	0.289641
	H15	H	0.168250	0.400665	0.289010
	H16	H	0.407308	0.712877	0.838856
	H17	H	0.602683	0.714978	0.166406
	H18	H	0.603080	0.285362	0.839272
	H19	H	0.408748	0.285629	0.166999
	H20	H	0.720439	0.837072	0.403933
	H21	H	0.718506	0.164334	0.600760
	H22	H	0.289451	0.836936	0.600752
	H23	H	0.290406	0.164345	0.405871
	H24	H	0.908906	0.336435	0.217737
	H25	H	0.102698	0.663744	0.218347
	H26	H	0.102202	0.336138	0.790008
	H27	H	0.907381	0.663727	0.791312
	H28	H	0.218305	0.903236	0.338648
	H29	H	0.219513	0.098830	0.666073
	H30	H	0.790986	0.098737	0.339117
	H31	H	0.791068	0.903153	0.666878
	H32	H	0.341955	0.214255	0.904499
	H33	H	0.668786	0.212965	0.100232
	H34	H	0.341639	0.784492	0.101540
	H35	H	0.668600	0.784665	0.904094
	H36	H	0.340353	0.902510	0.216855
	H37	H	0.668302	0.097064	0.217174
	H38	H	0.341409	0.097055	0.789049
	H39	H	0.668412	0.901276	0.788384
	H40	H	0.906355	0.216047	0.340006
	H41	H	0.101983	0.213557	0.667084
	H42	H	0.102863	0.785046	0.339126
	H43	H	0.906671	0.786154	0.667188
	H44	H	0.218545	0.335539	0.907010
	H45	H	0.221170	0.662884	0.103234
	H46	H	0.791770	0.335770	0.102038
	H47	H	0.790345	0.663399	0.907214
	H48	H	0.410629	0.115534	0.595616
	H49	H	0.593362	0.886994	0.592559
	H50	H	0.595817	0.117242	0.405155
	H51	H	0.409911	0.884612	0.409224
	H52	H	0.600409	0.399797	0.121080
	H53	H	0.601831	0.587702	0.888474
	H54	H	0.412464	0.592715	0.118973
	H55	H	0.403243	0.406923	0.885085
	H56	H	0.120712	0.593006	0.412050
	H57	H	0.888389	0.599093	0.594765
	H58	H	0.120146	0.400388	0.588453
	H59	H	0.890989	0.411092	0.412943
	H60	H	0.118246	0.415788	0.598499
	H61	H	0.890440	0.590631	0.595902
	H62	H	0.120337	0.591864	0.411660
	H63	H	0.888663	0.408625	0.405364
	H64	H	0.413124	0.593616	0.119007
	H65	H	0.592791	0.593043	0.889239
	H66	H	0.603022	0.409778	0.118974
	H67	H	0.415953	0.414084	0.890733
	H68	H	0.595222	0.113967	0.413658
	H69	H	0.604221	0.883697	0.592373
	H70	H	0.412607	0.115916	0.598104
	H71	H	0.411709	0.884036	0.408461
	H72	H	0.909906	0.616743	0.099592
	H73	H	0.092457	0.386182	0.095644
	H74	H	0.092115	0.614934	0.905273
	H75	H	0.915181	0.383844	0.905484
	H76	H	0.110804	0.919024	0.619119
	H77	H	0.091783	0.101071	0.386495
	H78	H	0.917299	0.093702	0.617814
	H79	H	0.907631	0.912758	0.387882
	H80	H	0.621247	0.091507	0.909094
	H81	H	0.390674	0.091336	0.091692
	H82	H	0.620243	0.901852	0.091674
	H83	H	0.387535	0.897876	0.911917
	H84	H	0.617057	0.913101	0.094752
	H85	H	0.387735	0.090847	0.100745
	H86	H	0.620885	0.093593	0.910333
	H87	H	0.392877	0.911930	0.915354
	H88	H	0.908476	0.099708	0.621597
	H89	H	0.106995	0.094212	0.383749
	H90	H	0.083085	0.910548	0.612900
	H91	H	0.920290	0.908728	0.390875
	H92	H	0.097329	0.612604	0.919634
	H93	H	0.103719	0.384689	0.091693
	H94	H	0.912771	0.614775	0.097533
	H95	H	0.912929	0.386350	0.915293
	H96	H	0.413516	0.114414	0.595797
	H97	H	0.598457	0.882683	0.601841
	H98	H	0.603430	0.116583	0.410309
	H99	H	0.411595	0.884834	0.410575
	H100	H	0.593353	0.406482	0.117151
	H101	H	0.601220	0.597596	0.885245
	H102	H	0.412093	0.593538	0.119070
	H103	H	0.416709	0.398701	0.887193
	H104	H	0.120490	0.592697	0.410719
	H105	H	0.887176	0.595613	0.603247
	H106	H	0.125132	0.400428	0.606449
	H107	H	0.888333	0.403497	0.411677
	H108	H	0.909084	0.615736	0.095662
	H109	H	0.101354	0.381483	0.103604
	H110	H	0.106667	0.618506	0.908833
	H111	H	0.905670	0.381701	0.909551
	H112	H	0.102213	0.891607	0.624201
	H113	H	0.094237	0.084973	0.390062
	H114	H	0.907228	0.089021	0.618577
	H115	H	0.911629	0.900083	0.385307
	H116	H	0.620026	0.091578	0.911465
	H117	H	0.388372	0.098939	0.096248
	H118	H	0.622375	0.905662	0.102647
	H119	H	0.387139	0.908817	0.901430
	C120	C	0.383722	0.007635	0.624605
	C121	C	0.626500	0.992382	0.624261
	C122	C	0.626603	0.008155	0.381248
	C123	C	0.382832	0.992506	0.381409
	C124	C	0.627276	0.377365	0.011251
	C125	C	0.626421	0.621346	0.995465
	C126	C	0.383566	0.621642	0.011206
	C127	C	0.383726	0.378024	0.995485
	C128	C	0.012735	0.621524	0.382540
	C129	C	0.996847	0.622164	0.625870
	C130	C	0.012934	0.378377	0.625598
	C131	C	0.997157	0.378790	0.382126
	C132	C	0.883466	0.507726	0.125564
	C133	C	0.127037	0.491957	0.125608
	C134	C	0.126940	0.507462	0.882296
	C135	C	0.883053	0.491869	0.882705
	C136	C	0.126911	0.878349	0.510870
	C137	C	0.126005	0.121727	0.494813
	C138	C	0.882972	0.122590	0.511192
	C139	C	0.884040	0.879068	0.495688
	C140	C	0.513038	0.121057	0.881358
	C141	C	0.496927	0.121357	0.124656
	C142	C	0.512197	0.878665	0.124412
	C143	C	0.496994	0.877823	0.880798
	C144	C	0.386010	0.884805	0.679322
	C145	C	0.623572	0.114810	0.679919
	C146	C	0.623564	0.885269	0.326350
	C147	C	0.385748	0.115280	0.327073
	C148	C	0.681517	0.380823	0.888108
	C149	C	0.680500	0.618289	0.118707
	C150	C	0.328783	0.617821	0.888420
	C151	C	0.329648	0.381465	0.118697
	C152	C	0.890315	0.676881	0.385050
	C153	C	0.120134	0.675631	0.622272
	C154	C	0.890076	0.323878	0.622679
	C155	C	0.119812	0.323638	0.385476
	C156	C	0.889822	0.382285	0.679894
	C157	C	0.119780	0.617903	0.680213
	C158	C	0.890420	0.619048	0.327395
	C159	C	0.119731	0.380659	0.327184
	C160	C	0.386771	0.675369	0.887996
	C161	C	0.623574	0.677020	0.117998
	C162	C	0.623861	0.322947	0.888013
	C163	C	0.387275	0.323443	0.118352
	C164	C	0.682509	0.885740	0.383163
	C165	C	0.681134	0.115201	0.621758
	C166	C	0.327935	0.885213	0.621665
	C167	C	0.328032	0.115475	0.384881
	C168	C	0.887604	0.384708	0.179872
	C169	C	0.123628	0.615085	0.180442
	C170	C	0.123554	0.384813	0.827547
	C171	C	0.886445	0.614981	0.828893
	C172	C	0.181139	0.881571	0.387595
	C173	C	0.181420	0.119167	0.617584
	C174	C	0.828708	0.119510	0.388037
	C175	C	0.828692	0.882145	0.618124
	C176	C	0.390601	0.176434	0.883788
	C177	C	0.620085	0.175107	0.121064
	C178	C	0.389765	0.823134	0.121869
	C179	C	0.619989	0.822775	0.883867
	C180	C	0.389320	0.881572	0.179342
	C181	C	0.619684	0.118058	0.179641
	C182	C	0.390307	0.118288	0.826404
	C183	C	0.619695	0.880273	0.825872
	C184	C	0.885863	0.177807	0.388528
	C185	C	0.123227	0.176251	0.618049
	C186	C	0.124019	0.822726	0.388014
	C187	C	0.886474	0.824268	0.618405
	C188	C	0.181776	0.384716	0.885342
	C189	C	0.182590	0.614556	0.123588
	C190	C	0.829567	0.384690	0.122274
	C191	C	0.828188	0.614735	0.886341
	C192	C	0.405697	0.093162	0.602767
	C193	C	0.604908	0.906605	0.602101
	C194	C	0.604403	0.093851	0.403101
	C195	C	0.404575	0.906552	0.402997
	C196	C	0.605492	0.399020	0.096955
	C197	C	0.605111	0.599306	0.909982
	C198	C	0.405873	0.599874	0.096898
	C199	C	0.405510	0.400176	0.909684
	C200	C	0.098587	0.599232	0.404893
	C201	C	0.910881	0.601260	0.604297
	C202	C	0.098834	0.399482	0.603991
	C203	C	0.911454	0.401166	0.403607
	C204	C	0.904512	0.593606	0.103981
	C205	C	0.105432	0.406421	0.103644
	C206	C	0.105036	0.593277	0.904587
	C207	C	0.904840	0.405967	0.903860
	C208	C	0.104974	0.900475	0.596542
	C209	C	0.103989	0.099970	0.408908
	C210	C	0.904585	0.100667	0.597140
	C211	C	0.906511	0.900798	0.410121
	C212	C	0.598654	0.098831	0.903684
	C213	C	0.411090	0.099813	0.102697
	C214	C	0.597799	0.900591	0.102733
	C215	C	0.411440	0.899901	0.902985
	Zn216	Zn	0.505018	-0.000580	0.752986
	Zn217	Zn	0.504087	0.000307	0.253287
	Zn218	Zn	0.754763	0.499391	0.004207
	Zn219	Zn	0.255332	0.499873	0.004073
	Zn220	Zn	0.005112	0.749982	0.503769
	Zn221	Zn	0.004705	0.250229	0.503427
	Zn222	Zn	0.004541	0.499850	0.753965
	Zn223	Zn	0.005345	0.499968	0.253827
	Zn224	Zn	0.504938	0.750169	0.002606
	Zn225	Zn	0.505143	0.249627	0.003062
	Zn226	Zn	0.754935	0.000443	0.502685
	Zn227	Zn	0.254839	0.000491	0.502799
	N228	N	0.420062	0.961851	0.681001
	N229	N	0.590464	0.037418	0.681743
	N230	N	0.589476	0.962426	0.324969
	N231	N	0.419129	0.038012	0.325013
	N232	N	0.683635	0.414092	0.965541
	N233	N	0.682511	0.584309	0.041511
	N234	N	0.326609	0.585250	0.966056
	N235	N	0.327473	0.414656	0.041164
	N236	N	0.967472	0.678273	0.418675
	N237	N	0.042670	0.678664	0.589338
	N238	N	0.967470	0.321235	0.589687
	N239	N	0.042403	0.322389	0.418880
	N240	N	0.967195	0.415410	0.681610
	N241	N	0.042088	0.585447	0.682383
	N242	N	0.967725	0.585264	0.325844
	N243	N	0.042543	0.414343	0.325123
	N244	N	0.420275	0.677696	0.965420
	N245	N	0.590650	0.678980	0.040583
	N246	N	0.590920	0.320634	0.965606
	N247	N	0.420262	0.321244	0.040867
	N248	N	0.684125	0.962983	0.416674
	N249	N	0.682977	0.037999	0.587967
	N250	N	0.326305	0.962530	0.588448
	N251	N	0.326367	0.037967	0.417981
	N252	N	0.920345	0.462090	0.181997
	N253	N	0.089766	0.537874	0.181828
	N254	N	0.090322	0.462091	0.825693
	N255	N	0.919921	0.537649	0.826646
	N256	N	0.183114	0.915317	0.464886
	N257	N	0.183343	0.086022	0.539868
	N258	N	0.826784	0.085840	0.465323
	N259	N	0.827285	0.915544	0.540831
	N260	N	0.467997	0.178376	0.917087
	N261	N	0.542810	0.177241	0.087687
	N262	N	0.467003	0.821324	0.088534
	N263	N	0.542652	0.821195	0.917233
	N264	N	0.466490	0.915453	0.181010
	N265	N	0.542127	0.085331	0.181759
	N266	N	0.467473	0.084561	0.824885
	N267	N	0.542381	0.913792	0.823914
	N268	N	0.918905	0.179641	0.466049
	N269	N	0.089470	0.177862	0.540798
	N270	N	0.091193	0.820564	0.465750
	N271	N	0.920337	0.822258	0.541171
	N272	N	0.183730	0.462164	0.918811
	N273	N	0.184932	0.537270	0.090317
	N274	N	0.826685	0.462246	0.089449
	N275	N	0.826273	0.537200	0.919173
	O276	O	-0.008344	-0.056626	0.963078
	H277	H	-0.005595	-0.044932	0.968865
	H278	H	-0.007680	-0.061950	0.967041
	O279	O	0.488131	0.513983	0.488996
	H280	H	0.491888	0.521512	0.486956
	H281	H	0.480327	0.521703	0.483732
	O282	O	0.489710	0.475842	0.489332
	H283	H	0.485447	0.471537	0.489134
	H284	H	0.487260	0.470005	0.496919
	O285	O	0.508224	0.512019	0.447497
	H286	H	0.497913	0.497079	0.439277
	H287	H	0.515849	0.518923	0.440469
	O288	O	-0.022893	0.968233	-0.014419
	H289	H	-0.023398	0.973147	-0.023296
	H290	H	-0.028303	0.970743	-0.014271
	O291	O	-0.013790	0.948121	0.941005
	H292	H	-0.006460	0.939681	0.943169
	H293	H	-0.012089	0.939269	0.936509
	O294	O	0.483341	0.485344	0.495916
	H295	H	0.483019	0.482423	0.506706
	H296	H	0.489526	0.497338	0.494263
	O297	O	0.982907	-0.029640	-0.028031
	H298	H	0.981591	-0.024599	-0.029048
	H299	H	0.977491	-0.034955	-0.033155
