data_Molecule from HDF5

_cell_length_a		16.559898
_cell_length_b		16.738514
_cell_length_c		16.495270
_cell_angle_alpha	89.869489
_cell_angle_beta	89.886416
_cell_angle_gamma	89.884138
_symmetry_space_group_name_H-M	'P 1'
_symmetry_Int_Tables_number		1

loop_
	_symmetry_equiv_pos_as_xyz
	x,y,z

loop_
	_atom_site_label
	_atom_site_type_symbol
	_atom_site_fract_x
	_atom_site_fract_y
	_atom_site_fract_z
	H0	H	0.397289	0.851800	0.711487
	H1	H	0.603495	0.163201	0.706990
	H2	H	0.607595	0.851775	0.267194
	H3	H	0.403036	0.164100	0.272460
	H4	H	0.721573	0.404075	0.830955
	H5	H	0.718011	0.606473	0.148138
	H6	H	0.282974	0.608833	0.831437
	H7	H	0.285290	0.405264	0.148117
	H8	H	0.845328	0.726672	0.385200
	H9	H	0.158564	0.725477	0.593224
	H10	H	0.845486	0.285023	0.595424
	H11	H	0.158086	0.286090	0.385248
	H12	H	0.843453	0.405290	0.707579
	H13	H	0.159311	0.606892	0.706930
	H14	H	0.843322	0.606719	0.273539
	H15	H	0.159294	0.405151	0.271718
	H16	H	0.397422	0.726399	0.831373
	H17	H	0.605930	0.726127	0.146361
	H18	H	0.608529	0.285418	0.832056
	H19	H	0.400276	0.287803	0.147419
	H20	H	0.726274	0.853333	0.381610
	H21	H	0.722372	0.161595	0.592248
	H22	H	0.281604	0.851191	0.593646
	H23	H	0.285213	0.163847	0.389163
	H24	H	0.899669	0.349456	0.208813
	H25	H	0.104848	0.661349	0.210036
	H26	H	0.104363	0.349334	0.770252
	H27	H	0.898763	0.661852	0.768898
	H28	H	0.218809	0.906610	0.330598
	H29	H	0.221807	0.110104	0.646099
	H30	H	0.781262	0.111844	0.332322
	H31	H	0.779731	0.901500	0.645567
	H32	H	0.346576	0.229756	0.881970
	H33	H	0.659815	0.225760	0.092734
	H34	H	0.344983	0.787945	0.093030
	H35	H	0.658843	0.786652	0.883339
	H36	H	0.344128	0.906064	0.206640
	H37	H	0.660236	0.108128	0.207311
	H38	H	0.344621	0.110903	0.770140
	H39	H	0.660239	0.905793	0.770819
	H40	H	0.895083	0.229533	0.333383
	H41	H	0.107454	0.227049	0.645717
	H42	H	0.107419	0.787270	0.331805
	H43	H	0.894592	0.783957	0.644864
	H44	H	0.220588	0.349065	0.887381
	H45	H	0.223856	0.660379	0.094210
	H46	H	0.781263	0.350750	0.093987
	H47	H	0.781638	0.662249	0.885343
	H48	H	0.410825	0.119596	0.583906
	H49	H	0.596184	0.894848	0.576531
	H50	H	0.587099	0.114280	0.406195
	H51	H	0.410553	0.894068	0.397786
	H52	H	0.592804	0.417332	0.102124
	H53	H	0.592059	0.596415	0.876234
	H54	H	0.416756	0.598062	0.100985
	H55	H	0.413941	0.418376	0.876807
	H56	H	0.118265	0.605138	0.399153
	H57	H	0.890189	0.595633	0.578519
	H58	H	0.112950	0.418052	0.578285
	H59	H	0.888241	0.410695	0.405343
	H60	H	0.114623	0.414383	0.580080
	H61	H	0.887920	0.598047	0.580198
	H62	H	0.111465	0.595337	0.406365
	H63	H	0.891937	0.421545	0.404220
	H64	H	0.411222	0.600967	0.103125
	H65	H	0.590878	0.599272	0.875735
	H66	H	0.588195	0.418507	0.099484
	H67	H	0.414155	0.414905	0.876025
	H68	H	0.599779	0.119605	0.400433
	H69	H	0.589424	0.895249	0.582812
	H70	H	0.415331	0.116109	0.576935
	H71	H	0.409879	0.894352	0.396962
	H72	H	0.910021	0.618908	0.083646
	H73	H	0.094884	0.393540	0.081706
	H74	H	0.092679	0.618353	0.895517
	H75	H	0.910476	0.395590	0.903015
	H76	H	0.089753	0.913776	0.602273
	H77	H	0.086940	0.100193	0.377054
	H78	H	0.914143	0.091826	0.600215
	H79	H	0.916567	0.916857	0.377607
	H80	H	0.615347	0.104068	0.903176
	H81	H	0.387060	0.098636	0.087984
	H82	H	0.612778	0.918472	0.076594
	H83	H	0.391443	0.918792	0.901813
	H84	H	0.616586	0.915294	0.081307
	H85	H	0.389377	0.105953	0.072345
	H86	H	0.610543	0.090856	0.904619
	H87	H	0.388676	0.917017	0.897810
	H88	H	0.916660	0.097554	0.601603
	H89	H	0.095031	0.100689	0.373966
	H90	H	0.092749	0.915464	0.603251
	H91	H	0.913509	0.916109	0.375732
	H92	H	0.088835	0.615817	0.900708
	H93	H	0.091612	0.394897	0.081304
	H94	H	0.912235	0.617614	0.079442
	H95	H	0.909333	0.393127	0.897678
	H96	H	0.406508	0.118602	0.575635
	H97	H	0.587648	0.897970	0.574637
	H98	H	0.587691	0.119197	0.391446
	H99	H	0.410728	0.894014	0.397020
	H100	H	0.588725	0.413400	0.101815
	H101	H	0.593703	0.598799	0.874180
	H102	H	0.410912	0.594335	0.102038
	H103	H	0.411452	0.416870	0.875117
	H104	H	0.115566	0.592601	0.393798
	H105	H	0.889298	0.598040	0.576376
	H106	H	0.113047	0.414713	0.575582
	H107	H	0.886642	0.416697	0.394853
	H108	H	0.907296	0.618321	0.079152
	H109	H	0.093701	0.394671	0.078486
	H110	H	0.095640	0.616484	0.901066
	H111	H	0.914632	0.395516	0.899256
	H112	H	0.090101	0.917333	0.601671
	H113	H	0.092105	0.092877	0.377713
	H114	H	0.910156	0.096526	0.602429
	H115	H	0.913487	0.919606	0.377989
	H116	H	0.616781	0.095429	0.892250
	H117	H	0.394108	0.089201	0.075045
	H118	H	0.615502	0.911821	0.075426
	H119	H	0.389080	0.914047	0.902022
	C120	C	0.379675	0.015258	0.611332
	C121	C	0.622537	0.998650	0.609723
	C122	C	0.623978	0.015356	0.366896
	C123	C	0.380760	0.998202	0.367416
	C124	C	0.622700	0.385205	-0.002752
	C125	C	0.623086	0.628063	0.980131
	C126	C	0.380808	0.628586	-0.002229
	C127	C	0.382055	0.385457	0.980508
	C128	C	0.010751	0.628054	0.368210
	C129	C	0.992993	0.627750	0.610025
	C130	C	0.009677	0.384777	0.610144
	C131	C	0.992872	0.385102	0.369018
	C132	C	0.879705	0.514651	0.111475
	C133	C	0.124299	0.497450	0.111406
	C134	C	0.123457	0.513831	0.867841
	C135	C	0.880289	0.498150	0.868388
	C136	C	0.122342	0.885385	0.497934
	C137	C	0.123000	0.128237	0.480416
	C138	C	0.881265	0.127567	0.497699
	C139	C	0.880804	0.885097	0.480603
	C140	C	0.510521	0.128553	0.867970
	C141	C	0.494484	0.128215	0.109689
	C142	C	0.510715	0.885055	0.109667
	C143	C	0.493734	0.885821	0.868368
	C144	C	0.378613	0.898278	0.671278
	C145	C	0.623093	0.116032	0.668011
	C146	C	0.626324	0.898581	0.307113
	C147	C	0.382680	0.116982	0.311208
	C148	C	0.682658	0.384203	0.878713
	C149	C	0.679853	0.626815	0.100078
	C150	C	0.322369	0.628332	0.878754
	C151	C	0.324267	0.385736	0.100377
	C152	C	0.892168	0.686599	0.366951
	C153	C	0.111274	0.686038	0.611826
	C154	C	0.892095	0.325586	0.612947
	C155	C	0.111153	0.326061	0.366887
	C156	C	0.891017	0.385208	0.668657
	C157	C	0.111771	0.627026	0.668216
	C158	C	0.891340	0.627045	0.311426
	C159	C	0.111894	0.385342	0.310737
	C160	C	0.379161	0.686840	0.878844
	C161	C	0.624256	0.686394	0.098969
	C162	C	0.625903	0.325794	0.878903
	C163	C	0.381102	0.327118	0.099855
	C164	C	0.685261	0.899307	0.364065
	C165	C	0.681844	0.115478	0.610724
	C166	C	0.320934	0.898122	0.612921
	C167	C	0.324217	0.116773	0.369062
	C168	C	0.879936	0.396799	0.169690
	C169	C	0.124552	0.614561	0.170260
	C170	C	0.123465	0.396258	0.809735
	C171	C	0.879649	0.615202	0.808856
	C172	C	0.180458	0.886299	0.378490
	C173	C	0.182606	0.129160	0.598711
	C174	C	0.821308	0.130099	0.379467
	C175	C	0.819863	0.882867	0.598352
	C176	C	0.393189	0.188983	0.864953
	C177	C	0.612762	0.186406	0.111299
	C178	C	0.392140	0.827360	0.111376
	C179	C	0.611832	0.826909	0.865740
	C180	C	0.391868	0.885948	0.167994
	C181	C	0.612995	0.127544	0.167855
	C182	C	0.392403	0.129951	0.809050
	C183	C	0.612597	0.886391	0.809926
	C184	C	0.877968	0.188485	0.379948
	C185	C	0.125449	0.187260	0.598519
	C186	C	0.124530	0.827265	0.379185
	C187	C	0.876821	0.824338	0.598087
	C188	C	0.181508	0.396143	0.867741
	C189	C	0.183473	0.614254	0.112793
	C190	C	0.821223	0.397259	0.112484
	C191	C	0.821437	0.615280	0.866820
	C192	C	0.403997	0.096938	0.586071
	C193	C	0.598153	0.917299	0.585158
	C194	C	0.598553	0.096502	0.392087
	C195	C	0.403793	0.915787	0.390417
	C196	C	0.597150	0.409465	0.079705
	C197	C	0.599239	0.604735	0.896919
	C198	C	0.405786	0.604484	0.080578
	C199	C	0.406293	0.409632	0.897726
	C200	C	0.093495	0.604506	0.392619
	C201	C	0.910594	0.603936	0.585536
	C202	C	0.091932	0.408693	0.585058
	C203	C	0.910522	0.409318	0.394205
	C204	C	0.903227	0.596737	0.087577
	C205	C	0.100311	0.415607	0.087260
	C206	C	0.099345	0.595681	0.892082
	C207	C	0.904522	0.416064	0.892956
	C208	C	0.097923	0.908919	0.580836
	C209	C	0.098382	0.104598	0.397638
	C210	C	0.906494	0.102478	0.580058
	C211	C	0.906998	0.910270	0.398443
	C212	C	0.592769	0.103920	0.892888
	C213	C	0.411712	0.104745	0.085320
	C214	C	0.593507	0.908398	0.084809
	C215	C	0.411220	0.909860	0.893421
	Zn216	Zn	0.501820	0.007235	0.739648
	Zn217	Zn	0.502503	0.006984	0.237864
	Zn218	Zn	0.750513	0.506179	-0.010594
	Zn219	Zn	0.253312	0.505904	-0.011166
	Zn220	Zn	0.001893	0.756617	0.489020
	Zn221	Zn	0.001514	0.256082	0.489668
	Zn222	Zn	0.001795	0.505764	0.738493
	Zn223	Zn	0.001251	0.506145	0.240412
	Zn224	Zn	0.501992	0.756587	-0.011334
	Zn225	Zn	0.502504	0.256731	-0.011090
	Zn226	Zn	0.752778	0.006996	0.488563
	Zn227	Zn	0.251071	0.006443	0.489124
	N228	N	0.413929	0.972392	0.670665
	N229	N	0.587275	0.042285	0.667753
	N230	N	0.588991	0.971801	0.308723
	N231	N	0.416806	0.042094	0.309679
	N232	N	0.680658	0.420485	0.953213
	N233	N	0.679359	0.591336	0.025013
	N234	N	0.323070	0.592738	0.953860
	N235	N	0.324550	0.421100	0.025093
	N236	N	0.967597	0.687596	0.401322
	N237	N	0.036143	0.686758	0.576486
	N238	N	0.967077	0.325042	0.577619
	N239	N	0.036062	0.325645	0.402349
	N240	N	0.965266	0.421305	0.667211
	N241	N	0.037119	0.591620	0.667456
	N242	N	0.966177	0.591604	0.311737
	N243	N	0.037312	0.421214	0.311904
	N244	N	0.414536	0.687305	0.954001
	N245	N	0.589715	0.687443	0.023352
	N246	N	0.589599	0.325945	0.953891
	N247	N	0.416004	0.326575	0.024297
	N248	N	0.684118	0.973075	0.400245
	N249	N	0.682035	0.041243	0.575470
	N250	N	0.321253	0.972014	0.576400
	N251	N	0.322602	0.041837	0.402917
	N252	N	0.915250	0.470975	0.169565
	N253	N	0.088594	0.540845	0.169821
	N254	N	0.088226	0.470610	0.809349
	N255	N	0.915660	0.541225	0.809691
	N256	N	0.179649	0.921702	0.453533
	N257	N	0.181215	0.093161	0.524150
	N258	N	0.823104	0.092933	0.453749
	N259	N	0.822249	0.920051	0.524146
	N260	N	0.468030	0.188538	0.900836
	N261	N	0.537869	0.186850	0.075740
	N262	N	0.467258	0.826477	0.076052
	N263	N	0.536744	0.826200	0.901055
	N264	N	0.466792	0.921242	0.167157
	N265	N	0.538277	0.092248	0.167131
	N266	N	0.466411	0.093124	0.810625
	N267	N	0.537872	0.922297	0.811163
	N268	N	0.914544	0.187169	0.454511
	N269	N	0.089204	0.187067	0.523766
	N270	N	0.089168	0.826449	0.454462
	N271	N	0.913980	0.825618	0.523706
	N272	N	0.181861	0.470457	0.902902
	N273	N	0.183512	0.540200	0.077100
	N274	N	0.820664	0.471566	0.077030
	N275	N	0.821535	0.541146	0.902848
	O276	O	-0.207452	0.933660	-0.074300
	H277	H	-0.206890	0.945222	-0.064370
	H278	H	-0.201719	0.958645	-0.068384
	O279	O	0.624899	0.461291	0.280329
	H280	H	0.633505	0.459985	0.291611
	H281	H	0.638536	0.477710	0.266477
	O282	O	0.971106	0.227408	0.767128
	H283	H	0.960460	0.246666	0.739613
	H284	H	0.948728	0.217200	0.760962
	O285	O	0.672840	0.357775	0.659472
	H286	H	0.653418	0.359120	0.637378
	H287	H	0.673312	0.362435	0.664707
	O288	O	0.438671	0.316988	0.437812
	H289	H	0.432781	0.319344	0.438696
	H290	H	0.440891	0.317176	0.435467
	O291	O	0.068697	0.148195	-0.023328
	H292	H	0.077672	0.154052	-0.024924
	H293	H	0.077547	0.142914	-0.039572
	O294	O	0.894038	0.071925	1.044948
	H295	H	0.903580	0.061214	1.055918
	H296	H	0.893787	0.065656	1.044985
	O297	O	0.223388	0.782891	0.763816
	H298	H	0.228067	0.756303	0.753303
	H299	H	0.222306	0.794945	0.772251
	O300	O	0.002261	0.005215	1.147265
	H301	H	0.027237	0.002342	1.137798
	H302	H	0.007269	-0.015129	1.150686
	O303	O	0.622767	0.504152	0.484705
	H304	H	0.618203	0.486801	0.482821
	H305	H	0.626261	0.505130	0.490278
	O306	O	0.297814	0.298644	0.691686
	H307	H	0.293080	0.298069	0.642795
	H308	H	0.293697	0.283171	0.704074
	O309	O	0.539666	0.290757	0.276750
	H310	H	0.541452	0.283936	0.270509
	H311	H	0.542945	0.290698	0.267323
	O312	O	0.513879	0.356756	0.674244
	H313	H	0.505873	0.349972	0.663331
	H314	H	0.509113	0.345941	0.681250
	O315	O	1.221283	0.786261	0.958426
	H316	H	1.222209	0.786315	0.946327
	H317	H	1.232734	0.768283	0.960849
	O318	O	0.284552	0.542438	0.274774
	H319	H	0.280164	0.565110	0.274956
	H320	H	0.274217	0.538544	0.261016
	O321	O	-0.029983	0.784497	1.209626
	H322	H	-0.047587	0.773621	1.218256
	H323	H	-0.036575	0.775314	1.221401
	O324	O	1.053011	1.055709	0.086216
	H325	H	1.053420	1.049060	0.073851
	H326	H	1.058721	1.067911	0.103074
	O327	O	-0.204052	0.215093	0.781424
	H328	H	-0.215834	0.222116	0.762624
	H329	H	-0.207966	0.205797	0.815183
	O330	O	0.665724	0.683591	0.306689
	H331	H	0.660624	0.664229	0.322577
	H332	H	0.651003	0.685737	0.328018
	O333	O	0.663622	0.402694	0.505947
	H334	H	0.658226	0.408419	0.505766
	H335	H	0.656360	0.408709	0.496378
	O336	O	0.790130	0.216868	-0.042823
	H337	H	0.788166	0.214553	-0.043631
	H338	H	0.795410	0.228661	-0.039282
	O339	O	0.713746	-0.274388	0.517832
	H340	H	0.727134	-0.263174	0.535892
	H341	H	0.713083	-0.267413	0.532066
	O342	O	0.042200	0.221841	0.204038
	H343	H	0.025118	0.220570	0.209977
	H344	H	0.019863	0.215767	0.216389
	O345	O	0.193472	0.806316	1.180944
	H346	H	0.172809	0.825647	1.163289
	H347	H	0.177215	0.821785	1.158939
	O348	O	-0.080674	0.031206	-0.233686
	H349	H	-0.070520	0.019315	-0.230810
	H350	H	-0.092929	0.039913	-0.249720
	O351	O	0.368094	0.544609	0.564736
	H352	H	0.377171	0.520935	0.580497
	H353	H	0.362476	0.543394	0.569044
	O354	O	-0.182126	0.188613	1.164957
	H355	H	-0.171143	0.157695	1.159249
	H356	H	-0.152907	0.190381	1.141734
	O357	O	0.413942	0.578022	0.674317
	H358	H	0.413229	0.583903	0.673772
	H359	H	0.400438	0.585334	0.672966
	O360	O	0.608720	0.631107	0.429251
	H361	H	0.605235	0.624974	0.415219
	H362	H	0.605349	0.626223	0.456194
	O363	O	-0.094235	0.056390	0.200362
	H364	H	-0.099110	0.033722	0.201937
	H365	H	-0.087760	0.028788	0.201035
	O366	O	0.678434	0.508178	0.379281
	H367	H	0.696697	0.516219	0.367951
	H368	H	0.675356	0.490083	0.380918
	O369	O	1.228956	0.229841	0.027999
	H370	H	1.253484	0.253048	0.045501
	H371	H	1.228494	0.234685	0.062984
	O372	O	0.884468	0.941076	0.100234
	H373	H	0.889517	0.933653	0.102342
	H374	H	0.877836	0.934594	0.118493
	O375	O	0.789624	-0.210448	0.203726
	H376	H	0.781911	-0.221219	0.165661
	H377	H	0.769297	-0.238407	0.229651
	O378	O	0.447635	0.446322	0.513463
	H379	H	0.455174	0.458367	0.510876
	H380	H	0.456146	0.436862	0.509733
	O381	O	0.193461	1.069972	0.923662
	H382	H	0.188403	1.078402	0.920435
	H383	H	0.200669	1.081962	0.922939
	O384	O	1.162523	0.005711	0.818048
	H385	H	1.171510	0.005275	0.812745
	H386	H	1.165855	0.004934	0.807626
	O387	O	1.175725	0.970161	0.102909
	H388	H	1.190190	0.983614	0.114101
	H389	H	1.179743	0.974763	0.057819
	O390	O	0.485662	0.528126	0.449229
	H391	H	0.488222	0.532672	0.436159
	H392	H	0.496108	0.536833	0.460897
	O393	O	0.790053	0.786976	1.023356
	H394	H	0.778167	0.795652	1.017039
	H395	H	0.776230	0.787797	1.013339
	O396	O	0.210524	1.216854	1.198054
	H397	H	0.222126	1.225634	1.221961
	H398	H	0.167284	1.228119	1.209628
	O399	O	-0.037912	0.235594	1.031613
	H400	H	-0.008165	0.236396	1.024008
	H401	H	-0.035751	0.232227	1.023587
	O402	O	0.600095	0.518484	0.609608
	H403	H	0.593109	0.522715	0.614879
	H404	H	0.603478	0.516206	0.614161
	O405	O	1.166966	0.019303	1.212927
	H406	H	1.179429	0.048560	1.209630
	H407	H	1.181013	0.031651	1.228861
	O408	O	0.117889	0.132553	-0.198001
	H409	H	0.117024	0.119926	-0.183730
	H410	H	0.111531	0.119358	-0.182469
	O411	O	0.353854	0.344571	0.591029
	H412	H	0.327998	0.330884	0.584622
	H413	H	0.350611	0.347988	0.582485
	O414	O	0.532833	0.732645	0.706813
	H415	H	0.552016	0.742822	0.722435
	H416	H	0.557385	0.734711	0.721861
	O417	O	0.443452	0.727422	0.553803
	H418	H	0.459429	0.728648	0.569767
	H419	H	0.449418	0.728523	0.552165
	O420	O	-0.167518	1.030352	0.872509
	H421	H	-0.168482	1.030219	0.861886
	H422	H	-0.167376	1.051459	0.876335
	O423	O	0.034033	-0.210309	0.773005
	H424	H	0.032646	-0.216263	0.782603
	H425	H	0.035126	-0.225049	0.754775
	O426	O	0.509343	0.494901	0.297621
	H427	H	0.522610	0.509617	0.299229
	H428	H	0.493889	0.507078	0.296443
	O429	O	0.832220	0.810045	0.816455
	H430	H	0.853822	0.821597	0.825276
	H431	H	0.838355	0.825922	0.839498
	O432	O	0.289571	0.721585	0.458354
	H433	H	0.280832	0.728617	0.456083
	H434	H	0.290801	0.732350	0.452786
	O435	O	-0.219301	1.025572	0.099702
	H436	H	-0.229086	1.029677	0.117272
	H437	H	-0.215492	1.019440	0.108094
	O438	O	0.071850	-0.033490	-0.206000
	H439	H	0.070232	-0.045223	-0.209058
	H440	H	0.075028	-0.033762	-0.212254
	O441	O	0.008730	0.066301	-0.180394
	H442	H	0.010667	0.059953	-0.172818
	H443	H	0.015511	0.072998	-0.182053
	O444	O	0.330445	0.486167	0.694372
	H445	H	0.304891	0.486081	0.712688
	H446	H	0.320122	0.472929	0.688085
	O447	O	0.067141	0.918532	0.917562
	H448	H	0.076835	0.907530	0.908806
	H449	H	0.055376	0.929901	0.916591
	O450	O	0.200766	1.015875	0.942112
	H451	H	0.188291	1.012312	0.935245
	H452	H	0.212207	1.028841	0.936288
	O453	O	0.707350	0.716587	0.696922
	H454	H	0.709369	0.677975	0.693388
	H455	H	0.739800	0.743662	0.720552
	O456	O	0.062042	-0.209920	1.028200
	H457	H	0.052780	-0.213416	1.023763
	H458	H	0.057816	-0.203721	1.021520
	O459	O	0.526032	0.426953	0.599030
	H460	H	0.511586	0.428207	0.595869
	H461	H	0.517872	0.417029	0.610403
	O462	O	0.713102	0.292526	0.314507
	H463	H	0.740477	0.264078	0.290040
	H464	H	0.691946	0.296781	0.316645
	O465	O	0.953704	-0.205522	-0.053338
	H466	H	0.945042	-0.206811	-0.041399
	H467	H	0.965419	-0.185465	-0.044101
	O468	O	0.548516	0.472696	0.506816
	H469	H	0.559296	0.478914	0.499713
	H470	H	0.549598	0.473421	0.523214
	O471	O	0.711796	0.476494	0.614693
	H472	H	0.696210	0.470838	0.607652
	H473	H	0.724059	0.474041	0.627219
	O474	O	0.312086	0.318428	0.311388
	H475	H	0.326348	0.343060	0.325824
	H476	H	0.326080	0.327426	0.319171
	O477	O	0.504397	0.357567	1.463580
	H478	H	0.510117	0.362631	1.461746
	H479	H	0.506569	0.358587	1.449400
	O480	O	0.356983	0.479371	0.382065
	H481	H	0.356860	0.499432	0.380252
	H482	H	0.368772	0.478411	0.375755
	O483	O	0.325109	0.625899	0.631406
	H484	H	0.334354	0.618372	0.621440
	H485	H	0.342660	0.625206	0.622590
	O486	O	1.298949	-0.287933	1.282465
	H487	H	1.265992	-0.257721	1.250877
	H488	H	1.304012	-0.303959	1.300514
	O489	O	1.476441	0.722776	0.276255
	H490	H	1.473774	0.743029	0.253403
	H491	H	1.448294	0.721056	0.286551
