data_Molecule from HDF5

_cell_length_a		16.270899
_cell_length_b		16.421728
_cell_length_c		16.258669
_cell_angle_alpha	89.918644
_cell_angle_beta	90.101312
_cell_angle_gamma	90.093831
_symmetry_space_group_name_H-M	'P 1'
_symmetry_Int_Tables_number		1

loop_
	_symmetry_equiv_pos_as_xyz
	x,y,z

loop_
	_atom_site_label
	_atom_site_type_symbol
	_atom_site_fract_x
	_atom_site_fract_y
	_atom_site_fract_z
	H0	H	0.399964	0.838920	0.699081
	H1	H	0.599767	0.163851	0.700519
	H2	H	0.598120	0.839315	0.268311
	H3	H	0.401806	0.163596	0.266883
	H4	H	0.713458	0.403500	0.820928
	H5	H	0.713222	0.598747	0.148483
	H6	H	0.285199	0.598279	0.820782
	H7	H	0.286552	0.403837	0.149327
	H8	H	0.837280	0.717422	0.382023
	H9	H	0.162741	0.716135	0.583945
	H10	H	0.836561	0.284619	0.584139
	H11	H	0.162370	0.284884	0.384023
	H12	H	0.835308	0.402119	0.698046
	H13	H	0.163096	0.597918	0.697280
	H14	H	0.836154	0.597624	0.270604
	H15	H	0.163735	0.404545	0.271540
	H16	H	0.399520	0.715937	0.820680
	H17	H	0.600374	0.717715	0.147068
	H18	H	0.599408	0.286057	0.821426
	H19	H	0.399321	0.284261	0.147050
	H20	H	0.714791	0.839483	0.384035
	H21	H	0.713581	0.164584	0.580833
	H22	H	0.285202	0.838698	0.580566
	H23	H	0.284063	0.164023	0.383742
	H24	H	0.899460	0.339223	0.200999
	H25	H	0.099115	0.663144	0.200216
	H26	H	0.098939	0.339065	0.768272
	H27	H	0.902610	0.664277	0.769773
	H28	H	0.211867	0.904239	0.319395
	H29	H	0.214106	0.099123	0.647833
	H30	H	0.785897	0.099397	0.320132
	H31	H	0.784797	0.903807	0.647676
	H32	H	0.336972	0.218466	0.881484
	H33	H	0.662122	0.217329	0.084680
	H34	H	0.336483	0.785266	0.083561
	H35	H	0.662128	0.785103	0.882864
	H36	H	0.335603	0.903973	0.195956
	H37	H	0.663511	0.098730	0.196784
	H38	H	0.335738	0.099089	0.769317
	H39	H	0.663457	0.904507	0.770321
	H40	H	0.899097	0.217120	0.321641
	H41	H	0.099521	0.216631	0.647474
	H42	H	0.099713	0.785096	0.321547
	H43	H	0.899608	0.785702	0.647717
	H44	H	0.214879	0.338642	0.886376
	H45	H	0.214247	0.663686	0.082517
	H46	H	0.782765	0.339018	0.084686
	H47	H	0.783974	0.663588	0.884907
	H48	H	0.411320	0.115040	0.576010
	H49	H	0.591008	0.891423	0.565733
	H50	H	0.590280	0.114323	0.395544
	H51	H	0.413878	0.891379	0.399008
	H52	H	0.589021	0.398994	0.102835
	H53	H	0.598234	0.590503	0.867184
	H54	H	0.409090	0.605095	0.103796
	H55	H	0.404385	0.406949	0.867219
	H56	H	0.116598	0.597079	0.394605
	H57	H	0.884803	0.592421	0.571851
	H58	H	0.114240	0.409852	0.573653
	H59	H	0.882760	0.401999	0.395302
	H60	H	0.115757	0.409727	0.578353
	H61	H	0.882275	0.592424	0.580469
	H62	H	0.114891	0.591336	0.393420
	H63	H	0.886281	0.412553	0.397765
	H64	H	0.398348	0.589976	0.102310
	H65	H	0.584876	0.590586	0.871134
	H66	H	0.600458	0.411534	0.102783
	H67	H	0.405790	0.411916	0.869126
	H68	H	0.598602	0.119004	0.389593
	H69	H	0.602771	0.882792	0.580950
	H70	H	0.404258	0.115994	0.572879
	H71	H	0.391280	0.882755	0.392208
	H72	H	0.902030	0.614447	0.069558
	H73	H	0.090602	0.386581	0.077919
	H74	H	0.081634	0.613129	0.890602
	H75	H	0.909774	0.385587	0.884089
	H76	H	0.091472	0.912352	0.598966
	H77	H	0.081447	0.095621	0.370604
	H78	H	0.900929	0.091160	0.601629
	H79	H	0.891027	0.912019	0.363801
	H80	H	0.614495	0.091605	0.893470
	H81	H	0.381189	0.093763	0.079904
	H82	H	0.616240	0.912185	0.081795
	H83	H	0.381687	0.903192	0.890179
	H84	H	0.618245	0.900612	0.075630
	H85	H	0.383660	0.098796	0.070392
	H86	H	0.617044	0.095020	0.888221
	H87	H	0.383761	0.908860	0.894561
	H88	H	0.912217	0.089340	0.597677
	H89	H	0.096824	0.101636	0.364072
	H90	H	0.088333	0.904127	0.600685
	H91	H	0.917645	0.919688	0.374543
	H92	H	0.098487	0.614750	0.899593
	H93	H	0.094010	0.386127	0.075588
	H94	H	0.902271	0.619278	0.084472
	H95	H	0.910290	0.389710	0.897860
	H96	H	0.405234	0.118459	0.580448
	H97	H	0.582524	0.887673	0.584674
	H98	H	0.588753	0.116695	0.384468
	H99	H	0.409865	0.883346	0.375598
	H100	H	0.583697	0.414850	0.096863
	H101	H	0.590532	0.602026	0.865818
	H102	H	0.415377	0.588807	0.096695
	H103	H	0.409777	0.407287	0.868698
	H104	H	0.117791	0.595422	0.389486
	H105	H	0.881154	0.599515	0.575893
	H106	H	0.116050	0.404909	0.575959
	H107	H	0.882087	0.410221	0.387009
	H108	H	0.915734	0.613640	0.078179
	H109	H	0.094248	0.384911	0.079913
	H110	H	0.097229	0.620163	0.881441
	H111	H	0.897693	0.384293	0.892693
	H112	H	0.096722	0.905627	0.602606
	H113	H	0.095336	0.085256	0.368984
	H114	H	0.909190	0.099530	0.602740
	H115	H	0.912829	0.892453	0.364886
	H116	H	0.615119	0.098109	0.894274
	H117	H	0.385502	0.088566	0.071221
	H118	H	0.613504	0.910946	0.068647
	H119	H	0.383028	0.910143	0.887331
	C120	C	0.378176	0.009431	0.605139
	C121	C	0.621362	0.994014	0.606027
	C122	C	0.621201	0.009756	0.361547
	C123	C	0.376947	0.993134	0.360446
	C124	C	0.620346	0.379909	-0.007143
	C125	C	0.620673	0.623060	0.975963
	C126	C	0.378206	0.622887	-0.007124
	C127	C	0.377797	0.379693	0.976327
	C128	C	0.008301	0.622750	0.363126
	C129	C	0.990993	0.622711	0.604881
	C130	C	0.007391	0.379200	0.605486
	C131	C	0.991337	0.379426	0.363501
	C132	C	0.877790	0.508994	0.106288
	C133	C	0.121407	0.492879	0.106329
	C134	C	0.121624	0.509059	0.862047
	C135	C	0.877040	0.493429	0.862187
	C136	C	0.120620	0.879584	0.492602
	C137	C	0.120664	0.123009	0.475664
	C138	C	0.878373	0.122443	0.492518
	C139	C	0.877881	0.879532	0.475728
	C140	C	0.507895	0.123270	0.862478
	C141	C	0.491252	0.122442	0.103771
	C142	C	0.507822	0.879557	0.104367
	C143	C	0.491195	0.879706	0.862328
	C144	C	0.380326	0.887422	0.660758
	C145	C	0.619828	0.115581	0.662095
	C146	C	0.618400	0.887521	0.306604
	C147	C	0.380432	0.115413	0.304943
	C148	C	0.675485	0.383060	0.869665
	C149	C	0.675857	0.620058	0.099331
	C150	C	0.323045	0.619490	0.869648
	C151	C	0.323772	0.382812	0.100123
	C152	C	0.885709	0.678591	0.363077
	C153	C	0.114060	0.677758	0.603580
	C154	C	0.885025	0.322943	0.604160
	C155	C	0.114102	0.323921	0.364839
	C156	C	0.884468	0.381470	0.660667
	C157	C	0.114325	0.619071	0.659734
	C158	C	0.885153	0.619099	0.307690
	C159	C	0.114608	0.383060	0.308821
	C160	C	0.379715	0.677819	0.869579
	C161	C	0.619328	0.678605	0.098777
	C162	C	0.618985	0.324669	0.869935
	C163	C	0.379612	0.323403	0.099021
	C164	C	0.676581	0.887810	0.364090
	C165	C	0.676840	0.115885	0.603006
	C166	C	0.322684	0.887239	0.602394
	C167	C	0.321976	0.115476	0.362877
	C168	C	0.879530	0.387344	0.162444
	C169	C	0.119161	0.614886	0.161777
	C170	C	0.119490	0.387440	0.806465
	C171	C	0.881032	0.615608	0.807357
	C172	C	0.174937	0.883268	0.368811
	C173	C	0.176412	0.120218	0.598784
	C174	C	0.823436	0.119822	0.369302
	C175	C	0.822557	0.882584	0.598873
	C176	C	0.385486	0.179564	0.862745
	C177	C	0.613667	0.178827	0.103927
	C178	C	0.385264	0.823532	0.103205
	C179	C	0.613900	0.824331	0.863957
	C180	C	0.384760	0.882682	0.159102
	C181	C	0.614393	0.119845	0.159442
	C182	C	0.384540	0.119944	0.807381
	C183	C	0.614472	0.883270	0.807720
	C184	C	0.879551	0.178500	0.370047
	C185	C	0.119272	0.178260	0.598764
	C186	C	0.118953	0.824203	0.369685
	C187	C	0.879406	0.823963	0.598809
	C188	C	0.177067	0.387210	0.865274
	C189	C	0.176726	0.615030	0.103812
	C190	C	0.821504	0.387230	0.104518
	C191	C	0.821972	0.615182	0.864449
	C192	C	0.400406	0.094492	0.582904
	C193	C	0.598723	0.909194	0.583704
	C194	C	0.598940	0.094673	0.383282
	C195	C	0.398450	0.907834	0.382526
	C196	C	0.597736	0.401967	0.078577
	C197	C	0.597995	0.600984	0.890119
	C198	C	0.401042	0.601062	0.078732
	C199	C	0.400030	0.402232	0.890489
	C200	C	0.094154	0.601083	0.385972
	C201	C	0.905025	0.601091	0.582610
	C202	C	0.093345	0.401565	0.582738
	C203	C	0.905888	0.401754	0.386399
	C204	C	0.900028	0.593939	0.084014
	C205	C	0.099415	0.407944	0.084196
	C206	C	0.099176	0.594117	0.884212
	C207	C	0.899366	0.408368	0.884713
	C208	C	0.098710	0.901227	0.578588
	C209	C	0.097759	0.100801	0.389931
	C210	C	0.901002	0.099925	0.578481
	C211	C	0.900514	0.901410	0.389817
	C212	C	0.593558	0.101351	0.885240
	C213	C	0.405625	0.100083	0.080797
	C214	C	0.593945	0.901440	0.081959
	C215	C	0.404997	0.901127	0.884369
	Zn216	Zn	0.499627	0.001841	0.734823
	Zn217	Zn	0.499900	0.001273	0.231895
	Zn218	Zn	0.748123	0.501260	-0.015213
	Zn219	Zn	0.250061	0.501448	-0.014757
	Zn220	Zn	-0.000549	0.751356	0.483978
	Zn221	Zn	-0.000679	0.250671	0.484276
	Zn222	Zn	-0.000908	0.501166	0.732857
	Zn223	Zn	0.000175	0.500922	0.235204
	Zn224	Zn	0.499448	0.751175	-0.016209
	Zn225	Zn	0.499132	0.251586	-0.015948
	Zn226	Zn	0.750326	0.001851	0.483558
	Zn227	Zn	0.248501	0.001479	0.483681
	N228	N	0.414291	0.964382	0.662423
	N229	N	0.586181	0.038739	0.664137
	N230	N	0.584807	0.964354	0.304543
	N231	N	0.413690	0.038402	0.303138
	N232	N	0.676519	0.416576	0.947061
	N233	N	0.676676	0.586185	0.022170
	N234	N	0.322110	0.585949	0.947217
	N235	N	0.322481	0.416862	0.022757
	N236	N	0.963254	0.680942	0.396863
	N237	N	0.036286	0.680023	0.570074
	N238	N	0.962400	0.321776	0.570410
	N239	N	0.036487	0.321619	0.398181
	N240	N	0.961747	0.415799	0.661612
	N241	N	0.036893	0.585435	0.660570
	N242	N	0.962430	0.585042	0.307555
	N243	N	0.037351	0.416728	0.307792
	N244	N	0.413291	0.680062	0.947153
	N245	N	0.585921	0.680794	0.020927
	N246	N	0.585210	0.322772	0.947444
	N247	N	0.412534	0.321458	0.021148
	N248	N	0.678458	0.964577	0.397508
	N249	N	0.677721	0.039391	0.568717
	N250	N	0.321332	0.963927	0.568467
	N251	N	0.319645	0.038525	0.396475
	N252	N	0.913867	0.463890	0.163552
	N253	N	0.085405	0.537891	0.163404
	N254	N	0.085555	0.464043	0.804571
	N255	N	0.914271	0.538736	0.805629
	N256	N	0.175974	0.917272	0.446178
	N257	N	0.177274	0.086425	0.521349
	N258	N	0.822712	0.085493	0.446571
	N259	N	0.821473	0.916290	0.521460
	N260	N	0.463095	0.181592	0.896503
	N261	N	0.536151	0.180588	0.069959
	N262	N	0.462987	0.821687	0.069834
	N263	N	0.536087	0.821811	0.897009
	N264	N	0.461984	0.916882	0.159658
	N265	N	0.537211	0.085458	0.159639
	N266	N	0.461631	0.085800	0.807103
	N267	N	0.537257	0.917141	0.806925
	N268	N	0.912982	0.180045	0.447707
	N269	N	0.085383	0.180008	0.521224
	N270	N	0.086102	0.821715	0.447594
	N271	N	0.913176	0.822117	0.521245
	N272	N	0.178435	0.463892	0.899236
	N273	N	0.178056	0.538498	0.069950
	N274	N	0.820259	0.463846	0.070294
	N275	N	0.819405	0.538158	0.897855
	O276	O	1.972540	0.051239	0.958175
	H277	H	1.963595	0.041724	0.962210
	H278	H	1.974561	0.058503	0.966903
	O279	O	0.007879	-0.003850	0.029759
	H280	H	0.012812	-0.001732	0.030027
	H281	H	0.006069	-0.005916	0.028584
	O282	O	0.033774	-0.002370	0.919422
	H283	H	0.041760	0.000002	0.920598
	H284	H	0.020548	0.000953	0.921952
	O285	O	0.496305	0.523397	0.602968
	H286	H	0.486240	0.526047	0.591984
	H287	H	0.486729	0.532638	0.605167
	O288	O	0.571296	0.524215	0.557060
	H289	H	0.580675	0.531692	0.566861
	H290	H	0.575640	0.517686	0.570677
	O291	O	0.083970	0.996874	0.985833
	H292	H	0.081930	1.017803	0.977208
	H293	H	0.090206	0.996625	0.978779
	O294	O	0.016837	0.029645	0.031373
	H295	H	0.011811	0.022876	0.033739
	H296	H	0.027107	0.031681	0.033035
	O297	O	-0.036848	-0.002180	1.062449
	H298	H	-0.044617	0.003297	1.067162
	H299	H	-0.029632	0.004240	1.053045
	O300	O	0.035618	1.050361	0.987021
	H301	H	0.032215	1.063947	0.991005
	H302	H	0.034665	1.046139	0.982268
	O303	O	0.571685	0.526439	0.568532
	H304	H	0.589968	0.527620	0.583487
	H305	H	0.571985	0.520219	0.573762
	O306	O	-0.042500	0.026234	0.982425
	H307	H	-0.054739	0.026293	0.985922
	H308	H	-0.035685	0.022446	0.990394
	O309	O	1.005687	1.053966	1.064918
	H310	H	1.010373	1.063283	1.070157
	H311	H	1.005235	1.039261	1.068664
	O312	O	0.492956	0.565917	0.551034
	H313	H	0.498215	0.566233	0.537944
	H314	H	0.498943	0.567389	0.554345
	O315	O	0.529630	0.547292	0.582966
	H316	H	0.520631	0.541710	0.580521
	H317	H	0.515933	0.544954	0.583451
	O318	O	0.020823	1.020743	0.058959
	H319	H	0.027325	1.015257	0.061105
	H320	H	0.027264	1.012135	0.060591
	O321	O	0.983730	1.042363	-0.064780
	H322	H	0.979769	1.039033	-0.059373
	H323	H	0.982379	1.046497	-0.070621
