data_Molecule from HDF5

_cell_length_a		16.233109
_cell_length_b		16.298899
_cell_length_c		16.344183
_cell_angle_alpha	89.898070
_cell_angle_beta	89.920269
_cell_angle_gamma	89.887273
_symmetry_space_group_name_H-M	'P 1'
_symmetry_Int_Tables_number		1

loop_
	_symmetry_equiv_pos_as_xyz
	x,y,z

loop_
	_atom_site_label
	_atom_site_type_symbol
	_atom_site_fract_x
	_atom_site_fract_y
	_atom_site_fract_z
	H0	H	0.405074	0.837007	0.709285
	H1	H	0.605547	0.163116	0.705851
	H2	H	0.606590	0.836946	0.275596
	H3	H	0.406804	0.163547	0.275210
	H4	H	0.723024	0.402117	0.829724
	H5	H	0.721741	0.599424	0.154862
	H6	H	0.291953	0.598873	0.829109
	H7	H	0.293632	0.402543	0.156268
	H8	H	0.843095	0.715511	0.393531
	H9	H	0.171115	0.713096	0.590928
	H10	H	0.842641	0.284272	0.591975
	H11	H	0.171298	0.284808	0.394396
	H12	H	0.842587	0.398797	0.707807
	H13	H	0.170030	0.598007	0.706397
	H14	H	0.842565	0.598390	0.278700
	H15	H	0.170259	0.399094	0.276492
	H16	H	0.405762	0.716473	0.828808
	H17	H	0.606104	0.716301	0.154183
	H18	H	0.608153	0.283857	0.829692
	H19	H	0.407637	0.284081	0.155100
	H20	H	0.721793	0.836523	0.392730
	H21	H	0.720447	0.163762	0.588533
	H22	H	0.293741	0.835169	0.589289
	H23	H	0.291863	0.163765	0.393839
	H24	H	0.907723	0.337144	0.207788
	H25	H	0.106881	0.663189	0.208706
	H26	H	0.106834	0.336263	0.776303
	H27	H	0.905933	0.662632	0.774355
	H28	H	0.220789	0.902738	0.327809
	H29	H	0.220888	0.096658	0.655665
	H30	H	0.793216	0.098040	0.328198
	H31	H	0.790494	0.900243	0.654166
	H32	H	0.343295	0.215739	0.892894
	H33	H	0.671005	0.212047	0.089188
	H34	H	0.342240	0.786171	0.089647
	H35	H	0.670361	0.784507	0.892114
	H36	H	0.343054	0.900361	0.207807
	H37	H	0.670826	0.098515	0.204888
	H38	H	0.342996	0.099933	0.777063
	H39	H	0.671299	0.900571	0.776811
	H40	H	0.907407	0.216098	0.329605
	H41	H	0.105557	0.213073	0.655814
	H42	H	0.107441	0.783594	0.328807
	H43	H	0.907488	0.785057	0.655008
	H44	H	0.221566	0.335595	0.895003
	H45	H	0.219344	0.665200	0.088349
	H46	H	0.792225	0.336804	0.091092
	H47	H	0.793026	0.664368	0.894147
	H48	H	0.412495	0.116966	0.587355
	H49	H	0.593652	0.885886	0.584296
	H50	H	0.585508	0.113157	0.394093
	H51	H	0.418317	0.884359	0.394748
	H52	H	0.598421	0.416411	0.104889
	H53	H	0.593099	0.588655	0.879498
	H54	H	0.413381	0.604588	0.111140
	H55	H	0.419125	0.408687	0.878523
	H56	H	0.122597	0.589369	0.399641
	H57	H	0.893864	0.584502	0.579139
	H58	H	0.121239	0.404140	0.577314
	H59	H	0.887314	0.400654	0.396820
	H60	H	0.121291	0.413540	0.587841
	H61	H	0.887638	0.591626	0.593898
	H62	H	0.124592	0.592618	0.397083
	H63	H	0.892492	0.406947	0.407932
	H64	H	0.405135	0.586547	0.108065
	H65	H	0.598169	0.600913	0.873858
	H66	H	0.591305	0.400450	0.107139
	H67	H	0.414867	0.403964	0.875489
	H68	H	0.604211	0.113440	0.410683
	H69	H	0.602593	0.883904	0.580281
	H70	H	0.417728	0.114165	0.584784
	H71	H	0.415536	0.885750	0.402140
	H72	H	0.909541	0.617431	0.085464
	H73	H	0.110369	0.384356	0.073614
	H74	H	0.097998	0.615956	0.895296
	H75	H	0.919722	0.382134	0.886233
	H76	H	0.097846	0.899977	0.609046
	H77	H	0.101629	0.089194	0.377602
	H78	H	0.907702	0.095123	0.610320
	H79	H	0.921164	0.906560	0.377593
	H80	H	0.624898	0.087465	0.888820
	H81	H	0.388643	0.088006	0.091567
	H82	H	0.620670	0.908614	0.078766
	H83	H	0.390514	0.910895	0.894271
	H84	H	0.622584	0.911698	0.087389
	H85	H	0.388272	0.100817	0.081673
	H86	H	0.626088	0.102170	0.899256
	H87	H	0.389533	0.903459	0.900980
	H88	H	0.913360	0.086068	0.605591
	H89	H	0.095598	0.092946	0.377695
	H90	H	0.106090	0.907161	0.608109
	H91	H	0.911818	0.901632	0.373113
	H92	H	0.096996	0.614202	0.899600
	H93	H	0.105575	0.378541	0.100219
	H94	H	0.916483	0.617050	0.089681
	H95	H	0.924489	0.389860	0.910025
	H96	H	0.411899	0.115298	0.581703
	H97	H	0.601207	0.881520	0.589887
	H98	H	0.607571	0.122283	0.387451
	H99	H	0.411164	0.882516	0.396453
	H100	H	0.608205	0.403375	0.112037
	H101	H	0.607426	0.589355	0.875070
	H102	H	0.424418	0.589333	0.102989
	H103	H	0.412003	0.410073	0.876991
	H104	H	0.122861	0.592830	0.402029
	H105	H	0.888844	0.601802	0.579502
	H106	H	0.126365	0.400537	0.589604
	H107	H	0.891213	0.413967	0.395495
	H108	H	0.916696	0.614740	0.081644
	H109	H	0.085348	0.389419	0.083548
	H110	H	0.101652	0.616493	0.898254
	H111	H	0.901470	0.381989	0.903435
	H112	H	0.096119	0.910568	0.604814
	H113	H	0.101944	0.095896	0.374889
	H114	H	0.918983	0.095692	0.607557
	H115	H	0.911249	0.912325	0.376219
	H116	H	0.619598	0.086556	0.905809
	H117	H	0.393615	0.087052	0.076799
	H118	H	0.625027	0.902872	0.084813
	H119	H	0.393016	0.911947	0.903713
	C120	C	0.385062	0.007645	0.613658
	C121	C	0.628155	0.991844	0.612857
	C122	C	0.628376	0.008500	0.368739
	C123	C	0.385347	0.991846	0.368977
	C124	C	0.628980	0.378079	0.000813
	C125	C	0.628504	0.622191	0.983644
	C126	C	0.384988	0.622327	-0.000174
	C127	C	0.385395	0.378237	0.984332
	C128	C	0.015073	0.620988	0.371108
	C129	C	0.998517	0.620606	0.612628
	C130	C	0.014549	0.377380	0.613677
	C131	C	0.998597	0.377882	0.371095
	C132	C	0.885307	0.508627	0.114004
	C133	C	0.128575	0.492513	0.114064
	C134	C	0.128228	0.507632	0.870096
	C135	C	0.885238	0.491830	0.870243
	C136	C	0.129155	0.877081	0.499739
	C137	C	0.128410	0.120974	0.484410
	C138	C	0.885005	0.121128	0.500169
	C139	C	0.885594	0.878227	0.483272
	C140	C	0.515403	0.121805	0.869609
	C141	C	0.498504	0.120547	0.112166
	C142	C	0.514919	0.878656	0.112762
	C143	C	0.498680	0.878580	0.870119
	C144	C	0.385996	0.885266	0.670198
	C145	C	0.626111	0.114521	0.668004
	C146	C	0.626603	0.885694	0.313647
	C147	C	0.386704	0.114900	0.313593
	C148	C	0.684893	0.381016	0.878294
	C149	C	0.683895	0.619995	0.106124
	C150	C	0.329366	0.619725	0.877710
	C151	C	0.330627	0.381455	0.107123
	C152	C	0.891834	0.677239	0.373315
	C153	C	0.121656	0.675645	0.610892
	C154	C	0.891454	0.322407	0.611681
	C155	C	0.122124	0.322342	0.373498
	C156	C	0.891556	0.379256	0.669563
	C157	C	0.121658	0.617956	0.668059
	C158	C	0.891577	0.619304	0.316119
	C159	C	0.121738	0.379423	0.315227
	C160	C	0.386297	0.678065	0.877492
	C161	C	0.626269	0.677912	0.105813
	C162	C	0.627779	0.322503	0.878264
	C163	C	0.387540	0.322680	0.106811
	C164	C	0.683720	0.885329	0.372055
	C165	C	0.683044	0.114747	0.609464
	C166	C	0.330229	0.884554	0.610794
	C167	C	0.329885	0.115060	0.372641
	C168	C	0.887173	0.385817	0.169701
	C169	C	0.126550	0.614968	0.169648
	C170	C	0.126604	0.384765	0.815093
	C171	C	0.886309	0.614447	0.813618
	C172	C	0.183831	0.881074	0.376836
	C173	C	0.183311	0.117499	0.606932
	C174	C	0.830347	0.119018	0.377264
	C175	C	0.829581	0.880497	0.605915
	C176	C	0.392261	0.177820	0.872384
	C177	C	0.621858	0.175372	0.109845
	C178	C	0.391223	0.823705	0.110527
	C179	C	0.621779	0.822943	0.872131
	C180	C	0.391641	0.880462	0.168941
	C181	C	0.621629	0.118702	0.167405
	C182	C	0.392099	0.120133	0.814856
	C183	C	0.622142	0.880230	0.814649
	C184	C	0.887281	0.177338	0.377938
	C185	C	0.125945	0.175496	0.606999
	C186	C	0.127149	0.822097	0.377263
	C187	C	0.887472	0.822941	0.606135
	C188	C	0.183743	0.384606	0.873884
	C189	C	0.182693	0.615749	0.110187
	C190	C	0.830057	0.385636	0.111412
	C191	C	0.830064	0.615122	0.872751
	C192	C	0.407595	0.093355	0.591397
	C193	C	0.605686	0.905863	0.591091
	C194	C	0.605559	0.094267	0.390969
	C195	C	0.408357	0.906484	0.391219
	C196	C	0.606018	0.400067	0.085796
	C197	C	0.606017	0.599655	0.898126
	C198	C	0.407600	0.599975	0.085416
	C199	C	0.408417	0.400824	0.899181
	C200	C	0.101068	0.598223	0.393174
	C201	C	0.912348	0.598946	0.590730
	C202	C	0.100501	0.399548	0.591636
	C203	C	0.912713	0.400605	0.393353
	C204	C	0.907673	0.594291	0.091965
	C205	C	0.106723	0.406341	0.092327
	C206	C	0.105546	0.593345	0.891461
	C207	C	0.908427	0.406630	0.893109
	C208	C	0.106698	0.899351	0.585247
	C209	C	0.106167	0.099280	0.398924
	C210	C	0.906886	0.098834	0.585626
	C211	C	0.908098	0.900274	0.397839
	C212	C	0.601438	0.098840	0.891418
	C213	C	0.412432	0.098198	0.089885
	C214	C	0.600451	0.900920	0.090036
	C215	C	0.413124	0.902073	0.892760
	Zn216	Zn	0.506611	-0.000347	0.742042
	Zn217	Zn	0.506727	0.000606	0.240352
	Zn218	Zn	0.756926	0.500775	-0.007754
	Zn219	Zn	0.257074	0.500582	-0.008070
	Zn220	Zn	0.006779	0.749267	0.491923
	Zn221	Zn	0.006699	0.249525	0.492504
	Zn222	Zn	0.006288	0.499445	0.741079
	Zn223	Zn	0.006857	0.499759	0.242792
	Zn224	Zn	0.506498	0.750711	-0.008830
	Zn225	Zn	0.507043	0.249051	-0.007832
	Zn226	Zn	0.756557	-0.000408	0.491016
	Zn227	Zn	0.257399	-0.000285	0.492215
	N228	N	0.419356	0.962844	0.672134
	N229	N	0.592637	0.037027	0.670282
	N230	N	0.592824	0.963231	0.311779
	N231	N	0.420137	0.037364	0.311167
	N232	N	0.685832	0.414745	0.955190
	N233	N	0.684920	0.585835	0.029347
	N234	N	0.328567	0.586030	0.954776
	N235	N	0.329371	0.415412	0.030015
	N236	N	0.969657	0.678548	0.406451
	N237	N	0.044133	0.677267	0.577224
	N238	N	0.969081	0.321078	0.577724
	N239	N	0.044662	0.321301	0.407586
	N240	N	0.969175	0.412627	0.671212
	N241	N	0.043936	0.584395	0.669502
	N242	N	0.969086	0.584975	0.314535
	N243	N	0.044025	0.413264	0.313637
	N244	N	0.420276	0.679760	0.954680
	N245	N	0.592480	0.679296	0.028513
	N246	N	0.593642	0.320455	0.955425
	N247	N	0.420902	0.320523	0.029410
	N248	N	0.685054	0.962645	0.405569
	N249	N	0.684443	0.037264	0.576114
	N250	N	0.329553	0.961680	0.576439
	N251	N	0.328536	0.037470	0.406266
	N252	N	0.920919	0.463120	0.171371
	N253	N	0.093778	0.537198	0.172254
	N254	N	0.092855	0.462269	0.812538
	N255	N	0.919931	0.536860	0.811802
	N256	N	0.185389	0.914368	0.454181
	N257	N	0.184869	0.084250	0.529661
	N258	N	0.828728	0.084699	0.454188
	N259	N	0.828231	0.914269	0.528682
	N260	N	0.470109	0.179104	0.905482
	N261	N	0.544301	0.176592	0.076009
	N262	N	0.468687	0.822411	0.076271
	N263	N	0.544036	0.821652	0.905655
	N264	N	0.469367	0.913794	0.170656
	N265	N	0.543922	0.085192	0.168630
	N266	N	0.469653	0.085857	0.813283
	N267	N	0.544430	0.914201	0.813198
	N268	N	0.920607	0.178760	0.455259
	N269	N	0.092393	0.177544	0.529728
	N270	N	0.093884	0.819673	0.454668
	N271	N	0.921498	0.821327	0.528960
	N272	N	0.184800	0.462015	0.907279
	N273	N	0.184079	0.538496	0.076427
	N274	N	0.829003	0.462910	0.077386
	N275	N	0.829361	0.538096	0.907402
	O276	O	1.003533	0.978381	0.005783
	H277	H	0.999543	0.991134	0.005370
	H278	H	1.012579	0.971187	0.009262
	O279	O	0.035503	0.085082	1.012272
	H280	H	0.032777	0.091640	1.012506
	H281	H	0.029737	0.083105	1.007714
	O282	O	-0.033061	0.066543	0.037330
	H283	H	-0.033366	0.070869	0.042627
	H284	H	-0.038160	0.065899	0.035156
	O285	O	0.454892	0.514723	0.436701
	H286	H	0.453359	0.511504	0.442091
	H287	H	0.454740	0.522397	0.441278
	O288	O	0.080846	0.073878	-0.054076
	H289	H	0.075693	0.077913	-0.051856
	H290	H	0.087684	0.069810	-0.056591
	O291	O	0.073835	0.941243	-0.052371
	H292	H	0.080470	0.935016	-0.061801
	H293	H	0.076392	0.935507	-0.050221
	O294	O	-0.017718	1.008537	-0.072086
	H295	H	-0.018694	1.006921	-0.065757
	H296	H	-0.023487	1.011061	-0.074100
	O297	O	0.421212	0.546241	0.509509
	H298	H	0.412905	0.550080	0.505079
	H299	H	0.422635	0.554046	0.502169
	O300	O	0.511064	0.485568	0.540761
	H301	H	0.508047	0.485407	0.542778
	H302	H	0.522663	0.483507	0.541248
	O303	O	0.991269	-0.005349	1.040431
	H304	H	0.992150	-0.005041	1.038038
	H305	H	0.999003	-0.008143	1.048438
	O306	O	0.036778	1.028341	0.966777
	H307	H	0.020936	1.039227	0.971111
	H308	H	0.029304	1.033949	0.965739
	O309	O	0.010841	0.986396	0.982014
	H310	H	0.016426	0.988040	0.977373
	H311	H	0.018569	0.985885	0.987460
	O312	O	-0.031058	-0.043483	0.983931
	H313	H	-0.032599	-0.034056	0.982024
	H314	H	-0.038995	-0.035499	0.986257
	O315	O	0.501467	0.528379	0.460933
	H316	H	0.496738	0.528897	0.465498
	H317	H	0.493106	0.527880	0.455481
	O318	O	-0.035240	-0.014244	0.923420
	H319	H	-0.037507	-0.011595	0.922458
	H320	H	-0.027992	-0.015702	0.914310
	O321	O	0.521815	0.525322	0.524931
	H322	H	0.515730	0.529253	0.518547
	H323	H	0.523538	0.529973	0.523839
	O324	O	1.085467	-0.041029	1.005070
	H325	H	1.088491	-0.035462	0.996080
	H326	H	1.083447	-0.046119	1.004401
	O327	O	0.970187	1.000076	1.049896
	H328	H	0.965963	1.000541	1.054775
	H329	H	0.971071	0.991466	1.057702
	O330	O	0.452328	0.507002	0.502845
	H331	H	0.450314	0.506807	0.502027
	H332	H	0.448601	0.506364	0.501750
	O333	O	0.117429	0.015696	0.952526
	H334	H	0.116374	0.016213	0.954151
	H335	H	0.123173	0.004442	0.957081
	O336	O	0.473061	0.515085	0.519805
	H337	H	0.466549	0.515292	0.522167
	H338	H	0.473739	0.511166	0.522645
	O339	O	0.402393	0.497560	0.473353
	H340	H	0.404435	0.498628	0.487491
	H341	H	0.405562	0.499368	0.474640
	O342	O	0.448192	0.483150	0.539832
	H343	H	0.450457	0.480782	0.534018
	H344	H	0.441728	0.481944	0.536761
	O345	O	0.519269	0.501752	0.548299
	H346	H	0.529417	0.503196	0.548103
	H347	H	0.513649	0.505351	0.549910
