data_Molecule from HDF5

_cell_length_a		16.350983
_cell_length_b		16.318136
_cell_length_c		16.311349
_cell_angle_alpha	90.020350
_cell_angle_beta	89.952701
_cell_angle_gamma	89.841745
_symmetry_space_group_name_H-M	'P 1'
_symmetry_Int_Tables_number		1

loop_
	_symmetry_equiv_pos_as_xyz
	x,y,z

loop_
	_atom_site_label
	_atom_site_type_symbol
	_atom_site_fract_x
	_atom_site_fract_y
	_atom_site_fract_z
	H0	H	0.404778	0.836922	0.718356
	H1	H	0.599262	0.164312	0.717125
	H2	H	0.600558	0.837213	0.289905
	H3	H	0.402162	0.163992	0.287710
	H4	H	0.719265	0.401335	0.841278
	H5	H	0.717044	0.599610	0.167303
	H6	H	0.286657	0.600314	0.840760
	H7	H	0.288618	0.403035	0.167492
	H8	H	0.839497	0.715913	0.406428
	H9	H	0.166445	0.714021	0.601332
	H10	H	0.839644	0.286440	0.602655
	H11	H	0.166478	0.286166	0.405668
	H12	H	0.839556	0.403176	0.719170
	H13	H	0.165868	0.598925	0.719376
	H14	H	0.839213	0.600375	0.289449
	H15	H	0.165683	0.403170	0.290072
	H16	H	0.404161	0.715909	0.840187
	H17	H	0.600241	0.715299	0.167114
	H18	H	0.602444	0.285363	0.840871
	H19	H	0.404377	0.286389	0.166851
	H20	H	0.718711	0.838401	0.404003
	H21	H	0.716796	0.164112	0.601878
	H22	H	0.288246	0.837035	0.601656
	H23	H	0.286483	0.163330	0.404331
	H24	H	0.905031	0.337328	0.219137
	H25	H	0.099757	0.664648	0.218614
	H26	H	0.101445	0.337521	0.788978
	H27	H	0.903386	0.664713	0.790354
	H28	H	0.218301	0.900670	0.340624
	H29	H	0.217739	0.099911	0.666564
	H30	H	0.787347	0.100361	0.340096
	H31	H	0.787330	0.903804	0.666754
	H32	H	0.339991	0.216555	0.903931
	H33	H	0.665570	0.215392	0.100952
	H34	H	0.339476	0.787776	0.100760
	H35	H	0.666606	0.785976	0.904212
	H36	H	0.339434	0.903796	0.217263
	H37	H	0.665381	0.098866	0.218669
	H38	H	0.339621	0.099056	0.788862
	H39	H	0.665439	0.901171	0.786858
	H40	H	0.903794	0.216378	0.340114
	H41	H	0.099765	0.215265	0.667092
	H42	H	0.101077	0.785541	0.341152
	H43	H	0.903257	0.786496	0.667455
	H44	H	0.218843	0.337762	0.904821
	H45	H	0.216081	0.664228	0.102413
	H46	H	0.787385	0.337504	0.104424
	H47	H	0.786726	0.663693	0.906368
	H48	H	0.407335	0.117405	0.596932
	H49	H	0.603723	0.881533	0.596793
	H50	H	0.589977	0.118337	0.399798
	H51	H	0.409573	0.886015	0.414236
	H52	H	0.590266	0.403418	0.119703
	H53	H	0.590359	0.592135	0.890210
	H54	H	0.411961	0.592716	0.118350
	H55	H	0.412000	0.407370	0.888016
	H56	H	0.116758	0.591394	0.413441
	H57	H	0.890746	0.590482	0.591115
	H58	H	0.117441	0.410826	0.598924
	H59	H	0.883943	0.399138	0.411600
	H60	H	0.120035	0.404476	0.599816
	H61	H	0.885865	0.590289	0.605475
	H62	H	0.118573	0.592257	0.408877
	H63	H	0.891321	0.412077	0.421000
	H64	H	0.409170	0.600119	0.121469
	H65	H	0.597076	0.599169	0.885005
	H66	H	0.601357	0.406719	0.122291
	H67	H	0.407090	0.408725	0.887350
	H68	H	0.588671	0.112788	0.419111
	H69	H	0.589474	0.884866	0.601903
	H70	H	0.410707	0.116210	0.598241
	H71	H	0.406290	0.883502	0.408259
	H72	H	0.909681	0.616365	0.096590
	H73	H	0.093868	0.385660	0.097569
	H74	H	0.097639	0.614364	0.920629
	H75	H	0.913187	0.386233	0.913114
	H76	H	0.099201	0.913305	0.619815
	H77	H	0.094309	0.097214	0.386600
	H78	H	0.903906	0.094540	0.620844
	H79	H	0.919270	0.919551	0.394514
	H80	H	0.618669	0.089918	0.906229
	H81	H	0.388161	0.089696	0.097108
	H82	H	0.620271	0.908987	0.105040
	H83	H	0.387664	0.916590	0.902352
	H84	H	0.620863	0.899307	0.094524
	H85	H	0.385182	0.097058	0.099334
	H86	H	0.619726	0.098353	0.909569
	H87	H	0.383851	0.896043	0.907800
	H88	H	0.910148	0.090444	0.617953
	H89	H	0.098317	0.091752	0.387449
	H90	H	0.089186	0.909750	0.616790
	H91	H	0.915971	0.892961	0.385356
	H92	H	0.100758	0.619900	0.906151
	H93	H	0.099358	0.385351	0.095142
	H94	H	0.908570	0.616646	0.097099
	H95	H	0.908186	0.385524	0.913994
	H96	H	0.409716	0.115581	0.594683
	H97	H	0.593147	0.888937	0.587140
	H98	H	0.606472	0.119800	0.411830
	H99	H	0.413558	0.885434	0.408095
	H100	H	0.593798	0.414253	0.117195
	H101	H	0.600524	0.589375	0.888141
	H102	H	0.403953	0.593551	0.120376
	H103	H	0.410418	0.412144	0.888466
	H104	H	0.117998	0.595777	0.411905
	H105	H	0.884538	0.603042	0.597875
	H106	H	0.116767	0.406694	0.593325
	H107	H	0.886954	0.414596	0.403848
	H108	H	0.909985	0.616444	0.097864
	H109	H	0.098115	0.383630	0.101299
	H110	H	0.086202	0.614601	0.909146
	H111	H	0.910400	0.384490	0.908965
	H112	H	0.096312	0.902841	0.621528
	H113	H	0.091529	0.091515	0.389714
	H114	H	0.911077	0.098053	0.620132
	H115	H	0.894024	0.911204	0.384034
	H116	H	0.615980	0.091938	0.914575
	H117	H	0.387123	0.095562	0.091612
	H118	H	0.615750	0.912527	0.092146
	H119	H	0.391602	0.909603	0.922395
	C120	C	0.380542	0.008755	0.625258
	C121	C	0.623594	0.992734	0.624346
	C122	C	0.623736	0.009143	0.381857
	C123	C	0.380845	0.992577	0.381796
	C124	C	0.624395	0.379190	0.012123
	C125	C	0.623800	0.621934	0.995732
	C126	C	0.380274	0.623343	0.011932
	C127	C	0.381653	0.380792	0.995789
	C128	C	0.010160	0.622255	0.382835
	C129	C	0.994919	0.622765	0.626465
	C130	C	0.010348	0.379275	0.625604
	C131	C	0.994688	0.379156	0.382969
	C132	C	0.880988	0.508855	0.126129
	C133	C	0.124417	0.492921	0.126324
	C134	C	0.124113	0.508501	0.883097
	C135	C	0.881576	0.492994	0.883564
	C136	C	0.124070	0.879400	0.511938
	C137	C	0.123343	0.122002	0.495797
	C138	C	0.880177	0.123235	0.511666
	C139	C	0.880813	0.879653	0.495562
	C140	C	0.510680	0.122583	0.881628
	C141	C	0.494386	0.122315	0.124833
	C142	C	0.511227	0.879152	0.125163
	C143	C	0.495445	0.878927	0.881969
	C144	C	0.383886	0.885542	0.679995
	C145	C	0.620477	0.115467	0.679660
	C146	C	0.621432	0.886139	0.327230
	C147	C	0.382691	0.115193	0.326191
	C148	C	0.680892	0.381173	0.889869
	C149	C	0.678874	0.619789	0.118689
	C150	C	0.324731	0.620937	0.889322
	C151	C	0.326515	0.382768	0.118693
	C152	C	0.887950	0.677850	0.385477
	C153	C	0.117276	0.677117	0.622699
	C154	C	0.888094	0.324497	0.623149
	C155	C	0.117427	0.323449	0.384972
	C156	C	0.888069	0.382348	0.681094
	C157	C	0.117348	0.619689	0.681115
	C158	C	0.887817	0.620166	0.327664
	C159	C	0.117198	0.381881	0.327703
	C160	C	0.383496	0.678053	0.888876
	C161	C	0.620730	0.677151	0.118634
	C162	C	0.622735	0.323844	0.889288
	C163	C	0.384063	0.324932	0.118351
	C164	C	0.679808	0.886635	0.384083
	C165	C	0.678393	0.115463	0.622053
	C166	C	0.325759	0.885816	0.622556
	C167	C	0.325178	0.115114	0.383949
	C168	C	0.884177	0.386013	0.181214
	C169	C	0.120540	0.615826	0.180705
	C170	C	0.122105	0.386211	0.827182
	C171	C	0.883263	0.615852	0.828322
	C172	C	0.179490	0.881253	0.389188
	C173	C	0.178861	0.119835	0.618141
	C174	C	0.825743	0.120372	0.388623
	C175	C	0.825263	0.882762	0.618227
	C176	C	0.388461	0.178359	0.883803
	C177	C	0.616930	0.177601	0.122387
	C178	C	0.388099	0.825120	0.121444
	C179	C	0.617677	0.823658	0.883687
	C180	C	0.388080	0.882924	0.179358
	C181	C	0.616977	0.119352	0.180357
	C182	C	0.388270	0.119926	0.826607
	C183	C	0.617209	0.880884	0.825495
	C184	C	0.883322	0.178224	0.388799
	C185	C	0.120310	0.177001	0.618623
	C186	C	0.121623	0.823684	0.389453
	C187	C	0.882850	0.824546	0.618586
	C188	C	0.180078	0.386211	0.884968
	C189	C	0.178713	0.615672	0.123595
	C190	C	0.825959	0.385933	0.123860
	C191	C	0.825346	0.615643	0.885861
	C192	C	0.402611	0.094273	0.603122
	C193	C	0.601708	0.907166	0.601939
	C194	C	0.601584	0.094753	0.403918
	C195	C	0.403180	0.907081	0.403942
	C196	C	0.601826	0.401650	0.097533
	C197	C	0.602294	0.599974	0.909931
	C198	C	0.401899	0.601831	0.097817
	C199	C	0.403560	0.402910	0.909969
	C200	C	0.095703	0.599757	0.404847
	C201	C	0.909163	0.600897	0.604678
	C202	C	0.096119	0.400932	0.603714
	C203	C	0.909374	0.401987	0.405503
	C204	C	0.902783	0.594393	0.103808
	C205	C	0.103243	0.406940	0.104493
	C206	C	0.101430	0.594218	0.905506
	C207	C	0.903870	0.407594	0.905603
	C208	C	0.101580	0.902082	0.597313
	C209	C	0.101326	0.099773	0.410042
	C210	C	0.901860	0.101055	0.597457
	C211	C	0.903118	0.901488	0.409953
	C212	C	0.596267	0.100021	0.903650
	C213	C	0.409063	0.100553	0.102591
	C214	C	0.596882	0.900515	0.103470
	C215	C	0.409767	0.900988	0.904272
	Zn216	Zn	0.502530	0.000432	0.753682
	Zn217	Zn	0.502268	0.000512	0.253719
	Zn218	Zn	0.752626	0.500861	0.004545
	Zn219	Zn	0.252553	0.501229	0.004415
	Zn220	Zn	0.002314	0.751183	0.504374
	Zn221	Zn	0.002212	0.250512	0.503602
	Zn222	Zn	0.002571	0.501009	0.754770
	Zn223	Zn	0.002526	0.500892	0.254436
	Zn224	Zn	0.503323	0.750932	0.003536
	Zn225	Zn	0.502478	0.251499	0.003177
	Zn226	Zn	0.752213	0.001470	0.502992
	Zn227	Zn	0.252324	0.000864	0.503340
	N228	N	0.417259	0.962845	0.681979
	N229	N	0.586998	0.038097	0.681109
	N230	N	0.587216	0.963137	0.325812
	N231	N	0.416654	0.037862	0.324726
	N232	N	0.682026	0.414923	0.967199
	N233	N	0.680796	0.586157	0.041424
	N234	N	0.322793	0.587712	0.966853
	N235	N	0.324963	0.416801	0.041529
	N236	N	0.964870	0.679062	0.419218
	N237	N	0.039993	0.679094	0.589421
	N238	N	0.965083	0.322568	0.589461
	N239	N	0.040214	0.321822	0.418625
	N240	N	0.965167	0.415834	0.682759
	N241	N	0.040128	0.586695	0.683419
	N242	N	0.965002	0.586274	0.326038
	N243	N	0.039983	0.415621	0.326231
	N244	N	0.417205	0.679789	0.966018
	N245	N	0.587221	0.678527	0.041398
	N246	N	0.588379	0.322644	0.966262
	N247	N	0.417579	0.323574	0.041029
	N248	N	0.681377	0.964087	0.417327
	N249	N	0.680442	0.038275	0.588506
	N250	N	0.323620	0.963383	0.589352
	N251	N	0.323884	0.038084	0.417695
	N252	N	0.917614	0.463118	0.182526
	N253	N	0.087512	0.538403	0.182431
	N254	N	0.087829	0.463303	0.826303
	N255	N	0.917529	0.538845	0.826730
	N256	N	0.181168	0.914970	0.466428
	N257	N	0.180941	0.086724	0.540647
	N258	N	0.823582	0.086889	0.466045
	N259	N	0.823910	0.916217	0.540908
	N260	N	0.465694	0.180036	0.917329
	N261	N	0.539938	0.179408	0.088620
	N262	N	0.465667	0.822596	0.088550
	N263	N	0.540821	0.822421	0.918107
	N264	N	0.465379	0.915833	0.181454
	N265	N	0.539680	0.086101	0.182255
	N266	N	0.465177	0.085810	0.825505
	N267	N	0.540096	0.914648	0.824451
	N268	N	0.916257	0.180043	0.466298
	N269	N	0.086480	0.178300	0.541471
	N270	N	0.087817	0.822487	0.466661
	N271	N	0.916718	0.822535	0.541362
	N272	N	0.181231	0.463319	0.918941
	N273	N	0.180968	0.538391	0.090123
	N274	N	0.823617	0.463363	0.090375
	N275	N	0.824411	0.538527	0.919566
	O276	O	0.040551	-0.005639	0.982808
	H277	H	0.043115	-0.004129	0.984127
	H278	H	0.049091	-0.010067	0.979028
	O279	O	0.519313	0.440759	0.491918
	H280	H	0.515228	0.445997	0.493657
	H281	H	0.521182	0.440198	0.490440
	O282	O	0.512211	0.451684	0.473195
	H283	H	0.514032	0.453443	0.473157
	H284	H	0.509347	0.445586	0.464324
	O285	O	0.533064	0.425198	0.470722
	H286	H	0.540317	0.420372	0.474019
	H287	H	0.528993	0.427128	0.473674
	O288	O	0.060234	0.964098	-0.054680
	H289	H	0.064164	0.957496	-0.057066
	H290	H	0.069609	0.966082	-0.057838
	O291	O	0.068167	0.969584	0.923637
	H292	H	0.058994	0.970720	0.922899
	H293	H	0.064697	0.969910	0.922254
	O294	O	0.515744	0.438931	0.466702
	H295	H	0.520653	0.436906	0.463470
	H296	H	0.513881	0.437614	0.467916
	O297	O	1.035932	-0.014897	-0.043786
	H298	H	1.033495	-0.012447	-0.047162
	H299	H	1.031656	-0.011025	-0.038917
