data_Molecule from HDF5

_cell_length_a		16.605058
_cell_length_b		16.538611
_cell_length_c		16.520661
_cell_angle_alpha	89.966603
_cell_angle_beta	90.005310
_cell_angle_gamma	90.040816
_symmetry_space_group_name_H-M	'P 1'
_symmetry_Int_Tables_number		1

loop_
	_symmetry_equiv_pos_as_xyz
	x,y,z

loop_
	_atom_site_label
	_atom_site_type_symbol
	_atom_site_fract_x
	_atom_site_fract_y
	_atom_site_fract_z
	H0	H	0.392192	0.867291	0.720726
	H1	H	0.599990	0.181497	0.722485
	H2	H	0.596790	0.866306	0.282513
	H3	H	0.391487	0.181228	0.282287
	H4	H	0.718125	0.415900	0.845833
	H5	H	0.714260	0.628103	0.158925
	H6	H	0.274314	0.628376	0.843094
	H7	H	0.275089	0.422070	0.158939
	H8	H	0.837578	0.744748	0.396360
	H9	H	0.150417	0.745112	0.605678
	H10	H	0.838781	0.300362	0.608909
	H11	H	0.150914	0.304121	0.398503
	H12	H	0.838547	0.417099	0.724847
	H13	H	0.150292	0.629233	0.722491
	H14	H	0.836940	0.626879	0.281540
	H15	H	0.152915	0.422899	0.283781
	H16	H	0.390021	0.744916	0.844561
	H17	H	0.596813	0.742885	0.159550
	H18	H	0.600962	0.300991	0.844828
	H19	H	0.392043	0.305954	0.159256
	H20	H	0.714971	0.866827	0.396549
	H21	H	0.719228	0.179710	0.608832
	H22	H	0.274765	0.867033	0.605959
	H23	H	0.274664	0.180596	0.398036
	H24	H	0.890773	0.366709	0.221540
	H25	H	0.096286	0.681573	0.218714
	H26	H	0.100326	0.367438	0.777210
	H27	H	0.889623	0.680496	0.780095
	H28	H	0.214529	0.920774	0.344393
	H29	H	0.216373	0.130638	0.658033
	H30	H	0.774231	0.128830	0.343969
	H31	H	0.772845	0.917312	0.657465
	H32	H	0.337501	0.244461	0.896864
	H33	H	0.650181	0.245142	0.106326
	H34	H	0.336033	0.805025	0.103980
	H35	H	0.649944	0.801804	0.895177
	H36	H	0.336606	0.920848	0.221750
	H37	H	0.650203	0.128610	0.223027
	H38	H	0.338148	0.128400	0.780500
	H39	H	0.649937	0.919461	0.780119
	H40	H	0.890769	0.244051	0.343522
	H41	H	0.100188	0.246652	0.657408
	H42	H	0.098678	0.804919	0.343573
	H43	H	0.889830	0.801982	0.657581
	H44	H	0.215771	0.366193	0.894639
	H45	H	0.212113	0.681986	0.102003
	H46	H	0.771779	0.368030	0.107480
	H47	H	0.772467	0.679952	0.895987
	H48	H	0.403761	0.138717	0.594448
	H49	H	0.583759	0.913955	0.586659
	H50	H	0.583578	0.136400	0.412403
	H51	H	0.400645	0.909549	0.413264
	H52	H	0.583862	0.430916	0.114915
	H53	H	0.578834	0.612703	0.889998
	H54	H	0.398728	0.616362	0.117181
	H55	H	0.407753	0.435379	0.889295
	H56	H	0.108417	0.616813	0.407424
	H57	H	0.886031	0.611432	0.582931
	H58	H	0.102437	0.440661	0.587820
	H59	H	0.880164	0.433087	0.406154
	H60	H	0.105751	0.435650	0.591716
	H61	H	0.882908	0.606983	0.594096
	H62	H	0.106908	0.616202	0.411705
	H63	H	0.882194	0.430245	0.413606
	H64	H	0.401107	0.608545	0.112900
	H65	H	0.584437	0.614572	0.888515
	H66	H	0.586551	0.439795	0.112884
	H67	H	0.403751	0.429753	0.886892
	H68	H	0.585066	0.135514	0.413001
	H69	H	0.585214	0.911692	0.591840
	H70	H	0.409148	0.135853	0.589231
	H71	H	0.403904	0.910057	0.408367
	H72	H	0.903544	0.637514	0.092818
	H73	H	0.079871	0.409612	0.098789
	H74	H	0.082650	0.636214	0.909064
	H75	H	0.909070	0.412642	0.911624
	H76	H	0.081913	0.935048	0.613332
	H77	H	0.079482	0.107220	0.392921
	H78	H	0.905148	0.110857	0.612722
	H79	H	0.905481	0.941412	0.391234
	H80	H	0.606642	0.114778	0.914713
	H81	H	0.383587	0.109364	0.088398
	H82	H	0.607942	0.934194	0.099095
	H83	H	0.383852	0.937607	0.912440
	H84	H	0.606855	0.926589	0.089202
	H85	H	0.380537	0.112639	0.097870
	H86	H	0.605081	0.111065	0.913252
	H87	H	0.381384	0.933909	0.909541
	H88	H	0.908316	0.111902	0.612717
	H89	H	0.080644	0.120898	0.388543
	H90	H	0.084141	0.931860	0.615170
	H91	H	0.910462	0.932357	0.389102
	H92	H	0.083366	0.633896	0.913283
	H93	H	0.081401	0.413195	0.083089
	H94	H	0.905874	0.636005	0.090181
	H95	H	0.906712	0.414205	0.917760
	H96	H	0.401644	0.137544	0.586493
	H97	H	0.580523	0.914125	0.591154
	H98	H	0.585138	0.136785	0.411680
	H99	H	0.405810	0.912066	0.413694
	H100	H	0.577950	0.436646	0.110893
	H101	H	0.583108	0.608570	0.890513
	H102	H	0.407652	0.616019	0.113457
	H103	H	0.400896	0.436643	0.887587
	H104	H	0.106402	0.612890	0.408766
	H105	H	0.879788	0.618468	0.591427
	H106	H	0.104282	0.433871	0.584882
	H107	H	0.883718	0.438289	0.411870
	H108	H	0.901969	0.636464	0.089409
	H109	H	0.094281	0.407703	0.091490
	H110	H	0.087122	0.636769	0.911670
	H111	H	0.903133	0.411152	0.913210
	H112	H	0.085748	0.935413	0.614089
	H113	H	0.091440	0.111654	0.386438
	H114	H	0.906183	0.114132	0.613697
	H115	H	0.900141	0.933558	0.387147
	H116	H	0.607005	0.113734	0.910954
	H117	H	0.380288	0.119209	0.089547
	H118	H	0.603206	0.938329	0.088265
	H119	H	0.382730	0.932941	0.914420
	C120	C	0.373358	0.033179	0.622261
	C121	C	0.616086	1.016426	0.622582
	C122	C	0.615663	0.032183	0.380649
	C123	C	0.372555	1.014735	0.380176
	C124	C	0.615583	0.402707	0.009636
	C125	C	0.614539	0.644492	0.993453
	C126	C	0.372053	0.645353	0.009988
	C127	C	0.373048	0.403013	0.992406
	C128	C	0.002842	0.645985	0.378520
	C129	C	0.985953	0.644999	0.621952
	C130	C	0.001897	0.402925	0.622084
	C131	C	0.986016	0.402841	0.379422
	C132	C	0.872178	0.532725	0.123124
	C133	C	0.115260	0.515180	0.121299
	C134	C	0.116379	0.531855	0.878679
	C135	C	0.873662	0.515590	0.881205
	C136	C	0.115267	0.903003	0.510059
	C137	C	0.115977	0.145400	0.493063
	C138	C	0.874054	0.144844	0.509344
	C139	C	0.873243	0.902814	0.492443
	C140	C	0.502613	0.145340	0.880640
	C141	C	0.485479	0.145057	0.123247
	C142	C	0.501955	0.902094	0.123224
	C143	C	0.485606	0.902545	0.879874
	C144	C	0.372938	0.914534	0.681295
	C145	C	0.618890	0.134185	0.683060
	C146	C	0.616281	0.913475	0.321900
	C147	C	0.371993	0.133587	0.321458
	C148	C	0.677028	0.398796	0.892353
	C149	C	0.674445	0.646521	0.111652
	C150	C	0.313768	0.647045	0.890691
	C151	C	0.314313	0.402399	0.111345
	C152	C	0.884805	0.704956	0.377384
	C153	C	0.103448	0.704943	0.623963
	C154	C	0.885294	0.341313	0.626287
	C155	C	0.104321	0.344036	0.379087
	C156	C	0.885039	0.399321	0.683982
	C157	C	0.103487	0.647300	0.682133
	C158	C	0.884350	0.646516	0.320189
	C159	C	0.105014	0.402907	0.322046
	C160	C	0.371319	0.704882	0.891347
	C161	C	0.615972	0.703565	0.111933
	C162	C	0.618813	0.341611	0.891957
	C163	C	0.372470	0.344919	0.111719
	C164	C	0.674785	0.913861	0.378829
	C165	C	0.677916	0.133336	0.626313
	C166	C	0.314740	0.914451	0.624093
	C167	C	0.313920	0.133378	0.378881
	C168	C	0.871445	0.414047	0.182289
	C169	C	0.115443	0.634353	0.179079
	C170	C	0.118681	0.414140	0.817827
	C171	C	0.871483	0.633805	0.820645
	C172	C	0.174687	0.902011	0.391399
	C173	C	0.176524	0.148817	0.610781
	C174	C	0.814085	0.147109	0.391255
	C175	C	0.813107	0.899418	0.610448
	C176	C	0.384622	0.204728	0.878355
	C177	C	0.603154	0.204967	0.125224
	C178	C	0.383365	0.844054	0.123539
	C179	C	0.602912	0.842014	0.877230
	C180	C	0.383544	0.901631	0.181807
	C181	C	0.603297	0.146822	0.182988
	C182	C	0.385272	0.147463	0.820086
	C183	C	0.603060	0.900374	0.819801
	C184	C	0.872345	0.204320	0.391063
	C185	C	0.118590	0.206360	0.610585
	C186	C	0.116980	0.844308	0.391149
	C187	C	0.871224	0.842048	0.610371
	C188	C	0.176204	0.413683	0.876127
	C189	C	0.173101	0.634301	0.121211
	C190	C	0.812508	0.414664	0.125595
	C191	C	0.813133	0.633378	0.878033
	C192	C	0.397569	0.115730	0.597200
	C193	C	0.590440	0.934503	0.597193
	C194	C	0.591520	0.114763	0.405269
	C195	C	0.396555	0.931952	0.404806
	C196	C	0.589816	0.428177	0.091462
	C197	C	0.589341	0.619266	0.911117
	C198	C	0.395744	0.620869	0.092781
	C199	C	0.397219	0.426916	0.909599
	C200	C	0.085467	0.622206	0.402298
	C201	C	0.904129	0.619622	0.596846
	C202	C	0.083115	0.429314	0.595640
	C203	C	0.903517	0.426920	0.403576
	C204	C	0.896863	0.615242	0.097913
	C205	C	0.091777	0.432029	0.097921
	C206	C	0.091402	0.614268	0.904019
	C207	C	0.898899	0.433843	0.906956
	C208	C	0.090840	0.927189	0.592750
	C209	C	0.090931	0.120182	0.410621
	C210	C	0.899282	0.119544	0.591733
	C211	C	0.898185	0.928454	0.410308
	C212	C	0.584909	0.120344	0.905967
	C213	C	0.402950	0.120782	0.098694
	C214	C	0.584423	0.926252	0.099095
	C215	C	0.403871	0.927719	0.904903
	Zn216	Zn	0.494372	0.024975	0.751352
	Zn217	Zn	0.493903	0.023317	0.252238
	Zn218	Zn	0.743723	0.523870	0.001318
	Zn219	Zn	0.244387	0.523930	0.000181
	Zn220	Zn	-0.005562	0.773991	0.500642
	Zn221	Zn	-0.005465	0.274190	0.501560
	Zn222	Zn	-0.006155	0.523598	0.751485
	Zn223	Zn	-0.005312	0.524117	0.250388
	Zn224	Zn	0.493632	0.773533	0.001669
	Zn225	Zn	0.494268	0.274268	0.001226
	Zn226	Zn	0.744762	0.023921	0.501251
	Zn227	Zn	0.244176	0.023775	0.501864
	N228	N	0.408449	0.989577	0.680540
	N229	N	0.580935	0.060422	0.680837
	N230	N	0.580330	0.988193	0.322777
	N231	N	0.407636	0.058790	0.322148
	N232	N	0.675213	0.436074	0.966590
	N233	N	0.673774	0.610463	0.036670
	N234	N	0.314073	0.610705	0.965297
	N235	N	0.314503	0.437604	0.036086
	N236	N	0.959526	0.704961	0.412723
	N237	N	0.029339	0.703707	0.587376
	N238	N	0.958746	0.343638	0.588479
	N239	N	0.029217	0.343712	0.413819
	N240	N	0.958651	0.437050	0.681619
	N241	N	0.029244	0.610684	0.681119
	N242	N	0.958931	0.610712	0.320658
	N243	N	0.030262	0.438535	0.321980
	N244	N	0.406931	0.703980	0.966511
	N245	N	0.579815	0.702784	0.037233
	N246	N	0.581146	0.343938	0.965950
	N247	N	0.408302	0.345034	0.036743
	N248	N	0.674666	0.988816	0.414557
	N249	N	0.676388	0.058923	0.589592
	N250	N	0.314736	0.989287	0.588236
	N251	N	0.313961	0.058299	0.414566
	N252	N	0.907643	0.488730	0.181050
	N253	N	0.080113	0.559284	0.179379
	N254	N	0.082363	0.488729	0.819313
	N255	N	0.908269	0.559531	0.822230
	N256	N	0.173978	0.937643	0.466469
	N257	N	0.174851	0.111397	0.536684
	N258	N	0.814964	0.110863	0.466002
	N259	N	0.814252	0.936602	0.536107
	N260	N	0.458889	0.203773	0.915111
	N261	N	0.528845	0.204015	0.088862
	N262	N	0.458103	0.844125	0.087975
	N263	N	0.528807	0.843146	0.913996
	N264	N	0.458337	0.936925	0.181814
	N265	N	0.528881	0.110433	0.182189
	N266	N	0.459860	0.111617	0.821357
	N267	N	0.529146	0.937397	0.821248
	N268	N	0.908773	0.203130	0.465719
	N269	N	0.081434	0.204236	0.536472
	N270	N	0.080693	0.844712	0.465899
	N271	N	0.907856	0.843957	0.536010
	N272	N	0.175091	0.488248	0.912975
	N273	N	0.173256	0.559110	0.086100
	N274	N	0.812907	0.489415	0.089539
	N275	N	0.814355	0.559047	0.914897
	O276	O	1.133558	0.222840	-1.133879
	H277	H	1.117035	0.225018	-1.128876
	H278	H	1.139045	0.243446	-1.152165
	O279	O	0.028105	0.243242	1.222109
	H280	H	0.033350	0.267391	1.251516
	H281	H	0.068690	0.242212	1.218666
	O282	O	0.627078	0.405789	0.689941
	H283	H	0.619340	0.417262	0.680036
	H284	H	0.612433	0.402606	0.699831
	O285	O	-0.220223	-0.013138	1.218512
	H286	H	-0.232764	-0.002585	1.236235
	H287	H	-0.215083	0.007649	1.211101
	O288	O	0.954861	0.029692	1.049340
	H289	H	0.949554	0.035813	1.045158
	H290	H	0.962705	0.040965	1.040566
	O291	O	0.484101	0.347169	1.427914
	H292	H	0.496776	0.336924	1.400102
	H293	H	0.489300	0.358843	1.446020
	O294	O	0.147053	-0.043283	0.049197
	H295	H	0.145244	-0.052482	0.043535
	H296	H	0.133474	-0.033642	0.045393
	O297	O	0.664718	0.675504	0.599633
	H298	H	0.651157	0.669037	0.590119
	H299	H	0.663623	0.688380	0.605049
	O300	O	-0.011159	-0.027161	-0.119954
	H301	H	-0.005862	-0.038245	-0.105669
	H302	H	0.012631	-0.033053	-0.118782
	O303	O	-0.276104	-0.244343	-0.266842
	H304	H	-0.263433	-0.262381	-0.260636
	H305	H	-0.277771	-0.233714	-0.281435
	O306	O	0.969284	0.227189	-0.201017
	H307	H	0.970322	0.226078	-0.211519
	H308	H	0.979043	0.232737	-0.207588
	O309	O	0.379924	0.505086	0.626900
	H310	H	0.364718	0.503523	0.644706
	H311	H	0.389387	0.478922	0.625113
	O312	O	0.291463	0.546721	0.315609
	H313	H	0.299150	0.549774	0.302296
	H314	H	0.299836	0.563042	0.311156
	O315	O	0.292559	0.323629	0.699164
	H316	H	0.286201	0.335682	0.678084
	H317	H	0.325616	0.317948	0.683302
	O318	O	1.203171	0.814020	-0.081694
	H319	H	1.207466	0.822173	-0.071574
	H320	H	1.195608	0.810918	-0.057838
	O321	O	0.591327	0.645949	0.498635
	H322	H	0.580638	0.633224	0.507051
	H323	H	0.593888	0.656980	0.488868
	O324	O	1.022570	0.071647	0.994861
	H325	H	1.022987	0.070849	1.001457
	H326	H	1.013620	0.070019	1.007341
	O327	O	1.003120	0.857767	0.783355
	H328	H	1.031036	0.857179	0.787960
	H329	H	1.001505	0.837645	0.761316
	O330	O	0.281097	0.597450	0.587893
	H331	H	0.277271	0.582465	0.603248
	H332	H	0.278021	0.593104	0.558132
	O333	O	0.642886	0.664011	0.307659
	H334	H	0.638092	0.655654	0.327170
	H335	H	0.649773	0.680238	0.299142
	O336	O	0.466340	0.709918	0.415850
	H337	H	0.463258	0.700269	0.441766
	H338	H	0.466470	0.740136	0.402613
	O339	O	0.705648	0.306760	0.476644
	H340	H	0.707086	0.303258	0.446710
	H341	H	0.726947	0.288256	0.468914
	O342	O	-0.062241	0.808293	-0.069687
	H343	H	-0.059300	0.802651	-0.069266
	H344	H	-0.065574	0.794604	-0.088295
	O345	O	-0.205213	0.221743	-0.192335
	H346	H	-0.219561	0.206539	-0.197334
	H347	H	-0.172576	0.226830	-0.180210
	O348	O	0.197540	0.225201	0.204552
	H349	H	0.224265	0.247327	0.234961
	H350	H	0.204135	0.201475	0.182072
	O351	O	0.141964	-0.198178	1.137691
	H352	H	0.125485	-0.188040	1.128501
	H353	H	0.125445	-0.195091	1.131985
	O354	O	0.802785	0.200906	1.176365
	H355	H	0.815829	0.186267	1.157382
	H356	H	0.817767	0.183226	1.152870
	O357	O	0.583144	0.400503	0.651625
	H358	H	0.570433	0.399078	0.642156
	H359	H	0.582753	0.378582	0.663334
	O360	O	0.288299	0.463939	0.465848
	H361	H	0.307159	0.452973	0.461223
	H362	H	0.289922	0.482936	0.443452
	O363	O	1.016003	1.006736	0.214433
	H364	H	1.007809	0.996945	0.214086
	H365	H	1.017768	1.008794	0.206639
	O366	O	0.800168	0.095658	1.072409
	H367	H	0.803930	0.084249	1.053852
	H368	H	0.813088	0.098636	1.081090
	O369	O	0.193664	0.058928	1.209282
	H370	H	0.199812	0.049685	1.221374
	H371	H	0.188172	0.066073	1.197178
	O372	O	0.189532	1.106063	0.910283
	H373	H	0.191425	1.101072	0.892384
	H374	H	0.191215	1.122782	0.913450
	O375	O	1.161557	-0.182239	-0.208191
	H376	H	1.189903	-0.209470	-0.235135
	H377	H	1.174598	-0.180513	-0.168565
	O378	O	0.481143	0.547503	0.630073
	H379	H	0.478326	0.538070	0.626269
	H380	H	0.477813	0.532473	0.633551
	O381	O	-0.300811	0.543651	-0.289344
	H382	H	-0.306548	0.552521	-0.284153
	H383	H	-0.295711	0.537898	-0.274296
	O384	O	0.799612	0.824923	0.196217
	H385	H	0.794778	0.874603	0.203371
	H386	H	0.786883	0.812797	0.166394
	O387	O	0.245325	0.766223	1.270896
	H388	H	0.215633	0.778998	1.269035
	H389	H	0.243423	0.780717	1.251603
	O390	O	0.476638	0.473056	0.595117
	H391	H	0.485240	0.473398	0.593158
	H392	H	0.468829	0.475671	0.602447
	O393	O	0.783516	-0.039411	-0.039050
	H394	H	0.788712	-0.044835	-0.056323
	H395	H	0.792425	-0.030272	-0.039469
	O396	O	0.618767	0.496237	0.409947
	H397	H	0.634766	0.503307	0.416804
	H398	H	0.627580	0.495843	0.424505
	O399	O	0.547194	0.354624	0.526156
	H400	H	0.565651	0.353277	0.514652
	H401	H	0.539710	0.361472	0.516892
	O402	O	0.953972	0.219860	1.037776
	H403	H	0.958326	0.218097	1.030466
	H404	H	0.948590	0.228630	1.052751
	O405	O	0.322606	0.333446	0.325148
	H406	H	0.336391	0.352646	0.338835
	H407	H	0.342462	0.345317	0.334822
	O408	O	0.785848	1.232391	0.975683
	H409	H	0.776480	1.251048	0.977423
	H410	H	0.789804	1.213843	0.965527
	O411	O	1.211379	1.117158	0.033318
	H412	H	1.209317	1.121425	0.013658
	H413	H	1.221459	1.136354	0.016663
	O414	O	-0.218798	-0.192212	0.033708
	H415	H	-0.221314	-0.176022	0.028996
	H416	H	-0.241582	-0.208803	0.029750
	O417	O	0.528510	0.563516	0.403533
	H418	H	0.532727	0.575751	0.404259
	H419	H	0.534797	0.557760	0.400395
	O420	O	1.143404	-0.075801	1.036257
	H421	H	1.130824	-0.066328	1.041017
	H422	H	1.140540	-0.065357	1.045181
	O423	O	0.878449	1.061841	-0.211209
	H424	H	0.882267	1.062349	-0.224123
	H425	H	0.880082	1.055382	-0.220472
	O426	O	0.488519	0.669060	0.528023
	H427	H	0.499614	0.662773	0.529995
	H428	H	0.487288	0.668234	0.534666
	O429	O	0.455943	0.520268	0.357676
	H430	H	0.465394	0.525259	0.348504
	H431	H	0.482058	0.526403	0.360227
	O432	O	0.806056	-0.069255	0.803380
	H433	H	0.798918	-0.060793	0.782102
	H434	H	0.809386	-0.069006	0.801554
	O435	O	0.589833	0.585735	0.453666
	H436	H	0.592766	0.594502	0.475058
	H437	H	0.585997	0.591981	0.460786
	O438	O	0.703769	0.318710	0.298643
	H439	H	0.714770	0.323487	0.279839
	H440	H	0.717337	0.326476	0.282791
	O441	O	1.204701	-0.011215	-0.212634
	H442	H	1.212853	-0.030121	-0.222570
	H443	H	1.215438	-0.010677	-0.219634
	O444	O	0.398341	0.384514	0.711773
	H445	H	0.394898	0.376127	0.725242
	H446	H	0.408915	0.396508	0.701090
	O447	O	0.511807	0.730321	0.710594
	H448	H	0.507547	0.730961	0.734732
	H449	H	0.525001	0.721773	0.699632
	O450	O	1.290232	-0.264067	0.478484
	H451	H	1.296700	-0.267431	0.475968
	H452	H	1.273229	-0.246618	0.479087
	O453	O	0.343156	0.682707	0.697038
	H454	H	0.353824	0.663283	0.685100
	H455	H	0.348516	0.668549	0.675230
	O456	O	0.139925	1.155145	1.007094
	H457	H	0.151887	1.168097	1.002008
	H458	H	0.133216	1.154541	1.038007
	O459	O	0.708666	0.520849	0.359413
	H460	H	0.695387	0.526506	0.375252
	H461	H	0.726685	0.526821	0.357675
	O462	O	1.287682	0.321223	0.520193
	H463	H	1.298837	0.319088	0.507415
	H464	H	1.281344	0.320093	0.510720
	O465	O	-0.076802	0.012503	0.840269
	H466	H	-0.065804	-0.000113	0.838779
	H467	H	-0.055525	0.005541	0.841739
	O468	O	-0.025034	0.807953	0.207784
	H469	H	-0.050502	0.800086	0.213628
	H470	H	-0.045764	0.800483	0.227458
	O471	O	0.459376	0.720767	0.301333
	H472	H	0.442767	0.736230	0.299872
	H473	H	0.442506	0.732801	0.302224
	O474	O	0.956676	1.098781	0.143980
	H475	H	0.964664	1.112788	0.122310
	H476	H	0.983335	1.104184	0.153028
	O477	O	0.521672	0.384704	1.286930
	H478	H	0.559414	0.388499	1.295167
	H479	H	0.523574	0.369327	1.266279
