data_Molecule from HDF5

_cell_length_a		16.785364
_cell_length_b		16.623818
_cell_length_c		16.556442
_cell_angle_alpha	89.909554
_cell_angle_beta	89.985124
_cell_angle_gamma	89.854602
_symmetry_space_group_name_H-M	'P 1'
_symmetry_Int_Tables_number		1

loop_
	_symmetry_equiv_pos_as_xyz
	x,y,z

loop_
	_atom_site_label
	_atom_site_type_symbol
	_atom_site_fract_x
	_atom_site_fract_y
	_atom_site_fract_z
	H0	H	0.390079	0.839206	0.733923
	H1	H	0.597334	0.150456	0.733791
	H2	H	0.595141	0.837737	0.296238
	H3	H	0.390088	0.150314	0.294506
	H4	H	0.718399	0.384492	0.860111
	H5	H	0.715053	0.601424	0.169049
	H6	H	0.273087	0.598529	0.857886
	H7	H	0.273484	0.389714	0.170220
	H8	H	0.838008	0.712758	0.413843
	H9	H	0.149752	0.711647	0.615164
	H10	H	0.840563	0.270815	0.623064
	H11	H	0.145190	0.270831	0.407296
	H12	H	0.839745	0.388622	0.737947
	H13	H	0.150326	0.595028	0.732063
	H14	H	0.837593	0.597462	0.296248
	H15	H	0.146073	0.388278	0.291969
	H16	H	0.390938	0.711577	0.856562
	H17	H	0.595886	0.714018	0.169805
	H18	H	0.601412	0.270312	0.859194
	H19	H	0.390467	0.274758	0.169861
	H20	H	0.714605	0.838302	0.408621
	H21	H	0.716051	0.147989	0.621790
	H22	H	0.271140	0.840292	0.620355
	H23	H	0.272249	0.150019	0.408800
	H24	H	0.887955	0.338710	0.236072
	H25	H	0.091765	0.652712	0.229743
	H26	H	0.095171	0.337141	0.797870
	H27	H	0.890683	0.651580	0.796511
	H28	H	0.211414	0.891277	0.356291
	H29	H	0.213852	0.099463	0.669343
	H30	H	0.769281	0.103517	0.359341
	H31	H	0.774707	0.890480	0.671183
	H32	H	0.339416	0.217210	0.908232
	H33	H	0.645126	0.219372	0.122492
	H34	H	0.338190	0.775560	0.117050
	H35	H	0.643443	0.767247	0.903766
	H36	H	0.339191	0.891426	0.234323
	H37	H	0.646333	0.101879	0.238292
	H38	H	0.339636	0.102125	0.790278
	H39	H	0.645230	0.886367	0.789093
	H40	H	0.883647	0.219693	0.360335
	H41	H	0.097994	0.215118	0.669557
	H42	H	0.094051	0.778173	0.355770
	H43	H	0.894113	0.778197	0.672519
	H44	H	0.213987	0.338758	0.910827
	H45	H	0.210628	0.651919	0.117579
	H46	H	0.771268	0.338864	0.121085
	H47	H	0.771622	0.649020	0.907795
	H48	H	0.403548	0.104692	0.596961
	H49	H	0.588242	0.881493	0.601071
	H50	H	0.583070	0.104350	0.431438
	H51	H	0.401740	0.880533	0.419633
	H52	H	0.579537	0.408107	0.123431
	H53	H	0.584509	0.579371	0.901737
	H54	H	0.400149	0.588976	0.129402
	H55	H	0.402978	0.401460	0.900352
	H56	H	0.105283	0.591917	0.426390
	H57	H	0.882995	0.586849	0.607238
	H58	H	0.104409	0.403236	0.604336
	H59	H	0.883996	0.406579	0.432558
	H60	H	0.103333	0.404436	0.602825
	H61	H	0.882224	0.587536	0.606834
	H62	H	0.103748	0.580536	0.422886
	H63	H	0.884241	0.412218	0.425250
	H64	H	0.397807	0.582626	0.128004
	H65	H	0.579791	0.579582	0.903679
	H66	H	0.581256	0.407976	0.124301
	H67	H	0.398521	0.408501	0.900660
	H68	H	0.585333	0.106677	0.424707
	H69	H	0.579692	0.882447	0.606801
	H70	H	0.400417	0.108014	0.602486
	H71	H	0.404411	0.883065	0.425780
	H72	H	0.902526	0.604732	0.100453
	H73	H	0.085909	0.383925	0.100437
	H74	H	0.081538	0.607254	0.921583
	H75	H	0.903987	0.384623	0.932355
	H76	H	0.081944	0.906456	0.625559
	H77	H	0.082451	0.078369	0.403364
	H78	H	0.905007	0.079900	0.623395
	H79	H	0.900230	0.899355	0.398567
	H80	H	0.603062	0.085520	0.927078
	H81	H	0.384384	0.085449	0.102121
	H82	H	0.602623	0.907521	0.102505
	H83	H	0.382681	0.908221	0.922681
	H84	H	0.605459	0.903199	0.105832
	H85	H	0.382963	0.082007	0.102839
	H86	H	0.600727	0.079430	0.927833
	H87	H	0.381962	0.902884	0.923512
	H88	H	0.905685	0.080717	0.624437
	H89	H	0.077325	0.085840	0.402164
	H90	H	0.083439	0.899425	0.627760
	H91	H	0.897898	0.909690	0.401219
	H92	H	0.084380	0.605226	0.927132
	H93	H	0.088022	0.380744	0.106575
	H94	H	0.900097	0.606235	0.103539
	H95	H	0.901893	0.381590	0.925021
	H96	H	0.407167	0.105705	0.603087
	H97	H	0.579993	0.885745	0.596716
	H98	H	0.578080	0.105136	0.425567
	H99	H	0.397996	0.881111	0.425859
	H100	H	0.580391	0.409614	0.123617
	H101	H	0.581931	0.583494	0.901560
	H102	H	0.404445	0.584035	0.126982
	H103	H	0.406745	0.408815	0.902978
	H104	H	0.107567	0.588770	0.415058
	H105	H	0.882018	0.586753	0.606237
	H106	H	0.103442	0.404859	0.605115
	H107	H	0.880975	0.403984	0.424277
	H108	H	0.903989	0.605320	0.104095
	H109	H	0.081117	0.382636	0.105963
	H110	H	0.087628	0.608253	0.922684
	H111	H	0.909479	0.384994	0.925808
	H112	H	0.088728	0.905000	0.627927
	H113	H	0.086230	0.085742	0.399564
	H114	H	0.904324	0.080671	0.624265
	H115	H	0.907855	0.905575	0.403553
	H116	H	0.603547	0.081638	0.921785
	H117	H	0.382937	0.084436	0.104875
	H118	H	0.603525	0.901731	0.100014
	H119	H	0.383459	0.906041	0.927599
	C120	C	0.372282	0.003133	0.633671
	C121	C	0.614682	0.985495	0.634847
	C122	C	0.614262	0.002528	0.394209
	C123	C	0.370815	0.985232	0.392227
	C124	C	0.614270	0.373642	0.022005
	C125	C	0.613620	0.614199	1.005351
	C126	C	0.370664	0.615987	0.023433
	C127	C	0.372027	0.373804	1.005284
	C128	C	0.002195	0.617073	0.391927
	C129	C	0.985711	0.616152	0.636265
	C130	C	0.001884	0.372360	0.636733
	C131	C	0.984298	0.373991	0.393578
	C132	C	0.870828	0.502526	0.135462
	C133	C	0.114296	0.486551	0.135258
	C134	C	0.115318	0.503156	0.893310
	C135	C	0.872978	0.486360	0.894455
	C136	C	0.114953	0.873303	0.522514
	C137	C	0.113510	0.114848	0.505306
	C138	C	0.871712	0.114905	0.521988
	C139	C	0.871942	0.873376	0.505270
	C140	C	0.500855	0.115458	0.892813
	C141	C	0.484804	0.116555	0.136120
	C142	C	0.501647	0.872955	0.134753
	C143	C	0.484016	0.872371	0.891539
	C144	C	0.371166	0.885837	0.693808
	C145	C	0.616409	0.102848	0.694693
	C146	C	0.614865	0.884584	0.335227
	C147	C	0.370740	0.103246	0.333564
	C148	C	0.677137	0.367565	0.906367
	C149	C	0.673851	0.618163	0.122475
	C150	C	0.312735	0.616923	0.904978
	C151	C	0.313194	0.371215	0.123116
	C152	C	0.884742	0.674200	0.393394
	C153	C	0.103141	0.672757	0.635044
	C154	C	0.886450	0.311650	0.640503
	C155	C	0.099281	0.312023	0.389755
	C156	C	0.886111	0.370115	0.697685
	C157	C	0.103343	0.614696	0.693057
	C158	C	0.884562	0.616526	0.335261
	C159	C	0.099762	0.370613	0.332512
	C160	C	0.371106	0.673317	0.904258
	C161	C	0.614983	0.674503	0.122816
	C162	C	0.618896	0.310959	0.905887
	C163	C	0.371304	0.314274	0.122956
	C164	C	0.674048	0.885332	0.391155
	C165	C	0.675297	0.101796	0.638756
	C166	C	0.312218	0.886471	0.637527
	C167	C	0.312134	0.103033	0.390280
	C168	C	0.869503	0.385392	0.195718
	C169	C	0.112393	0.605123	0.191879
	C170	C	0.115083	0.384642	0.836004
	C171	C	0.871468	0.603794	0.835242
	C172	C	0.172229	0.872752	0.403749
	C173	C	0.173501	0.117348	0.622560
	C174	C	0.809970	0.120218	0.405898
	C175	C	0.814191	0.872282	0.623958
	C176	C	0.385411	0.176575	0.889843
	C177	C	0.599527	0.178470	0.140147
	C178	C	0.385029	0.814704	0.136268
	C179	C	0.598414	0.809397	0.886905
	C180	C	0.385388	0.872329	0.194324
	C181	C	0.600074	0.119852	0.197569
	C182	C	0.385714	0.119458	0.831192
	C183	C	0.599260	0.868566	0.830072
	C184	C	0.866926	0.178247	0.406477
	C185	C	0.115755	0.174688	0.622819
	C186	C	0.113694	0.816430	0.403485
	C187	C	0.873479	0.816492	0.624837
	C188	C	0.173913	0.385462	0.892464
	C189	C	0.171219	0.604760	0.135646
	C190	C	0.811447	0.385568	0.138596
	C191	C	0.812231	0.602804	0.890884
	C192	C	0.396682	0.084958	0.608034
	C193	C	0.589677	0.904248	0.609030
	C194	C	0.589280	0.084108	0.419779
	C195	C	0.394533	0.903005	0.416723
	C196	C	0.587917	0.400833	0.102588
	C197	C	0.588977	0.588343	0.923594
	C198	C	0.394229	0.592120	0.106338
	C199	C	0.396016	0.398893	0.922780
	C200	C	0.084132	0.593671	0.414737
	C201	C	0.903756	0.593500	0.613289
	C202	C	0.082593	0.397171	0.611167
	C203	C	0.904039	0.400167	0.419935
	C204	C	0.895289	0.584104	0.110050
	C205	C	0.091401	0.404030	0.111325
	C206	C	0.091390	0.585442	0.916976
	C207	C	0.897944	0.404839	0.920326
	C208	C	0.091605	0.896866	0.605389
	C209	C	0.088703	0.090275	0.423110
	C210	C	0.897755	0.087984	0.603013
	C211	C	0.895333	0.897696	0.422645
	C212	C	0.581464	0.089622	0.918381
	C213	C	0.404491	0.091091	0.110431
	C214	C	0.582843	0.897271	0.109943
	C215	C	0.403542	0.898530	0.917431
	Zn216	Zn	0.492590	-0.005195	0.762932
	Zn217	Zn	0.494064	-0.005885	0.264794
	Zn218	Zn	0.742725	0.493932	0.013822
	Zn219	Zn	0.243541	0.494687	0.014740
	Zn220	Zn	-0.006159	0.745642	0.514374
	Zn221	Zn	-0.007752	0.243744	0.514145
	Zn222	Zn	-0.005998	0.494794	0.765330
	Zn223	Zn	-0.007409	0.494746	0.263520
	Zn224	Zn	0.492214	0.742906	0.013808
	Zn225	Zn	0.493283	0.245567	0.013530
	Zn226	Zn	0.743344	-0.005918	0.514063
	Zn227	Zn	0.242700	-0.005558	0.513940
	N228	N	0.407782	0.959491	0.691615
	N229	N	0.579242	0.029357	0.692486
	N230	N	0.578584	0.958733	0.336628
	N231	N	0.406376	0.028867	0.334285
	N232	N	0.674473	0.405904	0.979548
	N233	N	0.673371	0.581450	0.048282
	N234	N	0.311987	0.582221	0.980313
	N235	N	0.313264	0.407486	0.048705
	N236	N	0.958972	0.674985	0.427826
	N237	N	0.028907	0.674227	0.600770
	N238	N	0.959554	0.312563	0.603450
	N239	N	0.026314	0.313863	0.427033
	N240	N	0.959002	0.407165	0.695751
	N241	N	0.029125	0.580419	0.694153
	N242	N	0.958671	0.581836	0.333936
	N243	N	0.027109	0.408461	0.334737
	N244	N	0.406259	0.673019	0.979197
	N245	N	0.578261	0.672352	0.048797
	N246	N	0.580236	0.314631	0.978880
	N247	N	0.406943	0.315636	0.048419
	N248	N	0.674003	0.959746	0.426827
	N249	N	0.674644	0.027655	0.602379
	N250	N	0.312796	0.960470	0.600805
	N251	N	0.311864	0.028461	0.425858
	N252	N	0.905681	0.459349	0.194135
	N253	N	0.077871	0.530311	0.192255
	N254	N	0.079523	0.458969	0.836182
	N255	N	0.908478	0.530042	0.836930
	N256	N	0.173363	0.907314	0.478977
	N257	N	0.172336	0.080956	0.548274
	N258	N	0.812578	0.081407	0.479049
	N259	N	0.812966	0.906802	0.548599
	N260	N	0.458278	0.174480	0.927382
	N261	N	0.526845	0.176577	0.102479
	N262	N	0.458497	0.814784	0.099957
	N263	N	0.525759	0.811654	0.924485
	N264	N	0.459151	0.907734	0.193820
	N265	N	0.527836	0.081952	0.195252
	N266	N	0.458600	0.082111	0.832939
	N267	N	0.527112	0.907374	0.832970
	N268	N	0.904840	0.174975	0.479688
	N269	N	0.079133	0.173586	0.548699
	N270	N	0.078876	0.816525	0.478568
	N271	N	0.908478	0.816626	0.549820
	N272	N	0.174390	0.460311	0.927251
	N273	N	0.173032	0.529665	0.101582
	N274	N	0.811845	0.459594	0.102060
	N275	N	0.812957	0.528506	0.927049
	O276	O	-0.037235	1.214329	-0.206588
	H277	H	-0.040381	1.233048	-0.224463
	H278	H	-0.039461	1.216750	-0.206403
	O279	O	-0.046835	0.140198	0.111978
	H280	H	-0.041984	0.125820	0.098023
	H281	H	-0.034375	0.135978	0.101978
	O282	O	1.288060	0.695109	0.308806
	H283	H	1.285434	0.690386	0.342204
	H284	H	1.277564	0.724595	0.282797
	O285	O	0.455938	0.283306	0.734620
	H286	H	0.440484	0.277595	0.727155
	H287	H	0.452069	0.263344	0.755138
	O288	O	0.780850	0.794404	0.205461
	H289	H	0.783174	0.839765	0.217757
	H290	H	0.773184	0.782185	0.185683
	O291	O	0.683657	0.305127	0.702891
	H292	H	0.692862	0.313614	0.675360
	H293	H	0.710777	0.274615	0.729133
	O294	O	0.821372	-0.201736	0.852064
	H295	H	0.798016	-0.196992	0.862145
	H296	H	0.807597	-0.221719	0.831146
	O297	O	0.722319	0.552418	0.455423
	H298	H	0.721543	0.572511	0.448266
	H299	H	0.721475	0.552511	0.450678
	O300	O	0.211781	-0.022164	0.802221
	H301	H	0.219318	-0.044709	0.804376
	H302	H	0.212211	-0.043870	0.789598
	O303	O	0.548507	0.659823	0.537874
	H304	H	0.564456	0.659575	0.544744
	H305	H	0.560169	0.643951	0.550963
	O306	O	0.998662	0.846199	0.205190
	H307	H	1.002647	0.876325	0.199727
	H308	H	0.976162	0.821555	0.222191
	O309	O	0.545032	0.535778	0.300589
	H310	H	0.557963	0.539760	0.297293
	H311	H	0.564943	0.548769	0.303445
	O312	O	0.727673	0.445987	0.582666
	H313	H	0.729583	0.441880	0.564357
	H314	H	0.716894	0.453431	0.578533
	O315	O	0.777365	1.206345	0.993766
	H316	H	0.753512	1.224756	0.994926
	H317	H	0.774208	1.180006	1.002626
	O318	O	0.716734	0.717031	0.549020
	H319	H	0.711638	0.716476	0.582893
	H320	H	0.740945	0.737593	0.555462
	O321	O	0.306011	0.678870	0.699631
	H322	H	0.323775	0.660057	0.681634
	H323	H	0.320881	0.658842	0.681592
	O324	O	1.208744	1.031920	-0.049572
	H325	H	1.221286	1.035502	-0.064974
	H326	H	1.204561	1.046218	-0.046851
	O327	O	-0.284507	0.531483	0.733098
	H328	H	-0.264764	0.518596	0.747631
	H329	H	-0.288191	0.509827	0.725071
	O330	O	0.455206	0.711504	0.295694
	H331	H	0.439449	0.717012	0.308009
	H332	H	0.449471	0.730769	0.269005
	O333	O	0.818611	0.730539	0.283355
	H334	H	0.787428	0.727117	0.284625
	H335	H	0.807188	0.707886	0.312592
	O336	O	0.781379	0.200907	-0.200026
	H337	H	0.777808	0.174653	-0.174532
	H338	H	0.808725	0.187208	-0.191115
	O339	O	1.203692	0.203020	1.221070
	H340	H	1.201162	0.215819	1.214071
	H341	H	1.221796	0.203302	1.235674
	O342	O	-0.117470	0.120132	0.178646
	H343	H	-0.117454	0.119965	0.181716
	H344	H	-0.111726	0.111461	0.177165
	O345	O	0.086979	1.158072	1.011105
	H346	H	0.072715	1.162123	1.011935
	H347	H	0.080797	1.151539	1.013276
	O348	O	-0.108343	0.110863	-0.067921
	H349	H	-0.109711	0.106118	-0.060330
	H350	H	-0.131156	0.105817	-0.065995
	O351	O	1.056214	0.826471	-0.050509
	H352	H	1.051554	0.838696	-0.032311
	H353	H	1.028107	0.819153	-0.056572
	O354	O	-0.233606	-0.222464	1.039289
	H355	H	-0.252231	-0.229282	1.043503
	H356	H	-0.231598	-0.217862	1.041002
	O357	O	0.325530	0.471809	0.691387
	H358	H	0.308393	0.454408	0.698770
	H359	H	0.322018	0.447057	0.697305
	O360	O	0.276320	0.360025	0.730930
	H361	H	0.274107	0.336574	0.697047
	H362	H	0.245609	0.335751	0.761200
	O363	O	0.206165	-0.083650	0.097099
	H364	H	0.210042	-0.083531	0.095251
	H365	H	0.206768	-0.062208	0.074847
	O366	O	0.620371	0.365722	0.333474
	H367	H	0.609462	0.376168	0.333385
	H368	H	0.598633	0.374437	0.338794
	O369	O	0.966951	-0.233744	-0.004264
	H370	H	0.949410	-0.233915	-0.013907
	H371	H	0.962484	-0.228625	-0.013734
	O372	O	0.986148	0.973725	0.131310
	H373	H	0.992448	0.968840	0.124031
	H374	H	1.005896	0.978768	0.129636
	O375	O	1.020766	0.214958	0.233120
	H376	H	1.035869	0.221137	0.243294
	H377	H	1.033072	0.219382	0.239300
	O378	O	0.490755	0.525044	0.358491
	H379	H	0.496550	0.536012	0.364831
	H380	H	0.471065	0.544827	0.341712
	O381	O	0.213515	1.208204	1.048707
	H382	H	0.216569	1.215303	1.055795
	H383	H	0.217506	1.216220	1.053845
	O384	O	0.879003	-0.106974	0.975241
	H385	H	0.896319	-0.115836	0.959009
	H386	H	0.879824	-0.118547	0.971201
	O387	O	1.225209	1.227232	-0.221496
	H388	H	1.221219	1.217196	-0.218552
	H389	H	1.206907	1.199278	-0.198292
	O390	O	0.056045	0.191827	-0.061828
	H391	H	0.041835	0.185377	-0.040071
	H392	H	0.036249	0.178573	-0.053744
	O393	O	0.310552	0.304356	0.566755
	H394	H	0.294395	0.305166	0.556728
	H395	H	0.317381	0.303298	0.567964
	O396	O	0.026165	0.984954	1.055346
	H397	H	0.026261	0.961521	1.047739
	H398	H	0.031211	0.993731	1.062760
	O399	O	-0.054030	-0.027918	1.030100
	H400	H	-0.047785	-0.016300	1.023678
	H401	H	-0.055979	-0.038375	1.016138
	O402	O	0.446002	0.462552	0.483338
	H403	H	0.446906	0.468346	0.480929
	H404	H	0.445379	0.455566	0.474402
	O405	O	0.763765	-0.036095	1.232271
	H406	H	0.764154	-0.037357	1.256108
	H407	H	0.775901	-0.023238	1.246392
	O408	O	0.207143	-0.213042	-0.202089
	H409	H	0.216020	-0.216793	-0.174200
	H410	H	0.233034	-0.241637	-0.216123
	O411	O	0.438420	0.277694	0.459684
	H412	H	0.444364	0.278764	0.469979
	H413	H	0.442990	0.284714	0.462760
	O414	O	0.541969	0.443330	0.444916
	H415	H	0.534741	0.455215	0.440063
	H416	H	0.551194	0.446125	0.446622
	O417	O	0.507282	0.491394	0.549525
	H418	H	0.497302	0.490877	0.551176
	H419	H	0.502619	0.491134	0.568420
	O420	O	0.620935	0.697047	0.374187
	H421	H	0.604750	0.686995	0.377817
	H422	H	0.627654	0.709169	0.376611
	O423	O	-0.242524	0.048560	1.074087
	H424	H	-0.238738	0.036620	1.096349
	H425	H	-0.243797	0.031992	1.067170
	O426	O	0.531086	0.708134	0.718291
	H427	H	0.518730	0.687525	0.715995
	H428	H	0.517585	0.716763	0.740763
	O429	O	0.693966	0.695717	0.717421
	H430	H	0.702188	0.648551	0.715382
	H431	H	0.647037	0.695266	0.719700
	O432	O	0.269919	0.719180	0.475895
	H433	H	0.262328	0.726760	0.485735
	H434	H	0.269063	0.728365	0.471686
	O435	O	0.264845	0.528751	0.287633
	H436	H	0.250827	0.556800	0.275243
	H437	H	0.246112	0.535032	0.281688
	O438	O	-0.396961	0.283126	0.302712
	H439	H	-0.396839	0.272385	0.288979
	H440	H	-0.423566	0.276123	0.301353
	O441	O	0.415989	0.488166	0.517498
	H442	H	0.424349	0.487977	0.525388
	H443	H	0.408964	0.486200	0.523868
	O444	O	0.559106	0.440544	0.746224
	H445	H	0.569564	0.423171	0.741398
	H446	H	0.557996	0.417436	0.745796
	O447	O	0.156661	0.797627	1.207418
	H448	H	0.146146	0.816665	1.194450
	H449	H	0.133520	0.810041	1.196702
	O450	O	0.217121	1.034117	1.233349
	H451	H	0.238058	1.036127	1.260389
	H452	H	0.217832	1.045515	1.227265
	O453	O	0.270428	0.380691	0.479674
	H454	H	0.264383	0.394973	0.472718
	H455	H	0.265580	0.382204	0.464228
	O456	O	-0.000204	0.104838	0.862573
	H457	H	0.009255	0.112498	0.876305
	H458	H	0.000424	0.077748	0.876794
	O459	O	1.024005	1.031970	-0.104916
	H460	H	1.028077	1.024261	-0.115231
	H461	H	1.036666	1.024669	-0.107863
	O462	O	0.407828	0.706472	0.568107
	H463	H	0.420519	0.695986	0.559340
	H464	H	0.412029	0.705677	0.565245
	O465	O	0.764464	-0.055278	-0.041462
	H466	H	0.777689	-0.053146	-0.048100
	H467	H	0.767862	-0.048797	-0.039835
	O468	O	0.714914	0.278786	0.498248
	H469	H	0.720841	0.281648	0.488026
	H470	H	0.719684	0.271050	0.480075
	O471	O	0.552937	0.276686	0.593254
	H472	H	0.577729	0.278693	0.604193
	H473	H	0.563105	0.272176	0.593286
	O474	O	0.294996	0.551532	0.530180
	H475	H	0.303122	0.550959	0.534306
	H476	H	0.300118	0.551157	0.521070
	O477	O	0.299548	0.303320	1.324847
	H478	H	0.316691	0.316909	1.335786
	H479	H	0.321044	0.319623	1.339486
	O480	O	0.445435	0.564842	0.738543
	H481	H	0.429294	0.547591	0.732401
	H482	H	0.454869	0.537734	0.743152
	O483	O	0.461689	0.367986	0.326068
	H484	H	0.451491	0.382761	0.328824
	H485	H	0.470075	0.385463	0.316130
	O486	O	0.973125	-0.048421	0.812873
	H487	H	0.977122	-0.063251	0.797844
	H488	H	0.954930	-0.052078	0.800524
	O489	O	1.219710	0.774763	-0.026156
	H490	H	1.225290	0.753624	-0.012946
	H491	H	1.202921	0.759668	-0.019524
	O492	O	0.064643	-0.010422	0.229312
	H493	H	0.080589	-0.009686	0.226087
	H494	H	0.077101	-0.004642	0.215370
	O495	O	0.031082	0.777579	0.795667
	H496	H	0.040145	0.749103	0.768802
	H497	H	0.068459	0.787277	0.803341
	O498	O	0.801609	1.057048	0.829479
	H499	H	0.791243	1.053384	0.812122
	H500	H	0.812719	1.052505	0.835979
	O501	O	0.715997	0.465712	0.289164
	H502	H	0.749838	0.462496	0.256794
	H503	H	0.715235	0.437553	0.309879
