data_Molecule from HDF5

_cell_length_a		16.132588
_cell_length_b		16.448257
_cell_length_c		16.282096
_cell_angle_alpha	90.225012
_cell_angle_beta	89.814958
_cell_angle_gamma	90.148294
_symmetry_space_group_name_H-M	'P 1'
_symmetry_Int_Tables_number		1

loop_
	_symmetry_equiv_pos_as_xyz
	x,y,z

loop_
	_atom_site_label
	_atom_site_type_symbol
	_atom_site_fract_x
	_atom_site_fract_y
	_atom_site_fract_z
	H0	H	0.396469	0.839369	0.706529
	H1	H	0.598424	0.162674	0.708364
	H2	H	0.596599	0.840154	0.273467
	H3	H	0.397306	0.163902	0.274156
	H4	H	0.713077	0.403855	0.826133
	H5	H	0.712633	0.599777	0.154442
	H6	H	0.287356	0.597976	0.825935
	H7	H	0.284490	0.404154	0.153827
	H8	H	0.834856	0.716554	0.388621
	H9	H	0.162112	0.718844	0.590222
	H10	H	0.833698	0.284751	0.592328
	H11	H	0.162169	0.285461	0.389455
	H12	H	0.833119	0.402530	0.705147
	H13	H	0.164842	0.600111	0.701742
	H14	H	0.833087	0.597270	0.278225
	H15	H	0.163821	0.402905	0.276919
	H16	H	0.397973	0.718039	0.828325
	H17	H	0.601649	0.719868	0.152593
	H18	H	0.603300	0.282083	0.828724
	H19	H	0.396760	0.285013	0.152765
	H20	H	0.711066	0.839063	0.391647
	H21	H	0.712048	0.164189	0.587711
	H22	H	0.281187	0.838789	0.588097
	H23	H	0.284731	0.165129	0.395843
	H24	H	0.899012	0.338860	0.206075
	H25	H	0.100750	0.662781	0.208686
	H26	H	0.100340	0.339706	0.771559
	H27	H	0.900683	0.663492	0.774880
	H28	H	0.209969	0.905638	0.326089
	H29	H	0.209188	0.098992	0.654749
	H30	H	0.786603	0.096273	0.325086
	H31	H	0.782845	0.904947	0.654228
	H32	H	0.334847	0.216806	0.890964
	H33	H	0.662162	0.217292	0.091644
	H34	H	0.334290	0.785734	0.090310
	H35	H	0.663534	0.787520	0.889520
	H36	H	0.332201	0.904238	0.202640
	H37	H	0.662740	0.100173	0.203327
	H38	H	0.332239	0.097967	0.779124
	H39	H	0.662657	0.902416	0.773879
	H40	H	0.896888	0.216199	0.326880
	H41	H	0.097877	0.218428	0.653088
	H42	H	0.099899	0.784413	0.327965
	H43	H	0.894642	0.784924	0.652667
	H44	H	0.212545	0.337585	0.892067
	H45	H	0.214275	0.664040	0.088353
	H46	H	0.782610	0.339104	0.088496
	H47	H	0.784979	0.663828	0.892545
	H48	H	0.414171	0.112347	0.582156
	H49	H	0.594526	0.886463	0.576994
	H50	H	0.588198	0.120237	0.384796
	H51	H	0.402635	0.883275	0.385113
	H52	H	0.601175	0.409044	0.109655
	H53	H	0.594464	0.597432	0.873109
	H54	H	0.406954	0.596396	0.107427
	H55	H	0.410907	0.403522	0.872961
	H56	H	0.115035	0.592369	0.399256
	H57	H	0.881324	0.597523	0.579538
	H58	H	0.116020	0.406349	0.581991
	H59	H	0.878829	0.408700	0.391376
	H60	H	0.114679	0.408129	0.576246
	H61	H	0.883009	0.589181	0.580538
	H62	H	0.116547	0.594857	0.397639
	H63	H	0.879840	0.401752	0.401466
	H64	H	0.407487	0.593212	0.106262
	H65	H	0.591660	0.590628	0.875336
	H66	H	0.584853	0.418257	0.101863
	H67	H	0.404799	0.407290	0.873470
	H68	H	0.582549	0.111542	0.403314
	H69	H	0.590755	0.884038	0.590182
	H70	H	0.395374	0.116501	0.578556
	H71	H	0.414469	0.891009	0.398601
	H72	H	0.903833	0.617314	0.086052
	H73	H	0.091090	0.386808	0.082273
	H74	H	0.090221	0.613878	0.901124
	H75	H	0.911687	0.386976	0.894992
	H76	H	0.102220	0.911206	0.609960
	H77	H	0.094355	0.083266	0.375885
	H78	H	0.904603	0.101577	0.607687
	H79	H	0.904860	0.898107	0.371173
	H80	H	0.615639	0.092327	0.899419
	H81	H	0.382800	0.084257	0.083935
	H82	H	0.617537	0.913772	0.090391
	H83	H	0.380723	0.908052	0.897662
	H84	H	0.618258	0.900504	0.081357
	H85	H	0.375881	0.100653	0.091380
	H86	H	0.614326	0.092391	0.899554
	H87	H	0.381247	0.905408	0.899709
	H88	H	0.900801	0.090455	0.606406
	H89	H	0.077497	0.096989	0.376761
	H90	H	0.079158	0.920106	0.600513
	H91	H	0.898205	0.911557	0.373403
	H92	H	0.101627	0.618914	0.896112
	H93	H	0.094022	0.385735	0.083262
	H94	H	0.911868	0.615244	0.087010
	H95	H	0.905924	0.386989	0.901437
	H96	H	0.402660	0.119536	0.595907
	H97	H	0.582539	0.889984	0.580158
	H98	H	0.602633	0.119142	0.400144
	H99	H	0.396117	0.886695	0.402880
	H100	H	0.583721	0.399058	0.106877
	H101	H	0.586784	0.595661	0.874933
	H102	H	0.409529	0.595754	0.105578
	H103	H	0.411099	0.410526	0.875900
	H104	H	0.115661	0.595260	0.400557
	H105	H	0.880418	0.593994	0.587103
	H106	H	0.113793	0.412456	0.580992
	H107	H	0.882931	0.413172	0.402147
	H108	H	0.908025	0.614319	0.079761
	H109	H	0.091263	0.385676	0.085566
	H110	H	0.090223	0.617779	0.888266
	H111	H	0.903698	0.385156	0.893317
	H112	H	0.081372	0.895107	0.609258
	H113	H	0.097878	0.104124	0.368986
	H114	H	0.911964	0.093221	0.603822
	H115	H	0.912614	0.909240	0.377039
	H116	H	0.615704	0.092402	0.899329
	H117	H	0.381631	0.100324	0.072502
	H118	H	0.612218	0.914368	0.074728
	H119	H	0.381238	0.907847	0.900309
	C120	C	0.374784	0.009227	0.613409
	C121	C	0.619004	0.993386	0.611986
	C122	C	0.619760	0.009901	0.367320
	C123	C	0.375540	0.993898	0.367833
	C124	C	0.620383	0.379541	-0.001270
	C125	C	0.620902	0.623780	0.981848
	C126	C	0.378563	0.623277	-0.001288
	C127	C	0.378576	0.379182	0.981951
	C128	C	0.006919	0.622112	0.369686
	C129	C	0.990340	0.622615	0.610874
	C130	C	0.006172	0.379674	0.610604
	C131	C	0.989453	0.379323	0.369291
	C132	C	0.877962	0.508913	0.112881
	C133	C	0.121588	0.493443	0.112528
	C134	C	0.122769	0.509529	0.866357
	C135	C	0.878182	0.493392	0.868344
	C136	C	0.117901	0.880201	0.498856
	C137	C	0.118952	0.123757	0.481847
	C138	C	0.876868	0.122824	0.497865
	C139	C	0.875308	0.878450	0.481743
	C140	C	0.506473	0.121656	0.869998
	C141	C	0.489155	0.123388	0.111330
	C142	C	0.506937	0.880521	0.111063
	C143	C	0.489847	0.878995	0.868865
	C144	C	0.376113	0.887573	0.668270
	C145	C	0.618051	0.114823	0.669119
	C146	C	0.616897	0.888377	0.311892
	C147	C	0.377670	0.115743	0.312886
	C148	C	0.676037	0.382455	0.875418
	C149	C	0.675774	0.620794	0.105354
	C150	C	0.324214	0.619345	0.875316
	C151	C	0.322165	0.382737	0.104832
	C152	C	0.883295	0.677370	0.370301
	C153	C	0.113504	0.679961	0.609814
	C154	C	0.882635	0.323733	0.610884
	C155	C	0.113131	0.323689	0.370087
	C156	C	0.882558	0.381949	0.667579
	C157	C	0.114924	0.620511	0.664941
	C158	C	0.882702	0.618579	0.314843
	C159	C	0.114240	0.382470	0.314456
	C160	C	0.379329	0.679054	0.876409
	C161	C	0.620852	0.680770	0.104239
	C162	C	0.621383	0.321750	0.876921
	C163	C	0.377982	0.323628	0.104184
	C164	C	0.673946	0.887794	0.370746
	C165	C	0.674792	0.115456	0.609599
	C166	C	0.318263	0.887605	0.609924
	C167	C	0.321360	0.116250	0.373082
	C168	C	0.879126	0.387339	0.168092
	C169	C	0.120299	0.614738	0.169351
	C170	C	0.120366	0.387943	0.810416
	C171	C	0.880167	0.615115	0.813020
	C172	C	0.173232	0.883794	0.375249
	C173	C	0.172819	0.120506	0.605313
	C174	C	0.822539	0.118438	0.374593
	C175	C	0.820100	0.883264	0.605026
	C176	C	0.383339	0.177910	0.871394
	C177	C	0.612931	0.179273	0.110716
	C178	C	0.383322	0.824245	0.110195
	C179	C	0.614106	0.825013	0.869929
	C180	C	0.382063	0.883538	0.165448
	C181	C	0.613399	0.120467	0.166022
	C182	C	0.382196	0.119030	0.815568
	C183	C	0.613497	0.881886	0.812231
	C184	C	0.877410	0.178248	0.375532
	C185	C	0.117327	0.179983	0.604443
	C186	C	0.118447	0.823767	0.376242
	C187	C	0.875359	0.823189	0.604150
	C188	C	0.176285	0.386875	0.870474
	C189	C	0.176892	0.615363	0.109611
	C190	C	0.821470	0.387344	0.109489
	C191	C	0.822629	0.615323	0.871396
	C192	C	0.397481	0.094027	0.591900
	C193	C	0.595915	0.908974	0.589197
	C194	C	0.597660	0.094950	0.389664
	C195	C	0.398014	0.908910	0.389193
	C196	C	0.596991	0.402330	0.084158
	C197	C	0.597836	0.601186	0.896661
	C198	C	0.401381	0.601485	0.084265
	C199	C	0.402093	0.400890	0.896201
	C200	C	0.093301	0.600583	0.392424
	C201	C	0.904049	0.599982	0.588935
	C202	C	0.092377	0.402363	0.586721
	C203	C	0.902843	0.401473	0.391693
	C204	C	0.901088	0.593706	0.090599
	C205	C	0.098828	0.408171	0.090158
	C206	C	0.100485	0.594756	0.888652
	C207	C	0.900443	0.408462	0.890280
	C208	C	0.094362	0.902281	0.584296
	C209	C	0.096560	0.101416	0.396012
	C210	C	0.899106	0.101330	0.583852
	C211	C	0.898536	0.899873	0.396001
	C212	C	0.592837	0.098963	0.892667
	C213	C	0.402510	0.101494	0.089117
	C214	C	0.593574	0.902973	0.088748
	C215	C	0.403481	0.900747	0.892345
	Zn216	Zn	0.497314	0.000736	0.742169
	Zn217	Zn	0.497531	0.002376	0.238163
	Zn218	Zn	0.748618	0.501650	-0.009475
	Zn219	Zn	0.250717	0.501155	-0.010151
	Zn220	Zn	-0.002316	0.750926	0.489969
	Zn221	Zn	-0.002826	0.251904	0.489479
	Zn222	Zn	-0.000863	0.501481	0.738270
	Zn223	Zn	-0.000794	0.501160	0.242577
	Zn224	Zn	0.499298	0.751860	-0.009571
	Zn225	Zn	0.499148	0.250558	-0.009818
	Zn226	Zn	0.748656	0.001730	0.489828
	Zn227	Zn	0.245968	0.001448	0.490697
	N228	N	0.410240	0.964211	0.670853
	N229	N	0.584054	0.037927	0.670838
	N230	N	0.584028	0.965286	0.309564
	N231	N	0.410448	0.038610	0.309405
	N232	N	0.675669	0.417768	0.952146
	N233	N	0.676103	0.586024	0.028198
	N234	N	0.323470	0.585470	0.952237
	N235	N	0.322295	0.416674	0.027637
	N236	N	0.961582	0.679885	0.403669
	N237	N	0.035141	0.681482	0.576995
	N238	N	0.960581	0.322254	0.576361
	N239	N	0.034671	0.321816	0.403368
	N240	N	0.960413	0.416274	0.667364
	N241	N	0.037327	0.585588	0.665872
	N242	N	0.960596	0.584902	0.314488
	N243	N	0.036408	0.416566	0.313791
	N244	N	0.412451	0.681536	0.954201
	N245	N	0.587656	0.682914	0.026663
	N246	N	0.587559	0.320086	0.954568
	N247	N	0.412145	0.321213	0.026626
	N248	N	0.675886	0.964587	0.404583
	N249	N	0.675632	0.039100	0.574849
	N250	N	0.317455	0.964259	0.576321
	N251	N	0.319944	0.039614	0.406560
	N252	N	0.913641	0.463971	0.170077
	N253	N	0.086912	0.537743	0.171482
	N254	N	0.088161	0.465307	0.807397
	N255	N	0.913677	0.538231	0.810724
	N256	N	0.172697	0.918450	0.452288
	N257	N	0.173805	0.086043	0.528208
	N258	N	0.821790	0.084918	0.451886
	N259	N	0.819716	0.916544	0.527810
	N260	N	0.461685	0.179858	0.904249
	N261	N	0.534708	0.181076	0.077227
	N262	N	0.461865	0.822317	0.076969
	N263	N	0.536144	0.823041	0.904496
	N264	N	0.460066	0.917534	0.166457
	N265	N	0.535336	0.086659	0.166721
	N266	N	0.459887	0.084694	0.814745
	N267	N	0.535282	0.914859	0.811773
	N268	N	0.910445	0.180829	0.453160
	N269	N	0.084533	0.182019	0.526508
	N270	N	0.084680	0.821435	0.453928
	N271	N	0.908958	0.820102	0.526339
	N272	N	0.177959	0.463707	0.904465
	N273	N	0.177656	0.538788	0.074903
	N274	N	0.820497	0.463978	0.075936
	N275	N	0.821087	0.538652	0.904950
	O276	O	-0.008527	-0.066208	-0.036643
	H277	H	-0.000190	-0.056996	-0.034740
	H278	H	-0.003750	-0.068541	-0.034383
	O279	O	0.975455	-0.037797	0.997040
	H280	H	0.975559	-0.043899	0.990538
	H281	H	0.979598	-0.036027	1.000284
	O282	O	0.518856	0.573596	0.476930
	H283	H	0.527109	0.570288	0.493976
	H284	H	0.512116	0.571602	0.482096
	O285	O	-0.024025	0.991669	0.944127
	H286	H	-0.024600	0.980572	0.949076
	H287	H	-0.024361	0.992651	0.941210
	O288	O	0.507638	0.562239	0.432356
	H289	H	0.508140	0.562792	0.427603
	H290	H	0.508629	0.559517	0.428500
	O291	O	0.498722	0.370366	1.435763
	H292	H	0.497972	0.369608	1.442851
	H293	H	0.504138	0.371023	1.436051
	O294	O	0.979437	1.056148	1.004104
	H295	H	0.970410	1.053790	1.004011
	H296	H	0.983642	1.052258	1.005829
	O297	O	0.906355	-0.019668	0.984498
	H298	H	0.897999	-0.021756	0.989401
	H299	H	0.910436	-0.027469	1.000106
	O300	O	0.491636	0.529936	0.515704
	H301	H	0.489168	0.525438	0.509504
	H302	H	0.488768	0.528671	0.511598
	O303	O	0.983454	-0.068136	0.011811
	H304	H	0.981464	-0.065910	0.011686
	H305	H	0.987282	-0.068418	0.006426
	O306	O	-0.486178	1.452266	0.530398
	H307	H	-0.485188	1.461358	0.535027
	H308	H	-0.496319	1.448821	0.523670
	O309	O	0.572055	0.506407	0.531570
	H310	H	0.580073	0.518389	0.540858
	H311	H	0.572167	0.511909	0.532374
	O312	O	1.495628	0.474108	1.482676
	H313	H	1.499264	0.480185	1.493011
	H314	H	1.502347	0.483389	1.482697
	O315	O	0.434660	0.434166	0.458269
	H316	H	0.433910	0.434772	0.455923
	H317	H	0.439011	0.420549	0.454036
	O318	O	0.486843	0.572014	0.438014
	H319	H	0.501958	0.559232	0.439831
	H320	H	0.488452	0.569586	0.454743
	O321	O	1.074220	1.013397	1.011327
	H322	H	1.070106	1.014975	1.017948
	H323	H	1.069286	1.013304	1.016653
	O324	O	0.521948	0.484344	0.470805
	H325	H	0.522896	0.481652	0.477529
	H326	H	0.521465	0.476756	0.481981
	O327	O	0.554009	0.485882	0.601809
	H328	H	0.544164	0.482571	0.592040
	H329	H	0.555211	0.486873	0.602721
	O330	O	0.936451	-0.019455	1.002533
	H331	H	0.932555	-0.013956	1.004448
	H332	H	0.934808	-0.012468	0.988732
	O333	O	0.990721	0.959233	0.013815
	H334	H	0.989657	0.960567	0.014828
	H335	H	0.993950	0.948680	0.010004
	O336	O	0.447506	0.540391	0.558785
	H337	H	0.435442	0.551172	0.552983
	H338	H	0.451515	0.547391	0.547334
	O339	O	0.419931	0.444155	0.466881
	H340	H	0.427684	0.436237	0.459241
	H341	H	0.421096	0.442512	0.468282
	O342	O	-0.049884	1.071199	-0.056165
	H343	H	-0.053016	1.076519	-0.061655
	H344	H	-0.054285	1.072792	-0.052780
	O345	O	-0.007214	0.024979	-0.063054
	H346	H	0.004002	0.022561	-0.072753
	H347	H	-0.012557	0.007857	-0.066852
	O348	O	0.517478	0.520008	0.541397
	H349	H	0.519897	0.512535	0.546774
	H350	H	0.523361	0.521433	0.552911
	O351	O	0.498999	0.608817	0.482770
	H352	H	0.498590	0.602395	0.486644
	H353	H	0.501596	0.610114	0.484143
	O354	O	0.468783	0.545766	0.522300
	H355	H	0.462021	0.542589	0.522925
	H356	H	0.462336	0.545575	0.530628
	O357	O	0.414195	0.520651	0.455880
	H358	H	0.417775	0.515778	0.456756
	H359	H	0.409004	0.526519	0.446441
	O360	O	-0.007848	0.048243	0.004684
	H361	H	-0.001528	0.045261	0.014635
	H362	H	-0.008074	0.056169	0.002211
	O363	O	0.550100	0.586571	0.584512
	H364	H	0.534492	0.599404	0.580845
	H365	H	0.544276	0.599176	0.577299
	O366	O	0.049749	0.067246	1.035204
	H367	H	0.045688	0.079595	1.029579
	H368	H	0.043371	0.072689	1.039632
	O369	O	0.510510	0.395264	0.514082
	H370	H	0.519004	0.382544	0.510736
	H371	H	0.498386	0.403167	0.515693
