data_Molecule from HDF5

_cell_length_a		16.330724
_cell_length_b		16.273341
_cell_length_c		16.374420
_cell_angle_alpha	90.058698
_cell_angle_beta	89.978337
_cell_angle_gamma	90.012030
_symmetry_space_group_name_H-M	'P 1'
_symmetry_Int_Tables_number		1

loop_
	_symmetry_equiv_pos_as_xyz
	x,y,z

loop_
	_atom_site_label
	_atom_site_type_symbol
	_atom_site_fract_x
	_atom_site_fract_y
	_atom_site_fract_z
	H0	H	0.402374	0.831730	0.714979
	H1	H	0.599666	0.158603	0.716132
	H2	H	0.600109	0.832881	0.287239
	H3	H	0.402151	0.159406	0.285999
	H4	H	0.717066	0.396365	0.837632
	H5	H	0.716727	0.595010	0.163732
	H6	H	0.285719	0.594177	0.838949
	H7	H	0.286416	0.397923	0.164440
	H8	H	0.837644	0.709207	0.403962
	H9	H	0.163871	0.711422	0.599680
	H10	H	0.837157	0.284101	0.597255
	H11	H	0.165313	0.281045	0.404092
	H12	H	0.838555	0.396603	0.716767
	H13	H	0.164513	0.595025	0.715965
	H14	H	0.838686	0.594800	0.285855
	H15	H	0.164750	0.395779	0.285632
	H16	H	0.403935	0.709575	0.837581
	H17	H	0.598820	0.709563	0.163732
	H18	H	0.598599	0.281970	0.837439
	H19	H	0.403202	0.281320	0.165145
	H20	H	0.716511	0.833070	0.402073
	H21	H	0.713990	0.160394	0.598419
	H22	H	0.286833	0.832288	0.599451
	H23	H	0.287628	0.160351	0.404248
	H24	H	0.902871	0.331876	0.215750
	H25	H	0.100408	0.659683	0.216201
	H26	H	0.100292	0.332407	0.785665
	H27	H	0.903468	0.660005	0.787455
	H28	H	0.216626	0.896435	0.339035
	H29	H	0.217233	0.096312	0.663946
	H30	H	0.787440	0.093154	0.338839
	H31	H	0.784937	0.896347	0.663700
	H32	H	0.338082	0.210022	0.903490
	H33	H	0.665109	0.210614	0.099603
	H34	H	0.337949	0.782168	0.098212
	H35	H	0.665438	0.781497	0.903779
	H36	H	0.338763	0.896146	0.216539
	H37	H	0.664466	0.095663	0.217497
	H38	H	0.338508	0.094397	0.786097
	H39	H	0.663881	0.894969	0.784615
	H40	H	0.903066	0.210003	0.338824
	H41	H	0.099604	0.211214	0.664652
	H42	H	0.099249	0.780572	0.339026
	H43	H	0.902538	0.781312	0.664067
	H44	H	0.215448	0.331652	0.902953
	H45	H	0.215984	0.659684	0.099550
	H46	H	0.788160	0.331725	0.098108
	H47	H	0.789352	0.660355	0.904623
	H48	H	0.414152	0.114910	0.608739
	H49	H	0.586588	0.881761	0.593612
	H50	H	0.586353	0.108147	0.417132
	H51	H	0.406913	0.876942	0.399661
	H52	H	0.596259	0.402260	0.116276
	H53	H	0.588057	0.587102	0.887932
	H54	H	0.414094	0.587165	0.113686
	H55	H	0.405477	0.401939	0.885332
	H56	H	0.117166	0.583095	0.403401
	H57	H	0.885287	0.594155	0.587347
	H58	H	0.121008	0.394301	0.598000
	H59	H	0.882833	0.399976	0.396626
	H60	H	0.113349	0.404699	0.583709
	H61	H	0.887711	0.578704	0.594087
	H62	H	0.119176	0.594876	0.407347
	H63	H	0.885795	0.394366	0.415803
	H64	H	0.407737	0.594736	0.118658
	H65	H	0.598506	0.597165	0.882187
	H66	H	0.596270	0.404864	0.115730
	H67	H	0.409324	0.404652	0.887134
	H68	H	0.604890	0.114770	0.411788
	H69	H	0.596526	0.880151	0.586238
	H70	H	0.418607	0.105681	0.583506
	H71	H	0.415672	0.883015	0.410873
	H72	H	0.916756	0.612122	0.101857
	H73	H	0.093301	0.377258	0.104830
	H74	H	0.092740	0.610811	0.911092
	H75	H	0.909016	0.382678	0.914987
	H76	H	0.092447	0.906244	0.616017
	H77	H	0.092641	0.091751	0.386539
	H78	H	0.904522	0.090425	0.618869
	H79	H	0.903552	0.909947	0.386496
	H80	H	0.618431	0.090490	0.907994
	H81	H	0.387429	0.081015	0.097040
	H82	H	0.616434	0.901855	0.089373
	H83	H	0.386108	0.900891	0.907798
	H84	H	0.616683	0.908237	0.098665
	H85	H	0.383497	0.093137	0.097922
	H86	H	0.615914	0.086385	0.909899
	H87	H	0.386403	0.904044	0.909521
	H88	H	0.906440	0.086544	0.616833
	H89	H	0.097497	0.087521	0.385659
	H90	H	0.093111	0.899586	0.617953
	H91	H	0.916325	0.901644	0.388118
	H92	H	0.097793	0.613474	0.908816
	H93	H	0.083614	0.384197	0.088197
	H94	H	0.911090	0.607781	0.084932
	H95	H	0.902628	0.376679	0.905135
	H96	H	0.394082	0.114918	0.590333
	H97	H	0.597551	0.876948	0.598268
	H98	H	0.589857	0.114207	0.398237
	H99	H	0.400656	0.879311	0.413194
	H100	H	0.594159	0.403467	0.114807
	H101	H	0.602586	0.582392	0.885019
	H102	H	0.404287	0.584978	0.116642
	H103	H	0.409963	0.399902	0.886037
	H104	H	0.114292	0.586119	0.415167
	H105	H	0.881925	0.592304	0.603972
	H106	H	0.116326	0.413573	0.600899
	H107	H	0.889577	0.414034	0.409296
	H108	H	0.900050	0.615969	0.096757
	H109	H	0.103314	0.379357	0.087240
	H110	H	0.093009	0.611915	0.905270
	H111	H	0.915104	0.380237	0.903576
	H112	H	0.098484	0.903283	0.618008
	H113	H	0.091345	0.085246	0.387828
	H114	H	0.909406	0.090910	0.617897
	H115	H	0.903470	0.895431	0.382109
	H116	H	0.617202	0.086573	0.905224
	H117	H	0.388489	0.088241	0.086885
	H118	H	0.620312	0.898062	0.098391
	H119	H	0.385566	0.903115	0.905906
	C120	C	0.379845	0.003776	0.622563
	C121	C	0.622513	0.987642	0.621746
	C122	C	0.622821	0.004426	0.380315
	C123	C	0.379058	0.987874	0.379373
	C124	C	0.623923	0.374208	0.008515
	C125	C	0.624004	0.617356	0.992711
	C126	C	0.379945	0.617267	0.009035
	C127	C	0.379636	0.373753	0.993743
	C128	C	0.009378	0.616803	0.380064
	C129	C	0.992949	0.617215	0.623198
	C130	C	0.009402	0.375026	0.622764
	C131	C	0.993685	0.373750	0.379134
	C132	C	0.880505	0.503868	0.122848
	C133	C	0.122823	0.488005	0.122457
	C134	C	0.123367	0.504067	0.879387
	C135	C	0.880685	0.487901	0.879652
	C136	C	0.122796	0.874583	0.509760
	C137	C	0.122512	0.117531	0.494012
	C138	C	0.879197	0.117560	0.510066
	C139	C	0.879247	0.874288	0.493148
	C140	C	0.509485	0.116719	0.879466
	C141	C	0.493676	0.117240	0.122864
	C142	C	0.509772	0.874128	0.123212
	C143	C	0.493597	0.873848	0.879464
	C144	C	0.382151	0.880610	0.677164
	C145	C	0.619895	0.110277	0.677560
	C146	C	0.620683	0.881577	0.324940
	C147	C	0.381568	0.110643	0.324059
	C148	C	0.679020	0.376183	0.886241
	C149	C	0.678643	0.615077	0.115108
	C150	C	0.324469	0.614763	0.886849
	C151	C	0.324453	0.376856	0.116025
	C152	C	0.886581	0.671862	0.382907
	C153	C	0.115451	0.672979	0.620521
	C154	C	0.886297	0.320699	0.619323
	C155	C	0.116344	0.318650	0.382800
	C156	C	0.886962	0.376787	0.678370
	C157	C	0.115618	0.615138	0.678107
	C158	C	0.887059	0.614815	0.324336
	C159	C	0.116334	0.375827	0.324187
	C160	C	0.382951	0.672098	0.886430
	C161	C	0.619764	0.671896	0.115307
	C162	C	0.620248	0.319191	0.886298
	C163	C	0.382604	0.319024	0.116166
	C164	C	0.678347	0.881847	0.382187
	C165	C	0.676817	0.111103	0.619137
	C166	C	0.324728	0.880809	0.619742
	C167	C	0.324806	0.111101	0.382892
	C168	C	0.882612	0.380756	0.177809
	C169	C	0.120918	0.610878	0.178255
	C170	C	0.120704	0.381111	0.823945
	C171	C	0.883318	0.611272	0.825310
	C172	C	0.178349	0.876257	0.387375
	C173	C	0.178893	0.116415	0.615623
	C174	C	0.824476	0.114764	0.387689
	C175	C	0.823577	0.876114	0.615403
	C176	C	0.386995	0.172125	0.882583
	C177	C	0.616554	0.172413	0.120348
	C178	C	0.386947	0.819325	0.119358
	C179	C	0.616530	0.818978	0.882689
	C180	C	0.387236	0.876149	0.178018
	C181	C	0.616166	0.115522	0.178906
	C182	C	0.386932	0.114383	0.824602
	C183	C	0.615757	0.875285	0.823611
	C184	C	0.882634	0.172160	0.387581
	C185	C	0.120225	0.173374	0.616057
	C186	C	0.119827	0.818921	0.387381
	C187	C	0.882081	0.819289	0.615635
	C188	C	0.177906	0.380634	0.882312
	C189	C	0.178155	0.610949	0.120233
	C190	C	0.825298	0.380832	0.119723
	C191	C	0.826353	0.611323	0.883254
	C192	C	0.402327	0.089718	0.600609
	C193	C	0.600119	0.901791	0.599338
	C194	C	0.600295	0.090174	0.402439
	C195	C	0.401141	0.901929	0.401364
	C196	C	0.601911	0.396882	0.093817
	C197	C	0.602548	0.595337	0.907088
	C198	C	0.402046	0.595347	0.094434
	C199	C	0.401743	0.395846	0.908120
	C200	C	0.094936	0.594472	0.402160
	C201	C	0.907096	0.595042	0.601514
	C202	C	0.094895	0.397506	0.600594
	C203	C	0.908125	0.396172	0.400801
	C204	C	0.902752	0.589707	0.101145
	C205	C	0.100015	0.402423	0.100108
	C206	C	0.101281	0.589872	0.901938
	C207	C	0.902548	0.402048	0.901440
	C208	C	0.100958	0.896542	0.595164
	C209	C	0.100236	0.094810	0.408699
	C210	C	0.900465	0.095826	0.595771
	C211	C	0.901084	0.896102	0.407824
	C212	C	0.595052	0.094281	0.901330
	C213	C	0.408588	0.094313	0.100485
	C214	C	0.595612	0.896153	0.101947
	C215	C	0.407994	0.896306	0.901301
	Zn216	Zn	0.501071	-0.004834	0.750437
	Zn217	Zn	0.501789	-0.003804	0.251689
	Zn218	Zn	0.752823	0.496150	0.000593
	Zn219	Zn	0.251150	0.495649	0.001460
	Zn220	Zn	0.000820	0.745298	0.501652
	Zn221	Zn	0.001344	0.246184	0.502187
	Zn222	Zn	0.001246	0.496147	0.751610
	Zn223	Zn	0.002014	0.496175	0.250830
	Zn224	Zn	0.501757	0.745830	0.000885
	Zn225	Zn	0.501961	0.245262	0.001400
	Zn226	Zn	0.750994	-0.004319	0.501185
	Zn227	Zn	0.251420	-0.003926	0.501671
	N228	N	0.415817	0.958042	0.678788
	N229	N	0.586805	0.032525	0.679289
	N230	N	0.586384	0.958772	0.323867
	N231	N	0.414743	0.032986	0.321962
	N232	N	0.681209	0.410101	0.963248
	N233	N	0.681402	0.582070	0.037844
	N234	N	0.322474	0.581466	0.964043
	N235	N	0.322672	0.410148	0.038863
	N236	N	0.963636	0.673171	0.416787
	N237	N	0.038146	0.674201	0.586958
	N238	N	0.963288	0.319509	0.585436
	N239	N	0.039127	0.317147	0.416030
	N240	N	0.964473	0.409703	0.680770
	N241	N	0.038395	0.581276	0.679791
	N242	N	0.964521	0.581482	0.322462
	N243	N	0.039131	0.409598	0.321895
	N244	N	0.416861	0.673533	0.963272
	N245	N	0.586581	0.673440	0.038154
	N246	N	0.586803	0.317743	0.963346
	N247	N	0.416171	0.317217	0.039044
	N248	N	0.679705	0.959151	0.415695
	N249	N	0.678516	0.033710	0.585294
	N250	N	0.323147	0.958448	0.586419
	N251	N	0.323142	0.033607	0.416265
	N252	N	0.915998	0.458292	0.180042
	N253	N	0.087168	0.533434	0.179672
	N254	N	0.087339	0.458696	0.822256
	N255	N	0.916331	0.533599	0.823071
	N256	N	0.180170	0.910104	0.464217
	N257	N	0.180429	0.082395	0.538605
	N258	N	0.822613	0.081378	0.464692
	N259	N	0.821813	0.909709	0.538365
	N260	N	0.464191	0.173437	0.916164
	N261	N	0.539756	0.173489	0.086286
	N262	N	0.464207	0.818051	0.085936
	N263	N	0.539477	0.817661	0.916448
	N264	N	0.464550	0.909552	0.180700
	N265	N	0.538780	0.081666	0.180498
	N266	N	0.464200	0.080868	0.822373
	N267	N	0.538351	0.908809	0.821691
	N268	N	0.916016	0.174053	0.464819
	N269	N	0.086088	0.174087	0.539241
	N270	N	0.086100	0.817553	0.464491
	N271	N	0.915972	0.817850	0.538684
	N272	N	0.179681	0.458153	0.915908
	N273	N	0.179475	0.533491	0.086389
	N274	N	0.824061	0.458218	0.085900
	N275	N	0.824677	0.533662	0.916441
	O276	O	0.112208	0.107162	1.041720
	H277	H	0.120171	0.119587	1.041407
	H278	H	0.102092	0.091923	1.049444
	O279	O	0.514431	0.536684	0.469852
	H280	H	0.525939	0.540288	0.470817
	H281	H	0.516783	0.541269	0.471714
	O282	O	0.479755	0.529660	0.477577
	H283	H	0.484370	0.526489	0.480468
	H284	H	0.483775	0.526979	0.474673
	O285	O	0.530227	0.528552	0.493999
	H286	H	0.523770	0.527551	0.490859
	H287	H	0.523556	0.523958	0.494695
	O288	O	0.089499	1.055581	0.068187
	H289	H	0.081004	1.059243	0.075194
	H290	H	0.090862	1.038025	0.064841
	O291	O	0.112941	1.086769	1.036686
	H292	H	0.107033	1.098762	1.037493
	H293	H	0.131537	1.091598	1.040386
	O294	O	0.516574	0.555929	0.464990
	H295	H	0.509422	0.562951	0.463566
	H296	H	0.511164	0.556684	0.463066
	O297	O	1.084195	0.047440	0.053100
	H298	H	1.087759	0.046977	0.048402
	H299	H	1.088332	0.062057	0.049098
