data_Molecule from HDF5

_cell_length_a		16.357044
_cell_length_b		16.340747
_cell_length_c		16.289841
_cell_angle_alpha	90.044130
_cell_angle_beta	89.921895
_cell_angle_gamma	89.981798
_symmetry_space_group_name_H-M	'P 1'
_symmetry_Int_Tables_number		1

loop_
	_symmetry_equiv_pos_as_xyz
	x,y,z

loop_
	_atom_site_label
	_atom_site_type_symbol
	_atom_site_fract_x
	_atom_site_fract_y
	_atom_site_fract_z
	H0	H	0.402345	0.836114	0.714412
	H1	H	0.597099	0.163891	0.714568
	H2	H	0.596613	0.835798	0.286413
	H3	H	0.402645	0.163478	0.286689
	H4	H	0.714653	0.402313	0.835827
	H5	H	0.714699	0.597991	0.163836
	H6	H	0.286260	0.598251	0.835854
	H7	H	0.284132	0.400599	0.162547
	H8	H	0.836228	0.715575	0.400899
	H9	H	0.162157	0.714809	0.597551
	H10	H	0.837039	0.284960	0.599259
	H11	H	0.162565	0.285293	0.400920
	H12	H	0.836694	0.402605	0.714536
	H13	H	0.162752	0.597008	0.712650
	H14	H	0.836541	0.597964	0.285624
	H15	H	0.163593	0.404398	0.287034
	H16	H	0.401973	0.714857	0.837210
	H17	H	0.597977	0.713652	0.164425
	H18	H	0.599771	0.284343	0.836705
	H19	H	0.402242	0.286586	0.163847
	H20	H	0.714260	0.836274	0.401953
	H21	H	0.714304	0.163869	0.597975
	H22	H	0.284348	0.837045	0.599319
	H23	H	0.286419	0.163311	0.402521
	H24	H	0.901947	0.336598	0.214582
	H25	H	0.097289	0.663739	0.213271
	H26	H	0.097552	0.335989	0.785776
	H27	H	0.903726	0.664035	0.786255
	H28	H	0.214630	0.901844	0.336629
	H29	H	0.213060	0.097685	0.664111
	H30	H	0.785874	0.097781	0.336132
	H31	H	0.785875	0.902052	0.664160
	H32	H	0.337331	0.216197	0.900973
	H33	H	0.663297	0.214124	0.098749
	H34	H	0.337189	0.785488	0.098313
	H35	H	0.663538	0.784993	0.901877
	H36	H	0.336619	0.902344	0.214079
	H37	H	0.662580	0.097671	0.215231
	H38	H	0.336548	0.097832	0.786393
	H39	H	0.663619	0.903007	0.786518
	H40	H	0.902471	0.213076	0.335756
	H41	H	0.096902	0.214105	0.663545
	H42	H	0.097293	0.786390	0.336264
	H43	H	0.901775	0.786655	0.663789
	H44	H	0.215491	0.337506	0.900924
	H45	H	0.214912	0.663408	0.097405
	H46	H	0.785600	0.336894	0.098186
	H47	H	0.785838	0.664081	0.902023
	H48	H	0.411481	0.114823	0.594992
	H49	H	0.597965	0.883567	0.593454
	H50	H	0.593595	0.116979	0.401974
	H51	H	0.400062	0.880365	0.402088
	H52	H	0.584779	0.402152	0.115177
	H53	H	0.595594	0.592168	0.884059
	H54	H	0.396013	0.590396	0.118714
	H55	H	0.416019	0.407434	0.886602
	H56	H	0.115567	0.592278	0.403631
	H57	H	0.884136	0.588803	0.594041
	H58	H	0.117114	0.409947	0.599353
	H59	H	0.881953	0.405107	0.403379
	H60	H	0.117075	0.399035	0.591444
	H61	H	0.881843	0.596076	0.596940
	H62	H	0.116056	0.596932	0.406354
	H63	H	0.884211	0.403457	0.409172
	H64	H	0.413090	0.582961	0.111840
	H65	H	0.591602	0.592446	0.884812
	H66	H	0.601713	0.401781	0.119680
	H67	H	0.405382	0.401195	0.880883
	H68	H	0.588821	0.113631	0.409801
	H69	H	0.592213	0.883187	0.597093
	H70	H	0.404097	0.115048	0.588496
	H71	H	0.413764	0.884479	0.402769
	H72	H	0.910080	0.616280	0.098712
	H73	H	0.100524	0.382971	0.090290
	H74	H	0.093849	0.617555	0.900444
	H75	H	0.917094	0.388305	0.907159
	H76	H	0.086285	0.917962	0.611074
	H77	H	0.095384	0.091903	0.383710
	H78	H	0.900351	0.095743	0.618651
	H79	H	0.907922	0.918653	0.387671
	H80	H	0.616836	0.095257	0.905332
	H81	H	0.388003	0.089621	0.085717
	H82	H	0.615464	0.911978	0.097421
	H83	H	0.382372	0.909899	0.896486
	H84	H	0.618700	0.900170	0.096795
	H85	H	0.383696	0.089740	0.100572
	H86	H	0.614952	0.094108	0.909390
	H87	H	0.382258	0.895659	0.910049
	H88	H	0.907525	0.085101	0.613353
	H89	H	0.091206	0.092359	0.384551
	H90	H	0.085817	0.895061	0.617855
	H91	H	0.915713	0.899649	0.384585
	H92	H	0.088788	0.613503	0.908000
	H93	H	0.092461	0.382385	0.100817
	H94	H	0.909098	0.613594	0.088102
	H95	H	0.901753	0.385431	0.915667
	H96	H	0.402511	0.118186	0.597784
	H97	H	0.591762	0.885915	0.590491
	H98	H	0.598239	0.115781	0.410026
	H99	H	0.405106	0.885799	0.414733
	H100	H	0.594784	0.416459	0.113452
	H101	H	0.593355	0.595753	0.883367
	H102	H	0.412350	0.602341	0.117045
	H103	H	0.404189	0.414294	0.884726
	H104	H	0.113994	0.592460	0.408436
	H105	H	0.884068	0.596141	0.589258
	H106	H	0.112147	0.410587	0.586186
	H107	H	0.884475	0.409282	0.407163
	H108	H	0.900765	0.617808	0.093698
	H109	H	0.088510	0.387485	0.089229
	H110	H	0.098256	0.615842	0.909347
	H111	H	0.903335	0.381280	0.898002
	H112	H	0.105995	0.907358	0.619961
	H113	H	0.093566	0.095353	0.383122
	H114	H	0.913261	0.097394	0.615231
	H115	H	0.896173	0.903675	0.379791
	H116	H	0.615204	0.090748	0.905793
	H117	H	0.381882	0.102027	0.092089
	H118	H	0.614041	0.905941	0.087231
	H119	H	0.388967	0.914013	0.914664
	C120	C	0.378196	0.007951	0.622107
	C121	C	0.621541	0.992139	0.621657
	C122	C	0.621446	0.007535	0.378819
	C123	C	0.378533	0.991686	0.378704
	C124	C	0.622209	0.378390	0.007984
	C125	C	0.621449	0.621239	0.992341
	C126	C	0.378876	0.620652	0.007864
	C127	C	0.379076	0.378682	0.991992
	C128	C	0.007354	0.621797	0.378369
	C129	C	0.991197	0.621611	0.621113
	C130	C	0.007684	0.378531	0.621184
	C131	C	0.991412	0.378075	0.378217
	C132	C	0.878149	0.508150	0.121738
	C133	C	0.121812	0.492434	0.121003
	C134	C	0.122129	0.508022	0.877429
	C135	C	0.878873	0.492516	0.878305
	C136	C	0.121125	0.878407	0.508358
	C137	C	0.121497	0.121391	0.491875
	C138	C	0.878580	0.121286	0.507769
	C139	C	0.878228	0.878784	0.491837
	C140	C	0.507924	0.122038	0.878431
	C141	C	0.491917	0.121488	0.121600
	C142	C	0.508357	0.877736	0.122188
	C143	C	0.492340	0.878297	0.878769
	C144	C	0.381272	0.885120	0.676858
	C145	C	0.618251	0.115169	0.676761
	C146	C	0.617937	0.884715	0.324046
	C147	C	0.381496	0.114538	0.323847
	C148	C	0.677257	0.381054	0.884913
	C149	C	0.676579	0.618453	0.115392
	C150	C	0.323853	0.618816	0.885068
	C151	C	0.322874	0.380657	0.114194
	C152	C	0.884991	0.677347	0.380613
	C153	C	0.113763	0.676341	0.617890
	C154	C	0.885300	0.323261	0.619043
	C155	C	0.114264	0.323703	0.381087
	C156	C	0.885202	0.381470	0.676434
	C157	C	0.114111	0.617784	0.674939
	C158	C	0.884649	0.618647	0.323777
	C159	C	0.114685	0.382515	0.324359
	C160	C	0.381492	0.676466	0.885426
	C161	C	0.618605	0.675857	0.115627
	C162	C	0.619985	0.322864	0.885290
	C163	C	0.381616	0.324132	0.115053
	C164	C	0.676362	0.884824	0.381567
	C165	C	0.676301	0.115272	0.618904
	C166	C	0.322903	0.885435	0.619487
	C167	C	0.323907	0.114416	0.381727
	C168	C	0.881124	0.385300	0.176746
	C169	C	0.117980	0.615217	0.175324
	C170	C	0.118816	0.385153	0.822959
	C171	C	0.882177	0.615373	0.823365
	C172	C	0.176152	0.881238	0.385259
	C173	C	0.175468	0.118266	0.615159
	C174	C	0.824035	0.118302	0.384801
	C175	C	0.823547	0.881687	0.615266
	C176	C	0.385709	0.177486	0.881077
	C177	C	0.614676	0.176062	0.118931
	C178	C	0.385687	0.823173	0.119147
	C179	C	0.614865	0.823576	0.881583
	C180	C	0.385379	0.881233	0.176572
	C181	C	0.614331	0.118553	0.176988
	C182	C	0.385267	0.118946	0.824050
	C183	C	0.615009	0.881749	0.823922
	C184	C	0.881738	0.175815	0.384789
	C185	C	0.118020	0.176219	0.614826
	C186	C	0.118210	0.823676	0.385175
	C187	C	0.881175	0.824381	0.615121
	C188	C	0.177428	0.385659	0.880013
	C189	C	0.176497	0.614950	0.117920
	C190	C	0.823457	0.385503	0.118825
	C191	C	0.823829	0.615228	0.880966
	C192	C	0.399751	0.093832	0.600423
	C193	C	0.600146	0.906426	0.600059
	C194	C	0.599967	0.093360	0.400851
	C195	C	0.400069	0.905692	0.400307
	C196	C	0.600399	0.400475	0.093862
	C197	C	0.599827	0.599742	0.906325
	C198	C	0.400784	0.598417	0.093690
	C199	C	0.401873	0.400982	0.906203
	C200	C	0.093049	0.600165	0.399883
	C201	C	0.905321	0.600255	0.599706
	C202	C	0.093343	0.400256	0.598790
	C203	C	0.905743	0.399598	0.400073
	C204	C	0.900110	0.593679	0.099857
	C205	C	0.100216	0.406469	0.099661
	C206	C	0.100100	0.593608	0.899321
	C207	C	0.900874	0.407075	0.900466
	C208	C	0.099242	0.900346	0.594202
	C209	C	0.099818	0.099530	0.405723
	C210	C	0.900555	0.099245	0.593628
	C211	C	0.900011	0.900893	0.406101
	C212	C	0.593575	0.099870	0.900348
	C213	C	0.406473	0.099993	0.099389
	C214	C	0.594009	0.899455	0.100259
	C215	C	0.406610	0.900145	0.900643
	Zn216	Zn	0.499743	0.000031	0.750172
	Zn217	Zn	0.499676	-0.000272	0.249884
	Zn218	Zn	0.750183	0.500507	-0.000184
	Zn219	Zn	0.250585	0.499972	-0.000426
	Zn220	Zn	-0.000956	0.750663	0.499654
	Zn221	Zn	-0.000344	0.249901	0.499838
	Zn222	Zn	-0.000053	0.499783	0.749457
	Zn223	Zn	-0.000336	0.500054	0.249868
	Zn224	Zn	0.500416	0.749447	0.000675
	Zn225	Zn	0.500303	0.250327	0.000217
	Zn226	Zn	0.750246	-0.000140	0.500224
	Zn227	Zn	0.250308	-0.000122	0.500216
	N228	N	0.415000	0.962160	0.678431
	N229	N	0.584979	0.037705	0.678614
	N230	N	0.584656	0.961888	0.322236
	N231	N	0.414991	0.037287	0.322073
	N232	N	0.678595	0.415042	0.962166
	N233	N	0.678547	0.585312	0.037838
	N234	N	0.322525	0.584629	0.962168
	N235	N	0.321664	0.414069	0.036854
	N236	N	0.962356	0.679346	0.413678
	N237	N	0.036288	0.678953	0.585318
	N238	N	0.962481	0.321701	0.585171
	N239	N	0.036705	0.321022	0.413766
	N240	N	0.962317	0.414817	0.677979
	N241	N	0.036935	0.584492	0.676991
	N242	N	0.961618	0.584742	0.322230
	N243	N	0.037229	0.415411	0.322110
	N244	N	0.415149	0.677706	0.962813
	N245	N	0.584981	0.677428	0.038236
	N246	N	0.586421	0.321134	0.962723
	N247	N	0.416153	0.322931	0.037879
	N248	N	0.678546	0.962269	0.414989
	N249	N	0.678537	0.037959	0.585545
	N250	N	0.320794	0.962830	0.586314
	N251	N	0.322105	0.037053	0.415146
	N252	N	0.914585	0.462513	0.178491
	N253	N	0.084726	0.537859	0.177615
	N254	N	0.085108	0.462220	0.821330
	N255	N	0.915935	0.538238	0.821953
	N256	N	0.178183	0.914700	0.462770
	N257	N	0.177598	0.084734	0.537598
	N258	N	0.822041	0.085027	0.462312
	N259	N	0.821593	0.914908	0.537696
	N260	N	0.462995	0.179201	0.914337
	N261	N	0.537614	0.177996	0.085276
	N262	N	0.463092	0.821137	0.085965
	N263	N	0.537471	0.821145	0.914718
	N264	N	0.462673	0.914266	0.178552
	N265	N	0.537140	0.085386	0.178711
	N266	N	0.462225	0.085138	0.822412
	N267	N	0.537714	0.915145	0.822190
	N268	N	0.915196	0.177539	0.462188
	N269	N	0.085061	0.178259	0.537307
	N270	N	0.084735	0.821877	0.462729
	N271	N	0.914536	0.822654	0.537609
	N272	N	0.179346	0.462959	0.913394
	N273	N	0.178668	0.537560	0.084846
	N274	N	0.821280	0.462891	0.085680
	N275	N	0.821565	0.537839	0.914248
