data_Molecule from HDF5

_cell_length_a		16.262434
_cell_length_b		16.340750
_cell_length_c		16.317150
_cell_angle_alpha	89.937943
_cell_angle_beta	89.626491
_cell_angle_gamma	89.460429
_symmetry_space_group_name_H-M	'P 1'
_symmetry_Int_Tables_number		1

loop_
	_symmetry_equiv_pos_as_xyz
	x,y,z

loop_
	_atom_site_label
	_atom_site_type_symbol
	_atom_site_fract_x
	_atom_site_fract_y
	_atom_site_fract_z
	H0	H	0.397203	0.844123	0.716716
	H1	H	0.595951	0.168269	0.712009
	H2	H	0.601354	0.844252	0.280040
	H3	H	0.394934	0.167660	0.282373
	H4	H	0.716972	0.405350	0.835005
	H5	H	0.711461	0.606458	0.161251
	H6	H	0.280862	0.608206	0.835439
	H7	H	0.282727	0.410269	0.161337
	H8	H	0.835497	0.723306	0.399468
	H9	H	0.160661	0.718991	0.599950
	H10	H	0.834100	0.289976	0.602881
	H11	H	0.160351	0.286089	0.398023
	H12	H	0.834485	0.406964	0.716506
	H13	H	0.160729	0.601933	0.712959
	H14	H	0.834128	0.607195	0.284001
	H15	H	0.159974	0.402128	0.281321
	H16	H	0.395709	0.724989	0.835631
	H17	H	0.595896	0.722964	0.160252
	H18	H	0.600505	0.288979	0.834790
	H19	H	0.395140	0.289755	0.159799
	H20	H	0.716262	0.842953	0.396840
	H21	H	0.712122	0.167753	0.597586
	H22	H	0.283344	0.842752	0.600544
	H23	H	0.278979	0.166875	0.399011
	H24	H	0.897489	0.342822	0.215907
	H25	H	0.096439	0.667147	0.215046
	H26	H	0.101202	0.342632	0.782404
	H27	H	0.895817	0.667284	0.782706
	H28	H	0.215945	0.903085	0.335662
	H29	H	0.209941	0.100693	0.662846
	H30	H	0.783678	0.105807	0.336214
	H31	H	0.780678	0.905715	0.660371
	H32	H	0.333920	0.224447	0.898372
	H33	H	0.660894	0.220344	0.095764
	H34	H	0.334536	0.791690	0.100627
	H35	H	0.659741	0.788564	0.895596
	H36	H	0.335391	0.906777	0.216581
	H37	H	0.660813	0.105304	0.212755
	H38	H	0.334025	0.107480	0.782615
	H39	H	0.661772	0.906563	0.782108
	H40	H	0.895982	0.223925	0.338420
	H41	H	0.095965	0.218905	0.662205
	H42	H	0.102657	0.784962	0.336791
	H43	H	0.897238	0.789657	0.661596
	H44	H	0.217566	0.344274	0.897538
	H45	H	0.208387	0.669921	0.095936
	H46	H	0.781544	0.342874	0.099680
	H47	H	0.782067	0.668666	0.900322
	H48	H	0.399938	0.122484	0.591244
	H49	H	0.586906	0.890799	0.589064
	H50	H	0.589097	0.120690	0.403546
	H51	H	0.408636	0.888342	0.399524
	H52	H	0.575037	0.411789	0.109333
	H53	H	0.596966	0.601089	0.880433
	H54	H	0.408720	0.598138	0.111836
	H55	H	0.407961	0.424307	0.885806
	H56	H	0.116392	0.595002	0.395620
	H57	H	0.879632	0.598862	0.595155
	H58	H	0.115586	0.410119	0.595737
	H59	H	0.883130	0.409986	0.416238
	H60	H	0.113701	0.405955	0.586482
	H61	H	0.881739	0.600691	0.588152
	H62	H	0.114269	0.602323	0.413637
	H63	H	0.884708	0.422547	0.408801
	H64	H	0.403461	0.606780	0.115131
	H65	H	0.590239	0.589462	0.885787
	H66	H	0.595607	0.403037	0.117876
	H67	H	0.415737	0.411877	0.883800
	H68	H	0.588900	0.120715	0.406144
	H69	H	0.592337	0.890428	0.586657
	H70	H	0.407329	0.120841	0.591556
	H71	H	0.414822	0.893290	0.409387
	H72	H	0.904634	0.620909	0.094662
	H73	H	0.093678	0.388761	0.092058
	H74	H	0.087521	0.621750	0.901872
	H75	H	0.913615	0.389017	0.897507
	H76	H	0.092388	0.905690	0.616647
	H77	H	0.084333	0.099221	0.384170
	H78	H	0.903849	0.098612	0.615785
	H79	H	0.909682	0.916804	0.384465
	H80	H	0.608647	0.084969	0.906619
	H81	H	0.384183	0.089837	0.089999
	H82	H	0.614587	0.905889	0.085552
	H83	H	0.386332	0.921491	0.916676
	H84	H	0.610063	0.918562	0.081734
	H85	H	0.378959	0.103059	0.097842
	H86	H	0.617828	0.100848	0.890491
	H87	H	0.379942	0.923002	0.896411
	H88	H	0.901472	0.096368	0.615756
	H89	H	0.092547	0.096642	0.382318
	H90	H	0.094107	0.914717	0.613758
	H91	H	0.911839	0.910318	0.383574
	H92	H	0.086102	0.620358	0.906239
	H93	H	0.087967	0.390450	0.092077
	H94	H	0.905700	0.619728	0.089979
	H95	H	0.913352	0.394919	0.917883
	H96	H	0.403396	0.119183	0.585644
	H97	H	0.591354	0.889028	0.592494
	H98	H	0.590921	0.121339	0.405474
	H99	H	0.403412	0.889692	0.411519
	H100	H	0.594144	0.425648	0.110138
	H101	H	0.582523	0.602188	0.882539
	H102	H	0.397934	0.598256	0.114051
	H103	H	0.401282	0.412249	0.879843
	H104	H	0.108481	0.583584	0.409916
	H105	H	0.882955	0.594215	0.590733
	H106	H	0.110518	0.415702	0.587996
	H107	H	0.878993	0.411311	0.402402
	H108	H	0.900905	0.622157	0.090610
	H109	H	0.091806	0.391051	0.087117
	H110	H	0.091349	0.621968	0.905882
	H111	H	0.896305	0.386271	0.909202
	H112	H	0.085270	0.910951	0.612689
	H113	H	0.087430	0.090963	0.385866
	H114	H	0.904993	0.096273	0.614442
	H115	H	0.905175	0.911688	0.381543
	H116	H	0.614516	0.108017	0.913122
	H117	H	0.382748	0.103797	0.081599
	H118	H	0.614319	0.916372	0.094635
	H119	H	0.378280	0.904396	0.906007
	C120	C	0.375397	0.013807	0.620165
	C121	C	0.618701	0.997240	0.618567
	C122	C	0.620841	0.014174	0.375139
	C123	C	0.376966	0.997022	0.377000
	C124	C	0.619735	0.383895	0.005442
	C125	C	0.618062	0.627166	0.990244
	C126	C	0.374041	0.630512	0.006300
	C127	C	0.377051	0.386321	0.989696
	C128	C	0.006022	0.625484	0.377194
	C129	C	0.989091	0.626290	0.620228
	C130	C	0.005592	0.382700	0.621167
	C131	C	0.989267	0.383071	0.378127
	C132	C	0.874959	0.513545	0.121428
	C133	C	0.118673	0.497487	0.119555
	C134	C	0.119632	0.514134	0.875972
	C135	C	0.877041	0.497262	0.878347
	C136	C	0.121441	0.880660	0.507089
	C137	C	0.117645	0.124568	0.491467
	C138	C	0.874706	0.127171	0.508058
	C139	C	0.877715	0.883869	0.490464
	C140	C	0.505748	0.128077	0.875362
	C141	C	0.489198	0.128006	0.119097
	C142	C	0.505522	0.884711	0.118789
	C143	C	0.489347	0.885800	0.875934
	C144	C	0.377212	0.892407	0.678119
	C145	C	0.616406	0.119587	0.674338
	C146	C	0.620871	0.892386	0.318508
	C147	C	0.375984	0.118979	0.320703
	C148	C	0.677770	0.385436	0.883486
	C149	C	0.673305	0.626087	0.112460
	C150	C	0.318519	0.628863	0.884173
	C151	C	0.320534	0.388958	0.112391
	C152	C	0.883773	0.684015	0.379327
	C153	C	0.111949	0.681243	0.619105
	C154	C	0.883010	0.327898	0.621686
	C155	C	0.111485	0.324957	0.378327
	C156	C	0.883221	0.385795	0.678518
	C157	C	0.111818	0.623164	0.675653
	C158	C	0.883055	0.626250	0.321849
	C159	C	0.111451	0.382757	0.320340
	C160	C	0.375500	0.687077	0.884176
	C161	C	0.615896	0.684207	0.111963
	C162	C	0.620241	0.327331	0.883399
	C163	C	0.376663	0.329409	0.111668
	C164	C	0.677829	0.891842	0.376724
	C165	C	0.674019	0.119366	0.617097
	C166	C	0.320837	0.891519	0.619891
	C167	C	0.318295	0.118543	0.378754
	C168	C	0.877366	0.391366	0.177500
	C169	C	0.116338	0.619052	0.176382
	C170	C	0.120356	0.391710	0.820148
	C171	C	0.876581	0.619058	0.821428
	C172	C	0.177914	0.882650	0.384532
	C173	C	0.172787	0.121691	0.613942
	C174	C	0.820875	0.125815	0.385189
	C175	C	0.819735	0.885584	0.612068
	C176	C	0.382729	0.185628	0.878033
	C177	C	0.612159	0.182659	0.116516
	C178	C	0.383115	0.829706	0.119315
	C179	C	0.611567	0.827651	0.875771
	C180	C	0.383736	0.886910	0.177209
	C181	C	0.611871	0.125571	0.174865
	C182	C	0.382778	0.127731	0.820355
	C183	C	0.612325	0.886448	0.819421
	C184	C	0.876841	0.184416	0.386336
	C185	C	0.115908	0.180349	0.613693
	C186	C	0.121478	0.823909	0.385128
	C187	C	0.877720	0.827950	0.612719
	C188	C	0.178305	0.392450	0.877374
	C189	C	0.172241	0.620363	0.117163
	C190	C	0.819438	0.391558	0.119973
	C191	C	0.819904	0.619719	0.880076
	C192	C	0.397173	0.098880	0.596386
	C193	C	0.596632	0.912155	0.596099
	C194	C	0.596796	0.098952	0.398259
	C195	C	0.401814	0.912426	0.400214
	C196	C	0.595271	0.406819	0.090497
	C197	C	0.596192	0.604270	0.905046
	C198	C	0.396613	0.607736	0.091411
	C199	C	0.401267	0.409335	0.904896
	C200	C	0.090915	0.600849	0.399667
	C201	C	0.903587	0.604336	0.597847
	C202	C	0.091128	0.404344	0.597122
	C203	C	0.904212	0.407620	0.402216
	C204	C	0.897128	0.598694	0.098571
	C205	C	0.097368	0.412188	0.097053
	C206	C	0.095479	0.599274	0.898213
	C207	C	0.900873	0.412196	0.901394
	C208	C	0.097611	0.903647	0.592321
	C209	C	0.094847	0.102012	0.406164
	C210	C	0.896848	0.104034	0.593271
	C211	C	0.901823	0.906350	0.405132
	C212	C	0.591274	0.104772	0.897123
	C213	C	0.403932	0.105634	0.096403
	C214	C	0.590851	0.906999	0.094190
	C215	C	0.403656	0.909489	0.899519
	Zn216	Zn	0.497377	0.005992	0.746923
	Zn217	Zn	0.498427	0.005850	0.247362
	Zn218	Zn	0.747425	0.505439	-0.001227
	Zn219	Zn	0.247116	0.507167	-0.002151
	Zn220	Zn	-0.001212	0.753996	0.499016
	Zn221	Zn	-0.002932	0.254569	0.500151
	Zn222	Zn	-0.002661	0.504965	0.748581
	Zn223	Zn	-0.002666	0.504611	0.248833
	Zn224	Zn	0.496737	0.757265	-0.002942
	Zn225	Zn	0.497405	0.256150	-0.002555
	Zn226	Zn	0.747867	0.005262	0.497919
	Zn227	Zn	0.247618	0.003684	0.498689
	N228	N	0.410563	0.969409	0.678233
	N229	N	0.582621	0.042756	0.675248
	N230	N	0.586147	0.969437	0.317306
	N231	N	0.411680	0.042468	0.319400
	N232	N	0.677726	0.419483	0.960567
	N233	N	0.674754	0.591278	0.035967
	N234	N	0.317448	0.594590	0.961006
	N235	N	0.320818	0.423858	0.035530
	N236	N	0.961088	0.683959	0.412741
	N237	N	0.034644	0.683069	0.585107
	N238	N	0.960176	0.325792	0.586707
	N239	N	0.034447	0.325153	0.413551
	N240	N	0.960712	0.418931	0.678596
	N241	N	0.034587	0.589674	0.676579
	N242	N	0.960060	0.590799	0.320131
	N243	N	0.034302	0.418028	0.319853
	N244	N	0.409343	0.688373	0.961302
	N245	N	0.582199	0.685201	0.034726
	N246	N	0.584747	0.326429	0.960204
	N247	N	0.411124	0.327720	0.034575
	N248	N	0.678083	0.968674	0.411095
	N249	N	0.675564	0.042489	0.582992
	N250	N	0.319381	0.968020	0.584675
	N251	N	0.318876	0.041608	0.413131
	N252	N	0.910774	0.468404	0.178812
	N253	N	0.083798	0.541631	0.177953
	N254	N	0.084644	0.468446	0.818953
	N255	N	0.911413	0.542093	0.820378
	N256	N	0.178002	0.917103	0.461409
	N257	N	0.173771	0.087483	0.536804
	N258	N	0.819353	0.090892	0.461799
	N259	N	0.819725	0.919663	0.534995
	N260	N	0.460317	0.186296	0.911202
	N261	N	0.534970	0.184402	0.082660
	N262	N	0.459968	0.828243	0.083633
	N263	N	0.534127	0.827048	0.910162
	N264	N	0.460926	0.920426	0.176741
	N265	N	0.534506	0.092315	0.176590
	N266	N	0.460061	0.092792	0.818361
	N267	N	0.534993	0.921436	0.819300
	N268	N	0.909386	0.185659	0.463887
	N269	N	0.082502	0.182223	0.536570
	N270	N	0.086896	0.822782	0.462295
	N271	N	0.913166	0.826840	0.535965
	N272	N	0.178213	0.469487	0.911049
	N273	N	0.173835	0.543733	0.082453
	N274	N	0.817678	0.468627	0.086014
	N275	N	0.820267	0.542994	0.914799
	O276	O	0.914010	-0.035867	1.118549
	H277	H	0.909574	-0.035760	1.121435
	H278	H	0.907911	-0.033896	1.115569
	O279	O	0.512764	0.575046	0.327517
	H280	H	0.514849	0.561828	0.324382
	H281	H	0.521209	0.568418	0.326284
	O282	O	0.462268	0.562366	0.558920
	H283	H	0.460454	0.554294	0.557993
	H284	H	0.464791	0.564785	0.563174
	O285	O	0.510035	0.398399	0.354111
	H286	H	0.496645	0.395544	0.351514
	H287	H	0.509775	0.383567	0.362352
	O288	O	0.568991	0.486786	0.406998
	H289	H	0.565403	0.488214	0.408276
	H290	H	0.574084	0.504410	0.400984
	O291	O	0.010680	-0.156305	0.889838
	H292	H	0.008663	-0.159787	0.885227
	H293	H	0.018298	-0.149105	0.882857
	O294	O	0.993442	0.900347	-0.094909
	H295	H	1.006899	0.893452	-0.091995
	H296	H	0.999539	0.901994	-0.090908
	O297	O	0.988900	1.065218	-0.122748
	H298	H	0.976186	1.064355	-0.109204
	H299	H	0.980788	1.078093	-0.126685
	O300	O	0.588991	0.526419	0.515366
	H301	H	0.587013	0.535150	0.523785
	H302	H	0.593718	0.528370	0.520034
	O303	O	0.575455	0.578120	0.447796
	H304	H	0.580803	0.583520	0.433705
	H305	H	0.574980	0.578805	0.456623
	O306	O	0.406070	0.416770	0.527471
	H307	H	0.403887	0.409018	0.512701
	H308	H	0.388083	0.417119	0.533922
	O309	O	0.502039	0.403784	0.452311
	H310	H	0.513911	0.396752	0.457951
	H311	H	0.501297	0.421659	0.461829
	O312	O	1.027076	0.920903	1.044786
	H313	H	1.025624	0.913949	1.039745
	H314	H	1.028516	0.912409	1.056410
	O315	O	0.628049	0.669992	0.450454
	H316	H	0.633781	0.670737	0.465762
	H317	H	0.613509	0.683140	0.455475
	O318	O	0.372903	0.593258	0.400565
	H319	H	0.368370	0.595851	0.400971
	H320	H	0.380269	0.581145	0.383606
	O321	O	0.450332	0.372773	0.467942
	H322	H	0.455223	0.371023	0.465500
	H323	H	0.446736	0.378606	0.461725
	O324	O	0.111794	0.918098	0.954503
	H325	H	0.107989	0.925717	0.954857
	H326	H	0.117318	0.908974	0.948765
	O327	O	-0.071180	0.945512	1.062894
	H328	H	-0.070475	0.929719	1.070277
	H329	H	-0.060291	0.947956	1.058325
	O330	O	0.082316	0.028033	0.041948
	H331	H	0.067814	0.038071	0.038355
	H332	H	0.091243	0.021816	0.042746
	O333	O	0.441480	0.486472	0.443447
	H334	H	0.456989	0.490165	0.430442
	H335	H	0.434308	0.488092	0.442531
	O336	O	-0.022014	0.024735	-0.101511
	H337	H	-0.025293	0.032534	-0.097265
	H338	H	-0.014766	0.023103	-0.105485
	O339	O	0.004647	0.066423	0.025118
	H340	H	-0.001351	0.075102	0.030422
	H341	H	0.006192	0.065041	0.025035
	O342	O	0.437603	0.601248	0.599797
	H343	H	0.430331	0.586555	0.595282
	H344	H	0.422128	0.595156	0.603693
	O345	O	0.073436	1.040966	1.102757
	H346	H	0.066867	1.037988	1.111979
	H347	H	0.063247	1.037329	1.105868
	O348	O	0.561650	0.463106	0.513129
	H349	H	0.562332	0.463399	0.510840
	H350	H	0.560200	0.472661	0.504356
	O351	O	0.564692	0.632233	0.613111
	H352	H	0.555631	0.633512	0.618219
	H353	H	0.567110	0.635590	0.615453
	O354	O	-0.013506	0.909214	-0.038330
	H355	H	-0.013083	0.904684	-0.034262
	H356	H	-0.007527	0.902200	-0.027804
	O357	O	0.532998	0.534967	0.458620
	H358	H	0.537442	0.542070	0.457162
	H359	H	0.545175	0.531622	0.463421
	O360	O	0.923472	0.090012	1.137092
	H361	H	0.919882	0.104599	1.147887
	H362	H	0.929338	0.089235	1.138299
	O363	O	0.480399	0.415600	0.441295
	H364	H	0.477586	0.413125	0.440978
	H365	H	0.480534	0.416091	0.437851
	O366	O	0.386848	0.505263	0.563022
	H367	H	0.380331	0.504937	0.565481
	H368	H	0.373753	0.500958	0.567953
	O369	O	1.082310	0.027209	-0.085854
	H370	H	1.083637	0.021244	-0.092617
	H371	H	1.071338	0.030257	-0.077436
	O372	O	0.545245	0.559049	0.599721
	H373	H	0.539904	0.550319	0.595484
	H374	H	0.539955	0.573206	0.605266
	O375	O	0.928901	0.185302	0.907698
	H376	H	0.913627	0.197964	0.892862
	H377	H	0.916105	0.171632	0.905596
	O378	O	-0.009301	1.087588	0.093497
	H379	H	-0.006941	1.083695	0.086620
	H380	H	-0.010038	1.094069	0.099870
	O381	O	0.435565	0.449791	0.539665
	H382	H	0.442403	0.461033	0.543521
	H383	H	0.438781	0.448748	0.548974
	O384	O	1.080273	0.950783	0.044676
	H385	H	1.084611	0.947168	0.054122
	H386	H	1.086391	0.949427	0.030778
	O387	O	0.942647	0.021990	0.969465
	H388	H	0.941353	0.022723	0.962083
	H389	H	0.953027	0.015854	0.976328
	O390	O	1.004614	0.955049	0.111956
	H391	H	1.012859	0.966540	0.114248
	H392	H	1.005012	0.941674	0.108208
	O393	O	0.514546	0.380129	0.550283
	H394	H	0.528684	0.368504	0.549040
	H395	H	0.501357	0.382610	0.555160
