data_Molecule from HDF5

_cell_length_a		16.320436
_cell_length_b		16.334082
_cell_length_c		16.266264
_cell_angle_alpha	90.085455
_cell_angle_beta	89.861050
_cell_angle_gamma	90.021903
_symmetry_space_group_name_H-M	'P 1'
_symmetry_Int_Tables_number		1

loop_
	_symmetry_equiv_pos_as_xyz
	x,y,z

loop_
	_atom_site_label
	_atom_site_type_symbol
	_atom_site_fract_x
	_atom_site_fract_y
	_atom_site_fract_z
	H0	H	0.403082	0.847002	0.710065
	H1	H	0.599030	0.172920	0.709187
	H2	H	0.600532	0.846756	0.278053
	H3	H	0.402030	0.172829	0.279616
	H4	H	0.715504	0.412788	0.830600
	H5	H	0.716620	0.611659	0.157289
	H6	H	0.286465	0.609901	0.830299
	H7	H	0.283943	0.410780	0.157256
	H8	H	0.837806	0.725534	0.395938
	H9	H	0.163512	0.725638	0.594821
	H10	H	0.838551	0.292748	0.595380
	H11	H	0.163865	0.292313	0.393505
	H12	H	0.837259	0.411095	0.709372
	H13	H	0.164412	0.606817	0.708120
	H14	H	0.837399	0.607600	0.281403
	H15	H	0.163902	0.409517	0.277455
	H16	H	0.404316	0.724241	0.830186
	H17	H	0.599385	0.725977	0.157498
	H18	H	0.601410	0.295866	0.830755
	H19	H	0.400605	0.295688	0.157414
	H20	H	0.717535	0.846576	0.393964
	H21	H	0.715854	0.171680	0.593668
	H22	H	0.286607	0.846010	0.594163
	H23	H	0.284947	0.171985	0.395516
	H24	H	0.899426	0.347254	0.211131
	H25	H	0.099006	0.673525	0.210746
	H26	H	0.099692	0.346870	0.779555
	H27	H	0.902788	0.672426	0.779567
	H28	H	0.217773	0.906954	0.332314
	H29	H	0.216103	0.108707	0.658209
	H30	H	0.785435	0.108233	0.331902
	H31	H	0.784562	0.909756	0.658500
	H32	H	0.339042	0.227496	0.893191
	H33	H	0.664013	0.227557	0.094194
	H34	H	0.339059	0.794120	0.095075
	H35	H	0.663619	0.795469	0.894498
	H36	H	0.339027	0.910454	0.210400
	H37	H	0.664937	0.109718	0.209373
	H38	H	0.337833	0.108219	0.780537
	H39	H	0.664244	0.911489	0.779221
	H40	H	0.900642	0.225188	0.332189
	H41	H	0.100516	0.224234	0.658638
	H42	H	0.099720	0.793978	0.332243
	H43	H	0.900838	0.794814	0.659222
	H44	H	0.217583	0.347851	0.893297
	H45	H	0.217039	0.672973	0.095346
	H46	H	0.784082	0.347973	0.093785
	H47	H	0.786379	0.673253	0.894897
	H48	H	0.410592	0.125381	0.587708
	H49	H	0.595850	0.889779	0.598045
	H50	H	0.587799	0.122059	0.404506
	H51	H	0.412205	0.892937	0.397160
	H52	H	0.601314	0.415375	0.113945
	H53	H	0.602518	0.606590	0.874403
	H54	H	0.419056	0.599726	0.105526
	H55	H	0.409182	0.422928	0.879439
	H56	H	0.118754	0.610196	0.403768
	H57	H	0.885413	0.600078	0.588212
	H58	H	0.117350	0.419306	0.592222
	H59	H	0.882030	0.406809	0.400004
	H60	H	0.118883	0.409301	0.587585
	H61	H	0.883822	0.603774	0.590173
	H62	H	0.113381	0.598651	0.409258
	H63	H	0.889498	0.417967	0.412946
	H64	H	0.406716	0.615117	0.114496
	H65	H	0.592885	0.597391	0.879646
	H66	H	0.591845	0.430841	0.106339
	H67	H	0.412758	0.416858	0.878674
	H68	H	0.597919	0.125023	0.406884
	H69	H	0.583004	0.897168	0.585162
	H70	H	0.404875	0.125285	0.585220
	H71	H	0.411134	0.896200	0.406781
	H72	H	0.911383	0.626582	0.094591
	H73	H	0.097927	0.395355	0.081715
	H74	H	0.102483	0.626793	0.906733
	H75	H	0.911298	0.393784	0.897430
	H76	H	0.096970	0.914609	0.613227
	H77	H	0.099867	0.103014	0.376667
	H78	H	0.912461	0.093033	0.607531
	H79	H	0.906347	0.925194	0.381088
	H80	H	0.617283	0.098523	0.897835
	H81	H	0.388604	0.101723	0.080441
	H82	H	0.616873	0.918832	0.085177
	H83	H	0.385815	0.916429	0.905837
	H84	H	0.618051	0.917891	0.087675
	H85	H	0.386202	0.097887	0.091433
	H86	H	0.620001	0.110142	0.899380
	H87	H	0.385588	0.921019	0.900812
	H88	H	0.913540	0.109400	0.611566
	H89	H	0.091997	0.091696	0.382392
	H90	H	0.093633	0.922360	0.609920
	H91	H	0.917911	0.915211	0.381680
	H92	H	0.092758	0.628516	0.891947
	H93	H	0.091085	0.393848	0.092173
	H94	H	0.911612	0.622687	0.082374
	H95	H	0.909734	0.396066	0.907276
	H96	H	0.405635	0.126543	0.591387
	H97	H	0.601491	0.892947	0.580317
	H98	H	0.594446	0.126426	0.397023
	H99	H	0.403146	0.892086	0.401844
	H100	H	0.582444	0.413559	0.108830
	H101	H	0.589728	0.610494	0.877211
	H102	H	0.398351	0.595532	0.110650
	H103	H	0.405945	0.417317	0.877119
	H104	H	0.117226	0.598838	0.395364
	H105	H	0.884995	0.604598	0.586004
	H106	H	0.114153	0.417785	0.581875
	H107	H	0.886281	0.423882	0.395919
	H108	H	0.900551	0.627341	0.087535
	H109	H	0.085808	0.398617	0.081794
	H110	H	0.085449	0.621618	0.905557
	H111	H	0.901918	0.392066	0.901434
	H112	H	0.088605	0.915681	0.610509
	H113	H	0.085559	0.104605	0.380384
	H114	H	0.899121	0.101287	0.613408
	H115	H	0.903975	0.910914	0.375688
	H116	H	0.614471	0.103812	0.908109
	H117	H	0.383977	0.108905	0.087980
	H118	H	0.617220	0.916048	0.085841
	H119	H	0.383446	0.914680	0.900225
	C120	C	0.378864	0.018019	0.616958
	C121	C	0.622141	1.000891	0.616638
	C122	C	0.622921	0.017389	0.372982
	C123	C	0.379481	1.001385	0.372809
	C124	C	0.621647	0.390318	0.002040
	C125	C	0.623660	0.633615	0.985198
	C126	C	0.379484	0.632456	0.001915
	C127	C	0.379126	0.389178	0.985822
	C128	C	0.008837	0.631036	0.374132
	C129	C	0.992397	0.631401	0.616946
	C130	C	0.009206	0.387006	0.616980
	C131	C	0.993150	0.387128	0.372982
	C132	C	0.878303	0.518454	0.117240
	C133	C	0.121374	0.502811	0.115646
	C134	C	0.122622	0.518433	0.872435
	C135	C	0.879614	0.501847	0.873523
	C136	C	0.122486	0.887880	0.503665
	C137	C	0.121881	0.129941	0.487149
	C138	C	0.879480	0.130547	0.503282
	C139	C	0.879409	0.887805	0.487096
	C140	C	0.509531	0.132371	0.872853
	C141	C	0.493455	0.132544	0.116152
	C142	C	0.509942	0.888876	0.115508
	C143	C	0.492676	0.888993	0.873135
	C144	C	0.382087	0.895402	0.672065
	C145	C	0.619757	0.124021	0.671574
	C146	C	0.620792	0.895107	0.316654
	C147	C	0.381597	0.123859	0.317484
	C148	C	0.677611	0.392164	0.879310
	C149	C	0.678491	0.631290	0.108313
	C150	C	0.324555	0.629831	0.879064
	C151	C	0.322809	0.391020	0.108670
	C152	C	0.886212	0.686891	0.376271
	C153	C	0.114990	0.687111	0.614776
	C154	C	0.886786	0.331425	0.615201
	C155	C	0.115364	0.330520	0.373236
	C156	C	0.886368	0.389960	0.672066
	C157	C	0.115495	0.628125	0.671256
	C158	C	0.886020	0.628358	0.319200
	C159	C	0.115417	0.389114	0.316066
	C160	C	0.383173	0.686615	0.878827
	C161	C	0.620423	0.688321	0.108558
	C162	C	0.620418	0.334484	0.879360
	C163	C	0.380297	0.333319	0.108543
	C164	C	0.678780	0.894937	0.374182
	C165	C	0.677956	0.123363	0.614541
	C166	C	0.324398	0.894892	0.614446
	C167	C	0.323662	0.123561	0.375388
	C168	C	0.879595	0.396033	0.172803
	C169	C	0.119746	0.624726	0.172576
	C170	C	0.120762	0.395796	0.816872
	C171	C	0.882350	0.624217	0.817782
	C172	C	0.179295	0.887999	0.381159
	C173	C	0.178144	0.129001	0.609368
	C174	C	0.823494	0.128663	0.380653
	C175	C	0.822778	0.889516	0.609888
	C176	C	0.387235	0.188626	0.874251
	C177	C	0.615527	0.188914	0.114404
	C178	C	0.387584	0.832400	0.114831
	C179	C	0.615224	0.833632	0.874491
	C180	C	0.387527	0.890515	0.171686
	C181	C	0.615872	0.130447	0.171841
	C182	C	0.386723	0.129750	0.817821
	C183	C	0.615513	0.891509	0.817408
	C184	C	0.881056	0.186586	0.380763
	C185	C	0.120492	0.186247	0.609592
	C186	C	0.120440	0.831907	0.380899
	C187	C	0.880945	0.832962	0.610387
	C188	C	0.178909	0.396163	0.873998
	C189	C	0.178152	0.624573	0.115029
	C190	C	0.822089	0.396359	0.114616
	C191	C	0.824775	0.624559	0.875538
	C192	C	0.400646	0.103666	0.594480
	C193	C	0.599992	0.915290	0.594489
	C194	C	0.600277	0.102379	0.396278
	C195	C	0.402143	0.915829	0.395135
	C196	C	0.598497	0.413098	0.087557
	C197	C	0.601665	0.611335	0.899210
	C198	C	0.401543	0.609974	0.087999
	C199	C	0.402459	0.412117	0.900468
	C200	C	0.094467	0.608902	0.396276
	C201	C	0.906815	0.609292	0.594645
	C202	C	0.094589	0.409097	0.593962
	C203	C	0.908016	0.409617	0.396282
	C204	C	0.901384	0.603517	0.094968
	C205	C	0.098305	0.418067	0.091995
	C206	C	0.100087	0.603715	0.894953
	C207	C	0.901380	0.416165	0.895670
	C208	C	0.099602	0.910786	0.589205
	C209	C	0.098960	0.106440	0.401778
	C210	C	0.901778	0.107853	0.588800
	C211	C	0.902719	0.910456	0.401588
	C212	C	0.595117	0.110459	0.895206
	C213	C	0.408299	0.109537	0.093165
	C214	C	0.595266	0.910967	0.092826
	C215	C	0.407163	0.910836	0.895844
	Zn216	Zn	0.500929	0.010151	0.744801
	Zn217	Zn	0.501543	0.009733	0.244163
	Zn218	Zn	0.750610	0.510704	-0.005967
	Zn219	Zn	0.250920	0.510600	-0.006095
	Zn220	Zn	0.000328	0.760218	0.495686
	Zn221	Zn	0.001533	0.259096	0.495066
	Zn222	Zn	0.000677	0.509477	0.744808
	Zn223	Zn	0.000719	0.509958	0.245416
	Zn224	Zn	0.501202	0.760548	-0.006218
	Zn225	Zn	0.501077	0.261258	-0.006023
	Zn226	Zn	0.751052	0.008366	0.495171
	Zn227	Zn	0.250500	0.008892	0.494997
	N228	N	0.415113	0.972840	0.673736
	N229	N	0.585794	0.046989	0.672901
	N230	N	0.586754	0.972121	0.315755
	N231	N	0.415587	0.046747	0.315942
	N232	N	0.678418	0.426333	0.956532
	N233	N	0.680387	0.597842	0.030676
	N234	N	0.322221	0.596966	0.956861
	N235	N	0.321852	0.425054	0.031331
	N236	N	0.963636	0.688727	0.409712
	N237	N	0.037406	0.689400	0.581844
	N238	N	0.964090	0.329445	0.581617
	N239	N	0.038327	0.329161	0.407830
	N240	N	0.963673	0.423888	0.673105
	N241	N	0.038457	0.594225	0.672716
	N242	N	0.962993	0.594354	0.318106
	N243	N	0.038391	0.423193	0.315524
	N244	N	0.416424	0.688381	0.956486
	N245	N	0.587277	0.690029	0.030871
	N246	N	0.586406	0.333294	0.956848
	N247	N	0.414668	0.332287	0.031242
	N248	N	0.680206	0.971928	0.408526
	N249	N	0.679410	0.046043	0.580904
	N250	N	0.322269	0.972176	0.580782
	N251	N	0.321999	0.046183	0.408710
	N252	N	0.913878	0.472878	0.174640
	N253	N	0.084876	0.548015	0.172768
	N254	N	0.086645	0.472745	0.815748
	N255	N	0.915798	0.546965	0.816556
	N256	N	0.180691	0.921875	0.458785
	N257	N	0.179139	0.094580	0.532158
	N258	N	0.822388	0.094516	0.457862
	N259	N	0.821925	0.923030	0.532393
	N260	N	0.464595	0.190325	0.907811
	N261	N	0.538327	0.190464	0.080873
	N262	N	0.464669	0.831385	0.080282
	N263	N	0.538127	0.832243	0.908718
	N264	N	0.464173	0.925002	0.172150
	N265	N	0.538764	0.096023	0.173104
	N266	N	0.463716	0.095522	0.816790
	N267	N	0.538199	0.925251	0.816517
	N268	N	0.914958	0.187978	0.458033
	N269	N	0.086228	0.186942	0.532406
	N270	N	0.085537	0.831820	0.457836
	N271	N	0.915242	0.831471	0.533006
	N272	N	0.180119	0.473318	0.908110
	N273	N	0.179391	0.547769	0.080399
	N274	N	0.820899	0.473502	0.080828
	N275	N	0.822950	0.547411	0.909411
	O276	O	0.937896	1.142659	0.011017
	H277	H	0.932698	1.142088	0.008390
	H278	H	0.931091	1.139021	0.008500
	O279	O	0.030616	0.096922	0.990052
	H280	H	0.032869	0.092372	0.986877
	H281	H	0.028791	0.089881	0.977976
	O282	O	0.015090	-0.039695	0.092138
	H283	H	0.016079	-0.035672	0.092883
	H284	H	0.011094	-0.026912	0.090942
	O285	O	0.550896	0.467834	0.421825
	H286	H	0.554498	0.474660	0.420776
	H287	H	0.551608	0.476161	0.420792
	O288	O	-0.034784	-0.060719	-0.049927
	H289	H	-0.034844	-0.058623	-0.055248
	H290	H	-0.030943	-0.064052	-0.054526
	O291	O	0.058660	0.988604	-0.014323
	H292	H	0.059640	0.988450	-0.024404
	H293	H	0.059315	0.978834	-0.012112
	O294	O	0.057284	1.031357	-0.016067
	H295	H	0.061610	1.027544	-0.022798
	H296	H	0.055648	1.023005	-0.003737
	O297	O	0.939969	0.125954	-0.015539
	H298	H	0.934551	0.126495	-0.018081
	H299	H	0.946943	0.129959	-0.011785
	O300	O	0.551874	0.408481	0.456374
	H301	H	0.559652	0.409526	0.463403
	H302	H	0.555454	0.403121	0.445066
	O303	O	1.122951	0.151362	1.046168
	H304	H	1.129679	0.152975	1.040471
	H305	H	1.132385	0.153581	1.055270
	O306	O	-0.045032	0.960319	0.920192
	H307	H	-0.045821	0.952698	0.921152
	H308	H	-0.047536	0.960856	0.922384
	O309	O	0.065080	0.917520	0.953639
	H310	H	0.064246	0.909116	0.948626
	H311	H	0.068544	0.920933	0.946513
	O312	O	-0.008672	-0.101057	1.095430
	H313	H	-0.009090	-0.099758	1.098107
	H314	H	-0.003178	-0.099951	1.087286
	O315	O	0.530183	0.462404	0.386877
	H316	H	0.524206	0.461465	0.379576
	H317	H	0.540820	0.462410	0.370138
	O318	O	0.049976	0.052044	0.967223
	H319	H	0.050021	0.066117	0.961519
	H320	H	0.057111	0.064237	0.960631
	O321	O	0.814007	0.245762	0.144151
	H322	H	0.811078	0.244232	0.146756
	H323	H	0.819843	0.254233	0.145693
	O324	O	1.016006	-0.015218	1.025967
	H325	H	1.019157	-0.015889	1.013801
	H326	H	1.012768	-0.016951	1.030151
	O327	O	0.922816	1.014544	1.061421
	H328	H	0.926951	1.003981	1.064472
	H329	H	0.926363	1.015685	1.078793
	O330	O	0.551405	0.464465	0.448925
	H331	H	0.537972	0.463278	0.442616
	H332	H	0.552950	0.457840	0.457109
	O333	O	0.053712	-0.074881	0.977006
	H334	H	0.036065	-0.068995	0.984508
	H335	H	0.057284	-0.078752	0.981925
	O336	O	1.076035	0.012528	1.010413
	H337	H	1.078099	0.020494	1.023224
	H338	H	1.068572	-0.000261	1.014880
	O339	O	0.137970	0.023598	0.991877
	H340	H	0.113544	0.034257	0.994191
	H341	H	0.145748	0.025436	0.992732
	O342	O	-0.108927	0.994286	0.089233
	H343	H	-0.110960	0.993658	0.097191
	H344	H	-0.100269	0.984616	0.093726
	O345	O	0.599906	0.387563	0.409248
	H346	H	0.603884	0.374577	0.415017
	H347	H	0.594610	0.385461	0.402217
