data_Molecule from HDF5

_cell_length_a		16.310273
_cell_length_b		16.349170
_cell_length_c		16.313223
_cell_angle_alpha	90.003017
_cell_angle_beta	90.117638
_cell_angle_gamma	89.950621
_symmetry_space_group_name_H-M	'P 1'
_symmetry_Int_Tables_number		1

loop_
	_symmetry_equiv_pos_as_xyz
	x,y,z

loop_
	_atom_site_label
	_atom_site_type_symbol
	_atom_site_fract_x
	_atom_site_fract_y
	_atom_site_fract_z
	H0	H	0.403167	0.846928	0.719902
	H1	H	0.602747	0.172404	0.719547
	H2	H	0.601659	0.846915	0.288375
	H3	H	0.401994	0.171845	0.287980
	H4	H	0.718476	0.410052	0.841235
	H5	H	0.719067	0.609122	0.167258
	H6	H	0.287420	0.608067	0.841159
	H7	H	0.290075	0.411007	0.167661
	H8	H	0.839204	0.723322	0.405378
	H9	H	0.166006	0.724202	0.603318
	H10	H	0.839854	0.294208	0.603200
	H11	H	0.165392	0.293147	0.404841
	H12	H	0.840396	0.410101	0.719254
	H13	H	0.166471	0.607402	0.718861
	H14	H	0.839864	0.606867	0.288716
	H15	H	0.166935	0.411321	0.291017
	H16	H	0.403576	0.724711	0.840619
	H17	H	0.601815	0.724758	0.167473
	H18	H	0.601300	0.294737	0.841278
	H19	H	0.403878	0.293902	0.166674
	H20	H	0.718411	0.846880	0.404874
	H21	H	0.718332	0.172228	0.603586
	H22	H	0.287340	0.846063	0.602518
	H23	H	0.285931	0.171852	0.403534
	H24	H	0.906023	0.345775	0.218120
	H25	H	0.102708	0.672141	0.220344
	H26	H	0.103006	0.346171	0.788702
	H27	H	0.905992	0.671946	0.790105
	H28	H	0.215705	0.911504	0.339832
	H29	H	0.219334	0.110548	0.665706
	H30	H	0.786583	0.108234	0.340916
	H31	H	0.788116	0.911377	0.667323
	H32	H	0.340277	0.224979	0.904514
	H33	H	0.665362	0.225178	0.104091
	H34	H	0.340076	0.794394	0.102501
	H35	H	0.666563	0.794366	0.904725
	H36	H	0.339576	0.912130	0.217648
	H37	H	0.665149	0.108141	0.219722
	H38	H	0.340371	0.109601	0.788249
	H39	H	0.666110	0.909987	0.788414
	H40	H	0.902516	0.224604	0.340987
	H41	H	0.102030	0.224649	0.666609
	H42	H	0.101955	0.792954	0.341243
	H43	H	0.902048	0.792932	0.666338
	H44	H	0.218631	0.346390	0.906038
	H45	H	0.218535	0.671866	0.102954
	H46	H	0.789572	0.346402	0.102568
	H47	H	0.788781	0.672069	0.905206
	H48	H	0.399713	0.127059	0.594961
	H49	H	0.591699	0.893673	0.603573
	H50	H	0.587782	0.121861	0.415020
	H51	H	0.405155	0.892554	0.410621
	H52	H	0.590046	0.416690	0.118277
	H53	H	0.591105	0.595574	0.891658
	H54	H	0.411306	0.611687	0.122253
	H55	H	0.411441	0.416013	0.888823
	H56	H	0.121795	0.609069	0.409606
	H57	H	0.885832	0.609435	0.592185
	H58	H	0.122028	0.418475	0.609101
	H59	H	0.886023	0.412152	0.412568
	H60	H	0.120353	0.404942	0.589665
	H61	H	0.889857	0.595147	0.593657
	H62	H	0.116357	0.600902	0.419617
	H63	H	0.889088	0.420640	0.414083
	H64	H	0.403302	0.597840	0.120619
	H65	H	0.591916	0.608591	0.887686
	H66	H	0.599173	0.412959	0.121935
	H67	H	0.410031	0.416494	0.887935
	H68	H	0.601346	0.125689	0.416238
	H69	H	0.592550	0.897036	0.590497
	H70	H	0.413822	0.126424	0.605056
	H71	H	0.412280	0.893349	0.407932
	H72	H	0.914405	0.626093	0.103610
	H73	H	0.099462	0.389937	0.107700
	H74	H	0.096220	0.625087	0.910587
	H75	H	0.912920	0.392237	0.906252
	H76	H	0.094008	0.918214	0.618448
	H77	H	0.092443	0.097250	0.390194
	H78	H	0.904215	0.102250	0.621462
	H79	H	0.914663	0.917257	0.389783
	H80	H	0.619780	0.094055	0.901303
	H81	H	0.389477	0.098024	0.093106
	H82	H	0.622630	0.916834	0.109038
	H83	H	0.385697	0.915734	0.904737
	H84	H	0.619724	0.907527	0.089171
	H85	H	0.384274	0.102411	0.102597
	H86	H	0.623893	0.116130	0.910108
	H87	H	0.387573	0.911617	0.916103
	H88	H	0.912625	0.097615	0.617334
	H89	H	0.089955	0.105875	0.387509
	H90	H	0.094677	0.915930	0.619674
	H91	H	0.908772	0.913138	0.386776
	H92	H	0.095745	0.624398	0.911434
	H93	H	0.086392	0.396867	0.096409
	H94	H	0.914967	0.622159	0.090557
	H95	H	0.913618	0.395442	0.915953
	H96	H	0.414814	0.120324	0.588816
	H97	H	0.603635	0.891910	0.596858
	H98	H	0.594867	0.127786	0.403926
	H99	H	0.410409	0.895932	0.415344
	H100	H	0.598625	0.422775	0.118850
	H101	H	0.603414	0.601016	0.887315
	H102	H	0.418702	0.598672	0.116403
	H103	H	0.410949	0.418104	0.888231
	H104	H	0.118582	0.595329	0.406684
	H105	H	0.884957	0.602274	0.604979
	H106	H	0.113455	0.427488	0.588416
	H107	H	0.885671	0.418530	0.405562
	H108	H	0.903213	0.626195	0.095774
	H109	H	0.103709	0.393656	0.090064
	H110	H	0.096360	0.624924	0.911724
	H111	H	0.904235	0.391770	0.911663
	H112	H	0.096127	0.918239	0.619508
	H113	H	0.098723	0.102764	0.386112
	H114	H	0.913517	0.107646	0.620737
	H115	H	0.907887	0.920650	0.388067
	H116	H	0.613986	0.098927	0.923960
	H117	H	0.385847	0.108753	0.093185
	H118	H	0.613270	0.928065	0.092352
	H119	H	0.390112	0.923677	0.913153
	C120	C	0.380552	0.017422	0.625262
	C121	C	0.624874	1.001378	0.625917
	C122	C	0.624089	0.017642	0.382337
	C123	C	0.380261	1.001242	0.382062
	C124	C	0.624925	0.387879	0.012468
	C125	C	0.625047	0.631415	0.996306
	C126	C	0.381752	0.631178	0.012003
	C127	C	0.381820	0.388099	0.995908
	C128	C	0.011047	0.630403	0.382721
	C129	C	0.994813	0.630872	0.625688
	C130	C	0.011177	0.388122	0.625087
	C131	C	0.994737	0.388073	0.382470
	C132	C	0.882423	0.517226	0.125560
	C133	C	0.125374	0.500749	0.126606
	C134	C	0.124819	0.517315	0.882695
	C135	C	0.881846	0.500723	0.882335
	C136	C	0.123857	0.887963	0.511741
	C137	C	0.123394	0.131238	0.495481
	C138	C	0.880632	0.131492	0.512308
	C139	C	0.881298	0.888064	0.495788
	C140	C	0.511269	0.131657	0.882561
	C141	C	0.494268	0.131383	0.125610
	C142	C	0.511361	0.888116	0.125672
	C143	C	0.495157	0.888071	0.882307
	C144	C	0.382852	0.895308	0.681281
	C145	C	0.622541	0.123776	0.681465
	C146	C	0.621762	0.895364	0.326753
	C147	C	0.381962	0.123343	0.326307
	C148	C	0.680021	0.390312	0.889858
	C149	C	0.680726	0.629375	0.118548
	C150	C	0.325796	0.628580	0.889742
	C151	C	0.327207	0.390458	0.118786
	C152	C	0.888033	0.685334	0.384925
	C153	C	0.117417	0.685893	0.623577
	C154	C	0.888555	0.332514	0.623011
	C155	C	0.117162	0.332031	0.385093
	C156	C	0.888808	0.389628	0.681192
	C157	C	0.117529	0.628079	0.681063
	C158	C	0.888420	0.627763	0.326826
	C159	C	0.117938	0.390430	0.328228
	C160	C	0.383329	0.686722	0.889566
	C161	C	0.622435	0.686827	0.118685
	C162	C	0.622169	0.332601	0.889975
	C163	C	0.384523	0.332944	0.118594
	C164	C	0.679570	0.895268	0.384787
	C165	C	0.679766	0.124006	0.623604
	C166	C	0.325324	0.894840	0.622840
	C167	C	0.324337	0.123352	0.383671
	C168	C	0.885282	0.394730	0.180638
	C169	C	0.122558	0.623728	0.181504
	C170	C	0.122911	0.394730	0.827237
	C171	C	0.884554	0.623314	0.827239
	C172	C	0.178746	0.890027	0.389045
	C173	C	0.180210	0.129777	0.617543
	C174	C	0.824866	0.128915	0.389527
	C175	C	0.826037	0.890713	0.618500
	C176	C	0.389098	0.187339	0.884134
	C177	C	0.616681	0.186905	0.124064
	C178	C	0.388786	0.832279	0.123111
	C179	C	0.617848	0.832309	0.884378
	C180	C	0.388579	0.890312	0.180648
	C181	C	0.616706	0.128708	0.181372
	C182	C	0.389054	0.129579	0.826727
	C183	C	0.617661	0.889790	0.826695
	C184	C	0.881885	0.187121	0.389841
	C185	C	0.121961	0.186643	0.617886
	C186	C	0.122023	0.831462	0.389584
	C187	C	0.882749	0.832073	0.618160
	C188	C	0.180461	0.394990	0.885175
	C189	C	0.180423	0.623468	0.123654
	C190	C	0.827550	0.394814	0.123097
	C191	C	0.826456	0.623210	0.884694
	C192	C	0.402725	0.102621	0.602902
	C193	C	0.602731	0.916295	0.603539
	C194	C	0.601473	0.103033	0.405030
	C195	C	0.402857	0.915899	0.404484
	C196	C	0.602536	0.410484	0.097782
	C197	C	0.602135	0.608458	0.910795
	C198	C	0.404535	0.609185	0.097679
	C199	C	0.404116	0.410439	0.910367
	C200	C	0.096628	0.608440	0.405495
	C201	C	0.909061	0.608733	0.603526
	C202	C	0.096623	0.410450	0.602546
	C203	C	0.908995	0.410480	0.404380
	C204	C	0.904436	0.602814	0.103323
	C205	C	0.103259	0.415548	0.104380
	C206	C	0.102741	0.602634	0.904689
	C207	C	0.903955	0.415244	0.904544
	C208	C	0.101511	0.910727	0.597219
	C209	C	0.100470	0.108517	0.409881
	C210	C	0.903391	0.108961	0.597734
	C211	C	0.903934	0.910436	0.410363
	C212	C	0.597173	0.109435	0.905108
	C213	C	0.408576	0.109247	0.102969
	C214	C	0.596376	0.910857	0.103369
	C215	C	0.409965	0.910469	0.904916
	Zn216	Zn	0.503295	0.010025	0.753984
	Zn217	Zn	0.502011	0.009746	0.254151
	Zn218	Zn	0.753481	0.509252	0.004382
	Zn219	Zn	0.253395	0.508875	0.004149
	Zn220	Zn	0.002482	0.759356	0.504055
	Zn221	Zn	0.002681	0.259765	0.503624
	Zn222	Zn	0.003299	0.508676	0.753913
	Zn223	Zn	0.003658	0.509192	0.254274
	Zn224	Zn	0.503660	0.759882	0.003591
	Zn225	Zn	0.502824	0.259451	0.004177
	Zn226	Zn	0.752848	0.009407	0.504223
	Zn227	Zn	0.251587	0.009812	0.503353
	N228	N	0.416370	0.972408	0.682975
	N229	N	0.588871	0.046702	0.682745
	N230	N	0.587868	0.972493	0.325362
	N231	N	0.416274	0.046508	0.325490
	N232	N	0.681600	0.424087	0.967040
	N233	N	0.682524	0.595817	0.041249
	N234	N	0.324729	0.594746	0.966976
	N235	N	0.325780	0.424427	0.041661
	N236	N	0.965324	0.687052	0.418959
	N237	N	0.040232	0.687764	0.589898
	N238	N	0.965652	0.331542	0.588886
	N239	N	0.039477	0.330358	0.417858
	N240	N	0.965844	0.423866	0.682255
	N241	N	0.040033	0.594671	0.682520
	N242	N	0.965891	0.594629	0.325211
	N243	N	0.040960	0.424741	0.326673
	N244	N	0.417324	0.688441	0.966722
	N245	N	0.588348	0.687839	0.041599
	N246	N	0.588580	0.331043	0.967219
	N247	N	0.417635	0.331212	0.041121
	N248	N	0.681201	0.972420	0.418400
	N249	N	0.681262	0.047067	0.589520
	N250	N	0.323745	0.971855	0.588723
	N251	N	0.323070	0.046390	0.417688
	N252	N	0.918583	0.472058	0.182240
	N253	N	0.088958	0.546649	0.183264
	N254	N	0.088697	0.471736	0.825693
	N255	N	0.918017	0.546165	0.825622
	N256	N	0.179353	0.924887	0.465764
	N257	N	0.180994	0.095914	0.540273
	N258	N	0.823995	0.095010	0.466656
	N259	N	0.824974	0.924655	0.541381
	N260	N	0.466228	0.188522	0.918337
	N261	N	0.539472	0.188670	0.090155
	N262	N	0.466108	0.830809	0.089525
	N263	N	0.540644	0.830894	0.918220
	N264	N	0.465581	0.924393	0.182185
	N265	N	0.539486	0.095030	0.182571
	N266	N	0.466316	0.095822	0.825619
	N267	N	0.540514	0.923786	0.825150
	N268	N	0.916044	0.188696	0.467051
	N269	N	0.087393	0.187527	0.540935
	N270	N	0.088683	0.829978	0.467032
	N271	N	0.916534	0.830575	0.540909
	N272	N	0.181618	0.471953	0.918921
	N273	N	0.182326	0.546178	0.090182
	N274	N	0.825773	0.471860	0.089384
	N275	N	0.824588	0.545934	0.918018
	O276	O	0.550885	0.554732	0.532710
	H277	H	0.552233	0.553755	0.539108
	H278	H	0.553663	0.553633	0.535588
	O279	O	0.019305	-0.099705	-0.026558
	H280	H	0.024672	-0.106667	-0.022923
	H281	H	0.016500	-0.100582	-0.038556
	O282	O	0.514545	0.442674	0.468998
	H283	H	0.519130	0.447770	0.458065
	H284	H	0.514942	0.448580	0.472494
	O285	O	0.579841	0.501827	0.474470
	H286	H	0.583138	0.495259	0.478826
	H287	H	0.582489	0.503102	0.479904
	O288	O	1.026980	-0.083091	-0.045373
	H289	H	1.029825	-0.082367	-0.036150
	H290	H	1.019795	-0.088845	-0.039552
	O291	O	-0.471716	0.449414	-0.450190
	H292	H	-0.474268	0.452798	-0.449249
	H293	H	-0.482570	0.447290	-0.450042
	O294	O	0.516031	0.460179	0.480773
	H295	H	0.530548	0.465242	0.484221
	H296	H	0.513110	0.459754	0.464724
	O297	O	0.024222	0.889300	-0.032873
	H298	H	0.032910	0.871545	-0.041101
	H299	H	0.030356	0.885486	-0.036383
	O300	O	1.031953	-0.093557	0.925260
	H301	H	1.033336	-0.082767	0.932145
	H302	H	1.030243	-0.099015	0.919972
	O303	O	0.554053	0.529982	0.529644
	H304	H	0.549832	0.527970	0.527964
	H305	H	0.550702	0.528439	0.531292
	O306	O	0.035173	0.884146	0.974907
	H307	H	0.037879	0.879710	0.966158
	H308	H	0.027011	0.896944	0.982318
	O309	O	0.534990	0.502140	0.516902
	H310	H	0.534429	0.497212	0.518752
	H311	H	0.535294	0.495683	0.513433
