data_Molecule from HDF5

_cell_length_a		16.293662
_cell_length_b		16.315591
_cell_length_c		16.375035
_cell_angle_alpha	89.993505
_cell_angle_beta	90.067240
_cell_angle_gamma	90.025886
_symmetry_space_group_name_H-M	'P 1'
_symmetry_Int_Tables_number		1

loop_
	_symmetry_equiv_pos_as_xyz
	x,y,z

loop_
	_atom_site_label
	_atom_site_type_symbol
	_atom_site_fract_x
	_atom_site_fract_y
	_atom_site_fract_z
	H0	H	0.404702	0.833478	0.716191
	H1	H	0.603594	0.159897	0.718210
	H2	H	0.600347	0.833901	0.288506
	H3	H	0.403739	0.159713	0.285396
	H4	H	0.718825	0.398591	0.838959
	H5	H	0.718971	0.594970	0.165274
	H6	H	0.290300	0.594835	0.839068
	H7	H	0.288789	0.398293	0.164664
	H8	H	0.840434	0.710194	0.403831
	H9	H	0.167851	0.713054	0.600101
	H10	H	0.839344	0.283767	0.599494
	H11	H	0.167096	0.281684	0.403981
	H12	H	0.840698	0.397871	0.718000
	H13	H	0.168628	0.596238	0.716655
	H14	H	0.841375	0.596686	0.285993
	H15	H	0.168379	0.398472	0.288238
	H16	H	0.406394	0.711601	0.839783
	H17	H	0.604049	0.712049	0.165629
	H18	H	0.603265	0.280781	0.839477
	H19	H	0.405720	0.282068	0.165755
	H20	H	0.716967	0.833393	0.404122
	H21	H	0.717202	0.161906	0.599177
	H22	H	0.288723	0.833856	0.598877
	H23	H	0.290014	0.160929	0.404193
	H24	H	0.905602	0.334147	0.217028
	H25	H	0.103870	0.659967	0.217420
	H26	H	0.103542	0.333415	0.786740
	H27	H	0.906005	0.660892	0.786539
	H28	H	0.218024	0.899012	0.338599
	H29	H	0.218016	0.095198	0.664742
	H30	H	0.789740	0.094645	0.337751
	H31	H	0.788861	0.899688	0.664462
	H32	H	0.340695	0.211821	0.903840
	H33	H	0.667140	0.210081	0.100466
	H34	H	0.340408	0.783043	0.098698
	H35	H	0.668668	0.783144	0.904932
	H36	H	0.340247	0.898443	0.215805
	H37	H	0.667587	0.094828	0.216501
	H38	H	0.340099	0.095969	0.787007
	H39	H	0.667415	0.897323	0.785974
	H40	H	0.905596	0.211879	0.338718
	H41	H	0.101698	0.211898	0.664597
	H42	H	0.100868	0.783112	0.338160
	H43	H	0.904767	0.781877	0.664864
	H44	H	0.219139	0.332633	0.903856
	H45	H	0.218836	0.660196	0.099550
	H46	H	0.790327	0.333221	0.099561
	H47	H	0.789485	0.661152	0.903761
	H48	H	0.404034	0.116533	0.598859
	H49	H	0.591635	0.884983	0.588657
	H50	H	0.602983	0.116413	0.406952
	H51	H	0.405015	0.878193	0.405033
	H52	H	0.592748	0.391140	0.119189
	H53	H	0.592689	0.587469	0.889038
	H54	H	0.406911	0.584426	0.117676
	H55	H	0.421612	0.397760	0.888518
	H56	H	0.118001	0.586113	0.413488
	H57	H	0.887509	0.591038	0.597963
	H58	H	0.119411	0.401564	0.593593
	H59	H	0.887119	0.408685	0.403512
	H60	H	0.118246	0.406652	0.593538
	H61	H	0.889589	0.591445	0.591550
	H62	H	0.121588	0.587574	0.403506
	H63	H	0.886000	0.398893	0.408300
	H64	H	0.417420	0.589964	0.116358
	H65	H	0.595927	0.594784	0.886507
	H66	H	0.609286	0.403981	0.120810
	H67	H	0.403322	0.399102	0.882874
	H68	H	0.591844	0.112936	0.403610
	H69	H	0.603155	0.880746	0.592809
	H70	H	0.420414	0.111323	0.599093
	H71	H	0.415720	0.881746	0.405290
	H72	H	0.914459	0.614443	0.103515
	H73	H	0.096697	0.378942	0.103472
	H74	H	0.090589	0.608055	0.916288
	H75	H	0.909992	0.380023	0.904236
	H76	H	0.092991	0.904246	0.616024
	H77	H	0.097053	0.091158	0.385757
	H78	H	0.911765	0.092113	0.617138
	H79	H	0.919416	0.906979	0.389518
	H80	H	0.618253	0.084170	0.907858
	H81	H	0.386858	0.090852	0.095196
	H82	H	0.618918	0.912818	0.099366
	H83	H	0.388576	0.896766	0.915751
	H84	H	0.623869	0.897378	0.101727
	H85	H	0.388330	0.088785	0.094318
	H86	H	0.621493	0.091494	0.906912
	H87	H	0.391842	0.913364	0.909776
	H88	H	0.907348	0.091016	0.617828
	H89	H	0.097464	0.089461	0.386020
	H90	H	0.097168	0.902110	0.616935
	H91	H	0.908325	0.891904	0.382991
	H92	H	0.107883	0.613501	0.910964
	H93	H	0.089761	0.384172	0.091340
	H94	H	0.917173	0.609902	0.089468
	H95	H	0.917348	0.384278	0.909500
	H96	H	0.410868	0.109969	0.584901
	H97	H	0.593279	0.880618	0.600752
	H98	H	0.595413	0.111562	0.415128
	H99	H	0.409662	0.883272	0.414721
	H100	H	0.590768	0.410346	0.113331
	H101	H	0.600823	0.588000	0.886676
	H102	H	0.407752	0.596046	0.120884
	H103	H	0.412399	0.414600	0.890878
	H104	H	0.121806	0.596102	0.410032
	H105	H	0.890213	0.586074	0.594898
	H106	H	0.120516	0.404602	0.597873
	H107	H	0.890379	0.407243	0.414052
	H108	H	0.903377	0.614886	0.092906
	H109	H	0.104024	0.379859	0.090450
	H110	H	0.093743	0.614223	0.898260
	H111	H	0.908043	0.381986	0.913662
	H112	H	0.097035	0.906539	0.616327
	H113	H	0.095768	0.090426	0.386254
	H114	H	0.910146	0.087602	0.615931
	H115	H	0.900388	0.909271	0.385594
	H116	H	0.618643	0.088579	0.913678
	H117	H	0.386973	0.088874	0.096691
	H118	H	0.618717	0.902235	0.087027
	H119	H	0.384836	0.901208	0.899018
	C120	C	0.382457	0.005093	0.622953
	C121	C	0.625307	0.989685	0.623280
	C122	C	0.624783	0.005462	0.380392
	C123	C	0.381559	0.988830	0.379768
	C124	C	0.626393	0.373954	0.010176
	C125	C	0.625337	0.618305	0.995120
	C126	C	0.382438	0.618756	0.010680
	C127	C	0.383246	0.375081	0.994504
	C128	C	0.012501	0.618503	0.380361
	C129	C	0.996693	0.618625	0.623393
	C130	C	0.011502	0.375627	0.623663
	C131	C	0.996214	0.376053	0.380446
	C132	C	0.883290	0.505196	0.123465
	C133	C	0.125549	0.488940	0.123568
	C134	C	0.126594	0.504448	0.879892
	C135	C	0.882710	0.489626	0.880352
	C136	C	0.124581	0.875791	0.509216
	C137	C	0.125268	0.119310	0.493412
	C138	C	0.881786	0.118547	0.509412
	C139	C	0.880688	0.874261	0.493361
	C140	C	0.511651	0.117378	0.880832
	C141	C	0.495473	0.117605	0.123737
	C142	C	0.512322	0.875525	0.123932
	C143	C	0.496113	0.874948	0.879851
	C144	C	0.384289	0.882305	0.678176
	C145	C	0.622720	0.111926	0.678901
	C146	C	0.621706	0.882574	0.326031
	C147	C	0.383920	0.111499	0.324340
	C148	C	0.681392	0.377393	0.887799
	C149	C	0.680742	0.615349	0.117093
	C150	C	0.327776	0.615700	0.887963
	C151	C	0.327364	0.377708	0.116563
	C152	C	0.889462	0.673178	0.382767
	C153	C	0.119626	0.674378	0.620560
	C154	C	0.888429	0.321177	0.620591
	C155	C	0.118735	0.320568	0.383932
	C156	C	0.888978	0.378005	0.679243
	C157	C	0.119841	0.616593	0.678452
	C158	C	0.889909	0.616755	0.324246
	C159	C	0.119211	0.378302	0.325987
	C160	C	0.385505	0.673463	0.888107
	C161	C	0.623943	0.673900	0.117094
	C162	C	0.623969	0.318636	0.887981
	C163	C	0.384749	0.319408	0.116806
	C164	C	0.679184	0.882290	0.383766
	C165	C	0.679878	0.112735	0.620364
	C166	C	0.326660	0.882383	0.620065
	C167	C	0.327130	0.112030	0.382942
	C168	C	0.884735	0.382733	0.179168
	C169	C	0.123828	0.611424	0.178936
	C170	C	0.124344	0.381889	0.824533
	C171	C	0.885201	0.612346	0.824731
	C172	C	0.179859	0.878391	0.386848
	C173	C	0.180260	0.116335	0.616079
	C174	C	0.827389	0.115512	0.386530
	C175	C	0.826569	0.878139	0.615947
	C176	C	0.388772	0.173054	0.883324
	C177	C	0.618513	0.172099	0.120867
	C178	C	0.389154	0.820739	0.120174
	C179	C	0.619722	0.820654	0.883808
	C180	C	0.389321	0.877938	0.178410
	C181	C	0.618557	0.115088	0.178747
	C182	C	0.388789	0.115613	0.825363
	C183	C	0.619161	0.877405	0.824774
	C184	C	0.884586	0.174040	0.387159
	C185	C	0.122186	0.173997	0.616036
	C186	C	0.121439	0.821101	0.386657
	C187	C	0.884290	0.819860	0.616013
	C188	C	0.181780	0.381744	0.882647
	C189	C	0.180704	0.611645	0.120204
	C190	C	0.828095	0.382139	0.120467
	C191	C	0.827226	0.612377	0.882736
	C192	C	0.405050	0.090464	0.600702
	C193	C	0.602704	0.904264	0.600753
	C194	C	0.603067	0.091507	0.402172
	C195	C	0.403577	0.903200	0.402035
	C196	C	0.604226	0.395655	0.095768
	C197	C	0.603030	0.596523	0.909422
	C198	C	0.404368	0.596847	0.096174
	C199	C	0.405918	0.397117	0.909530
	C200	C	0.098363	0.596386	0.402594
	C201	C	0.911271	0.596164	0.601326
	C202	C	0.097400	0.397806	0.601595
	C203	C	0.909997	0.398454	0.402204
	C204	C	0.905265	0.590940	0.101528
	C205	C	0.103120	0.403137	0.101640
	C206	C	0.103980	0.589901	0.901887
	C207	C	0.905118	0.404383	0.902417
	C208	C	0.102424	0.897866	0.594496
	C209	C	0.103201	0.097189	0.408123
	C210	C	0.903386	0.096683	0.594928
	C211	C	0.902778	0.896126	0.407991
	C212	C	0.597109	0.094884	0.903090
	C213	C	0.409498	0.095942	0.101855
	C214	C	0.598331	0.897499	0.102401
	C215	C	0.410509	0.897008	0.901790
	Zn216	Zn	0.503703	-0.003069	0.751656
	Zn217	Zn	0.503741	-0.002851	0.252141
	Zn218	Zn	0.754244	0.497251	0.002364
	Zn219	Zn	0.254519	0.496496	0.002140
	Zn220	Zn	0.004084	0.746411	0.501691
	Zn221	Zn	0.003118	0.247677	0.501921
	Zn222	Zn	0.004903	0.497102	0.751632
	Zn223	Zn	0.004213	0.497148	0.252136
	Zn224	Zn	0.504446	0.747259	0.002383
	Zn225	Zn	0.503847	0.245472	0.002324
	Zn226	Zn	0.753008	-0.002384	0.501236
	Zn227	Zn	0.253358	-0.002718	0.501587
	N228	N	0.418216	0.959513	0.679984
	N229	N	0.589836	0.034285	0.680923
	N230	N	0.588502	0.959946	0.324139
	N231	N	0.417244	0.034107	0.322486
	N232	N	0.682935	0.410927	0.964884
	N233	N	0.681783	0.581611	0.040095
	N234	N	0.325921	0.582077	0.965125
	N235	N	0.326089	0.411281	0.039687
	N236	N	0.966637	0.674433	0.416951
	N237	N	0.042066	0.675933	0.587275
	N238	N	0.965680	0.319608	0.586909
	N239	N	0.041107	0.319107	0.416939
	N240	N	0.966770	0.411013	0.681193
	N241	N	0.042539	0.582774	0.680489
	N242	N	0.967438	0.583341	0.322813
	N243	N	0.041822	0.412152	0.324080
	N244	N	0.418774	0.675404	0.965250
	N245	N	0.589824	0.675601	0.040161
	N246	N	0.590397	0.316442	0.965018
	N247	N	0.419235	0.317968	0.039958
	N248	N	0.681408	0.960018	0.416582
	N249	N	0.681555	0.035524	0.586512
	N250	N	0.325486	0.959556	0.586284
	N251	N	0.325494	0.034789	0.416800
	N252	N	0.918403	0.459934	0.180914
	N253	N	0.090497	0.533929	0.181068
	N254	N	0.090693	0.459182	0.822769
	N255	N	0.919145	0.535162	0.823217
	N256	N	0.181639	0.912014	0.463963
	N257	N	0.182006	0.082792	0.538919
	N258	N	0.825347	0.082071	0.463657
	N259	N	0.824137	0.911027	0.538798
	N260	N	0.466045	0.174490	0.917027
	N261	N	0.541074	0.173787	0.087203
	N262	N	0.466567	0.819208	0.086876
	N263	N	0.542175	0.818969	0.917287
	N264	N	0.466823	0.911384	0.180577
	N265	N	0.540908	0.081840	0.180415
	N266	N	0.466121	0.081744	0.823727
	N267	N	0.541549	0.910350	0.822320
	N268	N	0.917804	0.176015	0.464446
	N269	N	0.088901	0.176201	0.538775
	N270	N	0.088080	0.819213	0.463646
	N271	N	0.917084	0.817008	0.538534
	N272	N	0.183105	0.458969	0.916359
	N273	N	0.181766	0.534528	0.086307
	N274	N	0.826940	0.459366	0.086426
	N275	N	0.825713	0.535289	0.916748
	O276	O	-0.064957	0.015616	0.897861
	H277	H	-0.068778	0.014192	0.897193
	H278	H	-0.066565	0.012913	0.906667
	O279	O	0.529565	0.547259	0.613727
	H280	H	0.526982	0.536636	0.607125
	H281	H	0.521289	0.565126	0.618050
	O282	O	0.584541	0.528757	0.616464
	H283	H	0.591055	0.535828	0.619891
	H284	H	0.576992	0.527868	0.615996
	O285	O	0.558781	0.541046	0.614304
	H286	H	0.558470	0.540806	0.632392
	H287	H	0.572990	0.535725	0.611290
	O288	O	-0.055685	1.045923	-0.136227
	H289	H	-0.064689	1.044143	-0.138084
	H290	H	-0.058439	1.042462	-0.138424
	O291	O	-0.046871	1.012397	0.892777
	H292	H	-0.048013	1.015151	0.896458
	H293	H	-0.042349	1.014149	0.889233
	O294	O	0.591984	0.532336	0.616599
	H295	H	0.598140	0.527938	0.610329
	H296	H	0.591826	0.532942	0.624897
	O297	O	0.970171	0.051087	-0.108596
	H298	H	0.974358	0.058989	-0.114997
	H299	H	0.967978	0.053553	-0.118780
