data_Molecule from HDF5

_cell_length_a		16.448662
_cell_length_b		16.365080
_cell_length_c		16.478766
_cell_angle_alpha	90.019279
_cell_angle_beta	90.074317
_cell_angle_gamma	89.974273
_symmetry_space_group_name_H-M	'P 1'
_symmetry_Int_Tables_number		1

loop_
	_symmetry_equiv_pos_as_xyz
	x,y,z

loop_
	_atom_site_label
	_atom_site_type_symbol
	_atom_site_fract_x
	_atom_site_fract_y
	_atom_site_fract_z
	H0	H	0.382833	0.862740	0.712385
	H1	H	0.591167	0.181182	0.707488
	H2	H	0.597318	0.863323	0.265978
	H3	H	0.387401	0.182437	0.272143
	H4	H	0.714040	0.414131	0.833007
	H5	H	0.712182	0.628098	0.148857
	H6	H	0.266732	0.628521	0.832239
	H7	H	0.269100	0.415697	0.147978
	H8	H	0.832427	0.743518	0.384676
	H9	H	0.150543	0.740589	0.593230
	H10	H	0.831153	0.302195	0.595130
	H11	H	0.150258	0.301899	0.389416
	H12	H	0.831888	0.416537	0.712625
	H13	H	0.149296	0.626817	0.711396
	H14	H	0.834244	0.630336	0.266309
	H15	H	0.150806	0.417682	0.271730
	H16	H	0.382050	0.745710	0.832778
	H17	H	0.595366	0.743550	0.148021
	H18	H	0.593234	0.303020	0.830158
	H19	H	0.386783	0.300967	0.147764
	H20	H	0.712150	0.862182	0.383342
	H21	H	0.708427	0.180960	0.592864
	H22	H	0.268653	0.861962	0.594943
	H23	H	0.272001	0.182652	0.389245
	H24	H	0.887889	0.363241	0.210338
	H25	H	0.098373	0.681460	0.212426
	H26	H	0.096027	0.363844	0.768407
	H27	H	0.884430	0.682100	0.770172
	H28	H	0.213115	0.913674	0.333013
	H29	H	0.210031	0.124845	0.649831
	H30	H	0.769803	0.125776	0.332046
	H31	H	0.767982	0.915127	0.648637
	H32	H	0.331826	0.242128	0.884298
	H33	H	0.648836	0.240199	0.091328
	H34	H	0.331702	0.800129	0.094070
	H35	H	0.648590	0.799945	0.884906
	H36	H	0.332206	0.913248	0.212928
	H37	H	0.646841	0.129374	0.212777
	H38	H	0.331670	0.126269	0.769598
	H39	H	0.647763	0.913849	0.766746
	H40	H	0.884703	0.244042	0.333035
	H41	H	0.092597	0.239679	0.650885
	H42	H	0.094542	0.801829	0.331403
	H43	H	0.886342	0.800587	0.649030
	H44	H	0.211423	0.363685	0.884129
	H45	H	0.212481	0.681013	0.095843
	H46	H	0.770269	0.363799	0.096296
	H47	H	0.768688	0.681424	0.885930
	H48	H	0.396112	0.137571	0.583093
	H49	H	0.574905	0.907212	0.581107
	H50	H	0.576477	0.133287	0.401434
	H51	H	0.403908	0.907312	0.396749
	H52	H	0.576945	0.425523	0.103162
	H53	H	0.573755	0.607352	0.880443
	H54	H	0.407231	0.615396	0.101922
	H55	H	0.404456	0.430958	0.877913
	H56	H	0.101730	0.607393	0.405193
	H57	H	0.878313	0.610868	0.576779
	H58	H	0.104295	0.430236	0.581339
	H59	H	0.877357	0.429433	0.401697
	H60	H	0.102957	0.432956	0.579220
	H61	H	0.878281	0.607626	0.581224
	H62	H	0.105466	0.608849	0.396757
	H63	H	0.880461	0.436954	0.403758
	H64	H	0.394948	0.611263	0.104239
	H65	H	0.580466	0.615216	0.875439
	H66	H	0.587764	0.430608	0.106104
	H67	H	0.396847	0.429725	0.874239
	H68	H	0.581540	0.133953	0.402936
	H69	H	0.579537	0.908669	0.574293
	H70	H	0.404082	0.134028	0.582899
	H71	H	0.404770	0.910448	0.405095
	H72	H	0.895795	0.639089	0.080886
	H73	H	0.077925	0.409330	0.080310
	H74	H	0.079930	0.635949	0.903201
	H75	H	0.898726	0.410319	0.909563
	H76	H	0.078643	0.924029	0.605607
	H77	H	0.080577	0.110412	0.377961
	H78	H	0.901305	0.111656	0.603656
	H79	H	0.908716	0.928641	0.379872
	H80	H	0.602288	0.108236	0.898951
	H81	H	0.375340	0.112818	0.080877
	H82	H	0.600893	0.934260	0.073872
	H83	H	0.373673	0.927749	0.895560
	H84	H	0.600861	0.938912	0.078990
	H85	H	0.376803	0.111662	0.078272
	H86	H	0.605176	0.112588	0.896589
	H87	H	0.380098	0.931865	0.908585
	H88	H	0.898483	0.113458	0.604770
	H89	H	0.079377	0.111445	0.377657
	H90	H	0.087570	0.936544	0.604372
	H91	H	0.893942	0.929717	0.374313
	H92	H	0.079416	0.636240	0.900788
	H93	H	0.079570	0.409752	0.077658
	H94	H	0.907811	0.636274	0.083918
	H95	H	0.897043	0.405773	0.895020
	H96	H	0.398630	0.134468	0.575634
	H97	H	0.582567	0.905098	0.581002
	H98	H	0.579885	0.135590	0.398234
	H99	H	0.396787	0.907615	0.402415
	H100	H	0.578975	0.437320	0.100275
	H101	H	0.584508	0.605074	0.877949
	H102	H	0.403384	0.602975	0.099203
	H103	H	0.398683	0.436905	0.878523
	H104	H	0.104167	0.615644	0.402790
	H105	H	0.876747	0.612871	0.581350
	H106	H	0.103390	0.433069	0.582857
	H107	H	0.877328	0.435480	0.396099
	H108	H	0.903615	0.633232	0.072135
	H109	H	0.080249	0.408452	0.080495
	H110	H	0.077795	0.635151	0.902412
	H111	H	0.910037	0.411953	0.899367
	H112	H	0.072854	0.936833	0.599318
	H113	H	0.080351	0.111727	0.377548
	H114	H	0.898342	0.109725	0.604255
	H115	H	0.900954	0.942229	0.381050
	H116	H	0.603878	0.113029	0.902174
	H117	H	0.376100	0.109717	0.081016
	H118	H	0.603558	0.932266	0.080114
	H119	H	0.379676	0.941395	0.897696
	C120	C	0.367618	0.029978	0.612295
	C121	C	0.610292	1.012475	0.610628
	C122	C	0.611962	0.029560	0.367847
	C123	C	0.369402	1.013737	0.369740
	C124	C	0.612687	0.399838	-0.001604
	C125	C	0.611618	0.642400	0.982268
	C126	C	0.368546	0.643227	-0.001955
	C127	C	0.368410	0.400299	0.981205
	C128	C	-0.000272	0.643962	0.368335
	C129	C	0.982720	0.643026	0.611694
	C130	C	-0.001443	0.400350	0.613161
	C131	C	0.983117	0.401092	0.369256
	C132	C	0.870483	0.531035	0.111284
	C133	C	0.112349	0.514041	0.112060
	C134	C	0.111522	0.530943	0.869293
	C135	C	0.869114	0.514202	0.869023
	C136	C	0.112084	0.899964	0.498719
	C137	C	0.111294	0.142578	0.482804
	C138	C	0.868005	0.143562	0.499341
	C139	C	0.868451	0.900045	0.482316
	C140	C	0.498771	0.142892	0.867905
	C141	C	0.481085	0.143497	0.111177
	C142	C	0.497749	0.901255	0.110761
	C143	C	0.481763	0.899566	0.867698
	C144	C	0.365248	0.910274	0.672134
	C145	C	0.610904	0.132967	0.669003
	C146	C	0.615068	0.910762	0.306229
	C147	C	0.368181	0.134090	0.311165
	C148	C	0.673359	0.396778	0.879985
	C149	C	0.671876	0.645851	0.101187
	C150	C	0.307074	0.646690	0.879781
	C151	C	0.309017	0.397763	0.100428
	C152	C	0.880334	0.703794	0.366123
	C153	C	0.102454	0.701721	0.612505
	C154	C	0.878934	0.341433	0.613979
	C155	C	0.102482	0.341345	0.369319
	C156	C	0.879467	0.398575	0.672513
	C157	C	0.101886	0.645170	0.671532
	C158	C	0.881079	0.647311	0.307206
	C159	C	0.102815	0.399026	0.310869
	C160	C	0.364780	0.704793	0.879739
	C161	C	0.613581	0.703312	0.101045
	C162	C	0.613348	0.341176	0.878589
	C163	C	0.367363	0.340349	0.100355
	C164	C	0.672144	0.910181	0.364971
	C165	C	0.668959	0.132971	0.611850
	C166	C	0.308215	0.909933	0.613681
	C167	C	0.310843	0.134347	0.369477
	C168	C	0.869065	0.411212	0.170801
	C169	C	0.116041	0.633406	0.172626
	C170	C	0.113966	0.411504	0.808564
	C171	C	0.866193	0.634004	0.809489
	C172	C	0.172566	0.896598	0.380181
	C173	C	0.169989	0.143209	0.602599
	C174	C	0.809181	0.144833	0.379736
	C175	C	0.808287	0.896824	0.601162
	C176	C	0.379422	0.202467	0.866391
	C177	C	0.600829	0.201897	0.111305
	C178	C	0.379019	0.840329	0.112468
	C179	C	0.600806	0.839008	0.865624
	C180	C	0.379468	0.896800	0.171913
	C181	C	0.599829	0.146395	0.171516
	C182	C	0.379190	0.144570	0.809271
	C183	C	0.600519	0.896099	0.807149
	C184	C	0.866275	0.203817	0.380425
	C185	C	0.111568	0.200507	0.603064
	C186	C	0.113224	0.840919	0.379198
	C187	C	0.867105	0.839754	0.601328
	C188	C	0.171674	0.411387	0.865910
	C189	C	0.172869	0.633212	0.114445
	C190	C	0.810545	0.411381	0.113844
	C191	C	0.808728	0.633748	0.867342
	C192	C	0.392378	0.113538	0.587743
	C193	C	0.586023	0.928879	0.586074
	C194	C	0.586551	0.112596	0.393687
	C195	C	0.394524	0.930385	0.394202
	C196	C	0.588122	0.424211	0.081412
	C197	C	0.586634	0.616670	0.899416
	C198	C	0.394311	0.617499	0.080140
	C199	C	0.392862	0.425361	0.898518
	C200	C	0.082237	0.618264	0.393960
	C201	C	0.899449	0.617727	0.586869
	C202	C	0.081980	0.425065	0.588513
	C203	C	0.899971	0.426387	0.393573
	C204	C	0.895329	0.614426	0.086337
	C205	C	0.086601	0.430825	0.086600
	C206	C	0.086300	0.614141	0.894786
	C207	C	0.894612	0.430923	0.894132
	C208	C	0.087138	0.925223	0.581466
	C209	C	0.087030	0.118324	0.399567
	C210	C	0.892253	0.118807	0.582595
	C211	C	0.893717	0.925975	0.399857
	C212	C	0.582036	0.118214	0.892254
	C213	C	0.397698	0.118470	0.086805
	C214	C	0.580350	0.927681	0.085039
	C215	C	0.399318	0.925863	0.893360
	Zn216	Zn	0.489923	0.021292	0.739828
	Zn217	Zn	0.490084	0.021978	0.239996
	Zn218	Zn	0.740981	0.522215	-0.009452
	Zn219	Zn	0.239623	0.521549	-0.009764
	Zn220	Zn	-0.009053	0.771700	0.490336
	Zn221	Zn	-0.009567	0.272268	0.491473
	Zn222	Zn	-0.009477	0.523040	0.741091
	Zn223	Zn	-0.008084	0.522516	0.240315
	Zn224	Zn	0.490754	0.771441	-0.010127
	Zn225	Zn	0.489950	0.271498	-0.011127
	Zn226	Zn	0.739681	0.021107	0.490600
	Zn227	Zn	0.240020	0.021625	0.490289
	N228	N	0.401691	0.985924	0.671356
	N229	N	0.575180	0.056971	0.668439
	N230	N	0.578446	0.986171	0.307884
	N231	N	0.403504	0.058053	0.310875
	N232	N	0.673364	0.432369	0.955573
	N233	N	0.670602	0.608722	0.026376
	N234	N	0.309391	0.608981	0.954169
	N235	N	0.309446	0.434116	0.025349
	N236	N	0.954985	0.701881	0.403435
	N237	N	0.027229	0.700651	0.576302
	N238	N	0.954151	0.342628	0.577593
	N239	N	0.026847	0.342105	0.404554
	N240	N	0.954937	0.434330	0.672230
	N241	N	0.026280	0.609371	0.671017
	N242	N	0.956305	0.610834	0.308396
	N243	N	0.027538	0.435517	0.310842
	N244	N	0.402376	0.702973	0.954220
	N245	N	0.576755	0.701159	0.026037
	N246	N	0.576397	0.342656	0.953275
	N247	N	0.403455	0.341607	0.025220
	N248	N	0.670404	0.985087	0.402614
	N249	N	0.668794	0.057072	0.576401
	N250	N	0.309711	0.985246	0.577211
	N251	N	0.311203	0.058346	0.404924
	N252	N	0.905458	0.486662	0.169561
	N253	N	0.079157	0.558056	0.171301
	N254	N	0.077368	0.486916	0.810528
	N255	N	0.903194	0.558659	0.810526
	N256	N	0.171931	0.932734	0.455433
	N257	N	0.169909	0.107842	0.526879
	N258	N	0.809942	0.108262	0.454788
	N259	N	0.808922	0.933386	0.526119
	N260	N	0.454896	0.201538	0.902286
	N261	N	0.525983	0.199944	0.074284
	N262	N	0.453722	0.843002	0.075070
	N263	N	0.526038	0.841080	0.902468
	N264	N	0.454415	0.933835	0.170881
	N265	N	0.524303	0.110833	0.171507
	N266	N	0.454335	0.108034	0.810245
	N267	N	0.525318	0.932705	0.807904
	N268	N	0.902221	0.203065	0.455711
	N269	N	0.075709	0.200225	0.527670
	N270	N	0.076227	0.842784	0.453901
	N271	N	0.903567	0.841449	0.526286
	N272	N	0.170138	0.486527	0.903163
	N273	N	0.170793	0.557938	0.077601
	N274	N	0.811214	0.486942	0.077558
	N275	N	0.810435	0.558214	0.903646
	O276	O	0.481864	0.697493	0.354459
	H277	H	0.483386	0.685771	0.363334
	H278	H	0.480237	0.708795	0.357792
	O279	O	0.477514	0.662486	0.683487
	H280	H	0.460816	0.651758	0.678678
	H281	H	0.473275	0.689241	0.699936
	O282	O	0.314075	0.697649	0.350029
	H283	H	0.320397	0.701659	0.371399
	H284	H	0.319782	0.698863	0.364907
	O285	O	1.404496	1.728235	0.440035
	H286	H	1.397754	1.736129	0.436348
	H287	H	1.408040	1.731939	0.446826
	O288	O	0.777826	0.034045	0.842391
	H289	H	0.783004	0.058809	0.842384
	H290	H	0.767492	0.044085	0.824767
	O291	O	0.312758	0.363112	0.622336
	H292	H	0.317510	0.358803	0.626241
	H293	H	0.306982	0.354512	0.639595
	O294	O	1.149931	0.836320	0.952719
	H295	H	1.151541	0.841021	0.965155
	H296	H	1.160689	0.822605	0.964644
	O297	O	0.292092	0.541196	0.382497
	H298	H	0.285181	0.532254	0.383517
	H299	H	0.295763	0.542597	0.383441
	O300	O	-0.362301	-0.301410	-0.347974
	H301	H	-0.386272	-0.302327	-0.344560
	H302	H	-0.355862	-0.296824	-0.378407
	O303	O	0.775115	0.184352	1.120548
	H304	H	0.778321	0.192742	1.108600
	H305	H	0.777472	0.189890	1.104382
	O306	O	-0.104564	-0.159923	1.177366
	H307	H	-0.126198	-0.161499	1.166074
	H308	H	-0.097377	-0.184988	1.182475
	O309	O	0.858428	0.229884	0.005374
	H310	H	0.850544	0.223515	0.009064
	H311	H	0.869308	0.222184	0.028844
	O312	O	0.698071	0.583409	0.472209
	H313	H	0.701268	0.582184	0.463173
	H314	H	0.691550	0.564906	0.478502
	O315	O	0.438383	0.556713	0.349691
	H316	H	0.420913	0.547921	0.347008
	H317	H	0.439137	0.562706	0.348916
	O318	O	0.975765	-0.910876	0.115630
	H319	H	0.957648	-0.925362	0.107045
	H320	H	0.964702	-0.927266	0.114526
	O321	O	0.672485	0.517547	0.662737
	H322	H	0.684171	0.530806	0.669356
	H323	H	0.672464	0.539949	0.672749
	O324	O	0.851051	-0.110007	1.028064
	H325	H	0.857999	-0.108126	1.013748
	H326	H	0.834959	-0.125521	1.024603
	O327	O	-0.139398	0.995134	0.877941
	H328	H	-0.130184	1.001482	0.877299
	H329	H	-0.132647	1.004893	0.866415
	O330	O	0.172307	0.920010	0.851664
	H331	H	0.176167	0.914730	0.873896
	H332	H	0.167049	0.912905	0.837167
	O333	O	0.656399	0.331486	-0.462448
	H334	H	0.664795	0.331787	-0.466048
	H335	H	0.655665	0.345414	-0.468812
	O336	O	1.144023	1.009638	-0.067403
	H337	H	1.140930	0.997356	-0.063722
	H338	H	1.152650	0.999079	-0.058789
	O339	O	0.195958	1.036090	1.204245
	H340	H	0.206392	1.044897	1.201818
	H341	H	0.214527	1.059330	1.215285
	O342	O	0.540034	0.580633	0.492183
	H343	H	0.546997	0.578690	0.508155
	H344	H	0.541651	0.567979	0.487467
	O345	O	0.157352	0.035945	1.063522
	H346	H	0.179346	0.048073	1.070899
	H347	H	0.146314	0.041125	1.093277
	O348	O	0.453775	0.337124	0.377464
	H349	H	0.443052	0.330295	0.384875
	H350	H	0.450260	0.344347	0.366041
	O351	O	0.783775	0.039047	0.181284
	H352	H	0.769479	0.043897	0.169917
	H353	H	0.757598	0.022729	0.189507
	O354	O	0.470966	0.503527	1.497877
	H355	H	0.475289	0.502929	1.501637
	H356	H	0.490639	0.507994	1.492582
	O357	O	-0.099204	0.047234	-0.148094
	H358	H	-0.104067	0.057981	-0.163573
	H359	H	-0.098403	0.044168	-0.145318
	O360	O	1.171152	0.189703	0.958818
	H361	H	1.167907	0.163593	0.954905
	H362	H	1.181693	0.203072	0.961998
	O363	O	0.999099	0.064359	-0.011969
	H364	H	0.991604	0.074653	-0.011516
	H365	H	1.003509	0.066323	-0.020848
	O366	O	-0.023031	-0.129956	0.995889
	H367	H	-0.036817	-0.133501	0.994643
	H368	H	-0.018456	-0.139520	0.999282
	O369	O	1.031549	0.072464	0.907667
	H370	H	1.019537	0.064269	0.917831
	H371	H	1.020353	0.091046	0.891402
	O372	O	0.490196	0.525066	0.284104
	H373	H	0.463242	0.539444	0.274579
	H374	H	0.494284	0.534287	0.286692
	O375	O	-0.173570	0.129676	0.813933
	H376	H	-0.149416	0.146225	0.806980
	H377	H	-0.185497	0.133115	0.838921
	O378	O	0.383273	0.641081	0.588707
	H379	H	0.387921	0.628435	0.598356
	H380	H	0.372051	0.632158	0.597517
	O381	O	-0.169397	1.217050	-0.007906
	H382	H	-0.177986	1.229199	-0.012177
	H383	H	-0.137813	1.216939	0.013273
	O384	O	0.651701	0.412560	0.525950
	H385	H	0.664354	0.418534	0.525142
	H386	H	0.635535	0.409814	0.520538
	O387	O	0.963001	-0.163729	0.954927
	H388	H	0.974426	-0.161165	0.938618
	H389	H	0.973294	-0.163293	0.943110
	O390	O	1.018094	1.191471	0.189146
	H391	H	0.997623	1.183940	0.205618
	H392	H	1.009057	1.182228	0.204566
	O393	O	1.177446	0.191879	1.175577
	H394	H	1.151875	0.201389	1.172085
	H395	H	1.167737	0.191542	1.162074
	O396	O	0.400902	0.398972	0.395704
	H397	H	0.400915	0.401923	0.398229
	H398	H	0.397222	0.392985	0.388402
	O399	O	0.429119	0.388008	0.676359
	H400	H	0.442478	0.399577	0.681832
	H401	H	0.436195	0.373363	0.679275
	O402	O	1.034442	0.879265	-0.192607
	H403	H	1.020514	0.881661	-0.205817
	H404	H	1.039871	0.884189	-0.194487
	O405	O	-0.321396	-0.272901	0.535036
	H406	H	-0.309492	-0.270781	0.528596
	H407	H	-0.307068	-0.271769	0.526196
	O408	O	0.315073	0.570714	0.586796
	H409	H	0.313374	0.580064	0.587907
	H410	H	0.309300	0.573397	0.580500
	O411	O	0.756726	0.816059	1.231925
	H412	H	0.754974	0.830250	1.233258
	H413	H	0.737050	0.809365	1.210452
	O414	O	0.400358	0.643183	0.663399
	H415	H	0.393253	0.646258	0.664946
	H416	H	0.414120	0.642943	0.658753
	O417	O	0.090788	0.889020	0.810886
	H418	H	0.100129	0.893663	0.825957
	H419	H	0.080454	0.899708	0.814731
	O420	O	0.598702	1.495655	1.466540
	H421	H	0.611950	1.510817	1.462414
	H422	H	0.580940	1.516177	1.465769
	O423	O	-0.008514	1.180880	-0.126091
	H424	H	0.000780	1.188317	-0.131481
	H425	H	0.002870	1.170474	-0.131531
	O426	O	0.999030	-0.101810	0.185377
	H427	H	1.007218	-0.117919	0.195763
	H428	H	1.007011	-0.107625	0.180747
	O429	O	0.601847	0.323345	0.324998
	H430	H	0.609545	0.317686	0.337816
	H431	H	0.585934	0.310961	0.324341
	O432	O	0.452683	0.395055	0.487287
	H433	H	0.456845	0.396853	0.489029
	H434	H	0.463196	0.383269	0.493721
	O435	O	0.082087	0.188550	-0.066658
	H436	H	0.071213	0.186479	-0.047863
	H437	H	0.104192	0.185023	-0.058087
	O438	O	-0.325504	1.405864	0.348282
	H439	H	-0.325784	1.386069	0.342137
	H440	H	-0.316835	1.404593	0.323408
	O441	O	0.469622	0.427353	0.572398
	H442	H	0.466285	0.423471	0.578549
	H443	H	0.469779	0.429414	0.567513
