data_Molecule from HDF5

_cell_length_a		16.358502
_cell_length_b		16.273471
_cell_length_c		16.331772
_cell_angle_alpha	89.948801
_cell_angle_beta	89.972276
_cell_angle_gamma	89.879931
_symmetry_space_group_name_H-M	'P 1'
_symmetry_Int_Tables_number		1

loop_
	_symmetry_equiv_pos_as_xyz
	x,y,z

loop_
	_atom_site_label
	_atom_site_type_symbol
	_atom_site_fract_x
	_atom_site_fract_y
	_atom_site_fract_z
	H0	H	0.412027	0.841944	0.720996
	H1	H	0.606059	0.169524	0.722107
	H2	H	0.607771	0.842500	0.292654
	H3	H	0.409132	0.169241	0.293245
	H4	H	0.724015	0.406356	0.843713
	H5	H	0.723183	0.605514	0.169657
	H6	H	0.292610	0.606308	0.843219
	H7	H	0.292475	0.406172	0.168858
	H8	H	0.844934	0.721224	0.408220
	H9	H	0.172125	0.719071	0.603142
	H10	H	0.844751	0.291467	0.604785
	H11	H	0.171340	0.291609	0.409095
	H12	H	0.844736	0.408067	0.721424
	H13	H	0.171570	0.603512	0.721283
	H14	H	0.844737	0.604330	0.291963
	H15	H	0.170826	0.405712	0.290982
	H16	H	0.410783	0.720831	0.843190
	H17	H	0.606059	0.720470	0.169486
	H18	H	0.606564	0.291415	0.842816
	H19	H	0.411687	0.293289	0.170125
	H20	H	0.723320	0.842259	0.409838
	H21	H	0.723221	0.169961	0.607203
	H22	H	0.294310	0.841945	0.606065
	H23	H	0.293791	0.169133	0.408408
	H24	H	0.910128	0.342243	0.221931
	H25	H	0.105706	0.669836	0.220571
	H26	H	0.107394	0.342989	0.791895
	H27	H	0.909799	0.670364	0.792442
	H28	H	0.224103	0.907516	0.343474
	H29	H	0.223570	0.104184	0.669357
	H30	H	0.791804	0.107187	0.344523
	H31	H	0.794162	0.907020	0.670611
	H32	H	0.344279	0.220529	0.909315
	H33	H	0.671200	0.220310	0.104176
	H34	H	0.344701	0.791101	0.106473
	H35	H	0.671128	0.790941	0.909180
	H36	H	0.345244	0.907654	0.223602
	H37	H	0.671024	0.105762	0.223280
	H38	H	0.345232	0.105129	0.791779
	H39	H	0.670216	0.905065	0.791086
	H40	H	0.911586	0.219575	0.343241
	H41	H	0.105545	0.219854	0.670487
	H42	H	0.106930	0.791997	0.342882
	H43	H	0.910859	0.791202	0.670426
	H44	H	0.223345	0.342627	0.907444
	H45	H	0.221516	0.670156	0.103995
	H46	H	0.793839	0.342270	0.106007
	H47	H	0.792922	0.669415	0.907591
	H48	H	0.411107	0.122097	0.596691
	H49	H	0.608098	0.887785	0.602705
	H50	H	0.592163	0.119298	0.414971
	H51	H	0.412318	0.888663	0.417162
	H52	H	0.598563	0.402854	0.123904
	H53	H	0.600100	0.598054	0.890360
	H54	H	0.421097	0.590892	0.117984
	H55	H	0.418547	0.422035	0.894085
	H56	H	0.126593	0.600631	0.405311
	H57	H	0.890066	0.600156	0.608184
	H58	H	0.125392	0.405489	0.598606
	H59	H	0.893337	0.413412	0.414655
	H60	H	0.120389	0.416490	0.594353
	H61	H	0.891861	0.606763	0.595232
	H62	H	0.123397	0.605131	0.417480
	H63	H	0.892467	0.414382	0.413260
	H64	H	0.418103	0.607168	0.123428
	H65	H	0.601776	0.598743	0.890726
	H66	H	0.611872	0.416354	0.124488
	H67	H	0.421361	0.404857	0.889774
	H68	H	0.604467	0.121336	0.423398
	H69	H	0.596204	0.890122	0.603590
	H70	H	0.413085	0.124566	0.604795
	H71	H	0.416580	0.888036	0.410930
	H72	H	0.925169	0.618841	0.099057
	H73	H	0.106820	0.388459	0.098325
	H74	H	0.109232	0.626673	0.908455
	H75	H	0.911522	0.389147	0.917000
	H76	H	0.100733	0.919591	0.620244
	H77	H	0.111227	0.097451	0.388154
	H78	H	0.915533	0.097236	0.622406
	H79	H	0.906577	0.904516	0.386545
	H80	H	0.625251	0.099624	0.908908
	H81	H	0.395809	0.099791	0.093092
	H82	H	0.624557	0.912614	0.103740
	H83	H	0.395090	0.918183	0.918429
	H84	H	0.622616	0.910241	0.097851
	H85	H	0.392620	0.093078	0.106249
	H86	H	0.623145	0.102610	0.918358
	H87	H	0.390404	0.914684	0.907214
	H88	H	0.916447	0.098956	0.622628
	H89	H	0.097246	0.092522	0.393527
	H90	H	0.097261	0.906858	0.622096
	H91	H	0.910414	0.927955	0.394237
	H92	H	0.091751	0.621258	0.908485
	H93	H	0.098886	0.389466	0.103732
	H94	H	0.910017	0.621237	0.089641
	H95	H	0.914412	0.388359	0.908959
	H96	H	0.419222	0.120845	0.599650
	H97	H	0.601829	0.891742	0.593966
	H98	H	0.604321	0.124668	0.408349
	H99	H	0.419094	0.891383	0.417227
	H100	H	0.594512	0.420701	0.117631
	H101	H	0.601309	0.597556	0.890923
	H102	H	0.404906	0.595144	0.124017
	H103	H	0.405188	0.412054	0.886885
	H104	H	0.121672	0.592259	0.414754
	H105	H	0.895838	0.593046	0.596528
	H106	H	0.124860	0.415873	0.606179
	H107	H	0.891826	0.412425	0.412785
	H108	H	0.911056	0.625564	0.107086
	H109	H	0.098869	0.391550	0.094514
	H110	H	0.101779	0.619719	0.924486
	H111	H	0.919363	0.391849	0.914767
	H112	H	0.109531	0.910737	0.625666
	H113	H	0.099472	0.107260	0.389048
	H114	H	0.914537	0.098645	0.623127
	H115	H	0.929260	0.911250	0.394577
	H116	H	0.621534	0.093036	0.915593
	H117	H	0.388986	0.107693	0.103790
	H118	H	0.621981	0.917227	0.099685
	H119	H	0.390730	0.906141	0.916512
	C120	C	0.386681	0.014151	0.628759
	C121	C	0.630194	0.998035	0.629048
	C122	C	0.629553	0.014078	0.386599
	C123	C	0.387279	0.997388	0.386283
	C124	C	0.630267	0.384260	0.014531
	C125	C	0.629817	0.627219	0.998143
	C126	C	0.386360	0.627255	0.014225
	C127	C	0.386816	0.384773	0.998192
	C128	C	0.016336	0.627981	0.384283
	C129	C	1.000496	0.627911	0.628176
	C130	C	0.015785	0.384116	0.628524
	C131	C	0.999883	0.384426	0.384904
	C132	C	0.886644	0.513860	0.127907
	C133	C	0.130184	0.497995	0.128039
	C134	C	0.129640	0.514411	0.885398
	C135	C	0.886600	0.498188	0.885138
	C136	C	0.130816	0.884131	0.514746
	C137	C	0.130111	0.127013	0.498434
	C138	C	0.886495	0.127814	0.515217
	C139	C	0.887227	0.885313	0.499364
	C140	C	0.515866	0.127135	0.885813
	C141	C	0.499945	0.128571	0.129512
	C142	C	0.515709	0.884552	0.129466
	C143	C	0.499620	0.884300	0.885676
	C144	C	0.390561	0.890771	0.683307
	C145	C	0.627151	0.120777	0.684225
	C146	C	0.628053	0.891411	0.330633
	C147	C	0.388836	0.120468	0.331019
	C148	C	0.685723	0.386103	0.892030
	C149	C	0.685284	0.625514	0.120879
	C150	C	0.331048	0.626090	0.891737
	C151	C	0.331148	0.386465	0.120439
	C152	C	0.893541	0.683169	0.387394
	C153	C	0.123377	0.681849	0.624712
	C154	C	0.893480	0.329306	0.625665
	C155	C	0.122563	0.329582	0.388228
	C156	C	0.893579	0.387276	0.683531
	C157	C	0.123010	0.624601	0.683325
	C158	C	0.893543	0.625257	0.329451
	C159	C	0.122159	0.386216	0.329442
	C160	C	0.389691	0.682956	0.891720
	C161	C	0.626610	0.682220	0.121148
	C162	C	0.627099	0.329189	0.891698
	C163	C	0.390452	0.330446	0.121106
	C164	C	0.685644	0.891358	0.388613
	C165	C	0.685181	0.120987	0.627092
	C166	C	0.332148	0.890787	0.626326
	C167	C	0.331847	0.120495	0.388439
	C168	C	0.889351	0.391212	0.183821
	C169	C	0.126810	0.621048	0.182791
	C170	C	0.127729	0.391578	0.830033
	C171	C	0.889087	0.621314	0.829911
	C172	C	0.186299	0.886679	0.392132
	C173	C	0.184922	0.124570	0.621094
	C174	C	0.830438	0.126525	0.392975
	C175	C	0.832232	0.886859	0.622060
	C176	C	0.393068	0.182395	0.888581
	C177	C	0.622603	0.182996	0.125916
	C178	C	0.393184	0.829341	0.126729
	C179	C	0.622496	0.829068	0.888457
	C180	C	0.393414	0.887193	0.184899
	C181	C	0.622393	0.125741	0.184733
	C182	C	0.393465	0.125346	0.830128
	C183	C	0.622037	0.885730	0.829798
	C184	C	0.889714	0.182577	0.392211
	C185	C	0.126336	0.181910	0.621490
	C186	C	0.127936	0.829504	0.391787
	C187	C	0.890498	0.829390	0.621918
	C188	C	0.185113	0.391412	0.887604
	C189	C	0.184349	0.621121	0.124944
	C190	C	0.831392	0.391169	0.126393
	C191	C	0.831222	0.620968	0.887251
	C192	C	0.408006	0.100254	0.606812
	C193	C	0.608364	0.912063	0.606879
	C194	C	0.606933	0.099727	0.409062
	C195	C	0.409510	0.911612	0.408627
	C196	C	0.608082	0.406719	0.099919
	C197	C	0.607576	0.604761	0.912959
	C198	C	0.408237	0.604501	0.099653
	C199	C	0.408616	0.406686	0.912275
	C200	C	0.101821	0.605912	0.406059
	C201	C	0.914843	0.606277	0.606440
	C202	C	0.101490	0.406249	0.606281
	C203	C	0.914374	0.406869	0.407168
	C204	C	0.908807	0.599722	0.105131
	C205	C	0.108021	0.411983	0.105709
	C206	C	0.107459	0.600364	0.907379
	C207	C	0.908613	0.412138	0.907093
	C208	C	0.108775	0.905895	0.600595
	C209	C	0.108898	0.105421	0.412452
	C210	C	0.908855	0.104988	0.600764
	C211	C	0.909047	0.907960	0.413893
	C212	C	0.601092	0.104837	0.907699
	C213	C	0.414567	0.106520	0.107491
	C214	C	0.600999	0.906628	0.107046
	C215	C	0.414404	0.906506	0.907701
	Zn216	Zn	0.508020	0.005946	0.756918
	Zn217	Zn	0.507595	0.006126	0.258168
	Zn218	Zn	0.758597	0.505951	0.006358
	Zn219	Zn	0.258212	0.506333	0.006069
	Zn220	Zn	0.008343	0.756421	0.506252
	Zn221	Zn	0.007988	0.255918	0.506413
	Zn222	Zn	0.008087	0.506239	0.757171
	Zn223	Zn	0.008413	0.505861	0.255965
	Zn224	Zn	0.507957	0.755782	0.007066
	Zn225	Zn	0.508102	0.256065	0.006493
	Zn226	Zn	0.758378	0.006492	0.507798
	Zn227	Zn	0.259480	0.005621	0.506576
	N228	N	0.423767	0.968318	0.684664
	N229	N	0.593571	0.043379	0.685287
	N230	N	0.593782	0.968766	0.329336
	N231	N	0.422751	0.043032	0.329804
	N232	N	0.687736	0.419624	0.969335
	N233	N	0.687343	0.591984	0.043416
	N234	N	0.328956	0.592309	0.968905
	N235	N	0.328919	0.419336	0.042903
	N236	N	0.970762	0.685039	0.420697
	N237	N	0.046317	0.683942	0.591104
	N238	N	0.970692	0.327157	0.592336
	N239	N	0.045601	0.328393	0.422090
	N240	N	0.970860	0.420628	0.685264
	N241	N	0.045558	0.591667	0.685532
	N242	N	0.970782	0.591588	0.327484
	N243	N	0.044778	0.419619	0.327289
	N244	N	0.423495	0.683762	0.968905
	N245	N	0.592719	0.683432	0.044123
	N246	N	0.593434	0.327782	0.968905
	N247	N	0.424428	0.329262	0.043954
	N248	N	0.686485	0.968610	0.422844
	N249	N	0.687072	0.043494	0.593389
	N250	N	0.329734	0.968515	0.593001
	N251	N	0.330854	0.042896	0.422086
	N252	N	0.923020	0.468525	0.184766
	N253	N	0.093687	0.543425	0.184573
	N254	N	0.093568	0.468821	0.828686
	N255	N	0.923060	0.543918	0.828809
	N256	N	0.188044	0.920184	0.469551
	N257	N	0.187461	0.091144	0.543800
	N258	N	0.828220	0.093389	0.470600
	N259	N	0.830136	0.921003	0.545001
	N260	N	0.470142	0.183770	0.922395
	N261	N	0.545609	0.184863	0.092436
	N262	N	0.470329	0.827506	0.092972
	N263	N	0.545522	0.827802	0.922321
	N264	N	0.470627	0.920549	0.186719
	N265	N	0.544918	0.092871	0.187327
	N266	N	0.470717	0.091787	0.828128
	N267	N	0.544820	0.919447	0.827962
	N268	N	0.923860	0.183426	0.469105
	N269	N	0.092873	0.183374	0.544141
	N270	N	0.094236	0.827892	0.468899
	N271	N	0.924009	0.828469	0.544613
	N272	N	0.186207	0.468819	0.921428
	N273	N	0.186349	0.543548	0.091606
	N274	N	0.829822	0.468519	0.092233
	N275	N	0.829542	0.543440	0.920773
	O276	O	0.463944	0.464414	0.443621
	H277	H	0.462326	0.465480	0.440116
	H278	H	0.464093	0.476331	0.443530
	O279	O	-0.050647	-0.012719	-0.000085
	H280	H	-0.047869	-0.013908	0.007983
	H281	H	-0.044185	-0.011721	-0.012880
	O282	O	0.451081	0.492431	0.402617
	H283	H	0.449045	0.487772	0.391420
	H284	H	0.451901	0.487968	0.394167
	O285	O	0.487417	0.512441	0.463645
	H286	H	0.488974	0.511619	0.459031
	H287	H	0.484531	0.506863	0.464868
	O288	O	0.946443	0.000077	-0.011800
	H289	H	0.945781	0.010533	-0.019400
	H290	H	0.934047	-0.006078	-0.006691
	O291	O	-0.534325	0.537997	-0.565681
	H292	H	-0.524798	0.533594	-0.571041
	H293	H	-0.534473	0.541739	-0.559933
	O294	O	0.487788	0.477574	0.450450
	H295	H	0.482598	0.479053	0.444534
	H296	H	0.480821	0.482298	0.453609
	O297	O	-0.080127	1.012878	-0.052458
	H298	H	-0.088023	1.013234	-0.052250
	H299	H	-0.079943	1.014629	-0.045261
	O300	O	0.940237	-0.000307	1.007660
	H301	H	0.941565	0.001682	0.994210
	H302	H	0.931323	-0.002711	1.003421
	O303	O	0.571336	0.479289	0.398887
	H304	H	0.572204	0.483189	0.399287
	H305	H	0.571445	0.473714	0.401985
	O306	O	-0.046557	0.991174	0.978074
	H307	H	-0.043788	0.980984	0.988453
	H308	H	-0.050194	0.998123	0.979768
	O309	O	0.472657	0.502205	0.403475
	H310	H	0.462986	0.499757	0.408512
	H311	H	0.481448	0.507789	0.398258
