data_Molecule from HDF5

_cell_length_a		16.331669
_cell_length_b		16.327163
_cell_length_c		16.314959
_cell_angle_alpha	89.877065
_cell_angle_beta	90.003589
_cell_angle_gamma	89.936789
_symmetry_space_group_name_H-M	'P 1'
_symmetry_Int_Tables_number		1

loop_
	_symmetry_equiv_pos_as_xyz
	x,y,z

loop_
	_atom_site_label
	_atom_site_type_symbol
	_atom_site_fract_x
	_atom_site_fract_y
	_atom_site_fract_z
	H0	H	0.399913	0.841214	0.716281
	H1	H	0.594218	0.168658	0.714297
	H2	H	0.595342	0.840830	0.288392
	H3	H	0.399952	0.168054	0.286355
	H4	H	0.712219	0.406132	0.837915
	H5	H	0.713047	0.602264	0.164692
	H6	H	0.282023	0.603596	0.838753
	H7	H	0.281780	0.403446	0.164424
	H8	H	0.834385	0.719631	0.403907
	H9	H	0.161346	0.718589	0.599816
	H10	H	0.833933	0.291001	0.599579
	H11	H	0.161122	0.289605	0.403716
	H12	H	0.833822	0.407628	0.716005
	H13	H	0.161325	0.602925	0.716922
	H14	H	0.834443	0.604528	0.286247
	H15	H	0.161137	0.407054	0.287513
	H16	H	0.398132	0.720208	0.838746
	H17	H	0.594810	0.717036	0.165702
	H18	H	0.595218	0.290627	0.837413
	H19	H	0.399400	0.288036	0.164844
	H20	H	0.712614	0.841221	0.403872
	H21	H	0.711231	0.168288	0.598241
	H22	H	0.284230	0.841093	0.599262
	H23	H	0.283616	0.168879	0.402970
	H24	H	0.899446	0.341119	0.217103
	H25	H	0.095992	0.668440	0.215503
	H26	H	0.096124	0.341470	0.787551
	H27	H	0.899184	0.668131	0.786987
	H28	H	0.212160	0.908338	0.338145
	H29	H	0.211462	0.102015	0.665925
	H30	H	0.783328	0.103696	0.338060
	H31	H	0.784976	0.908336	0.666373
	H32	H	0.334322	0.218955	0.903233
	H33	H	0.660844	0.218280	0.099718
	H34	H	0.334106	0.789927	0.100110
	H35	H	0.660911	0.790083	0.905007
	H36	H	0.334320	0.906150	0.216464
	H37	H	0.660478	0.101444	0.216073
	H38	H	0.334003	0.101511	0.788174
	H39	H	0.660893	0.905551	0.786864
	H40	H	0.900222	0.220105	0.338350
	H41	H	0.093423	0.217000	0.666870
	H42	H	0.095016	0.791484	0.337639
	H43	H	0.900575	0.790422	0.665905
	H44	H	0.211840	0.340830	0.903835
	H45	H	0.212951	0.667048	0.100177
	H46	H	0.782975	0.341011	0.100707
	H47	H	0.782949	0.667774	0.903728
	H48	H	0.402002	0.121111	0.595229
	H49	H	0.592425	0.886542	0.601093
	H50	H	0.589110	0.122792	0.397516
	H51	H	0.403899	0.889649	0.408008
	H52	H	0.588379	0.416530	0.115241
	H53	H	0.592185	0.600584	0.884116
	H54	H	0.412723	0.591872	0.113535
	H55	H	0.402013	0.413904	0.885658
	H56	H	0.116045	0.595516	0.395968
	H57	H	0.884915	0.588384	0.595391
	H58	H	0.114294	0.410753	0.597062
	H59	H	0.883309	0.411025	0.415197
	H60	H	0.113631	0.410058	0.594145
	H61	H	0.877770	0.603242	0.603047
	H62	H	0.115705	0.609960	0.412821
	H63	H	0.883172	0.418735	0.407929
	H64	H	0.405576	0.605074	0.119793
	H65	H	0.592984	0.595101	0.885952
	H66	H	0.586094	0.406916	0.116904
	H67	H	0.407319	0.411588	0.886918
	H68	H	0.583425	0.116669	0.414122
	H69	H	0.585971	0.890747	0.594054
	H70	H	0.405386	0.121102	0.596194
	H71	H	0.405509	0.889809	0.410237
	H72	H	0.906062	0.619046	0.094045
	H73	H	0.093949	0.387127	0.098981
	H74	H	0.094238	0.622918	0.902643
	H75	H	0.897043	0.385117	0.903662
	H76	H	0.087562	0.918676	0.614590
	H77	H	0.097281	0.097872	0.384659
	H78	H	0.904560	0.101493	0.619085
	H79	H	0.912102	0.910761	0.387424
	H80	H	0.613957	0.102796	0.910886
	H81	H	0.382335	0.103037	0.086819
	H82	H	0.612981	0.913319	0.095373
	H83	H	0.386748	0.916717	0.917037
	H84	H	0.615323	0.909128	0.099517
	H85	H	0.384242	0.087822	0.092806
	H86	H	0.611535	0.092860	0.910697
	H87	H	0.380852	0.916206	0.899531
	H88	H	0.899995	0.099691	0.619523
	H89	H	0.087666	0.093135	0.388706
	H90	H	0.086358	0.903323	0.619040
	H91	H	0.900056	0.906980	0.383532
	H92	H	0.082088	0.618105	0.908506
	H93	H	0.085981	0.389707	0.096563
	H94	H	0.903695	0.619724	0.092692
	H95	H	0.912464	0.389783	0.904048
	H96	H	0.403956	0.120216	0.593073
	H97	H	0.595683	0.888300	0.591100
	H98	H	0.600733	0.122964	0.412065
	H99	H	0.403648	0.889197	0.411025
	H100	H	0.595590	0.409897	0.118439
	H101	H	0.587499	0.597423	0.886730
	H102	H	0.396593	0.591323	0.118570
	H103	H	0.403438	0.408242	0.884146
	H104	H	0.108863	0.589058	0.416406
	H105	H	0.883669	0.603433	0.585316
	H106	H	0.112868	0.412571	0.595090
	H107	H	0.880201	0.408829	0.405343
	H108	H	0.904071	0.619791	0.095382
	H109	H	0.092983	0.389303	0.090862
	H110	H	0.094248	0.619207	0.916639
	H111	H	0.903432	0.390885	0.917751
	H112	H	0.100219	0.910796	0.620108
	H113	H	0.087441	0.104056	0.385654
	H114	H	0.903345	0.096943	0.616710
	H115	H	0.901439	0.919086	0.387693
	H116	H	0.614872	0.097206	0.902495
	H117	H	0.378642	0.099888	0.102537
	H118	H	0.613820	0.907469	0.093397
	H119	H	0.378501	0.901426	0.910445
	C120	C	0.376074	0.012847	0.623307
	C121	C	0.619133	0.996578	0.623096
	C122	C	0.619097	0.012579	0.380337
	C123	C	0.375995	0.997182	0.380559
	C124	C	0.618846	0.382404	0.009043
	C125	C	0.619047	0.625465	0.993485
	C126	C	0.375906	0.625722	0.009913
	C127	C	0.376051	0.382076	0.993530
	C128	C	0.005621	0.626709	0.379954
	C129	C	0.989887	0.626243	0.623594
	C130	C	0.005560	0.383479	0.623840
	C131	C	0.989817	0.383854	0.380741
	C132	C	0.875868	0.512189	0.123413
	C133	C	0.119675	0.496616	0.123804
	C134	C	0.118804	0.512374	0.880765
	C135	C	0.875912	0.496277	0.879906
	C136	C	0.119863	0.882869	0.509932
	C137	C	0.118715	0.125935	0.494417
	C138	C	0.875114	0.127221	0.510138
	C139	C	0.876529	0.883798	0.494559
	C140	C	0.505965	0.126192	0.879647
	C141	C	0.489502	0.125162	0.122483
	C142	C	0.505950	0.881953	0.124178
	C143	C	0.489601	0.883035	0.880684
	C144	C	0.379132	0.889789	0.678211
	C145	C	0.615657	0.119762	0.677146
	C146	C	0.616339	0.889632	0.326180
	C147	C	0.378996	0.119678	0.324782
	C148	C	0.673960	0.385557	0.886488
	C149	C	0.674523	0.622788	0.116343
	C150	C	0.320322	0.623930	0.887166
	C151	C	0.320621	0.383762	0.116042
	C152	C	0.882978	0.682022	0.382659
	C153	C	0.112704	0.681083	0.621003
	C154	C	0.882686	0.328511	0.621153
	C155	C	0.112546	0.328118	0.383373
	C156	C	0.882605	0.386883	0.678400
	C157	C	0.112510	0.623668	0.679114
	C158	C	0.883153	0.624556	0.324584
	C159	C	0.112524	0.385965	0.325498
	C160	C	0.377739	0.681865	0.887317
	C161	C	0.616376	0.680201	0.116571
	C162	C	0.615901	0.328112	0.886237
	C163	C	0.378656	0.326091	0.115972
	C164	C	0.674302	0.889790	0.383590
	C165	C	0.673264	0.119765	0.619182
	C166	C	0.321598	0.889936	0.620328
	C167	C	0.321268	0.119997	0.382645
	C168	C	0.878809	0.389599	0.178863
	C169	C	0.116422	0.619336	0.178120
	C170	C	0.116537	0.389809	0.825801
	C171	C	0.878981	0.619339	0.825307
	C172	C	0.174515	0.886597	0.386911
	C173	C	0.173500	0.122824	0.617402
	C174	C	0.821086	0.124091	0.386891
	C175	C	0.822346	0.886922	0.617566
	C176	C	0.383046	0.181290	0.882406
	C177	C	0.612191	0.180308	0.120310
	C178	C	0.382965	0.827200	0.121441
	C179	C	0.612415	0.827980	0.883822
	C180	C	0.383161	0.884809	0.179207
	C181	C	0.612121	0.122139	0.177777
	C182	C	0.382757	0.123376	0.825236
	C183	C	0.612446	0.885646	0.825694
	C184	C	0.878852	0.181950	0.386944
	C185	C	0.115308	0.180082	0.617749
	C186	C	0.116498	0.828586	0.386783
	C187	C	0.879634	0.828241	0.617145
	C188	C	0.173706	0.389429	0.883801
	C189	C	0.174801	0.618813	0.121077
	C190	C	0.820757	0.389637	0.121174
	C191	C	0.821261	0.619374	0.883083
	C192	C	0.397609	0.098645	0.601513
	C193	C	0.597785	0.910748	0.601835
	C194	C	0.597465	0.098501	0.401530
	C195	C	0.397831	0.911700	0.402973
	C196	C	0.596700	0.404528	0.094939
	C197	C	0.597286	0.603897	0.907839
	C198	C	0.398356	0.602921	0.095117
	C199	C	0.397695	0.404681	0.907619
	C200	C	0.091337	0.604694	0.402083
	C201	C	0.904086	0.604614	0.601192
	C202	C	0.091350	0.404970	0.601920
	C203	C	0.904463	0.406221	0.402985
	C204	C	0.897995	0.597722	0.100682
	C205	C	0.097498	0.410698	0.101832
	C206	C	0.096685	0.598040	0.902729
	C207	C	0.897768	0.410580	0.902036
	C208	C	0.097871	0.904593	0.595748
	C209	C	0.096959	0.104781	0.408543
	C210	C	0.896329	0.105582	0.596198
	C211	C	0.898242	0.905718	0.408277
	C212	C	0.591408	0.104155	0.901464
	C213	C	0.403838	0.103332	0.100437
	C214	C	0.591768	0.903629	0.102516
	C215	C	0.404013	0.904920	0.902670
	Zn216	Zn	0.497412	0.004546	0.751884
	Zn217	Zn	0.497420	0.004219	0.251679
	Zn218	Zn	0.747419	0.503814	0.001414
	Zn219	Zn	0.247840	0.504308	0.001700
	Zn220	Zn	-0.001995	0.754415	0.502040
	Zn221	Zn	-0.002368	0.254827	0.502445
	Zn222	Zn	-0.002181	0.504808	0.752156
	Zn223	Zn	-0.002401	0.504730	0.251877
	Zn224	Zn	0.497186	0.754262	0.002208
	Zn225	Zn	0.497834	0.253801	0.001157
	Zn226	Zn	0.747698	0.004813	0.501861
	Zn227	Zn	0.247783	0.005414	0.502093
	N228	N	0.412343	0.967271	0.680300
	N229	N	0.582367	0.042496	0.679364
	N230	N	0.582468	0.966785	0.324266
	N231	N	0.412421	0.042354	0.323302
	N232	N	0.675745	0.418759	0.963954
	N233	N	0.676505	0.589612	0.038840
	N234	N	0.319079	0.589700	0.964277
	N235	N	0.318887	0.417874	0.038817
	N236	N	0.960085	0.683443	0.416345
	N237	N	0.035449	0.682906	0.587279
	N238	N	0.959931	0.326507	0.587541
	N239	N	0.034996	0.326387	0.416784
	N240	N	0.960055	0.420118	0.680087
	N241	N	0.035235	0.590447	0.680781
	N242	N	0.960535	0.591009	0.322576
	N243	N	0.035518	0.419773	0.323788
	N244	N	0.411559	0.683093	0.964546
	N245	N	0.582566	0.682013	0.039420
	N246	N	0.582400	0.326170	0.963600
	N247	N	0.412639	0.325172	0.038859
	N248	N	0.676294	0.967312	0.416490
	N249	N	0.675461	0.042222	0.586397
	N250	N	0.319768	0.967258	0.586959
	N251	N	0.319577	0.042977	0.416738
	N252	N	0.912400	0.466811	0.180256
	N253	N	0.082813	0.541986	0.179804
	N254	N	0.082885	0.467016	0.824131
	N255	N	0.912165	0.541849	0.823456
	N256	N	0.176607	0.919594	0.464474
	N257	N	0.175604	0.089952	0.539933
	N258	N	0.818689	0.090813	0.464416
	N259	N	0.820404	0.920667	0.540259
	N260	N	0.460424	0.182843	0.915818
	N261	N	0.534983	0.182372	0.086793
	N262	N	0.460347	0.825379	0.087991
	N263	N	0.535217	0.826447	0.917353
	N264	N	0.460570	0.917889	0.181226
	N265	N	0.534865	0.088580	0.179299
	N266	N	0.459920	0.089711	0.823309
	N267	N	0.534976	0.919059	0.823423
	N268	N	0.911750	0.184071	0.464541
	N269	N	0.081924	0.182246	0.540191
	N270	N	0.083263	0.826249	0.464264
	N271	N	0.912750	0.826542	0.539535
	N272	N	0.175309	0.466735	0.917305
	N273	N	0.177018	0.541469	0.088201
	N274	N	0.819184	0.466839	0.087149
	N275	N	0.819298	0.541998	0.916510
	O276	O	1.472720	-0.416821	0.471682
	H277	H	1.487771	-0.415724	0.471521
	H278	H	1.472644	-0.417213	0.474295
	O279	O	0.492088	0.584378	0.485264
	H280	H	0.488582	0.581517	0.480642
	H281	H	0.500019	0.588673	0.483855
	O282	O	0.474742	0.570851	0.446549
	H283	H	0.465457	0.561271	0.439491
	H284	H	0.475455	0.573690	0.446072
	O285	O	0.433615	0.522629	0.458100
	H286	H	0.419390	0.516326	0.456563
	H287	H	0.438446	0.538678	0.466205
