data_Molecule from HDF5

_cell_length_a		16.327157
_cell_length_b		16.281446
_cell_length_c		16.219579
_cell_angle_alpha	90.822331
_cell_angle_beta	90.098649
_cell_angle_gamma	90.072520
_symmetry_space_group_name_H-M	'P 1'
_symmetry_Int_Tables_number		1

loop_
	_symmetry_equiv_pos_as_xyz
	x,y,z

loop_
	_atom_site_label
	_atom_site_type_symbol
	_atom_site_fract_x
	_atom_site_fract_y
	_atom_site_fract_z
	H0	H	0.396611	0.833550	0.705161
	H1	H	0.592840	0.161823	0.714397
	H2	H	0.594381	0.836894	0.276881
	H3	H	0.395862	0.163391	0.283586
	H4	H	0.706522	0.397871	0.830755
	H5	H	0.709416	0.603951	0.157500
	H6	H	0.278091	0.594726	0.830900
	H7	H	0.275979	0.400211	0.158703
	H8	H	0.830401	0.715014	0.397538
	H9	H	0.156813	0.716675	0.597459
	H10	H	0.831483	0.284315	0.594957
	H11	H	0.155240	0.281350	0.392455
	H12	H	0.828859	0.404443	0.706512
	H13	H	0.156330	0.600087	0.712261
	H14	H	0.829849	0.598607	0.281506
	H15	H	0.154941	0.397354	0.276734
	H16	H	0.393791	0.710496	0.830738
	H17	H	0.593767	0.718047	0.157912
	H18	H	0.591781	0.281491	0.831904
	H19	H	0.393472	0.286645	0.159510
	H20	H	0.710191	0.836714	0.393389
	H21	H	0.709754	0.162965	0.600107
	H22	H	0.277611	0.836516	0.592914
	H23	H	0.276943	0.162250	0.395159
	H24	H	0.892516	0.335885	0.207121
	H25	H	0.090688	0.663044	0.212778
	H26	H	0.090781	0.336153	0.777610
	H27	H	0.896124	0.664375	0.784779
	H28	H	0.207762	0.898629	0.331049
	H29	H	0.210012	0.102270	0.659182
	H30	H	0.777702	0.097467	0.332911
	H31	H	0.780610	0.904430	0.661068
	H32	H	0.330070	0.212594	0.895723
	H33	H	0.655326	0.218556	0.097894
	H34	H	0.330186	0.784714	0.093323
	H35	H	0.656047	0.781573	0.895097
	H36	H	0.330285	0.902165	0.208967
	H37	H	0.656321	0.101549	0.212574
	H38	H	0.330344	0.094586	0.781456
	H39	H	0.656954	0.898410	0.779215
	H40	H	0.895147	0.211627	0.331760
	H41	H	0.094162	0.218394	0.658981
	H42	H	0.092411	0.782391	0.331885
	H43	H	0.897183	0.790694	0.661448
	H44	H	0.205806	0.335056	0.893979
	H45	H	0.208953	0.662957	0.098387
	H46	H	0.775298	0.337083	0.093561
	H47	H	0.776760	0.662656	0.897086
	H48	H	0.398853	0.116027	0.589971
	H49	H	0.594149	0.880252	0.587562
	H50	H	0.578391	0.116240	0.396146
	H51	H	0.396275	0.884443	0.410334
	H52	H	0.586405	0.407010	0.112902
	H53	H	0.588181	0.582412	0.878727
	H54	H	0.398083	0.589955	0.111068
	H55	H	0.394022	0.405127	0.877883
	H56	H	0.107149	0.584191	0.401021
	H57	H	0.875168	0.591930	0.600556
	H58	H	0.105470	0.411827	0.578162
	H59	H	0.881616	0.414296	0.409815
	H60	H	0.108767	0.415556	0.593296
	H61	H	0.874202	0.607852	0.590414
	H62	H	0.111665	0.597365	0.401199
	H63	H	0.875188	0.407866	0.392683
	H64	H	0.403805	0.592981	0.110644
	H65	H	0.577213	0.590570	0.879893
	H66	H	0.586838	0.412655	0.111558
	H67	H	0.402555	0.408706	0.881380
	H68	H	0.583105	0.111642	0.416786
	H69	H	0.584241	0.881969	0.591447
	H70	H	0.404512	0.115002	0.592096
	H71	H	0.396234	0.880101	0.393514
	H72	H	0.900174	0.616103	0.089508
	H73	H	0.081161	0.384401	0.086983
	H74	H	0.089729	0.617077	0.906465
	H75	H	0.900829	0.386641	0.908295
	H76	H	0.086750	0.909165	0.612663
	H77	H	0.082636	0.096730	0.378077
	H78	H	0.902445	0.094713	0.613105
	H79	H	0.899319	0.908834	0.379682
	H80	H	0.607583	0.089763	0.909497
	H81	H	0.376105	0.088745	0.097225
	H82	H	0.607237	0.915135	0.087300
	H83	H	0.376236	0.907901	0.893315
	H84	H	0.611830	0.904220	0.091319
	H85	H	0.375195	0.101372	0.087012
	H86	H	0.609297	0.088027	0.900671
	H87	H	0.375131	0.896047	0.901025
	H88	H	0.901644	0.092396	0.612069
	H89	H	0.093048	0.089094	0.377233
	H90	H	0.088707	0.909722	0.612674
	H91	H	0.905084	0.905481	0.380350
	H92	H	0.085167	0.616048	0.902185
	H93	H	0.085880	0.383804	0.081858
	H94	H	0.899833	0.616183	0.088478
	H95	H	0.890998	0.380134	0.898050
	H96	H	0.403582	0.114383	0.587099
	H97	H	0.586806	0.884684	0.580502
	H98	H	0.598452	0.119754	0.404318
	H99	H	0.410077	0.886371	0.400618
	H100	H	0.581675	0.409687	0.110520
	H101	H	0.588888	0.595344	0.874808
	H102	H	0.398449	0.596135	0.112804
	H103	H	0.401620	0.399832	0.877639
	H104	H	0.106196	0.591527	0.412298
	H105	H	0.880619	0.591515	0.582100
	H106	H	0.112162	0.401317	0.588156
	H107	H	0.876159	0.395831	0.407078
	H108	H	0.899275	0.615765	0.089531
	H109	H	0.087303	0.382130	0.088364
	H110	H	0.084829	0.614186	0.907586
	H111	H	0.905543	0.383039	0.893444
	H112	H	0.087706	0.910291	0.611834
	H113	H	0.082361	0.084596	0.381975
	H114	H	0.903826	0.093274	0.612480
	H115	H	0.899568	0.902482	0.379039
	H116	H	0.611368	0.096518	0.904433
	H117	H	0.381454	0.087566	0.081731
	H118	H	0.607500	0.904595	0.079222
	H119	H	0.379781	0.907994	0.907641
	C120	C	0.373063	0.007033	0.616910
	C121	C	0.616510	0.990662	0.617820
	C122	C	0.616030	0.008099	0.374648
	C123	C	0.372180	0.991269	0.373510
	C124	C	0.613869	0.378907	0.003357
	C125	C	0.613906	0.620606	0.985981
	C126	C	0.371379	0.620554	0.003401
	C127	C	0.370310	0.376774	0.986762
	C128	C	0.001074	0.620318	0.375640
	C129	C	0.984832	0.624452	0.619722
	C130	C	0.001494	0.380203	0.615650
	C131	C	0.984701	0.376800	0.373058
	C132	C	0.870430	0.508156	0.116840
	C133	C	0.114233	0.491331	0.116899
	C134	C	0.114411	0.507590	0.874172
	C135	C	0.870777	0.491357	0.872847
	C136	C	0.115974	0.878688	0.504135
	C137	C	0.115919	0.121724	0.487149
	C138	C	0.873240	0.121102	0.504566
	C139	C	0.872983	0.878989	0.488183
	C140	C	0.501651	0.119068	0.875273
	C141	C	0.484741	0.122612	0.118596
	C142	C	0.501453	0.878710	0.115618
	C143	C	0.484949	0.875278	0.872106
	C144	C	0.375950	0.883260	0.668854
	C145	C	0.613205	0.113329	0.675347
	C146	C	0.614020	0.885496	0.316265
	C147	C	0.375107	0.114593	0.320181
	C148	C	0.669211	0.378344	0.880117
	C149	C	0.670530	0.621900	0.108807
	C150	C	0.315563	0.616339	0.879979
	C151	C	0.314384	0.379901	0.109731
	C152	C	0.878845	0.676531	0.377558
	C153	C	0.107828	0.678858	0.617422
	C154	C	0.879603	0.323425	0.614331
	C155	C	0.106880	0.320243	0.373300
	C156	C	0.878264	0.383257	0.669668
	C157	C	0.107500	0.621170	0.674853
	C158	C	0.878398	0.618196	0.319962
	C159	C	0.106601	0.377993	0.315623
	C160	C	0.373381	0.673643	0.879851
	C161	C	0.613274	0.679011	0.108952
	C162	C	0.612042	0.320574	0.880593
	C163	C	0.372712	0.323334	0.110139
	C164	C	0.671831	0.885419	0.374098
	C165	C	0.671087	0.114014	0.618080
	C166	C	0.316475	0.884755	0.613126
	C167	C	0.315750	0.113685	0.375675
	C168	C	0.872110	0.385221	0.170585
	C169	C	0.111732	0.614311	0.174123
	C170	C	0.111400	0.384924	0.816244
	C171	C	0.874752	0.615075	0.821090
	C172	C	0.170327	0.878817	0.380363
	C173	C	0.171686	0.121619	0.610186
	C174	C	0.816607	0.117944	0.381465
	C175	C	0.818067	0.883453	0.611969
	C176	C	0.378652	0.174089	0.876527
	C177	C	0.606750	0.179837	0.117566
	C178	C	0.379051	0.822759	0.113894
	C179	C	0.607658	0.819738	0.874396
	C180	C	0.378961	0.881059	0.171271
	C181	C	0.607257	0.121646	0.174630
	C182	C	0.378788	0.115541	0.819466
	C183	C	0.607984	0.877344	0.816850
	C184	C	0.874851	0.174581	0.380976
	C185	C	0.114235	0.179582	0.610156
	C186	C	0.113321	0.820717	0.380945
	C187	C	0.876242	0.826998	0.612221
	C188	C	0.168473	0.384184	0.874382
	C189	C	0.170094	0.614147	0.116948
	C190	C	0.814097	0.385660	0.113538
	C191	C	0.815378	0.614158	0.876796
	C192	C	0.395656	0.092904	0.595806
	C193	C	0.594771	0.904518	0.593473
	C194	C	0.593366	0.093653	0.398824
	C195	C	0.394530	0.905816	0.395069
	C196	C	0.591254	0.402971	0.089469
	C197	C	0.591203	0.596445	0.900008
	C198	C	0.393660	0.599354	0.089247
	C199	C	0.392875	0.398394	0.901139
	C200	C	0.086340	0.597593	0.398078
	C201	C	0.898784	0.603122	0.597643
	C202	C	0.086832	0.402988	0.593090
	C203	C	0.899733	0.399378	0.396247
	C204	C	0.893111	0.594027	0.095643
	C205	C	0.091524	0.405516	0.092910
	C206	C	0.092746	0.593418	0.898309
	C207	C	0.892755	0.405519	0.893642
	C208	C	0.094178	0.902783	0.590192
	C209	C	0.092861	0.097212	0.401258
	C210	C	0.896081	0.099667	0.590377
	C211	C	0.894960	0.899420	0.401842
	C212	C	0.587099	0.097665	0.898204
	C213	C	0.399565	0.099422	0.095419
	C214	C	0.586840	0.901327	0.092843
	C215	C	0.399277	0.897289	0.893995
	Zn216	Zn	0.493906	-0.002261	0.745629
	Zn217	Zn	0.493553	-0.000035	0.245702
	Zn218	Zn	0.742289	0.499528	-0.005531
	Zn219	Zn	0.242619	0.499019	-0.004841
	Zn220	Zn	-0.005946	0.750750	0.496730
	Zn221	Zn	-0.006231	0.249735	0.495285
	Zn222	Zn	-0.006737	0.500767	0.745555
	Zn223	Zn	-0.007578	0.499087	0.245200
	Zn224	Zn	0.493343	0.748210	-0.005292
	Zn225	Zn	0.492779	0.249809	-0.004380
	Zn226	Zn	0.744640	-0.000126	0.496541
	Zn227	Zn	0.244368	0.000120	0.495149
	N228	N	0.410366	0.960391	0.671324
	N229	N	0.579994	0.035553	0.675245
	N230	N	0.580073	0.962860	0.316445
	N231	N	0.409474	0.037455	0.318691
	N232	N	0.670367	0.413733	0.957525
	N233	N	0.671121	0.586112	0.031438
	N234	N	0.314110	0.583897	0.957786
	N235	N	0.312910	0.412602	0.032111
	N236	N	0.956197	0.677849	0.411671
	N237	N	0.030391	0.681157	0.584112
	N238	N	0.957228	0.321505	0.581431
	N239	N	0.030299	0.319325	0.408199
	N240	N	0.955124	0.417956	0.670630
	N241	N	0.029919	0.588205	0.676610
	N242	N	0.955275	0.583872	0.318824
	N243	N	0.029616	0.412330	0.315166
	N244	N	0.407115	0.676462	0.957497
	N245	N	0.578648	0.678113	0.031582
	N246	N	0.578190	0.320782	0.958352
	N247	N	0.406710	0.321082	0.032603
	N248	N	0.673206	0.962560	0.409740
	N249	N	0.673229	0.036423	0.583056
	N250	N	0.314617	0.962794	0.581568
	N251	N	0.313763	0.036127	0.408033
	N252	N	0.906223	0.462530	0.172985
	N253	N	0.077736	0.537040	0.174041
	N254	N	0.078790	0.462768	0.815908
	N255	N	0.908664	0.537825	0.818662
	N256	N	0.172191	0.914126	0.457976
	N257	N	0.172801	0.086438	0.532563
	N258	N	0.815428	0.085666	0.459305
	N259	N	0.815834	0.914927	0.533801
	N260	N	0.455990	0.176626	0.910477
	N261	N	0.529516	0.180593	0.083318
	N262	N	0.456301	0.821139	0.080176
	N263	N	0.530322	0.818263	0.907994
	N264	N	0.456106	0.915197	0.172407
	N265	N	0.530445	0.086818	0.175474
	N266	N	0.455985	0.081889	0.818818
	N267	N	0.530827	0.911296	0.815445
	N268	N	0.909579	0.176671	0.458486
	N269	N	0.080208	0.179569	0.532575
	N270	N	0.080526	0.820325	0.458985
	N271	N	0.909816	0.824076	0.534427
	N272	N	0.170375	0.461495	0.909791
	N273	N	0.171763	0.536449	0.082106
	N274	N	0.812854	0.463264	0.081026
	N275	N	0.812807	0.536200	0.908214
	O276	O	0.071467	-0.026131	-0.031901
	H277	H	0.072925	-0.027305	-0.022762
	H278	H	0.072664	-0.015533	-0.025843
	O279	O	0.552139	0.587201	0.575934
	H280	H	0.562176	0.582449	0.574892
	H281	H	0.550274	0.590221	0.578847
	O282	O	0.430459	0.535395	0.374390
	H283	H	0.425061	0.529862	0.374863
	H284	H	0.428487	0.547344	0.374322
	O285	O	0.069831	1.009594	0.922825
	H286	H	0.087425	1.008934	0.936569
	H287	H	0.070403	1.008319	0.916597
	O288	O	0.410360	0.424482	0.516898
	H289	H	0.418936	0.428136	0.521210
	H290	H	0.409561	0.417799	0.513782
	O291	O	0.947608	1.092168	0.997355
	H292	H	0.952069	1.089385	0.989355
	H293	H	0.945113	1.095251	0.995902
	O294	O	1.026057	0.947159	1.004540
	H295	H	1.027089	0.941850	1.007261
	H296	H	1.012330	0.951918	0.997908
	O297	O	1.049686	-0.034372	1.027915
	H298	H	1.052906	-0.020739	1.027053
	H299	H	1.029331	-0.034028	1.038481
	O300	O	0.626729	0.553009	0.589457
	H301	H	0.635921	0.561482	0.604938
	H302	H	0.628293	0.560669	0.575921
	O303	O	0.967943	0.012092	0.028536
	H304	H	0.965057	0.014844	0.037427
	H305	H	0.969348	0.007925	0.022336
	O306	O	-0.026377	1.077746	0.977140
	H307	H	-0.021667	1.082809	0.967680
	H308	H	-0.026846	1.080282	0.980563
	O309	O	0.625594	0.433325	0.463162
	H310	H	0.633246	0.436427	0.440994
	H311	H	0.634708	0.432582	0.454228
	O312	O	1.397551	0.458762	1.443080
	H313	H	1.399753	0.454666	1.448107
	H314	H	1.398348	0.457426	1.446104
	O315	O	0.403014	0.497125	0.480243
	H316	H	0.397922	0.496842	0.488612
	H317	H	0.398500	0.493948	0.479365
	O318	O	0.572501	0.505236	0.497730
	H319	H	0.575109	0.506835	0.500719
	H320	H	0.572472	0.506695	0.486547
	O321	O	0.982401	0.988708	1.040625
	H322	H	0.973361	0.990176	1.037694
	H323	H	0.973351	0.995128	1.039097
	O324	O	0.516469	0.412474	0.456002
	H325	H	0.512769	0.413834	0.448476
	H326	H	0.506808	0.423789	0.453779
	O327	O	0.481310	0.481283	0.504343
	H328	H	0.467000	0.464697	0.502420
	H329	H	0.482857	0.478821	0.500660
	O330	O	0.997130	-0.020154	0.969295
	H331	H	1.001886	-0.029868	0.965660
	H332	H	1.001073	-0.015801	0.966313
	O333	O	0.926488	0.977135	-0.046321
	H334	H	0.931433	0.978051	-0.041816
	H335	H	0.927318	0.973865	-0.051507
	O336	O	0.486907	0.548859	0.447583
	H337	H	0.488883	0.547426	0.447559
	H338	H	0.475559	0.557166	0.454433
	O339	O	0.568630	0.412346	0.466058
	H340	H	0.572797	0.425570	0.453592
	H341	H	0.581516	0.405863	0.455822
	O342	O	0.036057	1.030009	-0.017787
	H343	H	0.026999	1.032338	-0.016239
	H344	H	0.036451	1.041465	-0.023247
	O345	O	-0.009234	0.033414	0.000077
	H346	H	-0.016149	0.027655	0.003176
	H347	H	-0.007391	0.039314	-0.006219
	O348	O	0.410797	0.488274	0.452174
	H349	H	0.412155	0.499304	0.459324
	H350	H	0.407691	0.489518	0.457740
	O351	O	0.573796	0.594062	0.430361
	H352	H	0.566268	0.602291	0.415002
	H353	H	0.567646	0.613376	0.421438
	O354	O	0.456107	0.441119	0.510300
	H355	H	0.453225	0.433107	0.509062
	H356	H	0.448245	0.440185	0.515920
	O357	O	0.464358	0.534189	0.488559
	H358	H	0.468507	0.526728	0.499408
	H359	H	0.481407	0.526003	0.489225
	O360	O	-0.025451	-0.008116	-0.051054
	H361	H	-0.015635	-0.027860	-0.058733
	H362	H	-0.023886	-0.013399	-0.052144
	O363	O	0.500612	0.508288	0.551606
	H364	H	0.489748	0.503071	0.554732
	H365	H	0.502024	0.501804	0.562153
	O366	O	0.012874	-0.037890	1.003308
	H367	H	0.015185	-0.046456	1.010343
	H368	H	0.018913	-0.036219	1.006297
	O369	O	0.482765	0.437078	0.487787
	H370	H	0.479385	0.436916	0.480159
	H371	H	0.475123	0.445656	0.485097
