data_Molecule from HDF5

_cell_length_a		16.215684
_cell_length_b		16.266311
_cell_length_c		16.405701
_cell_angle_alpha	89.827616
_cell_angle_beta	89.959834
_cell_angle_gamma	90.355752
_symmetry_space_group_name_H-M	'P 1'
_symmetry_Int_Tables_number		1

loop_
	_symmetry_equiv_pos_as_xyz
	x,y,z

loop_
	_atom_site_label
	_atom_site_type_symbol
	_atom_site_fract_x
	_atom_site_fract_y
	_atom_site_fract_z
	H0	H	0.394055	0.836793	0.715388
	H1	H	0.597166	0.162919	0.714953
	H2	H	0.594994	0.837075	0.284120
	H3	H	0.396412	0.163999	0.284974
	H4	H	0.706292	0.403150	0.835384
	H5	H	0.710796	0.598521	0.161069
	H6	H	0.281638	0.596813	0.835798
	H7	H	0.278115	0.400907	0.161859
	H8	H	0.829953	0.712320	0.402454
	H9	H	0.160008	0.712977	0.595534
	H10	H	0.830340	0.284640	0.597466
	H11	H	0.159412	0.289839	0.403854
	H12	H	0.830155	0.398801	0.714339
	H13	H	0.158096	0.600694	0.714169
	H14	H	0.830529	0.599098	0.283775
	H15	H	0.157864	0.401872	0.283974
	H16	H	0.396666	0.715639	0.837267
	H17	H	0.595455	0.715699	0.162191
	H18	H	0.590439	0.285691	0.837090
	H19	H	0.393455	0.283836	0.162618
	H20	H	0.706995	0.834818	0.404164
	H21	H	0.709546	0.163738	0.596912
	H22	H	0.281001	0.836296	0.596885
	H23	H	0.283376	0.164964	0.402983
	H24	H	0.891295	0.336936	0.215800
	H25	H	0.095732	0.663037	0.213929
	H26	H	0.091414	0.336721	0.784814
	H27	H	0.895900	0.663466	0.783492
	H28	H	0.209138	0.904765	0.337635
	H29	H	0.210131	0.098305	0.663938
	H30	H	0.779322	0.099187	0.338145
	H31	H	0.780314	0.900318	0.663297
	H32	H	0.329042	0.209553	0.903767
	H33	H	0.658973	0.214369	0.096899
	H34	H	0.330682	0.784839	0.098678
	H35	H	0.660014	0.789506	0.903089
	H36	H	0.331425	0.898374	0.216295
	H37	H	0.658726	0.101003	0.214753
	H38	H	0.331498	0.098298	0.784284
	H39	H	0.658976	0.902358	0.785586
	H40	H	0.897696	0.214446	0.337364
	H41	H	0.095560	0.217290	0.662680
	H42	H	0.094004	0.787425	0.337182
	H43	H	0.896010	0.783475	0.662319
	H44	H	0.206366	0.335807	0.901794
	H45	H	0.208851	0.663969	0.095583
	H46	H	0.780295	0.335565	0.094554
	H47	H	0.783004	0.664653	0.901848
	H48	H	0.395427	0.118213	0.588598
	H49	H	0.579044	0.884808	0.597222
	H50	H	0.595284	0.118589	0.405106
	H51	H	0.403616	0.884349	0.408008
	H52	H	0.590487	0.405128	0.115504
	H53	H	0.587253	0.596104	0.884186
	H54	H	0.399747	0.593872	0.115541
	H55	H	0.397779	0.406199	0.883013
	H56	H	0.108018	0.583414	0.407845
	H57	H	0.879168	0.587945	0.590967
	H58	H	0.112891	0.404776	0.593023
	H59	H	0.875416	0.403671	0.402112
	H60	H	0.108601	0.411479	0.589269
	H61	H	0.876580	0.591535	0.595608
	H62	H	0.115439	0.595816	0.393396
	H63	H	0.878252	0.404511	0.410984
	H64	H	0.400320	0.589804	0.114035
	H65	H	0.588596	0.595040	0.883270
	H66	H	0.586749	0.409430	0.113774
	H67	H	0.401537	0.406347	0.885102
	H68	H	0.582024	0.115897	0.401603
	H69	H	0.589009	0.883991	0.587204
	H70	H	0.404062	0.120213	0.603347
	H71	H	0.402096	0.884115	0.408703
	H72	H	0.909817	0.616759	0.101803
	H73	H	0.087766	0.383413	0.089967
	H74	H	0.084945	0.616724	0.900092
	H75	H	0.900399	0.384375	0.908805
	H76	H	0.089554	0.909848	0.615527
	H77	H	0.102052	0.099754	0.380349
	H78	H	0.898412	0.080206	0.613280
	H79	H	0.898703	0.907201	0.384093
	H80	H	0.614042	0.097221	0.902105
	H81	H	0.378466	0.086476	0.097034
	H82	H	0.615616	0.905888	0.103370
	H83	H	0.377821	0.905978	0.907927
	H84	H	0.611417	0.900549	0.085624
	H85	H	0.376203	0.094750	0.096250
	H86	H	0.610280	0.095588	0.912360
	H87	H	0.378814	0.908378	0.907894
	H88	H	0.914864	0.095771	0.612438
	H89	H	0.087319	0.082828	0.389827
	H90	H	0.084632	0.904523	0.615592
	H91	H	0.903240	0.909436	0.385590
	H92	H	0.084918	0.615369	0.909377
	H93	H	0.086411	0.381911	0.096286
	H94	H	0.908081	0.611401	0.081472
	H95	H	0.896291	0.381798	0.903505
	H96	H	0.412725	0.112616	0.589634
	H97	H	0.592046	0.879850	0.599935
	H98	H	0.586495	0.113334	0.414773
	H99	H	0.401755	0.884118	0.406366
	H100	H	0.584500	0.404253	0.115116
	H101	H	0.587179	0.593878	0.884072
	H102	H	0.403411	0.592723	0.114033
	H103	H	0.400490	0.402940	0.883585
	H104	H	0.112105	0.602851	0.412399
	H105	H	0.877356	0.594337	0.589529
	H106	H	0.111660	0.412029	0.598098
	H107	H	0.877991	0.411896	0.405210
	H108	H	0.891161	0.620248	0.091939
	H109	H	0.080965	0.384992	0.092533
	H110	H	0.093104	0.618128	0.905128
	H111	H	0.903272	0.382851	0.901890
	H112	H	0.091012	0.902877	0.617926
	H113	H	0.079292	0.105074	0.385480
	H114	H	0.894028	0.101596	0.620495
	H115	H	0.903140	0.904303	0.385000
	H116	H	0.610823	0.087660	0.905128
	H117	H	0.378968	0.090364	0.089471
	H118	H	0.607969	0.918509	0.091163
	H119	H	0.377411	0.908088	0.905907
	C120	C	0.373888	0.008894	0.622096
	C121	C	0.616576	0.991128	0.622295
	C122	C	0.616507	0.007863	0.378683
	C123	C	0.373963	0.992251	0.378973
	C124	C	0.614927	0.378791	0.007278
	C125	C	0.616980	0.623120	0.991123
	C126	C	0.373189	0.621084	0.007447
	C127	C	0.371274	0.376691	0.991481
	C128	C	0.003132	0.621792	0.376854
	C129	C	0.986382	0.620688	0.620135
	C130	C	0.002582	0.379009	0.621530
	C131	C	0.985837	0.379119	0.378198
	C132	C	0.872922	0.508259	0.120288
	C133	C	0.115277	0.491537	0.120722
	C134	C	0.115405	0.508424	0.877313
	C135	C	0.872304	0.491307	0.876770
	C136	C	0.116882	0.878679	0.508603
	C137	C	0.117875	0.123699	0.492720
	C138	C	0.873763	0.121531	0.508257
	C139	C	0.872973	0.877784	0.492126
	C140	C	0.502950	0.121038	0.878385
	C141	C	0.486344	0.120514	0.121757
	C142	C	0.503368	0.878449	0.122237
	C143	C	0.486645	0.879662	0.879135
	C144	C	0.374637	0.885688	0.677277
	C145	C	0.615772	0.114184	0.676740
	C146	C	0.614916	0.885370	0.322910
	C147	C	0.376138	0.115187	0.323225
	C148	C	0.668931	0.382323	0.884421
	C149	C	0.672745	0.619737	0.112991
	C150	C	0.318868	0.618196	0.884680
	C151	C	0.316056	0.379950	0.113409
	C152	C	0.879267	0.675592	0.380745
	C153	C	0.110575	0.675536	0.616602
	C154	C	0.879230	0.323013	0.618121
	C155	C	0.109860	0.325985	0.382051
	C156	C	0.879163	0.379628	0.676263
	C157	C	0.109271	0.620281	0.676131
	C158	C	0.879437	0.619183	0.322193
	C159	C	0.109112	0.381730	0.322544
	C160	C	0.376312	0.677117	0.885366
	C161	C	0.615421	0.678013	0.113291
	C162	C	0.611227	0.323988	0.885173
	C163	C	0.373253	0.321512	0.113735
	C164	C	0.670276	0.884162	0.382686
	C165	C	0.671805	0.114629	0.617983
	C166	C	0.318460	0.885309	0.618469
	C167	C	0.319922	0.115767	0.382004
	C168	C	0.872688	0.385430	0.176590
	C169	C	0.114686	0.614572	0.175432
	C170	C	0.112225	0.385409	0.822658
	C171	C	0.875291	0.614775	0.821656
	C172	C	0.171655	0.883187	0.386252
	C173	C	0.172589	0.119788	0.615164
	C174	C	0.818229	0.119181	0.386216
	C175	C	0.818263	0.880065	0.614536
	C176	C	0.378969	0.174173	0.882006
	C177	C	0.609979	0.176596	0.118401
	C178	C	0.379573	0.822895	0.119147
	C179	C	0.610622	0.826211	0.882234
	C180	C	0.380163	0.879056	0.177869
	C181	C	0.609747	0.120366	0.176849
	C182	C	0.379929	0.118366	0.823154
	C183	C	0.610053	0.882150	0.823671
	C184	C	0.876669	0.176857	0.385985
	C185	C	0.115400	0.178466	0.614751
	C186	C	0.114173	0.825011	0.385964
	C187	C	0.875214	0.821457	0.613850
	C188	C	0.169056	0.384978	0.880897
	C189	C	0.170915	0.614865	0.116599
	C190	C	0.817463	0.384705	0.116650
	C191	C	0.819202	0.615306	0.880344
	C192	C	0.397066	0.094771	0.600148
	C193	C	0.593560	0.905032	0.600824
	C194	C	0.594405	0.093771	0.400716
	C195	C	0.396153	0.906387	0.401175
	C196	C	0.593549	0.400111	0.092797
	C197	C	0.594266	0.601499	0.905858
	C198	C	0.394718	0.598575	0.092717
	C199	C	0.393429	0.398649	0.905988
	C200	C	0.089326	0.600173	0.398121
	C201	C	0.900008	0.597947	0.598392
	C202	C	0.088771	0.402296	0.599696
	C203	C	0.899617	0.400374	0.399667
	C204	C	0.896088	0.594008	0.098176
	C205	C	0.091801	0.405619	0.099223
	C206	C	0.093922	0.594568	0.898605
	C207	C	0.893570	0.405221	0.898347
	C208	C	0.094821	0.899672	0.594293
	C209	C	0.095980	0.102256	0.407407
	C210	C	0.895946	0.099124	0.593438
	C211	C	0.895250	0.900368	0.406746
	C212	C	0.589448	0.099856	0.900259
	C213	C	0.400092	0.097453	0.100447
	C214	C	0.589440	0.901534	0.099952
	C215	C	0.400096	0.901180	0.900927
	Zn216	Zn	0.495199	-0.000077	0.750252
	Zn217	Zn	0.495318	0.000240	0.250157
	Zn218	Zn	0.744726	0.500515	-0.001572
	Zn219	Zn	0.243093	0.499634	-0.000896
	Zn220	Zn	-0.005110	0.749004	0.499536
	Zn221	Zn	-0.004688	0.251244	0.500465
	Zn222	Zn	-0.006037	0.500472	0.749192
	Zn223	Zn	-0.006150	0.500260	0.249075
	Zn224	Zn	0.495148	0.751503	0.000036
	Zn225	Zn	0.493548	0.248257	0.000481
	Zn226	Zn	0.744311	-0.000543	0.500427
	Zn227	Zn	0.245837	0.000903	0.500781
	N228	N	0.408639	0.963466	0.679429
	N229	N	0.582156	0.036406	0.679439
	N230	N	0.582244	0.963208	0.320342
	N231	N	0.409050	0.037386	0.321189
	N232	N	0.671243	0.415769	0.961380
	N233	N	0.673797	0.586277	0.036193
	N234	N	0.316955	0.584122	0.961482
	N235	N	0.314775	0.413609	0.036539
	N236	N	0.957194	0.677459	0.414017
	N237	N	0.033162	0.675925	0.582499
	N238	N	0.957051	0.322524	0.584792
	N239	N	0.032337	0.324267	0.415893
	N240	N	0.956782	0.414136	0.678104
	N241	N	0.031149	0.586777	0.678183
	N242	N	0.957389	0.586609	0.319451
	N243	N	0.030898	0.413948	0.319893
	N244	N	0.409429	0.678981	0.962622
	N245	N	0.581379	0.680018	0.036374
	N246	N	0.578213	0.321644	0.962455
	N247	N	0.406938	0.319325	0.036650
	N248	N	0.671377	0.961490	0.416581
	N249	N	0.672134	0.037096	0.584659
	N250	N	0.317964	0.962799	0.584768
	N251	N	0.318300	0.038218	0.415785
	N252	N	0.906211	0.463299	0.179222
	N253	N	0.080747	0.536842	0.178072
	N254	N	0.079624	0.463258	0.820443
	N255	N	0.907486	0.536800	0.819365
	N256	N	0.173164	0.916101	0.463392
	N257	N	0.174348	0.086462	0.538239
	N258	N	0.816295	0.085597	0.463175
	N259	N	0.816525	0.914153	0.537759
	N260	N	0.456587	0.175978	0.915786
	N261	N	0.532120	0.176918	0.084880
	N262	N	0.457182	0.822271	0.085406
	N263	N	0.532927	0.824536	0.915950
	N264	N	0.458149	0.912954	0.179913
	N265	N	0.532002	0.086219	0.178867
	N266	N	0.458070	0.086222	0.820647
	N267	N	0.531874	0.914600	0.821593
	N268	N	0.910721	0.178235	0.462825
	N269	N	0.082177	0.180981	0.537757
	N270	N	0.080917	0.821966	0.463096
	N271	N	0.908740	0.820059	0.536690
	N272	N	0.171099	0.462491	0.914206
	N273	N	0.171155	0.537424	0.083104
	N274	N	0.817651	0.461904	0.082161
	N275	N	0.817140	0.537605	0.913865
	O276	O	0.464642	0.510926	0.450420
	H277	H	0.468533	0.514698	0.450352
	H278	H	0.462109	0.515127	0.447547
	O279	O	0.488177	0.536864	0.415986
	H280	H	0.488254	0.532208	0.416756
	H281	H	0.488204	0.542291	0.412860
	O282	O	0.493296	0.488962	0.516253
	H283	H	0.495801	0.487384	0.512707
	H284	H	0.493193	0.486274	0.511065
	O285	O	-0.006929	1.003627	1.095196
	H286	H	0.004287	1.006902	1.096893
	H287	H	-0.000586	1.011720	1.095840
	O288	O	1.048218	1.055892	0.092988
	H289	H	1.050180	1.057697	0.098270
	H290	H	1.046769	1.049915	0.096390
	O291	O	0.020048	-0.020716	1.103088
	H292	H	0.016673	-0.014247	1.120044
	H293	H	0.032279	-0.013218	1.098572
	O294	O	0.534915	0.441810	0.482402
	H295	H	0.541247	0.444023	0.485411
	H296	H	0.545543	0.452222	0.480890
	O297	O	0.444483	0.472218	0.463900
	H298	H	0.447866	0.476648	0.465804
	H299	H	0.443859	0.467072	0.468182
	O300	O	0.472533	0.479846	0.500745
	H301	H	0.470099	0.479151	0.498987
	H302	H	0.469374	0.479639	0.504414
	O303	O	0.457596	0.523518	0.452060
	H304	H	0.456272	0.519343	0.451303
	H305	H	0.450462	0.519391	0.448919
	O306	O	1.084536	0.015516	1.030003
	H307	H	1.072718	0.016905	1.030340
	H308	H	1.080400	0.017277	1.031028
	O309	O	0.524464	0.475034	0.435075
	H310	H	0.519409	0.477456	0.437141
	H311	H	0.523375	0.478858	0.432547
	O312	O	0.483330	0.469335	0.501154
	H313	H	0.485111	0.473231	0.498608
	H314	H	0.471012	0.470622	0.501702
	O315	O	0.927734	0.008099	1.045804
	H316	H	0.931889	-0.000634	1.053414
	H317	H	0.930531	0.004981	1.047590
	O318	O	-0.008244	-0.037031	0.035635
	H319	H	-0.002911	-0.035769	0.040922
	H320	H	-0.006943	-0.029916	0.032951
	O321	O	0.506663	0.446113	0.462727
	H322	H	0.513969	0.442250	0.465233
	H323	H	0.514577	0.444185	0.460334
	O324	O	0.961170	-0.029613	0.089145
	H325	H	0.958418	-0.045511	0.089550
	H326	H	0.948272	-0.034180	0.088159
	O327	O	0.995270	1.002535	0.058126
	H328	H	0.991520	1.003176	0.052432
	H329	H	0.994048	1.002598	0.049367
	O330	O	0.544586	0.502315	0.564198
	H331	H	0.540628	0.501383	0.566193
	H332	H	0.537583	0.499252	0.562321
	O333	O	0.437081	0.513974	0.495786
	H334	H	0.436076	0.512231	0.498728
	H335	H	0.438071	0.510867	0.497867
