data_Molecule from HDF5

_cell_length_a		16.346786
_cell_length_b		16.355770
_cell_length_c		16.284922
_cell_angle_alpha	89.998972
_cell_angle_beta	89.900452
_cell_angle_gamma	89.954714
_symmetry_space_group_name_H-M	'P 1'
_symmetry_Int_Tables_number		1

loop_
	_symmetry_equiv_pos_as_xyz
	x,y,z

loop_
	_atom_site_label
	_atom_site_type_symbol
	_atom_site_fract_x
	_atom_site_fract_y
	_atom_site_fract_z
	H0	H	0.404244	0.840232	0.713282
	H1	H	0.600026	0.165983	0.712919
	H2	H	0.600068	0.839963	0.284572
	H3	H	0.404957	0.166503	0.285015
	H4	H	0.718225	0.403933	0.834907
	H5	H	0.716119	0.600144	0.162192
	H6	H	0.288526	0.600570	0.834954
	H7	H	0.288141	0.404453	0.162304
	H8	H	0.839300	0.717896	0.400485
	H9	H	0.165187	0.718310	0.596836
	H10	H	0.838797	0.287843	0.597426
	H11	H	0.164874	0.286796	0.398936
	H12	H	0.839157	0.404736	0.714073
	H13	H	0.165862	0.600571	0.711267
	H14	H	0.839401	0.601193	0.284738
	H15	H	0.165575	0.405001	0.284285
	H16	H	0.402282	0.718291	0.835538
	H17	H	0.599672	0.715994	0.162481
	H18	H	0.601375	0.288269	0.834315
	H19	H	0.404300	0.288845	0.162316
	H20	H	0.718114	0.840917	0.398753
	H21	H	0.717011	0.165934	0.597886
	H22	H	0.286772	0.839949	0.598871
	H23	H	0.286649	0.165309	0.399720
	H24	H	0.904344	0.339670	0.213546
	H25	H	0.099461	0.666476	0.212185
	H26	H	0.100517	0.339280	0.783374
	H27	H	0.905352	0.666419	0.784783
	H28	H	0.217483	0.903359	0.335396
	H29	H	0.216137	0.101434	0.661848
	H30	H	0.787871	0.101434	0.334683
	H31	H	0.786955	0.904875	0.661490
	H32	H	0.339518	0.218764	0.900268
	H33	H	0.665486	0.218171	0.096950
	H34	H	0.339808	0.787788	0.098461
	H35	H	0.664850	0.787581	0.899178
	H36	H	0.339574	0.905801	0.213325
	H37	H	0.665843	0.100928	0.212105
	H38	H	0.338887	0.100877	0.784669
	H39	H	0.665179	0.905808	0.783908
	H40	H	0.904051	0.217541	0.334900
	H41	H	0.099542	0.217395	0.661963
	H42	H	0.100560	0.788379	0.335153
	H43	H	0.902436	0.788547	0.661916
	H44	H	0.216931	0.339266	0.900075
	H45	H	0.216555	0.665829	0.096676
	H46	H	0.787829	0.340140	0.097514
	H47	H	0.787208	0.665775	0.899435
	H48	H	0.408018	0.119418	0.592131
	H49	H	0.590383	0.887942	0.595635
	H50	H	0.596019	0.119086	0.407465
	H51	H	0.402780	0.884955	0.405087
	H52	H	0.590965	0.410990	0.112911
	H53	H	0.599976	0.597270	0.879817
	H54	H	0.404690	0.603194	0.118248
	H55	H	0.411231	0.403854	0.880493
	H56	H	0.122539	0.605171	0.402238
	H57	H	0.889804	0.589292	0.587655
	H58	H	0.119450	0.404070	0.592146
	H59	H	0.888163	0.412589	0.408054
	H60	H	0.115372	0.410876	0.585049
	H61	H	0.883763	0.596729	0.600625
	H62	H	0.115285	0.595990	0.414921
	H63	H	0.885908	0.411073	0.402483
	H64	H	0.404001	0.587603	0.113986
	H65	H	0.594846	0.591543	0.883326
	H66	H	0.595900	0.405655	0.114740
	H67	H	0.403778	0.413287	0.881667
	H68	H	0.596930	0.119452	0.404543
	H69	H	0.595219	0.889507	0.585542
	H70	H	0.410387	0.117652	0.591092
	H71	H	0.413029	0.886855	0.400306
	H72	H	0.911921	0.619394	0.097297
	H73	H	0.091352	0.388682	0.089718
	H74	H	0.084703	0.614951	0.904966
	H75	H	0.908547	0.387790	0.908337
	H76	H	0.098192	0.913594	0.614614
	H77	H	0.101652	0.091658	0.381321
	H78	H	0.903318	0.099767	0.617390
	H79	H	0.910708	0.913083	0.382997
	H80	H	0.622256	0.101267	0.894688
	H81	H	0.386340	0.097084	0.094399
	H82	H	0.616004	0.916933	0.090784
	H83	H	0.386262	0.902297	0.914377
	H84	H	0.621388	0.905636	0.099166
	H85	H	0.386772	0.097634	0.090527
	H86	H	0.616642	0.103031	0.916077
	H87	H	0.390015	0.920524	0.907702
	H88	H	0.908726	0.088035	0.612637
	H89	H	0.088977	0.091430	0.385504
	H90	H	0.089602	0.911549	0.613012
	H91	H	0.911907	0.907289	0.381497
	H92	H	0.102309	0.616994	0.915048
	H93	H	0.099653	0.386945	0.088372
	H94	H	0.910757	0.616060	0.086673
	H95	H	0.909733	0.386680	0.903538
	H96	H	0.407793	0.117744	0.589646
	H97	H	0.601172	0.884464	0.593522
	H98	H	0.593961	0.118319	0.405244
	H99	H	0.411168	0.889637	0.411655
	H100	H	0.598136	0.412790	0.114572
	H101	H	0.592312	0.599546	0.882654
	H102	H	0.417992	0.595525	0.112373
	H103	H	0.415206	0.413539	0.885310
	H104	H	0.116584	0.588913	0.399358
	H105	H	0.885373	0.604802	0.587081
	H106	H	0.117689	0.414261	0.594974
	H107	H	0.885661	0.407114	0.406728
	H108	H	0.902183	0.620488	0.092336
	H109	H	0.096473	0.385521	0.095985
	H110	H	0.101374	0.622639	0.895364
	H111	H	0.913155	0.388434	0.906217
	H112	H	0.095431	0.905325	0.616625
	H113	H	0.094106	0.102879	0.380468
	H114	H	0.916127	0.099590	0.613359
	H115	H	0.905922	0.910006	0.381442
	H116	H	0.614131	0.083797	0.906035
	H117	H	0.387152	0.094383	0.091563
	H118	H	0.617866	0.903688	0.084635
	H119	H	0.382343	0.906609	0.895832
	C120	C	0.380274	0.010830	0.620082
	C121	C	0.623703	0.995204	0.619946
	C122	C	0.624062	0.011374	0.376824
	C123	C	0.380535	0.994725	0.376933
	C124	C	0.624209	0.380966	0.006349
	C125	C	0.623716	0.623816	0.990290
	C126	C	0.380492	0.624114	0.006805
	C127	C	0.381417	0.381728	0.990535
	C128	C	0.010666	0.625140	0.376959
	C129	C	0.994061	0.625165	0.619919
	C130	C	0.009951	0.381244	0.619984
	C131	C	0.994017	0.381466	0.377033
	C132	C	0.880652	0.510854	0.120558
	C133	C	0.124012	0.494702	0.119908
	C134	C	0.124552	0.510637	0.876087
	C135	C	0.881255	0.495043	0.877203
	C136	C	0.123212	0.881705	0.506687
	C137	C	0.123432	0.124177	0.490133
	C138	C	0.880711	0.124384	0.506493
	C139	C	0.880570	0.881686	0.490039
	C140	C	0.510299	0.124928	0.876670
	C141	C	0.494374	0.124659	0.120226
	C142	C	0.510791	0.881022	0.120397
	C143	C	0.493536	0.881190	0.876845
	C144	C	0.383435	0.888620	0.675234
	C145	C	0.620627	0.117421	0.675186
	C146	C	0.620698	0.888622	0.322115
	C147	C	0.383899	0.117540	0.322310
	C148	C	0.680229	0.383144	0.883564
	C149	C	0.677864	0.620281	0.113645
	C150	C	0.325666	0.621643	0.883850
	C151	C	0.325761	0.383900	0.113303
	C152	C	0.888096	0.680374	0.379430
	C153	C	0.116770	0.679992	0.616971
	C154	C	0.887533	0.326032	0.617922
	C155	C	0.116358	0.325155	0.378874
	C156	C	0.887714	0.384148	0.675764
	C157	C	0.116893	0.621969	0.674227
	C158	C	0.888013	0.621956	0.322319
	C159	C	0.116900	0.384075	0.322161
	C160	C	0.382531	0.679982	0.884156
	C161	C	0.620369	0.678148	0.113703
	C162	C	0.622053	0.325928	0.883218
	C163	C	0.383795	0.326723	0.113574
	C164	C	0.679325	0.888992	0.378891
	C165	C	0.678783	0.117327	0.617720
	C166	C	0.325152	0.888443	0.618302
	C167	C	0.325082	0.116979	0.379141
	C168	C	0.883489	0.388503	0.176163
	C169	C	0.120424	0.617704	0.174570
	C170	C	0.121361	0.387920	0.821350
	C171	C	0.884047	0.617638	0.822485
	C172	C	0.179348	0.883365	0.384055
	C173	C	0.178301	0.122039	0.613149
	C174	C	0.825610	0.121688	0.383635
	C175	C	0.825165	0.884383	0.613015
	C176	C	0.387754	0.180184	0.879731
	C177	C	0.616878	0.179916	0.117368
	C178	C	0.388271	0.826014	0.118590
	C179	C	0.616223	0.825966	0.878866
	C180	C	0.387999	0.884876	0.175345
	C181	C	0.617216	0.121590	0.174545
	C182	C	0.387576	0.121914	0.822207
	C183	C	0.616457	0.884445	0.821629
	C184	C	0.883001	0.179529	0.383691
	C185	C	0.120646	0.179687	0.613020
	C186	C	0.121218	0.826307	0.383931
	C187	C	0.882440	0.826445	0.613145
	C188	C	0.179339	0.387989	0.879141
	C189	C	0.178434	0.617491	0.117122
	C190	C	0.825373	0.388671	0.118618
	C191	C	0.825407	0.617026	0.879341
	C192	C	0.402342	0.096343	0.597375
	C193	C	0.602092	0.909318	0.597991
	C194	C	0.602088	0.096978	0.399187
	C195	C	0.402620	0.909213	0.399069
	C196	C	0.601504	0.403323	0.091935
	C197	C	0.602059	0.602405	0.904286
	C198	C	0.402435	0.601950	0.092686
	C199	C	0.403625	0.403777	0.904594
	C200	C	0.096020	0.603166	0.399042
	C201	C	0.908422	0.603416	0.598123
	C202	C	0.095385	0.403326	0.597371
	C203	C	0.908633	0.403624	0.399295
	C204	C	0.902083	0.596555	0.098500
	C205	C	0.102192	0.409265	0.097982
	C206	C	0.102534	0.596195	0.898503
	C207	C	0.903808	0.409576	0.899541
	C208	C	0.100903	0.903821	0.592444
	C209	C	0.101310	0.102012	0.404469
	C210	C	0.902938	0.102253	0.592304
	C211	C	0.903027	0.903672	0.404158
	C212	C	0.595533	0.102555	0.898928
	C213	C	0.408929	0.102849	0.098493
	C214	C	0.596387	0.902428	0.098047
	C215	C	0.408361	0.903229	0.899301
	Zn216	Zn	0.501735	0.003016	0.748034
	Zn217	Zn	0.502762	0.002988	0.248887
	Zn218	Zn	0.752511	0.502592	-0.001406
	Zn219	Zn	0.252622	0.502641	-0.001321
	Zn220	Zn	0.001888	0.753550	0.498715
	Zn221	Zn	0.001894	0.252764	0.498161
	Zn222	Zn	0.002343	0.503351	0.748192
	Zn223	Zn	0.002748	0.503296	0.248610
	Zn224	Zn	0.502169	0.752520	-0.001248
	Zn225	Zn	0.502209	0.253418	-0.001603
	Zn226	Zn	0.752343	0.002949	0.498441
	Zn227	Zn	0.251647	0.002557	0.498729
	N228	N	0.417013	0.965535	0.676250
	N229	N	0.586936	0.040262	0.676447
	N230	N	0.586989	0.965736	0.320876
	N231	N	0.417779	0.040313	0.320849
	N232	N	0.681298	0.416997	0.960935
	N233	N	0.680122	0.587411	0.035926
	N234	N	0.324468	0.587511	0.961025
	N235	N	0.324246	0.417568	0.035706
	N236	N	0.965223	0.682218	0.412847
	N237	N	0.039312	0.682156	0.584051
	N238	N	0.964582	0.324141	0.584096
	N239	N	0.038961	0.323605	0.412440
	N240	N	0.964892	0.417864	0.677020
	N241	N	0.039766	0.588428	0.676029
	N242	N	0.965222	0.588193	0.320819
	N243	N	0.040141	0.418359	0.320937
	N244	N	0.415998	0.681606	0.961738
	N245	N	0.587380	0.680562	0.036030
	N246	N	0.588158	0.324259	0.960557
	N247	N	0.417409	0.325218	0.036161
	N248	N	0.681335	0.966232	0.412192
	N249	N	0.680540	0.040184	0.584110
	N250	N	0.323095	0.965716	0.584609
	N251	N	0.323020	0.039807	0.412410
	N252	N	0.917109	0.465621	0.177535
	N253	N	0.087055	0.540435	0.176140
	N254	N	0.088326	0.465183	0.819307
	N255	N	0.917999	0.540740	0.820903
	N256	N	0.180436	0.917266	0.461482
	N257	N	0.179976	0.088105	0.535908
	N258	N	0.823960	0.088226	0.461240
	N259	N	0.823920	0.917929	0.535673
	N260	N	0.465000	0.182126	0.912852
	N261	N	0.539363	0.182046	0.084351
	N262	N	0.465497	0.823694	0.085130
	N263	N	0.539076	0.823967	0.912635
	N264	N	0.465107	0.918591	0.176500
	N265	N	0.540210	0.087931	0.176441
	N266	N	0.464737	0.088392	0.820194
	N267	N	0.539365	0.918349	0.820445
	N268	N	0.916352	0.181394	0.461072
	N269	N	0.087032	0.181073	0.535619
	N270	N	0.087103	0.825106	0.461102
	N271	N	0.916303	0.824694	0.535590
	N272	N	0.181447	0.465399	0.912633
	N273	N	0.181059	0.540123	0.084059
	N274	N	0.823605	0.465594	0.084654
	N275	N	0.823841	0.539715	0.912755
	O276	O	-0.028790	0.020781	0.981903
	H277	H	-0.029637	0.015246	0.975745
	H278	H	-0.030468	0.021903	0.985041
	O279	O	0.474284	0.486298	0.512488
	H280	H	0.469055	0.471849	0.512735
	H281	H	0.472608	0.488554	0.510550
	O282	O	0.483331	0.445986	0.513919
	H283	H	0.472067	0.444674	0.509311
	H284	H	0.487155	0.450724	0.514565
	O285	O	0.481752	0.467093	0.509668
	H286	H	0.481122	0.461915	0.513193
	H287	H	0.481583	0.456975	0.507105
	O288	O	0.482277	0.467827	0.535681
	H289	H	0.486955	0.468040	0.542300
	H290	H	0.488607	0.473275	0.525681
	O291	O	-0.016338	1.007049	0.986096
	H292	H	-0.021041	1.007191	0.989483
	H293	H	-0.020700	1.008753	0.988846
	O294	O	0.475279	0.458474	0.497699
	H295	H	0.473099	0.464382	0.507419
	H296	H	0.475227	0.462155	0.499489
	O297	O	0.973172	0.012503	-0.015704
	H298	H	0.974452	0.014957	-0.014720
	H299	H	0.972849	0.011011	-0.025023
