data_Molecule from HDF5

_cell_length_a		16.536403
_cell_length_b		16.614251
_cell_length_c		16.523431
_cell_angle_alpha	90.125476
_cell_angle_beta	90.128194
_cell_angle_gamma	89.922421
_symmetry_space_group_name_H-M	'P 1'
_symmetry_Int_Tables_number		1

loop_
	_symmetry_equiv_pos_as_xyz
	x,y,z

loop_
	_atom_site_label
	_atom_site_type_symbol
	_atom_site_fract_x
	_atom_site_fract_y
	_atom_site_fract_z
	H0	H	0.385631	0.851587	0.715855
	H1	H	0.591784	0.165694	0.716214
	H2	H	0.592181	0.852051	0.275303
	H3	H	0.377872	0.163502	0.270682
	H4	H	0.708876	0.402923	0.840273
	H5	H	0.711686	0.613946	0.152536
	H6	H	0.270685	0.608341	0.837752
	H7	H	0.265188	0.400892	0.152848
	H8	H	0.833487	0.729467	0.390437
	H9	H	0.146129	0.728625	0.601563
	H10	H	0.834063	0.283970	0.603657
	H11	H	0.145818	0.283437	0.389403
	H12	H	0.832409	0.402925	0.717347
	H13	H	0.146241	0.611501	0.717764
	H14	H	0.832831	0.612843	0.274524
	H15	H	0.146348	0.400045	0.274101
	H16	H	0.384020	0.727470	0.838029
	H17	H	0.595678	0.731054	0.152181
	H18	H	0.594388	0.285553	0.841910
	H19	H	0.379946	0.284456	0.153243
	H20	H	0.709615	0.852225	0.391277
	H21	H	0.708155	0.165995	0.598891
	H22	H	0.268152	0.852144	0.600003
	H23	H	0.263595	0.164714	0.388868
	H24	H	0.884254	0.350791	0.217596
	H25	H	0.091171	0.663822	0.216899
	H26	H	0.091347	0.350094	0.776685
	H27	H	0.886631	0.665165	0.778107
	H28	H	0.209055	0.904330	0.339385
	H29	H	0.206367	0.109651	0.655503
	H30	H	0.768230	0.112163	0.337796
	H31	H	0.771331	0.907525	0.654274
	H32	H	0.330361	0.228219	0.893785
	H33	H	0.644435	0.230906	0.105234
	H34	H	0.330889	0.789243	0.099563
	H35	H	0.646470	0.789821	0.895621
	H36	H	0.330700	0.906414	0.216075
	H37	H	0.645541	0.112409	0.217869
	H38	H	0.330644	0.111213	0.777854
	H39	H	0.648750	0.909147	0.782136
	H40	H	0.883493	0.229657	0.338616
	H41	H	0.091515	0.226914	0.654648
	H42	H	0.093586	0.787164	0.339995
	H43	H	0.887312	0.790013	0.653850
	H44	H	0.210050	0.350136	0.891782
	H45	H	0.207876	0.664459	0.099273
	H46	H	0.767886	0.351262	0.100839
	H47	H	0.768693	0.664413	0.893664
	H48	H	0.399846	0.120490	0.585972
	H49	H	0.582397	0.892691	0.597421
	H50	H	0.576691	0.116859	0.417256
	H51	H	0.397329	0.895346	0.401079
	H52	H	0.576503	0.417494	0.110313
	H53	H	0.584175	0.594863	0.883093
	H54	H	0.398586	0.603767	0.111036
	H55	H	0.400919	0.428392	0.889207
	H56	H	0.101073	0.599500	0.411857
	H57	H	0.877158	0.596418	0.587100
	H58	H	0.096794	0.426381	0.581618
	H59	H	0.878335	0.415922	0.410508
	H60	H	0.103777	0.418497	0.594442
	H61	H	0.875545	0.599950	0.587402
	H62	H	0.100258	0.591824	0.407347
	H63	H	0.879647	0.422033	0.408988
	H64	H	0.395155	0.596333	0.109878
	H65	H	0.573674	0.593630	0.886743
	H66	H	0.581297	0.419709	0.110786
	H67	H	0.410595	0.416830	0.888604
	H68	H	0.586169	0.124418	0.405437
	H69	H	0.572377	0.899241	0.586246
	H70	H	0.396481	0.121535	0.585884
	H71	H	0.409056	0.903110	0.407824
	H72	H	0.901216	0.619618	0.090102
	H73	H	0.074869	0.397063	0.083316
	H74	H	0.080175	0.619950	0.906752
	H75	H	0.899922	0.395743	0.906706
	H76	H	0.082808	0.915689	0.610831
	H77	H	0.077435	0.097786	0.383017
	H78	H	0.898476	0.097378	0.607761
	H79	H	0.900878	0.913328	0.382158
	H80	H	0.601758	0.094583	0.904352
	H81	H	0.374317	0.099020	0.088228
	H82	H	0.599484	0.917539	0.082235
	H83	H	0.373406	0.913227	0.903588
	H84	H	0.600571	0.922217	0.086713
	H85	H	0.377217	0.099863	0.079293
	H86	H	0.603426	0.102907	0.907549
	H87	H	0.375226	0.917536	0.907242
	H88	H	0.900771	0.096798	0.606574
	H89	H	0.078154	0.095343	0.384189
	H90	H	0.078740	0.922145	0.608781
	H91	H	0.894606	0.919055	0.381999
	H92	H	0.080014	0.619808	0.906321
	H93	H	0.081836	0.394829	0.082506
	H94	H	0.904933	0.616861	0.082751
	H95	H	0.898864	0.394793	0.906184
	H96	H	0.398242	0.121550	0.588938
	H97	H	0.587421	0.895403	0.582067
	H98	H	0.569932	0.120088	0.402083
	H99	H	0.395759	0.899814	0.415703
	H100	H	0.576755	0.422503	0.108959
	H101	H	0.576436	0.603733	0.882277
	H102	H	0.403119	0.597757	0.106812
	H103	H	0.396709	0.414939	0.883247
	H104	H	0.103931	0.598969	0.403761
	H105	H	0.877020	0.598794	0.583783
	H106	H	0.102157	0.411285	0.579681
	H107	H	0.877426	0.417893	0.404876
	H108	H	0.896750	0.619441	0.082824
	H109	H	0.078513	0.394120	0.089123
	H110	H	0.079497	0.618948	0.906980
	H111	H	0.899940	0.395591	0.905213
	H112	H	0.074994	0.915634	0.609393
	H113	H	0.075704	0.095925	0.383913
	H114	H	0.900777	0.098899	0.608484
	H115	H	0.902069	0.921139	0.384930
	H116	H	0.598578	0.097152	0.913054
	H117	H	0.378534	0.091437	0.083902
	H118	H	0.602119	0.917135	0.087947
	H119	H	0.374371	0.918692	0.901888
	C120	C	0.367396	0.017020	0.617892
	C121	C	0.611367	1.000081	0.618905
	C122	C	0.609740	0.016881	0.375448
	C123	C	0.366644	1.001565	0.374849
	C124	C	0.610416	0.386818	0.006470
	C125	C	0.610288	0.629399	0.987834
	C126	C	0.367517	0.629491	0.004558
	C127	C	0.368547	0.387098	0.989725
	C128	C	-0.001942	0.628730	0.375330
	C129	C	0.980745	0.629225	0.617946
	C130	C	-0.002398	0.386418	0.617581
	C131	C	0.981893	0.385739	0.375273
	C132	C	0.868355	0.515805	0.117796
	C133	C	0.110392	0.498826	0.117437
	C134	C	0.110926	0.515459	0.874901
	C135	C	0.867345	0.499194	0.874542
	C136	C	0.110859	0.886433	0.505444
	C137	C	0.109301	0.128421	0.488130
	C138	C	0.867999	0.129491	0.503828
	C139	C	0.868360	0.887382	0.487892
	C140	C	0.496934	0.129955	0.876326
	C141	C	0.479792	0.129378	0.117736
	C142	C	0.496783	0.887263	0.117402
	C143	C	0.480076	0.886627	0.874713
	C144	C	0.366497	0.898684	0.676491
	C145	C	0.611222	0.118674	0.676781
	C146	C	0.610959	0.899101	0.315579
	C147	C	0.361443	0.117537	0.312475
	C148	C	0.669638	0.384401	0.888025
	C149	C	0.671062	0.632238	0.105693
	C150	C	0.309343	0.628425	0.885279
	C151	C	0.306150	0.383312	0.106361
	C152	C	0.880222	0.689057	0.372494
	C153	C	0.099098	0.688592	0.620163
	C154	C	0.880360	0.325291	0.620961
	C155	C	0.099116	0.324235	0.371806
	C156	C	0.879653	0.384207	0.677708
	C157	C	0.099194	0.630432	0.677743
	C158	C	0.880060	0.630970	0.314912
	C159	C	0.099302	0.382093	0.314344
	C160	C	0.366005	0.687377	0.885470
	C161	C	0.613538	0.690425	0.105362
	C162	C	0.612708	0.325834	0.888864
	C163	C	0.363531	0.325512	0.106770
	C164	C	0.669434	0.899086	0.373139
	C165	C	0.668789	0.118884	0.618314
	C166	C	0.308277	0.899006	0.618721
	C167	C	0.304186	0.117926	0.371067
	C168	C	0.865857	0.397833	0.177577
	C169	C	0.111007	0.616865	0.177128
	C170	C	0.110847	0.396975	0.816413
	C171	C	0.867262	0.617995	0.817179
	C172	C	0.169219	0.885803	0.386592
	C173	C	0.167707	0.129423	0.607561
	C174	C	0.808352	0.130738	0.385120
	C175	C	0.810633	0.887753	0.606961
	C176	C	0.377875	0.188536	0.875070
	C177	C	0.597717	0.190201	0.122347
	C178	C	0.378087	0.828802	0.118420
	C179	C	0.599244	0.829018	0.875668
	C180	C	0.378097	0.886737	0.176443
	C181	C	0.598275	0.131220	0.178345
	C182	C	0.378021	0.130581	0.817226
	C183	C	0.600400	0.888461	0.819613
	C184	C	0.865654	0.189051	0.385405
	C185	C	0.110583	0.187642	0.607189
	C186	C	0.112323	0.827187	0.386929
	C187	C	0.868255	0.829544	0.606835
	C188	C	0.169469	0.396949	0.873867
	C189	C	0.168658	0.617309	0.118739
	C190	C	0.808024	0.397933	0.119511
	C191	C	0.808576	0.617479	0.874313
	C192	C	0.391396	0.099385	0.593955
	C193	C	0.587591	0.917279	0.595413
	C194	C	0.584739	0.099160	0.400753
	C195	C	0.393126	0.920349	0.400825
	C196	C	0.585327	0.412548	0.088758
	C197	C	0.585218	0.604428	0.905356
	C198	C	0.391884	0.605969	0.087467
	C199	C	0.395120	0.412771	0.908200
	C200	C	0.080336	0.603764	0.400660
	C201	C	0.898141	0.605098	0.593169
	C202	C	0.079641	0.411558	0.592316
	C203	C	0.899778	0.411485	0.400861
	C204	C	0.893691	0.597364	0.092454
	C205	C	0.085805	0.416690	0.092183
	C206	C	0.086772	0.597997	0.899607
	C207	C	0.892344	0.416807	0.898861
	C208	C	0.086006	0.910899	0.588193
	C209	C	0.084336	0.103762	0.405279
	C210	C	0.892981	0.105008	0.586085
	C211	C	0.892310	0.911029	0.404715
	C212	C	0.579492	0.105275	0.901202
	C213	C	0.398079	0.104113	0.091353
	C214	C	0.579290	0.911889	0.092675
	C215	C	0.395996	0.909833	0.897595
	Zn216	Zn	0.489105	0.008724	0.747425
	Zn217	Zn	0.488175	0.009315	0.246221
	Zn218	Zn	0.739292	0.508171	-0.003117
	Zn219	Zn	0.239620	0.507248	-0.003219
	Zn220	Zn	-0.010732	0.757997	0.496308
	Zn221	Zn	-0.010724	0.257595	0.495948
	Zn222	Zn	-0.010752	0.507844	0.746432
	Zn223	Zn	-0.010225	0.506640	0.246985
	Zn224	Zn	0.488274	0.758272	-0.003948
	Zn225	Zn	0.488359	0.258223	-0.001899
	Zn226	Zn	0.739450	0.008541	0.495815
	Zn227	Zn	0.238333	0.008702	0.496523
	N228	N	0.402756	0.973074	0.676197
	N229	N	0.576160	0.043853	0.677280
	N230	N	0.574562	0.973504	0.316872
	N231	N	0.399743	0.044161	0.314855
	N232	N	0.668436	0.421694	0.962221
	N233	N	0.668980	0.594865	0.031656
	N234	N	0.309896	0.593352	0.960571
	N235	N	0.309415	0.421214	0.032777
	N236	N	0.954663	0.687793	0.409355
	N237	N	0.024399	0.688145	0.583847
	N238	N	0.954689	0.326578	0.584145
	N239	N	0.025004	0.326397	0.409044
	N240	N	0.953515	0.421624	0.675698
	N241	N	0.024620	0.594228	0.676525
	N242	N	0.954310	0.593928	0.316599
	N243	N	0.025367	0.419692	0.316572
	N244	N	0.401290	0.688274	0.960634
	N245	N	0.576102	0.688698	0.031077
	N246	N	0.576699	0.327116	0.963615
	N247	N	0.401812	0.327897	0.033235
	N248	N	0.668807	0.973484	0.409452
	N249	N	0.669056	0.043943	0.583168
	N250	N	0.308568	0.973581	0.583375
	N251	N	0.307263	0.044703	0.409241
	N252	N	0.902386	0.472000	0.176864
	N253	N	0.075819	0.542048	0.176541
	N254	N	0.075169	0.471646	0.817011
	N255	N	0.902758	0.543119	0.816877
	N256	N	0.168661	0.921650	0.461407
	N257	N	0.166920	0.093413	0.532695
	N258	N	0.809586	0.094540	0.459597
	N259	N	0.810282	0.922589	0.531710
	N260	N	0.452916	0.188560	0.910766
	N261	N	0.523249	0.189339	0.085562
	N262	N	0.452985	0.828760	0.082744
	N263	N	0.523036	0.827462	0.908643
	N264	N	0.453066	0.922282	0.176050
	N265	N	0.524061	0.094143	0.175728
	N266	N	0.453104	0.094978	0.817739
	N267	N	0.524952	0.923152	0.818660
	N268	N	0.901797	0.188674	0.460319
	N269	N	0.075121	0.187262	0.531762
	N270	N	0.076757	0.827390	0.461930
	N271	N	0.903196	0.829101	0.531602
	N272	N	0.169941	0.471847	0.909181
	N273	N	0.168624	0.542857	0.082676
	N274	N	0.809185	0.472315	0.083237
	N275	N	0.808420	0.542477	0.909023
	O276	O	0.848995	0.158661	-0.824128
	H277	H	0.847357	0.157848	-0.818874
	H278	H	0.832925	0.169600	-0.828653
	O279	O	0.178115	0.204398	0.935028
	H280	H	0.168605	0.210976	0.941252
	H281	H	0.185894	0.176297	0.938078
	O282	O	0.124259	0.801075	-0.151273
	H283	H	0.120204	0.800597	-0.156125
	H284	H	0.120804	0.793347	-0.159069
	O285	O	0.181814	0.203688	1.155049
	H286	H	0.140453	0.206937	1.155797
	H287	H	0.187622	0.206887	1.128457
	O288	O	0.849349	0.042859	1.029981
	H289	H	0.860052	0.043275	1.020772
	H290	H	0.850559	0.048909	1.024491
	O291	O	0.700073	0.301484	1.467868
	H292	H	0.714255	0.290783	1.446724
	H293	H	0.705941	0.295514	1.468734
	O294	O	0.333364	0.566518	-0.348166
	H295	H	0.324980	0.561631	-0.350828
	H296	H	0.347596	0.577059	-0.352895
	O297	O	0.699340	0.720451	0.707377
	H298	H	0.698545	0.680021	0.705034
	H299	H	0.685281	0.731687	0.718576
	O300	O	0.060969	-0.089694	-0.004969
	H301	H	0.047927	-0.090843	-0.005654
	H302	H	0.063242	-0.097508	-0.007296
	O303	O	0.194723	-0.008188	-0.176022
	H304	H	0.196958	-0.029170	-0.181833
	H305	H	0.200258	-0.015000	-0.187532
	O306	O	0.776076	0.045024	0.108459
	H307	H	0.778042	0.039936	0.114987
	H308	H	0.779964	0.033879	0.110957
	O309	O	0.410346	0.389120	0.401549
	H310	H	0.409605	0.394624	0.388084
	H311	H	0.401610	0.403001	0.397798
	O312	O	0.527407	0.731857	0.717630
	H313	H	0.514608	0.735618	0.724051
	H314	H	0.540435	0.744468	0.730287
	O315	O	0.517654	0.543178	0.529651
	H316	H	0.500480	0.534974	0.525933
	H317	H	0.512647	0.547535	0.520034
	O318	O	0.995481	0.939412	-0.187447
	H319	H	0.981701	0.949878	-0.200614
	H320	H	0.994878	0.933919	-0.187736
	O321	O	0.712583	0.530670	0.689504
	H322	H	0.725106	0.526057	0.705903
	H323	H	0.700440	0.514261	0.697192
	O324	O	1.038017	0.048786	1.056103
	H325	H	1.036950	0.041991	1.054588
	H326	H	1.042159	0.044778	1.054960
	O327	O	1.291612	1.377890	0.676647
	H328	H	1.283137	1.355564	0.656170
	H329	H	1.277437	1.392194	0.702789
	O330	O	0.137777	0.795123	-0.024297
	H331	H	0.135113	0.777159	-0.025220
	H332	H	0.137456	0.791769	-0.061202
	O333	O	-0.155516	0.804088	0.197077
	H334	H	-0.140584	0.814035	0.199272
	H335	H	-0.174617	0.774052	0.218779
	O336	O	0.686962	0.640035	0.465082
	H337	H	0.673251	0.631486	0.479712
	H338	H	0.700238	0.657150	0.493579
	O339	O	0.787864	-0.190756	1.017525
	H340	H	0.780146	-0.180367	1.038050
	H341	H	0.778525	-0.204797	1.040325
	O342	O	-0.113380	0.908264	-0.034831
	H343	H	-0.120075	0.908494	-0.042226
	H344	H	-0.118564	0.898070	-0.025572
	O345	O	0.178112	-0.022186	-0.182872
	H346	H	0.157433	-0.024357	-0.174396
	H347	H	0.189604	-0.041208	-0.204458
	O348	O	0.005566	-0.144780	0.201238
	H349	H	0.006800	-0.139540	0.209278
	H350	H	-0.001198	-0.139764	0.198744
	O351	O	-0.386120	0.351842	0.585943
	H352	H	-0.376672	0.353434	0.597051
	H353	H	-0.384581	0.346241	0.573138
	O354	O	1.001106	0.095329	0.912809
	H355	H	1.012892	0.102562	0.907299
	H356	H	0.994158	0.086953	0.907717
	O357	O	0.285868	0.537745	0.572011
	H358	H	0.284198	0.532340	0.553713
	H359	H	0.301286	0.529242	0.566811
	O360	O	0.587578	0.463695	0.528162
	H361	H	0.578741	0.465259	0.546617
	H362	H	0.585740	0.473673	0.517772
	O363	O	0.772094	1.041693	-0.220379
	H364	H	0.750115	1.053367	-0.244194
	H365	H	0.771805	1.063397	-0.215847
	O366	O	1.042510	0.102480	1.080868
	H367	H	1.029781	0.111117	1.072964
	H368	H	1.035898	0.112165	1.087489
	O369	O	0.431079	0.448299	1.299247
	H370	H	0.410566	0.452245	1.306261
	H371	H	0.423028	0.451760	1.295930
	O372	O	0.655087	1.360105	1.651190
	H373	H	0.643039	1.358756	1.632140
	H374	H	0.640961	1.367568	1.643844
	O375	O	0.960828	-0.032634	0.106364
	H376	H	0.963981	-0.028714	0.091777
	H377	H	0.935471	-0.036653	0.112396
	O378	O	0.462378	0.286867	0.706395
	H379	H	0.448415	0.263132	0.729451
	H380	H	0.432977	0.281341	0.696842
	O381	O	-0.675425	0.358790	-0.397864
	H382	H	-0.680201	0.362567	-0.416406
	H383	H	-0.681481	0.346194	-0.377846
	O384	O	1.167477	0.946043	0.030618
	H385	H	1.168785	0.934405	0.034887
	H386	H	1.162432	0.928737	0.019428
	O387	O	0.520711	0.583170	1.423363
	H388	H	0.508891	0.567631	1.423408
	H389	H	0.531897	0.576061	1.411530
	O390	O	0.691008	0.307970	0.294766
	H391	H	0.652431	0.308025	0.302854
	H392	H	0.695927	0.352480	0.295543
	O393	O	1.017665	-0.039757	-0.101201
	H394	H	1.031913	-0.041562	-0.119612
	H395	H	1.012871	-0.019152	-0.102068
	O396	O	0.360233	0.653531	0.365240
	H397	H	0.349262	0.648990	0.369953
	H398	H	0.355469	0.652465	0.368531
	O399	O	0.445919	0.730396	0.482492
	H400	H	0.439390	0.738124	0.474333
	H401	H	0.462515	0.734691	0.481579
	O402	O	0.810904	-0.173823	0.814962
	H403	H	0.808038	-0.166270	0.833150
	H404	H	0.808295	-0.167910	0.808818
	O405	O	0.326048	0.717217	0.285426
	H406	H	0.312927	0.722723	0.318144
	H407	H	0.309747	0.746302	0.263524
	O408	O	0.544473	0.607713	1.406722
	H409	H	0.537883	0.612327	1.409983
	H410	H	0.549008	0.610005	1.403654
	O411	O	1.334500	0.595625	0.359091
	H412	H	1.331837	0.594251	0.358165
	H413	H	1.330560	0.608511	0.354099
	O414	O	-0.177576	0.171523	-0.160903
	H415	H	-0.199673	0.181589	-0.173041
	H416	H	-0.166166	0.170266	-0.125609
	O417	O	0.275594	0.502839	0.455716
	H418	H	0.274965	0.496134	0.438698
	H419	H	0.278778	0.501873	0.451451
	O420	O	1.020117	0.215969	1.187600
	H421	H	1.014209	0.211333	1.176040
	H422	H	1.013524	0.231763	1.199531
	O423	O	0.775531	0.913475	0.204419
	H424	H	0.779778	0.895173	0.202169
	H425	H	0.749145	0.926000	0.228056
	O426	O	0.443025	0.394076	0.489457
	H427	H	0.449433	0.393486	0.486331
	H428	H	0.467138	0.398996	0.499664
	O429	O	0.510885	0.472404	0.717929
	H430	H	0.504330	0.452311	0.716467
	H431	H	0.500823	0.483169	0.715148
	O432	O	1.027681	0.083430	0.994138
	H433	H	1.016561	0.061310	1.001045
	H434	H	1.028895	0.078496	0.996550
	O435	O	0.051749	0.891796	0.846800
	H436	H	0.038739	0.910263	0.848241
	H437	H	0.052102	0.876071	0.830981
	O438	O	0.661401	0.691774	0.521389
	H439	H	0.672039	0.693417	0.531939
	H440	H	0.662980	0.699428	0.539103
	O441	O	1.161590	-0.000391	0.182429
	H442	H	1.156508	0.014038	0.172540
	H443	H	1.168105	0.011400	0.192556
	O444	O	0.480751	0.692531	0.284336
	H445	H	0.472282	0.709931	0.267781
	H446	H	0.459049	0.693744	0.281028
	O447	O	0.356525	0.305388	0.334129
	H448	H	0.353728	0.304792	0.307327
	H449	H	0.344793	0.300812	0.339591
	O450	O	1.463266	-0.395172	0.653610
	H451	H	1.455372	-0.395609	0.658142
	H452	H	1.463956	-0.399163	0.657755
	O453	O	0.604682	0.668567	0.322142
	H454	H	0.597328	0.651750	0.335319
	H455	H	0.586731	0.648961	0.335822
	O456	O	-0.220331	1.224211	0.965265
	H457	H	-0.244866	1.226716	0.977133
	H458	H	-0.221291	1.213033	0.978776
	O459	O	0.303591	0.286149	0.516352
	H460	H	0.280296	0.266465	0.513953
	H461	H	0.317415	0.289230	0.505255
	O462	O	1.296845	0.664135	0.670404
	H463	H	1.311153	0.658948	0.646304
	H464	H	1.299742	0.645282	0.660981
	O465	O	0.514012	0.294140	1.284445
	H466	H	0.495941	0.290987	1.276733
	H467	H	0.508562	0.287494	1.269164
	O468	O	-0.037543	1.212908	-0.200922
	H469	H	-0.051393	1.218829	-0.193855
	H470	H	-0.049094	1.222698	-0.210268
	O471	O	0.701046	0.477474	0.287853
	H472	H	0.690069	0.497402	0.296736
	H473	H	0.721871	0.492754	0.280053
	O474	O	1.139527	0.874981	0.111168
	H475	H	1.132136	0.873505	0.088014
	H476	H	1.124850	0.893652	0.103914
	O477	O	0.696004	0.416079	1.581203
	H478	H	0.702139	0.424152	1.599862
	H479	H	0.689323	0.410470	1.561659
