data_Molecule from HDF5

_cell_length_a		16.451695
_cell_length_b		16.644735
_cell_length_c		16.416287
_cell_angle_alpha	90.033566
_cell_angle_beta	90.130691
_cell_angle_gamma	89.995225
_symmetry_space_group_name_H-M	'P 1'
_symmetry_Int_Tables_number		1

loop_
	_symmetry_equiv_pos_as_xyz
	x,y,z

loop_
	_atom_site_label
	_atom_site_type_symbol
	_atom_site_fract_x
	_atom_site_fract_y
	_atom_site_fract_z
	H0	H	0.385900	0.830422	0.692137
	H1	H	0.593122	0.143304	0.699294
	H2	H	0.595714	0.832862	0.251029
	H3	H	0.384431	0.143946	0.254893
	H4	H	0.706061	0.384333	0.817373
	H5	H	0.710809	0.597556	0.133638
	H6	H	0.268163	0.588175	0.816634
	H7	H	0.269096	0.384989	0.135656
	H8	H	0.827884	0.711738	0.368226
	H9	H	0.142716	0.707094	0.579919
	H10	H	0.828386	0.262203	0.586561
	H11	H	0.140488	0.265088	0.369358
	H12	H	0.824948	0.383672	0.697155
	H13	H	0.144764	0.586845	0.692279
	H14	H	0.826112	0.594547	0.254175
	H15	H	0.140908	0.383066	0.255426
	H16	H	0.383266	0.705416	0.817085
	H17	H	0.595603	0.713445	0.133063
	H18	H	0.596638	0.262749	0.819983
	H19	H	0.380477	0.263998	0.131607
	H20	H	0.711455	0.832694	0.367472
	H21	H	0.709972	0.143843	0.582908
	H22	H	0.267052	0.832343	0.577035
	H23	H	0.267289	0.145150	0.372337
	H24	H	0.876102	0.331695	0.200893
	H25	H	0.087105	0.644420	0.195706
	H26	H	0.088892	0.329308	0.755583
	H27	H	0.883623	0.645143	0.758404
	H28	H	0.204042	0.885408	0.317048
	H29	H	0.205919	0.092580	0.635668
	H30	H	0.761509	0.096721	0.318094
	H31	H	0.767077	0.886293	0.633652
	H32	H	0.329367	0.211133	0.866288
	H33	H	0.641192	0.215196	0.087769
	H34	H	0.328631	0.769139	0.079540
	H35	H	0.642017	0.764351	0.868303
	H36	H	0.329563	0.885071	0.196109
	H37	H	0.643626	0.096651	0.200927
	H38	H	0.327402	0.090653	0.756141
	H39	H	0.644714	0.884233	0.756142
	H40	H	0.876021	0.213290	0.319244
	H41	H	0.092357	0.210776	0.634285
	H42	H	0.092909	0.764886	0.319374
	H43	H	0.879497	0.766666	0.632320
	H44	H	0.205382	0.329626	0.873330
	H45	H	0.203911	0.644871	0.078811
	H46	H	0.757816	0.332807	0.086515
	H47	H	0.764716	0.644149	0.873627
	H48	H	0.395163	0.102937	0.568417
	H49	H	0.573593	0.875980	0.568587
	H50	H	0.571410	0.096627	0.391332
	H51	H	0.397569	0.874854	0.383403
	H52	H	0.575198	0.399345	0.089379
	H53	H	0.573438	0.578645	0.863661
	H54	H	0.396913	0.579163	0.090328
	H55	H	0.393944	0.402903	0.862777
	H56	H	0.094030	0.573629	0.392487
	H57	H	0.869551	0.576011	0.569633
	H58	H	0.097963	0.400624	0.571129
	H59	H	0.869342	0.398685	0.388055
	H60	H	0.097375	0.392604	0.563252
	H61	H	0.868077	0.585183	0.568435
	H62	H	0.097864	0.574668	0.381485
	H63	H	0.872645	0.399625	0.394986
	H64	H	0.395770	0.583026	0.092402
	H65	H	0.573261	0.573209	0.866047
	H66	H	0.568586	0.406693	0.084461
	H67	H	0.402001	0.397786	0.864159
	H68	H	0.575382	0.098562	0.389592
	H69	H	0.575785	0.878563	0.560259
	H70	H	0.397433	0.101184	0.567226
	H71	H	0.396596	0.876125	0.388914
	H72	H	0.897637	0.598273	0.066992
	H73	H	0.077078	0.375093	0.064365
	H74	H	0.082373	0.600708	0.884907
	H75	H	0.893034	0.375795	0.889958
	H76	H	0.075949	0.901976	0.588921
	H77	H	0.076432	0.081141	0.361174
	H78	H	0.900533	0.074825	0.586756
	H79	H	0.902359	0.901892	0.364100
	H80	H	0.596165	0.071290	0.888655
	H81	H	0.378123	0.074318	0.056994
	H82	H	0.598936	0.903205	0.063719
	H83	H	0.370607	0.902123	0.877454
	H84	H	0.602568	0.896403	0.066104
	H85	H	0.375854	0.071745	0.064408
	H86	H	0.600909	0.078551	0.883442
	H87	H	0.368660	0.886884	0.884671
	H88	H	0.900000	0.076363	0.587022
	H89	H	0.076834	0.074424	0.364422
	H90	H	0.070961	0.895326	0.589422
	H91	H	0.899512	0.896470	0.361590
	H92	H	0.075333	0.599738	0.879842
	H93	H	0.077550	0.373468	0.068777
	H94	H	0.900083	0.595389	0.061185
	H95	H	0.894232	0.374455	0.885208
	H96	H	0.394891	0.101911	0.565356
	H97	H	0.581680	0.874617	0.565282
	H98	H	0.571769	0.097626	0.386956
	H99	H	0.392369	0.874423	0.386000
	H100	H	0.565213	0.397116	0.086867
	H101	H	0.568887	0.576738	0.866892
	H102	H	0.392488	0.579350	0.091478
	H103	H	0.394394	0.394197	0.859559
	H104	H	0.098690	0.583211	0.388860
	H105	H	0.871932	0.580138	0.561246
	H106	H	0.093578	0.402516	0.561063
	H107	H	0.873098	0.405244	0.389838
	H108	H	0.893487	0.597375	0.061591
	H109	H	0.073648	0.375450	0.067367
	H110	H	0.075062	0.597546	0.888295
	H111	H	0.898002	0.376383	0.888146
	H112	H	0.079173	0.894637	0.591792
	H113	H	0.070184	0.078858	0.364337
	H114	H	0.898703	0.074895	0.586840
	H115	H	0.896090	0.902543	0.361734
	H116	H	0.598676	0.079962	0.893611
	H117	H	0.373742	0.078933	0.062374
	H118	H	0.599317	0.896657	0.058878
	H119	H	0.376197	0.899639	0.893506
	C120	C	0.365099	-0.002244	0.597301
	C121	C	0.609499	0.979391	0.598063
	C122	C	0.607986	-0.004154	0.354478
	C123	C	0.364492	0.979100	0.354208
	C124	C	0.605075	0.367556	-0.016447
	C125	C	0.606380	0.609754	0.969043
	C126	C	0.364474	0.609778	-0.014505
	C127	C	0.364974	0.366494	0.967057
	C128	C	-0.007241	0.609828	0.354400
	C129	C	0.975549	0.609419	0.597011
	C130	C	-0.007871	0.366066	0.598275
	C131	C	0.975416	0.367838	0.357266
	C132	C	0.862412	0.495098	0.098309
	C133	C	0.106829	0.478808	0.097945
	C134	C	0.108135	0.495142	0.853707
	C135	C	0.863537	0.479011	0.855664
	C136	C	0.107029	0.866410	0.484913
	C137	C	0.106983	0.110289	0.467938
	C138	C	0.864863	0.109437	0.483546
	C139	C	0.865933	0.868136	0.466614
	C140	C	0.494785	0.109038	0.854824
	C141	C	0.478923	0.108944	0.096482
	C142	C	0.496131	0.867207	0.096164
	C143	C	0.476768	0.865389	0.853686
	C144	C	0.366188	0.877984	0.653411
	C145	C	0.611719	0.096540	0.659061
	C146	C	0.612639	0.879263	0.292111
	C147	C	0.364493	0.097127	0.294819
	C148	C	0.666584	0.365301	0.865238
	C149	C	0.669349	0.614267	0.086548
	C150	C	0.306873	0.608348	0.864870
	C151	C	0.307063	0.365405	0.087130
	C152	C	0.874924	0.671368	0.350529
	C153	C	0.095564	0.666902	0.597922
	C154	C	0.874623	0.304108	0.602906
	C155	C	0.093308	0.306091	0.352427
	C156	C	0.872997	0.364506	0.658064
	C157	C	0.096309	0.607266	0.653979
	C158	C	0.874001	0.612715	0.293650
	C159	C	0.093603	0.364702	0.295540
	C160	C	0.363847	0.667004	0.865235
	C161	C	0.611670	0.671953	0.086517
	C162	C	0.611807	0.304859	0.866324
	C163	C	0.362460	0.305365	0.085162
	C164	C	0.670555	0.879498	0.349842
	C165	C	0.669766	0.096767	0.600946
	C166	C	0.306920	0.879055	0.596513
	C167	C	0.306493	0.097847	0.353105
	C168	C	0.858289	0.378668	0.160568
	C169	C	0.106504	0.597181	0.156174
	C170	C	0.107763	0.376329	0.795581
	C171	C	0.863405	0.597632	0.797216
	C172	C	0.165703	0.865813	0.365276
	C173	C	0.166800	0.111664	0.587542
	C174	C	0.802183	0.114008	0.365448
	C175	C	0.806736	0.867213	0.586355
	C176	C	0.376599	0.170198	0.850012
	C177	C	0.595268	0.172680	0.103163
	C178	C	0.376388	0.808198	0.098416
	C179	C	0.595207	0.805207	0.850834
	C180	C	0.376852	0.865725	0.156215
	C181	C	0.596322	0.113441	0.159571
	C182	C	0.375291	0.109972	0.795201
	C183	C	0.596493	0.864933	0.795084
	C184	C	0.859202	0.172131	0.366054
	C185	C	0.110202	0.170625	0.586782
	C186	C	0.110042	0.806078	0.366208
	C187	C	0.861995	0.807319	0.585198
	C188	C	0.166136	0.376627	0.853742
	C189	C	0.164718	0.597463	0.098206
	C190	C	0.799222	0.379150	0.103604
	C191	C	0.804312	0.597245	0.854363
	C192	C	0.388961	0.080556	0.573952
	C193	C	0.584230	0.897488	0.572184
	C194	C	0.580681	0.076638	0.381528
	C195	C	0.388457	0.896635	0.378890
	C196	C	0.577533	0.393657	0.065671
	C197	C	0.579570	0.583456	0.886852
	C198	C	0.388183	0.587091	0.069515
	C199	C	0.389681	0.391416	0.883908
	C200	C	0.075363	0.584378	0.380216
	C201	C	0.891740	0.586849	0.573341
	C202	C	0.074839	0.391187	0.572561
	C203	C	0.893209	0.393695	0.383637
	C204	C	0.889519	0.575910	0.071190
	C205	C	0.083030	0.396191	0.073714
	C206	C	0.084359	0.577692	0.877306
	C207	C	0.888032	0.396847	0.880590
	C208	C	0.082336	0.890544	0.568334
	C209	C	0.081804	0.085350	0.384896
	C210	C	0.892005	0.082951	0.565343
	C211	C	0.891723	0.893270	0.383936
	C212	C	0.577174	0.083878	0.881103
	C213	C	0.397078	0.082361	0.069137
	C214	C	0.578642	0.891753	0.070435
	C215	C	0.393468	0.889357	0.878213
	Zn216	Zn	0.486371	-0.011972	0.726417
	Zn217	Zn	0.487321	-0.012149	0.224948
	Zn218	Zn	0.733753	0.487886	-0.022948
	Zn219	Zn	0.236598	0.487168	-0.023511
	Zn220	Zn	-0.014816	0.738542	0.475390
	Zn221	Zn	-0.015917	0.238076	0.476729
	Zn222	Zn	-0.015433	0.487234	0.725732
	Zn223	Zn	-0.016389	0.487789	0.227000
	Zn224	Zn	0.486527	0.738334	-0.023570
	Zn225	Zn	0.486371	0.237763	-0.024716
	Zn226	Zn	0.737173	-0.011659	0.475194
	Zn227	Zn	0.235424	-0.010963	0.475790
	N228	N	0.401322	0.952914	0.654196
	N229	N	0.574988	0.022486	0.657469
	N230	N	0.574558	0.952628	0.294820
	N231	N	0.399660	0.022198	0.295121
	N232	N	0.662537	0.403520	0.939209
	N233	N	0.665819	0.575887	0.012623
	N234	N	0.306876	0.573623	0.940733
	N235	N	0.308677	0.402776	0.012692
	N236	N	0.949823	0.669613	0.387648
	N237	N	0.019457	0.668617	0.563363
	N238	N	0.949851	0.304977	0.566688
	N239	N	0.018883	0.308021	0.389953
	N240	N	0.947197	0.402182	0.655391
	N241	N	0.020581	0.572523	0.653915
	N242	N	0.948470	0.575276	0.295819
	N243	N	0.019311	0.402484	0.298373
	N244	N	0.398622	0.668440	0.941415
	N245	N	0.573108	0.669124	0.012426
	N246	N	0.574601	0.306027	0.941290
	N247	N	0.397680	0.305816	0.009431
	N248	N	0.667866	0.953121	0.387761
	N249	N	0.668450	0.022826	0.563693
	N250	N	0.306015	0.954593	0.562698
	N251	N	0.306219	0.023299	0.388934
	N252	N	0.896621	0.451930	0.157426
	N253	N	0.071340	0.522207	0.156454
	N254	N	0.072674	0.451306	0.795011
	N255	N	0.899102	0.522979	0.797555
	N256	N	0.163869	0.902911	0.440132
	N257	N	0.165327	0.075182	0.512361
	N258	N	0.805471	0.075653	0.439508
	N259	N	0.808930	0.904173	0.511568
	N260	N	0.452069	0.169840	0.886319
	N261	N	0.521302	0.169817	0.064179
	N262	N	0.451488	0.808827	0.062187
	N263	N	0.519663	0.805373	0.886535
	N264	N	0.452192	0.901495	0.155197
	N265	N	0.523010	0.074149	0.155084
	N266	N	0.449792	0.072853	0.797593
	N267	N	0.521715	0.901662	0.796721
	N268	N	0.897332	0.169283	0.440499
	N269	N	0.073890	0.170178	0.511307
	N270	N	0.074452	0.806062	0.441798
	N271	N	0.898002	0.807857	0.509706
	N272	N	0.166472	0.451403	0.888978
	N273	N	0.165210	0.522670	0.063036
	N274	N	0.801513	0.452780	0.065831
	N275	N	0.804158	0.522439	0.889705
	O276	O	0.516383	0.697020	0.679717
	H277	H	0.513048	0.701956	0.681002
	H278	H	0.512282	0.695995	0.691079
	O279	O	0.580421	0.368879	0.600691
	H280	H	0.570473	0.356690	0.598115
	H281	H	0.592712	0.375963	0.592616
	O282	O	0.993661	1.128118	-0.022697
	H283	H	1.001415	1.124277	-0.034949
	H284	H	0.998726	1.126341	-0.024643
	O285	O	0.656583	0.475277	0.517702
	H286	H	0.659219	0.459039	0.520616
	H287	H	0.659537	0.467636	0.537540
	O288	O	-0.032715	-0.010493	-0.222214
	H289	H	-0.018226	0.008174	-0.227868
	H290	H	-0.024079	-0.008211	-0.218182
	O291	O	1.507779	1.628532	0.383083
	H292	H	1.499030	1.631131	0.386889
	H293	H	1.510072	1.626324	0.393067
	O294	O	-0.229987	1.054269	0.033174
	H295	H	-0.228005	1.061245	0.048016
	H296	H	-0.220679	1.043868	0.038701
	O297	O	0.291973	0.277721	0.503043
	H298	H	0.276701	0.285890	0.497166
	H299	H	0.269655	0.277231	0.496001
	O300	O	0.195585	0.782007	0.766453
	H301	H	0.175191	0.770586	0.781947
	H302	H	0.220147	0.749851	0.740961
	O303	O	0.507998	0.694854	0.311701
	H304	H	0.522012	0.690302	0.337175
	H305	H	0.522050	0.710393	0.305358
	O306	O	-0.223554	1.103426	0.858885
	H307	H	-0.230349	1.094822	0.849263
	H308	H	-0.239167	1.103564	0.879677
	O309	O	0.486734	0.495377	0.246586
	H310	H	0.470092	0.495746	0.236484
	H311	H	0.468051	0.499691	0.247997
	O312	O	0.531772	0.291105	0.496840
	H313	H	0.513441	0.296006	0.491740
	H314	H	0.523625	0.293798	0.512470
	O315	O	0.005633	0.198432	0.855718
	H316	H	0.002063	0.178020	0.846306
	H317	H	-0.006977	0.218046	0.836216
	O318	O	-0.229107	0.962859	0.188726
	H319	H	-0.231561	0.975368	0.208695
	H320	H	-0.223464	0.980232	0.210197
	O321	O	0.267461	0.449038	0.438252
	H322	H	0.276934	0.470220	0.436986
	H323	H	0.265180	0.472456	0.423301
	O324	O	0.500884	0.705262	0.339567
	H325	H	0.524568	0.710844	0.346036
	H326	H	0.516074	0.706706	0.352754
	O327	O	0.989987	-0.067681	0.918388
	H328	H	0.998190	-0.075579	0.922122
	H329	H	0.992756	-0.054204	0.925024
	O330	O	0.849065	0.201815	-0.004998
	H331	H	0.837275	0.189503	0.008585
	H332	H	0.859687	0.210156	-0.007465
	O333	O	0.818071	0.794911	1.045312
	H334	H	0.817271	0.820659	1.041571
	H335	H	0.841106	0.790525	1.045023
	O336	O	0.806782	-0.164496	0.781893
	H337	H	0.818223	-0.149655	0.795525
	H338	H	0.816126	-0.151259	0.797618
	O339	O	1.014472	1.197297	1.189582
	H340	H	1.022517	1.204625	1.186761
	H341	H	1.024395	1.212084	1.197072
	O342	O	0.406769	0.498147	0.443882
	H343	H	0.429992	0.506953	0.436970
	H344	H	0.406108	0.476625	0.460136
	O345	O	-0.218327	-0.073067	-0.072314
	H346	H	-0.200630	-0.059017	-0.052895
	H347	H	-0.217866	-0.081550	-0.055760
	O348	O	1.035796	-0.196282	1.033184
	H349	H	1.046409	-0.195076	1.039034
	H350	H	1.040277	-0.198133	1.045033
	O351	O	1.206245	0.949312	0.757961
	H352	H	1.202400	0.908582	0.758102
	H353	H	1.231732	0.937661	0.729099
	O354	O	0.271673	0.441458	0.688892
	H355	H	0.277711	0.401607	0.676477
	H356	H	0.243507	0.442967	0.710585
	O357	O	0.909768	1.056836	1.186292
	H358	H	0.937285	1.063159	1.183312
	H359	H	0.932924	1.063001	1.189685
	O360	O	0.286412	0.679393	0.436149
	H361	H	0.290836	0.681680	0.403150
	H362	H	0.287918	0.682806	0.431188
	O363	O	0.782157	0.194404	0.775214
	H364	H	0.779158	0.185645	0.807618
	H365	H	0.778952	0.164321	0.772666
	O366	O	1.283997	-0.309685	1.309003
	H367	H	1.256437	-0.285798	1.282952
	H368	H	1.330863	-0.305626	1.298555
	O369	O	0.481118	0.385929	0.479235
	H370	H	0.467284	0.393945	0.478116
	H371	H	0.487800	0.381135	0.486916
	O372	O	0.297228	0.293607	0.655698
	H373	H	0.290514	0.292622	0.613209
	H374	H	0.329454	0.278866	0.667385
	O375	O	0.163730	0.810529	1.135705
	H376	H	0.142380	0.823260	1.111022
	H377	H	0.161391	0.826218	1.121069
	O378	O	0.516611	0.461840	0.695371
	H379	H	0.540636	0.464834	0.696569
	H380	H	0.522993	0.464208	0.695210
	O381	O	1.063041	0.025128	-0.094452
	H382	H	1.065024	0.016014	-0.117255
	H383	H	1.046528	0.021225	-0.083848
	O384	O	0.189214	-0.041677	1.023135
	H385	H	0.186374	-0.021645	1.002295
	H386	H	0.185464	-0.043985	1.019218
	O387	O	-0.533169	1.285247	0.676531
	H388	H	-0.522731	1.297998	0.687995
	H389	H	-0.521732	1.276201	0.682200
	O390	O	0.175548	-0.222826	0.964966
	H391	H	0.186868	-0.236116	0.958311
	H392	H	0.170735	-0.225175	0.950337
	O393	O	1.050382	1.093852	-0.162266
	H394	H	1.061451	1.090096	-0.165612
	H395	H	1.049643	1.109286	-0.173335
	O396	O	0.347835	0.479532	0.559712
	H397	H	0.337038	0.470963	0.585119
	H398	H	0.349557	0.495862	0.554782
	O399	O	1.198982	1.017971	1.189959
	H400	H	1.203209	1.036114	1.180417
	H401	H	1.223022	1.034842	1.204345
	O402	O	0.030381	-0.042768	1.129773
	H403	H	0.052090	-0.040944	1.132993
	H404	H	0.047842	-0.047261	1.129924
	O405	O	-0.115824	0.134656	-0.223818
	H406	H	-0.105236	0.149143	-0.245541
	H407	H	-0.149011	0.124331	-0.216024
	O408	O	0.644091	1.308372	1.303956
	H409	H	0.649163	1.342656	1.301556
	H410	H	0.632943	1.315746	1.310974
	O411	O	0.301217	0.676160	0.658923
	H412	H	0.327669	0.648431	0.656762
	H413	H	0.313974	0.674380	0.620619
	O414	O	0.431443	0.582411	0.401237
	H415	H	0.412244	0.585660	0.388306
	H416	H	0.420995	0.586230	0.408171
	O417	O	0.692857	0.700636	0.497715
	H418	H	0.713505	0.700560	0.493240
	H419	H	0.702288	0.684612	0.509486
	O420	O	0.481109	0.296291	0.284540
	H421	H	0.501711	0.291999	0.310625
	H422	H	0.479465	0.319534	0.270013
	O423	O	0.300649	1.294088	0.291747
	H424	H	0.302408	1.310186	0.313927
	H425	H	0.326406	1.295727	0.291269
	O426	O	0.908034	0.791790	0.988900
	H427	H	0.906043	0.786864	0.979737
	H428	H	0.905618	0.793837	1.016171
	O429	O	0.500301	0.544821	0.602832
	H430	H	0.479917	0.512301	0.620845
	H431	H	0.517534	0.532680	0.603493
	O432	O	1.010188	-0.214904	0.760161
	H433	H	1.012170	-0.235669	0.727207
	H434	H	1.015931	-0.196625	0.776321
	O435	O	0.200556	0.198584	0.011178
	H436	H	0.197308	0.188785	0.007414
	H437	H	0.218343	0.208922	0.003508
	O438	O	1.694201	-0.535927	0.270780
	H439	H	1.662645	-0.512543	0.252516
	H440	H	1.718999	-0.534639	0.247906
	O441	O	0.702426	0.523597	0.696214
	H442	H	0.726440	0.538940	0.717577
	H443	H	0.708571	0.545037	0.692863
	O444	O	0.091010	1.038122	1.009511
	H445	H	0.101499	1.047379	1.009300
	H446	H	0.082463	1.034492	1.017327
	O447	O	0.961606	0.860675	0.102520
	H448	H	0.951421	0.861173	0.113222
	H449	H	0.942254	0.855674	0.103194
	O450	O	0.589977	0.530233	0.420473
	H451	H	0.593374	0.504789	0.425454
	H452	H	0.603361	0.515280	0.416557
	O453	O	0.689077	0.308691	0.469674
	H454	H	0.678326	0.312435	0.452800
	H455	H	0.698273	0.288823	0.475264
	O456	O	1.188225	0.189408	0.181214
	H457	H	1.186043	0.185050	0.147338
	H458	H	1.197115	0.210298	0.203937
	O459	O	0.263510	0.520647	0.258517
	H460	H	0.263910	0.559229	0.263202
	H461	H	0.238652	0.522339	0.229221
	O462	O	0.686069	0.688010	0.672281
	H463	H	0.699991	0.716941	0.689795
	H464	H	0.664209	0.687387	0.659353
	O465	O	0.892604	-0.206355	0.085062
	H466	H	0.887720	-0.179270	0.085587
	H467	H	0.894066	-0.207405	0.059724
