data_Molecule from HDF5

_cell_length_a		16.416375
_cell_length_b		16.347202
_cell_length_c		16.345427
_cell_angle_alpha	90.006466
_cell_angle_beta	90.017956
_cell_angle_gamma	90.307948
_symmetry_space_group_name_H-M	'P 1'
_symmetry_Int_Tables_number		1

loop_
	_symmetry_equiv_pos_as_xyz
	x,y,z

loop_
	_atom_site_label
	_atom_site_type_symbol
	_atom_site_fract_x
	_atom_site_fract_y
	_atom_site_fract_z
	H0	H	0.389784	0.847983	0.719922
	H1	H	0.593841	0.170232	0.718733
	H2	H	0.594377	0.849012	0.283180
	H3	H	0.392876	0.171471	0.283919
	H4	H	0.713089	0.406836	0.839647
	H5	H	0.715776	0.614440	0.160122
	H6	H	0.277886	0.611892	0.839973
	H7	H	0.273720	0.403769	0.160623
	H8	H	0.835045	0.728470	0.397429
	H9	H	0.156168	0.729456	0.602245
	H10	H	0.837278	0.288588	0.606590
	H11	H	0.155188	0.290501	0.397000
	H12	H	0.836704	0.406292	0.720409
	H13	H	0.157293	0.612881	0.718370
	H14	H	0.836397	0.613848	0.279841
	H15	H	0.155272	0.405999	0.280935
	H16	H	0.395557	0.726597	0.839620
	H17	H	0.598888	0.728314	0.161525
	H18	H	0.594504	0.292135	0.838998
	H19	H	0.391159	0.290914	0.162146
	H20	H	0.712045	0.849386	0.398002
	H21	H	0.714567	0.168701	0.608091
	H22	H	0.274932	0.847785	0.602225
	H23	H	0.276426	0.170898	0.398786
	H24	H	0.891322	0.348972	0.220075
	H25	H	0.100443	0.670786	0.219879
	H26	H	0.097421	0.348982	0.783094
	H27	H	0.898077	0.672161	0.785177
	H28	H	0.210907	0.909154	0.339316
	H29	H	0.213875	0.112465	0.662132
	H30	H	0.774682	0.112594	0.341513
	H31	H	0.774219	0.904285	0.661622
	H32	H	0.333790	0.227488	0.899271
	H33	H	0.655020	0.228464	0.103877
	H34	H	0.334033	0.789501	0.102289
	H35	H	0.656165	0.792640	0.898104
	H36	H	0.332110	0.908297	0.217243
	H37	H	0.654711	0.112975	0.220457
	H38	H	0.332246	0.109957	0.784681
	H39	H	0.653965	0.907351	0.780844
	H40	H	0.892215	0.228120	0.340863
	H41	H	0.097521	0.228172	0.662701
	H42	H	0.095901	0.792748	0.339172
	H43	H	0.892663	0.790570	0.662046
	H44	H	0.212799	0.348534	0.897399
	H45	H	0.216110	0.669966	0.102790
	H46	H	0.775699	0.348904	0.103690
	H47	H	0.778419	0.670699	0.896246
	H48	H	0.404522	0.122310	0.590508
	H49	H	0.583212	0.895919	0.586557
	H50	H	0.590891	0.125451	0.413766
	H51	H	0.393963	0.894398	0.415996
	H52	H	0.587693	0.422108	0.115139
	H53	H	0.589226	0.600338	0.884957
	H54	H	0.405990	0.593443	0.113662
	H55	H	0.410068	0.419996	0.889257
	H56	H	0.109050	0.603259	0.412253
	H57	H	0.884390	0.594239	0.591267
	H58	H	0.113887	0.418729	0.599731
	H59	H	0.884362	0.418176	0.417458
	H60	H	0.110029	0.413051	0.586213
	H61	H	0.879521	0.600944	0.599600
	H62	H	0.108503	0.599323	0.411371
	H63	H	0.883356	0.425789	0.410115
	H64	H	0.409710	0.601266	0.114229
	H65	H	0.585077	0.598754	0.887167
	H66	H	0.583316	0.419530	0.113755
	H67	H	0.402671	0.411744	0.883655
	H68	H	0.582832	0.125118	0.406261
	H69	H	0.586404	0.893088	0.592981
	H70	H	0.400090	0.124975	0.592105
	H71	H	0.401478	0.892550	0.401182
	H72	H	0.912168	0.619420	0.083126
	H73	H	0.084652	0.395452	0.091060
	H74	H	0.090569	0.625221	0.910368
	H75	H	0.909577	0.396763	0.910010
	H76	H	0.085158	0.915504	0.616881
	H77	H	0.080903	0.098884	0.388107
	H78	H	0.904843	0.089877	0.613295
	H79	H	0.901970	0.916309	0.385594
	H80	H	0.607841	0.099921	0.911110
	H81	H	0.381596	0.092941	0.094048
	H82	H	0.607395	0.919467	0.091537
	H83	H	0.380556	0.918534	0.910158
	H84	H	0.608314	0.920622	0.093766
	H85	H	0.376635	0.104580	0.097547
	H86	H	0.608041	0.100063	0.909321
	H87	H	0.380521	0.915387	0.911138
	H88	H	0.911688	0.104129	0.614380
	H89	H	0.086418	0.104838	0.384977
	H90	H	0.089027	0.923979	0.615586
	H91	H	0.899520	0.922061	0.387195
	H92	H	0.087068	0.625600	0.907755
	H93	H	0.083353	0.396473	0.090011
	H94	H	0.896982	0.625606	0.087567
	H95	H	0.901657	0.395534	0.915600
	H96	H	0.404198	0.124887	0.595520
	H97	H	0.579320	0.895920	0.593261
	H98	H	0.580937	0.121470	0.416455
	H99	H	0.410412	0.898128	0.413538
	H100	H	0.586670	0.417531	0.116636
	H101	H	0.585441	0.602704	0.885537
	H102	H	0.401731	0.600003	0.116669
	H103	H	0.399181	0.423207	0.885995
	H104	H	0.110681	0.601907	0.409433
	H105	H	0.881564	0.605952	0.588571
	H106	H	0.107584	0.427636	0.589252
	H107	H	0.879722	0.416173	0.407798
	H108	H	0.910020	0.625274	0.098532
	H109	H	0.085358	0.396300	0.089232
	H110	H	0.086498	0.623564	0.911485
	H111	H	0.901190	0.393251	0.906136
	H112	H	0.080085	0.922172	0.612439
	H113	H	0.089187	0.096523	0.387227
	H114	H	0.896959	0.102348	0.619786
	H115	H	0.906569	0.920459	0.387891
	H116	H	0.607290	0.100977	0.910471
	H117	H	0.381616	0.102719	0.085098
	H118	H	0.608319	0.918358	0.093248
	H119	H	0.381160	0.917502	0.913130
	C120	C	0.371360	0.017520	0.623159
	C121	C	0.614470	1.000617	0.622899
	C122	C	0.615008	0.017978	0.380615
	C123	C	0.371998	1.001460	0.379660
	C124	C	0.615961	0.388688	0.008847
	C125	C	0.617974	0.631873	0.991914
	C126	C	0.374950	0.629596	0.008977
	C127	C	0.372921	0.387234	0.992490
	C128	C	0.003903	0.632107	0.379167
	C129	C	0.987657	0.632087	0.623400
	C130	C	0.004950	0.388397	0.623126
	C131	C	0.987680	0.388596	0.379843
	C132	C	0.873998	0.517891	0.122136
	C133	C	0.116684	0.501819	0.121871
	C134	C	0.117961	0.518274	0.879130
	C135	C	0.874665	0.501682	0.879172
	C136	C	0.115566	0.889139	0.508845
	C137	C	0.116663	0.131314	0.493026
	C138	C	0.873031	0.130731	0.510172
	C139	C	0.872318	0.887978	0.492775
	C140	C	0.501701	0.130513	0.880126
	C141	C	0.485790	0.131297	0.123003
	C142	C	0.502252	0.887969	0.123172
	C143	C	0.486625	0.887324	0.879709
	C144	C	0.370954	0.896351	0.680814
	C145	C	0.613940	0.121913	0.680496
	C146	C	0.614214	0.897122	0.322235
	C147	C	0.372687	0.122806	0.322156
	C148	C	0.673786	0.387692	0.887847
	C149	C	0.676542	0.632749	0.112291
	C150	C	0.317137	0.630595	0.887894
	C151	C	0.313751	0.385993	0.112791
	C152	C	0.883271	0.689506	0.378395
	C153	C	0.108041	0.691009	0.622751
	C154	C	0.884973	0.328868	0.624761
	C155	C	0.107523	0.329991	0.378687
	C156	C	0.884732	0.387249	0.681662
	C157	C	0.108890	0.632368	0.679902
	C158	C	0.884013	0.632471	0.319892
	C159	C	0.107438	0.387614	0.320635
	C160	C	0.375530	0.687699	0.887658
	C161	C	0.618204	0.689560	0.113129
	C162	C	0.614630	0.330874	0.887499
	C163	C	0.372360	0.329556	0.113669
	C164	C	0.672461	0.897220	0.379545
	C165	C	0.674223	0.121016	0.625627
	C166	C	0.313521	0.896178	0.622575
	C167	C	0.315027	0.122600	0.379395
	C168	C	0.872566	0.397314	0.181086
	C169	C	0.118887	0.622484	0.180556
	C170	C	0.117214	0.397228	0.821295
	C171	C	0.876987	0.623169	0.822495
	C172	C	0.172580	0.889562	0.387687
	C173	C	0.174630	0.131658	0.614017
	C174	C	0.814184	0.131712	0.389503
	C175	C	0.813995	0.886068	0.613668
	C176	C	0.381376	0.187999	0.880409
	C177	C	0.606851	0.189547	0.123276
	C178	C	0.381700	0.828957	0.122287
	C179	C	0.607716	0.831132	0.879013
	C180	C	0.380956	0.887820	0.179683
	C181	C	0.606748	0.131840	0.181120
	C182	C	0.380749	0.129448	0.823094
	C183	C	0.606353	0.887716	0.820171
	C184	C	0.872873	0.188985	0.389142
	C185	C	0.116959	0.189347	0.614108
	C186	C	0.115138	0.831696	0.387551
	C187	C	0.872740	0.829385	0.613786
	C188	C	0.174499	0.397037	0.878619
	C189	C	0.176720	0.622083	0.122668
	C190	C	0.814765	0.397255	0.123286
	C191	C	0.817389	0.622566	0.878116
	C192	C	0.395686	0.101965	0.599381
	C193	C	0.589960	0.916801	0.598141
	C194	C	0.591600	0.102157	0.405082
	C195	C	0.395220	0.917123	0.403360
	C196	C	0.592731	0.412996	0.093395
	C197	C	0.593543	0.607752	0.907716
	C198	C	0.398876	0.605450	0.092917
	C199	C	0.396962	0.411424	0.908182
	C200	C	0.087617	0.608456	0.403819
	C201	C	0.903637	0.607536	0.599769
	C202	C	0.088731	0.412894	0.598784
	C203	C	0.904166	0.413021	0.404601
	C204	C	0.899119	0.601557	0.097089
	C205	C	0.091571	0.418042	0.097455
	C206	C	0.094923	0.602988	0.903111
	C207	C	0.897498	0.417096	0.903448
	C208	C	0.091534	0.913431	0.593132
	C209	C	0.092584	0.107070	0.408830
	C210	C	0.897337	0.105977	0.593968
	C211	C	0.895822	0.912527	0.408743
	C212	C	0.585893	0.106984	0.903624
	C213	C	0.401780	0.107195	0.099193
	C214	C	0.586173	0.912450	0.099605
	C215	C	0.402588	0.910301	0.904502
	Zn216	Zn	0.493094	0.009026	0.751453
	Zn217	Zn	0.493500	0.010458	0.251719
	Zn218	Zn	0.745894	0.509970	0.000394
	Zn219	Zn	0.245674	0.508848	0.000169
	Zn220	Zn	-0.005147	0.760034	0.501052
	Zn221	Zn	-0.004598	0.259561	0.501456
	Zn222	Zn	-0.003017	0.509804	0.751569
	Zn223	Zn	-0.004392	0.510257	0.250962
	Zn224	Zn	0.495815	0.758760	0.000713
	Zn225	Zn	0.494654	0.259733	0.001326
	Zn226	Zn	0.743417	0.009370	0.502174
	Zn227	Zn	0.244349	0.009667	0.500882
	N228	N	0.405902	0.972953	0.681455
	N229	N	0.577518	0.046078	0.679034
	N230	N	0.579244	0.973236	0.322891
	N231	N	0.407501	0.046519	0.322230
	N232	N	0.674598	0.423093	0.964228
	N233	N	0.676521	0.597526	0.035886
	N234	N	0.316779	0.595117	0.964215
	N235	N	0.314143	0.421195	0.036385
	N236	N	0.958810	0.689401	0.414578
	N237	N	0.031652	0.690941	0.588341
	N238	N	0.960668	0.329296	0.589033
	N239	N	0.031917	0.330393	0.414792
	N240	N	0.960378	0.423619	0.680692
	N241	N	0.033055	0.596306	0.680324
	N242	N	0.960003	0.597626	0.320261
	N243	N	0.031823	0.423398	0.321268
	N244	N	0.410771	0.687168	0.963840
	N245	N	0.582732	0.689137	0.037082
	N246	N	0.579633	0.331357	0.963930
	N247	N	0.408259	0.330028	0.037759
	N248	N	0.673161	0.973433	0.415058
	N249	N	0.674601	0.044643	0.590339
	N250	N	0.313928	0.972620	0.587321
	N251	N	0.314449	0.046179	0.414483
	N252	N	0.908353	0.473459	0.180767
	N253	N	0.082564	0.546669	0.180293
	N254	N	0.082793	0.473612	0.821593
	N255	N	0.911873	0.546900	0.822952
	N256	N	0.172863	0.924519	0.464168
	N257	N	0.174718	0.096490	0.537613
	N258	N	0.814116	0.096294	0.465916
	N259	N	0.813461	0.921618	0.537422
	N260	N	0.457699	0.188773	0.915072
	N261	N	0.530804	0.189221	0.087796
	N262	N	0.458387	0.828309	0.088301
	N263	N	0.532169	0.830774	0.915235
	N264	N	0.456853	0.923635	0.180329
	N265	N	0.530567	0.096467	0.181199
	N266	N	0.456636	0.094342	0.823001
	N267	N	0.530003	0.921905	0.820521
	N268	N	0.908454	0.188757	0.465210
	N269	N	0.081736	0.189237	0.537816
	N270	N	0.080226	0.831539	0.463899
	N271	N	0.908318	0.830231	0.537682
	N272	N	0.175284	0.473536	0.913467
	N273	N	0.175629	0.545942	0.087028
	N274	N	0.815369	0.473373	0.087522
	N275	N	0.815762	0.545731	0.912478
	O276	O	0.597231	0.580919	0.348081
	H277	H	0.605165	0.564433	0.338673
	H278	H	0.589699	0.580935	0.348485
	O279	O	1.156414	-0.070172	-0.201699
	H280	H	1.150337	-0.099214	-0.203311
	H281	H	1.169868	-0.076936	-0.216838
	O282	O	0.337381	0.585583	0.407195
	H283	H	0.344894	0.592605	0.410580
	H284	H	0.325757	0.582405	0.408858
	O285	O	0.997572	0.181663	-0.029795
	H286	H	1.000960	0.173010	-0.027898
	H287	H	1.003587	0.193059	-0.067675
	O288	O	-0.006683	0.075853	0.917211
	H289	H	-0.006308	0.079892	0.914927
	H290	H	0.000937	0.072641	0.910999
	O291	O	0.438023	0.364129	0.473111
	H292	H	0.447604	0.357688	0.478207
	H293	H	0.423862	0.369011	0.472503
	O294	O	0.457959	0.596874	0.594125
	H295	H	0.456888	0.588703	0.588738
	H296	H	0.464830	0.590498	0.588710
	O297	O	1.108227	0.995485	0.969367
	H298	H	1.100339	0.986280	0.958792
	H299	H	1.098167	0.986319	0.953441
	O300	O	-0.084933	0.053434	-0.076947
	H301	H	-0.097729	0.056208	-0.086507
	H302	H	-0.082423	0.059080	-0.069775
	O303	O	0.358254	0.651998	0.310272
	H304	H	0.357662	0.663006	0.315048
	H305	H	0.350599	0.658542	0.304807
	O306	O	0.878134	-0.002105	0.029039
	H307	H	0.894036	0.004200	0.031552
	H308	H	0.875108	0.007174	0.019050
	O309	O	0.489090	0.676294	0.570319
	H310	H	0.488577	0.670539	0.585378
	H311	H	0.481707	0.678187	0.573905
	O312	O	0.544276	1.604313	-0.563589
	H313	H	0.538305	1.589514	-0.563575
	H314	H	0.540324	1.609789	-0.552893
	O315	O	0.569392	0.462088	0.306789
	H316	H	0.558766	0.453336	0.300270
	H317	H	0.574938	0.460222	0.296600
	O318	O	0.420477	0.441346	0.307870
	H319	H	0.425357	0.454770	0.295908
	H320	H	0.404583	0.445886	0.297318
	O321	O	0.801151	-0.089130	0.974249
	H322	H	0.797714	-0.089584	0.985221
	H323	H	0.798394	-0.086185	0.981140
	O324	O	0.056473	0.015361	0.991350
	H325	H	0.055648	0.007396	1.000063
	H326	H	0.067536	0.014589	1.015388
	O327	O	0.534859	0.531882	0.576254
	H328	H	0.525276	0.541561	0.592767
	H329	H	0.545588	0.542291	0.585289
	O330	O	0.658475	0.322211	0.330912
	H331	H	0.640924	0.315964	0.333146
	H332	H	0.665720	0.326490	0.332560
	O333	O	0.797294	0.824135	1.139901
	H334	H	0.811846	0.824308	1.143392
	H335	H	0.785663	0.816183	1.150041
	O336	O	0.682322	0.315254	0.481107
	H337	H	0.700981	0.292127	0.473885
	H338	H	0.672101	0.325147	0.475073
	O339	O	1.374876	-0.402309	1.418894
	H340	H	1.352745	-0.402214	1.419270
	H341	H	1.388632	-0.411182	1.438717
	O342	O	0.048283	1.067672	0.898687
	H343	H	0.052492	1.064609	0.898422
	H344	H	0.064399	1.055841	0.905308
	O345	O	0.021248	0.952181	0.870031
	H346	H	0.017077	0.953609	0.878363
	H347	H	0.000168	0.956955	0.870373
	O348	O	0.974716	0.033870	1.118367
	H349	H	0.960543	0.035487	1.123641
	H350	H	0.976751	0.029565	1.107416
	O351	O	-0.158576	0.015945	-0.162584
	H352	H	-0.146133	0.027278	-0.156924
	H353	H	-0.174292	0.021431	-0.166170
	O354	O	1.002505	0.982721	0.095358
	H355	H	0.994157	0.980354	0.098977
	H356	H	1.003273	0.988091	0.099021
	O357	O	0.018224	1.007186	0.032362
	H358	H	0.015393	1.004290	0.037455
	H359	H	0.027962	1.005358	0.022837
	O360	O	0.686035	0.536919	0.631104
	H361	H	0.692375	0.523320	0.612628
	H362	H	0.709290	0.548152	0.656718
	O363	O	-0.064372	-0.172048	0.201369
	H364	H	-0.056277	-0.183173	0.210865
	H365	H	-0.063837	-0.172737	0.196963
	O366	O	0.106084	1.128020	-0.016863
	H367	H	0.114301	1.116488	-0.018255
	H368	H	0.090608	1.113946	-0.017374
	O369	O	0.622746	0.349490	0.618482
	H370	H	0.608609	0.341384	0.601576
	H371	H	0.627629	0.361404	0.609905
	O372	O	0.406804	0.385754	0.450932
	H373	H	0.405081	0.397434	0.436414
	H374	H	0.407338	0.381295	0.444700
	O375	O	0.662754	0.578759	0.404196
	H376	H	0.684400	0.590550	0.409650
	H377	H	0.661563	0.579573	0.414591
	O378	O	0.365374	0.345911	0.694255
	H379	H	0.356494	0.342206	0.681995
	H380	H	0.389837	0.344557	0.691276
	O381	O	0.297057	0.332535	0.548055
	H382	H	0.280297	0.308398	0.539454
	H383	H	0.307822	0.336537	0.545383
	O384	O	-0.196817	1.010597	0.922091
	H385	H	-0.212224	1.006418	0.930634
	H386	H	-0.201510	1.034131	0.919315
	O387	O	1.355100	0.663771	-0.562640
	H388	H	1.351070	0.662722	-0.567361
	H389	H	1.372977	0.660125	-0.553396
	O390	O	0.532262	0.546669	0.594215
	H391	H	0.531889	0.552283	0.588076
	H392	H	0.540631	0.549874	0.594726
	O393	O	1.143797	-0.100482	0.839962
	H394	H	1.142566	-0.112968	0.840541
	H395	H	1.134284	-0.117826	0.835189
	O396	O	-0.121278	0.974545	1.141373
	H397	H	-0.115534	0.958165	1.149395
	H398	H	-0.127839	0.947825	1.148532
	O399	O	0.513521	0.700576	0.683059
	H400	H	0.505471	0.702161	0.676369
	H401	H	0.515821	0.703759	0.679106
	O402	O	0.919669	0.070628	0.962381
	H403	H	0.918215	0.073577	0.959604
	H404	H	0.924533	0.074524	0.960101
	O405	O	0.522560	-0.665001	0.639263
	H406	H	0.530311	-0.661247	0.641616
	H407	H	0.509045	-0.669952	0.626928
	O408	O	1.027318	1.162514	1.147657
	H409	H	1.039103	1.151870	1.134583
	H410	H	1.016238	1.173452	1.153420
	O411	O	0.571390	0.430835	0.488412
	H412	H	0.572518	0.429862	0.481841
	H413	H	0.588604	0.438793	0.495463
	O414	O	0.082270	-0.045733	1.043441
	H415	H	0.078284	-0.041960	1.044272
	H416	H	0.085614	-0.025772	1.047355
	O417	O	0.322386	0.537978	0.688783
	H418	H	0.319745	0.522287	0.686374
	H419	H	0.336234	0.513063	0.691611
	O420	O	0.672233	1.648717	-0.323595
	H421	H	0.668789	1.635324	-0.328484
	H422	H	0.658242	1.660712	-0.322260
	O423	O	1.151221	0.083409	0.163799
	H424	H	1.150336	0.070023	0.152430
	H425	H	1.166755	0.096188	0.158182
	O426	O	0.008705	0.043978	1.107610
	H427	H	0.015179	0.044045	1.109233
	H428	H	0.011143	0.044211	1.101487
	O429	O	0.478806	0.620820	0.393711
	H430	H	0.475732	0.625194	0.394465
	H431	H	0.467686	0.611277	0.390324
