data_Molecule from HDF5

_cell_length_a		16.562059
_cell_length_b		16.538894
_cell_length_c		16.566606
_cell_angle_alpha	89.831952
_cell_angle_beta	89.863219
_cell_angle_gamma	90.053957
_symmetry_space_group_name_H-M	'P 1'
_symmetry_Int_Tables_number		1

loop_
	_symmetry_equiv_pos_as_xyz
	x,y,z

loop_
	_atom_site_label
	_atom_site_type_symbol
	_atom_site_fract_x
	_atom_site_fract_y
	_atom_site_fract_z
	H0	H	0.381633	0.857712	0.718353
	H1	H	0.592832	0.172013	0.718839
	H2	H	0.589642	0.858350	0.275803
	H3	H	0.381528	0.172862	0.276962
	H4	H	0.705020	0.413315	0.839240
	H5	H	0.707149	0.619286	0.154607
	H6	H	0.265558	0.622530	0.839624
	H7	H	0.265680	0.413535	0.153022
	H8	H	0.827450	0.735921	0.392327
	H9	H	0.142971	0.731666	0.596710
	H10	H	0.828027	0.293018	0.602490
	H11	H	0.140339	0.293902	0.391680
	H12	H	0.827576	0.410285	0.717664
	H13	H	0.143955	0.613725	0.712127
	H14	H	0.828747	0.621641	0.273881
	H15	H	0.140189	0.410403	0.274458
	H16	H	0.382329	0.738556	0.840694
	H17	H	0.589807	0.735524	0.155832
	H18	H	0.590356	0.296304	0.838969
	H19	H	0.380307	0.295744	0.153018
	H20	H	0.705754	0.857706	0.391769
	H21	H	0.708514	0.172012	0.601065
	H22	H	0.264387	0.857879	0.603335
	H23	H	0.266285	0.172885	0.395553
	H24	H	0.877608	0.360972	0.222074
	H25	H	0.090152	0.673546	0.216824
	H26	H	0.085267	0.356348	0.781443
	H27	H	0.885781	0.673356	0.779176
	H28	H	0.206483	0.911557	0.340012
	H29	H	0.205177	0.118966	0.652922
	H30	H	0.763721	0.120874	0.339732
	H31	H	0.763024	0.908584	0.652384
	H32	H	0.329949	0.238695	0.889456
	H33	H	0.641751	0.237325	0.100439
	H34	H	0.328777	0.794460	0.102265
	H35	H	0.644344	0.799284	0.896683
	H36	H	0.327891	0.910589	0.218164
	H37	H	0.641814	0.120710	0.217409
	H38	H	0.330571	0.122917	0.773710
	H39	H	0.643966	0.913944	0.777849
	H40	H	0.876443	0.240001	0.341162
	H41	H	0.089682	0.236108	0.652290
	H42	H	0.088302	0.796713	0.338639
	H43	H	0.881762	0.795100	0.653558
	H44	H	0.202588	0.357427	0.896480
	H45	H	0.206073	0.673703	0.099414
	H46	H	0.760977	0.359887	0.105521
	H47	H	0.767798	0.672813	0.894656
	H48	H	0.399918	0.123215	0.578037
	H49	H	0.578009	0.903911	0.581682
	H50	H	0.575929	0.127383	0.408220
	H51	H	0.402024	0.903567	0.403758
	H52	H	0.577304	0.432869	0.107755
	H53	H	0.577362	0.605886	0.885936
	H54	H	0.390584	0.606587	0.110813
	H55	H	0.392904	0.426832	0.881957
	H56	H	0.096924	0.609353	0.409748
	H57	H	0.870922	0.609150	0.585043
	H58	H	0.092596	0.429776	0.578325
	H59	H	0.872828	0.435596	0.401249
	H60	H	0.099260	0.429525	0.598158
	H61	H	0.873112	0.600816	0.585577
	H62	H	0.095236	0.601079	0.406962
	H63	H	0.870333	0.418772	0.410599
	H64	H	0.396327	0.599246	0.107228
	H65	H	0.574483	0.607310	0.886498
	H66	H	0.566019	0.426591	0.105572
	H67	H	0.396998	0.428735	0.884947
	H68	H	0.574435	0.127893	0.404441
	H69	H	0.575137	0.901693	0.591788
	H70	H	0.386271	0.130702	0.585523
	H71	H	0.395725	0.904486	0.414444
	H72	H	0.896762	0.629426	0.090899
	H73	H	0.082417	0.400275	0.088449
	H74	H	0.086082	0.634914	0.895238
	H75	H	0.898374	0.401892	0.903995
	H76	H	0.072613	0.921509	0.610351
	H77	H	0.072274	0.104580	0.384320
	H78	H	0.896483	0.101468	0.607399
	H79	H	0.894967	0.931457	0.385519
	H80	H	0.596152	0.104739	0.909364
	H81	H	0.372564	0.111768	0.082146
	H82	H	0.596599	0.927173	0.085054
	H83	H	0.373210	0.928051	0.903915
	H84	H	0.598081	0.929175	0.088916
	H85	H	0.375496	0.098587	0.083813
	H86	H	0.597737	0.103976	0.906683
	H87	H	0.372662	0.922258	0.908878
	H88	H	0.897788	0.101222	0.606463
	H89	H	0.075888	0.104538	0.383182
	H90	H	0.077935	0.919951	0.611106
	H91	H	0.901340	0.922324	0.384743
	H92	H	0.067366	0.628943	0.898057
	H93	H	0.066656	0.404820	0.091118
	H94	H	0.906267	0.622894	0.080591
	H95	H	0.893483	0.402292	0.911038
	H96	H	0.401084	0.128070	0.594269
	H97	H	0.568293	0.906578	0.585153
	H98	H	0.572378	0.126045	0.407742
	H99	H	0.389806	0.900044	0.404340
	H100	H	0.575863	0.420480	0.110991
	H101	H	0.577000	0.609392	0.884941
	H102	H	0.400141	0.608505	0.108614
	H103	H	0.397258	0.423790	0.883087
	H104	H	0.099140	0.607044	0.401187
	H105	H	0.870163	0.605041	0.592569
	H106	H	0.101221	0.412299	0.586916
	H107	H	0.878306	0.433861	0.419551
	H108	H	0.891206	0.625565	0.076833
	H109	H	0.073482	0.408021	0.076897
	H110	H	0.080795	0.628014	0.913257
	H111	H	0.890301	0.398825	0.904035
	H112	H	0.077153	0.924998	0.609527
	H113	H	0.074850	0.101524	0.385838
	H114	H	0.897911	0.102872	0.606989
	H115	H	0.890682	0.922313	0.380720
	H116	H	0.598480	0.106562	0.908045
	H117	H	0.370857	0.105815	0.094071
	H118	H	0.598777	0.924840	0.088298
	H119	H	0.375431	0.928791	0.911539
	C120	C	0.364202	0.023576	0.618681
	C121	C	0.606656	1.007709	0.617642
	C122	C	0.606446	0.023426	0.374950
	C123	C	0.364423	1.007018	0.376441
	C124	C	0.605785	0.394979	0.004678
	C125	C	0.607876	0.637796	0.989889
	C126	C	0.364593	0.637318	0.005183
	C127	C	0.363492	0.394312	0.986901
	C128	C	-0.006646	0.637910	0.373936
	C129	C	0.976590	0.634706	0.617115
	C130	C	-0.006603	0.392475	0.619133
	C131	C	0.976263	0.395838	0.376771
	C132	C	0.864010	0.523588	0.117508
	C133	C	0.106390	0.508313	0.117445
	C134	C	0.107302	0.525144	0.874373
	C135	C	0.863997	0.505935	0.875439
	C136	C	0.107280	0.892427	0.505689
	C137	C	0.105827	0.135497	0.488044
	C138	C	0.863973	0.135659	0.504380
	C139	C	0.863794	0.893433	0.487455
	C140	C	0.494334	0.137529	0.875129
	C141	C	0.476759	0.137304	0.117954
	C142	C	0.494076	0.894448	0.119234
	C143	C	0.477850	0.895495	0.876876
	C144	C	0.362851	0.904997	0.678413
	C145	C	0.610045	0.125244	0.678055
	C146	C	0.608263	0.905359	0.315469
	C147	C	0.362982	0.125682	0.317097
	C148	C	0.665673	0.393881	0.886478
	C149	C	0.666894	0.638340	0.107889
	C150	C	0.305526	0.640592	0.886952
	C151	C	0.304865	0.393970	0.105645
	C152	C	0.874889	0.696681	0.373212
	C153	C	0.095872	0.692126	0.616346
	C154	C	0.875058	0.333077	0.620843
	C155	C	0.093689	0.334599	0.373460
	C156	C	0.875138	0.391108	0.678414
	C157	C	0.096281	0.633685	0.673566
	C158	C	0.875393	0.640009	0.314303
	C159	C	0.093608	0.392323	0.315243
	C160	C	0.363699	0.698071	0.887430
	C161	C	0.608873	0.696226	0.108357
	C162	C	0.608267	0.335858	0.886455
	C163	C	0.361810	0.335248	0.105555
	C164	C	0.665989	0.905061	0.373167
	C165	C	0.667852	0.125221	0.619862
	C166	C	0.304419	0.905230	0.621347
	C167	C	0.305672	0.125633	0.375870
	C168	C	0.859766	0.406939	0.180509
	C169	C	0.108380	0.626354	0.176871
	C170	C	0.105609	0.404395	0.819460
	C171	C	0.865070	0.625425	0.817657
	C172	C	0.166594	0.892203	0.387128
	C173	C	0.165233	0.137432	0.606017
	C174	C	0.803200	0.139487	0.386945
	C175	C	0.803440	0.890531	0.605434
	C176	C	0.377009	0.198455	0.871789
	C177	C	0.594884	0.197127	0.119368
	C178	C	0.375782	0.834524	0.120782
	C179	C	0.597067	0.838190	0.876961
	C180	C	0.375390	0.892126	0.178503
	C181	C	0.594788	0.139430	0.177563
	C182	C	0.377444	0.141200	0.813740
	C183	C	0.596791	0.895203	0.818135
	C184	C	0.859426	0.198702	0.387737
	C185	C	0.107962	0.195723	0.605661
	C186	C	0.107971	0.835180	0.386329
	C187	C	0.862264	0.833853	0.605850
	C188	C	0.163779	0.404920	0.876644
	C189	C	0.165916	0.626661	0.118459
	C190	C	0.801768	0.406590	0.122902
	C191	C	0.806685	0.625289	0.875061
	C192	C	0.388740	0.105877	0.593394
	C193	C	0.581103	0.925300	0.593030
	C194	C	0.581582	0.105764	0.399806
	C195	C	0.388998	0.924180	0.400562
	C196	C	0.580353	0.419737	0.086745
	C197	C	0.583408	0.614145	0.907161
	C198	C	0.388699	0.611759	0.087575
	C199	C	0.388563	0.419297	0.904647
	C200	C	0.075598	0.612869	0.398688
	C201	C	0.893257	0.611556	0.594345
	C202	C	0.076143	0.416770	0.594526
	C203	C	0.894999	0.421907	0.403059
	C204	C	0.890517	0.604840	0.090580
	C205	C	0.081355	0.425846	0.092713
	C206	C	0.084775	0.608833	0.896034
	C207	C	0.887130	0.422764	0.899478
	C208	C	0.083087	0.915428	0.588585
	C209	C	0.081251	0.110494	0.405850
	C210	C	0.890017	0.109422	0.585781
	C211	C	0.888558	0.918220	0.405107
	C212	C	0.576260	0.112217	0.900699
	C213	C	0.394521	0.112514	0.093686
	C214	C	0.576240	0.919848	0.094516
	C215	C	0.395223	0.919416	0.901144
	Zn216	Zn	0.485424	0.015758	0.747084
	Zn217	Zn	0.485086	0.015552	0.246885
	Zn218	Zn	0.735520	0.515122	-0.002682
	Zn219	Zn	0.235195	0.516854	-0.004549
	Zn220	Zn	-0.014999	0.764752	0.496584
	Zn221	Zn	-0.015299	0.264798	0.496521
	Zn222	Zn	-0.014642	0.514610	0.746736
	Zn223	Zn	-0.015002	0.516110	0.246370
	Zn224	Zn	0.485856	0.766232	-0.001824
	Zn225	Zn	0.485271	0.266002	-0.003667
	Zn226	Zn	0.735335	0.014896	0.496073
	Zn227	Zn	0.234936	0.014758	0.497371
	N228	N	0.399051	0.979672	0.677040
	N229	N	0.572943	0.050948	0.676865
	N230	N	0.572118	0.979989	0.316267
	N231	N	0.398726	0.050842	0.317354
	N232	N	0.664350	0.430002	0.960955
	N233	N	0.666341	0.602938	0.033086
	N234	N	0.306136	0.603284	0.961148
	N235	N	0.305611	0.429899	0.030795
	N236	N	0.949436	0.695733	0.409498
	N237	N	0.020558	0.693010	0.581909
	N238	N	0.949888	0.333659	0.584790
	N239	N	0.019736	0.336406	0.410816
	N240	N	0.949862	0.427041	0.677731
	N241	N	0.020937	0.598872	0.674300
	N242	N	0.950102	0.604230	0.314829
	N243	N	0.019692	0.429634	0.317088
	N244	N	0.400003	0.696004	0.961912
	N245	N	0.572878	0.696226	0.033831
	N246	N	0.571703	0.336372	0.961127
	N247	N	0.397543	0.335216	0.030652
	N248	N	0.664978	0.979730	0.409557
	N249	N	0.665905	0.050972	0.583028
	N250	N	0.304955	0.979969	0.584858
	N251	N	0.306411	0.050769	0.411939
	N252	N	0.897836	0.480558	0.177226
	N253	N	0.072022	0.551626	0.176357
	N254	N	0.071404	0.480067	0.817729
	N255	N	0.899628	0.550019	0.817402
	N256	N	0.166485	0.926837	0.462427
	N257	N	0.163772	0.100403	0.531988
	N258	N	0.805505	0.101371	0.460640
	N259	N	0.804029	0.926675	0.530670
	N260	N	0.450811	0.196311	0.909255
	N261	N	0.520311	0.196224	0.083399
	N262	N	0.450681	0.835551	0.084897
	N263	N	0.522077	0.837903	0.912531
	N264	N	0.449943	0.928599	0.177738
	N265	N	0.520252	0.103036	0.177005
	N266	N	0.451394	0.103841	0.815712
	N267	N	0.521493	0.929801	0.817661
	N268	N	0.896326	0.196724	0.461901
	N269	N	0.071480	0.194615	0.531338
	N270	N	0.071970	0.834983	0.461059
	N271	N	0.898922	0.835284	0.531393
	N272	N	0.165393	0.481033	0.909645
	N273	N	0.165004	0.551969	0.082380
	N274	N	0.804375	0.480073	0.084273
	N275	N	0.805675	0.549802	0.910022
	O276	O	0.956124	0.224203	-1.216194
	H277	H	0.964399	0.224567	-1.212277
	H278	H	0.950834	0.239841	-1.230065
	O279	O	0.186473	-0.061697	1.083930
	H280	H	0.195259	-0.051561	1.101090
	H281	H	0.174257	-0.043501	1.090371
	O282	O	0.129576	0.823073	0.107325
	H283	H	0.120124	0.847608	0.106810
	H284	H	0.116819	0.821472	0.098654
	O285	O	0.095584	0.035146	1.201206
	H286	H	0.126996	0.039673	1.220548
	H287	H	0.084640	0.062731	1.199249
	O288	O	0.808853	-0.192100	1.133255
	H289	H	0.784841	-0.196524	1.154437
	H290	H	0.820236	-0.185938	1.152276
	O291	O	0.418005	0.300140	1.499839
	H292	H	0.407993	0.304705	1.508103
	H293	H	0.406481	0.307190	1.506422
	O294	O	0.202912	0.228521	0.034658
	H295	H	0.223817	0.232249	0.022128
	H296	H	0.213809	0.217088	0.018348
	O297	O	0.691727	0.727317	0.704540
	H298	H	0.698635	0.675313	0.710031
	H299	H	0.726421	0.755321	0.738808
	O300	O	0.040914	0.056936	-0.229223
	H301	H	0.072550	0.060783	-0.234722
	H302	H	0.042479	0.067948	-0.220367
	O303	O	0.211074	-0.009877	-0.221879
	H304	H	0.204631	-0.054748	-0.209226
	H305	H	0.241481	-0.021339	-0.254043
	O306	O	0.933463	0.229640	-0.010101
	H307	H	0.941671	0.225164	0.002575
	H308	H	0.924426	0.228785	0.009645
	O309	O	0.482709	0.321048	0.420011
	H310	H	0.493163	0.314294	0.408686
	H311	H	0.484475	0.321922	0.410591
	O312	O	0.415873	0.589792	0.689148
	H313	H	0.418392	0.598577	0.682860
	H314	H	0.418634	0.599078	0.704917
	O315	O	0.276040	0.499073	0.444281
	H316	H	0.272258	0.523274	0.444770
	H317	H	0.284592	0.520421	0.444490
	O318	O	1.185123	0.830282	-0.184558
	H319	H	1.198294	0.811908	-0.161400
	H320	H	1.142993	0.819134	-0.189975
	O321	O	0.668562	0.692718	0.371460
	H322	H	0.654213	0.687891	0.407465
	H323	H	0.657332	0.683194	0.372904
	O324	O	0.825378	-0.200007	1.028584
	H325	H	0.803672	-0.212923	1.049606
	H326	H	0.817757	-0.191773	1.055523
	O327	O	1.272394	1.303625	0.707687
	H328	H	1.282336	1.301005	0.669582
	H329	H	1.257476	1.295470	0.724341
	O330	O	0.282680	0.717453	0.294125
	H331	H	0.279021	0.734020	0.269435
	H332	H	0.276194	0.683601	0.293352
	O333	O	-0.108760	1.055220	0.037328
	H334	H	-0.114027	1.054323	0.041805
	H335	H	-0.114800	1.059566	0.036027
	O336	O	0.704797	0.564740	0.707351
	H337	H	0.710511	0.542013	0.706991
	H338	H	0.714498	0.545916	0.720754
	O339	O	0.772507	0.083276	0.784078
	H340	H	0.773421	0.118059	0.795813
	H341	H	0.754406	0.095617	0.766344
	O342	O	-0.215068	1.136004	-0.135293
	H343	H	-0.212389	1.137821	-0.117639
	H344	H	-0.204755	1.145278	-0.134920
	O345	O	0.167154	0.201136	-0.190674
	H346	H	0.159508	0.180326	-0.173363
	H347	H	0.174646	0.197948	-0.185152
	O348	O	0.068636	0.201239	0.211661
	H349	H	0.074129	0.219011	0.217214
	H350	H	0.100139	0.203003	0.212574
	O351	O	-0.222520	0.141583	0.951808
	H352	H	-0.218372	0.146234	0.951536
	H353	H	-0.234450	0.156019	0.972795
	O354	O	1.061422	-0.165595	1.197988
	H355	H	1.054763	-0.160993	1.183000
	H356	H	1.052621	-0.154025	1.204535
	O357	O	0.438842	0.357773	0.706054
	H358	H	0.424824	0.358565	0.715055
	H359	H	0.437909	0.348995	0.701653
	O360	O	0.326975	0.451519	0.642703
	H361	H	0.331066	0.434199	0.636325
	H362	H	0.314095	0.438110	0.663934
	O363	O	0.912718	0.959506	-0.221844
	H364	H	0.894977	0.984840	-0.219571
	H365	H	0.925030	0.985649	-0.229979
	O366	O	0.943748	0.073550	1.175704
	H367	H	0.946467	0.086557	1.186411
	H368	H	0.929752	0.061222	1.168326
	O369	O	0.287170	0.318823	1.298336
	H370	H	0.310145	0.334572	1.315467
	H371	H	0.300646	0.339150	1.311290
	O372	O	0.103439	1.154404	1.126646
	H373	H	0.107724	1.160758	1.103036
	H374	H	0.121392	1.165709	1.145437
	O375	O	0.955723	-0.104595	0.007669
	H376	H	0.946445	-0.104160	0.007679
	H377	H	0.959954	-0.108629	0.009044
	O378	O	0.497373	0.436559	0.557446
	H379	H	0.498677	0.434008	0.552925
	H380	H	0.490318	0.439613	0.555989
	O381	O	-0.398296	0.435966	-0.613679
	H382	H	-0.401135	0.451245	-0.617066
	H383	H	-0.406066	0.444390	-0.603651
	O384	O	0.955934	0.872499	-0.024990
	H385	H	0.945458	0.879325	-0.023309
	H386	H	0.946436	0.880657	-0.003937
	O387	O	0.549014	0.378627	1.589275
	H388	H	0.530048	0.373026	1.594305
	H389	H	0.547623	0.377898	1.584285
	O390	O	0.520412	0.368116	0.280035
	H391	H	0.529186	0.376699	0.292865
	H392	H	0.515740	0.340726	0.265700
	O393	O	0.998162	0.231973	0.102195
	H394	H	1.009492	0.237291	0.094047
	H395	H	1.021699	0.233287	0.112864
	O396	O	0.429954	0.532374	0.294037
	H397	H	0.432896	0.515472	0.287370
	H398	H	0.442983	0.561406	0.301200
	O399	O	0.644980	0.723402	0.541455
	H400	H	0.651735	0.728888	0.569905
	H401	H	0.651006	0.735847	0.563789
	O402	O	0.798801	-0.175396	0.808502
	H403	H	0.817033	-0.155150	0.825739
	H404	H	0.822689	-0.161331	0.826866
	O405	O	0.592983	0.551768	0.278254
	H406	H	0.566199	0.572903	0.272714
	H407	H	0.603371	0.554837	0.273770
	O408	O	0.841376	0.950931	1.164472
	H409	H	0.822712	0.962280	1.175926
	H410	H	0.859904	0.948456	1.159845
	O411	O	1.411793	0.530605	0.506179
	H412	H	1.408854	0.542811	0.520356
	H413	H	1.410160	0.537559	0.507817
	O414	O	-0.011973	-0.192057	0.152288
	H415	H	-0.010776	-0.182881	0.149478
	H416	H	-0.013576	-0.201453	0.164059
	O417	O	0.468169	0.699693	0.307013
	H418	H	0.464139	0.721318	0.310726
	H419	H	0.463784	0.711505	0.322301
	O420	O	0.968934	-0.035670	0.973065
	H421	H	0.958133	-0.020042	0.968810
	H422	H	0.962306	-0.030463	0.977736
	O423	O	1.022905	0.815185	-0.199041
	H424	H	0.998597	0.824524	-0.198033
	H425	H	1.010824	0.816646	-0.205770
	O426	O	0.275325	0.549194	0.322835
	H427	H	0.277736	0.551650	0.312269
	H428	H	0.279137	0.539510	0.318840
	O429	O	0.487693	0.489428	0.698150
	H430	H	0.485000	0.477898	0.709944
	H431	H	0.480846	0.508818	0.700306
	O432	O	0.797563	0.099729	1.009044
	H433	H	0.806613	0.098066	1.000058
	H434	H	0.800373	0.112275	1.003836
	O435	O	0.289615	0.693411	0.689145
	H436	H	0.281509	0.677370	0.688821
	H437	H	0.304286	0.689470	0.695348
	O438	O	0.685983	0.315902	0.299524
	H439	H	0.680983	0.316766	0.320585
	H440	H	0.681447	0.353627	0.302123
	O441	O	1.085438	0.063580	-0.049267
	H442	H	1.072600	0.055172	-0.039604
	H443	H	1.093812	0.057799	-0.067293
	O444	O	0.479272	0.720570	0.520418
	H445	H	0.483065	0.725063	0.532579
	H446	H	0.466560	0.725868	0.533741
	O447	O	0.521197	0.735930	0.718466
	H448	H	0.532761	0.760414	0.737661
	H449	H	0.557865	0.739574	0.718876
	O450	O	1.675007	-0.677117	0.469638
	H451	H	1.685662	-0.690214	0.471985
	H452	H	1.675822	-0.672560	0.468722
	O453	O	0.267808	0.735870	0.460478
	H454	H	0.258049	0.744407	0.442911
	H455	H	0.254467	0.749034	0.441397
	O456	O	0.115225	1.036873	1.076532
	H457	H	0.105714	1.033647	1.066538
	H458	H	0.110909	1.053908	1.084108
	O459	O	0.500969	0.656428	0.476027
	H460	H	0.494817	0.666557	0.495235
	H461	H	0.512989	0.651610	0.482336
	O462	O	1.421136	0.382699	0.597451
	H463	H	1.423000	0.397934	0.609984
	H464	H	1.410324	0.399910	0.589457
	O465	O	0.391007	0.456715	1.464420
	H466	H	0.401715	0.459026	1.454084
	H467	H	0.385569	0.485972	1.482359
	O468	O	0.119666	1.078374	-0.036205
	H469	H	0.099928	1.067988	-0.019455
	H470	H	0.128214	1.061831	-0.053699
	O471	O	0.692006	0.567934	0.443488
	H472	H	0.684190	0.593670	0.451528
	H473	H	0.699142	0.570587	0.448286
	O474	O	0.827604	1.123905	0.182591
	H475	H	0.822704	1.122354	0.202061
	H476	H	0.829178	1.125816	0.183578
	O477	O	0.686129	0.432564	1.578151
	H478	H	0.684803	0.440613	1.564205
	H479	H	0.675341	0.438019	1.569438
