data_Molecule from HDF5

_cell_length_a		16.364484
_cell_length_b		16.228989
_cell_length_c		16.298100
_cell_angle_alpha	89.868384
_cell_angle_beta	90.106148
_cell_angle_gamma	89.859713
_symmetry_space_group_name_H-M	'P 1'
_symmetry_Int_Tables_number		1

loop_
	_symmetry_equiv_pos_as_xyz
	x,y,z

loop_
	_atom_site_label
	_atom_site_type_symbol
	_atom_site_fract_x
	_atom_site_fract_y
	_atom_site_fract_z
	H0	H	0.398376	0.835375	0.717390
	H1	H	0.593050	0.164204	0.716677
	H2	H	0.592862	0.835356	0.291101
	H3	H	0.396315	0.164331	0.288941
	H4	H	0.710523	0.400531	0.841212
	H5	H	0.710125	0.597936	0.168324
	H6	H	0.279443	0.600958	0.841100
	H7	H	0.280976	0.399736	0.167534
	H8	H	0.832109	0.714680	0.405568
	H9	H	0.158297	0.712815	0.601624
	H10	H	0.831799	0.285069	0.601570
	H11	H	0.159322	0.285812	0.408114
	H12	H	0.832036	0.401026	0.718629
	H13	H	0.157820	0.596913	0.718911
	H14	H	0.832562	0.599283	0.288616
	H15	H	0.158113	0.400250	0.289796
	H16	H	0.398672	0.713849	0.840372
	H17	H	0.592700	0.712264	0.168905
	H18	H	0.594132	0.285964	0.839958
	H19	H	0.397755	0.284255	0.168070
	H20	H	0.710620	0.836402	0.403949
	H21	H	0.710171	0.163435	0.602673
	H22	H	0.281573	0.835355	0.602801
	H23	H	0.279463	0.163535	0.403680
	H24	H	0.898448	0.335519	0.218063
	H25	H	0.092995	0.663923	0.219372
	H26	H	0.094511	0.335557	0.790857
	H27	H	0.897251	0.663849	0.790842
	H28	H	0.210914	0.898846	0.340153
	H29	H	0.209476	0.096304	0.667177
	H30	H	0.779263	0.099885	0.339952
	H31	H	0.779919	0.900156	0.665844
	H32	H	0.332158	0.214471	0.906036
	H33	H	0.658580	0.213226	0.102403
	H34	H	0.331944	0.786635	0.100769
	H35	H	0.659115	0.785702	0.907145
	H36	H	0.333166	0.899701	0.220084
	H37	H	0.658346	0.099446	0.219385
	H38	H	0.332896	0.100564	0.787098
	H39	H	0.659063	0.901407	0.789178
	H40	H	0.898236	0.212967	0.339121
	H41	H	0.092902	0.211364	0.668562
	H42	H	0.093142	0.784323	0.339637
	H43	H	0.898146	0.786610	0.668143
	H44	H	0.211308	0.336015	0.905457
	H45	H	0.209699	0.664003	0.103976
	H46	H	0.780520	0.336297	0.104450
	H47	H	0.780518	0.663411	0.904860
	H48	H	0.399793	0.117194	0.599766
	H49	H	0.586947	0.883119	0.599168
	H50	H	0.594575	0.118726	0.412147
	H51	H	0.405439	0.882607	0.407902
	H52	H	0.591002	0.404856	0.121066
	H53	H	0.583254	0.587269	0.891450
	H54	H	0.404567	0.589476	0.118971
	H55	H	0.408958	0.405518	0.889715
	H56	H	0.106986	0.591818	0.422752
	H57	H	0.879800	0.592733	0.596244
	H58	H	0.110536	0.406652	0.599968
	H59	H	0.880751	0.408737	0.411921
	H60	H	0.111601	0.404026	0.598471
	H61	H	0.878339	0.592076	0.600517
	H62	H	0.109681	0.582098	0.405883
	H63	H	0.879015	0.407276	0.408111
	H64	H	0.404266	0.595790	0.121005
	H65	H	0.586610	0.602173	0.886056
	H66	H	0.589503	0.409284	0.120082
	H67	H	0.397715	0.403820	0.885582
	H68	H	0.585437	0.117869	0.404939
	H69	H	0.587946	0.883804	0.593952
	H70	H	0.405645	0.115199	0.595219
	H71	H	0.404298	0.884678	0.414819
	H72	H	0.899160	0.620145	0.106518
	H73	H	0.090051	0.382857	0.096102
	H74	H	0.083532	0.617034	0.905354
	H75	H	0.900590	0.378533	0.899494
	H76	H	0.091395	0.909463	0.618840
	H77	H	0.086408	0.090921	0.389138
	H78	H	0.894952	0.090770	0.620934
	H79	H	0.905750	0.899117	0.386004
	H80	H	0.607995	0.088519	0.915591
	H81	H	0.380058	0.096370	0.094830
	H82	H	0.611050	0.905007	0.095073
	H83	H	0.378025	0.900930	0.910497
	H84	H	0.610818	0.909975	0.099942
	H85	H	0.381956	0.088296	0.094439
	H86	H	0.612317	0.088882	0.903021
	H87	H	0.382853	0.910337	0.915284
	H88	H	0.904469	0.087153	0.617840
	H89	H	0.087991	0.096031	0.386016
	H90	H	0.085096	0.906533	0.617642
	H91	H	0.894087	0.909272	0.385503
	H92	H	0.084460	0.613178	0.917995
	H93	H	0.090336	0.383295	0.098978
	H94	H	0.911062	0.613518	0.094335
	H95	H	0.914666	0.387537	0.916101
	H96	H	0.399081	0.116327	0.592378
	H97	H	0.592052	0.881499	0.597314
	H98	H	0.584278	0.113936	0.416444
	H99	H	0.398486	0.882455	0.411252
	H100	H	0.586388	0.405696	0.119311
	H101	H	0.597515	0.590857	0.885638
	H102	H	0.399110	0.591561	0.121223
	H103	H	0.400886	0.414422	0.890165
	H104	H	0.114531	0.601237	0.406939
	H105	H	0.877496	0.596329	0.598282
	H106	H	0.110077	0.406333	0.596544
	H107	H	0.878778	0.404511	0.411436
	H108	H	0.894111	0.616850	0.089490
	H109	H	0.088363	0.383118	0.097495
	H110	H	0.095089	0.618906	0.911864
	H111	H	0.892020	0.382630	0.920924
	H112	H	0.090943	0.902963	0.620528
	H113	H	0.092334	0.091281	0.386767
	H114	H	0.903713	0.097591	0.620161
	H115	H	0.907729	0.914130	0.390971
	H116	H	0.613400	0.099726	0.910710
	H117	H	0.378952	0.090941	0.100986
	H118	H	0.613156	0.903539	0.101382
	H119	H	0.379570	0.910277	0.904353
	C120	C	0.373827	0.007895	0.624855
	C121	C	0.616888	0.991389	0.624762
	C122	C	0.616504	0.008330	0.382720
	C123	C	0.374014	0.991701	0.382175
	C124	C	0.617377	0.377872	0.012102
	C125	C	0.617064	0.621132	0.996307
	C126	C	0.373395	0.621509	0.012552
	C127	C	0.374036	0.378283	0.996454
	C128	C	0.003229	0.620985	0.382834
	C129	C	0.986267	0.621630	0.626446
	C130	C	0.003327	0.377128	0.626548
	C131	C	0.987048	0.377756	0.382495
	C132	C	0.873956	0.508236	0.125653
	C133	C	0.117433	0.491510	0.126264
	C134	C	0.116633	0.507942	0.883528
	C135	C	0.873541	0.491050	0.883020
	C136	C	0.117397	0.877215	0.511244
	C137	C	0.116862	0.120521	0.495577
	C138	C	0.872929	0.121148	0.511540
	C139	C	0.874103	0.878411	0.495429
	C140	C	0.503611	0.121703	0.881312
	C141	C	0.487604	0.120851	0.125587
	C142	C	0.503846	0.877609	0.126694
	C143	C	0.487712	0.878167	0.881550
	C144	C	0.377078	0.884503	0.680243
	C145	C	0.613780	0.114945	0.679188
	C146	C	0.613655	0.884511	0.328430
	C147	C	0.376170	0.115067	0.326722
	C148	C	0.672308	0.380567	0.889787
	C149	C	0.672033	0.618212	0.119365
	C150	C	0.317788	0.620318	0.889813
	C151	C	0.319270	0.379757	0.118905
	C152	C	0.880446	0.676322	0.385304
	C153	C	0.109355	0.675712	0.622959
	C154	C	0.880461	0.322356	0.622960
	C155	C	0.110112	0.322712	0.386237
	C156	C	0.880556	0.380212	0.680899
	C157	C	0.109282	0.618125	0.681201
	C158	C	0.880897	0.618942	0.327259
	C159	C	0.109746	0.379648	0.327548
	C160	C	0.377074	0.676293	0.889272
	C161	C	0.613613	0.675273	0.119749
	C162	C	0.614454	0.323392	0.889206
	C163	C	0.377372	0.322315	0.118990
	C164	C	0.672309	0.885191	0.384160
	C165	C	0.671989	0.114557	0.622581
	C166	C	0.319378	0.884373	0.622918
	C167	C	0.318410	0.114864	0.384013
	C168	C	0.877622	0.384677	0.180522
	C169	C	0.113677	0.615103	0.181165
	C170	C	0.114933	0.384519	0.828540
	C171	C	0.876199	0.614606	0.828098
	C172	C	0.172676	0.879201	0.388733
	C173	C	0.171844	0.117123	0.618555
	C174	C	0.817628	0.119621	0.388657
	C175	C	0.818712	0.880000	0.617964
	C176	C	0.381050	0.176988	0.884687
	C177	C	0.610170	0.175613	0.123002
	C178	C	0.380954	0.823546	0.122504
	C179	C	0.610521	0.823849	0.885932
	C180	C	0.381716	0.879697	0.181894
	C181	C	0.609881	0.118864	0.181153
	C182	C	0.381197	0.120205	0.826007
	C183	C	0.610393	0.881004	0.827265
	C184	C	0.876604	0.176143	0.388413
	C185	C	0.113457	0.174080	0.619275
	C186	C	0.114232	0.822009	0.388508
	C187	C	0.877467	0.823773	0.618729
	C188	C	0.173253	0.385094	0.885363
	C189	C	0.171977	0.615030	0.124253
	C190	C	0.819210	0.384934	0.123950
	C191	C	0.818287	0.614414	0.884924
	C192	C	0.395119	0.094090	0.602419
	C193	C	0.595401	0.904957	0.603017
	C194	C	0.594489	0.094678	0.404711
	C195	C	0.396249	0.905520	0.404703
	C196	C	0.595317	0.400021	0.098079
	C197	C	0.595474	0.599882	0.910003
	C198	C	0.395925	0.598848	0.098251
	C199	C	0.396097	0.401270	0.910556
	C200	C	0.088325	0.598288	0.405253
	C201	C	0.900672	0.600025	0.604867
	C202	C	0.088582	0.399232	0.604867
	C203	C	0.901727	0.400251	0.404141
	C204	C	0.895115	0.594466	0.103478
	C205	C	0.096143	0.405349	0.104203
	C206	C	0.094054	0.593901	0.905198
	C207	C	0.895929	0.405016	0.905523
	C208	C	0.095555	0.899742	0.596960
	C209	C	0.095268	0.099156	0.409435
	C210	C	0.894703	0.098476	0.597471
	C211	C	0.896095	0.900934	0.409629
	C212	C	0.589124	0.098904	0.903057
	C213	C	0.402388	0.098574	0.103081
	C214	C	0.589517	0.899548	0.105109
	C215	C	0.402202	0.900664	0.903384
	Zn216	Zn	0.495573	-0.000269	0.752280
	Zn217	Zn	0.495888	0.000084	0.254842
	Zn218	Zn	0.745412	0.499535	0.004183
	Zn219	Zn	0.245261	0.500151	0.004612
	Zn220	Zn	-0.005145	0.749739	0.503765
	Zn221	Zn	-0.004719	0.249016	0.504184
	Zn222	Zn	-0.004976	0.499221	0.755309
	Zn223	Zn	-0.004604	0.499656	0.253957
	Zn224	Zn	0.495607	0.749685	0.004289
	Zn225	Zn	0.496192	0.249570	0.004154
	Zn226	Zn	0.744693	-0.000679	0.503445
	Zn227	Zn	0.245692	-0.000860	0.503153
	N228	N	0.410107	0.962352	0.681494
	N229	N	0.580155	0.037468	0.680610
	N230	N	0.579758	0.962185	0.327316
	N231	N	0.410248	0.037508	0.325789
	N232	N	0.674042	0.413832	0.967327
	N233	N	0.673940	0.585256	0.041693
	N234	N	0.315354	0.587210	0.967587
	N235	N	0.316995	0.413635	0.041525
	N236	N	0.957446	0.677577	0.419238
	N237	N	0.032049	0.677919	0.589776
	N238	N	0.957703	0.320353	0.590039
	N239	N	0.032976	0.321730	0.419877
	N240	N	0.957753	0.413750	0.683224
	N241	N	0.031871	0.585254	0.683607
	N242	N	0.958041	0.585270	0.325682
	N243	N	0.032462	0.413158	0.325060
	N244	N	0.411115	0.677082	0.966469
	N245	N	0.580098	0.677167	0.042145
	N246	N	0.580823	0.321790	0.966453
	N247	N	0.410911	0.321421	0.041638
	N248	N	0.673861	0.963058	0.417560
	N249	N	0.673908	0.036635	0.589345
	N250	N	0.317225	0.962173	0.589158
	N251	N	0.316642	0.036962	0.417500
	N252	N	0.911047	0.462338	0.181555
	N253	N	0.080409	0.537414	0.182496
	N254	N	0.080476	0.461884	0.827041
	N255	N	0.910042	0.537031	0.826918
	N256	N	0.175036	0.912350	0.466267
	N257	N	0.174154	0.084657	0.540647
	N258	N	0.815066	0.086284	0.466361
	N259	N	0.816611	0.913430	0.540435
	N260	N	0.458107	0.178197	0.918185
	N261	N	0.533238	0.176958	0.088843
	N262	N	0.458044	0.821895	0.088976
	N263	N	0.533223	0.821775	0.918820
	N264	N	0.459001	0.912842	0.184215
	N265	N	0.532673	0.085457	0.182827
	N266	N	0.458531	0.086484	0.823709
	N267	N	0.533012	0.914355	0.824741
	N268	N	0.910375	0.176832	0.465773
	N269	N	0.079983	0.176232	0.541857
	N270	N	0.080607	0.820856	0.465760
	N271	N	0.911164	0.822667	0.541372
	N272	N	0.174125	0.462822	0.918939
	N273	N	0.174328	0.537192	0.090931
	N274	N	0.816856	0.462691	0.090331
	N275	N	0.816619	0.536533	0.918457
	O276	O	0.472742	0.486966	0.466013
	H277	H	0.472534	0.491760	0.461480
	H278	H	0.477362	0.487257	0.476613
	O279	O	0.412339	0.537169	0.460724
	H280	H	0.416839	0.548352	0.462042
	H281	H	0.405363	0.536357	0.453547
	O282	O	0.469831	0.478923	0.468982
	H283	H	0.466978	0.469583	0.466080
	H284	H	0.465741	0.475998	0.471781
	O285	O	0.088434	0.990879	0.923390
	H286	H	0.092242	0.990312	0.919030
	H287	H	0.083341	0.995616	0.920597
	O288	O	1.072652	0.979587	0.026756
	H289	H	1.069685	0.980749	0.029704
	H290	H	1.079135	0.975271	0.031372
	O291	O	0.030496	0.077458	0.983147
	H292	H	0.037493	0.080347	0.977962
	H293	H	0.033093	0.078163	0.984258
	O294	O	0.476035	0.441764	0.500834
	H295	H	0.485714	0.439183	0.501273
	H296	H	0.472147	0.440002	0.500186
	O297	O	0.395933	0.550870	0.467174
	H298	H	0.385032	0.554748	0.464596
	H299	H	0.406081	0.548163	0.462215
	O300	O	0.458830	0.556666	0.473611
	H301	H	0.452241	0.552626	0.477582
	H302	H	0.459162	0.558222	0.482137
	O303	O	0.539854	0.491224	0.498761
	H304	H	0.528653	0.487434	0.496965
	H305	H	0.545126	0.484623	0.493056
	O306	O	1.004317	-0.043665	0.973617
	H307	H	1.000103	-0.041318	0.964128
	H308	H	1.001737	-0.046146	0.974657
	O309	O	0.470964	0.484093	0.441703
	H310	H	0.468435	0.487128	0.451254
	H311	H	0.474630	0.487032	0.434036
	O312	O	0.480164	0.513374	0.478005
	H313	H	0.481025	0.513161	0.478604
	H314	H	0.491991	0.511862	0.480895
	O315	O	1.053021	-0.018644	0.949372
	H316	H	1.056488	-0.013377	0.960109
	H317	H	1.051442	-0.022124	0.954561
	O318	O	-0.013092	-0.039669	0.013129
	H319	H	-0.009802	-0.038352	0.009761
	H320	H	-0.019547	-0.046478	0.011375
	O321	O	0.455360	0.501198	0.553451
	H322	H	0.448428	0.514614	0.554448
	H323	H	0.455005	0.493636	0.548840
	O324	O	1.023347	0.035224	-0.031406
	H325	H	1.026185	0.035496	-0.032254
	H326	H	1.021476	0.044524	-0.032527
	O327	O	0.962001	0.964473	-0.051602
	H328	H	0.958785	0.960184	-0.057529
	H329	H	0.966480	0.970392	-0.053036
	O330	O	0.448417	0.468250	0.532050
	H331	H	0.453004	0.466374	0.534292
	H332	H	0.442635	0.473626	0.537703
	O333	O	0.456967	0.479648	0.511939
	H334	H	0.452554	0.482646	0.506083
	H335	H	0.454253	0.482321	0.506804
