data_Molecule from HDF5

_cell_length_a		16.533676
_cell_length_b		16.504915
_cell_length_c		16.497433
_cell_angle_alpha	90.005207
_cell_angle_beta	90.055201
_cell_angle_gamma	89.938641
_symmetry_space_group_name_H-M	'P 1'
_symmetry_Int_Tables_number		1

loop_
	_symmetry_equiv_pos_as_xyz
	x,y,z

loop_
	_atom_site_label
	_atom_site_type_symbol
	_atom_site_fract_x
	_atom_site_fract_y
	_atom_site_fract_z
	H0	H	0.375588	0.845771	0.700763
	H1	H	0.591655	0.157221	0.693661
	H2	H	0.592001	0.843420	0.251968
	H3	H	0.380454	0.156937	0.250616
	H4	H	0.709562	0.391673	0.814699
	H5	H	0.708401	0.605485	0.128024
	H6	H	0.262129	0.609069	0.815799
	H7	H	0.262920	0.391730	0.127856
	H8	H	0.831458	0.720895	0.368713
	H9	H	0.144526	0.723182	0.581051
	H10	H	0.830798	0.276812	0.579561
	H11	H	0.142928	0.275727	0.364289
	H12	H	0.830707	0.393969	0.694510
	H13	H	0.144490	0.607237	0.696784
	H14	H	0.832068	0.606853	0.250248
	H15	H	0.142112	0.391293	0.247626
	H16	H	0.374153	0.727730	0.817631
	H17	H	0.589969	0.718954	0.129337
	H18	H	0.593833	0.276194	0.815472
	H19	H	0.381926	0.279339	0.129906
	H20	H	0.708708	0.842700	0.367481
	H21	H	0.709766	0.156567	0.579518
	H22	H	0.259672	0.845490	0.584626
	H23	H	0.261437	0.155591	0.363661
	H24	H	0.879277	0.343923	0.195741
	H25	H	0.092388	0.657214	0.193491
	H26	H	0.094053	0.343572	0.749198
	H27	H	0.879517	0.656900	0.748600
	H28	H	0.211125	0.892414	0.317158
	H29	H	0.212331	0.109660	0.628390
	H30	H	0.767174	0.104351	0.315323
	H31	H	0.765042	0.892598	0.629742
	H32	H	0.330545	0.222767	0.865907
	H33	H	0.644166	0.222079	0.078526
	H34	H	0.331426	0.775773	0.082326
	H35	H	0.642556	0.775197	0.864408
	H36	H	0.331215	0.893995	0.196473
	H37	H	0.643880	0.106369	0.195478
	H38	H	0.332138	0.108997	0.747841
	H39	H	0.643373	0.892611	0.749636
	H40	H	0.881921	0.221183	0.315942
	H41	H	0.096999	0.225654	0.627931
	H42	H	0.093687	0.778355	0.316343
	H43	H	0.881115	0.777209	0.629994
	H44	H	0.211526	0.344157	0.863210
	H45	H	0.210035	0.656583	0.079324
	H46	H	0.765442	0.342698	0.077012
	H47	H	0.763049	0.656827	0.863677
	H48	H	0.403951	0.109683	0.560539
	H49	H	0.580373	0.886291	0.562118
	H50	H	0.575101	0.112700	0.383614
	H51	H	0.395246	0.886799	0.384579
	H52	H	0.581325	0.411387	0.086038
	H53	H	0.570705	0.585898	0.860615
	H54	H	0.394807	0.589673	0.085518
	H55	H	0.396513	0.407021	0.857530
	H56	H	0.101528	0.593690	0.386538
	H57	H	0.877142	0.588433	0.558655
	H58	H	0.100360	0.408857	0.562153
	H59	H	0.876494	0.410775	0.388562
	H60	H	0.096632	0.412525	0.555860
	H61	H	0.876302	0.587141	0.563310
	H62	H	0.097992	0.583455	0.387599
	H63	H	0.876747	0.416200	0.383312
	H64	H	0.398045	0.582984	0.081936
	H65	H	0.573597	0.592103	0.857346
	H66	H	0.574667	0.415428	0.082045
	H67	H	0.396439	0.418795	0.861434
	H68	H	0.578717	0.112688	0.387050
	H69	H	0.573659	0.886949	0.563933
	H70	H	0.401895	0.108761	0.555899
	H71	H	0.403874	0.888947	0.383028
	H72	H	0.896766	0.614841	0.067024
	H73	H	0.075889	0.387776	0.060288
	H74	H	0.081446	0.614417	0.886826
	H75	H	0.903027	0.386488	0.876894
	H76	H	0.069552	0.917269	0.581904
	H77	H	0.074817	0.083474	0.362803
	H78	H	0.894095	0.088415	0.587398
	H79	H	0.899937	0.908908	0.360693
	H80	H	0.599028	0.087721	0.885617
	H81	H	0.372365	0.096253	0.063314
	H82	H	0.600137	0.911037	0.066348
	H83	H	0.374066	0.906174	0.888220
	H84	H	0.599644	0.907360	0.058344
	H85	H	0.377330	0.088175	0.055737
	H86	H	0.599769	0.087955	0.883691
	H87	H	0.380848	0.919040	0.893863
	H88	H	0.901087	0.084733	0.584092
	H89	H	0.071007	0.087968	0.363026
	H90	H	0.072578	0.907014	0.586065
	H91	H	0.895731	0.910264	0.359586
	H92	H	0.070971	0.612246	0.878443
	H93	H	0.073967	0.388393	0.059888
	H94	H	0.903151	0.609679	0.058583
	H95	H	0.902913	0.392492	0.891312
	H96	H	0.398651	0.111079	0.558955
	H97	H	0.575840	0.888397	0.557936
	H98	H	0.579468	0.114852	0.382852
	H99	H	0.400351	0.890865	0.390308
	H100	H	0.573626	0.406913	0.084069
	H101	H	0.578604	0.585520	0.858530
	H102	H	0.402702	0.589773	0.083023
	H103	H	0.406397	0.411684	0.862270
	H104	H	0.101473	0.587048	0.378116
	H105	H	0.875249	0.591624	0.561740
	H106	H	0.098426	0.416966	0.562688
	H107	H	0.873106	0.409103	0.381622
	H108	H	0.892288	0.612897	0.056638
	H109	H	0.074908	0.388415	0.057862
	H110	H	0.070114	0.607530	0.891364
	H111	H	0.889739	0.386841	0.884646
	H112	H	0.080306	0.916095	0.586310
	H113	H	0.076295	0.088325	0.359550
	H114	H	0.901266	0.092518	0.585933
	H115	H	0.898861	0.913137	0.361714
	H116	H	0.599168	0.090074	0.884820
	H117	H	0.374589	0.084864	0.067067
	H118	H	0.596791	0.915685	0.059672
	H119	H	0.375486	0.918682	0.879521
	C120	C	0.365883	0.007977	0.594193
	C121	C	0.608939	0.991178	0.594006
	C122	C	0.609415	0.008962	0.351898
	C123	C	0.366115	0.992017	0.351992
	C124	C	0.609196	0.377780	-0.019636
	C125	C	0.606793	0.620383	0.962846
	C126	C	0.364444	0.622088	-0.019585
	C127	C	0.366147	0.379234	0.963866
	C128	C	-0.003331	0.621096	0.351627
	C129	C	0.979664	0.622283	0.594869
	C130	C	-0.004481	0.378896	0.593808
	C131	C	0.978599	0.378721	0.351187
	C132	C	0.864778	0.508775	0.093534
	C133	C	0.108037	0.491877	0.092963
	C134	C	0.108108	0.508330	0.851504
	C135	C	0.865042	0.491971	0.850185
	C136	C	0.108589	0.879283	0.481619
	C137	C	0.108550	0.121448	0.464381
	C138	C	0.866508	0.120851	0.481845
	C139	C	0.865531	0.878040	0.464438
	C140	C	0.495954	0.122185	0.850970
	C141	C	0.478472	0.121885	0.094687
	C142	C	0.495268	0.878789	0.094150
	C143	C	0.479041	0.879523	0.852176
	C144	C	0.359376	0.892062	0.658597
	C145	C	0.610612	0.109765	0.654167
	C146	C	0.610571	0.890363	0.291981
	C147	C	0.362452	0.109805	0.290611
	C148	C	0.669825	0.374193	0.862215
	C149	C	0.667725	0.623227	0.080907
	C150	C	0.302251	0.626519	0.863247
	C151	C	0.304087	0.374869	0.081134
	C152	C	0.878570	0.681411	0.349736
	C153	C	0.097425	0.682948	0.598681
	C154	C	0.878002	0.317591	0.597046
	C155	C	0.095986	0.316635	0.346938
	C156	C	0.877888	0.375863	0.654634
	C157	C	0.097318	0.625015	0.656323
	C158	C	0.878550	0.624304	0.291198
	C159	C	0.095529	0.374116	0.288741
	C160	C	0.358431	0.685785	0.863973
	C161	C	0.608769	0.679655	0.081722
	C162	C	0.612166	0.316493	0.862682
	C163	C	0.363523	0.318927	0.082248
	C164	C	0.668624	0.890163	0.349518
	C165	C	0.669241	0.109547	0.597111
	C166	C	0.301504	0.891958	0.600790
	C167	C	0.303336	0.109063	0.347198
	C168	C	0.861478	0.391035	0.155095
	C169	C	0.111048	0.609776	0.153746
	C170	C	0.111952	0.390852	0.789424
	C171	C	0.861859	0.609803	0.789083
	C172	C	0.170523	0.874921	0.364233
	C173	C	0.171489	0.126648	0.581521
	C174	C	0.806686	0.123040	0.363036
	C175	C	0.805244	0.874986	0.582572
	C176	C	0.377967	0.182972	0.847734
	C177	C	0.596801	0.182249	0.097175
	C178	C	0.378013	0.817374	0.098513
	C179	C	0.595923	0.816545	0.847428
	C180	C	0.378227	0.875739	0.156048
	C181	C	0.596601	0.124872	0.155460
	C182	C	0.378632	0.125935	0.789147
	C183	C	0.596265	0.874902	0.790053
	C184	C	0.864003	0.181056	0.363231
	C185	C	0.113668	0.184275	0.581409
	C186	C	0.112054	0.817995	0.363864
	C187	C	0.863183	0.817447	0.582625
	C188	C	0.170260	0.390943	0.846472
	C189	C	0.169341	0.609418	0.096549
	C190	C	0.804764	0.390299	0.095964
	C191	C	0.803518	0.609678	0.846402
	C192	C	0.393631	0.088727	0.566390
	C193	C	0.583683	0.908743	0.568718
	C194	C	0.584771	0.091738	0.377169
	C195	C	0.392164	0.910318	0.378398
	C196	C	0.583726	0.403670	0.062587
	C197	C	0.581277	0.595281	0.880339
	C198	C	0.391139	0.595263	0.062176
	C199	C	0.392277	0.405118	0.881865
	C200	C	0.078871	0.595358	0.376954
	C201	C	0.897549	0.596543	0.568707
	C202	C	0.077049	0.405185	0.567643
	C203	C	0.896954	0.404527	0.377116
	C204	C	0.889889	0.590809	0.067996
	C205	C	0.082400	0.409738	0.066852
	C206	C	0.081660	0.590205	0.878187
	C207	C	0.891083	0.410064	0.876445
	C208	C	0.081951	0.905894	0.563395
	C209	C	0.081774	0.094246	0.382925
	C210	C	0.891692	0.095634	0.564305
	C211	C	0.890779	0.903537	0.382199
	C212	C	0.577879	0.096003	0.877025
	C213	C	0.396258	0.096858	0.069299
	C214	C	0.577501	0.904086	0.068560
	C215	C	0.397907	0.906778	0.879355
	Zn216	Zn	0.487101	0.000303	0.722889
	Zn217	Zn	0.487766	0.000394	0.223408
	Zn218	Zn	0.736515	0.499896	-0.028786
	Zn219	Zn	0.236944	0.499595	-0.028266
	Zn220	Zn	-0.012121	0.750009	0.473161
	Zn221	Zn	-0.012574	0.249771	0.472734
	Zn222	Zn	-0.012258	0.500359	0.722871
	Zn223	Zn	-0.012527	0.500095	0.222210
	Zn224	Zn	0.486115	0.749866	-0.027638
	Zn225	Zn	0.487179	0.250231	-0.027451
	Zn226	Zn	0.737770	-0.000212	0.472944
	Zn227	Zn	0.236917	0.000448	0.473097
	N228	N	0.398803	0.965116	0.654409
	N229	N	0.574176	0.035045	0.652720
	N230	N	0.574503	0.965314	0.293392
	N231	N	0.400843	0.035993	0.293584
	N232	N	0.668143	0.411646	0.936662
	N233	N	0.666792	0.587209	0.005906
	N234	N	0.305983	0.587531	0.936785
	N235	N	0.305788	0.411666	0.006523
	N236	N	0.952951	0.679471	0.386649
	N237	N	0.023053	0.681554	0.561518
	N238	N	0.952315	0.319353	0.560049
	N239	N	0.022238	0.319335	0.385286
	N240	N	0.952043	0.413298	0.652861
	N241	N	0.022764	0.588294	0.654321
	N242	N	0.953085	0.587632	0.292106
	N243	N	0.021571	0.411978	0.291232
	N244	N	0.396140	0.683344	0.938160
	N245	N	0.571748	0.678216	0.007107
	N246	N	0.575297	0.318560	0.937190
	N247	N	0.401465	0.321191	0.008056
	N248	N	0.668032	0.965002	0.386000
	N249	N	0.668623	0.034551	0.560766
	N250	N	0.305600	0.965015	0.561042
	N251	N	0.305444	0.034865	0.384755
	N252	N	0.898102	0.465769	0.153929
	N253	N	0.073542	0.535579	0.151432
	N254	N	0.074028	0.464910	0.792565
	N255	N	0.899336	0.535532	0.791286
	N256	N	0.168677	0.912025	0.438731
	N257	N	0.168545	0.088397	0.507555
	N258	N	0.807832	0.086549	0.437932
	N259	N	0.806749	0.911968	0.508020
	N260	N	0.451845	0.180488	0.885689
	N261	N	0.522377	0.180682	0.060157
	N262	N	0.451891	0.819379	0.060664
	N263	N	0.521727	0.819043	0.885128
	N264	N	0.452231	0.913569	0.153270
	N265	N	0.521891	0.088450	0.154347
	N266	N	0.453147	0.089060	0.790948
	N267	N	0.522496	0.913137	0.792759
	N268	N	0.900218	0.180139	0.438252
	N269	N	0.075529	0.181347	0.507486
	N270	N	0.074444	0.820408	0.438097
	N271	N	0.900013	0.819037	0.508049
	N272	N	0.168062	0.465175	0.884173
	N273	N	0.167933	0.534762	0.059678
	N274	N	0.806510	0.464517	0.058516
	N275	N	0.805353	0.535216	0.883633
	O276	O	0.691957	0.545909	0.443813
	H277	H	0.670486	0.545606	0.437904
	H278	H	0.697000	0.559321	0.423868
	O279	O	0.418928	0.605252	0.650497
	H280	H	0.439961	0.591352	0.654623
	H281	H	0.437074	0.618829	0.655129
	O282	O	1.178765	1.060754	-0.094513
	H283	H	1.173959	1.044011	-0.098461
	H284	H	1.169784	1.071191	-0.086910
	O285	O	0.771955	-0.214558	1.001421
	H286	H	0.789708	-0.219020	0.976594
	H287	H	0.752668	-0.236160	0.991199
	O288	O	0.264190	-0.267814	0.265711
	H289	H	0.268025	-0.297508	0.261853
	H290	H	0.256338	-0.255116	0.309193
	O291	O	1.269171	1.717261	0.447352
	H292	H	1.297118	1.729234	0.470571
	H293	H	1.250138	1.746806	0.453822
	O294	O	0.197832	1.207440	-0.004190
	H295	H	0.191912	1.215013	-0.021193
	H296	H	0.204412	1.215697	-0.012003
	O297	O	0.923903	0.120568	0.086146
	H298	H	0.938267	0.128892	0.095753
	H299	H	0.937477	0.113414	0.086205
	O300	O	-0.206184	0.979674	1.173689
	H301	H	-0.225256	0.983061	1.200599
	H302	H	-0.195055	0.957729	1.166627
	O303	O	0.491941	0.285002	0.285667
	H304	H	0.481930	0.265874	0.295216
	H305	H	0.504896	0.276385	0.280261
	O306	O	0.178423	1.047651	1.078119
	H307	H	0.190986	1.026722	1.088577
	H308	H	0.192877	1.066301	1.058879
	O309	O	0.301964	0.229660	0.287667
	H310	H	0.287353	0.230385	0.266095
	H311	H	0.295059	0.228904	0.293600
	O312	O	0.315921	0.536388	0.491737
	H313	H	0.315612	0.535255	0.522395
	H314	H	0.305106	0.552671	0.485265
	O315	O	-0.206156	-0.113722	0.843761
	H316	H	-0.195740	-0.102651	0.841091
	H317	H	-0.212978	-0.110921	0.853557
	O318	O	0.033937	0.929306	-0.031534
	H319	H	0.027019	0.933349	-0.035104
	H320	H	0.043390	0.927972	-0.030879
	O321	O	0.697425	0.474044	0.258881
	H322	H	0.719248	0.486595	0.243978
	H323	H	0.697193	0.481008	0.272575
	O324	O	0.505963	0.465222	0.418819
	H325	H	0.492489	0.469483	0.416049
	H326	H	0.497577	0.485597	0.428182
	O327	O	1.148657	-0.151431	0.910779
	H328	H	1.156578	-0.137611	0.912070
	H329	H	1.156566	-0.139554	0.929385
	O330	O	0.968569	0.216317	-0.248058
	H331	H	0.956664	0.243537	-0.273820
	H332	H	0.925482	0.212853	-0.239663
	O333	O	0.445749	0.385828	1.407732
	H334	H	0.442827	0.389156	1.416338
	H335	H	0.426326	0.384148	1.407190
	O336	O	1.009008	0.209362	1.178569
	H337	H	1.023053	0.212626	1.179021
	H338	H	1.022003	0.212248	1.190092
	O339	O	0.662372	0.308841	1.291786
	H340	H	0.652907	0.328321	1.293224
	H341	H	0.659327	0.315940	1.308340
	O342	O	0.459158	0.658991	0.493055
	H343	H	0.470113	0.661020	0.506589
	H344	H	0.455534	0.656334	0.491926
	O345	O	-0.024134	0.020195	0.181831
	H346	H	-0.045210	0.019600	0.182167
	H347	H	-0.022626	0.006919	0.178087
	O348	O	0.961143	0.225106	0.990900
	H349	H	0.954434	0.222067	0.977258
	H350	H	0.971400	0.222566	0.995992
	O351	O	0.941815	0.932192	0.784283
	H352	H	0.933728	0.927803	0.784870
	H353	H	0.940714	0.918919	0.778142
	O354	O	0.306502	0.316897	0.654420
	H355	H	0.313986	0.314050	0.659407
	H356	H	0.303984	0.338783	0.645946
	O357	O	1.198076	0.985958	0.774060
	H358	H	1.210727	0.987389	0.758210
	H359	H	1.178852	1.005631	0.771068
	O360	O	0.495580	0.447226	0.389488
	H361	H	0.488877	0.433380	0.380409
	H362	H	0.489047	0.448740	0.375735
	O363	O	0.941242	-0.213698	0.925631
	H364	H	0.945630	-0.206913	0.903581
	H365	H	0.963252	-0.211867	0.911211
	O366	O	1.289054	-0.697112	1.497251
	H367	H	1.268740	-0.714239	1.508028
	H368	H	1.284343	-0.685476	1.493200
	O369	O	0.274187	0.446587	0.428334
	H370	H	0.271918	0.459234	0.404543
	H371	H	0.271916	0.461235	0.435759
	O372	O	0.615996	0.411157	0.559105
	H373	H	0.597564	0.389143	0.550999
	H374	H	0.604009	0.428859	0.542891
	O375	O	-0.191051	1.186359	0.782979
	H376	H	-0.215663	1.168123	0.769405
	H377	H	-0.202170	1.193783	0.834619
	O378	O	0.530891	0.568012	0.293307
	H379	H	0.534198	0.579674	0.297114
	H380	H	0.542632	0.570692	0.295939
	O381	O	1.053970	0.178247	-0.132045
	H382	H	1.039140	0.180731	-0.135298
	H383	H	1.028518	0.170282	-0.145948
	O384	O	-0.031214	-0.179087	1.181880
	H385	H	-0.027166	-0.186415	1.168170
	H386	H	-0.026739	-0.197641	1.180710
	O387	O	-0.723702	1.478792	0.681867
	H388	H	-0.744036	1.479892	0.690688
	H389	H	-0.714756	1.490102	0.689810
	O390	O	0.035001	0.032953	0.808128
	H391	H	0.020950	0.054263	0.814180
	H392	H	0.020765	0.017287	0.798611
	O393	O	0.726033	0.734074	0.229675
	H394	H	0.719906	0.730778	0.217799
	H395	H	0.746420	0.751864	0.219591
	O396	O	0.872611	0.117976	1.078686
	H397	H	0.869861	0.127433	1.100444
	H398	H	0.874310	0.129574	1.075317
	O399	O	1.062966	0.803254	1.045566
	H400	H	1.057406	0.807619	1.039670
	H401	H	1.081533	0.798965	1.037419
	O402	O	-0.228786	0.025398	0.755629
	H403	H	-0.229684	0.019903	0.761029
	H404	H	-0.247656	0.029487	0.737855
	O405	O	0.099090	-0.104712	0.144455
	H406	H	0.102289	-0.110896	0.156011
	H407	H	0.091468	-0.104320	0.140739
	O408	O	0.661336	1.405013	1.537424
	H409	H	0.648812	1.418718	1.528696
	H410	H	0.649196	1.410480	1.519975
	O411	O	0.466210	0.289295	0.684893
	H412	H	0.467648	0.287735	0.664963
	H413	H	0.453599	0.263509	0.703873
	O414	O	0.202851	0.771858	0.747475
	H415	H	0.217950	0.812490	0.742460
	H416	H	0.215378	0.770852	0.785742
	O417	O	1.184310	1.022415	0.163756
	H418	H	1.188513	1.037397	0.178351
	H419	H	1.176647	1.010783	0.173257
	O420	O	0.707023	0.281323	0.443616
	H421	H	0.734565	0.248646	0.440570
	H422	H	0.698400	0.294118	0.442426
	O423	O	0.690228	1.524889	0.683548
	H424	H	0.704870	1.505921	0.679489
	H425	H	0.695838	1.512094	0.694906
	O426	O	0.780681	1.209517	0.942582
	H427	H	0.779000	1.225643	0.956510
	H428	H	0.767715	1.200757	0.964110
	O429	O	0.696750	0.705035	0.490266
	H430	H	0.712024	0.716188	0.490745
	H431	H	0.689380	0.703018	0.480221
	O432	O	0.765284	0.032338	1.001358
	H433	H	0.770848	0.025778	1.026194
	H434	H	0.772192	0.037842	1.010868
	O435	O	-0.494799	-0.277566	-0.308399
	H436	H	-0.455681	-0.293786	-0.319008
	H437	H	-0.489681	-0.244398	-0.273430
	O438	O	1.066506	-0.033534	0.939727
	H439	H	1.075544	-0.018855	0.933075
	H440	H	1.052824	-0.033123	0.950803
	O441	O	0.515012	0.482398	0.676613
	H442	H	0.532658	0.492467	0.672525
	H443	H	0.503413	0.459914	0.680630
	O444	O	0.537188	1.659783	0.455655
	H445	H	0.544712	1.669975	0.457435
	H446	H	0.543986	1.652469	0.467814
	O447	O	0.847595	0.829197	0.123432
	H448	H	0.841488	0.828744	0.117943
	H449	H	0.874333	0.833823	0.114430
	O450	O	0.338160	0.526242	0.266399
	H451	H	0.349968	0.538343	0.272305
	H452	H	0.357537	0.514098	0.263955
	O453	O	0.351791	0.572847	0.298607
	H454	H	0.346108	0.594127	0.268980
	H455	H	0.334564	0.566510	0.300110
	O456	O	1.009985	-0.219239	-0.246611
	H457	H	1.015393	-0.255778	-0.285088
	H458	H	1.059792	-0.203697	-0.234380
	O459	O	0.385621	0.616177	0.269517
	H460	H	0.393469	0.606261	0.261971
	H461	H	0.382073	0.606290	0.268812
	O462	O	0.570215	0.419946	0.462676
	H463	H	0.568676	0.425611	0.470887
	H464	H	0.566173	0.425435	0.438990
	O465	O	0.658421	-0.316684	-0.352002
	H466	H	0.670488	-0.323792	-0.376826
	H467	H	0.661403	-0.354083	-0.347788
