data_Molecule from HDF5

_cell_length_a		16.327439
_cell_length_b		16.310198
_cell_length_c		16.358939
_cell_angle_alpha	90.054075
_cell_angle_beta	90.026260
_cell_angle_gamma	89.888054
_symmetry_space_group_name_H-M	'P 1'
_symmetry_Int_Tables_number		1

loop_
	_symmetry_equiv_pos_as_xyz
	x,y,z

loop_
	_atom_site_label
	_atom_site_type_symbol
	_atom_site_fract_x
	_atom_site_fract_y
	_atom_site_fract_z
	H0	H	0.395090	0.838494	0.716955
	H1	H	0.591093	0.165730	0.719887
	H2	H	0.591562	0.839530	0.289369
	H3	H	0.394458	0.165894	0.290101
	H4	H	0.707330	0.403791	0.841184
	H5	H	0.705563	0.599758	0.167840
	H6	H	0.277724	0.599587	0.841250
	H7	H	0.279799	0.405982	0.168022
	H8	H	0.829748	0.718001	0.406301
	H9	H	0.156325	0.717518	0.602236
	H10	H	0.829205	0.289688	0.601623
	H11	H	0.157001	0.289540	0.407474
	H12	H	0.829038	0.406231	0.718017
	H13	H	0.155209	0.602321	0.720591
	H14	H	0.829035	0.601710	0.290528
	H15	H	0.155798	0.404526	0.289269
	H16	H	0.392623	0.717945	0.840918
	H17	H	0.589823	0.717753	0.167323
	H18	H	0.590852	0.287405	0.840957
	H19	H	0.395088	0.288398	0.167605
	H20	H	0.708053	0.839725	0.405905
	H21	H	0.706709	0.166507	0.603358
	H22	H	0.278240	0.839393	0.601191
	H23	H	0.278907	0.166720	0.407425
	H24	H	0.894805	0.340139	0.219478
	H25	H	0.090428	0.666426	0.218658
	H26	H	0.090719	0.339795	0.789873
	H27	H	0.893969	0.666366	0.790444
	H28	H	0.207419	0.904461	0.341251
	H29	H	0.206917	0.101551	0.667313
	H30	H	0.778077	0.100510	0.340818
	H31	H	0.777282	0.904922	0.666802
	H32	H	0.329499	0.216176	0.907121
	H33	H	0.656416	0.215721	0.102346
	H34	H	0.329191	0.789542	0.100981
	H35	H	0.656207	0.788185	0.906350
	H36	H	0.329330	0.903371	0.218969
	H37	H	0.655825	0.099958	0.218487
	H38	H	0.329719	0.101668	0.789397
	H39	H	0.655624	0.903551	0.789037
	H40	H	0.894151	0.218466	0.341254
	H41	H	0.089903	0.217157	0.667669
	H42	H	0.091274	0.788663	0.340970
	H43	H	0.893952	0.788282	0.666937
	H44	H	0.205946	0.339016	0.906512
	H45	H	0.206840	0.666316	0.102597
	H46	H	0.779877	0.338535	0.100812
	H47	H	0.776846	0.665640	0.906300
	H48	H	0.399394	0.121528	0.606539
	H49	H	0.584273	0.888799	0.591535
	H50	H	0.580383	0.118455	0.406743
	H51	H	0.400084	0.889468	0.419269
	H52	H	0.588425	0.406200	0.120753
	H53	H	0.577311	0.595052	0.891272
	H54	H	0.396454	0.597235	0.120888
	H55	H	0.400965	0.409363	0.888314
	H56	H	0.112510	0.597672	0.400141
	H57	H	0.877827	0.597649	0.592621
	H58	H	0.107240	0.410474	0.593568
	H59	H	0.873258	0.408709	0.401898
	H60	H	0.109484	0.412793	0.601182
	H61	H	0.877732	0.592102	0.598536
	H62	H	0.109471	0.605358	0.417229
	H63	H	0.877175	0.403257	0.419319
	H64	H	0.400376	0.591771	0.117919
	H65	H	0.588390	0.601900	0.886087
	H66	H	0.587627	0.411707	0.119974
	H67	H	0.398211	0.404590	0.887622
	H68	H	0.584234	0.116869	0.416567
	H69	H	0.590299	0.884892	0.598415
	H70	H	0.405726	0.115495	0.594276
	H71	H	0.392860	0.884054	0.408410
	H72	H	0.901777	0.618682	0.101017
	H73	H	0.094119	0.387341	0.087969
	H74	H	0.078437	0.618204	0.908679
	H75	H	0.895190	0.389239	0.921855
	H76	H	0.087047	0.915714	0.618592
	H77	H	0.087868	0.101734	0.386498
	H78	H	0.893755	0.096178	0.621304
	H79	H	0.895275	0.906717	0.386870
	H80	H	0.610307	0.092678	0.906877
	H81	H	0.375277	0.086262	0.113442
	H82	H	0.606881	0.909127	0.092374
	H83	H	0.379183	0.915194	0.915437
	H84	H	0.608251	0.914028	0.100342
	H85	H	0.372058	0.113275	0.096945
	H86	H	0.610322	0.099677	0.911769
	H87	H	0.374923	0.911772	0.902475
	H88	H	0.900839	0.094728	0.618574
	H89	H	0.089164	0.092230	0.388226
	H90	H	0.079632	0.907803	0.618720
	H91	H	0.898356	0.916086	0.389941
	H92	H	0.085917	0.617054	0.918298
	H93	H	0.089468	0.382306	0.109842
	H94	H	0.900439	0.617033	0.092476
	H95	H	0.891682	0.381557	0.902305
	H96	H	0.391285	0.119536	0.593932
	H97	H	0.580543	0.887658	0.600090
	H98	H	0.590342	0.121021	0.409080
	H99	H	0.406748	0.886973	0.407349
	H100	H	0.583230	0.408092	0.119573
	H101	H	0.589508	0.588858	0.889511
	H102	H	0.403137	0.598700	0.118735
	H103	H	0.395414	0.409617	0.888054
	H104	H	0.105421	0.586921	0.414169
	H105	H	0.875245	0.599918	0.600578
	H106	H	0.110324	0.405335	0.599127
	H107	H	0.881261	0.420566	0.414006
	H108	H	0.893662	0.620589	0.097726
	H109	H	0.073103	0.391327	0.096261
	H110	H	0.089764	0.621639	0.907945
	H111	H	0.911297	0.388991	0.907121
	H112	H	0.090386	0.906266	0.622682
	H113	H	0.080259	0.096284	0.389810
	H114	H	0.899302	0.101769	0.620827
	H115	H	0.904860	0.908402	0.389606
	H116	H	0.606472	0.092467	0.915033
	H117	H	0.383118	0.087078	0.082765
	H118	H	0.610829	0.904886	0.100597
	H119	H	0.375044	0.901669	0.912441
	C120	C	0.370799	0.010660	0.625930
	C121	C	0.613281	0.995040	0.625144
	C122	C	0.614067	0.011082	0.382430
	C123	C	0.371268	0.994508	0.383061
	C124	C	0.614553	0.380202	0.012284
	C125	C	0.613557	0.623962	0.996496
	C126	C	0.370466	0.624702	0.012034
	C127	C	0.370422	0.380123	0.996090
	C128	C	0.000956	0.625265	0.382412
	C129	C	0.984772	0.624585	0.625738
	C130	C	0.000896	0.381773	0.625787
	C131	C	0.984917	0.381801	0.383140
	C132	C	0.870727	0.511038	0.125836
	C133	C	0.114138	0.494771	0.126317
	C134	C	0.113587	0.511253	0.882877
	C135	C	0.870434	0.494299	0.882307
	C136	C	0.113994	0.881367	0.512209
	C137	C	0.113770	0.124681	0.495998
	C138	C	0.870061	0.125487	0.512438
	C139	C	0.871328	0.881993	0.496180
	C140	C	0.500996	0.123291	0.883088
	C141	C	0.484645	0.124037	0.125985
	C142	C	0.500710	0.881161	0.125812
	C143	C	0.484561	0.881107	0.882071
	C144	C	0.374192	0.887450	0.679839
	C145	C	0.611096	0.117468	0.680981
	C146	C	0.612223	0.888239	0.327262
	C147	C	0.373926	0.117471	0.328262
	C148	C	0.669336	0.383091	0.889796
	C149	C	0.668313	0.620962	0.118948
	C150	C	0.315304	0.621175	0.889872
	C151	C	0.316535	0.384254	0.118961
	C152	C	0.878235	0.680112	0.385566
	C153	C	0.107490	0.679982	0.623232
	C154	C	0.877856	0.327257	0.622964
	C155	C	0.107840	0.326894	0.386264
	C156	C	0.877896	0.385082	0.680654
	C157	C	0.107110	0.622505	0.681654
	C158	C	0.877901	0.622306	0.328138
	C159	C	0.107458	0.384114	0.327933
	C160	C	0.372447	0.679742	0.889696
	C161	C	0.610438	0.679094	0.118966
	C162	C	0.611337	0.325414	0.889668
	C163	C	0.373978	0.325885	0.118816
	C164	C	0.669599	0.888232	0.385329
	C165	C	0.668205	0.117964	0.622768
	C166	C	0.316288	0.887782	0.621994
	C167	C	0.316235	0.117702	0.386208
	C168	C	0.874207	0.388270	0.180709
	C169	C	0.111069	0.617795	0.180777
	C170	C	0.111533	0.388537	0.827498
	C171	C	0.873307	0.617491	0.828069
	C172	C	0.169461	0.883803	0.389886
	C173	C	0.168439	0.121814	0.618951
	C174	C	0.815659	0.121988	0.389494
	C175	C	0.815649	0.884445	0.618473
	C176	C	0.378079	0.178157	0.886208
	C177	C	0.607455	0.178439	0.123072
	C178	C	0.377633	0.827216	0.122091
	C179	C	0.607291	0.825911	0.885517
	C180	C	0.378073	0.883380	0.181104
	C181	C	0.607274	0.120847	0.180746
	C182	C	0.378299	0.121304	0.827751
	C183	C	0.607163	0.883061	0.827260
	C184	C	0.873610	0.180142	0.389685
	C185	C	0.110600	0.179346	0.618994
	C186	C	0.111558	0.826357	0.389658
	C187	C	0.873440	0.826546	0.618492
	C188	C	0.168218	0.388103	0.885937
	C189	C	0.169141	0.617558	0.123469
	C190	C	0.817038	0.387543	0.122267
	C191	C	0.815146	0.617178	0.885586
	C192	C	0.392484	0.096728	0.604733
	C193	C	0.591553	0.909284	0.602994
	C194	C	0.591700	0.096594	0.404440
	C195	C	0.393186	0.908958	0.405034
	C196	C	0.592856	0.402312	0.098036
	C197	C	0.591442	0.601920	0.910842
	C198	C	0.393245	0.602561	0.097385
	C199	C	0.391890	0.401508	0.910141
	C200	C	0.086989	0.603100	0.403944
	C201	C	0.899121	0.602936	0.603855
	C202	C	0.086655	0.403092	0.604325
	C203	C	0.899237	0.404299	0.405169
	C204	C	0.892287	0.596766	0.103643
	C205	C	0.092049	0.409070	0.104434
	C206	C	0.091227	0.596985	0.905212
	C207	C	0.892731	0.408624	0.904103
	C208	C	0.092095	0.903469	0.597771
	C209	C	0.092170	0.103077	0.410186
	C210	C	0.891576	0.103931	0.598028
	C211	C	0.893184	0.903804	0.410882
	C212	C	0.586816	0.101420	0.904962
	C213	C	0.398890	0.102084	0.104151
	C214	C	0.586472	0.902948	0.104178
	C215	C	0.398743	0.903004	0.903832
	Zn216	Zn	0.492785	0.002420	0.754188
	Zn217	Zn	0.492546	0.002456	0.254227
	Zn218	Zn	0.742264	0.502220	0.004299
	Zn219	Zn	0.242142	0.502438	0.004264
	Zn220	Zn	-0.006907	0.752963	0.504052
	Zn221	Zn	-0.007205	0.253349	0.504291
	Zn222	Zn	-0.007227	0.502956	0.754165
	Zn223	Zn	-0.007588	0.503445	0.254735
	Zn224	Zn	0.492231	0.753208	0.003850
	Zn225	Zn	0.492814	0.251795	0.004225
	Zn226	Zn	0.742112	0.002912	0.504412
	Zn227	Zn	0.242154	0.003204	0.504491
	N228	N	0.407388	0.964889	0.682344
	N229	N	0.577708	0.040208	0.682569
	N230	N	0.578465	0.965473	0.325341
	N231	N	0.407549	0.040112	0.326261
	N232	N	0.671356	0.416387	0.966985
	N233	N	0.669866	0.587116	0.041799
	N234	N	0.314289	0.587376	0.966799
	N235	N	0.314235	0.417236	0.041625
	N236	N	0.955654	0.681978	0.418635
	N237	N	0.030339	0.681398	0.589140
	N238	N	0.955069	0.325075	0.589603
	N239	N	0.030406	0.325400	0.419738
	N240	N	0.955261	0.418364	0.682258
	N241	N	0.029989	0.589028	0.683227
	N242	N	0.955400	0.588960	0.326277
	N243	N	0.030147	0.417655	0.326078
	N244	N	0.406161	0.682022	0.966776
	N245	N	0.577383	0.681372	0.041617
	N246	N	0.577902	0.323596	0.966983
	N247	N	0.407112	0.323549	0.041501
	N248	N	0.670902	0.965569	0.418861
	N249	N	0.669886	0.040580	0.588961
	N250	N	0.314082	0.965385	0.589286
	N251	N	0.314598	0.040286	0.419798
	N252	N	0.906734	0.465895	0.183025
	N253	N	0.077450	0.540526	0.182507
	N254	N	0.077994	0.465955	0.825852
	N255	N	0.906887	0.539949	0.825740
	N256	N	0.171113	0.917342	0.467032
	N257	N	0.170531	0.088651	0.541564
	N258	N	0.813590	0.088565	0.466674
	N259	N	0.814133	0.918083	0.541587
	N260	N	0.455207	0.179429	0.919828
	N261	N	0.530237	0.180157	0.089359
	N262	N	0.454705	0.825548	0.088534
	N263	N	0.529965	0.824726	0.918939
	N264	N	0.455758	0.916273	0.183438
	N265	N	0.529810	0.087921	0.182657
	N266	N	0.455823	0.087840	0.825701
	N267	N	0.529862	0.916561	0.825157
	N268	N	0.906648	0.182544	0.467049
	N269	N	0.077059	0.181016	0.541681
	N270	N	0.077989	0.824748	0.466784
	N271	N	0.907396	0.824908	0.541469
	N272	N	0.169806	0.465410	0.919597
	N273	N	0.171335	0.539951	0.090277
	N274	N	0.814748	0.464938	0.088760
	N275	N	0.813380	0.539846	0.918616
	O276	O	1.557201	-0.492370	0.501296
	H277	H	1.561402	-0.497858	0.501547
	H278	H	1.555448	-0.493076	0.501088
	O279	O	0.514812	0.524803	0.499550
	H280	H	0.510586	0.524618	0.494972
	H281	H	0.517723	0.530715	0.497247
	O282	O	1.013140	0.973090	0.003925
	H283	H	1.014810	0.969020	0.003504
	H284	H	1.015186	0.970869	0.003591
	O285	O	0.563477	0.517413	0.495324
	H286	H	0.567794	0.515021	0.500388
	H287	H	0.569544	0.519749	0.495415
