data_Molecule from HDF5

_cell_length_a		16.238434
_cell_length_b		16.383796
_cell_length_c		16.283157
_cell_angle_alpha	90.077872
_cell_angle_beta	89.876287
_cell_angle_gamma	90.178391
_symmetry_space_group_name_H-M	'P 1'
_symmetry_Int_Tables_number		1

loop_
	_symmetry_equiv_pos_as_xyz
	x,y,z

loop_
	_atom_site_label
	_atom_site_type_symbol
	_atom_site_fract_x
	_atom_site_fract_y
	_atom_site_fract_z
	H0	H	0.394402	0.841470	0.718111
	H1	H	0.593739	0.166633	0.717330
	H2	H	0.594677	0.841985	0.284985
	H3	H	0.396986	0.167530	0.288628
	H4	H	0.710299	0.405651	0.838634
	H5	H	0.708417	0.602908	0.165985
	H6	H	0.282984	0.600894	0.837480
	H7	H	0.281113	0.407947	0.166396
	H8	H	0.831637	0.719170	0.403674
	H9	H	0.158683	0.718983	0.600736
	H10	H	0.831895	0.287385	0.603168
	H11	H	0.158514	0.288902	0.401459
	H12	H	0.830727	0.404462	0.716750
	H13	H	0.159171	0.601799	0.715162
	H14	H	0.831279	0.602107	0.288699
	H15	H	0.159241	0.406640	0.288548
	H16	H	0.396429	0.719408	0.839066
	H17	H	0.594122	0.720817	0.165239
	H18	H	0.594781	0.288278	0.839285
	H19	H	0.394235	0.289631	0.166175
	H20	H	0.709369	0.840002	0.402505
	H21	H	0.710034	0.166133	0.600717
	H22	H	0.280002	0.840977	0.599513
	H23	H	0.280664	0.167500	0.405024
	H24	H	0.895822	0.341169	0.218024
	H25	H	0.094856	0.666738	0.217892
	H26	H	0.093223	0.340890	0.786508
	H27	H	0.896096	0.666463	0.787008
	H28	H	0.208835	0.907823	0.338517
	H29	H	0.208334	0.101919	0.666706
	H30	H	0.781897	0.100855	0.337760
	H31	H	0.780053	0.905433	0.665652
	H32	H	0.330354	0.218645	0.904150
	H33	H	0.658310	0.221501	0.102073
	H34	H	0.331034	0.789386	0.102756
	H35	H	0.656987	0.788952	0.900938
	H36	H	0.330458	0.907884	0.216073
	H37	H	0.659740	0.103647	0.215654
	H38	H	0.330648	0.101591	0.789059
	H39	H	0.658120	0.907100	0.789383
	H40	H	0.895624	0.219413	0.339115
	H41	H	0.095531	0.221453	0.665114
	H42	H	0.096663	0.787596	0.339829
	H43	H	0.893760	0.788242	0.665316
	H44	H	0.209598	0.340653	0.903457
	H45	H	0.207859	0.667849	0.097840
	H46	H	0.778639	0.341319	0.101742
	H47	H	0.781479	0.667046	0.904999
	H48	H	0.390793	0.122035	0.593570
	H49	H	0.588046	0.888340	0.594810
	H50	H	0.587285	0.120461	0.404109
	H51	H	0.402051	0.890987	0.416069
	H52	H	0.586937	0.413030	0.118942
	H53	H	0.591220	0.594383	0.885512
	H54	H	0.392815	0.595902	0.120874
	H55	H	0.402639	0.408448	0.885574
	H56	H	0.110419	0.595047	0.410382
	H57	H	0.873314	0.611099	0.596457
	H58	H	0.117531	0.409797	0.611712
	H59	H	0.880033	0.411058	0.417071
	H60	H	0.111505	0.398024	0.581158
	H61	H	0.884282	0.591198	0.581426
	H62	H	0.113083	0.598410	0.406642
	H63	H	0.880494	0.416992	0.408364
	H64	H	0.407879	0.592330	0.116028
	H65	H	0.583422	0.597137	0.887523
	H66	H	0.585086	0.414111	0.117219
	H67	H	0.402045	0.410520	0.886129
	H68	H	0.583847	0.116037	0.414041
	H69	H	0.589023	0.887381	0.597229
	H70	H	0.404778	0.121973	0.608027
	H71	H	0.394830	0.886145	0.406426
	H72	H	0.898900	0.619906	0.093196
	H73	H	0.092802	0.387682	0.094394
	H74	H	0.085779	0.618968	0.906827
	H75	H	0.897253	0.388836	0.914823
	H76	H	0.089886	0.908965	0.620142
	H77	H	0.093535	0.091706	0.386461
	H78	H	0.897950	0.096251	0.619221
	H79	H	0.896359	0.906631	0.383237
	H80	H	0.608033	0.090826	0.912292
	H81	H	0.374546	0.107147	0.097453
	H82	H	0.612692	0.904197	0.091476
	H83	H	0.376824	0.911354	0.912100
	H84	H	0.608618	0.917511	0.088661
	H85	H	0.382125	0.095523	0.087586
	H86	H	0.614157	0.099399	0.903328
	H87	H	0.377723	0.912642	0.908742
	H88	H	0.904563	0.093598	0.615919
	H89	H	0.079622	0.096326	0.388798
	H90	H	0.087043	0.913783	0.617943
	H91	H	0.902821	0.918635	0.388443
	H92	H	0.089106	0.618353	0.911190
	H93	H	0.087036	0.386364	0.100839
	H94	H	0.902440	0.619968	0.101700
	H95	H	0.900679	0.386365	0.903624
	H96	H	0.409174	0.115035	0.589187
	H97	H	0.586645	0.887628	0.597173
	H98	H	0.594086	0.120364	0.413164
	H99	H	0.407485	0.888341	0.404333
	H100	H	0.585337	0.411529	0.117532
	H101	H	0.588530	0.602609	0.884495
	H102	H	0.404221	0.607361	0.120060
	H103	H	0.404178	0.410297	0.886155
	H104	H	0.112606	0.600178	0.411659
	H105	H	0.877493	0.586270	0.607094
	H106	H	0.104292	0.428886	0.588066
	H107	H	0.876310	0.407157	0.407809
	H108	H	0.907341	0.617585	0.094964
	H109	H	0.084455	0.389648	0.093596
	H110	H	0.091584	0.619848	0.906396
	H111	H	0.908628	0.391394	0.910431
	H112	H	0.084106	0.909108	0.618639
	H113	H	0.089946	0.105824	0.383271
	H114	H	0.904390	0.100892	0.619239
	H115	H	0.911000	0.906469	0.387233
	H116	H	0.611129	0.102580	0.915767
	H117	H	0.377628	0.091445	0.103270
	H118	H	0.613170	0.914011	0.101469
	H119	H	0.376500	0.909053	0.909426
	C120	C	0.372706	0.012010	0.624688
	C121	C	0.616694	0.995532	0.624637
	C122	C	0.617095	0.011656	0.380623
	C123	C	0.373397	0.996178	0.381210
	C124	C	0.615484	0.383299	0.010238
	C125	C	0.616248	0.626823	0.993906
	C126	C	0.373590	0.625844	0.010492
	C127	C	0.373344	0.382326	0.993994
	C128	C	0.003623	0.625581	0.381185
	C129	C	0.986664	0.625390	0.623607
	C130	C	0.003066	0.382669	0.623608
	C131	C	0.986791	0.383058	0.381853
	C132	C	0.873013	0.512047	0.125374
	C133	C	0.116833	0.495927	0.124123
	C134	C	0.117285	0.511875	0.879749
	C135	C	0.873673	0.496072	0.880841
	C136	C	0.116067	0.882834	0.510721
	C137	C	0.116520	0.126490	0.494178
	C138	C	0.873370	0.125563	0.510362
	C139	C	0.873681	0.881866	0.494092
	C140	C	0.502863	0.125825	0.881752
	C141	C	0.486685	0.126857	0.124560
	C142	C	0.503039	0.883397	0.123353
	C143	C	0.485360	0.883016	0.881182
	C144	C	0.374474	0.889874	0.679776
	C145	C	0.614225	0.117826	0.679641
	C146	C	0.614908	0.890027	0.323825
	C147	C	0.376538	0.118910	0.326628
	C148	C	0.671754	0.385150	0.887445
	C149	C	0.670826	0.623777	0.117117
	C150	C	0.319889	0.622036	0.886711
	C151	C	0.318428	0.386516	0.117480
	C152	C	0.880396	0.680915	0.383098
	C153	C	0.109641	0.681237	0.621252
	C154	C	0.880310	0.326168	0.622576
	C155	C	0.109827	0.327484	0.382657
	C156	C	0.879888	0.384295	0.679247
	C157	C	0.110123	0.622943	0.678079
	C158	C	0.880103	0.622616	0.326353
	C159	C	0.110306	0.385882	0.326458
	C160	C	0.375854	0.681283	0.887589
	C161	C	0.613780	0.682074	0.116737
	C162	C	0.614784	0.326528	0.888001
	C163	C	0.374524	0.327572	0.117236
	C164	C	0.671782	0.889076	0.382390
	C165	C	0.671811	0.117675	0.621225
	C166	C	0.317115	0.889841	0.621402
	C167	C	0.318646	0.118894	0.384395
	C168	C	0.875204	0.389739	0.180255
	C169	C	0.114763	0.618250	0.179412
	C170	C	0.114061	0.389292	0.824700
	C171	C	0.876106	0.618079	0.825327
	C172	C	0.171457	0.886332	0.387437
	C173	C	0.170859	0.123331	0.617720
	C174	C	0.818811	0.122347	0.387043
	C175	C	0.818514	0.885122	0.617130
	C176	C	0.379446	0.180821	0.883924
	C177	C	0.609761	0.182802	0.122242
	C178	C	0.380009	0.827699	0.122596
	C179	C	0.608535	0.827709	0.882600
	C180	C	0.379730	0.886732	0.178598
	C181	C	0.610350	0.124203	0.178583
	C182	C	0.379546	0.122967	0.826578
	C183	C	0.608931	0.886009	0.826540
	C184	C	0.875119	0.181502	0.387736
	C185	C	0.114737	0.182359	0.616931
	C186	C	0.115800	0.826614	0.388190
	C187	C	0.874926	0.826682	0.616805
	C188	C	0.172184	0.389363	0.882515
	C189	C	0.171251	0.618768	0.120122
	C190	C	0.816717	0.390012	0.122580
	C191	C	0.818844	0.618427	0.883556
	C192	C	0.394972	0.097625	0.603291
	C193	C	0.594317	0.909694	0.602899
	C194	C	0.595042	0.096826	0.403711
	C195	C	0.394990	0.910713	0.402603
	C196	C	0.592415	0.406376	0.095877
	C197	C	0.594329	0.604565	0.908047
	C198	C	0.395309	0.604764	0.096517
	C199	C	0.396162	0.403447	0.908261
	C200	C	0.089650	0.604061	0.403002
	C201	C	0.900577	0.602870	0.601476
	C202	C	0.088920	0.405567	0.600417
	C203	C	0.901134	0.405204	0.404463
	C204	C	0.896048	0.597199	0.103095
	C205	C	0.094588	0.410162	0.102649
	C206	C	0.095291	0.597078	0.901845
	C207	C	0.895854	0.410875	0.903079
	C208	C	0.093557	0.904288	0.596574
	C209	C	0.094265	0.104528	0.408435
	C210	C	0.895763	0.103480	0.595984
	C211	C	0.896575	0.904115	0.408393
	C212	C	0.588916	0.103931	0.904045
	C213	C	0.400347	0.104467	0.102557
	C214	C	0.589362	0.905412	0.100461
	C215	C	0.399242	0.904596	0.903487
	Zn216	Zn	0.494612	0.003705	0.753461
	Zn217	Zn	0.495499	0.004892	0.252230
	Zn218	Zn	0.744395	0.504645	0.002310
	Zn219	Zn	0.245549	0.503825	0.001791
	Zn220	Zn	-0.005214	0.754075	0.502287
	Zn221	Zn	-0.004950	0.254387	0.502575
	Zn222	Zn	-0.005067	0.503626	0.751364
	Zn223	Zn	-0.004620	0.503723	0.253868
	Zn224	Zn	0.494626	0.755223	0.002043
	Zn225	Zn	0.494710	0.254038	0.003002
	Zn226	Zn	0.745414	0.003181	0.502002
	Zn227	Zn	0.244089	0.004558	0.502765
	N228	N	0.408192	0.966954	0.681929
	N229	N	0.580835	0.040405	0.681920
	N230	N	0.581673	0.967116	0.322651
	N231	N	0.409793	0.041711	0.324436
	N232	N	0.672209	0.419776	0.964506
	N233	N	0.672724	0.590333	0.039651
	N234	N	0.318090	0.588669	0.964155
	N235	N	0.317559	0.419752	0.040001
	N236	N	0.958005	0.682936	0.416375
	N237	N	0.031716	0.682863	0.588115
	N238	N	0.958078	0.324864	0.588905
	N239	N	0.032091	0.325433	0.416377
	N240	N	0.957184	0.418870	0.679790
	N241	N	0.032504	0.589119	0.679787
	N242	N	0.957796	0.589139	0.324967
	N243	N	0.032993	0.419874	0.325837
	N244	N	0.408497	0.683981	0.965450
	N245	N	0.580534	0.684135	0.039115
	N246	N	0.580417	0.325541	0.965379
	N247	N	0.408137	0.324763	0.039555
	N248	N	0.673494	0.965961	0.416822
	N249	N	0.673504	0.040497	0.587980
	N250	N	0.315893	0.966938	0.587992
	N251	N	0.316505	0.041710	0.417706
	N252	N	0.909367	0.466596	0.181950
	N253	N	0.081560	0.540896	0.181909
	N254	N	0.080845	0.466321	0.822840
	N255	N	0.909534	0.540991	0.823639
	N256	N	0.171871	0.920420	0.464696
	N257	N	0.172109	0.089249	0.540497
	N258	N	0.817375	0.088430	0.464279
	N259	N	0.817599	0.918844	0.539878
	N260	N	0.457247	0.182711	0.917437
	N261	N	0.531691	0.184763	0.089893
	N262	N	0.457812	0.825731	0.088869
	N263	N	0.530425	0.825471	0.915720
	N264	N	0.457431	0.920712	0.179220
	N265	N	0.532803	0.090198	0.180141
	N266	N	0.457185	0.089501	0.825056
	N267	N	0.531560	0.919753	0.825823
	N268	N	0.908364	0.183572	0.465518
	N269	N	0.081714	0.184368	0.539210
	N270	N	0.082029	0.824418	0.465756
	N271	N	0.908484	0.824580	0.539083
	N272	N	0.174186	0.466560	0.916029
	N273	N	0.172801	0.541610	0.086620
	N274	N	0.815236	0.467079	0.088940
	N275	N	0.817212	0.541709	0.917533
	O276	O	0.460331	0.470203	0.448723
	H277	H	0.456238	0.473468	0.461127
	H278	H	0.464763	0.473656	0.441501
	O279	O	0.543167	0.521109	0.496266
	H280	H	0.537738	0.523144	0.491800
	H281	H	0.529843	0.523657	0.491680
	O282	O	0.546167	0.458146	0.454847
	H283	H	0.559648	0.447308	0.438752
	H284	H	0.547979	0.458447	0.448715
	O285	O	-0.032412	0.959807	1.020023
	H286	H	-0.023189	0.959540	1.016889
	H287	H	-0.023674	0.952266	1.017135
	O288	O	1.016063	0.954399	-0.013749
	H289	H	1.020048	0.953701	-0.019628
	H290	H	1.012844	0.949783	-0.011966
	O291	O	0.002057	-0.037636	0.982678
	H292	H	0.008076	-0.048037	0.976770
	H293	H	0.005362	-0.038684	0.978501
	O294	O	0.445972	0.476936	0.483816
	H295	H	0.445513	0.482378	0.485533
	H296	H	0.449726	0.470636	0.482652
	O297	O	0.516253	0.458230	0.540511
	H298	H	0.516053	0.451466	0.544025
	H299	H	0.524644	0.459367	0.531052
	O300	O	0.482905	0.383395	0.498991
	H301	H	0.491352	0.368868	0.506576
	H302	H	0.476615	0.384588	0.511702
	O303	O	0.455133	0.491309	0.438642
	H304	H	0.453582	0.499424	0.433798
	H305	H	0.453824	0.491566	0.436500
	O306	O	0.888698	-0.057716	1.037099
	H307	H	0.882111	-0.042494	1.042543
	H308	H	0.887325	-0.057492	1.029474
	O309	O	0.612506	0.502799	0.467327
	H310	H	0.602722	0.518337	0.472443
	H311	H	0.607366	0.501657	0.461648
	O312	O	0.580832	0.420779	0.490708
	H313	H	0.586737	0.431979	0.498125
	H314	H	0.583510	0.426705	0.481086
	O315	O	0.956464	-0.098887	1.010317
	H316	H	0.951892	-0.098993	1.005577
	H317	H	0.949574	-0.095602	1.012787
	O318	O	-0.026407	0.028500	-0.019815
	H319	H	-0.026303	0.026366	-0.016785
	H320	H	-0.021371	0.031466	-0.011542
	O321	O	0.445465	0.409570	0.556905
	H322	H	0.455492	0.396614	0.553939
	H323	H	0.450382	0.407245	0.567254
	O324	O	0.936446	-0.083991	0.050847
	H325	H	0.935105	-0.079369	0.050552
	H326	H	0.932791	-0.079658	0.061054
	O327	O	0.974380	0.969837	-0.044496
	H328	H	0.967185	0.973405	-0.044526
	H329	H	0.975486	0.963060	-0.045969
	O330	O	0.552330	0.492459	0.450035
	H331	H	0.561501	0.494488	0.453096
	H332	H	0.549970	0.488008	0.449887
	O333	O	0.476323	0.512863	0.528527
	H334	H	0.471682	0.506012	0.525186
	H335	H	0.469414	0.517189	0.535935
