data_Molecule from HDF5

_cell_length_a		16.404271
_cell_length_b		16.190016
_cell_length_c		16.266297
_cell_angle_alpha	89.804012
_cell_angle_beta	89.775381
_cell_angle_gamma	90.417074
_symmetry_space_group_name_H-M	'P 1'
_symmetry_Int_Tables_number		1

loop_
	_symmetry_equiv_pos_as_xyz
	x,y,z

loop_
	_atom_site_label
	_atom_site_type_symbol
	_atom_site_fract_x
	_atom_site_fract_y
	_atom_site_fract_z
	H0	H	0.397585	0.839846	0.714433
	H1	H	0.595748	0.168134	0.709221
	H2	H	0.596848	0.839079	0.283340
	H3	H	0.402337	0.167349	0.282821
	H4	H	0.715048	0.401693	0.834349
	H5	H	0.716027	0.602898	0.159881
	H6	H	0.283206	0.603872	0.834560
	H7	H	0.277557	0.397620	0.159060
	H8	H	0.836160	0.718558	0.395650
	H9	H	0.159906	0.721076	0.595012
	H10	H	0.836014	0.285379	0.597531
	H11	H	0.160657	0.290725	0.398339
	H12	H	0.837185	0.399349	0.715503
	H13	H	0.160084	0.605526	0.712396
	H14	H	0.836884	0.602412	0.279445
	H15	H	0.159989	0.403165	0.278913
	H16	H	0.401234	0.718768	0.834561
	H17	H	0.598273	0.716395	0.161525
	H18	H	0.596553	0.291003	0.833161
	H19	H	0.398334	0.286764	0.161199
	H20	H	0.713464	0.839797	0.395908
	H21	H	0.715076	0.165924	0.597846
	H22	H	0.278251	0.840781	0.603272
	H23	H	0.285333	0.167410	0.397719
	H24	H	0.898092	0.338550	0.212343
	H25	H	0.099800	0.665899	0.211445
	H26	H	0.097748	0.339018	0.781295
	H27	H	0.901666	0.666067	0.782281
	H28	H	0.216630	0.901972	0.335527
	H29	H	0.216333	0.108016	0.659695
	H30	H	0.781120	0.105874	0.334995
	H31	H	0.777122	0.897857	0.658433
	H32	H	0.336149	0.217733	0.898158
	H33	H	0.661111	0.220897	0.095696
	H34	H	0.338119	0.783939	0.100700
	H35	H	0.661524	0.789640	0.897940
	H36	H	0.337814	0.900771	0.215071
	H37	H	0.660455	0.105905	0.214319
	H38	H	0.336899	0.103077	0.782103
	H39	H	0.660610	0.905739	0.780856
	H40	H	0.901779	0.216481	0.332363
	H41	H	0.096398	0.218913	0.660789
	H42	H	0.096016	0.791853	0.332817
	H43	H	0.894708	0.783919	0.659124
	H44	H	0.215246	0.339325	0.894779
	H45	H	0.216970	0.664328	0.099773
	H46	H	0.781258	0.339288	0.098451
	H47	H	0.786067	0.666474	0.895860
	H48	H	0.401104	0.124458	0.596381
	H49	H	0.588644	0.886033	0.589971
	H50	H	0.593679	0.122603	0.400140
	H51	H	0.412899	0.890307	0.414172
	H52	H	0.593297	0.413826	0.113123
	H53	H	0.591912	0.602002	0.879346
	H54	H	0.410911	0.591917	0.111691
	H55	H	0.406938	0.408786	0.880469
	H56	H	0.113945	0.604269	0.408092
	H57	H	0.884760	0.586970	0.589156
	H58	H	0.112946	0.408132	0.585386
	H59	H	0.882736	0.418330	0.394783
	H60	H	0.110924	0.416804	0.587622
	H61	H	0.881292	0.594661	0.594793
	H62	H	0.110597	0.589829	0.406935
	H63	H	0.877896	0.397995	0.401711
	H64	H	0.404040	0.596733	0.115190
	H65	H	0.599253	0.593816	0.880201
	H66	H	0.588563	0.413147	0.112104
	H67	H	0.402388	0.412851	0.880458
	H68	H	0.584790	0.118281	0.406077
	H69	H	0.588714	0.885857	0.589158
	H70	H	0.415957	0.117834	0.590455
	H71	H	0.394905	0.884765	0.410528
	H72	H	0.914547	0.623326	0.105437
	H73	H	0.083044	0.387682	0.084752
	H74	H	0.092348	0.618668	0.909857
	H75	H	0.904115	0.386703	0.912286
	H76	H	0.087810	0.908948	0.614011
	H77	H	0.090420	0.096320	0.381653
	H78	H	0.908463	0.101936	0.613860
	H79	H	0.905516	0.909894	0.380489
	H80	H	0.613072	0.102701	0.908625
	H81	H	0.387156	0.089869	0.086028
	H82	H	0.616922	0.903889	0.091158
	H83	H	0.383622	0.910080	0.906557
	H84	H	0.611853	0.914139	0.082566
	H85	H	0.383198	0.091637	0.095485
	H86	H	0.611371	0.089895	0.904795
	H87	H	0.384570	0.909721	0.908872
	H88	H	0.895718	0.092032	0.615159
	H89	H	0.094037	0.097009	0.380392
	H90	H	0.091880	0.914638	0.613479
	H91	H	0.902577	0.913433	0.380493
	H92	H	0.094350	0.620359	0.902676
	H93	H	0.093120	0.384796	0.085011
	H94	H	0.918581	0.611548	0.074672
	H95	H	0.900523	0.382754	0.902137
	H96	H	0.402350	0.117972	0.580121
	H97	H	0.589245	0.885592	0.589658
	H98	H	0.595611	0.119228	0.410560
	H99	H	0.408351	0.884714	0.396976
	H100	H	0.591005	0.409006	0.114544
	H101	H	0.588756	0.592519	0.883144
	H102	H	0.403262	0.588168	0.113200
	H103	H	0.407742	0.414792	0.883307
	H104	H	0.115462	0.597212	0.395324
	H105	H	0.883895	0.596154	0.585102
	H106	H	0.115836	0.411032	0.593874
	H107	H	0.887152	0.412157	0.415607
	H108	H	0.888561	0.623151	0.083931
	H109	H	0.087442	0.384107	0.092916
	H110	H	0.087671	0.617936	0.903656
	H111	H	0.910876	0.385979	0.903258
	H112	H	0.085915	0.915107	0.611363
	H113	H	0.093401	0.093633	0.382091
	H114	H	0.910066	0.086442	0.609833
	H115	H	0.907555	0.913861	0.382670
	H116	H	0.616550	0.099649	0.896419
	H117	H	0.383166	0.098639	0.088213
	H118	H	0.614753	0.916163	0.097351
	H119	H	0.384947	0.912851	0.907377
	C120	C	0.375999	0.012109	0.619762
	C121	C	0.618601	0.994375	0.618207
	C122	C	0.619969	0.011762	0.375950
	C123	C	0.377484	0.994880	0.377102
	C124	C	0.619747	0.382841	0.005308
	C125	C	0.621975	0.624869	0.988591
	C126	C	0.377449	0.622922	0.005877
	C127	C	0.375834	0.381161	0.989051
	C128	C	0.006474	0.625831	0.373886
	C129	C	0.989917	0.624123	0.618456
	C130	C	0.006504	0.381128	0.618842
	C131	C	0.989422	0.380930	0.374277
	C132	C	0.877073	0.511371	0.118251
	C133	C	0.118809	0.493430	0.117726
	C134	C	0.120387	0.510833	0.875403
	C135	C	0.877226	0.493547	0.875931
	C136	C	0.118724	0.883184	0.505539
	C137	C	0.120854	0.125547	0.489076
	C138	C	0.876206	0.124109	0.505166
	C139	C	0.874994	0.881024	0.488177
	C140	C	0.506817	0.126459	0.874494
	C141	C	0.491013	0.124800	0.119316
	C142	C	0.507863	0.880650	0.120362
	C143	C	0.490889	0.881979	0.876470
	C144	C	0.377133	0.888742	0.676486
	C145	C	0.616813	0.118439	0.672475
	C146	C	0.617920	0.888404	0.320221
	C147	C	0.381048	0.118209	0.320509
	C148	C	0.676050	0.383378	0.882787
	C149	C	0.678168	0.623404	0.111228
	C150	C	0.321254	0.623168	0.883339
	C151	C	0.317518	0.379378	0.110999
	C152	C	0.884719	0.680740	0.375858
	C153	C	0.111443	0.682403	0.616112
	C154	C	0.884458	0.324292	0.617078
	C155	C	0.111841	0.327052	0.376610
	C156	C	0.885139	0.380872	0.675952
	C157	C	0.111615	0.624679	0.674297
	C158	C	0.884944	0.623013	0.317906
	C159	C	0.111509	0.383479	0.317844
	C160	C	0.380492	0.679787	0.883162
	C161	C	0.619374	0.679552	0.112194
	C162	C	0.616916	0.328174	0.882023
	C163	C	0.377430	0.324125	0.111883
	C164	C	0.675819	0.888775	0.376461
	C165	C	0.675858	0.117374	0.616969
	C166	C	0.317800	0.889389	0.621094
	C167	C	0.322927	0.118299	0.377693
	C168	C	0.878189	0.387651	0.174358
	C169	C	0.119164	0.616709	0.173802
	C170	C	0.118210	0.388002	0.819104
	C171	C	0.880800	0.616995	0.819819
	C172	C	0.176695	0.883579	0.383613
	C173	C	0.177227	0.126152	0.611158
	C174	C	0.819963	0.124303	0.383241
	C175	C	0.816899	0.879809	0.610198
	C176	C	0.384899	0.180652	0.877537
	C177	C	0.612634	0.182057	0.116712
	C178	C	0.386331	0.822764	0.120078
	C179	C	0.612802	0.827378	0.877803
	C180	C	0.386289	0.880731	0.177342
	C181	C	0.612403	0.124657	0.175358
	C182	C	0.385351	0.123585	0.819428
	C183	C	0.612253	0.885055	0.819627
	C184	C	0.880292	0.179532	0.381989
	C185	C	0.117599	0.181360	0.611734
	C186	C	0.116772	0.828420	0.382376
	C187	C	0.875121	0.822765	0.610501
	C188	C	0.176514	0.388198	0.875564
	C189	C	0.177543	0.615852	0.118287
	C190	C	0.820128	0.387963	0.117637
	C191	C	0.822934	0.617146	0.875971
	C192	C	0.399557	0.097750	0.596006
	C193	C	0.595633	0.908216	0.596142
	C194	C	0.597886	0.097667	0.398840
	C195	C	0.399018	0.908919	0.400513
	C196	C	0.597460	0.405440	0.091019
	C197	C	0.599872	0.602749	0.903211
	C198	C	0.399517	0.599117	0.091165
	C199	C	0.398929	0.405220	0.903475
	C200	C	0.091427	0.603586	0.396669
	C201	C	0.905230	0.599755	0.596041
	C202	C	0.091352	0.404889	0.595714
	C203	C	0.904508	0.402973	0.397248
	C204	C	0.900262	0.597228	0.094829
	C205	C	0.094763	0.407782	0.094220
	C206	C	0.098065	0.596737	0.898710
	C207	C	0.898855	0.407455	0.899116
	C208	C	0.095397	0.906148	0.590891
	C209	C	0.099083	0.102180	0.403335
	C210	C	0.898203	0.100414	0.590780
	C211	C	0.898422	0.905096	0.403383
	C212	C	0.591813	0.103923	0.896762
	C213	C	0.406501	0.100647	0.096415
	C214	C	0.592447	0.904500	0.097052
	C215	C	0.406277	0.904312	0.900289
	Zn216	Zn	0.498004	0.003618	0.746809
	Zn217	Zn	0.499243	0.002363	0.248404
	Zn218	Zn	0.749593	0.502872	-0.003372
	Zn219	Zn	0.247005	0.501822	-0.002435
	Zn220	Zn	-0.002387	0.753724	0.496650
	Zn221	Zn	-0.001519	0.252933	0.497035
	Zn222	Zn	-0.001361	0.502400	0.748275
	Zn223	Zn	-0.001296	0.502858	0.245699
	Zn224	Zn	0.499487	0.752392	-0.001613
	Zn225	Zn	0.498666	0.254763	-0.003209
	Zn226	Zn	0.746884	0.002956	0.496950
	Zn227	Zn	0.248303	0.003654	0.498387
	N228	N	0.412510	0.966012	0.675965
	N229	N	0.581857	0.040947	0.673302
	N230	N	0.584061	0.965799	0.319592
	N231	N	0.414157	0.040453	0.320000
	N232	N	0.678219	0.416512	0.960583
	N233	N	0.680331	0.590278	0.033498
	N234	N	0.319188	0.588464	0.960780
	N235	N	0.316291	0.413838	0.033530
	N236	N	0.961250	0.682566	0.409888
	N237	N	0.034855	0.682243	0.582354
	N238	N	0.960998	0.324252	0.582414
	N239	N	0.035138	0.325407	0.411125
	N240	N	0.961943	0.415653	0.677021
	N241	N	0.034965	0.589290	0.676058
	N242	N	0.961826	0.589837	0.316347
	N243	N	0.034375	0.416253	0.316295
	N244	N	0.414406	0.680145	0.960319
	N245	N	0.585126	0.680766	0.035093
	N246	N	0.582783	0.327483	0.959285
	N247	N	0.413104	0.325223	0.035086
	N248	N	0.677066	0.966487	0.410337
	N249	N	0.677270	0.039130	0.584041
	N250	N	0.316796	0.967150	0.586753
	N251	N	0.320511	0.040583	0.412202
	N252	N	0.912740	0.465261	0.174982
	N253	N	0.083275	0.539522	0.173505
	N254	N	0.084352	0.465518	0.818733
	N255	N	0.913798	0.539060	0.819587
	N256	N	0.177955	0.916949	0.461298
	N257	N	0.179227	0.091972	0.533786
	N258	N	0.817449	0.090561	0.460879
	N259	N	0.816555	0.915340	0.533319
	N260	N	0.461607	0.182632	0.911040
	N261	N	0.536187	0.182334	0.082478
	N262	N	0.462981	0.822312	0.085535
	N263	N	0.536350	0.825493	0.912669
	N264	N	0.462767	0.915958	0.177678
	N265	N	0.535682	0.089671	0.176978
	N266	N	0.462329	0.090678	0.817382
	N267	N	0.535277	0.918122	0.818417
	N268	N	0.914491	0.179576	0.459022
	N269	N	0.083252	0.181217	0.534806
	N270	N	0.081434	0.828145	0.459195
	N271	N	0.910770	0.823431	0.533795
	N272	N	0.177963	0.465691	0.909873
	N273	N	0.177444	0.538301	0.084072
	N274	N	0.819232	0.465912	0.083362
	N275	N	0.820607	0.539439	0.910261
	O276	O	0.531456	0.440471	0.433370
	H277	H	0.530832	0.436264	0.428769
	H278	H	0.534677	0.449555	0.432065
	O279	O	0.417785	0.540281	0.454535
	H280	H	0.408942	0.536700	0.459130
	H281	H	0.413980	0.544004	0.451913
	O282	O	1.128261	0.956330	-0.024207
	H283	H	1.115493	0.950578	-0.026473
	H284	H	1.132985	0.952335	-0.024088
	O285	O	1.081350	-0.089965	0.902154
	H286	H	1.095449	-0.088849	0.905217
	H287	H	1.083652	-0.094131	0.902714
	O288	O	0.508073	0.600588	0.403092
	H289	H	0.519316	0.591927	0.390654
	H290	H	0.508533	0.594162	0.396794
	O291	O	0.455847	0.428993	0.542983
	H292	H	0.455409	0.433774	0.536565
	H293	H	0.446074	0.428766	0.540065
	O294	O	0.527192	0.635810	0.537254
	H295	H	0.526049	0.633921	0.538757
	H296	H	0.520739	0.639567	0.533891
	O297	O	0.027137	-0.056557	1.081395
	H298	H	0.034691	-0.036318	1.080315
	H299	H	0.028711	-0.052625	1.106984
	O300	O	0.875551	0.225201	0.822764
	H301	H	0.867275	0.216229	0.810885
	H302	H	0.873221	0.234671	0.819927
	O303	O	0.927253	0.900445	0.065108
	H304	H	0.927645	0.896012	0.070521
	H305	H	0.934092	0.904613	0.059629
	O306	O	-0.107157	1.047566	0.978171
	H307	H	-0.113448	1.042303	0.980907
	H308	H	-0.104244	1.040342	0.976566
	O309	O	0.400402	0.530578	0.508044
	H310	H	0.403722	0.528791	0.504010
	H311	H	0.409626	0.532960	0.511424
	O312	O	0.159549	0.081989	0.016282
	H313	H	0.155713	0.089196	0.004949
	H314	H	0.165328	0.078124	0.028757
	O315	O	0.995832	0.076610	0.033131
	H316	H	0.999287	0.078836	0.031386
	H317	H	0.987756	0.067507	0.033594
	O318	O	1.016705	1.067461	1.000133
	H319	H	1.015010	1.070060	0.995446
	H320	H	1.033711	1.073781	0.988100
	O321	O	-0.004298	0.093830	0.948842
	H322	H	0.007521	0.101411	0.950548
	H323	H	-0.001764	0.089343	0.950515
	O324	O	0.461218	0.447198	0.453686
	H325	H	0.465415	0.433835	0.460540
	H326	H	0.466280	0.436796	0.454925
	O327	O	-0.033982	-0.102961	-0.004972
	H328	H	-0.020130	-0.104220	-0.021397
	H329	H	-0.037189	-0.109498	0.003646
	O330	O	0.567557	0.522754	0.541949
	H331	H	0.563319	0.518285	0.552656
	H332	H	0.557553	0.526162	0.541221
	O333	O	0.048567	0.918223	0.938224
	H334	H	0.044677	0.907778	0.937138
	H335	H	0.046554	0.914398	0.942054
	O336	O	-0.048289	0.082509	0.027609
	H337	H	-0.049674	0.088699	0.026209
	H338	H	-0.046209	0.081062	0.032356
	O339	O	0.521022	0.591440	0.510905
	H340	H	0.526837	0.597518	0.501413
	H341	H	0.518641	0.587505	0.515158
	O342	O	0.887050	0.962576	0.971878
	H343	H	0.883773	0.962620	0.976134
	H344	H	0.875895	0.968359	0.975367
	O345	O	0.910148	0.903847	0.066851
	H346	H	0.903346	0.911235	0.069747
	H347	H	0.903261	0.893381	0.065186
	O348	O	0.446901	0.561240	0.471173
	H349	H	0.445186	0.567142	0.472780
	H350	H	0.453699	0.555935	0.474902
	O351	O	0.441286	0.417169	0.561414
	H352	H	0.441536	0.413342	0.557074
	H353	H	0.429510	0.410675	0.565146
	O354	O	0.546953	0.523778	0.508186
	H355	H	0.546956	0.527139	0.518570
	H356	H	0.551058	0.531153	0.510069
	O357	O	1.081696	0.024206	0.922621
	H358	H	1.077662	0.019027	0.941011
	H359	H	1.088506	0.027034	0.926398
	O360	O	0.509322	0.533705	0.565333
	H361	H	0.510497	0.527864	0.574823
	H362	H	0.504176	0.533055	0.567707
	O363	O	0.502979	0.470077	0.549337
	H364	H	0.500534	0.474074	0.557645
	H365	H	0.505408	0.478773	0.545203
	O366	O	0.954534	0.944950	1.027384
	H367	H	0.957222	0.953413	1.028945
	H368	H	0.945111	0.932702	1.034189
	O369	O	0.992091	-0.000001	1.067747
	H370	H	1.004291	0.001259	1.065240
	H371	H	0.980192	-0.010883	1.073429
	O372	O	0.061280	-0.028912	-0.013130
	H373	H	0.079678	-0.038502	-0.014032
	H374	H	0.057306	-0.022812	-0.005720
	O375	O	0.991632	0.025111	-0.030838
	H376	H	0.980571	0.029975	-0.040138
	H377	H	0.986317	0.014003	-0.044974
	O378	O	0.569654	0.453159	0.562568
	H379	H	0.566374	0.456609	0.564149
	H380	H	0.571681	0.448893	0.567275
	O381	O	0.494278	0.434294	0.436306
	H382	H	0.501432	0.437363	0.446345
	H383	H	0.493631	0.432437	0.431344
