data_Molecule from HDF5

_cell_length_a		16.367055
_cell_length_b		16.301379
_cell_length_c		16.160972
_cell_angle_alpha	90.057089
_cell_angle_beta	90.615517
_cell_angle_gamma	89.746428
_symmetry_space_group_name_H-M	'P 1'
_symmetry_Int_Tables_number		1

loop_
	_symmetry_equiv_pos_as_xyz
	x,y,z

loop_
	_atom_site_label
	_atom_site_type_symbol
	_atom_site_fract_x
	_atom_site_fract_y
	_atom_site_fract_z
	H0	H	0.408556	0.838176	0.712317
	H1	H	0.602036	0.166248	0.718452
	H2	H	0.599178	0.838259	0.290729
	H3	H	0.401327	0.166088	0.285308
	H4	H	0.718165	0.400625	0.838624
	H5	H	0.720191	0.601872	0.167338
	H6	H	0.285842	0.604020	0.838876
	H7	H	0.293243	0.404903	0.168332
	H8	H	0.839875	0.720751	0.400055
	H9	H	0.164486	0.722154	0.607265
	H10	H	0.839218	0.290884	0.598923
	H11	H	0.165039	0.285901	0.403160
	H12	H	0.839539	0.406830	0.715703
	H13	H	0.165296	0.604333	0.722301
	H14	H	0.841137	0.604292	0.284270
	H15	H	0.168814	0.407743	0.294262
	H16	H	0.403958	0.716176	0.837418
	H17	H	0.604941	0.718618	0.166869
	H18	H	0.602112	0.286627	0.838022
	H19	H	0.407801	0.287878	0.166756
	H20	H	0.721622	0.841479	0.400868
	H21	H	0.718261	0.166747	0.604838
	H22	H	0.287204	0.840502	0.601008
	H23	H	0.284251	0.165884	0.399856
	H24	H	0.912174	0.339206	0.214625
	H25	H	0.102835	0.667973	0.217969
	H26	H	0.099963	0.339571	0.790723
	H27	H	0.903434	0.667598	0.788883
	H28	H	0.213707	0.904213	0.336655
	H29	H	0.219132	0.103787	0.665498
	H30	H	0.782787	0.106041	0.338721
	H31	H	0.789347	0.905730	0.667509
	H32	H	0.342241	0.220911	0.898831
	H33	H	0.665727	0.216965	0.105462
	H34	H	0.341446	0.786845	0.099091
	H35	H	0.666253	0.784662	0.903711
	H36	H	0.339680	0.903556	0.214193
	H37	H	0.665025	0.099586	0.220981
	H38	H	0.339782	0.100176	0.786601
	H39	H	0.666929	0.902569	0.788800
	H40	H	0.902042	0.217803	0.336905
	H41	H	0.101214	0.216710	0.666869
	H42	H	0.100305	0.787626	0.338590
	H43	H	0.903548	0.789402	0.666965
	H44	H	0.218414	0.339712	0.904684
	H45	H	0.221830	0.665924	0.105742
	H46	H	0.789793	0.339736	0.104635
	H47	H	0.783621	0.664916	0.901191
	H48	H	0.408246	0.118536	0.590523
	H49	H	0.595259	0.885804	0.602839
	H50	H	0.592505	0.117939	0.413998
	H51	H	0.405976	0.883534	0.399153
	H52	H	0.589117	0.415131	0.115299
	H53	H	0.595862	0.595167	0.884381
	H54	H	0.403709	0.593459	0.122042
	H55	H	0.413088	0.409006	0.885725
	H56	H	0.120505	0.596528	0.404360
	H57	H	0.888125	0.590980	0.599420
	H58	H	0.118841	0.411540	0.601556
	H59	H	0.886359	0.410485	0.404077
	H60	H	0.119223	0.404833	0.596001
	H61	H	0.884524	0.605031	0.598017
	H62	H	0.119152	0.605032	0.416998
	H63	H	0.887786	0.409453	0.409282
	H64	H	0.419312	0.588698	0.115905
	H65	H	0.594936	0.590172	0.887164
	H66	H	0.596763	0.399164	0.123365
	H67	H	0.406493	0.410110	0.884288
	H68	H	0.594490	0.119773	0.411864
	H69	H	0.592662	0.890571	0.587352
	H70	H	0.407142	0.120252	0.596549
	H71	H	0.414281	0.889379	0.411884
	H72	H	0.909663	0.622113	0.100984
	H73	H	0.096750	0.386280	0.103509
	H74	H	0.096164	0.617732	0.917531
	H75	H	0.911501	0.388083	0.911714
	H76	H	0.101843	0.908356	0.622079
	H77	H	0.095493	0.098423	0.382687
	H78	H	0.898775	0.098300	0.623186
	H79	H	0.910301	0.915045	0.386283
	H80	H	0.616376	0.090272	0.916469
	H81	H	0.386353	0.098105	0.094594
	H82	H	0.620228	0.912238	0.101025
	H83	H	0.385330	0.900530	0.907997
	H84	H	0.620539	0.905023	0.095440
	H85	H	0.387679	0.097550	0.089201
	H86	H	0.619787	0.091172	0.904805
	H87	H	0.390900	0.913521	0.912602
	H88	H	0.914788	0.089208	0.615452
	H89	H	0.093921	0.092813	0.384703
	H90	H	0.097497	0.922936	0.616678
	H91	H	0.911159	0.912278	0.386199
	H92	H	0.099100	0.620853	0.911860
	H93	H	0.098031	0.389916	0.091840
	H94	H	0.918057	0.616555	0.090817
	H95	H	0.907551	0.386323	0.910586
	H96	H	0.411897	0.118726	0.594417
	H97	H	0.606294	0.885675	0.591765
	H98	H	0.591978	0.118461	0.410734
	H99	H	0.398478	0.885776	0.413835
	H100	H	0.607758	0.415243	0.120427
	H101	H	0.590910	0.594134	0.886238
	H102	H	0.416921	0.605088	0.121495
	H103	H	0.409770	0.414828	0.886731
	H104	H	0.115011	0.590635	0.417624
	H105	H	0.890219	0.597597	0.586166
	H106	H	0.116668	0.412604	0.593139
	H107	H	0.888831	0.414388	0.407587
	H108	H	0.904103	0.619488	0.088505
	H109	H	0.107216	0.385406	0.098796
	H110	H	0.092738	0.619704	0.911154
	H111	H	0.910856	0.386571	0.906936
	H112	H	0.087217	0.910814	0.616530
	H113	H	0.090091	0.098067	0.384482
	H114	H	0.915781	0.109055	0.620880
	H115	H	0.908230	0.912735	0.385331
	H116	H	0.620888	0.100504	0.912498
	H117	H	0.388708	0.092873	0.092742
	H118	H	0.615831	0.912823	0.091423
	H119	H	0.386410	0.912210	0.899367
	C120	C	0.381114	0.011433	0.622314
	C121	C	0.626128	0.994895	0.624445
	C122	C	0.622971	0.011200	0.382043
	C123	C	0.378459	0.994479	0.379347
	C124	C	0.625783	0.380355	0.011220
	C125	C	0.624632	0.623208	0.994129
	C126	C	0.382438	0.624945	0.011225
	C127	C	0.382783	0.381904	0.994357
	C128	C	0.011228	0.626524	0.381373
	C129	C	0.994568	0.626923	0.625605
	C130	C	0.010722	0.382343	0.624186
	C131	C	0.995344	0.382461	0.380109
	C132	C	0.883640	0.511347	0.123101
	C133	C	0.128407	0.495050	0.126921
	C134	C	0.124736	0.511694	0.883520
	C135	C	0.880531	0.494465	0.880254
	C136	C	0.123764	0.883317	0.510509
	C137	C	0.123459	0.125198	0.492812
	C138	C	0.880075	0.126668	0.510805
	C139	C	0.881496	0.884040	0.494561
	C140	C	0.511848	0.123510	0.880547
	C141	C	0.494649	0.124306	0.124054
	C142	C	0.511379	0.880956	0.123622
	C143	C	0.495270	0.879405	0.878932
	C144	C	0.385851	0.887759	0.676267
	C145	C	0.622663	0.117550	0.680820
	C146	C	0.620559	0.887742	0.327273
	C147	C	0.380644	0.117179	0.322901
	C148	C	0.680405	0.381252	0.887681
	C149	C	0.681680	0.621918	0.118032
	C150	C	0.324544	0.623362	0.888080
	C151	C	0.329735	0.383895	0.118494
	C152	C	0.888870	0.682627	0.380696
	C153	C	0.116173	0.683558	0.626255
	C154	C	0.888103	0.328145	0.620293
	C155	C	0.117250	0.325398	0.383613
	C156	C	0.888260	0.385865	0.678393
	C157	C	0.116623	0.624843	0.683467
	C158	C	0.889601	0.624811	0.322861
	C159	C	0.118944	0.385849	0.329037
	C160	C	0.383506	0.679177	0.887200
	C161	C	0.624549	0.679889	0.117883
	C162	C	0.622435	0.324712	0.887182
	C163	C	0.386649	0.326020	0.117634
	C164	C	0.681335	0.889445	0.382258
	C165	C	0.680861	0.117650	0.624551
	C166	C	0.325703	0.888887	0.620708
	C167	C	0.322589	0.117163	0.379949
	C168	C	0.889300	0.388176	0.177874
	C169	C	0.124388	0.618662	0.181152
	C170	C	0.121068	0.388417	0.828318
	C171	C	0.882758	0.618177	0.825919
	C172	C	0.177412	0.883921	0.386477
	C173	C	0.180688	0.124013	0.616350
	C174	C	0.822481	0.124850	0.387398
	C175	C	0.826763	0.885566	0.618220
	C176	C	0.390081	0.181071	0.880111
	C177	C	0.616962	0.179283	0.124892
	C178	C	0.389449	0.825098	0.119862
	C179	C	0.617723	0.823081	0.882639
	C180	C	0.388834	0.883182	0.177052
	C181	C	0.616493	0.121148	0.182571
	C182	C	0.389156	0.121491	0.823955
	C183	C	0.617996	0.881556	0.825478
	C184	C	0.881186	0.180927	0.386474
	C185	C	0.121908	0.179916	0.617050
	C186	C	0.120509	0.826418	0.387146
	C187	C	0.883677	0.827884	0.618166
	C188	C	0.180288	0.388643	0.884893
	C189	C	0.183269	0.617645	0.125166
	C190	C	0.828747	0.388418	0.122982
	C191	C	0.823102	0.616703	0.881620
	C192	C	0.402665	0.096995	0.600148
	C193	C	0.604562	0.909598	0.600808
	C194	C	0.599795	0.096527	0.405292
	C195	C	0.400145	0.908656	0.401785
	C196	C	0.604282	0.403081	0.097495
	C197	C	0.600818	0.600135	0.908256
	C198	C	0.406329	0.602385	0.097556
	C199	C	0.403588	0.404631	0.907708
	C200	C	0.096397	0.604025	0.405779
	C201	C	0.909720	0.604555	0.601566
	C202	C	0.096053	0.403512	0.603087
	C203	C	0.909734	0.404824	0.400665
	C204	C	0.904405	0.597138	0.100164
	C205	C	0.106871	0.409300	0.104692
	C206	C	0.102518	0.597165	0.906696
	C207	C	0.903293	0.409065	0.903059
	C208	C	0.102011	0.907140	0.596339
	C209	C	0.100020	0.103004	0.406197
	C210	C	0.902861	0.105225	0.597492
	C211	C	0.903440	0.906776	0.408364
	C212	C	0.597042	0.100730	0.904309
	C213	C	0.409546	0.102568	0.099478
	C214	C	0.596677	0.903382	0.102348
	C215	C	0.409851	0.902123	0.900276
	Zn216	Zn	0.504026	0.002462	0.751208
	Zn217	Zn	0.501676	0.002289	0.252934
	Zn218	Zn	0.753085	0.501893	0.002716
	Zn219	Zn	0.255008	0.503251	0.004165
	Zn220	Zn	0.001978	0.755461	0.502868
	Zn221	Zn	0.002239	0.252906	0.501611
	Zn222	Zn	0.003254	0.504044	0.754087
	Zn223	Zn	0.005017	0.504586	0.252517
	Zn224	Zn	0.504493	0.752264	0.002331
	Zn225	Zn	0.504292	0.253273	0.001794
	Zn226	Zn	0.753177	0.004459	0.502877
	Zn227	Zn	0.251230	0.003840	0.501434
	N228	N	0.419900	0.964764	0.677281
	N229	N	0.589225	0.040161	0.680957
	N230	N	0.584837	0.964430	0.327151
	N231	N	0.414574	0.039690	0.322150
	N232	N	0.682653	0.415167	0.965674
	N233	N	0.681899	0.587483	0.040171
	N234	N	0.323803	0.590323	0.966610
	N235	N	0.327304	0.417967	0.040707
	N236	N	0.965423	0.683707	0.416571
	N237	N	0.039226	0.685059	0.590942
	N238	N	0.965162	0.325698	0.587232
	N239	N	0.039215	0.323003	0.414718
	N240	N	0.965523	0.418988	0.680952
	N241	N	0.040078	0.590414	0.683277
	N242	N	0.966710	0.590622	0.323363
	N243	N	0.042383	0.420747	0.326853
	N244	N	0.418679	0.680290	0.964838
	N245	N	0.589740	0.680847	0.039981
	N246	N	0.589313	0.323918	0.965129
	N247	N	0.418928	0.324594	0.039316
	N248	N	0.682758	0.967115	0.415728
	N249	N	0.683132	0.040607	0.590272
	N250	N	0.322732	0.966735	0.587979
	N251	N	0.320961	0.040001	0.413983
	N252	N	0.922900	0.465451	0.177963
	N253	N	0.090966	0.541386	0.182361
	N254	N	0.087440	0.465997	0.827153
	N255	N	0.917605	0.541171	0.824784
	N256	N	0.179471	0.918617	0.464111
	N257	N	0.181727	0.090852	0.538169
	N258	N	0.821860	0.091845	0.465796
	N259	N	0.825405	0.919740	0.540381
	N260	N	0.467287	0.182428	0.914597
	N261	N	0.540170	0.181427	0.089211
	N262	N	0.466814	0.823536	0.087284
	N263	N	0.540316	0.821569	0.914970
	N264	N	0.465539	0.917011	0.179619
	N265	N	0.539492	0.087672	0.182076
	N266	N	0.465875	0.086537	0.824047
	N267	N	0.541084	0.916068	0.823170
	N268	N	0.916237	0.182277	0.464077
	N269	N	0.087088	0.180976	0.539007
	N270	N	0.087794	0.825641	0.465246
	N271	N	0.916866	0.826757	0.540194
	N272	N	0.182395	0.466157	0.918681
	N273	N	0.185964	0.539846	0.092193
	N274	N	0.824991	0.466080	0.089739
	N275	N	0.821580	0.538978	0.914607
	O276	O	0.455142	0.458294	0.443545
	H277	H	0.458216	0.456198	0.440082
	H278	H	0.457551	0.458951	0.442531
	O279	O	0.562418	0.475784	0.442998
	H280	H	0.556688	0.485200	0.434938
	H281	H	0.566611	0.464240	0.440396
	O282	O	1.063774	0.896553	0.008086
	H283	H	1.069861	0.902746	0.008871
	H284	H	1.066894	0.893504	0.008917
	O285	O	0.930280	-0.095557	1.026553
	H286	H	0.935213	-0.103012	1.042358
	H287	H	0.922599	-0.099103	1.026495
	O288	O	0.421325	0.479490	0.519134
	H289	H	0.419980	0.486826	0.507667
	H290	H	0.429260	0.465442	0.518933
	O291	O	0.504463	0.513879	0.526115
	H292	H	0.511764	0.509315	0.535930
	H293	H	0.514727	0.503396	0.526681
	O294	O	0.562942	0.529628	0.432028
	H295	H	0.563479	0.539827	0.426723
	H296	H	0.563884	0.525245	0.434399
	O297	O	0.583992	0.598671	0.531029
	H298	H	0.588110	0.593735	0.539765
	H299	H	0.583929	0.607969	0.537509
	O300	O	1.122779	0.071132	1.030238
	H301	H	1.116632	0.080319	1.022486
	H302	H	1.106170	0.066006	1.013240
	O303	O	0.892646	1.135041	-0.034323
	H304	H	0.889032	1.136950	-0.055625
	H305	H	0.876175	1.138429	-0.044702
	O306	O	0.103938	1.062664	0.997679
	H307	H	0.111370	1.058673	1.021629
	H308	H	0.106022	1.079391	0.984000
	O309	O	0.433001	0.504264	0.464781
	H310	H	0.432002	0.513066	0.464486
	H311	H	0.442010	0.513496	0.456307
	O312	O	-0.005728	-0.089162	-0.036769
	H313	H	-0.011065	-0.095710	-0.035925
	H314	H	-0.003695	-0.085623	-0.034955
	O315	O	1.039027	0.024240	0.089657
	H316	H	1.037106	0.041889	0.090622
	H317	H	1.044676	0.021217	0.095144
	O318	O	1.068500	1.038637	0.954788
	H319	H	1.071123	1.048520	0.962045
	H320	H	1.076701	1.032346	0.956545
	O321	O	-0.435912	-0.461113	0.464399
	H322	H	-0.431879	-0.446947	0.461452
	H323	H	-0.443796	-0.462988	0.462431
	O324	O	0.454393	0.382968	0.570631
	H325	H	0.462295	0.373540	0.574636
	H326	H	0.457204	0.385655	0.560005
	O327	O	-0.508839	-0.611227	0.431280
	H328	H	-0.493269	-0.597788	0.431577
	H329	H	-0.495386	-0.613603	0.422652
	O330	O	0.503143	0.497644	0.590068
	H331	H	0.495074	0.504886	0.598172
	H332	H	0.507192	0.485437	0.580058
	O333	O	-0.663909	0.420583	0.585258
	H334	H	-0.671704	0.404674	0.596602
	H335	H	-0.658086	0.403187	0.582445
	O336	O	0.090340	-0.064614	0.088113
	H337	H	0.103983	-0.066966	0.083495
	H338	H	0.098101	-0.052267	0.102765
	O339	O	-0.063224	0.963275	1.084921
	H340	H	-0.069143	0.946082	1.090315
	H341	H	-0.074133	0.981909	1.076156
	O342	O	1.006347	0.961565	1.020886
	H343	H	1.003518	0.954253	1.024425
	H344	H	1.009336	0.969519	1.020393
	O345	O	1.054655	1.012078	-0.055608
	H346	H	1.054864	1.012136	-0.057601
	H347	H	1.055447	1.011955	-0.062539
	O348	O	0.501130	0.585063	0.484690
	H349	H	0.492087	0.586110	0.491510
	H350	H	0.499369	0.588056	0.489275
	O351	O	0.539713	0.555238	0.594740
	H352	H	0.530917	0.552535	0.595115
	H353	H	0.535989	0.558587	0.588580
	O354	O	0.495200	0.592889	0.552824
	H355	H	0.490933	0.601969	0.549288
	H356	H	0.487328	0.584706	0.562964
	O357	O	1.020371	-0.004592	0.881725
	H358	H	1.018455	-0.015995	0.895046
	H359	H	1.020297	0.002441	0.872428
	O360	O	0.572012	0.393288	0.419074
	H361	H	0.577829	0.409282	0.419586
	H362	H	0.583022	0.392692	0.422457
	O363	O	0.958872	1.012295	-0.026090
	H364	H	0.950391	1.024765	-0.024023
	H365	H	0.963741	1.015435	-0.035660
	O366	O	1.027462	0.967515	0.959237
	H367	H	1.028280	0.958641	0.955616
	H368	H	1.037218	0.960703	0.967575
	O369	O	0.965630	-0.056017	1.062666
	H370	H	0.968723	-0.061203	1.074587
	H371	H	0.974924	-0.051759	1.062211
	O372	O	-0.123241	0.060321	-0.116918
	H373	H	-0.123583	0.055120	-0.122202
	H374	H	-0.120214	0.054993	-0.118005
	O375	O	0.948488	0.161985	0.000186
	H376	H	0.962867	0.152451	0.000214
	H377	H	0.960848	0.151011	-0.007598
	O378	O	0.487558	0.590972	0.504424
	H379	H	0.477581	0.586924	0.512321
	H380	H	0.472744	0.596943	0.502822
	O381	O	0.550526	0.549756	0.540698
	H382	H	0.542987	0.539648	0.544114
	H383	H	0.541450	0.557150	0.547559
