data_Molecule from HDF5

_cell_length_a		16.591115
_cell_length_b		16.592289
_cell_length_c		16.645919
_cell_angle_alpha	89.940767
_cell_angle_beta	89.766672
_cell_angle_gamma	90.012525
_symmetry_space_group_name_H-M	'P 1'
_symmetry_Int_Tables_number		1

loop_
	_symmetry_equiv_pos_as_xyz
	x,y,z

loop_
	_atom_site_label
	_atom_site_type_symbol
	_atom_site_fract_x
	_atom_site_fract_y
	_atom_site_fract_z
	H0	H	0.402175	0.850002	0.715871
	H1	H	0.613255	0.161199	0.718579
	H2	H	0.613671	0.852694	0.271817
	H3	H	0.402585	0.164304	0.277561
	H4	H	0.728300	0.400195	0.840961
	H5	H	0.726261	0.611436	0.151635
	H6	H	0.287613	0.608782	0.839814
	H7	H	0.282557	0.399808	0.150987
	H8	H	0.850614	0.730315	0.389362
	H9	H	0.161383	0.724932	0.599350
	H10	H	0.849293	0.283323	0.603359
	H11	H	0.160664	0.285901	0.391829
	H12	H	0.848746	0.398587	0.719416
	H13	H	0.159874	0.610793	0.717455
	H14	H	0.848919	0.612527	0.274428
	H15	H	0.159685	0.400259	0.273907
	H16	H	0.403751	0.725397	0.840484
	H17	H	0.609364	0.727688	0.152443
	H18	H	0.613032	0.284196	0.840723
	H19	H	0.399416	0.284063	0.150987
	H20	H	0.730256	0.853197	0.387235
	H21	H	0.728914	0.161220	0.602689
	H22	H	0.284814	0.850500	0.600753
	H23	H	0.287310	0.164398	0.394501
	H24	H	0.897234	0.350121	0.218186
	H25	H	0.110251	0.660450	0.218502
	H26	H	0.108594	0.350355	0.775718
	H27	H	0.898243	0.661126	0.773092
	H28	H	0.227929	0.901575	0.341498
	H29	H	0.222902	0.108902	0.653555
	H30	H	0.782641	0.114137	0.341906
	H31	H	0.780750	0.898938	0.650206
	H32	H	0.350219	0.227989	0.890069
	H33	H	0.661143	0.228496	0.100775
	H34	H	0.348862	0.787820	0.101029
	H35	H	0.660037	0.783194	0.889280
	H36	H	0.349425	0.903141	0.218019
	H37	H	0.660280	0.114512	0.218663
	H38	H	0.349758	0.110998	0.775410
	H39	H	0.659825	0.898614	0.771671
	H40	H	0.898259	0.230133	0.342226
	H41	H	0.106518	0.225708	0.653328
	H42	H	0.113906	0.783267	0.342208
	H43	H	0.897993	0.782571	0.650370
	H44	H	0.225017	0.350567	0.891439
	H45	H	0.224716	0.661870	0.100332
	H46	H	0.781689	0.350542	0.102101
	H47	H	0.782924	0.661927	0.890618
	H48	H	0.410771	0.120539	0.588286
	H49	H	0.588676	0.898788	0.577518
	H50	H	0.595866	0.120474	0.403067
	H51	H	0.417975	0.894919	0.404363
	H52	H	0.584793	0.424725	0.101161
	H53	H	0.593155	0.590227	0.888063
	H54	H	0.415529	0.596334	0.108324
	H55	H	0.418037	0.420509	0.886173
	H56	H	0.115183	0.592476	0.407830
	H57	H	0.891259	0.597976	0.586331
	H58	H	0.115203	0.418219	0.583641
	H59	H	0.891915	0.415950	0.407433
	H60	H	0.117038	0.417912	0.587988
	H61	H	0.894095	0.593507	0.581712
	H62	H	0.115403	0.592401	0.406389
	H63	H	0.893500	0.417802	0.410335
	H64	H	0.412608	0.599686	0.110244
	H65	H	0.589074	0.597781	0.886626
	H66	H	0.589479	0.406175	0.109143
	H67	H	0.418284	0.412878	0.883430
	H68	H	0.586514	0.115727	0.408346
	H69	H	0.599245	0.893679	0.582453
	H70	H	0.417944	0.119711	0.589978
	H71	H	0.417940	0.896455	0.409816
	H72	H	0.911825	0.619739	0.089964
	H73	H	0.093952	0.394103	0.084244
	H74	H	0.093964	0.618633	0.904407
	H75	H	0.918899	0.395882	0.908405
	H76	H	0.094358	0.912314	0.609849
	H77	H	0.094536	0.097027	0.386166
	H78	H	0.916025	0.087898	0.605464
	H79	H	0.918002	0.915843	0.384669
	H80	H	0.616397	0.091380	0.906580
	H81	H	0.393837	0.095857	0.087692
	H82	H	0.618212	0.911965	0.081937
	H83	H	0.393525	0.917129	0.906028
	H84	H	0.615399	0.923255	0.082179
	H85	H	0.393839	0.096628	0.083890
	H86	H	0.617606	0.095722	0.904655
	H87	H	0.394264	0.916431	0.908133
	H88	H	0.923146	0.095481	0.605293
	H89	H	0.097053	0.099132	0.383562
	H90	H	0.096806	0.918107	0.608396
	H91	H	0.915984	0.922258	0.386413
	H92	H	0.093801	0.617534	0.906860
	H93	H	0.094942	0.392403	0.086657
	H94	H	0.923212	0.615828	0.086613
	H95	H	0.916691	0.395862	0.910774
	H96	H	0.415659	0.117588	0.583561
	H97	H	0.588705	0.894510	0.589654
	H98	H	0.596627	0.117027	0.413899
	H99	H	0.413136	0.894108	0.407154
	H100	H	0.603091	0.421339	0.109465
	H101	H	0.597051	0.596780	0.884068
	H102	H	0.411109	0.594999	0.109614
	H103	H	0.411438	0.417611	0.883646
	H104	H	0.115232	0.593642	0.407182
	H105	H	0.892972	0.591134	0.588522
	H106	H	0.116513	0.414042	0.584751
	H107	H	0.893578	0.419673	0.406911
	H108	H	0.913189	0.615539	0.078262
	H109	H	0.092617	0.393332	0.086614
	H110	H	0.095644	0.618785	0.906194
	H111	H	0.915959	0.395151	0.907852
	H112	H	0.090982	0.916680	0.606403
	H113	H	0.097950	0.094952	0.384275
	H114	H	0.913437	0.097523	0.609291
	H115	H	0.922557	0.920171	0.387281
	H116	H	0.616256	0.095633	0.909312
	H117	H	0.394212	0.092908	0.085136
	H118	H	0.619964	0.917838	0.091543
	H119	H	0.394072	0.918687	0.907578
	C120	C	0.383596	0.015487	0.618381
	C121	C	0.625749	0.998099	0.616340
	C122	C	0.626848	0.015590	0.374891
	C123	C	0.384707	0.998924	0.375723
	C124	C	0.625968	0.385062	0.004042
	C125	C	0.625933	0.627623	0.988396
	C126	C	0.383440	0.627658	0.005221
	C127	C	0.383215	0.384150	0.986963
	C128	C	0.012836	0.626959	0.374158
	C129	C	0.996011	0.626474	0.617094
	C130	C	0.013035	0.384352	0.618151
	C131	C	0.995922	0.385073	0.375436
	C132	C	0.883225	0.514154	0.117539
	C133	C	0.125381	0.496928	0.117100
	C134	C	0.126106	0.515000	0.874444
	C135	C	0.883897	0.498092	0.875763
	C136	C	0.127163	0.884282	0.505368
	C137	C	0.126696	0.128174	0.488010
	C138	C	0.884466	0.127229	0.504806
	C139	C	0.884169	0.884886	0.487677
	C140	C	0.514199	0.127304	0.874599
	C141	C	0.497058	0.127905	0.117222
	C142	C	0.514347	0.885770	0.117943
	C143	C	0.496781	0.884976	0.874515
	C144	C	0.382799	0.897141	0.676606
	C145	C	0.630292	0.114669	0.677850
	C146	C	0.631285	0.899160	0.312749
	C147	C	0.383431	0.117024	0.316801
	C148	C	0.687681	0.382204	0.887488
	C149	C	0.686127	0.630030	0.105230
	C150	C	0.326451	0.627932	0.887128
	C151	C	0.322841	0.381594	0.104122
	C152	C	0.896865	0.689370	0.371300
	C153	C	0.114113	0.685581	0.618240
	C154	C	0.895895	0.323711	0.621263
	C155	C	0.113498	0.325143	0.372856
	C156	C	0.895770	0.381131	0.679063
	C157	C	0.113542	0.628753	0.676814
	C158	C	0.895788	0.630714	0.314422
	C159	C	0.112989	0.382006	0.314303
	C160	C	0.384283	0.685815	0.887348
	C161	C	0.628135	0.687681	0.105586
	C162	C	0.629971	0.324585	0.887389
	C163	C	0.380601	0.323841	0.104099
	C164	C	0.689197	0.899364	0.370045
	C165	C	0.688086	0.114554	0.620278
	C166	C	0.324645	0.897525	0.619385
	C167	C	0.326299	0.117008	0.375288
	C168	C	0.879518	0.397029	0.178067
	C169	C	0.127809	0.614117	0.177459
	C170	C	0.127558	0.397445	0.815361
	C171	C	0.880784	0.614940	0.814536
	C172	C	0.187973	0.882645	0.388433
	C173	C	0.183755	0.127935	0.606576
	C174	C	0.823284	0.131303	0.388332
	C175	C	0.821855	0.880861	0.603758
	C176	C	0.397034	0.187651	0.872270
	C177	C	0.614238	0.188449	0.119101
	C178	C	0.396346	0.826949	0.119861
	C179	C	0.613626	0.823979	0.871522
	C180	C	0.396559	0.884135	0.178144
	C181	C	0.613990	0.131507	0.177516
	C182	C	0.396704	0.129541	0.815185
	C183	C	0.613452	0.880968	0.812859
	C184	C	0.880818	0.189216	0.388544
	C185	C	0.126290	0.186224	0.606216
	C186	C	0.131113	0.823895	0.388614
	C187	C	0.880024	0.823148	0.603790
	C188	C	0.185278	0.397386	0.873087
	C189	C	0.184878	0.614789	0.118995
	C190	C	0.822167	0.397132	0.120261
	C191	C	0.823255	0.615263	0.872584
	C192	C	0.408044	0.097957	0.594273
	C193	C	0.599609	0.916731	0.590617
	C194	C	0.600494	0.096487	0.401041
	C195	C	0.409306	0.916455	0.400164
	C196	C	0.600011	0.410419	0.085200
	C197	C	0.600481	0.602314	0.907339
	C198	C	0.406473	0.603937	0.087941
	C199	C	0.408754	0.409462	0.905631
	C200	C	0.094176	0.600287	0.399483
	C201	C	0.914160	0.601389	0.592557
	C202	C	0.094840	0.409595	0.592656
	C203	C	0.914295	0.410539	0.400979
	C204	C	0.908670	0.595661	0.092261
	C205	C	0.100890	0.414666	0.092691
	C206	C	0.101590	0.597040	0.898907
	C207	C	0.909824	0.416774	0.901512
	C208	C	0.101379	0.908744	0.586944
	C209	C	0.103184	0.104146	0.405912
	C210	C	0.910055	0.100989	0.585866
	C211	C	0.911074	0.911833	0.407121
	C212	C	0.595570	0.101660	0.899684
	C213	C	0.415479	0.102372	0.092574
	C214	C	0.596521	0.910618	0.092648
	C215	C	0.415141	0.910500	0.899986
	Zn216	Zn	0.505598	0.006408	0.745916
	Zn217	Zn	0.505674	0.007358	0.246460
	Zn218	Zn	0.754357	0.506233	-0.003575
	Zn219	Zn	0.254641	0.505836	-0.003888
	Zn220	Zn	0.005523	0.755453	0.495870
	Zn221	Zn	0.004416	0.256439	0.496985
	Zn222	Zn	0.004320	0.505760	0.746211
	Zn223	Zn	0.003915	0.505073	0.246104
	Zn224	Zn	0.505140	0.756876	-0.002959
	Zn225	Zn	0.505577	0.256086	-0.004453
	Zn226	Zn	0.755425	0.006709	0.495934
	Zn227	Zn	0.255552	0.006662	0.496861
	N228	N	0.418401	0.971788	0.676495
	N229	N	0.592413	0.041094	0.675809
	N230	N	0.593146	0.972472	0.315330
	N231	N	0.418921	0.042210	0.316861
	N232	N	0.685363	0.419095	0.961122
	N233	N	0.684874	0.593311	0.031433
	N234	N	0.325696	0.592529	0.961620
	N235	N	0.324204	0.418513	0.030193
	N236	N	0.970866	0.687283	0.407694
	N237	N	0.040125	0.684325	0.581717
	N238	N	0.969799	0.325781	0.584000
	N239	N	0.039477	0.326654	0.410181
	N240	N	0.969701	0.418361	0.677354
	N241	N	0.039056	0.592776	0.676389
	N242	N	0.969118	0.592792	0.315910
	N243	N	0.038837	0.418500	0.315691
	N244	N	0.418845	0.686108	0.962140
	N245	N	0.591477	0.686600	0.031867
	N246	N	0.592169	0.326136	0.960934
	N247	N	0.417639	0.325311	0.030385
	N248	N	0.686665	0.972637	0.407933
	N249	N	0.685493	0.040952	0.582730
	N250	N	0.324771	0.972305	0.584126
	N251	N	0.326553	0.042232	0.410838
	N252	N	0.916892	0.470815	0.176451
	N253	N	0.091642	0.539705	0.176520
	N254	N	0.091629	0.471665	0.815838
	N255	N	0.917674	0.540975	0.816246
	N256	N	0.185648	0.919510	0.462081
	N257	N	0.184327	0.092648	0.532007
	N258	N	0.825523	0.093335	0.461620
	N259	N	0.824264	0.918390	0.530376
	N260	N	0.471234	0.186493	0.908437
	N261	N	0.540562	0.186489	0.082139
	N262	N	0.470750	0.827611	0.083403
	N263	N	0.540113	0.826333	0.909449
	N264	N	0.471233	0.919884	0.177315
	N265	N	0.540191	0.094334	0.176386
	N266	N	0.470636	0.092685	0.816307
	N267	N	0.539719	0.918323	0.814701
	N268	N	0.918138	0.186820	0.461991
	N269	N	0.091645	0.186646	0.531497
	N270	N	0.093999	0.824591	0.462363
	N271	N	0.918177	0.825378	0.530487
	N272	N	0.184856	0.471801	0.908781
	N273	N	0.183547	0.540845	0.082054
	N274	N	0.824039	0.470944	0.083342
	N275	N	0.824889	0.541473	0.909834
	O276	O	0.210656	0.966842	-0.026053
	H277	H	0.221842	0.946434	-0.017385
	H278	H	0.206250	0.945108	-0.020630
	O279	O	0.280297	0.492773	0.695399
	H280	H	0.285532	0.472516	0.702194
	H281	H	0.261664	0.467355	0.710740
	O282	O	0.807922	0.219403	0.979517
	H283	H	0.808249	0.226068	0.974625
	H284	H	0.802108	0.232405	0.969062
	O285	O	0.525090	0.348959	0.609881
	H286	H	0.536987	0.354781	0.601516
	H287	H	0.539599	0.350672	0.608596
	O288	O	0.318750	0.691848	0.684177
	H289	H	0.339296	0.685099	0.659218
	H290	H	0.333881	0.661564	0.675551
	O291	O	0.234331	0.260239	0.258437
	H292	H	0.204339	0.253193	0.267970
	H293	H	0.246521	0.261566	0.240438
	O294	O	0.958581	0.217178	0.788437
	H295	H	0.975581	0.221849	0.779180
	H296	H	0.962526	0.205142	0.791151
	O297	O	0.492573	0.609186	0.276432
	H298	H	0.499321	0.613816	0.288445
	H299	H	0.503125	0.622799	0.267316
	O300	O	0.044755	0.056807	0.779106
	H301	H	0.045987	0.051057	0.780745
	H302	H	0.069301	0.042802	0.785948
	O303	O	0.723476	0.726817	0.517022
	H304	H	0.740151	0.739624	0.529288
	H305	H	0.722999	0.729533	0.545531
	O306	O	0.538899	0.298813	0.284140
	H307	H	0.530387	0.309572	0.299553
	H308	H	0.537016	0.279662	0.272514
	O309	O	0.385599	0.459200	0.428316
	H310	H	0.376380	0.476543	0.429143
	H311	H	0.393289	0.435504	0.443908
	O312	O	0.596734	0.559512	0.668389
	H313	H	0.594157	0.556872	0.679049
	H314	H	0.588085	0.549152	0.666899
	O315	O	0.888209	1.113982	0.890012
	H316	H	0.881750	1.122327	0.899360
	H317	H	0.883444	1.107568	0.899970
	O318	O	0.633361	0.324716	0.438110
	H319	H	0.624273	0.335993	0.438414
	H320	H	0.633526	0.324489	0.432223
	O321	O	0.091499	0.842168	1.134767
	H322	H	0.099362	0.830529	1.136851
	H323	H	0.097489	0.838484	1.134287
	O324	O	1.017839	0.785478	0.017953
	H325	H	1.026599	0.781446	0.040300
	H326	H	1.009249	0.792457	0.010547
	O327	O	-0.041879	0.002893	0.974643
	H328	H	-0.027890	-0.005265	0.981289
	H329	H	-0.039570	-0.002314	0.972283
	O330	O	0.512405	0.549813	0.412230
	H331	H	0.512727	0.553923	0.394575
	H332	H	0.525891	0.550442	0.407474
	O333	O	0.517963	0.316885	0.581175
	H334	H	0.518791	0.309735	0.586889
	H335	H	0.523649	0.324125	0.573316
	O336	O	0.804192	0.102657	0.094151
	H337	H	0.793917	0.102371	0.091407
	H338	H	0.815154	0.111880	0.083632
	O339	O	0.715088	-0.334871	0.706021
	H340	H	0.698567	-0.340950	0.700631
	H341	H	0.708065	-0.328994	0.723584
	O342	O	-0.215925	-0.007232	-0.136729
	H343	H	-0.209596	-0.008255	-0.121525
	H344	H	-0.220377	-0.001035	-0.148655
	O345	O	0.028341	1.216483	1.207472
	H346	H	0.021441	1.204000	1.205084
	H347	H	0.025932	1.229330	1.228520
	O348	O	0.239369	0.246168	0.103470
	H349	H	0.270820	0.261954	0.106490
	H350	H	0.246779	0.237042	0.102149
	O351	O	0.708956	0.475637	0.291141
	H352	H	0.721325	0.475806	0.279978
	H353	H	0.717559	0.467597	0.295940
	O354	O	0.098656	-0.064432	0.933533
	H355	H	0.097784	-0.068241	0.941635
	H356	H	0.101675	-0.066204	0.922085
	O357	O	0.581203	0.507651	0.653588
	H358	H	0.582904	0.499870	0.656211
	H359	H	0.578643	0.508266	0.632671
	O360	O	0.292334	0.296952	0.702084
	H361	H	0.316596	0.284437	0.706635
	H362	H	0.284656	0.271057	0.728669
	O363	O	0.025348	-0.010568	0.219903
	H364	H	0.022295	-0.014311	0.218414
	H365	H	0.023512	0.011002	0.221394
	O366	O	0.607480	0.560493	0.702432
	H367	H	0.618346	0.557418	0.706597
	H368	H	0.607209	0.569040	0.706945
	O369	O	0.972849	-0.192301	-0.184268
	H370	H	0.977545	-0.191511	-0.180142
	H371	H	0.970653	-0.189135	-0.178790
	O372	O	1.051854	0.961886	0.073327
	H373	H	1.050970	0.971355	0.081303
	H374	H	1.054013	0.948884	0.060845
	O375	O	0.794100	-0.202878	0.206984
	H376	H	0.802732	-0.200706	0.182918
	H377	H	0.816262	-0.188077	0.198277
	O378	O	0.289968	0.542072	0.284689
	H379	H	0.282658	0.522802	0.284815
	H380	H	0.285904	0.527866	0.281792
	O381	O	-0.081398	1.095196	1.132789
	H382	H	-0.093851	1.098764	1.133722
	H383	H	-0.090889	1.095416	1.127767
	O384	O	0.786343	-0.208024	1.025544
	H385	H	0.772838	-0.220167	1.020671
	H386	H	0.787633	-0.202255	1.019742
	O387	O	0.986896	1.228506	-0.026274
	H388	H	1.000429	1.222283	-0.033315
	H389	H	0.984735	1.229636	-0.001519
	O390	O	0.679355	0.462844	0.486599
	H391	H	0.676201	0.481390	0.479328
	H392	H	0.684505	0.459410	0.500404
	O393	O	0.609254	0.616039	0.587901
	H394	H	0.600127	0.611749	0.580958
	H395	H	0.609070	0.624691	0.602325
	O396	O	0.207469	1.045017	1.214278
	H397	H	0.205650	1.040971	1.224982
	H398	H	0.214969	1.050965	1.218769
	O399	O	0.228458	-0.028939	0.776085
	H400	H	0.247787	-0.047698	0.760075
	H401	H	0.237667	-0.061515	0.769891
	O402	O	0.377646	0.446159	0.452088
	H403	H	0.359372	0.434592	0.450884
	H404	H	0.376760	0.442328	0.461353
	O405	O	1.036629	0.100772	1.092896
	H406	H	1.045455	0.101461	1.104891
	H407	H	1.041910	0.099171	1.109044
	O408	O	0.138250	0.198322	-0.111805
	H409	H	0.135686	0.199420	-0.099392
	H410	H	0.137045	0.178761	-0.102445
	O411	O	0.560674	0.332119	0.608438
	H412	H	0.566196	0.319839	0.594616
	H413	H	0.561145	0.336333	0.596771
	O414	O	0.514101	0.643236	0.587598
	H415	H	0.506109	0.644295	0.576317
	H416	H	0.507974	0.640961	0.583335
	O417	O	0.498433	0.725061	0.334850
	H418	H	0.512401	0.727755	0.330205
	H419	H	0.511841	0.725472	0.340117
	O420	O	0.228392	0.790239	0.932471
	H421	H	0.230206	0.776146	0.908297
	H422	H	0.241737	0.773326	0.930208
	O423	O	-0.014223	-0.139362	0.826604
	H424	H	-0.015176	-0.132533	0.820540
	H425	H	-0.043951	-0.131279	0.831452
	O426	O	0.385119	0.537216	0.566059
	H427	H	0.373221	0.523272	0.566217
	H428	H	0.377315	0.530064	0.546942
	O429	O	0.851446	0.836005	0.873909
	H430	H	0.849820	0.831956	0.876421
	H431	H	0.861889	0.851521	0.878946
	O432	O	0.310313	0.726074	0.483842
	H433	H	0.291907	0.737584	0.468713
	H434	H	0.308511	0.720777	0.459183
	O435	O	-0.001234	0.830160	0.225869
	H436	H	0.001847	0.808741	0.246417
	H437	H	0.005402	0.836912	0.219739
	O438	O	0.057463	-0.039171	-0.109918
	H439	H	0.064826	-0.026463	-0.113143
	H440	H	0.064422	-0.043268	-0.103558
	O441	O	0.036701	0.034137	0.138916
	H442	H	0.048041	0.033192	0.153542
	H443	H	0.038299	0.039278	0.132067
	O444	O	0.506128	0.561183	0.390916
	H445	H	0.528454	0.551548	0.387388
	H446	H	0.520143	0.568747	0.384092
	O447	O	0.187853	0.794154	0.782814
	H448	H	0.192680	0.775086	0.769287
	H449	H	0.179908	0.774124	0.767912
	O450	O	-0.211245	0.996751	1.169671
	H451	H	-0.230523	1.001293	1.187372
	H452	H	-0.210807	0.995306	1.164093
	O453	O	0.323044	0.509977	0.535632
	H454	H	0.324328	0.531661	0.538623
	H455	H	0.326048	0.497775	0.562265
	O456	O	0.193641	0.093055	0.892795
	H457	H	0.182614	0.086381	0.915343
	H458	H	0.198345	0.068216	0.903403
	O459	O	0.688586	0.693302	0.309365
	H460	H	0.698264	0.703114	0.316780
	H461	H	0.703371	0.700794	0.310450
	O462	O	0.715764	0.296081	0.287145
	H463	H	0.697981	0.305488	0.296366
	H464	H	0.707729	0.296532	0.297976
	O465	O	0.805953	0.202082	-0.180529
	H466	H	0.821316	0.195855	-0.183571
	H467	H	0.816686	0.200058	-0.173127
	O468	O	0.414702	0.427008	0.384415
	H469	H	0.404276	0.445077	0.388900
	H470	H	0.400480	0.426469	0.387255
	O471	O	0.282368	0.286662	0.529917
	H472	H	0.263015	0.264457	0.547458
	H473	H	0.279575	0.287750	0.550986
	O474	O	0.299570	0.633874	0.313509
	H475	H	0.324054	0.610848	0.308988
	H476	H	0.314747	0.619114	0.320235
	O477	O	0.549345	0.378812	1.659869
	H478	H	0.564251	0.376641	1.667133
	H479	H	0.561896	0.373273	1.662453
	O480	O	0.722876	0.452267	0.537014
	H481	H	0.726696	0.465603	0.537850
	H482	H	0.712726	0.455792	0.523971
	O483	O	0.616093	0.686601	0.435263
	H484	H	0.621643	0.687762	0.445511
	H485	H	0.625008	0.690126	0.450961
	O486	O	0.837210	0.047995	1.000212
	H487	H	0.843588	0.054836	0.990939
	H488	H	0.838366	0.050201	1.011108
	O489	O	1.222996	0.790205	0.216209
	H490	H	1.239183	0.781088	0.233193
	H491	H	1.223224	0.786948	0.232354
