data_Molecule from HDF5

_cell_length_a		16.326123
_cell_length_b		16.288542
_cell_length_c		16.383733
_cell_angle_alpha	89.922964
_cell_angle_beta	89.995349
_cell_angle_gamma	90.057850
_symmetry_space_group_name_H-M	'P 1'
_symmetry_Int_Tables_number		1

loop_
	_symmetry_equiv_pos_as_xyz
	x,y,z

loop_
	_atom_site_label
	_atom_site_type_symbol
	_atom_site_fract_x
	_atom_site_fract_y
	_atom_site_fract_z
	H0	H	0.401692	0.835957	0.714285
	H1	H	0.598991	0.163429	0.714983
	H2	H	0.597892	0.836225	0.286004
	H3	H	0.402194	0.163395	0.285302
	H4	H	0.715163	0.401895	0.837258
	H5	H	0.713452	0.597390	0.163236
	H6	H	0.286057	0.598061	0.836933
	H7	H	0.285132	0.400973	0.162861
	H8	H	0.835775	0.713846	0.402840
	H9	H	0.164140	0.713489	0.595512
	H10	H	0.837039	0.286188	0.596612
	H11	H	0.164056	0.286969	0.402865
	H12	H	0.837317	0.400631	0.714080
	H13	H	0.163065	0.599590	0.715004
	H14	H	0.836683	0.597785	0.286175
	H15	H	0.162897	0.401034	0.284351
	H16	H	0.401848	0.715592	0.836990
	H17	H	0.597256	0.713799	0.162703
	H18	H	0.596876	0.286629	0.836506
	H19	H	0.401568	0.284393	0.162319
	H20	H	0.712709	0.836164	0.403277
	H21	H	0.714466	0.163603	0.598514
	H22	H	0.286388	0.835588	0.596669
	H23	H	0.287204	0.164299	0.402989
	H24	H	0.901928	0.337476	0.215114
	H25	H	0.097876	0.663715	0.213510
	H26	H	0.098091	0.336121	0.785215
	H27	H	0.902720	0.663724	0.785426
	H28	H	0.214292	0.903091	0.337005
	H29	H	0.214879	0.098629	0.662813
	H30	H	0.784143	0.099314	0.337592
	H31	H	0.784618	0.901228	0.662834
	H32	H	0.335971	0.212735	0.903153
	H33	H	0.664032	0.213703	0.096323
	H34	H	0.336277	0.785166	0.097181
	H35	H	0.663473	0.785949	0.903063
	H36	H	0.336421	0.902524	0.212958
	H37	H	0.662611	0.098971	0.215418
	H38	H	0.336820	0.097780	0.785409
	H39	H	0.662991	0.900992	0.785525
	H40	H	0.901480	0.215632	0.337701
	H41	H	0.097256	0.213716	0.662648
	H42	H	0.096557	0.787638	0.336413
	H43	H	0.903050	0.786206	0.662927
	H44	H	0.213351	0.335436	0.902462
	H45	H	0.214191	0.663923	0.096909
	H46	H	0.786289	0.336185	0.098617
	H47	H	0.786682	0.664031	0.902784
	H48	H	0.404093	0.117952	0.597928
	H49	H	0.592163	0.884724	0.590600
	H50	H	0.592678	0.116819	0.404048
	H51	H	0.400303	0.881087	0.403911
	H52	H	0.588008	0.405914	0.113830
	H53	H	0.596091	0.598264	0.882196
	H54	H	0.402450	0.588711	0.115357
	H55	H	0.398529	0.408151	0.882722
	H56	H	0.118872	0.600884	0.403313
	H57	H	0.883697	0.598853	0.591835
	H58	H	0.113669	0.415116	0.591117
	H59	H	0.884266	0.409266	0.402942
	H60	H	0.119477	0.406171	0.601920
	H61	H	0.886016	0.588796	0.591006
	H62	H	0.114123	0.594201	0.413659
	H63	H	0.882610	0.403518	0.406631
	H64	H	0.411923	0.589821	0.112709
	H65	H	0.597396	0.589218	0.884994
	H66	H	0.596007	0.402314	0.117461
	H67	H	0.410821	0.412596	0.887306
	H68	H	0.589406	0.114536	0.408561
	H69	H	0.595739	0.882655	0.594117
	H70	H	0.412204	0.115241	0.594819
	H71	H	0.411369	0.883470	0.401688
	H72	H	0.901740	0.619341	0.098764
	H73	H	0.093899	0.383507	0.093031
	H74	H	0.092612	0.615651	0.905767
	H75	H	0.905013	0.382602	0.904721
	H76	H	0.097123	0.899183	0.618363
	H77	H	0.099055	0.087579	0.384957
	H78	H	0.912170	0.101195	0.615763
	H79	H	0.897645	0.918491	0.385291
	H80	H	0.612316	0.084960	0.910641
	H81	H	0.384789	0.093321	0.089313
	H82	H	0.612089	0.915597	0.089754
	H83	H	0.381259	0.900239	0.907566
	H84	H	0.618851	0.906114	0.103723
	H85	H	0.385102	0.088872	0.095120
	H86	H	0.619004	0.093239	0.896951
	H87	H	0.387177	0.911268	0.912849
	H88	H	0.897288	0.092422	0.618013
	H89	H	0.086442	0.091467	0.386788
	H90	H	0.099021	0.913239	0.615700
	H91	H	0.919545	0.906537	0.388011
	H92	H	0.093268	0.615478	0.907647
	H93	H	0.091599	0.383890	0.094586
	H94	H	0.912424	0.615940	0.095643
	H95	H	0.909834	0.383951	0.906277
	H96	H	0.405267	0.115281	0.589472
	H97	H	0.590759	0.883380	0.595696
	H98	H	0.595028	0.116577	0.409622
	H99	H	0.407177	0.885628	0.412433
	H100	H	0.595789	0.411314	0.114775
	H101	H	0.588687	0.593248	0.885990
	H102	H	0.406487	0.597394	0.117026
	H103	H	0.409089	0.399562	0.882854
	H104	H	0.115657	0.588137	0.401601
	H105	H	0.882313	0.592186	0.599817
	H106	H	0.117340	0.400996	0.588216
	H107	H	0.885878	0.408891	0.409614
	H108	H	0.904321	0.615750	0.087900
	H109	H	0.091559	0.384548	0.092281
	H110	H	0.094830	0.616567	0.906434
	H111	H	0.905567	0.384401	0.909778
	H112	H	0.086407	0.906846	0.613557
	H113	H	0.095736	0.100367	0.381578
	H114	H	0.911087	0.084559	0.611960
	H115	H	0.898930	0.894283	0.378942
	H116	H	0.617405	0.101161	0.911461
	H117	H	0.382556	0.095827	0.095549
	H118	H	0.616963	0.898468	0.087332
	H119	H	0.383623	0.911354	0.899605
	C120	C	0.378738	0.007643	0.621721
	C121	C	0.621360	0.991752	0.621693
	C122	C	0.620723	0.008005	0.378975
	C123	C	0.378474	0.991648	0.378170
	C124	C	0.621469	0.378308	0.007972
	C125	C	0.621764	0.621636	0.991780
	C126	C	0.378664	0.621096	0.007764
	C127	C	0.377992	0.378067	0.991675
	C128	C	0.007785	0.622148	0.378442
	C129	C	0.992085	0.621695	0.621424
	C130	C	0.008600	0.378600	0.621409
	C131	C	0.992212	0.378860	0.378320
	C132	C	0.878389	0.508832	0.122048
	C133	C	0.121556	0.491899	0.121710
	C134	C	0.121431	0.507491	0.878602
	C135	C	0.878732	0.491847	0.878813
	C136	C	0.121949	0.878565	0.508004
	C137	C	0.122133	0.121715	0.491687
	C138	C	0.878336	0.121532	0.508007
	C139	C	0.877724	0.878409	0.491648
	C140	C	0.508144	0.121293	0.878123
	C141	C	0.492120	0.121232	0.121484
	C142	C	0.507867	0.878453	0.121319
	C143	C	0.491772	0.878991	0.878664
	C144	C	0.381221	0.884562	0.676565
	C145	C	0.618964	0.114805	0.676448
	C146	C	0.618115	0.885023	0.324160
	C147	C	0.381436	0.114883	0.323164
	C148	C	0.676815	0.381309	0.885584
	C149	C	0.676053	0.618416	0.114446
	C150	C	0.323461	0.619109	0.885488
	C151	C	0.322866	0.380315	0.114134
	C152	C	0.884749	0.676090	0.381990
	C153	C	0.115012	0.676285	0.617274
	C154	C	0.885901	0.323768	0.617629
	C155	C	0.115004	0.324031	0.381132
	C156	C	0.886106	0.380509	0.676235
	C157	C	0.114622	0.619522	0.676487
	C158	C	0.885112	0.618628	0.323992
	C159	C	0.114502	0.381045	0.322698
	C160	C	0.381516	0.676849	0.885509
	C161	C	0.618109	0.675951	0.114338
	C162	C	0.618336	0.323785	0.885419
	C163	C	0.380872	0.322720	0.114030
	C164	C	0.675264	0.884910	0.382276
	C165	C	0.676531	0.114970	0.618767
	C166	C	0.324142	0.884514	0.618100
	C167	C	0.324452	0.115149	0.381657
	C168	C	0.881312	0.385865	0.177037
	C169	C	0.118909	0.615016	0.176003
	C170	C	0.118622	0.384617	0.823470
	C171	C	0.881770	0.614993	0.823484
	C172	C	0.176800	0.881993	0.385593
	C173	C	0.176987	0.118908	0.614209
	C174	C	0.822830	0.119273	0.385979
	C175	C	0.822781	0.880754	0.614205
	C176	C	0.384910	0.175164	0.881907
	C177	C	0.615088	0.176017	0.117673
	C178	C	0.385095	0.823252	0.118290
	C179	C	0.614730	0.823845	0.881999
	C180	C	0.385243	0.881192	0.176036
	C181	C	0.614526	0.119332	0.176808
	C182	C	0.385253	0.118320	0.823367
	C183	C	0.614418	0.880632	0.823370
	C184	C	0.880863	0.177218	0.385951
	C185	C	0.118799	0.176169	0.614143
	C186	C	0.117938	0.825019	0.385209
	C187	C	0.881266	0.823604	0.614343
	C188	C	0.175772	0.384379	0.881794
	C189	C	0.176645	0.614975	0.118079
	C190	C	0.824028	0.385341	0.119141
	C191	C	0.824271	0.615172	0.881683
	C192	C	0.400647	0.093895	0.600402
	C193	C	0.599296	0.905908	0.599956
	C194	C	0.598865	0.093784	0.400901
	C195	C	0.399950	0.905599	0.399554
	C196	C	0.599625	0.400142	0.093440
	C197	C	0.600436	0.599869	0.906387
	C198	C	0.400484	0.598663	0.093004
	C199	C	0.399756	0.400222	0.906376
	C200	C	0.093907	0.600687	0.399955
	C201	C	0.906075	0.599771	0.600311
	C202	C	0.094761	0.400729	0.599966
	C203	C	0.906466	0.400709	0.400068
	C204	C	0.899874	0.594838	0.100419
	C205	C	0.098891	0.406079	0.099987
	C206	C	0.099834	0.593599	0.900166
	C207	C	0.900434	0.405861	0.900653
	C208	C	0.100410	0.900159	0.593895
	C209	C	0.100063	0.099748	0.406412
	C210	C	0.900492	0.099260	0.593317
	C211	C	0.898997	0.900215	0.406131
	C212	C	0.594076	0.099776	0.899930
	C213	C	0.406230	0.099088	0.099734
	C214	C	0.593763	0.900482	0.099784
	C215	C	0.406125	0.901081	0.900326
	Zn216	Zn	0.500262	0.000009	0.750283
	Zn217	Zn	0.500250	-0.000214	0.250272
	Zn218	Zn	0.750435	0.500253	0.000442
	Zn219	Zn	0.249491	0.499700	0.000040
	Zn220	Zn	-0.000215	0.750856	0.499629
	Zn221	Zn	0.000806	0.250370	0.499484
	Zn222	Zn	0.000083	0.499672	0.750204
	Zn223	Zn	0.000046	0.500373	0.250106
	Zn224	Zn	0.500113	0.750061	-0.000247
	Zn225	Zn	0.499774	0.249426	-0.000097
	Zn226	Zn	0.748930	-0.000174	0.500146
	Zn227	Zn	0.250724	0.000011	0.500231
	N228	N	0.414546	0.962244	0.678999
	N229	N	0.585548	0.037259	0.678466
	N230	N	0.585246	0.962623	0.321837
	N231	N	0.414139	0.037179	0.320826
	N232	N	0.679045	0.414370	0.962778
	N233	N	0.678303	0.585254	0.037297
	N234	N	0.321471	0.585355	0.962359
	N235	N	0.321055	0.414212	0.037275
	N236	N	0.962060	0.678209	0.415075
	N237	N	0.037783	0.677717	0.583710
	N238	N	0.963342	0.322427	0.584340
	N239	N	0.038058	0.322727	0.415166
	N240	N	0.963402	0.413782	0.678559
	N241	N	0.037264	0.586241	0.678978
	N242	N	0.962774	0.585894	0.321585
	N243	N	0.037094	0.414210	0.320819
	N244	N	0.415036	0.678231	0.962528
	N245	N	0.585103	0.678063	0.037150
	N246	N	0.584426	0.322237	0.962280
	N247	N	0.414432	0.321316	0.037030
	N248	N	0.676760	0.962163	0.415799
	N249	N	0.678038	0.037503	0.585321
	N250	N	0.322635	0.961940	0.584901
	N251	N	0.322633	0.037795	0.415225
	N252	N	0.914239	0.463542	0.179067
	N253	N	0.085389	0.537512	0.178458
	N254	N	0.085469	0.462070	0.821635
	N255	N	0.914860	0.537331	0.821721
	N256	N	0.179298	0.914484	0.463041
	N257	N	0.179107	0.085739	0.537053
	N258	N	0.820950	0.085566	0.462892
	N259	N	0.820192	0.913991	0.536967
	N260	N	0.462246	0.177117	0.915226
	N261	N	0.537834	0.177332	0.084194
	N262	N	0.462342	0.821567	0.084960
	N263	N	0.537554	0.822735	0.915674
	N264	N	0.462565	0.914731	0.178007
	N265	N	0.537217	0.086005	0.179038
	N266	N	0.462827	0.085564	0.821170
	N267	N	0.537162	0.914201	0.821363
	N268	N	0.914935	0.178541	0.462689
	N269	N	0.085516	0.178097	0.537016
	N270	N	0.084577	0.823006	0.462328
	N271	N	0.914642	0.822150	0.537328
	N272	N	0.177532	0.461802	0.915353
	N273	N	0.178225	0.537454	0.085129
	N274	N	0.822118	0.462677	0.085608
	N275	N	0.822207	0.537863	0.915286
