data_Molecule from HDF5

_cell_length_a		16.463235
_cell_length_b		16.482433
_cell_length_c		16.590071
_cell_angle_alpha	90.084475
_cell_angle_beta	89.973036
_cell_angle_gamma	89.886263
_symmetry_space_group_name_H-M	'P 1'
_symmetry_Int_Tables_number		1

loop_
	_symmetry_equiv_pos_as_xyz
	x,y,z

loop_
	_atom_site_label
	_atom_site_type_symbol
	_atom_site_fract_x
	_atom_site_fract_y
	_atom_site_fract_z
	H0	H	0.367172	0.836966	0.697611
	H1	H	0.582602	0.149819	0.694111
	H2	H	0.585675	0.836725	0.248331
	H3	H	0.369231	0.149753	0.249705
	H4	H	0.698110	0.386530	0.816405
	H5	H	0.696622	0.597012	0.128514
	H6	H	0.251267	0.600696	0.815784
	H7	H	0.253623	0.386461	0.128529
	H8	H	0.819365	0.712432	0.368754
	H9	H	0.134428	0.717124	0.580699
	H10	H	0.820520	0.273737	0.574900
	H11	H	0.134066	0.268136	0.362878
	H12	H	0.822449	0.386538	0.694505
	H13	H	0.132789	0.604469	0.699161
	H14	H	0.819833	0.596527	0.252259
	H15	H	0.133809	0.383329	0.246389
	H16	H	0.365129	0.718506	0.815830
	H17	H	0.580436	0.714234	0.127692
	H18	H	0.580833	0.271652	0.815832
	H19	H	0.369368	0.270187	0.128742
	H20	H	0.698436	0.836238	0.367289
	H21	H	0.695790	0.151711	0.574818
	H22	H	0.253337	0.835921	0.580480
	H23	H	0.254200	0.150344	0.367471
	H24	H	0.874897	0.335084	0.190972
	H25	H	0.086629	0.649111	0.196542
	H26	H	0.084921	0.336795	0.748256
	H27	H	0.869330	0.649339	0.749222
	H28	H	0.202078	0.883642	0.317103
	H29	H	0.200118	0.099733	0.627941
	H30	H	0.756604	0.097526	0.315181
	H31	H	0.756590	0.890478	0.629125
	H32	H	0.318112	0.215422	0.867717
	H33	H	0.634772	0.211370	0.073915
	H34	H	0.319264	0.768404	0.079954
	H35	H	0.634142	0.773935	0.868943
	H36	H	0.320702	0.883469	0.197262
	H37	H	0.633999	0.096763	0.191377
	H38	H	0.319328	0.102263	0.748278
	H39	H	0.634580	0.890488	0.753279
	H40	H	0.873300	0.213677	0.315542
	H41	H	0.083964	0.215813	0.628441
	H42	H	0.084780	0.769470	0.316211
	H43	H	0.871219	0.771315	0.628025
	H44	H	0.198220	0.335024	0.866932
	H45	H	0.200176	0.649770	0.078972
	H46	H	0.759344	0.334432	0.074105
	H47	H	0.755287	0.650479	0.867513
	H48	H	0.385356	0.104615	0.556850
	H49	H	0.563354	0.881126	0.562156
	H50	H	0.566382	0.107990	0.377193
	H51	H	0.389151	0.881441	0.386074
	H52	H	0.572945	0.405302	0.085868
	H53	H	0.564260	0.585612	0.858295
	H54	H	0.389936	0.583711	0.082220
	H55	H	0.388347	0.403295	0.860735
	H56	H	0.088841	0.577291	0.385365
	H57	H	0.867396	0.578780	0.558944
	H58	H	0.090584	0.406185	0.558393
	H59	H	0.868781	0.407954	0.388543
	H60	H	0.090660	0.407049	0.560439
	H61	H	0.865307	0.580276	0.562714
	H62	H	0.091294	0.579821	0.379627
	H63	H	0.863426	0.407737	0.374064
	H64	H	0.386867	0.579710	0.082675
	H65	H	0.570104	0.582287	0.857725
	H66	H	0.562528	0.406353	0.081791
	H67	H	0.387564	0.404976	0.861352
	H68	H	0.562281	0.105307	0.381734
	H69	H	0.566664	0.880732	0.558812
	H70	H	0.390035	0.105025	0.564622
	H71	H	0.390295	0.880738	0.382769
	H72	H	0.891937	0.605883	0.063815
	H73	H	0.066978	0.380316	0.060690
	H74	H	0.067195	0.608294	0.877693
	H75	H	0.886303	0.380498	0.886512
	H76	H	0.067462	0.903302	0.584561
	H77	H	0.066059	0.080004	0.360520
	H78	H	0.888140	0.083266	0.583908
	H79	H	0.892733	0.896945	0.359325
	H80	H	0.586987	0.076245	0.879643
	H81	H	0.363362	0.082472	0.059274
	H82	H	0.589690	0.898431	0.057774
	H83	H	0.364929	0.907399	0.886758
	H84	H	0.583766	0.909084	0.055575
	H85	H	0.363432	0.079544	0.060226
	H86	H	0.592167	0.086761	0.876247
	H87	H	0.362962	0.908553	0.882752
	H88	H	0.886164	0.086821	0.586402
	H89	H	0.064807	0.079849	0.360819
	H90	H	0.064644	0.909816	0.581881
	H91	H	0.879425	0.902033	0.357037
	H92	H	0.052827	0.600945	0.885469
	H93	H	0.062265	0.381708	0.061682
	H94	H	0.884860	0.606411	0.057973
	H95	H	0.885722	0.377966	0.878491
	H96	H	0.393645	0.101388	0.557334
	H97	H	0.568050	0.879305	0.563245
	H98	H	0.568706	0.106226	0.383071
	H99	H	0.392292	0.882811	0.384787
	H100	H	0.565594	0.396555	0.086670
	H101	H	0.564345	0.579466	0.860543
	H102	H	0.390972	0.579156	0.079921
	H103	H	0.389341	0.404444	0.861450
	H104	H	0.090883	0.583422	0.385494
	H105	H	0.866187	0.582917	0.559283
	H106	H	0.091324	0.405602	0.560280
	H107	H	0.862161	0.395223	0.382732
	H108	H	0.883568	0.608947	0.066807
	H109	H	0.063813	0.382057	0.057227
	H110	H	0.067790	0.602612	0.893935
	H111	H	0.893017	0.381255	0.881354
	H112	H	0.060119	0.903631	0.582147
	H113	H	0.065113	0.080903	0.360942
	H114	H	0.884008	0.083070	0.585949
	H115	H	0.889790	0.910947	0.362923
	H116	H	0.587706	0.085185	0.887269
	H117	H	0.362882	0.082235	0.061989
	H118	H	0.589218	0.907105	0.066313
	H119	H	0.362688	0.904223	0.883941
	C120	C	0.355348	0.000702	0.593736
	C121	C	0.597612	0.984767	0.592925
	C122	C	0.598542	0.002343	0.349171
	C123	C	0.355931	0.984639	0.351103
	C124	C	0.598232	0.370823	-0.018731
	C125	C	0.598088	0.614325	0.962511
	C126	C	0.354553	0.614914	-0.020814
	C127	C	0.355145	0.371568	0.964397
	C128	C	-0.013622	0.613092	0.351396
	C129	C	0.969333	0.615057	0.594263
	C130	C	-0.013058	0.373362	0.592061
	C131	C	0.968898	0.370556	0.349119
	C132	C	0.855891	0.501910	0.093567
	C133	C	0.098527	0.484480	0.093615
	C134	C	0.096665	0.500852	0.852113
	C135	C	0.855130	0.484044	0.849830
	C136	C	0.098582	0.871549	0.480363
	C137	C	0.098460	0.113708	0.463663
	C138	C	0.855418	0.115309	0.480892
	C139	C	0.855323	0.871688	0.463509
	C140	C	0.484965	0.115988	0.849056
	C141	C	0.467849	0.113038	0.092062
	C142	C	0.484248	0.871001	0.093590
	C143	C	0.467718	0.873717	0.852012
	C144	C	0.350593	0.883628	0.656095
	C145	C	0.600130	0.103115	0.653276
	C146	C	0.602660	0.884117	0.288842
	C147	C	0.351537	0.102570	0.290051
	C148	C	0.657945	0.368619	0.863276
	C149	C	0.657352	0.616269	0.080792
	C150	C	0.291968	0.618805	0.862504
	C151	C	0.293934	0.368708	0.081540
	C152	C	0.867238	0.673110	0.349943
	C153	C	0.086927	0.676990	0.598343
	C154	C	0.868121	0.313436	0.593828
	C155	C	0.086984	0.308683	0.345238
	C156	C	0.868900	0.369522	0.653159
	C157	C	0.086205	0.620865	0.657503
	C158	C	0.867466	0.615694	0.291613
	C159	C	0.086663	0.366177	0.287271
	C160	C	0.348740	0.677626	0.862741
	C161	C	0.599426	0.674422	0.080663
	C162	C	0.599758	0.311195	0.863135
	C163	C	0.351699	0.310564	0.081734
	C164	C	0.659172	0.883841	0.347854
	C165	C	0.656728	0.103944	0.594173
	C166	C	0.293538	0.883040	0.597839
	C167	C	0.294274	0.102813	0.348591
	C168	C	0.855622	0.382468	0.151716
	C169	C	0.103119	0.602155	0.155642
	C170	C	0.101428	0.383100	0.790055
	C171	C	0.851854	0.602226	0.789553
	C172	C	0.161089	0.867083	0.363692
	C173	C	0.159276	0.117369	0.581290
	C174	C	0.796829	0.115979	0.362241
	C175	C	0.795959	0.870849	0.581739
	C176	C	0.365887	0.175962	0.847971
	C177	C	0.587119	0.171875	0.093006
	C178	C	0.366557	0.809420	0.097229
	C179	C	0.586784	0.813783	0.850257
	C180	C	0.367125	0.866497	0.155896
	C181	C	0.586837	0.114915	0.151334
	C182	C	0.366527	0.119534	0.788592
	C183	C	0.587027	0.871831	0.792855
	C184	C	0.854580	0.174091	0.362628
	C185	C	0.101601	0.175400	0.581170
	C186	C	0.102715	0.809908	0.363377
	C187	C	0.853298	0.811869	0.581295
	C188	C	0.158080	0.382517	0.848910
	C189	C	0.160017	0.602386	0.097108
	C190	C	0.798225	0.382259	0.093614
	C191	C	0.794903	0.602733	0.848435
	C192	C	0.381935	0.082422	0.567064
	C193	C	0.573064	0.901964	0.568441
	C194	C	0.573035	0.084940	0.373751
	C195	C	0.382920	0.902972	0.377071
	C196	C	0.573846	0.395599	0.063514
	C197	C	0.573370	0.589680	0.880473
	C198	C	0.381365	0.588387	0.060216
	C199	C	0.381014	0.396962	0.882471
	C200	C	0.068877	0.587440	0.376401
	C201	C	0.887628	0.588306	0.567872
	C202	C	0.069437	0.399060	0.566731
	C203	C	0.886404	0.396363	0.374711
	C204	C	0.879892	0.585344	0.069686
	C205	C	0.071866	0.402599	0.067475
	C206	C	0.070169	0.582643	0.878228
	C207	C	0.881091	0.401366	0.874788
	C208	C	0.071819	0.898256	0.561820
	C209	C	0.072770	0.087747	0.382107
	C210	C	0.879364	0.091198	0.563746
	C211	C	0.880421	0.896201	0.381118
	C212	C	0.567505	0.090068	0.874044
	C213	C	0.384934	0.088328	0.067570
	C214	C	0.566340	0.897376	0.067336
	C215	C	0.385281	0.899245	0.877131
	Zn216	Zn	0.476100	-0.006937	0.721803
	Zn217	Zn	0.476133	-0.007032	0.221463
	Zn218	Zn	0.727188	0.492297	-0.028000
	Zn219	Zn	0.226294	0.493297	-0.028175
	Zn220	Zn	-0.022263	0.742754	0.472161
	Zn221	Zn	-0.021785	0.243649	0.471976
	Zn222	Zn	-0.021894	0.493156	0.721528
	Zn223	Zn	-0.022337	0.492437	0.221467
	Zn224	Zn	0.475642	0.743189	-0.029119
	Zn225	Zn	0.476246	0.242586	-0.027579
	Zn226	Zn	0.726245	-0.006334	0.472086
	Zn227	Zn	0.227235	-0.007563	0.472764
	N228	N	0.388047	0.957838	0.653839
	N229	N	0.564051	0.028006	0.652557
	N230	N	0.565428	0.958796	0.289726
	N231	N	0.388815	0.027857	0.291180
	N232	N	0.657277	0.404982	0.937797
	N233	N	0.656694	0.579703	0.006420
	N234	N	0.295273	0.580537	0.935964
	N235	N	0.296120	0.405976	0.007604
	N236	N	0.942292	0.671797	0.386100
	N237	N	0.013249	0.673564	0.559777
	N238	N	0.942582	0.315740	0.556471
	N239	N	0.012774	0.311195	0.383087
	N240	N	0.943736	0.406109	0.652231
	N241	N	0.011858	0.583018	0.655210
	N242	N	0.942628	0.579304	0.292000
	N243	N	0.012270	0.403966	0.289650
	N244	N	0.386981	0.675376	0.936400
	N245	N	0.563343	0.673518	0.006023
	N246	N	0.563522	0.312279	0.937504
	N247	N	0.389133	0.312183	0.007683
	N248	N	0.657038	0.958494	0.384629
	N249	N	0.655192	0.029405	0.557166
	N250	N	0.296627	0.957016	0.559553
	N251	N	0.296655	0.028391	0.385714
	N252	N	0.890340	0.458146	0.151975
	N253	N	0.065776	0.527622	0.153654
	N254	N	0.064159	0.457745	0.791717
	N255	N	0.888581	0.527310	0.790222
	N256	N	0.158443	0.904879	0.437621
	N257	N	0.157520	0.079673	0.507498
	N258	N	0.796900	0.080373	0.437094
	N259	N	0.796774	0.907125	0.507248
	N260	N	0.440499	0.173931	0.884834
	N261	N	0.512176	0.170870	0.056845
	N262	N	0.440823	0.811855	0.059429
	N263	N	0.511654	0.814747	0.886222
	N264	N	0.441496	0.903931	0.153842
	N265	N	0.511484	0.079229	0.151037
	N266	N	0.441736	0.082922	0.789160
	N267	N	0.511863	0.908237	0.793683
	N268	N	0.890223	0.173760	0.437419
	N269	N	0.064400	0.173255	0.506984
	N270	N	0.064672	0.812497	0.436926
	N271	N	0.889050	0.812069	0.506574
	N272	N	0.155260	0.456698	0.886801
	N273	N	0.157431	0.528264	0.059406
	N274	N	0.798315	0.457646	0.058032
	N275	N	0.796664	0.527941	0.884914
	O276	O	0.538803	0.653711	0.565666
	H277	H	0.546896	0.648176	0.590062
	H278	H	0.550865	0.659917	0.573114
	O279	O	0.650945	0.662786	0.620417
	H280	H	0.651771	0.687474	0.638972
	H281	H	0.649270	0.638230	0.625440
	O282	O	0.986024	0.773970	-0.010897
	H283	H	0.996966	0.762014	-0.002465
	H284	H	0.997635	0.779205	0.012476
	O285	O	0.950763	0.019423	0.970741
	H286	H	0.947774	0.012251	0.975489
	H287	H	0.926988	0.026076	0.980426
	O288	O	-0.065201	0.082560	-0.212803
	H289	H	-0.059341	0.081161	-0.201164
	H290	H	-0.054435	0.074205	-0.210892
	O291	O	1.312824	1.658901	0.282333
	H292	H	1.323022	1.639252	0.294412
	H293	H	1.319949	1.659936	0.301260
	O294	O	0.159939	1.176999	0.156159
	H295	H	0.151036	1.158308	0.153544
	H296	H	0.131660	1.181484	0.161244
	O297	O	0.671980	0.292541	0.297272
	H298	H	0.648186	0.284828	0.287506
	H299	H	0.676522	0.312644	0.321611
	O300	O	-0.011071	1.077000	0.910563
	H301	H	-0.001855	1.088620	0.917048
	H302	H	-0.015605	1.067334	0.928036
	O303	O	0.269036	0.387774	0.445979
	H304	H	0.264308	0.376352	0.432233
	H305	H	0.268678	0.391190	0.432385
	O306	O	-0.051162	0.785608	0.830180
	H307	H	-0.042653	0.786312	0.839666
	H308	H	-0.033966	0.764726	0.814071
	O309	O	0.402951	0.438071	0.274262
	H310	H	0.421765	0.439481	0.265936
	H311	H	0.400358	0.460271	0.289791
	O312	O	0.498596	0.507325	0.347436
	H313	H	0.506634	0.507676	0.363867
	H314	H	0.515465	0.495247	0.351318
	O315	O	-0.205131	0.208084	1.158415
	H316	H	-0.190696	0.191121	1.165015
	H317	H	-0.235800	0.212592	1.149704
	O318	O	-0.207498	0.895559	-0.152345
	H319	H	-0.201496	0.908839	-0.143419
	H320	H	-0.189591	0.891536	-0.131218
	O321	O	0.473689	0.569529	0.567156
	H322	H	0.474573	0.586329	0.589115
	H323	H	0.456606	0.550418	0.568402
	O324	O	0.496788	0.422964	0.692445
	H325	H	0.512503	0.417949	0.690866
	H326	H	0.504981	0.425045	0.695070
	O327	O	1.072178	0.062402	0.982766
	H328	H	1.068966	0.048611	0.985415
	H329	H	1.062536	0.041077	1.000184
	O330	O	0.996790	0.196154	0.174174
	H331	H	0.977607	0.200461	0.177373
	H332	H	0.980987	0.205324	0.169828
	O333	O	0.281607	0.366815	1.666420
	H334	H	0.296895	0.366460	1.670586
	H335	H	0.267560	0.358214	1.649541
	O336	O	1.185804	0.204285	0.994942
	H337	H	1.203179	0.210786	1.000828
	H338	H	1.183469	0.217468	1.013433
	O339	O	0.834951	0.975119	0.984409
	H340	H	0.849931	0.984781	0.983981
	H341	H	0.833276	0.975920	0.984663
	O342	O	0.338762	0.326832	0.351686
	H343	H	0.335961	0.335528	0.346220
	H344	H	0.357592	0.326819	0.349324
	O345	O	-0.227250	-0.215867	0.000672
	H346	H	-0.234264	-0.226446	-0.013914
	H347	H	-0.222374	-0.212701	-0.019461
	O348	O	0.954210	-0.229812	1.190900
	H349	H	0.905427	-0.217918	1.183548
	H350	H	0.949271	-0.260110	1.225567
	O351	O	1.172522	0.981082	0.838620
	H352	H	1.159555	1.014626	0.847531
	H353	H	1.186972	0.971006	0.858682
	O354	O	0.288899	0.523275	0.671637
	H355	H	0.278130	0.522622	0.662891
	H356	H	0.285706	0.502947	0.673197
	O357	O	1.439891	1.280468	0.587544
	H358	H	1.448410	1.281961	0.576295
	H359	H	1.461944	1.275435	0.601456
	O360	O	0.278166	0.695814	0.448465
	H361	H	0.265915	0.706553	0.455381
	H362	H	0.286099	0.690336	0.457237
	O363	O	0.814950	0.121016	0.944053
	H364	H	0.809614	0.130309	0.941545
	H365	H	0.827242	0.106833	0.931715
	O366	O	1.668850	-0.654261	1.474496
	H367	H	1.671015	-0.655780	1.472655
	H368	H	1.649100	-0.661963	1.475573
	O369	O	0.428107	0.364132	0.499537
	H370	H	0.421441	0.356556	0.511566
	H371	H	0.428734	0.359347	0.508108
	O372	O	0.624679	0.640602	0.280977
	H373	H	0.610127	0.629870	0.285127
	H374	H	0.606815	0.632985	0.292313
	O375	O	-0.085785	1.175996	0.864210
	H376	H	-0.074188	1.154583	0.866738
	H377	H	-0.086833	1.174820	0.844528
	O378	O	0.382728	0.291716	0.616728
	H379	H	0.371800	0.306028	0.606411
	H380	H	0.386011	0.266739	0.624072
	O381	O	0.917841	0.036037	0.018350
	H382	H	0.929608	0.033802	0.022779
	H383	H	0.920237	0.045245	0.017182
	O384	O	0.197289	0.019345	1.189216
	H385	H	0.202714	0.006197	1.209568
	H386	H	0.198931	0.031499	1.200619
	O387	O	-0.221947	1.182436	0.817574
	H388	H	-0.203243	1.181307	0.824662
	H389	H	-0.218305	1.163848	0.816380
	O390	O	-0.060942	-0.060516	1.183404
	H391	H	-0.078386	-0.066254	1.194281
	H392	H	-0.070084	-0.090520	1.189624
	O393	O	0.933262	0.996359	0.066631
	H394	H	0.916760	0.991632	0.075339
	H395	H	0.929586	1.022041	0.051365
	O396	O	0.830093	0.195368	0.717013
	H397	H	0.829031	0.181298	0.730345
	H398	H	0.858448	0.181405	0.726953
	O399	O	0.985023	1.133736	1.040906
	H400	H	0.994983	1.114445	1.043649
	H401	H	0.994732	1.141157	1.030460
	O402	O	0.191098	-0.212773	0.953907
	H403	H	0.216399	-0.233004	0.950614
	H404	H	0.191182	-0.204333	0.957280
	O405	O	0.169267	0.023762	-0.233371
	H406	H	0.176131	0.038175	-0.222595
	H407	H	0.175182	0.035930	-0.242837
	O408	O	0.688652	1.464741	1.257491
	H409	H	0.716598	1.469192	1.251716
	H410	H	0.689435	1.448317	1.262012
	O411	O	0.614094	0.331020	0.673107
	H412	H	0.628953	0.357570	0.668055
	H413	H	0.621456	0.310554	0.678973
	O414	O	0.609173	0.625374	0.414068
	H415	H	0.606331	0.613528	0.413644
	H416	H	0.607069	0.648362	0.421999
	O417	O	0.622660	0.628451	0.501805
	H418	H	0.622548	0.632771	0.489937
	H419	H	0.623158	0.633521	0.502466
	O420	O	0.506466	0.282711	0.259038
	H421	H	0.495630	0.268022	0.238252
	H422	H	0.494070	0.288088	0.269953
	O423	O	0.484743	1.491467	0.492628
	H424	H	0.478932	1.489110	0.513395
	H425	H	0.486178	1.512370	0.504214
	O426	O	0.791944	0.800291	1.165808
	H427	H	0.777259	0.817933	1.148506
	H428	H	0.767817	0.780036	1.155198
	O429	O	0.338486	0.505362	0.431823
	H430	H	0.342960	0.515904	0.429167
	H431	H	0.343688	0.503664	0.426443
	O432	O	1.040640	-0.081878	1.063885
	H433	H	1.051082	-0.072163	1.061302
	H434	H	1.044711	-0.085061	1.082544
	O435	O	-0.182941	-0.237025	-0.256615
	H436	H	-0.162246	-0.218041	-0.267549
	H437	H	-0.160056	-0.232308	-0.245779
	O438	O	1.464538	-0.295287	0.624639
	H439	H	1.482067	-0.310594	0.635980
	H440	H	1.459005	-0.282244	0.638976
	O441	O	0.691907	0.443504	0.597007
	H442	H	0.697488	0.434500	0.576427
	H443	H	0.708319	0.440808	0.601484
	O444	O	0.281513	1.537148	0.544848
	H445	H	0.275589	1.536830	0.546740
	H446	H	0.280326	1.531769	0.538460
	O447	O	1.119021	0.806675	-0.211189
	H448	H	1.134547	0.847271	-0.219475
	H449	H	1.110833	0.789014	-0.200376
	O450	O	0.264708	0.497222	0.261030
	H451	H	0.242844	0.499908	0.239562
	H452	H	0.287306	0.497717	0.258056
	O453	O	0.695834	0.496873	0.465601
	H454	H	0.698616	0.482905	0.470378
	H455	H	0.679312	0.493598	0.459657
	O456	O	1.121270	-0.136831	0.020946
	H457	H	1.118926	-0.133104	0.049717
	H458	H	1.113899	-0.116672	0.023202
	O459	O	0.583725	0.622838	0.559384
	H460	H	0.580337	0.632233	0.578873
	H461	H	0.589896	0.639934	0.569386
	O462	O	0.453175	0.708259	0.258668
	H463	H	0.454422	0.709909	0.263597
	H464	H	0.438726	0.724686	0.240879
	O465	O	0.764339	0.017554	-0.132695
	H466	H	0.757588	0.009950	-0.132788
	H467	H	0.776702	0.010648	-0.128236
