data_Molecule from HDF5

_cell_length_a		16.365939
_cell_length_b		16.266468
_cell_length_c		16.307482
_cell_angle_alpha	90.066041
_cell_angle_beta	89.950592
_cell_angle_gamma	89.871005
_symmetry_space_group_name_H-M	'P 1'
_symmetry_Int_Tables_number		1

loop_
	_symmetry_equiv_pos_as_xyz
	x,y,z

loop_
	_atom_site_label
	_atom_site_type_symbol
	_atom_site_fract_x
	_atom_site_fract_y
	_atom_site_fract_z
	H0	H	0.403877	0.839982	0.707172
	H1	H	0.599129	0.167978	0.706594
	H2	H	0.599990	0.840346	0.276757
	H3	H	0.402431	0.168117	0.279442
	H4	H	0.716394	0.404971	0.827899
	H5	H	0.716551	0.604434	0.153980
	H6	H	0.286901	0.603325	0.827224
	H7	H	0.286100	0.406119	0.153584
	H8	H	0.839055	0.718686	0.391785
	H9	H	0.164705	0.718205	0.588889
	H10	H	0.838891	0.289216	0.588311
	H11	H	0.164998	0.287882	0.391597
	H12	H	0.839152	0.405043	0.705901
	H13	H	0.163544	0.604381	0.707870
	H14	H	0.839019	0.602331	0.276188
	H15	H	0.164909	0.403411	0.274866
	H16	H	0.404974	0.718004	0.827088
	H17	H	0.597651	0.717500	0.154906
	H18	H	0.598916	0.290056	0.828207
	H19	H	0.403824	0.291536	0.154648
	H20	H	0.716403	0.840524	0.392043
	H21	H	0.716844	0.166928	0.592375
	H22	H	0.285964	0.840080	0.592744
	H23	H	0.286261	0.166490	0.395186
	H24	H	0.904942	0.339808	0.203642
	H25	H	0.098526	0.667518	0.204843
	H26	H	0.100629	0.340072	0.776890
	H27	H	0.902639	0.667477	0.776281
	H28	H	0.218247	0.903373	0.328687
	H29	H	0.215325	0.102162	0.654518
	H30	H	0.784927	0.103119	0.328069
	H31	H	0.786894	0.905038	0.654659
	H32	H	0.338312	0.219346	0.893467
	H33	H	0.664023	0.218575	0.090398
	H34	H	0.337760	0.790462	0.089955
	H35	H	0.663333	0.788580	0.892364
	H36	H	0.337925	0.906286	0.206722
	H37	H	0.663446	0.102360	0.207555
	H38	H	0.338933	0.104705	0.776664
	H39	H	0.663436	0.903605	0.776298
	H40	H	0.904608	0.216359	0.326464
	H41	H	0.098889	0.217565	0.653960
	H42	H	0.099925	0.789433	0.327003
	H43	H	0.904165	0.789581	0.654731
	H44	H	0.217851	0.340984	0.890886
	H45	H	0.215131	0.667387	0.089363
	H46	H	0.786505	0.340731	0.089456
	H47	H	0.786603	0.668021	0.891753
	H48	H	0.407227	0.119138	0.584423
	H49	H	0.596415	0.889661	0.578117
	H50	H	0.609481	0.124339	0.401295
	H51	H	0.400023	0.884055	0.397444
	H52	H	0.589711	0.425337	0.102503
	H53	H	0.592533	0.599458	0.874528
	H54	H	0.405140	0.599292	0.107997
	H55	H	0.408421	0.419286	0.876260
	H56	H	0.116453	0.593147	0.399864
	H57	H	0.885389	0.595592	0.585544
	H58	H	0.115063	0.414407	0.579079
	H59	H	0.885092	0.405750	0.398374
	H60	H	0.118531	0.413183	0.591145
	H61	H	0.886244	0.598285	0.582488
	H62	H	0.118406	0.595279	0.394327
	H63	H	0.888194	0.413216	0.398684
	H64	H	0.405764	0.594924	0.106982
	H65	H	0.597124	0.597126	0.874110
	H66	H	0.585198	0.401137	0.107460
	H67	H	0.415746	0.406933	0.875168
	H68	H	0.585967	0.122032	0.385676
	H69	H	0.598546	0.885115	0.588178
	H70	H	0.407492	0.120390	0.585782
	H71	H	0.415639	0.886602	0.392141
	H72	H	0.903118	0.621779	0.083121
	H73	H	0.090763	0.387237	0.086758
	H74	H	0.095187	0.620892	0.898251
	H75	H	0.908702	0.385972	0.892843
	H76	H	0.095244	0.911818	0.607093
	H77	H	0.091685	0.099754	0.375235
	H78	H	0.901897	0.091523	0.606904
	H79	H	0.911931	0.921336	0.379091
	H80	H	0.616270	0.097944	0.900930
	H81	H	0.386047	0.102545	0.078576
	H82	H	0.612038	0.920989	0.078580
	H83	H	0.384152	0.912849	0.895530
	H84	H	0.619528	0.912274	0.097524
	H85	H	0.385932	0.090274	0.086783
	H86	H	0.616289	0.094541	0.899796
	H87	H	0.384893	0.908317	0.900562
	H88	H	0.915283	0.091949	0.602722
	H89	H	0.101242	0.096001	0.372694
	H90	H	0.092605	0.909529	0.606847
	H91	H	0.915454	0.902506	0.375013
	H92	H	0.092105	0.619638	0.897588
	H93	H	0.093965	0.389403	0.077689
	H94	H	0.910820	0.620881	0.087848
	H95	H	0.914205	0.390434	0.901332
	H96	H	0.408736	0.119850	0.585521
	H97	H	0.588175	0.889057	0.586354
	H98	H	0.585386	0.113795	0.413193
	H99	H	0.410943	0.890348	0.407687
	H100	H	0.607780	0.411027	0.111339
	H101	H	0.593706	0.594170	0.876110
	H102	H	0.409662	0.597791	0.106568
	H103	H	0.401761	0.407232	0.871333
	H104	H	0.117885	0.598892	0.399196
	H105	H	0.887108	0.593994	0.581767
	H106	H	0.119652	0.403259	0.583018
	H107	H	0.885022	0.410158	0.391730
	H108	H	0.910718	0.618734	0.079175
	H109	H	0.100447	0.385325	0.084356
	H110	H	0.093305	0.619546	0.900689
	H111	H	0.903477	0.387631	0.902767
	H112	H	0.095904	0.908341	0.608305
	H113	H	0.094106	0.089409	0.376369
	H114	H	0.909237	0.104050	0.608339
	H115	H	0.897532	0.910769	0.371669
	H116	H	0.617527	0.097349	0.897397
	H117	H	0.381969	0.102965	0.093158
	H118	H	0.619081	0.899076	0.079412
	H119	H	0.386632	0.914774	0.901516
	C120	C	0.379678	0.011811	0.613974
	C121	C	0.623100	0.995517	0.613668
	C122	C	0.622280	0.012199	0.370553
	C123	C	0.380227	0.995331	0.371131
	C124	C	0.623110	0.383028	-0.000469
	C125	C	0.622886	0.625919	0.982704
	C126	C	0.379029	0.626146	-0.001033
	C127	C	0.380102	0.383165	0.982352
	C128	C	0.010086	0.624882	0.369094
	C129	C	0.993374	0.625161	0.612452
	C130	C	0.009939	0.381763	0.612522
	C131	C	0.993872	0.381095	0.368071
	C132	C	0.880014	0.512442	0.111986
	C133	C	0.123181	0.495499	0.111974
	C134	C	0.122908	0.512287	0.869564
	C135	C	0.879843	0.496015	0.869590
	C136	C	0.123503	0.881375	0.499309
	C137	C	0.123594	0.124034	0.482571
	C138	C	0.879583	0.125281	0.498881
	C139	C	0.879837	0.882284	0.483134
	C140	C	0.509121	0.125461	0.870693
	C141	C	0.492671	0.126619	0.114423
	C142	C	0.509037	0.882577	0.113865
	C143	C	0.492831	0.882807	0.870443
	C144	C	0.382793	0.888628	0.669134
	C145	C	0.620128	0.118679	0.669007
	C146	C	0.620300	0.889253	0.314604
	C147	C	0.382017	0.118934	0.316677
	C148	C	0.678493	0.384810	0.876861
	C149	C	0.678317	0.624513	0.105444
	C150	C	0.324657	0.623827	0.875950
	C151	C	0.324366	0.385651	0.105041
	C152	C	0.887691	0.680702	0.371292
	C153	C	0.115956	0.680439	0.609664
	C154	C	0.887474	0.326897	0.609090
	C155	C	0.116368	0.325962	0.370876
	C156	C	0.887602	0.384377	0.667685
	C157	C	0.115423	0.623763	0.668792
	C158	C	0.887511	0.622450	0.314114
	C159	C	0.116189	0.383238	0.312751
	C160	C	0.383051	0.680907	0.875838
	C161	C	0.619328	0.680711	0.105919
	C162	C	0.620513	0.327415	0.876994
	C163	C	0.382778	0.328754	0.105749
	C164	C	0.677930	0.889148	0.372168
	C165	C	0.678724	0.118269	0.612513
	C166	C	0.324480	0.888773	0.612301
	C167	C	0.324810	0.118362	0.374696
	C168	C	0.883700	0.388820	0.166106
	C169	C	0.119660	0.618625	0.167194
	C170	C	0.120881	0.388971	0.814689
	C171	C	0.882118	0.618745	0.814055
	C172	C	0.179906	0.882944	0.377167
	C173	C	0.177690	0.122367	0.605686
	C174	C	0.823505	0.123209	0.376499
	C175	C	0.824704	0.884126	0.605902
	C176	C	0.387111	0.181367	0.873227
	C177	C	0.615056	0.181442	0.111689
	C178	C	0.386397	0.828072	0.111027
	C179	C	0.614811	0.826639	0.871952
	C180	C	0.386541	0.885941	0.168735
	C181	C	0.614874	0.123736	0.169760
	C182	C	0.387216	0.123986	0.815406
	C183	C	0.614840	0.884258	0.814519
	C184	C	0.882509	0.179839	0.375694
	C185	C	0.119777	0.179481	0.605408
	C186	C	0.121014	0.826648	0.376223
	C187	C	0.882990	0.826832	0.605865
	C188	C	0.179039	0.389497	0.871435
	C189	C	0.177600	0.618627	0.110009
	C190	C	0.824708	0.389431	0.109721
	C191	C	0.824306	0.618989	0.871375
	C192	C	0.401450	0.097514	0.591630
	C193	C	0.600982	0.910025	0.590843
	C194	C	0.599987	0.097976	0.393417
	C195	C	0.402454	0.909332	0.392582
	C196	C	0.600956	0.405919	0.085017
	C197	C	0.600955	0.603353	0.897183
	C198	C	0.400643	0.604013	0.084889
	C199	C	0.402110	0.404817	0.896459
	C200	C	0.095412	0.602563	0.391239
	C201	C	0.908323	0.602631	0.589779
	C202	C	0.095635	0.403750	0.590796
	C203	C	0.908082	0.403341	0.390019
	C204	C	0.901747	0.598235	0.089921
	C205	C	0.101405	0.409617	0.089523
	C206	C	0.100210	0.598006	0.892092
	C207	C	0.902261	0.410108	0.892259
	C208	C	0.101224	0.903317	0.585181
	C209	C	0.102017	0.101675	0.396926
	C210	C	0.902140	0.102554	0.584017
	C211	C	0.901797	0.904907	0.397477
	C212	C	0.594715	0.103184	0.892968
	C213	C	0.406847	0.104919	0.092545
	C214	C	0.594672	0.904104	0.091672
	C215	C	0.407174	0.905373	0.892785
	Zn216	Zn	0.500913	0.004062	0.741989
	Zn217	Zn	0.500761	0.004137	0.242458
	Zn218	Zn	0.751397	0.504773	-0.009200
	Zn219	Zn	0.251457	0.504271	-0.009667
	Zn220	Zn	0.001521	0.753787	0.490558
	Zn221	Zn	0.002380	0.252968	0.489739
	Zn222	Zn	0.001575	0.503905	0.741389
	Zn223	Zn	0.001993	0.503436	0.240312
	Zn224	Zn	0.500809	0.754103	-0.008547
	Zn225	Zn	0.501136	0.254568	-0.008254
	Zn226	Zn	0.750742	0.003669	0.491618
	Zn227	Zn	0.251591	0.002760	0.492019
	N228	N	0.416261	0.966043	0.670296
	N229	N	0.586068	0.041459	0.669853
	N230	N	0.586353	0.966627	0.313823
	N231	N	0.415721	0.041337	0.314484
	N232	N	0.680307	0.418572	0.954274
	N233	N	0.680577	0.591209	0.027877
	N234	N	0.322325	0.590477	0.953389
	N235	N	0.322677	0.418694	0.027345
	N236	N	0.964741	0.682283	0.404865
	N237	N	0.039294	0.681354	0.575245
	N238	N	0.964664	0.325217	0.575382
	N239	N	0.039241	0.324633	0.404655
	N240	N	0.964751	0.417531	0.669901
	N241	N	0.038292	0.590171	0.670537
	N242	N	0.964597	0.588750	0.312509
	N243	N	0.039140	0.416860	0.310999
	N244	N	0.416142	0.682477	0.953420
	N245	N	0.585706	0.681827	0.028650
	N246	N	0.586602	0.326317	0.954052
	N247	N	0.416589	0.327047	0.028501
	N248	N	0.679465	0.966620	0.406278
	N249	N	0.680459	0.040852	0.578532
	N250	N	0.322343	0.966327	0.578694
	N251	N	0.323505	0.040482	0.407596
	N252	N	0.917346	0.466165	0.167721
	N253	N	0.086396	0.541062	0.168412
	N254	N	0.086375	0.466309	0.813503
	N255	N	0.915760	0.541052	0.812720
	N256	N	0.181387	0.916386	0.454860
	N257	N	0.179907	0.088492	0.528589
	N258	N	0.821270	0.090320	0.454232
	N259	N	0.822725	0.917931	0.528648
	N260	N	0.464016	0.182012	0.907338
	N261	N	0.537901	0.183516	0.078186
	N262	N	0.463551	0.825933	0.077388
	N263	N	0.538029	0.825635	0.906128
	N264	N	0.463872	0.918997	0.170528
	N265	N	0.537745	0.090440	0.171428
	N266	N	0.464117	0.089992	0.813782
	N267	N	0.537794	0.918438	0.813484
	N268	N	0.916709	0.181218	0.452636
	N269	N	0.086744	0.180757	0.527795
	N270	N	0.086694	0.825574	0.453319
	N271	N	0.916456	0.825550	0.528391
	N272	N	0.180397	0.467152	0.904918
	N273	N	0.179707	0.541129	0.076148
	N274	N	0.822347	0.467321	0.076810
	N275	N	0.822994	0.541705	0.905258
	O276	O	2.025644	0.028056	0.982103
	H277	H	2.024322	0.029440	0.982694
	H278	H	2.017221	0.021942	0.981410
	O279	O	-0.036463	0.001588	-0.086676
	H280	H	-0.043567	0.001212	-0.092426
	H281	H	-0.031758	-0.004391	-0.088395
	O282	O	-0.007321	-0.027460	0.961862
	H283	H	-0.009426	-0.026921	0.955943
	H284	H	-0.007174	-0.022258	0.973749
	O285	O	0.528403	0.501857	0.412419
	H286	H	0.519624	0.498489	0.406881
	H287	H	0.523501	0.492230	0.417690
	O288	O	0.548820	0.538796	0.467970
	H289	H	0.553213	0.537166	0.461796
	H290	H	0.549266	0.535588	0.463094
	O291	O	-0.019171	1.016043	0.955014
	H292	H	-0.017849	1.020828	0.946598
	H293	H	-0.017434	1.013208	0.954387
	O294	O	0.003227	-0.035641	-0.037569
	H295	H	0.004082	-0.041185	-0.036674
	H296	H	-0.006593	-0.034849	-0.042249
	O297	O	-0.040364	0.028007	0.999545
	H298	H	-0.037302	0.025909	0.999417
	H299	H	-0.043594	0.026266	1.003386
	O300	O	-0.034568	0.953487	0.981865
	H301	H	-0.037198	0.946433	0.988349
	H302	H	-0.030554	0.951279	0.982618
	O303	O	0.531327	0.467384	0.414948
	H304	H	0.544382	0.470700	0.416744
	H305	H	0.538967	0.465909	0.411450
	O306	O	-0.040762	0.003524	1.021362
	H307	H	-0.041296	0.017733	1.024404
	H308	H	-0.037983	0.013052	1.017278
	O309	O	0.968617	0.987418	0.989735
	H310	H	0.972672	0.983025	0.994884
	H311	H	0.974483	0.978283	0.995527
	O312	O	0.585347	0.447793	0.419844
	H313	H	0.592506	0.451210	0.423975
	H314	H	0.589542	0.453834	0.417127
	O315	O	0.552445	0.521468	0.402801
	H316	H	0.550657	0.526511	0.394074
	H317	H	0.542440	0.518798	0.408022
	O318	O	-0.049352	1.048542	-0.069688
	H319	H	-0.044686	1.049483	-0.074511
	H320	H	-0.045496	1.052788	-0.060298
	O321	O	0.935434	1.077541	-0.041290
	H322	H	0.935388	1.083634	-0.052298
	H323	H	0.934846	1.075564	-0.050920
