data_Molecule from HDF5

_cell_length_a		16.284465
_cell_length_b		16.367628
_cell_length_c		16.242312
_cell_angle_alpha	89.874184
_cell_angle_beta	89.417286
_cell_angle_gamma	90.320338
_symmetry_space_group_name_H-M	'P 1'
_symmetry_Int_Tables_number		1

loop_
	_symmetry_equiv_pos_as_xyz
	x,y,z

loop_
	_atom_site_label
	_atom_site_type_symbol
	_atom_site_fract_x
	_atom_site_fract_y
	_atom_site_fract_z
	H0	H	0.392580	0.840412	0.717872
	H1	H	0.595232	0.163968	0.716156
	H2	H	0.596086	0.840108	0.284165
	H3	H	0.396501	0.163767	0.284396
	H4	H	0.712330	0.403960	0.836259
	H5	H	0.709893	0.600095	0.162991
	H6	H	0.283735	0.600249	0.835087
	H7	H	0.275249	0.398701	0.160480
	H8	H	0.832502	0.719564	0.398599
	H9	H	0.156042	0.721566	0.600392
	H10	H	0.832398	0.284010	0.604817
	H11	H	0.157222	0.286118	0.396666
	H12	H	0.832315	0.401209	0.718605
	H13	H	0.158781	0.601309	0.711378
	H14	H	0.831417	0.600542	0.285783
	H15	H	0.156969	0.402235	0.281150
	H16	H	0.396787	0.719019	0.837532
	H17	H	0.597465	0.718030	0.162471
	H18	H	0.597781	0.285019	0.836829
	H19	H	0.392416	0.285566	0.162602
	H20	H	0.712157	0.840484	0.399173
	H21	H	0.711448	0.164074	0.601029
	H22	H	0.274891	0.841687	0.604693
	H23	H	0.282175	0.165416	0.401856
	H24	H	0.892510	0.339949	0.216567
	H25	H	0.097224	0.663297	0.215576
	H26	H	0.094926	0.339741	0.781174
	H27	H	0.898772	0.665261	0.785441
	H28	H	0.213572	0.903617	0.338574
	H29	H	0.208755	0.103947	0.664949
	H30	H	0.782344	0.102459	0.336811
	H31	H	0.776464	0.901878	0.663516
	H32	H	0.333523	0.218177	0.899442
	H33	H	0.657419	0.219918	0.099596
	H34	H	0.333968	0.781489	0.105541
	H35	H	0.658774	0.786130	0.897765
	H36	H	0.333260	0.899283	0.219596
	H37	H	0.659251	0.100892	0.213050
	H38	H	0.331586	0.099357	0.788241
	H39	H	0.657635	0.902751	0.782221
	H40	H	0.895562	0.219182	0.338695
	H41	H	0.095387	0.220411	0.663254
	H42	H	0.098029	0.787253	0.338220
	H43	H	0.891842	0.785489	0.663399
	H44	H	0.211990	0.339035	0.896122
	H45	H	0.213616	0.663046	0.098039
	H46	H	0.776824	0.340673	0.101034
	H47	H	0.779880	0.663563	0.898465
	H48	H	0.405480	0.117017	0.592777
	H49	H	0.583283	0.888312	0.589752
	H50	H	0.593950	0.119449	0.407603
	H51	H	0.411002	0.888845	0.408019
	H52	H	0.586818	0.407100	0.116661
	H53	H	0.593463	0.599900	0.880692
	H54	H	0.406092	0.602247	0.119161
	H55	H	0.399782	0.400393	0.878502
	H56	H	0.107900	0.586114	0.406947
	H57	H	0.881889	0.592595	0.584221
	H58	H	0.112723	0.406306	0.594606
	H59	H	0.880542	0.411348	0.413684
	H60	H	0.109534	0.408235	0.581258
	H61	H	0.878420	0.587756	0.600819
	H62	H	0.114251	0.599518	0.401328
	H63	H	0.878730	0.411554	0.405457
	H64	H	0.392482	0.585258	0.116294
	H65	H	0.591531	0.587062	0.884640
	H66	H	0.586953	0.412129	0.116108
	H67	H	0.400873	0.418532	0.884099
	H68	H	0.588997	0.119038	0.402421
	H69	H	0.587589	0.886892	0.590676
	H70	H	0.399178	0.118092	0.592445
	H71	H	0.401695	0.889857	0.419166
	H72	H	0.903940	0.617504	0.090734
	H73	H	0.092399	0.383400	0.093987
	H74	H	0.087573	0.617423	0.902136
	H75	H	0.904888	0.389347	0.914668
	H76	H	0.086245	0.908454	0.618998
	H77	H	0.081173	0.092886	0.388144
	H78	H	0.898930	0.084891	0.615892
	H79	H	0.897773	0.912249	0.383146
	H80	H	0.612284	0.091542	0.900594
	H81	H	0.376408	0.099028	0.096734
	H82	H	0.609781	0.915367	0.092596
	H83	H	0.378916	0.908064	0.908476
	H84	H	0.613730	0.906101	0.095366
	H85	H	0.381079	0.093472	0.086615
	H86	H	0.613200	0.101331	0.909248
	H87	H	0.379870	0.905710	0.913922
	H88	H	0.910657	0.095263	0.615184
	H89	H	0.090178	0.101066	0.382349
	H90	H	0.084142	0.915839	0.615113
	H91	H	0.908228	0.914667	0.386446
	H92	H	0.088742	0.615147	0.908977
	H93	H	0.076936	0.388224	0.094899
	H94	H	0.900736	0.617661	0.092461
	H95	H	0.897322	0.384807	0.907268
	H96	H	0.402575	0.119822	0.598766
	H97	H	0.584725	0.886377	0.593758
	H98	H	0.586629	0.116013	0.408902
	H99	H	0.397064	0.884516	0.406356
	H100	H	0.582816	0.409296	0.114222
	H101	H	0.581016	0.596280	0.885386
	H102	H	0.413687	0.583481	0.109656
	H103	H	0.416237	0.407072	0.885852
	H104	H	0.108341	0.598334	0.415553
	H105	H	0.874709	0.603467	0.595322
	H106	H	0.107719	0.418294	0.589608
	H107	H	0.877071	0.404729	0.410043
	H108	H	0.904098	0.618188	0.094222
	H109	H	0.084752	0.389562	0.080554
	H110	H	0.094266	0.618297	0.905194
	H111	H	0.907984	0.386680	0.903891
	H112	H	0.079274	0.909512	0.616103
	H113	H	0.093359	0.088812	0.385222
	H114	H	0.897416	0.099662	0.620894
	H115	H	0.905720	0.904409	0.383329
	H116	H	0.608519	0.089512	0.913318
	H117	H	0.380071	0.087279	0.096778
	H118	H	0.610538	0.907316	0.085231
	H119	H	0.381989	0.911783	0.912494
	C120	C	0.371885	0.011272	0.624289
	C121	C	0.615086	0.994175	0.620988
	C122	C	0.618509	0.010710	0.377619
	C123	C	0.374147	0.994154	0.380351
	C124	C	0.616360	0.380368	0.007960
	C125	C	0.617580	0.623401	0.991245
	C126	C	0.375408	0.621059	0.007522
	C127	C	0.373846	0.378883	0.990228
	C128	C	0.002807	0.623613	0.378632
	C129	C	0.986113	0.623842	0.621313
	C130	C	0.002982	0.380802	0.620847
	C131	C	0.986045	0.379873	0.378508
	C132	C	0.872329	0.510602	0.122322
	C133	C	0.116192	0.493520	0.119653
	C134	C	0.118838	0.509818	0.875204
	C135	C	0.874670	0.493939	0.878590
	C136	C	0.115310	0.881865	0.509252
	C137	C	0.117307	0.124722	0.492609
	C138	C	0.874014	0.123323	0.509245
	C139	C	0.872721	0.880391	0.491964
	C140	C	0.503764	0.122977	0.879158
	C141	C	0.486895	0.122794	0.121886
	C142	C	0.504322	0.878717	0.122949
	C143	C	0.487182	0.879721	0.879512
	C144	C	0.372882	0.889186	0.680216
	C145	C	0.614380	0.115793	0.677532
	C146	C	0.616364	0.888693	0.322052
	C147	C	0.376165	0.115620	0.322779
	C148	C	0.673894	0.382705	0.885064
	C149	C	0.672808	0.621202	0.114016
	C150	C	0.320783	0.620465	0.884481
	C151	C	0.314930	0.379668	0.112341
	C152	C	0.880865	0.680355	0.379643
	C153	C	0.108147	0.681828	0.619541
	C154	C	0.881130	0.322638	0.623354
	C155	C	0.108277	0.323814	0.377205
	C156	C	0.880884	0.381514	0.679564
	C157	C	0.109523	0.622216	0.674991
	C158	C	0.880414	0.621370	0.323408
	C159	C	0.108218	0.381842	0.320003
	C160	C	0.377298	0.679329	0.885627
	C161	C	0.616777	0.679660	0.113791
	C162	C	0.616832	0.323892	0.885388
	C163	C	0.373099	0.323233	0.113292
	C164	C	0.674152	0.888994	0.379221
	C165	C	0.672263	0.115818	0.620344
	C166	C	0.314156	0.889785	0.623754
	C167	C	0.319481	0.116492	0.381751
	C168	C	0.873028	0.388562	0.178380
	C169	C	0.116076	0.615107	0.176216
	C170	C	0.115808	0.388114	0.819010
	C171	C	0.877399	0.616246	0.822702
	C172	C	0.174073	0.883710	0.387178
	C173	C	0.171926	0.123957	0.615496
	C174	C	0.819382	0.122283	0.386135
	C175	C	0.815334	0.882177	0.614725
	C176	C	0.381685	0.179010	0.880578
	C177	C	0.609270	0.180403	0.119464
	C178	C	0.382471	0.820584	0.124249
	C179	C	0.609672	0.824072	0.878538
	C180	C	0.381966	0.879158	0.181040
	C181	C	0.610102	0.121292	0.175869
	C182	C	0.380754	0.119933	0.825111
	C183	C	0.609058	0.881713	0.820756
	C184	C	0.875821	0.180581	0.386933
	C185	C	0.115335	0.181964	0.614696
	C186	C	0.116951	0.825554	0.386918
	C187	C	0.872543	0.824105	0.614563
	C188	C	0.174223	0.387817	0.876166
	C189	C	0.174313	0.614739	0.118069
	C190	C	0.815469	0.388848	0.120802
	C191	C	0.818810	0.615792	0.879533
	C192	C	0.395357	0.096435	0.601312
	C193	C	0.591867	0.909195	0.598050
	C194	C	0.596251	0.096015	0.399738
	C195	C	0.396676	0.909501	0.404152
	C196	C	0.592520	0.402887	0.093556
	C197	C	0.595139	0.600878	0.905841
	C198	C	0.397546	0.597221	0.092823
	C199	C	0.398600	0.401835	0.904949
	C200	C	0.088004	0.601266	0.401205
	C201	C	0.900654	0.601139	0.599802
	C202	C	0.087923	0.404273	0.595765
	C203	C	0.901020	0.402446	0.402783
	C204	C	0.895858	0.595691	0.099104
	C205	C	0.091733	0.408848	0.096406
	C206	C	0.096723	0.594934	0.898520
	C207	C	0.896980	0.408989	0.901900
	C208	C	0.090362	0.904670	0.594655
	C209	C	0.094810	0.101114	0.407197
	C210	C	0.896064	0.100067	0.594935
	C211	C	0.896987	0.903697	0.406320
	C212	C	0.589221	0.100661	0.901169
	C213	C	0.401434	0.099766	0.099917
	C214	C	0.589145	0.902661	0.098252
	C215	C	0.402123	0.902034	0.904480
	Zn216	Zn	0.494979	0.001974	0.751232
	Zn217	Zn	0.495595	0.001461	0.250482
	Zn218	Zn	0.745313	0.502151	-0.000451
	Zn219	Zn	0.246331	0.500121	-0.001891
	Zn220	Zn	-0.005523	0.752771	0.499681
	Zn221	Zn	-0.005200	0.251589	0.500386
	Zn222	Zn	-0.004600	0.502046	0.748806
	Zn223	Zn	-0.005654	0.502001	0.250048
	Zn224	Zn	0.496107	0.751001	0.000998
	Zn225	Zn	0.494915	0.251420	-0.000137
	Zn226	Zn	0.745442	0.002566	0.500426
	Zn227	Zn	0.244546	0.003083	0.502034
	N228	N	0.407961	0.965723	0.680777
	N229	N	0.579457	0.039125	0.678115
	N230	N	0.582350	0.965406	0.320908
	N231	N	0.409436	0.038506	0.321807
	N232	N	0.673573	0.417080	0.962212
	N233	N	0.673522	0.586843	0.036892
	N234	N	0.319525	0.584826	0.961292
	N235	N	0.315039	0.413269	0.034665
	N236	N	0.958268	0.682227	0.413055
	N237	N	0.030531	0.683171	0.586921
	N238	N	0.957848	0.322315	0.587232
	N239	N	0.031366	0.322333	0.412807
	N240	N	0.957639	0.416846	0.678116
	N241	N	0.032693	0.587031	0.676196
	N242	N	0.957126	0.586868	0.322728
	N243	N	0.031230	0.415933	0.320432
	N244	N	0.410386	0.679865	0.963189
	N245	N	0.583402	0.681339	0.036366
	N246	N	0.581872	0.322295	0.962877
	N247	N	0.409239	0.322861	0.036458
	N248	N	0.675603	0.965935	0.413059
	N249	N	0.672676	0.039322	0.585674
	N250	N	0.313389	0.966848	0.589870
	N251	N	0.317978	0.040028	0.416741
	N252	N	0.907493	0.465494	0.179536
	N253	N	0.080554	0.538630	0.177338
	N254	N	0.082504	0.465006	0.818302
	N255	N	0.911417	0.539520	0.822137
	N256	N	0.173272	0.917747	0.464524
	N257	N	0.173228	0.088938	0.538616
	N258	N	0.817996	0.087422	0.463368
	N259	N	0.815119	0.916088	0.537270
	N260	N	0.459134	0.181104	0.913512
	N261	N	0.531636	0.181577	0.086632
	N262	N	0.459534	0.820320	0.089002
	N263	N	0.532728	0.822631	0.914229
	N264	N	0.458707	0.914606	0.180442
	N265	N	0.533048	0.086396	0.177523
	N266	N	0.457733	0.085937	0.823982
	N267	N	0.531956	0.915583	0.821234
	N268	N	0.908860	0.181151	0.464440
	N269	N	0.082163	0.182623	0.537021
	N270	N	0.080994	0.824331	0.463765
	N271	N	0.907453	0.822878	0.537050
	N272	N	0.176435	0.464650	0.910224
	N273	N	0.174442	0.537948	0.083795
	N274	N	0.815156	0.465740	0.086486
	N275	N	0.816814	0.538644	0.913396
	O276	O	0.876817	0.047873	1.058851
	H277	H	0.870810	0.054904	1.060128
	H278	H	0.873545	0.055758	1.058885
	O279	O	0.365267	0.575028	0.519494
	H280	H	0.366193	0.574684	0.524539
	H281	H	0.368969	0.563432	0.520203
	O282	O	0.389675	0.427124	0.532939
	H283	H	0.371311	0.433028	0.534468
	H284	H	0.394900	0.431372	0.531930
	O285	O	0.428505	0.592814	0.574652
	H286	H	0.436128	0.583199	0.589764
	H287	H	0.441058	0.578424	0.578802
	O288	O	0.468284	0.549335	0.401904
	H289	H	0.456071	0.556219	0.393085
	H290	H	0.472268	0.548543	0.408057
	O291	O	0.004555	-0.091190	1.022237
	H292	H	-0.009422	-0.101937	1.028080
	H293	H	0.003171	-0.086946	1.012758
	O294	O	0.918207	1.068743	0.072684
	H295	H	0.923454	1.066809	0.083537
	H296	H	0.914848	1.060938	0.076356
	O297	O	1.103545	0.985580	0.016015
	H298	H	1.111910	0.979939	0.015711
	H299	H	1.109081	0.971283	0.005705
	O300	O	0.659397	0.396924	0.454475
	H301	H	0.661465	0.414092	0.453652
	H302	H	0.668084	0.399533	0.446593
	O303	O	0.535938	0.481192	0.597644
	H304	H	0.552038	0.492271	0.586574
	H305	H	0.538312	0.478126	0.590519
	O306	O	0.419633	0.411778	0.469732
	H307	H	0.409543	0.416007	0.482535
	H308	H	0.433095	0.406089	0.479445
	O309	O	0.458067	0.575475	0.454391
	H310	H	0.451825	0.572793	0.464001
	H311	H	0.449743	0.583418	0.446447
	O312	O	0.983253	1.008207	1.098661
	H313	H	1.000305	1.002893	1.104364
	H314	H	0.975497	1.011934	1.084417
	O315	O	0.921358	0.982116	0.153598
	H316	H	0.920512	0.992534	0.167125
	H317	H	0.929148	0.984073	0.152225
	O318	O	0.603075	0.617675	0.489431
	H319	H	0.611883	0.620387	0.484355
	H320	H	0.604286	0.616076	0.496687
	O321	O	0.464479	0.458819	0.433201
	H322	H	0.468274	0.450687	0.428115
	H323	H	0.456271	0.454632	0.429134
	O324	O	0.016264	0.940617	0.914404
	H325	H	0.017936	0.943290	0.911174
	H326	H	0.021138	0.927447	0.915703
	O327	O	0.019563	0.905651	1.004733
	H328	H	0.028355	0.927417	0.997628
	H329	H	0.022401	0.911105	1.006516
	O330	O	-0.023548	-0.079279	0.093005
	H331	H	-0.035074	-0.078977	0.096045
	H332	H	-0.032996	-0.076134	0.088137
	O333	O	0.567147	0.468861	0.426388
	H334	H	0.561286	0.469764	0.412914
	H335	H	0.561615	0.467211	0.423444
	O336	O	-0.120295	-0.033479	0.007663
	H337	H	-0.128020	-0.031883	0.014864
	H338	H	-0.127238	-0.019998	0.012545
	O339	O	0.135823	0.060073	0.032316
	H340	H	0.143381	0.068248	0.047318
	H341	H	0.146257	0.044277	0.040987
	O342	O	0.511496	0.497099	0.564243
	H343	H	0.511636	0.501054	0.564311
	H344	H	0.517711	0.483070	0.555982
	O345	O	0.063462	0.897697	0.917382
	H346	H	0.061536	0.891385	0.919635
	H347	H	0.063903	0.907699	0.913474
	O348	O	0.454879	0.562668	0.419708
	H349	H	0.461977	0.559930	0.410696
	H350	H	0.447864	0.560329	0.411841
	O351	O	0.526983	0.457578	0.448949
	H352	H	0.528596	0.450537	0.445619
	H353	H	0.520440	0.452693	0.452547
	O354	O	0.068316	0.982579	-0.114825
	H355	H	0.065597	0.984627	-0.108019
	H356	H	0.055507	0.984500	-0.107438
	O357	O	0.506767	0.428939	0.479588
	H358	H	0.509615	0.433990	0.477073
	H359	H	0.513461	0.434575	0.480353
	O360	O	0.993844	0.006430	0.995066
	H361	H	0.992966	0.007879	0.980511
	H362	H	0.986642	0.001991	0.989727
	O363	O	0.521397	0.541259	0.540815
	H364	H	0.523070	0.542998	0.555373
	H365	H	0.520152	0.535276	0.527556
	O366	O	0.530117	0.595009	0.461551
	H367	H	0.527754	0.603825	0.468797
	H368	H	0.523664	0.610189	0.461809
	O369	O	1.081725	0.149300	0.039308
	H370	H	1.091521	0.139378	0.042139
	H371	H	1.080314	0.153527	0.046312
	O372	O	0.435821	0.497141	0.510567
	H373	H	0.432195	0.504557	0.522920
	H374	H	0.440563	0.506899	0.512663
	O375	O	0.925360	0.047255	1.034371
	H376	H	0.915023	0.048187	1.037565
	H377	H	0.939142	0.033962	1.037822
	O378	O	-0.077440	1.078112	-0.046946
	H379	H	-0.077537	1.083710	-0.051046
	H380	H	-0.071578	1.066868	-0.036520
	O381	O	0.587323	0.585291	0.581932
	H382	H	0.582935	0.587647	0.594302
	H383	H	0.593038	0.588891	0.583411
	O384	O	1.015701	0.933629	-0.089315
	H385	H	1.019768	0.927647	-0.102716
	H386	H	1.023424	0.934312	-0.102238
	O387	O	1.012110	0.088863	0.909491
	H388	H	1.016183	0.103701	0.925244
	H389	H	1.021904	0.093099	0.900998
	O390	O	1.131073	0.946420	0.001464
	H391	H	1.125303	0.944939	-0.005832
	H392	H	1.132356	0.937237	-0.000658
	O393	O	0.401739	0.461236	0.547546
	H394	H	0.397782	0.448370	0.553400
	H395	H	0.392119	0.466557	0.553715
