data_Molecule from HDF5

_cell_length_a		16.327528
_cell_length_b		16.355270
_cell_length_c		16.322207
_cell_angle_alpha	89.918202
_cell_angle_beta	90.042507
_cell_angle_gamma	90.021769
_symmetry_space_group_name_H-M	'P 1'
_symmetry_Int_Tables_number		1

loop_
	_symmetry_equiv_pos_as_xyz
	x,y,z

loop_
	_atom_site_label
	_atom_site_type_symbol
	_atom_site_fract_x
	_atom_site_fract_y
	_atom_site_fract_z
	H0	H	0.401928	0.837524	0.715052
	H1	H	0.598234	0.163869	0.713726
	H2	H	0.597702	0.837259	0.285024
	H3	H	0.402684	0.163010	0.285178
	H4	H	0.714477	0.402046	0.836638
	H5	H	0.713759	0.597109	0.163303
	H6	H	0.286375	0.597285	0.836914
	H7	H	0.286319	0.402562	0.163505
	H8	H	0.836608	0.714343	0.402368
	H9	H	0.162493	0.715510	0.598606
	H10	H	0.837050	0.284800	0.598694
	H11	H	0.163213	0.285950	0.402262
	H12	H	0.836808	0.401684	0.714376
	H13	H	0.163382	0.598013	0.713600
	H14	H	0.836317	0.596893	0.287045
	H15	H	0.163464	0.403820	0.286774
	H16	H	0.402078	0.714574	0.837220
	H17	H	0.598600	0.714346	0.162957
	H18	H	0.597778	0.285950	0.836406
	H19	H	0.401205	0.284785	0.162889
	H20	H	0.714106	0.836316	0.402192
	H21	H	0.715128	0.163656	0.597590
	H22	H	0.285093	0.837877	0.599094
	H23	H	0.285252	0.163207	0.401386
	H24	H	0.902453	0.336982	0.214839
	H25	H	0.097016	0.663542	0.213163
	H26	H	0.097258	0.336717	0.786141
	H27	H	0.901992	0.662793	0.785543
	H28	H	0.214023	0.902843	0.337272
	H29	H	0.215032	0.098023	0.663590
	H30	H	0.786741	0.097803	0.336664
	H31	H	0.786026	0.901463	0.663278
	H32	H	0.336528	0.214353	0.901679
	H33	H	0.663018	0.214264	0.097277
	H34	H	0.336593	0.785366	0.097994
	H35	H	0.662738	0.785220	0.901225
	H36	H	0.336713	0.902047	0.214129
	H37	H	0.663408	0.097294	0.213515
	H38	H	0.336713	0.098266	0.785303
	H39	H	0.663063	0.903880	0.786464
	H40	H	0.902110	0.215063	0.336823
	H41	H	0.098755	0.214936	0.663525
	H42	H	0.098535	0.785966	0.337276
	H43	H	0.902331	0.784925	0.663322
	H44	H	0.214464	0.336709	0.902048
	H45	H	0.214668	0.663153	0.097422
	H46	H	0.784642	0.336903	0.099407
	H47	H	0.785646	0.662193	0.902043
	H48	H	0.405996	0.116470	0.591487
	H49	H	0.597424	0.886232	0.581159
	H50	H	0.598326	0.116021	0.411150
	H51	H	0.403720	0.882727	0.404605
	H52	H	0.601906	0.405658	0.118708
	H53	H	0.596373	0.593669	0.882145
	H54	H	0.416562	0.585397	0.111288
	H55	H	0.403562	0.402998	0.881526
	H56	H	0.120932	0.601031	0.398892
	H57	H	0.883754	0.597883	0.589471
	H58	H	0.114120	0.415054	0.595968
	H59	H	0.881679	0.406331	0.398938
	H60	H	0.120076	0.401047	0.598958
	H61	H	0.885570	0.588054	0.591270
	H62	H	0.114884	0.597998	0.416493
	H63	H	0.883147	0.399115	0.411330
	H64	H	0.409246	0.606398	0.119784
	H65	H	0.592149	0.590426	0.885003
	H66	H	0.589918	0.413584	0.112920
	H67	H	0.404200	0.410926	0.884611
	H68	H	0.596261	0.117953	0.399683
	H69	H	0.602228	0.879782	0.602668
	H70	H	0.407495	0.116551	0.594224
	H71	H	0.409784	0.884544	0.405152
	H72	H	0.907583	0.612540	0.083635
	H73	H	0.110316	0.379785	0.090461
	H74	H	0.092329	0.615518	0.906024
	H75	H	0.909530	0.383590	0.906071
	H76	H	0.098877	0.913808	0.616043
	H77	H	0.099752	0.092972	0.382346
	H78	H	0.910698	0.088885	0.613981
	H79	H	0.913164	0.907074	0.385705
	H80	H	0.618588	0.093058	0.898620
	H81	H	0.380103	0.097212	0.100458
	H82	H	0.615625	0.918202	0.104010
	H83	H	0.383226	0.908182	0.905533
	H84	H	0.621176	0.892207	0.096820
	H85	H	0.384712	0.097931	0.084786
	H86	H	0.616821	0.101460	0.909993
	H87	H	0.384167	0.905037	0.907572
	H88	H	0.909103	0.099194	0.617696
	H89	H	0.089807	0.087051	0.387298
	H90	H	0.084428	0.907276	0.613515
	H91	H	0.903291	0.900486	0.381336
	H92	H	0.094778	0.615817	0.907783
	H93	H	0.086657	0.381796	0.109622
	H94	H	0.896709	0.619669	0.095997
	H95	H	0.905474	0.383958	0.909490
	H96	H	0.409295	0.115129	0.591422
	H97	H	0.581346	0.887271	0.596940
	H98	H	0.587710	0.114199	0.406835
	H99	H	0.405629	0.884591	0.410042
	H100	H	0.588081	0.398809	0.117155
	H101	H	0.591648	0.596585	0.883895
	H102	H	0.394048	0.588211	0.119167
	H103	H	0.411219	0.406023	0.884606
	H104	H	0.114154	0.584064	0.404373
	H105	H	0.881418	0.593580	0.599295
	H106	H	0.113747	0.404437	0.584896
	H107	H	0.886256	0.413470	0.410956
	H108	H	0.913177	0.615811	0.100637
	H109	H	0.083293	0.390651	0.080631
	H110	H	0.094791	0.616583	0.904504
	H111	H	0.904836	0.382486	0.904916
	H112	H	0.096071	0.898552	0.619725
	H113	H	0.088311	0.098862	0.383598
	H114	H	0.900724	0.091522	0.617563
	H115	H	0.902118	0.912331	0.384756
	H116	H	0.612643	0.087798	0.911002
	H117	H	0.386194	0.083920	0.093219
	H118	H	0.610947	0.909994	0.078584
	H119	H	0.384829	0.908243	0.909399
	C120	C	0.378935	0.008698	0.621221
	C121	C	0.622032	0.992290	0.621827
	C122	C	0.621756	0.008127	0.377983
	C123	C	0.377928	0.991681	0.378173
	C124	C	0.621188	0.378469	0.007999
	C125	C	0.621636	0.621478	0.991613
	C126	C	0.378349	0.621449	0.008641
	C127	C	0.378143	0.378363	0.991478
	C128	C	0.008334	0.621910	0.378782
	C129	C	0.991759	0.621231	0.621226
	C130	C	0.008055	0.378318	0.621578
	C131	C	0.991864	0.378689	0.379098
	C132	C	0.878092	0.508025	0.121608
	C133	C	0.121601	0.491957	0.121684
	C134	C	0.121902	0.507916	0.878223
	C135	C	0.878349	0.491220	0.878274
	C136	C	0.121543	0.878749	0.508686
	C137	C	0.121585	0.121486	0.491997
	C138	C	0.878528	0.121695	0.508388
	C139	C	0.878198	0.878099	0.491896
	C140	C	0.508313	0.122228	0.878045
	C141	C	0.491728	0.121075	0.121037
	C142	C	0.507940	0.878561	0.121181
	C143	C	0.491733	0.879008	0.878954
	C144	C	0.381337	0.886042	0.676830
	C145	C	0.618934	0.115275	0.676149
	C146	C	0.618694	0.885584	0.323152
	C147	C	0.381477	0.114532	0.323024
	C148	C	0.676174	0.381389	0.885213
	C149	C	0.676037	0.617664	0.114795
	C150	C	0.323723	0.618521	0.885584
	C151	C	0.323975	0.381418	0.114666
	C152	C	0.885324	0.676274	0.381806
	C153	C	0.114403	0.676374	0.618342
	C154	C	0.885546	0.323059	0.619214
	C155	C	0.114677	0.324038	0.381623
	C156	C	0.885516	0.381143	0.676499
	C157	C	0.114623	0.618374	0.675771
	C158	C	0.885121	0.618306	0.324321
	C159	C	0.114724	0.382030	0.323969
	C160	C	0.381356	0.676332	0.885851
	C161	C	0.618824	0.675877	0.114459
	C162	C	0.618172	0.323954	0.884992
	C163	C	0.381058	0.323133	0.114449
	C164	C	0.676489	0.885281	0.381339
	C165	C	0.676788	0.115215	0.618351
	C166	C	0.323683	0.886066	0.618934
	C167	C	0.323368	0.114628	0.380803
	C168	C	0.881180	0.385444	0.176860
	C169	C	0.118161	0.614854	0.175660
	C170	C	0.118113	0.385412	0.823816
	C171	C	0.881320	0.613723	0.823268
	C172	C	0.176456	0.881679	0.385856
	C173	C	0.176827	0.118636	0.615077
	C174	C	0.824245	0.118633	0.385383
	C175	C	0.824021	0.881156	0.614875
	C176	C	0.385290	0.176791	0.880684
	C177	C	0.614682	0.175784	0.117767
	C178	C	0.385311	0.823513	0.118534
	C179	C	0.614272	0.823808	0.881279
	C180	C	0.385169	0.881537	0.175994
	C181	C	0.614797	0.117949	0.175547
	C182	C	0.385246	0.118692	0.823342
	C183	C	0.614454	0.882375	0.823907
	C184	C	0.881425	0.176950	0.385497
	C185	C	0.119501	0.176845	0.614904
	C186	C	0.118650	0.824137	0.385754
	C187	C	0.881636	0.823149	0.614652
	C188	C	0.176226	0.385250	0.881511
	C189	C	0.176298	0.614652	0.117967
	C190	C	0.823232	0.385307	0.119095
	C191	C	0.823422	0.613644	0.881086
	C192	C	0.401078	0.093902	0.598804
	C193	C	0.600069	0.906558	0.600110
	C194	C	0.600259	0.094033	0.399548
	C195	C	0.399832	0.906149	0.400181
	C196	C	0.599635	0.399599	0.093881
	C197	C	0.599911	0.599991	0.905728
	C198	C	0.400112	0.599640	0.094518
	C199	C	0.399988	0.400193	0.905737
	C200	C	0.094416	0.600487	0.400181
	C201	C	0.905857	0.599601	0.599663
	C202	C	0.093707	0.400352	0.599559
	C203	C	0.905931	0.399884	0.400803
	C204	C	0.899648	0.593983	0.099833
	C205	C	0.099820	0.406004	0.099985
	C206	C	0.100416	0.593953	0.899805
	C207	C	0.900111	0.405353	0.900447
	C208	C	0.099642	0.900260	0.594379
	C209	C	0.099242	0.099434	0.406570
	C210	C	0.900450	0.099854	0.594276
	C211	C	0.899794	0.900085	0.405889
	C212	C	0.593779	0.100596	0.900088
	C213	C	0.405880	0.099447	0.099252
	C214	C	0.593950	0.900425	0.099381
	C215	C	0.406141	0.900865	0.901023
	Zn216	Zn	0.500195	0.000651	0.749682
	Zn217	Zn	0.499999	-0.000139	0.249668
	Zn218	Zn	0.749885	0.499599	0.000003
	Zn219	Zn	0.250234	0.499620	0.000118
	Zn220	Zn	0.000382	0.750229	0.499683
	Zn221	Zn	0.000140	0.249746	0.500321
	Zn222	Zn	0.000361	0.499859	0.749905
	Zn223	Zn	-0.000217	0.500125	0.250292
	Zn224	Zn	0.499791	0.749761	0.000578
	Zn225	Zn	0.499265	0.249820	-0.000256
	Zn226	Zn	0.750171	-0.000039	0.500131
	Zn227	Zn	0.250055	0.000178	0.500240
	N228	N	0.415082	0.963069	0.678268
	N229	N	0.585725	0.037857	0.678380
	N230	N	0.585398	0.962879	0.321152
	N231	N	0.414863	0.037191	0.321297
	N232	N	0.677991	0.414816	0.962545
	N233	N	0.677655	0.584243	0.037410
	N234	N	0.321742	0.584954	0.962975
	N235	N	0.321962	0.414825	0.037335
	N236	N	0.962993	0.678775	0.414632
	N237	N	0.036963	0.678116	0.585105
	N238	N	0.962873	0.321084	0.585748
	N239	N	0.037311	0.321887	0.415095
	N240	N	0.962722	0.414751	0.678086
	N241	N	0.037153	0.585096	0.678087
	N242	N	0.962724	0.585309	0.322258
	N243	N	0.037421	0.415513	0.322448
	N244	N	0.414705	0.677978	0.963239
	N245	N	0.585776	0.678391	0.036997
	N246	N	0.584783	0.321752	0.962433
	N247	N	0.414059	0.321135	0.036847
	N248	N	0.678335	0.962495	0.414839
	N249	N	0.678679	0.037782	0.585171
	N250	N	0.322245	0.963220	0.585063
	N251	N	0.321075	0.037421	0.414160
	N252	N	0.914758	0.462639	0.178290
	N253	N	0.084785	0.537550	0.177888
	N254	N	0.085016	0.462726	0.822039
	N255	N	0.914626	0.536451	0.821340
	N256	N	0.178260	0.915083	0.463186
	N257	N	0.178039	0.084757	0.537922
	N258	N	0.822378	0.085061	0.462730
	N259	N	0.821845	0.914763	0.537501
	N260	N	0.462549	0.178969	0.914153
	N261	N	0.537235	0.177861	0.084672
	N262	N	0.462639	0.821830	0.085165
	N263	N	0.536908	0.821366	0.914554
	N264	N	0.462676	0.914877	0.177948
	N265	N	0.537302	0.084649	0.177624
	N266	N	0.462658	0.085485	0.821650
	N267	N	0.537318	0.916161	0.822537
	N268	N	0.914489	0.178899	0.463058
	N269	N	0.085714	0.178563	0.537619
	N270	N	0.085209	0.822266	0.463004
	N271	N	0.914784	0.821420	0.537159
	N272	N	0.178637	0.462736	0.914710
	N273	N	0.178525	0.537018	0.085248
	N274	N	0.821247	0.462647	0.085691
	N275	N	0.821746	0.536532	0.914790
