data_Molecule from HDF5

_cell_length_a		16.383315
_cell_length_b		16.292406
_cell_length_c		16.253178
_cell_angle_alpha	90.024153
_cell_angle_beta	90.069009
_cell_angle_gamma	89.948718
_symmetry_space_group_name_H-M	'P 1'
_symmetry_Int_Tables_number		1

loop_
	_symmetry_equiv_pos_as_xyz
	x,y,z

loop_
	_atom_site_label
	_atom_site_type_symbol
	_atom_site_fract_x
	_atom_site_fract_y
	_atom_site_fract_z
	H0	H	0.400611	0.836631	0.703546
	H1	H	0.593504	0.164653	0.704911
	H2	H	0.595301	0.838097	0.276592
	H3	H	0.398441	0.165010	0.276523
	H4	H	0.710489	0.401800	0.827330
	H5	H	0.711676	0.599758	0.154261
	H6	H	0.280648	0.600301	0.827184
	H7	H	0.280067	0.400860	0.153825
	H8	H	0.834212	0.716465	0.391785
	H9	H	0.159074	0.716844	0.590290
	H10	H	0.833219	0.286318	0.588441
	H11	H	0.159153	0.284645	0.391436
	H12	H	0.833344	0.403060	0.704329
	H13	H	0.158873	0.600764	0.707150
	H14	H	0.833431	0.598824	0.276016
	H15	H	0.159416	0.401012	0.275209
	H16	H	0.397198	0.716170	0.827445
	H17	H	0.593241	0.713833	0.155922
	H18	H	0.593225	0.288018	0.827172
	H19	H	0.398031	0.286977	0.154971
	H20	H	0.712344	0.838163	0.391438
	H21	H	0.711933	0.163891	0.590981
	H22	H	0.282535	0.837926	0.589370
	H23	H	0.280815	0.164173	0.390875
	H24	H	0.899157	0.336867	0.203985
	H25	H	0.094357	0.664081	0.205023
	H26	H	0.093218	0.337007	0.776876
	H27	H	0.898502	0.665061	0.776709
	H28	H	0.212303	0.901101	0.327281
	H29	H	0.212345	0.101638	0.654259
	H30	H	0.780517	0.100936	0.328431
	H31	H	0.782702	0.902343	0.654252
	H32	H	0.334099	0.216735	0.891000
	H33	H	0.659097	0.216798	0.090226
	H34	H	0.334129	0.785760	0.091182
	H35	H	0.658675	0.784386	0.892512
	H36	H	0.333899	0.903526	0.206031
	H37	H	0.659462	0.101058	0.207172
	H38	H	0.334237	0.098600	0.776615
	H39	H	0.659942	0.902775	0.778783
	H40	H	0.898138	0.214894	0.326916
	H41	H	0.094513	0.215027	0.655257
	H42	H	0.095483	0.786092	0.326909
	H43	H	0.899788	0.787487	0.654889
	H44	H	0.213393	0.338726	0.888594
	H45	H	0.211500	0.663824	0.090785
	H46	H	0.781673	0.337451	0.090221
	H47	H	0.780295	0.664545	0.890763
	H48	H	0.399878	0.117100	0.581307
	H49	H	0.597353	0.883798	0.580616
	H50	H	0.583898	0.116220	0.397733
	H51	H	0.404933	0.883207	0.392891
	H52	H	0.588493	0.415893	0.105160
	H53	H	0.591008	0.598509	0.872057
	H54	H	0.407108	0.587762	0.104317
	H55	H	0.401693	0.400731	0.871586
	H56	H	0.115418	0.594418	0.386846
	H57	H	0.882376	0.582677	0.588665
	H58	H	0.109034	0.413788	0.581224
	H59	H	0.880636	0.409648	0.393579
	H60	H	0.114022	0.407379	0.590365
	H61	H	0.876245	0.604634	0.590964
	H62	H	0.112187	0.602748	0.405059
	H63	H	0.880310	0.404036	0.398589
	H64	H	0.405749	0.601290	0.109085
	H65	H	0.592038	0.588531	0.875419
	H66	H	0.584194	0.403633	0.107457
	H67	H	0.397880	0.415350	0.875526
	H68	H	0.590158	0.115532	0.405258
	H69	H	0.590733	0.881779	0.591886
	H70	H	0.402658	0.118971	0.587825
	H71	H	0.409274	0.888084	0.401731
	H72	H	0.900320	0.617549	0.083144
	H73	H	0.087800	0.384816	0.083389
	H74	H	0.088119	0.616978	0.897690
	H75	H	0.905337	0.386673	0.899307
	H76	H	0.085688	0.909665	0.605577
	H77	H	0.084852	0.099258	0.373859
	H78	H	0.918621	0.089961	0.602375
	H79	H	0.902076	0.912521	0.374833
	H80	H	0.610565	0.092670	0.900951
	H81	H	0.385260	0.091991	0.074066
	H82	H	0.612825	0.899729	0.079226
	H83	H	0.379736	0.909817	0.893642
	H84	H	0.608877	0.915697	0.079913
	H85	H	0.381762	0.086620	0.090387
	H86	H	0.613398	0.094353	0.893743
	H87	H	0.379369	0.902826	0.898551
	H88	H	0.899875	0.107908	0.612769
	H89	H	0.096778	0.093663	0.372250
	H90	H	0.090904	0.904763	0.607901
	H91	H	0.907873	0.908462	0.374750
	H92	H	0.089420	0.616876	0.899283
	H93	H	0.087616	0.385949	0.079636
	H94	H	0.904996	0.616889	0.085384
	H95	H	0.899262	0.384571	0.899646
	H96	H	0.406866	0.115984	0.582589
	H97	H	0.584355	0.887445	0.581422
	H98	H	0.592958	0.119002	0.396699
	H99	H	0.399320	0.884880	0.401693
	H100	H	0.596387	0.407041	0.110357
	H101	H	0.583357	0.593358	0.875891
	H102	H	0.394507	0.592041	0.109739
	H103	H	0.412044	0.410731	0.877262
	H104	H	0.107736	0.583017	0.401839
	H105	H	0.884575	0.597073	0.570916
	H106	H	0.111901	0.401761	0.579007
	H107	H	0.883807	0.410341	0.401147
	H108	H	0.904159	0.616336	0.080734
	H109	H	0.091031	0.384609	0.081001
	H110	H	0.090227	0.617374	0.897232
	H111	H	0.902485	0.383839	0.894293
	H112	H	0.092644	0.912272	0.606399
	H113	H	0.086126	0.086218	0.377699
	H114	H	0.892764	0.081915	0.607305
	H115	H	0.901631	0.905502	0.372768
	H116	H	0.614100	0.099703	0.899499
	H117	H	0.378358	0.103632	0.085302
	H118	H	0.614464	0.908123	0.093627
	H119	H	0.382408	0.910848	0.902139
	C120	C	0.374990	0.009307	0.612731
	C121	C	0.619019	0.992371	0.613266
	C122	C	0.618235	0.009422	0.370323
	C123	C	0.375399	0.993274	0.369636
	C124	C	0.618078	0.379918	-0.000442
	C125	C	0.617435	0.622008	0.982944
	C126	C	0.374008	0.622678	-0.000700
	C127	C	0.374806	0.379626	0.982591
	C128	C	0.004762	0.622657	0.368679
	C129	C	0.988429	0.623335	0.612637
	C130	C	0.004395	0.378963	0.612451
	C131	C	0.988826	0.378408	0.368807
	C132	C	0.875109	0.508837	0.111856
	C133	C	0.117726	0.492472	0.111613
	C134	C	0.117696	0.509299	0.869021
	C135	C	0.874075	0.492972	0.869097
	C136	C	0.118453	0.879590	0.498812
	C137	C	0.117849	0.121974	0.482912
	C138	C	0.874887	0.122167	0.499492
	C139	C	0.875329	0.879744	0.482197
	C140	C	0.505140	0.123801	0.869248
	C141	C	0.488831	0.122919	0.112666
	C142	C	0.504903	0.879248	0.113389
	C143	C	0.488343	0.879204	0.870048
	C144	C	0.379108	0.885915	0.666799
	C145	C	0.615324	0.115592	0.667813
	C146	C	0.615682	0.886606	0.314911
	C147	C	0.377548	0.115965	0.313943
	C148	C	0.672770	0.381745	0.876239
	C149	C	0.673333	0.620259	0.105671
	C150	C	0.318520	0.620867	0.876161
	C151	C	0.318908	0.381370	0.105442
	C152	C	0.882477	0.678272	0.371004
	C153	C	0.110629	0.678705	0.610479
	C154	C	0.881889	0.324007	0.609349
	C155	C	0.110650	0.322807	0.370890
	C156	C	0.881893	0.382277	0.666610
	C157	C	0.110568	0.620969	0.668523
	C158	C	0.882167	0.619727	0.313695
	C159	C	0.111004	0.380801	0.313222
	C160	C	0.376687	0.678056	0.876209
	C161	C	0.614536	0.676680	0.106457
	C162	C	0.614653	0.325093	0.876113
	C163	C	0.377448	0.324514	0.105832
	C164	C	0.673853	0.886837	0.371823
	C165	C	0.673860	0.115129	0.611076
	C166	C	0.320190	0.886467	0.610281
	C167	C	0.319192	0.115560	0.370984
	C168	C	0.877796	0.385827	0.167026
	C169	C	0.115041	0.615113	0.167390
	C170	C	0.114378	0.386111	0.813832
	C171	C	0.877058	0.616025	0.813995
	C172	C	0.174186	0.881047	0.375909
	C173	C	0.173886	0.120798	0.605541
	C174	C	0.819243	0.120811	0.376639
	C175	C	0.820514	0.881808	0.605593
	C176	C	0.382671	0.178554	0.871304
	C177	C	0.610853	0.178609	0.110842
	C178	C	0.382603	0.824130	0.111198
	C179	C	0.610516	0.823401	0.872661
	C180	C	0.382574	0.882492	0.168446
	C181	C	0.611155	0.120718	0.168413
	C182	C	0.382763	0.120019	0.814256
	C183	C	0.610932	0.882128	0.815763
	C184	C	0.877603	0.177399	0.376034
	C185	C	0.115187	0.177272	0.606122
	C186	C	0.116050	0.824160	0.375758
	C187	C	0.878599	0.824831	0.605615
	C188	C	0.174017	0.386758	0.869446
	C189	C	0.173270	0.615110	0.110565
	C190	C	0.819766	0.386280	0.110081
	C191	C	0.818338	0.615746	0.870708
	C192	C	0.396640	0.095305	0.590469
	C193	C	0.597244	0.906600	0.591152
	C194	C	0.595618	0.094868	0.393135
	C195	C	0.397925	0.907429	0.392285
	C196	C	0.596175	0.402371	0.085471
	C197	C	0.595291	0.600048	0.896822
	C198	C	0.395899	0.600331	0.085322
	C199	C	0.397144	0.402571	0.896990
	C200	C	0.089840	0.600092	0.391214
	C201	C	0.903249	0.601165	0.590085
	C202	C	0.089774	0.401111	0.590224
	C203	C	0.903455	0.401243	0.391250
	C204	C	0.896858	0.594803	0.089593
	C205	C	0.095356	0.407160	0.088310
	C206	C	0.095842	0.594904	0.891501
	C207	C	0.895923	0.407106	0.891286
	C208	C	0.096345	0.902180	0.584409
	C209	C	0.095684	0.099795	0.396842
	C210	C	0.897214	0.099782	0.585343
	C211	C	0.897314	0.902198	0.396346
	C212	C	0.590547	0.101939	0.891718
	C213	C	0.403822	0.100543	0.089810
	C214	C	0.589982	0.901495	0.090969
	C215	C	0.402739	0.901201	0.891805
	Zn216	Zn	0.496828	0.000663	0.741276
	Zn217	Zn	0.497073	0.001315	0.241702
	Zn218	Zn	0.745861	0.500953	-0.009165
	Zn219	Zn	0.245948	0.500955	-0.009649
	Zn220	Zn	-0.003150	0.751522	0.490401
	Zn221	Zn	-0.003854	0.250006	0.491257
	Zn222	Zn	-0.003932	0.500891	0.740759
	Zn223	Zn	-0.003336	0.500204	0.239841
	Zn224	Zn	0.496115	0.750470	-0.008356
	Zn225	Zn	0.496565	0.251769	-0.008609
	Zn226	Zn	0.747341	0.000901	0.491230
	Zn227	Zn	0.246857	0.000777	0.490506
	N228	N	0.412378	0.963397	0.668387
	N229	N	0.581748	0.038317	0.669296
	N230	N	0.581741	0.963743	0.313863
	N231	N	0.411669	0.038742	0.312884
	N232	N	0.674909	0.415236	0.953933
	N233	N	0.675163	0.587027	0.027927
	N234	N	0.317059	0.587122	0.953628
	N235	N	0.317133	0.414852	0.027791
	N236	N	0.959652	0.680195	0.404393
	N237	N	0.033675	0.680242	0.576516
	N238	N	0.959206	0.321880	0.576313
	N239	N	0.033810	0.321358	0.404783
	N240	N	0.958997	0.415575	0.668675
	N241	N	0.033553	0.587376	0.670014
	N242	N	0.959061	0.585721	0.312176
	N243	N	0.034081	0.414983	0.312088
	N244	N	0.410325	0.679372	0.953912
	N245	N	0.580616	0.677901	0.029020
	N246	N	0.581432	0.323717	0.953855
	N247	N	0.411345	0.323184	0.028448
	N248	N	0.675620	0.964390	0.405657
	N249	N	0.676361	0.037454	0.578052
	N250	N	0.317567	0.964216	0.577214
	N251	N	0.317746	0.038206	0.404699
	N252	N	0.911647	0.463046	0.168117
	N253	N	0.081104	0.537933	0.168040
	N254	N	0.080067	0.463257	0.813563
	N255	N	0.911070	0.538731	0.812883
	N256	N	0.175670	0.915056	0.453364
	N257	N	0.175928	0.087235	0.527754
	N258	N	0.817445	0.087381	0.454288
	N259	N	0.818252	0.915014	0.527763
	N260	N	0.459855	0.180979	0.904802
	N261	N	0.534001	0.180006	0.076808
	N262	N	0.459781	0.821912	0.077635
	N263	N	0.533285	0.821496	0.905717
	N264	N	0.459611	0.915963	0.169859
	N265	N	0.534230	0.086715	0.169733
	N266	N	0.459767	0.086525	0.813019
	N267	N	0.533966	0.915966	0.813996
	N268	N	0.911430	0.178475	0.453570
	N269	N	0.080980	0.177904	0.528937
	N270	N	0.082264	0.822905	0.453111
	N271	N	0.911929	0.823448	0.528030
	N272	N	0.176109	0.464166	0.903222
	N273	N	0.175003	0.537812	0.076597
	N274	N	0.817833	0.463803	0.076524
	N275	N	0.816515	0.538286	0.904340
	O276	O	2.014984	-0.061881	0.960235
	H277	H	2.023360	-0.068745	0.954179
	H278	H	2.008431	-0.062897	0.965962
	O279	O	0.059378	-0.011123	-0.019257
	H280	H	0.059116	-0.006690	-0.031669
	H281	H	0.066649	-0.019417	-0.015187
	O282	O	0.006693	-0.018909	0.936602
	H283	H	0.008493	-0.020385	0.935250
	H284	H	0.010230	-0.020245	0.942219
	O285	O	0.454562	0.539294	0.484032
	H286	H	0.457837	0.545479	0.487353
	H287	H	0.460895	0.539619	0.481648
	O288	O	0.516010	0.481606	0.505928
	H289	H	0.511851	0.481478	0.503864
	H290	H	0.516899	0.486187	0.506192
	O291	O	0.066251	0.987999	0.983212
	H292	H	0.058921	0.983978	0.982833
	H293	H	0.064598	0.985170	0.977304
	O294	O	0.065801	-0.045702	-0.024041
	H295	H	0.068848	-0.053984	-0.029187
	H296	H	0.064141	-0.038304	-0.034318
	O297	O	0.510414	0.507791	0.489315
	H298	H	0.512917	0.503798	0.483699
	H299	H	0.514175	0.508312	0.504631
	O300	O	0.012802	1.027559	0.993469
	H301	H	0.010069	1.040277	0.995724
	H302	H	0.010049	1.026502	0.997469
	O303	O	0.459029	0.520053	0.492314
	H304	H	0.459787	0.524208	0.487509
	H305	H	0.463601	0.521477	0.488709
	O306	O	-0.007605	-0.058555	0.981343
	H307	H	0.000647	-0.061494	0.987317
	H308	H	-0.010344	-0.050008	0.979631
	O309	O	1.010547	1.009007	1.041295
	H310	H	1.014541	1.004638	1.050361
	H311	H	1.011968	1.012475	1.043575
	O312	O	0.471035	0.538419	0.544793
	H313	H	0.459927	0.533125	0.550726
	H314	H	0.466713	0.525087	0.547757
	O315	O	0.454678	0.524471	0.496174
	H316	H	0.452865	0.532495	0.495693
	H317	H	0.448675	0.526583	0.495178
	O318	O	0.001832	1.030909	0.009853
	H319	H	0.003376	1.030134	0.012966
	H320	H	0.001631	1.039270	0.015601
	O321	O	1.094057	1.024506	-0.049930
	H322	H	1.091167	1.016561	-0.052382
	H323	H	1.089255	1.025199	-0.048665
