data_Molecule from HDF5

_cell_length_a		16.486811
_cell_length_b		16.605971
_cell_length_c		16.579913
_cell_angle_alpha	90.113084
_cell_angle_beta	89.825118
_cell_angle_gamma	89.957028
_symmetry_space_group_name_H-M	'P 1'
_symmetry_Int_Tables_number		1

loop_
	_symmetry_equiv_pos_as_xyz
	x,y,z

loop_
	_atom_site_label
	_atom_site_type_symbol
	_atom_site_fract_x
	_atom_site_fract_y
	_atom_site_fract_z
	H0	H	0.396903	0.839428	0.717988
	H1	H	0.605924	0.153560	0.723286
	H2	H	0.605114	0.841392	0.278056
	H3	H	0.401272	0.157406	0.285818
	H4	H	0.720178	0.393677	0.842836
	H5	H	0.719830	0.604034	0.157695
	H6	H	0.281070	0.598728	0.843699
	H7	H	0.283976	0.400387	0.160221
	H8	H	0.839274	0.718369	0.396084
	H9	H	0.155037	0.716199	0.602178
	H10	H	0.837345	0.281355	0.602781
	H11	H	0.155901	0.280994	0.400609
	H12	H	0.838138	0.396349	0.720397
	H13	H	0.155809	0.600067	0.718089
	H14	H	0.839791	0.603037	0.279456
	H15	H	0.154800	0.394483	0.281448
	H16	H	0.393583	0.719264	0.845524
	H17	H	0.603471	0.719887	0.157697
	H18	H	0.604828	0.277062	0.842714
	H19	H	0.399634	0.282249	0.159671
	H20	H	0.718828	0.840194	0.396028
	H21	H	0.720757	0.154431	0.605926
	H22	H	0.281822	0.838951	0.599552
	H23	H	0.284269	0.157635	0.403639
	H24	H	0.891938	0.340975	0.222366
	H25	H	0.105259	0.651167	0.225081
	H26	H	0.101830	0.340540	0.779816
	H27	H	0.892157	0.654786	0.779681
	H28	H	0.216037	0.895535	0.342195
	H29	H	0.216769	0.099498	0.658578
	H30	H	0.777327	0.102000	0.343675
	H31	H	0.773659	0.891890	0.656842
	H32	H	0.342054	0.218272	0.896333
	H33	H	0.657765	0.218919	0.103883
	H34	H	0.340108	0.780977	0.103096
	H35	H	0.654442	0.772752	0.891252
	H36	H	0.339911	0.897217	0.218448
	H37	H	0.657389	0.102892	0.220516
	H38	H	0.340809	0.100402	0.782452
	H39	H	0.655197	0.888820	0.775440
	H40	H	0.892075	0.220402	0.344775
	H41	H	0.100603	0.216449	0.659456
	H42	H	0.102343	0.776721	0.343662
	H43	H	0.888664	0.774193	0.656211
	H44	H	0.218591	0.340737	0.896888
	H45	H	0.218358	0.653178	0.104672
	H46	H	0.776310	0.341158	0.105676
	H47	H	0.774345	0.653559	0.894029
	H48	H	0.407616	0.109643	0.589938
	H49	H	0.583256	0.887496	0.588429
	H50	H	0.591359	0.111023	0.410932
	H51	H	0.408463	0.883599	0.401618
	H52	H	0.585878	0.412354	0.110360
	H53	H	0.586772	0.581773	0.890743
	H54	H	0.410766	0.590911	0.114390
	H55	H	0.409085	0.411446	0.888904
	H56	H	0.113090	0.594847	0.409891
	H57	H	0.883840	0.585383	0.588485
	H58	H	0.112654	0.404586	0.595631
	H59	H	0.883345	0.409982	0.409952
	H60	H	0.110978	0.403180	0.589334
	H61	H	0.885540	0.584399	0.591243
	H62	H	0.104532	0.583972	0.421613
	H63	H	0.883039	0.405779	0.412019
	H64	H	0.405146	0.591297	0.116083
	H65	H	0.581774	0.584502	0.891615
	H66	H	0.585124	0.405666	0.112126
	H67	H	0.412554	0.402505	0.887516
	H68	H	0.586185	0.109302	0.407858
	H69	H	0.584078	0.889170	0.584641
	H70	H	0.404806	0.111137	0.593119
	H71	H	0.411152	0.886228	0.410504
	H72	H	0.909348	0.607652	0.085003
	H73	H	0.084674	0.383605	0.097623
	H74	H	0.093970	0.611850	0.907462
	H75	H	0.905406	0.385402	0.911861
	H76	H	0.084836	0.904717	0.613409
	H77	H	0.091408	0.091713	0.387116
	H78	H	0.912403	0.085844	0.610599
	H79	H	0.913497	0.904848	0.389910
	H80	H	0.611569	0.086909	0.911520
	H81	H	0.383902	0.093472	0.095947
	H82	H	0.611493	0.908054	0.088278
	H83	H	0.390612	0.911602	0.918952
	H84	H	0.611772	0.909713	0.089089
	H85	H	0.387554	0.092114	0.087757
	H86	H	0.611121	0.085503	0.911712
	H87	H	0.385884	0.914149	0.903028
	H88	H	0.909407	0.090026	0.612846
	H89	H	0.090491	0.089342	0.388510
	H90	H	0.091329	0.905688	0.614324
	H91	H	0.905742	0.907654	0.387748
	H92	H	0.084796	0.609623	0.906137
	H93	H	0.085554	0.387548	0.084442
	H94	H	0.907489	0.610456	0.092375
	H95	H	0.914108	0.386943	0.907521
	H96	H	0.409250	0.111173	0.594417
	H97	H	0.587040	0.886892	0.586584
	H98	H	0.586963	0.108023	0.413961
	H99	H	0.402282	0.882879	0.409693
	H100	H	0.591271	0.408827	0.112826
	H101	H	0.586357	0.587625	0.889196
	H102	H	0.407051	0.585976	0.114036
	H103	H	0.403742	0.404520	0.885072
	H104	H	0.108851	0.578131	0.404716
	H105	H	0.884117	0.586662	0.590649
	H106	H	0.109452	0.409893	0.591454
	H107	H	0.884979	0.409041	0.414163
	H108	H	0.914829	0.607430	0.091099
	H109	H	0.096595	0.382097	0.090711
	H110	H	0.088801	0.608733	0.914445
	H111	H	0.912942	0.388859	0.916779
	H112	H	0.087776	0.910613	0.611777
	H113	H	0.088552	0.091383	0.387524
	H114	H	0.907005	0.085167	0.612594
	H115	H	0.911256	0.912651	0.392092
	H116	H	0.612457	0.085515	0.910953
	H117	H	0.387694	0.085736	0.094362
	H118	H	0.612176	0.908320	0.090259
	H119	H	0.383701	0.898950	0.909838
	C120	C	0.376889	0.005998	0.622071
	C121	C	0.618959	0.990243	0.620457
	C122	C	0.620763	0.006292	0.378381
	C123	C	0.378022	0.989658	0.378917
	C124	C	0.620032	0.377099	0.008099
	C125	C	0.618753	0.618428	0.993164
	C126	C	0.376290	0.619949	0.010679
	C127	C	0.378309	0.376792	0.992372
	C128	C	0.005433	0.618831	0.379353
	C129	C	0.988878	0.617701	0.621384
	C130	C	0.005763	0.375974	0.623122
	C131	C	0.988382	0.376936	0.380674
	C132	C	0.877045	0.505766	0.122233
	C133	C	0.119696	0.488127	0.122254
	C134	C	0.120565	0.506130	0.878062
	C135	C	0.877395	0.490166	0.879945
	C136	C	0.119105	0.876192	0.508835
	C137	C	0.120005	0.120516	0.492494
	C138	C	0.877222	0.118824	0.508561
	C139	C	0.876268	0.875757	0.492790
	C140	C	0.507692	0.118169	0.879590
	C141	C	0.491377	0.120682	0.122677
	C142	C	0.507034	0.878150	0.120758
	C143	C	0.490416	0.875192	0.877778
	C144	C	0.377252	0.886868	0.679026
	C145	C	0.623285	0.106859	0.682605
	C146	C	0.622916	0.888357	0.318264
	C147	C	0.380316	0.109875	0.323958
	C148	C	0.679928	0.375627	0.889880
	C149	C	0.679387	0.621465	0.110700
	C150	C	0.319094	0.619186	0.891237
	C151	C	0.321941	0.379113	0.112346
	C152	C	0.886913	0.678790	0.377411
	C153	C	0.107689	0.676633	0.621767
	C154	C	0.885469	0.319678	0.622692
	C155	C	0.108077	0.319201	0.380408
	C156	C	0.885826	0.377154	0.680899
	C157	C	0.108059	0.618872	0.679163
	C158	C	0.886891	0.621164	0.319532
	C159	C	0.107582	0.375721	0.321600
	C160	C	0.375115	0.678802	0.892288
	C161	C	0.621548	0.679246	0.110765
	C162	C	0.622586	0.317364	0.889826
	C163	C	0.379747	0.321015	0.112158
	C164	C	0.679831	0.887831	0.376865
	C165	C	0.680538	0.107359	0.623987
	C166	C	0.320002	0.886584	0.620263
	C167	C	0.322298	0.109779	0.382423
	C168	C	0.873685	0.388160	0.182489
	C169	C	0.122557	0.605071	0.183509
	C170	C	0.121171	0.387862	0.819306
	C171	C	0.874058	0.607646	0.819629
	C172	C	0.177294	0.876139	0.390008
	C173	C	0.177649	0.119461	0.611320
	C174	C	0.817424	0.120596	0.390592
	C175	C	0.814293	0.873394	0.609895
	C176	C	0.389290	0.178205	0.877938
	C177	C	0.610341	0.179397	0.122851
	C178	C	0.387917	0.820123	0.121965
	C179	C	0.607635	0.813406	0.873756
	C180	C	0.387760	0.878154	0.179292
	C181	C	0.610214	0.121895	0.180911
	C182	C	0.388592	0.119462	0.821322
	C183	C	0.607914	0.871284	0.816176
	C184	C	0.874257	0.179583	0.391380
	C185	C	0.119812	0.177524	0.611824
	C186	C	0.120591	0.817045	0.390672
	C187	C	0.871656	0.814972	0.609864
	C188	C	0.179197	0.387705	0.877302
	C189	C	0.179245	0.605907	0.124188
	C190	C	0.816121	0.388360	0.124297
	C191	C	0.815472	0.606940	0.876687
	C192	C	0.400523	0.089068	0.599202
	C193	C	0.592592	0.909106	0.594041
	C194	C	0.595465	0.088071	0.403600
	C195	C	0.400732	0.906141	0.400720
	C196	C	0.594866	0.401757	0.090298
	C197	C	0.592496	0.592214	0.911750
	C198	C	0.400529	0.596216	0.093194
	C199	C	0.401572	0.399516	0.908948
	C200	C	0.087488	0.593150	0.404740
	C201	C	0.905859	0.592759	0.596929
	C202	C	0.089330	0.399326	0.599111
	C203	C	0.905474	0.401322	0.404920
	C204	C	0.903113	0.587388	0.096954
	C205	C	0.095599	0.405880	0.097768
	C206	C	0.096195	0.588653	0.902556
	C207	C	0.903375	0.408336	0.904860
	C208	C	0.094889	0.900182	0.591644
	C209	C	0.096542	0.097566	0.409483
	C210	C	0.902247	0.093902	0.590572
	C211	C	0.902616	0.901143	0.411044
	C212	C	0.590372	0.093170	0.904277
	C213	C	0.408137	0.097148	0.099323
	C214	C	0.590401	0.901941	0.096207
	C215	C	0.408203	0.900910	0.903413
	Zn216	Zn	0.499035	-0.002568	0.750577
	Zn217	Zn	0.499750	-0.001888	0.249801
	Zn218	Zn	0.748463	0.498056	0.000738
	Zn219	Zn	0.248685	0.496928	0.000843
	Zn220	Zn	-0.002730	0.746786	0.500994
	Zn221	Zn	-0.002583	0.248198	0.501901
	Zn222	Zn	-0.002338	0.498497	0.750537
	Zn223	Zn	-0.002484	0.497297	0.251481
	Zn224	Zn	0.498926	0.747936	0.000769
	Zn225	Zn	0.499705	0.247276	-0.000034
	Zn226	Zn	0.748549	-0.002247	0.500121
	Zn227	Zn	0.248350	-0.002482	0.500526
	N228	N	0.411470	0.962331	0.680697
	N229	N	0.585545	0.033178	0.680400
	N230	N	0.587161	0.963142	0.318708
	N231	N	0.413692	0.034023	0.321300
	N232	N	0.678586	0.411692	0.964410
	N233	N	0.677874	0.584384	0.036475
	N234	N	0.319398	0.583425	0.965795
	N235	N	0.320811	0.412699	0.036655
	N236	N	0.961492	0.677442	0.413757
	N237	N	0.032283	0.676106	0.586677
	N238	N	0.961182	0.318803	0.587640
	N239	N	0.032945	0.319690	0.416465
	N240	N	0.961926	0.410940	0.681658
	N241	N	0.032906	0.583366	0.679183
	N242	N	0.961666	0.584450	0.320436
	N243	N	0.032172	0.410574	0.321431
	N244	N	0.409639	0.679758	0.967609
	N245	N	0.584700	0.677648	0.036609
	N246	N	0.585993	0.318010	0.964447
	N247	N	0.413498	0.318817	0.036275
	N248	N	0.678886	0.962171	0.413333
	N249	N	0.678166	0.033815	0.586131
	N250	N	0.319584	0.961769	0.585833
	N251	N	0.320243	0.033958	0.415247
	N252	N	0.910426	0.462462	0.181689
	N253	N	0.085979	0.530755	0.182476
	N254	N	0.085665	0.462713	0.819427
	N255	N	0.911968	0.533969	0.821578
	N256	N	0.176563	0.912123	0.464593
	N257	N	0.177979	0.084675	0.536242
	N258	N	0.819180	0.083466	0.464537
	N259	N	0.817400	0.910783	0.536163
	N260	N	0.464624	0.177807	0.913127
	N261	N	0.535269	0.178928	0.087566
	N262	N	0.463173	0.819992	0.086169
	N263	N	0.533381	0.815743	0.911381
	N264	N	0.463134	0.913561	0.178750
	N265	N	0.535146	0.086227	0.181175
	N266	N	0.463507	0.083224	0.821871
	N267	N	0.533726	0.908925	0.818393
	N268	N	0.910854	0.178380	0.465612
	N269	N	0.084774	0.178468	0.536685
	N270	N	0.084903	0.816789	0.465650
	N271	N	0.909496	0.816445	0.535921
	N272	N	0.179104	0.462501	0.912862
	N273	N	0.177129	0.532401	0.086433
	N274	N	0.818034	0.462559	0.087707
	N275	N	0.817642	0.533034	0.913530
	O276	O	0.978122	1.025031	0.020326
	H277	H	0.965927	1.008969	0.005432
	H278	H	0.988158	1.022075	0.011914
	O279	O	0.216008	-0.156687	0.954204
	H280	H	0.220508	-0.121982	0.959800
	H281	H	0.242220	-0.170279	0.955585
	O282	O	0.699567	0.505280	0.520097
	H283	H	0.694860	0.506162	0.504235
	H284	H	0.686988	0.509496	0.521132
	O285	O	0.300118	0.295792	0.649285
	H286	H	0.294818	0.330704	0.651285
	H287	H	0.277510	0.284406	0.659542
	O288	O	0.948537	-0.005432	1.175305
	H289	H	0.959277	-0.024588	1.181123
	H290	H	0.931271	-0.014429	1.172893
	O291	O	0.476763	0.654568	0.613435
	H292	H	0.463738	0.635798	0.616533
	H293	H	0.476036	0.672748	0.629649
	O294	O	-0.010444	-0.072140	0.072202
	H295	H	-0.000618	-0.053356	0.068017
	H296	H	-0.015033	-0.070467	0.063868
	O297	O	0.827063	0.176544	0.154892
	H298	H	0.827006	0.166350	0.133855
	H299	H	0.847643	0.157820	0.136154
	O300	O	0.205181	0.206970	0.208332
	H301	H	0.159984	0.219650	0.220821
	H302	H	0.219302	0.230195	0.234802
	O303	O	-0.040477	0.219104	-0.223094
	H304	H	-0.051767	0.228620	-0.222352
	H305	H	-0.040322	0.234615	-0.236559
	O306	O	0.784590	-0.028501	0.216839
	H307	H	0.780625	-0.029092	0.222686
	H308	H	0.772048	-0.039334	0.222824
	O309	O	0.195475	0.797310	0.186778
	H310	H	0.165236	0.806432	0.168373
	H311	H	0.198256	0.821466	0.165255
	O312	O	0.326993	0.286518	0.504606
	H313	H	0.315447	0.264694	0.498501
	H314	H	0.343508	0.279203	0.538157
	O315	O	0.566358	0.319378	0.584008
	H316	H	0.570668	0.320362	0.584880
	H317	H	0.551724	0.316771	0.609321
	O318	O	1.217788	0.937288	0.045159
	H319	H	1.223296	0.969444	0.037890
	H320	H	1.219159	0.956845	0.063914
	O321	O	0.200227	0.788828	0.791715
	H322	H	0.218401	0.761585	0.768134
	H323	H	0.206936	0.780378	0.846463
	O324	O	0.888569	-0.224217	0.963472
	H325	H	0.873816	-0.224827	0.965391
	H326	H	0.883585	-0.224885	0.967989
	O327	O	0.807606	0.812263	0.926918
	H328	H	0.808002	0.814757	0.950962
	H329	H	0.795891	0.806274	0.933454
	O330	O	0.398990	0.484147	0.621254
	H331	H	0.396583	0.497052	0.630511
	H332	H	0.401105	0.495072	0.606738
	O333	O	0.305166	0.672490	0.513172
	H334	H	0.298602	0.684243	0.477463
	H335	H	0.307548	0.662651	0.500781
	O336	O	0.315957	0.681155	0.692685
	H337	H	0.345540	0.665427	0.692908
	H338	H	0.313453	0.675934	0.654709
	O339	O	0.691429	0.669353	0.695321
	H340	H	0.698650	0.668180	0.687833
	H341	H	0.697673	0.649670	0.666018
	O342	O	0.105554	1.057730	-0.162921
	H343	H	0.117605	1.066777	-0.161324
	H344	H	0.119515	1.070326	-0.164760
	O345	O	0.332825	0.335843	0.313018
	H346	H	0.347682	0.346385	0.329550
	H347	H	0.346440	0.353297	0.322805
	O348	O	0.380964	0.466076	0.622829
	H349	H	0.370327	0.464426	0.637894
	H350	H	0.387622	0.472726	0.624798
	O351	O	0.228076	0.225310	1.036991
	H352	H	0.252775	0.250195	1.051178
	H353	H	0.229014	0.229590	1.075467
	O354	O	0.866409	-0.048676	0.848502
	H355	H	0.875928	-0.054583	0.834673
	H356	H	0.874955	-0.060605	0.855389
	O357	O	0.293524	0.696342	0.298159
	H358	H	0.284656	0.710286	0.273231
	H359	H	0.290432	0.686264	0.281759
	O360	O	0.532514	0.558790	0.293539
	H361	H	0.573078	0.555357	0.293966
	H362	H	0.525307	0.568645	0.284132
	O363	O	0.698345	0.300233	0.305470
	H364	H	0.697781	0.293046	0.355141
	H365	H	0.722468	0.281644	0.284824
	O366	O	0.797716	0.190751	0.805658
	H367	H	0.791221	0.136607	0.798229
	H368	H	0.821626	0.200566	0.828306
	O369	O	-0.131487	0.028168	0.958584
	H370	H	-0.123969	0.031504	0.952683
	H371	H	-0.135871	0.021030	0.948190
	O372	O	0.034366	0.925022	0.921466
	H373	H	0.039723	0.942159	0.919927
	H374	H	0.038510	0.919399	0.915703
	O375	O	0.779370	-0.019812	-0.015293
	H376	H	0.774309	-0.017440	-0.007987
	H377	H	0.780955	-0.034614	-0.005652
	O378	O	0.613442	0.289157	0.365965
	H379	H	0.621657	0.288054	0.377568
	H380	H	0.626335	0.277083	0.374359
	O381	O	0.131664	1.066918	0.023832
	H382	H	0.137651	1.063367	0.020654
	H383	H	0.132730	1.066227	0.018523
	O384	O	0.556618	0.415969	0.699635
	H385	H	0.556481	0.393097	0.710290
	H386	H	0.539735	0.410595	0.697640
	O387	O	0.218198	0.960174	0.776786
	H388	H	0.238304	0.944102	0.761870
	H389	H	0.225361	0.926425	0.771460
	O390	O	0.044528	1.214843	0.930537
	H391	H	0.044510	1.226645	0.937167
	H392	H	0.031713	1.193791	0.940105
	O393	O	1.038510	0.210723	0.210102
	H394	H	1.031240	0.209064	0.214561
	H395	H	1.018788	0.212702	0.205075
	O396	O	0.292168	0.526077	0.544082
	H397	H	0.295014	0.527769	0.532294
	H398	H	0.293396	0.525903	0.531569
	O399	O	0.542572	0.711020	0.717263
	H400	H	0.550328	0.733750	0.724822
	H401	H	0.576371	0.707300	0.720449
	O402	O	0.794395	0.025791	0.793481
	H403	H	0.797324	0.008364	0.770777
	H404	H	0.799883	0.001262	0.799998
	O405	O	0.509593	0.521081	0.615010
	H406	H	0.512615	0.509641	0.631763
	H407	H	0.516145	0.539958	0.599966
	O408	O	1.006892	0.829191	0.945108
	H409	H	1.024713	0.826752	0.925759
	H410	H	1.013425	0.829253	0.927688
	O411	O	0.799647	0.799202	0.140430
	H412	H	0.818292	0.787774	0.145807
	H413	H	0.805330	0.810045	0.149808
	O414	O	-0.027910	-0.068970	0.176748
	H415	H	-0.033366	-0.058485	0.172400
	H416	H	-0.024670	-0.081187	0.176225
	O417	O	0.710423	0.470372	0.283440
	H418	H	0.735515	0.468349	0.269820
	H419	H	0.716632	0.434555	0.285350
	O420	O	1.180368	0.182888	0.834831
	H421	H	1.173868	0.169605	0.855953
	H422	H	1.151383	0.187581	0.848819
	O423	O	0.958120	1.231796	0.064397
	H424	H	0.965641	1.215584	0.062954
	H425	H	0.947724	1.228326	0.059763
	O426	O	0.648031	0.348531	0.570056
	H427	H	0.645467	0.344156	0.585785
	H428	H	0.654520	0.347074	0.574599
	O429	O	0.660573	0.654199	0.533785
	H430	H	0.653509	0.641609	0.512467
	H431	H	0.667261	0.669587	0.536374
	O432	O	1.026245	-0.219878	0.778006
	H433	H	1.058017	-0.215891	0.792163
	H434	H	1.031094	-0.252131	0.751496
	O435	O	0.525118	0.349927	0.476974
	H436	H	0.510952	0.349264	0.477189
	H437	H	0.524524	0.358737	0.494293
	O438	O	0.284895	0.456364	0.413451
	H439	H	0.289455	0.447755	0.418028
	H440	H	0.290491	0.462005	0.427604
	O441	O	0.479241	0.620908	0.388895
	H442	H	0.484117	0.620310	0.386148
	H443	H	0.483934	0.628163	0.408022
	O444	O	0.479610	0.370767	0.299114
	H445	H	0.500420	0.389032	0.296715
	H446	H	0.495629	0.348109	0.290878
	O447	O	0.402924	0.517372	0.379200
	H448	H	0.406882	0.512320	0.383561
	H449	H	0.421446	0.507397	0.386822
	O450	O	1.226098	0.042154	0.226589
	H451	H	1.256144	0.047257	0.259110
	H452	H	1.221847	0.085784	0.225395
	O453	O	0.391650	0.706978	0.392295
	H454	H	0.360631	0.722362	0.387809
	H455	H	0.385847	0.702069	0.372905
	O456	O	-0.216812	1.215257	0.969751
	H457	H	-0.214299	1.224894	0.971634
	H458	H	-0.233669	1.220273	0.958209
	O459	O	0.587243	0.677103	0.406208
	H460	H	0.573796	0.668397	0.419690
	H461	H	0.573362	0.663718	0.402127
	O462	O	0.924706	0.788170	0.205835
	H463	H	0.942704	0.786294	0.192408
	H464	H	0.932173	0.781305	0.209156
	O465	O	0.671919	0.460384	0.703348
	H466	H	0.666666	0.463854	0.702225
	H467	H	0.682428	0.451802	0.718673
	O468	O	0.101742	0.933768	0.196312
	H469	H	0.089593	0.931707	0.192574
	H470	H	0.115982	0.946933	0.212019
	O471	O	0.639222	0.597867	0.429964
	H472	H	0.633813	0.572351	0.426289
	H473	H	0.635351	0.607796	0.430758
	O474	O	1.049082	0.906799	-0.080292
	H475	H	1.041208	0.901646	-0.096028
	H476	H	1.055589	0.903604	-0.082408
	O477	O	0.425816	0.282017	0.712712
	H478	H	0.399820	0.280721	0.709921
	H479	H	0.408585	0.275940	0.724188
