data_Molecule from HDF5

_cell_length_a		16.442033
_cell_length_b		16.325647
_cell_length_c		16.416408
_cell_angle_alpha	90.261842
_cell_angle_beta	89.726911
_cell_angle_gamma	90.023685
_symmetry_space_group_name_H-M	'P 1'
_symmetry_Int_Tables_number		1

loop_
	_symmetry_equiv_pos_as_xyz
	x,y,z

loop_
	_atom_site_label
	_atom_site_type_symbol
	_atom_site_fract_x
	_atom_site_fract_y
	_atom_site_fract_z
	H0	H	0.391882	0.846191	0.720105
	H1	H	0.598044	0.167655	0.724122
	H2	H	0.600733	0.848052	0.282130
	H3	H	0.389998	0.167229	0.282656
	H4	H	0.716345	0.402918	0.842926
	H5	H	0.715791	0.613723	0.161343
	H6	H	0.274708	0.614747	0.842490
	H7	H	0.272851	0.405808	0.161565
	H8	H	0.835991	0.729816	0.399603
	H9	H	0.156475	0.727061	0.602576
	H10	H	0.835124	0.290556	0.604638
	H11	H	0.154870	0.289964	0.397730
	H12	H	0.835771	0.406263	0.722312
	H13	H	0.154877	0.614883	0.721767
	H14	H	0.835418	0.613754	0.282390
	H15	H	0.154154	0.404912	0.280096
	H16	H	0.394905	0.727208	0.841939
	H17	H	0.597159	0.726254	0.162852
	H18	H	0.599593	0.286847	0.843294
	H19	H	0.390355	0.290029	0.163109
	H20	H	0.717784	0.848753	0.396076
	H21	H	0.715704	0.167321	0.610604
	H22	H	0.273876	0.848668	0.607319
	H23	H	0.276876	0.169090	0.400634
	H24	H	0.890972	0.347727	0.220723
	H25	H	0.096489	0.668978	0.220705
	H26	H	0.098215	0.348513	0.781605
	H27	H	0.892702	0.670148	0.785652
	H28	H	0.216189	0.904877	0.343624
	H29	H	0.212457	0.113063	0.662785
	H30	H	0.774241	0.112834	0.343780
	H31	H	0.774718	0.904767	0.662442
	H32	H	0.336027	0.227041	0.901438
	H33	H	0.655584	0.229190	0.106457
	H34	H	0.335802	0.790053	0.103995
	H35	H	0.656272	0.789102	0.898694
	H36	H	0.335919	0.905847	0.221132
	H37	H	0.655960	0.112755	0.222547
	H38	H	0.335459	0.109362	0.785933
	H39	H	0.654112	0.901846	0.780418
	H40	H	0.893082	0.226172	0.341816
	H41	H	0.094952	0.227676	0.662238
	H42	H	0.097217	0.791276	0.342214
	H43	H	0.892721	0.790910	0.663651
	H44	H	0.214729	0.348212	0.896883
	H45	H	0.212782	0.669266	0.103936
	H46	H	0.776781	0.347796	0.104143
	H47	H	0.776420	0.668459	0.899546
	H48	H	0.409037	0.124341	0.603176
	H49	H	0.581260	0.893278	0.596375
	H50	H	0.587451	0.122839	0.413955
	H51	H	0.411793	0.895768	0.412039
	H52	H	0.579059	0.424392	0.112410
	H53	H	0.582183	0.602402	0.888335
	H54	H	0.403725	0.601706	0.115553
	H55	H	0.408271	0.411669	0.887411
	H56	H	0.108132	0.598727	0.409927
	H57	H	0.879669	0.604445	0.598228
	H58	H	0.107941	0.422431	0.592253
	H59	H	0.881208	0.416166	0.414175
	H60	H	0.109714	0.417692	0.592608
	H61	H	0.883161	0.600886	0.587564
	H62	H	0.108291	0.599001	0.410811
	H63	H	0.882532	0.421575	0.412176
	H64	H	0.401451	0.595314	0.115160
	H65	H	0.593386	0.598183	0.886224
	H66	H	0.585051	0.410157	0.118996
	H67	H	0.399637	0.419172	0.888065
	H68	H	0.580241	0.120505	0.412788
	H69	H	0.582589	0.896077	0.586118
	H70	H	0.407497	0.119426	0.588794
	H71	H	0.404009	0.895478	0.419284
	H72	H	0.910356	0.621780	0.094365
	H73	H	0.084846	0.394231	0.088445
	H74	H	0.085732	0.623240	0.911781
	H75	H	0.909298	0.395102	0.911916
	H76	H	0.083387	0.918782	0.617442
	H77	H	0.085184	0.099964	0.387953
	H78	H	0.904352	0.094393	0.614079
	H79	H	0.902933	0.922174	0.389077
	H80	H	0.609596	0.098637	0.913159
	H81	H	0.380969	0.105909	0.092762
	H82	H	0.613608	0.912690	0.097889
	H83	H	0.381574	0.913928	0.912776
	H84	H	0.608719	0.914732	0.086554
	H85	H	0.386135	0.093574	0.088389
	H86	H	0.608132	0.095604	0.916069
	H87	H	0.383355	0.918577	0.916046
	H88	H	0.908492	0.100466	0.615273
	H89	H	0.090965	0.100171	0.387362
	H90	H	0.086852	0.917942	0.617711
	H91	H	0.910439	0.920940	0.391579
	H92	H	0.086719	0.623871	0.911557
	H93	H	0.084783	0.394046	0.091500
	H94	H	0.903971	0.621433	0.086732
	H95	H	0.904247	0.394117	0.913481
	H96	H	0.396250	0.125556	0.595754
	H97	H	0.591024	0.891539	0.591454
	H98	H	0.583883	0.120261	0.419326
	H99	H	0.402256	0.891734	0.409148
	H100	H	0.594603	0.423506	0.117223
	H101	H	0.584770	0.590618	0.890417
	H102	H	0.407596	0.596905	0.113490
	H103	H	0.409597	0.421804	0.891858
	H104	H	0.108183	0.597950	0.410722
	H105	H	0.882771	0.593402	0.596482
	H106	H	0.107727	0.418987	0.588558
	H107	H	0.879981	0.417933	0.408194
	H108	H	0.901262	0.625350	0.096063
	H109	H	0.082128	0.394489	0.090099
	H110	H	0.086054	0.623217	0.910894
	H111	H	0.906050	0.393136	0.908132
	H112	H	0.086015	0.920508	0.616288
	H113	H	0.088432	0.095641	0.388855
	H114	H	0.901619	0.100751	0.617071
	H115	H	0.905779	0.914705	0.388746
	H116	H	0.607886	0.094783	0.911570
	H117	H	0.381609	0.094712	0.101915
	H118	H	0.608379	0.924395	0.095384
	H119	H	0.382043	0.918991	0.910498
	C120	C	0.373251	0.016561	0.625814
	C121	C	0.616070	0.999381	0.623867
	C122	C	0.616433	0.016177	0.381939
	C123	C	0.374473	1.000116	0.382376
	C124	C	0.617274	0.387237	0.010823
	C125	C	0.617626	0.629295	0.993929
	C126	C	0.373930	0.629783	0.009502
	C127	C	0.373324	0.386701	0.994434
	C128	C	0.003026	0.630242	0.380343
	C129	C	0.987519	0.631051	0.624131
	C130	C	0.003196	0.388268	0.622935
	C131	C	0.986283	0.386618	0.379375
	C132	C	0.873323	0.516986	0.123461
	C133	C	0.115202	0.500440	0.121571
	C134	C	0.117446	0.517388	0.879537
	C135	C	0.875059	0.500466	0.881086
	C136	C	0.117072	0.887638	0.511529
	C137	C	0.117293	0.130210	0.493937
	C138	C	0.873303	0.130182	0.510622
	C139	C	0.874558	0.887679	0.494997
	C140	C	0.503346	0.127946	0.882873
	C141	C	0.487817	0.130081	0.125465
	C142	C	0.504433	0.886543	0.124035
	C143	C	0.487382	0.885454	0.880703
	C144	C	0.372623	0.895206	0.682496
	C145	C	0.617075	0.119618	0.684387
	C146	C	0.619256	0.896080	0.321439
	C147	C	0.372704	0.119907	0.322979
	C148	C	0.676447	0.384625	0.890685
	C149	C	0.676237	0.631508	0.113765
	C150	C	0.314814	0.632461	0.890142
	C151	C	0.313131	0.386452	0.114109
	C152	C	0.883449	0.690065	0.380166
	C153	C	0.108149	0.688783	0.622647
	C154	C	0.883129	0.329642	0.623911
	C155	C	0.106588	0.328364	0.378230
	C156	C	0.883516	0.387180	0.682550
	C157	C	0.107368	0.632904	0.682064
	C158	C	0.883155	0.631897	0.321989
	C159	C	0.106244	0.385580	0.319772
	C160	C	0.374768	0.688338	0.889735
	C161	C	0.617265	0.687730	0.114579
	C162	C	0.618363	0.327011	0.890912
	C163	C	0.371792	0.329136	0.114999
	C164	C	0.677125	0.896342	0.378628
	C165	C	0.675621	0.119466	0.627649
	C166	C	0.314077	0.896318	0.626124
	C167	C	0.316019	0.120769	0.381700
	C168	C	0.871873	0.396174	0.182051
	C169	C	0.115932	0.621043	0.180977
	C170	C	0.117691	0.396544	0.820602
	C171	C	0.874236	0.621702	0.824426
	C172	C	0.176461	0.886287	0.391304
	C173	C	0.173834	0.131665	0.614683
	C174	C	0.813965	0.131300	0.391139
	C175	C	0.814751	0.886091	0.614796
	C176	C	0.383558	0.187201	0.882764
	C177	C	0.607918	0.189585	0.125605
	C178	C	0.383940	0.828724	0.123806
	C179	C	0.608036	0.827625	0.879667
	C180	C	0.383937	0.886415	0.182229
	C181	C	0.607874	0.131765	0.183579
	C182	C	0.383433	0.128561	0.825174
	C183	C	0.606967	0.883784	0.820695
	C184	C	0.873381	0.187630	0.390121
	C185	C	0.115419	0.188635	0.614486
	C186	C	0.117310	0.829783	0.390539
	C187	C	0.873227	0.829137	0.615212
	C188	C	0.175669	0.396424	0.878040
	C189	C	0.173649	0.621306	0.123104
	C190	C	0.815050	0.396010	0.124025
	C191	C	0.815967	0.620661	0.880923
	C192	C	0.397329	0.101097	0.602551
	C193	C	0.591971	0.915484	0.598466
	C194	C	0.591133	0.099375	0.407981
	C195	C	0.398869	0.916130	0.406582
	C196	C	0.593249	0.412283	0.094395
	C197	C	0.593524	0.604500	0.910167
	C198	C	0.397376	0.604995	0.093106
	C199	C	0.398618	0.410418	0.910792
	C200	C	0.086452	0.605779	0.403726
	C201	C	0.903821	0.606779	0.600911
	C202	C	0.086750	0.412701	0.598175
	C203	C	0.902943	0.411248	0.404309
	C204	C	0.898041	0.601065	0.099501
	C205	C	0.091003	0.416171	0.097064
	C206	C	0.093336	0.601663	0.904187
	C207	C	0.899453	0.416018	0.904482
	C208	C	0.092490	0.912105	0.595235
	C209	C	0.094783	0.105671	0.409853
	C210	C	0.897561	0.105587	0.593968
	C211	C	0.899166	0.912307	0.411609
	C212	C	0.586729	0.103516	0.907031
	C213	C	0.404545	0.105292	0.101347
	C214	C	0.588423	0.910467	0.100339
	C215	C	0.403955	0.909958	0.905874
	Zn216	Zn	0.495220	0.006759	0.752779
	Zn217	Zn	0.496159	0.008153	0.253536
	Zn218	Zn	0.746507	0.508140	0.001922
	Zn219	Zn	0.244785	0.508792	0.001443
	Zn220	Zn	-0.004656	0.758859	0.502873
	Zn221	Zn	-0.004915	0.258663	0.501792
	Zn222	Zn	-0.004549	0.509670	0.752457
	Zn223	Zn	-0.005496	0.507911	0.251131
	Zn224	Zn	0.496633	0.757836	0.002209
	Zn225	Zn	0.495976	0.258695	0.003589
	Zn226	Zn	0.744830	0.008254	0.502901
	Zn227	Zn	0.246053	0.008828	0.503724
	N228	N	0.408820	0.971104	0.682361
	N229	N	0.580897	0.043725	0.682321
	N230	N	0.582175	0.971541	0.323396
	N231	N	0.408649	0.043898	0.323454
	N232	N	0.675868	0.421287	0.966258
	N233	N	0.676427	0.595701	0.037836
	N234	N	0.314365	0.596656	0.965644
	N235	N	0.313932	0.421328	0.038000
	N236	N	0.958904	0.689153	0.415746
	N237	N	0.032496	0.687924	0.587506
	N238	N	0.958526	0.330328	0.587454
	N239	N	0.030994	0.328806	0.414637
	N240	N	0.959361	0.422809	0.682052
	N241	N	0.031465	0.597626	0.683088
	N242	N	0.958570	0.595549	0.321844
	N243	N	0.030499	0.421034	0.320355
	N244	N	0.410816	0.686963	0.965102
	N245	N	0.581570	0.686486	0.038997
	N246	N	0.582185	0.328610	0.966427
	N247	N	0.408570	0.329302	0.039556
	N248	N	0.675726	0.972075	0.415495
	N249	N	0.675203	0.043813	0.590707
	N250	N	0.314377	0.972747	0.591516
	N251	N	0.317124	0.045216	0.418062
	N252	N	0.907259	0.472517	0.182025
	N253	N	0.080283	0.544863	0.180216
	N254	N	0.082634	0.472989	0.821247
	N255	N	0.910633	0.545921	0.824556
	N256	N	0.176855	0.921049	0.467754
	N257	N	0.175434	0.096366	0.538585
	N258	N	0.813795	0.096300	0.467256
	N259	N	0.815239	0.921769	0.539140
	N260	N	0.459253	0.187112	0.917795
	N261	N	0.532068	0.189005	0.090418
	N262	N	0.459786	0.828722	0.088476
	N263	N	0.532769	0.828511	0.916278
	N264	N	0.460018	0.921508	0.182653
	N265	N	0.532360	0.095626	0.183551
	N266	N	0.458844	0.092488	0.825148
	N267	N	0.530909	0.918961	0.821211
	N268	N	0.909734	0.186740	0.465223
	N269	N	0.081359	0.188242	0.538198
	N270	N	0.081302	0.830199	0.466269
	N271	N	0.909503	0.829764	0.539577
	N272	N	0.175767	0.472711	0.913625
	N273	N	0.173069	0.545259	0.086915
	N274	N	0.815939	0.472076	0.088374
	N275	N	0.816561	0.544230	0.915566
	O276	O	0.493427	0.423847	0.414655
	H277	H	0.502473	0.418674	0.402162
	H278	H	0.495710	0.426032	0.405310
	O279	O	0.980037	0.054669	0.010257
	H280	H	0.985362	0.055889	0.009986
	H281	H	0.987072	0.061117	0.013544
	O282	O	0.608318	0.465184	0.502504
	H283	H	0.595529	0.465238	0.512449
	H284	H	0.596574	0.467798	0.498107
	O285	O	1.039897	0.119591	0.022185
	H286	H	1.043915	0.121680	0.017869
	H287	H	1.027428	0.109878	0.015583
	O288	O	-0.152149	0.023043	1.107146
	H289	H	-0.155787	0.002491	1.093045
	H290	H	-0.158077	0.031846	1.107374
	O291	O	0.333900	0.575972	0.428842
	H292	H	0.345981	0.565485	0.418936
	H293	H	0.325361	0.587751	0.420463
	O294	O	0.309907	0.475384	0.380960
	H295	H	0.306582	0.487651	0.368242
	H296	H	0.323562	0.479522	0.383525
	O297	O	0.869294	1.066310	0.841420
	H298	H	0.874533	1.077346	0.842336
	H299	H	0.846654	1.074062	0.838953
	O300	O	0.029560	0.102990	-0.047689
	H301	H	0.030682	0.094751	-0.047727
	H302	H	0.036049	0.096639	-0.042098
	O303	O	0.589406	0.328990	0.302557
	H304	H	0.626095	0.340937	0.310814
	H305	H	0.595024	0.311776	0.298575
	O306	O	1.139182	0.058231	0.159319
	H307	H	1.126579	0.063346	0.149912
	H308	H	1.133290	0.046081	0.169756
	O309	O	0.566154	0.683731	0.423764
	H310	H	0.563974	0.696351	0.433986
	H311	H	0.564520	0.686642	0.446566
	O312	O	0.615479	1.693125	-0.382668
	H313	H	0.601342	1.684590	-0.377034
	H314	H	0.615750	1.698748	-0.378724
	O315	O	0.469868	0.412810	0.549710
	H316	H	0.453339	0.413393	0.544763
	H317	H	0.466297	0.430696	0.551180
	O318	O	0.418883	0.567887	0.669652
	H319	H	0.398481	0.559629	0.678105
	H320	H	0.418833	0.573972	0.653538
	O321	O	0.825705	-0.134588	1.029736
	H322	H	0.820635	-0.127507	1.028806
	H323	H	0.826577	-0.139472	1.014768
	O324	O	-0.034983	-0.060917	1.018933
	H325	H	-0.038298	-0.063140	1.009219
	H326	H	-0.037351	-0.066196	1.010843
	O327	O	0.288874	0.427828	0.716793
	H328	H	0.279789	0.392092	0.721562
	H329	H	0.265916	0.424497	0.710867
	O330	O	0.569542	0.442224	0.504764
	H331	H	0.569566	0.441261	0.490858
	H332	H	0.584658	0.442714	0.510681
	O333	O	1.028582	1.015736	0.998830
	H334	H	1.035924	1.013372	1.003198
	H335	H	1.026187	1.005972	1.012506
	O336	O	0.505616	0.607222	0.302352
	H337	H	0.515228	0.627524	0.299133
	H338	H	0.492498	0.604022	0.297843
	O339	O	1.435516	-0.607774	1.519098
	H340	H	1.434126	-0.596880	1.509855
	H341	H	1.429579	-0.620496	1.500184
	O342	O	0.176496	0.851313	0.975956
	H343	H	0.176614	0.860190	0.987827
	H344	H	0.185112	0.846478	0.990061
	O345	O	0.018695	1.022412	1.151753
	H346	H	0.003491	1.014077	1.154588
	H347	H	0.021003	1.025551	1.166373
	O348	O	0.700875	0.342951	0.770024
	H349	H	0.711061	0.332731	0.780975
	H350	H	0.691851	0.355096	0.767449
	O351	O	0.131643	0.213771	0.054417
	H352	H	0.136036	0.227498	0.072847
	H353	H	0.130800	0.205512	0.075434
	O354	O	1.048486	0.901869	0.024160
	H355	H	1.041438	0.902014	0.012976
	H356	H	1.045855	0.895256	0.036992
	O357	O	0.064471	0.816321	-0.172157
	H358	H	0.088960	0.832306	-0.163387
	H359	H	0.057383	0.796831	-0.185782
	O360	O	0.635497	0.453398	0.367069
	H361	H	0.642727	0.440586	0.374583
	H362	H	0.635383	0.479831	0.372606
	O363	O	0.155831	-0.022574	-0.148820
	H364	H	0.152315	-0.027659	-0.138428
	H365	H	0.161973	-0.017229	-0.159672
	O366	O	-0.081639	1.035020	0.024503
	H367	H	-0.067242	1.029708	0.021063
	H368	H	-0.079326	1.021788	0.025418
	O369	O	0.564211	0.412209	0.576005
	H370	H	0.570679	0.417436	0.583327
	H371	H	0.575636	0.415000	0.571697
	O372	O	0.460015	0.313732	0.628628
	H373	H	0.453930	0.317130	0.628895
	H374	H	0.452377	0.308082	0.633854
	O375	O	0.381805	0.555360	0.472542
	H376	H	0.389297	0.537499	0.466110
	H377	H	0.386049	0.533816	0.484995
	O378	O	0.451821	0.347928	0.565697
	H379	H	0.445468	0.337713	0.568516
	H380	H	0.449875	0.338016	0.538470
	O381	O	0.681365	0.530980	0.496685
	H382	H	0.687651	0.527275	0.482971
	H383	H	0.662258	0.547471	0.509534
	O384	O	-0.097756	1.105323	0.863020
	H385	H	-0.086008	1.109283	0.864335
	H386	H	-0.096921	1.109619	0.857202
	O387	O	1.380514	0.512143	-0.464054
	H388	H	1.373862	0.502192	-0.470248
	H389	H	1.377930	0.512976	-0.466460
	O390	O	0.562551	0.682108	0.525320
	H391	H	0.571054	0.690252	0.543394
	H392	H	0.567646	0.670040	0.534183
	O393	O	1.006607	-0.050549	1.136068
	H394	H	0.999445	-0.040065	1.149126
	H395	H	0.998821	-0.048402	1.123631
	O396	O	-0.152087	1.021119	0.875216
	H397	H	-0.137191	1.030888	0.869298
	H398	H	-0.156168	1.023054	0.857800
	O399	O	0.601404	0.620437	0.618796
	H400	H	0.605956	0.614846	0.605757
	H401	H	0.578683	0.622164	0.618386
	O402	O	1.039947	0.101421	1.189839
	H403	H	1.022824	0.084525	1.197740
	H404	H	1.027454	0.089526	1.186483
	O405	O	0.315805	-0.322464	0.380012
	H406	H	0.308112	-0.313477	0.391368
	H407	H	0.332322	-0.335815	0.383736
	O408	O	0.883368	0.962113	1.006270
	H409	H	0.886312	0.969305	0.998340
	H410	H	0.884163	0.948958	0.991680
	O411	O	0.675110	0.321120	0.502386
	H412	H	0.663676	0.315242	0.524318
	H413	H	0.678550	0.306349	0.508584
	O414	O	0.093949	0.030411	0.867684
	H415	H	0.091709	0.043997	0.885144
	H416	H	0.089664	0.019215	0.874626
	O417	O	0.427527	0.429016	0.597043
	H418	H	0.431621	0.428926	0.583121
	H419	H	0.450758	0.420161	0.603894
	O420	O	0.339861	1.615898	-0.603364
	H421	H	0.326656	1.616217	-0.609560
	H422	H	0.344198	1.616107	-0.590576
	O423	O	0.976398	-0.161235	0.068083
	H424	H	0.984202	-0.160238	0.060150
	H425	H	0.968124	-0.163120	0.079238
	O426	O	0.057956	0.066049	1.110817
	H427	H	0.065652	0.072623	1.110031
	H428	H	0.060264	0.067590	1.115634
	O429	O	0.627746	0.672817	0.438235
	H430	H	0.622667	0.674351	0.454293
	H431	H	0.627658	0.688622	0.440117
