data_Molecule from HDF5

_cell_length_a		16.388265
_cell_length_b		16.375988
_cell_length_c		16.393785
_cell_angle_alpha	90.079364
_cell_angle_beta	89.898364
_cell_angle_gamma	89.834953
_symmetry_space_group_name_H-M	'P 1'
_symmetry_Int_Tables_number		1

loop_
	_symmetry_equiv_pos_as_xyz
	x,y,z

loop_
	_atom_site_label
	_atom_site_type_symbol
	_atom_site_fract_x
	_atom_site_fract_y
	_atom_site_fract_z
	H0	H	0.395814	0.842070	0.724081
	H1	H	0.602445	0.163096	0.726127
	H2	H	0.601470	0.842789	0.287213
	H3	H	0.395727	0.164632	0.286111
	H4	H	0.720130	0.399551	0.845428
	H5	H	0.720154	0.609295	0.165147
	H6	H	0.279470	0.608721	0.845287
	H7	H	0.280689	0.401719	0.165160
	H8	H	0.840152	0.723458	0.403233
	H9	H	0.160911	0.723690	0.608245
	H10	H	0.840912	0.283954	0.611685
	H11	H	0.159400	0.282116	0.400485
	H12	H	0.841227	0.400043	0.727371
	H13	H	0.161082	0.607687	0.724067
	H14	H	0.841134	0.609986	0.285190
	H15	H	0.160246	0.398728	0.284719
	H16	H	0.395191	0.723976	0.845026
	H17	H	0.601759	0.723901	0.164973
	H18	H	0.602805	0.284429	0.845604
	H19	H	0.397879	0.286030	0.166092
	H20	H	0.718630	0.843009	0.402761
	H21	H	0.718310	0.164450	0.609320
	H22	H	0.278354	0.844043	0.608869
	H23	H	0.281320	0.165034	0.404443
	H24	H	0.899479	0.343855	0.224559
	H25	H	0.105738	0.664982	0.225400
	H26	H	0.103487	0.345133	0.785931
	H27	H	0.897059	0.665673	0.787648
	H28	H	0.219262	0.900340	0.345277
	H29	H	0.216558	0.106777	0.665753
	H30	H	0.780316	0.107769	0.345254
	H31	H	0.781482	0.902865	0.666059
	H32	H	0.339518	0.221238	0.904981
	H33	H	0.660643	0.221689	0.109219
	H34	H	0.338105	0.786887	0.106044
	H35	H	0.659771	0.783092	0.901128
	H36	H	0.338986	0.901563	0.223499
	H37	H	0.660133	0.105620	0.224749
	H38	H	0.339037	0.104679	0.788773
	H39	H	0.659846	0.897945	0.784575
	H40	H	0.895396	0.224250	0.345783
	H41	H	0.101433	0.223060	0.665226
	H42	H	0.104172	0.784844	0.344941
	H43	H	0.897985	0.787071	0.665620
	H44	H	0.216601	0.343456	0.904976
	H45	H	0.218936	0.665350	0.106814
	H46	H	0.782820	0.343311	0.108897
	H47	H	0.778915	0.664409	0.902569
	H48	H	0.407063	0.116351	0.593098
	H49	H	0.595987	0.886806	0.599923
	H50	H	0.593479	0.118618	0.416527
	H51	H	0.399539	0.887260	0.417127
	H52	H	0.583703	0.416589	0.116612
	H53	H	0.589110	0.586010	0.894376
	H54	H	0.406632	0.589699	0.117239
	H55	H	0.412233	0.421785	0.894853
	H56	H	0.112656	0.587969	0.416054
	H57	H	0.888859	0.590882	0.593652
	H58	H	0.112666	0.415507	0.594628
	H59	H	0.890531	0.422557	0.417403
	H60	H	0.114313	0.414479	0.595436
	H61	H	0.884404	0.596055	0.603281
	H62	H	0.116974	0.596532	0.408841
	H63	H	0.884531	0.414090	0.409650
	H64	H	0.415647	0.593211	0.115980
	H65	H	0.584563	0.596309	0.892594
	H66	H	0.592082	0.404072	0.122846
	H67	H	0.416989	0.404832	0.890806
	H68	H	0.589677	0.119557	0.410799
	H69	H	0.582229	0.891693	0.596472
	H70	H	0.406381	0.117938	0.600480
	H71	H	0.412443	0.887799	0.405075
	H72	H	0.915584	0.617943	0.100301
	H73	H	0.093631	0.389570	0.098286
	H74	H	0.092510	0.620472	0.913748
	H75	H	0.900983	0.387688	0.915901
	H76	H	0.090861	0.909932	0.620968
	H77	H	0.085094	0.098528	0.390880
	H78	H	0.905328	0.097368	0.621724
	H79	H	0.910395	0.910937	0.389916
	H80	H	0.613637	0.090776	0.916885
	H81	H	0.387331	0.096328	0.092431
	H82	H	0.613739	0.914284	0.095898
	H83	H	0.386743	0.913869	0.916852
	H84	H	0.613982	0.912177	0.095877
	H85	H	0.386964	0.089858	0.097940
	H86	H	0.614387	0.091107	0.913800
	H87	H	0.385503	0.914446	0.914321
	H88	H	0.907993	0.090575	0.618011
	H89	H	0.095682	0.095107	0.388111
	H90	H	0.092070	0.918160	0.619060
	H91	H	0.906985	0.915981	0.390739
	H92	H	0.088577	0.619083	0.914417
	H93	H	0.086864	0.391281	0.096974
	H94	H	0.911656	0.615503	0.088317
	H95	H	0.917439	0.390302	0.906712
	H96	H	0.413796	0.116253	0.597880
	H97	H	0.593579	0.892100	0.586083
	H98	H	0.586783	0.115800	0.416190
	H99	H	0.414997	0.894762	0.421319
	H100	H	0.599430	0.418065	0.120766
	H101	H	0.595329	0.593879	0.890123
	H102	H	0.408530	0.598541	0.120023
	H103	H	0.400354	0.409934	0.887454
	H104	H	0.114270	0.599029	0.420417
	H105	H	0.885770	0.602310	0.593236
	H106	H	0.113708	0.413973	0.593951
	H107	H	0.887302	0.410989	0.422461
	H108	H	0.903706	0.620723	0.097029
	H109	H	0.091707	0.392256	0.092218
	H110	H	0.091367	0.619359	0.917347
	H111	H	0.915943	0.394917	0.924845
	H112	H	0.084677	0.914046	0.617751
	H113	H	0.088143	0.088160	0.393052
	H114	H	0.913042	0.096980	0.618871
	H115	H	0.912797	0.915898	0.393341
	H116	H	0.614184	0.093950	0.915698
	H117	H	0.383506	0.097756	0.100068
	H118	H	0.613103	0.913009	0.094049
	H119	H	0.385676	0.911877	0.914757
	C120	C	0.377547	0.011113	0.627678
	C121	C	0.621126	0.995833	0.626369
	C122	C	0.621447	0.012148	0.383266
	C123	C	0.378083	0.995825	0.384146
	C124	C	0.622483	0.381543	0.014164
	C125	C	0.621125	0.624694	0.997314
	C126	C	0.378349	0.625566	0.012683
	C127	C	0.378929	0.382307	0.997040
	C128	C	0.008948	0.626048	0.384147
	C129	C	0.992041	0.627249	0.627469
	C130	C	0.008359	0.383208	0.627141
	C131	C	0.992220	0.383073	0.384087
	C132	C	0.879399	0.512583	0.127068
	C133	C	0.121975	0.496674	0.126854
	C134	C	0.121861	0.513658	0.884063
	C135	C	0.879321	0.496546	0.884612
	C136	C	0.121246	0.882577	0.513617
	C137	C	0.120261	0.124865	0.496715
	C138	C	0.877628	0.126355	0.514066
	C139	C	0.878909	0.883471	0.497141
	C140	C	0.508090	0.123420	0.885097
	C141	C	0.491789	0.125104	0.127561
	C142	C	0.507485	0.882644	0.126025
	C143	C	0.491397	0.881236	0.883445
	C144	C	0.376911	0.890469	0.685232
	C145	C	0.621770	0.115662	0.686215
	C146	C	0.621567	0.891084	0.325725
	C147	C	0.377336	0.116524	0.325846
	C148	C	0.680766	0.380696	0.893615
	C149	C	0.680109	0.627006	0.117355
	C150	C	0.319200	0.626926	0.892860
	C151	C	0.319838	0.381980	0.117304
	C152	C	0.888422	0.684761	0.383657
	C153	C	0.112575	0.685242	0.627896
	C154	C	0.888957	0.323550	0.629686
	C155	C	0.111809	0.322456	0.382150
	C156	C	0.888899	0.381790	0.687202
	C157	C	0.112862	0.627412	0.685273
	C158	C	0.888785	0.627865	0.325266
	C159	C	0.112248	0.380514	0.324551
	C160	C	0.376967	0.684316	0.892742
	C161	C	0.621345	0.684072	0.117290
	C162	C	0.622698	0.323234	0.893608
	C163	C	0.378470	0.324849	0.117865
	C164	C	0.679584	0.891321	0.383309
	C165	C	0.679036	0.116438	0.627641
	C166	C	0.318293	0.891335	0.627993
	C167	C	0.320107	0.116928	0.384383
	C168	C	0.879783	0.391890	0.185447
	C169	C	0.123826	0.617039	0.185854
	C170	C	0.122349	0.392919	0.825430
	C171	C	0.877877	0.617418	0.826616
	C172	C	0.179814	0.881797	0.393149
	C173	C	0.177689	0.125519	0.617675
	C174	C	0.819030	0.127162	0.393601
	C175	C	0.820498	0.883293	0.617633
	C176	C	0.387609	0.181845	0.885841
	C177	C	0.612441	0.182804	0.127976
	C178	C	0.386625	0.825314	0.125841
	C179	C	0.611824	0.821914	0.881697
	C180	C	0.386859	0.882378	0.184341
	C181	C	0.612026	0.125223	0.185859
	C182	C	0.387159	0.123699	0.828068
	C183	C	0.611801	0.879220	0.823952
	C184	C	0.876374	0.185193	0.393742
	C185	C	0.120567	0.183587	0.617336
	C186	C	0.122376	0.824168	0.393063
	C187	C	0.878660	0.825772	0.617711
	C188	C	0.179041	0.392238	0.884224
	C189	C	0.180071	0.617344	0.126645
	C190	C	0.821796	0.391619	0.127781
	C191	C	0.819150	0.616556	0.883782
	C192	C	0.402022	0.095086	0.603887
	C193	C	0.597406	0.912007	0.601426
	C194	C	0.597165	0.096103	0.407462
	C195	C	0.402037	0.911823	0.407766
	C196	C	0.598498	0.405657	0.098171
	C197	C	0.596724	0.599450	0.914028
	C198	C	0.403129	0.600871	0.096243
	C199	C	0.402973	0.405525	0.912952
	C200	C	0.092577	0.601619	0.408118
	C201	C	0.908258	0.603261	0.603603
	C202	C	0.091970	0.407794	0.601874
	C203	C	0.908990	0.408449	0.409210
	C204	C	0.903423	0.596270	0.102411
	C205	C	0.097661	0.412755	0.102924
	C206	C	0.097637	0.597866	0.907991
	C207	C	0.904497	0.412754	0.908563
	C208	C	0.096449	0.907084	0.597553
	C209	C	0.096646	0.100807	0.412710
	C210	C	0.901794	0.102036	0.597814
	C211	C	0.903004	0.907470	0.413075
	C212	C	0.592180	0.098961	0.908572
	C213	C	0.407602	0.101451	0.103678
	C214	C	0.591618	0.906337	0.102146
	C215	C	0.407712	0.906119	0.908010
	Zn216	Zn	0.500203	0.002202	0.755674
	Zn217	Zn	0.499561	0.003658	0.255387
	Zn218	Zn	0.750413	0.503367	0.006040
	Zn219	Zn	0.250557	0.504616	0.005120
	Zn220	Zn	0.000573	0.754818	0.505205
	Zn221	Zn	-0.000412	0.254094	0.505277
	Zn222	Zn	0.000535	0.505543	0.755642
	Zn223	Zn	0.000999	0.504787	0.255641
	Zn224	Zn	0.499383	0.753711	0.004787
	Zn225	Zn	0.500590	0.253442	0.006210
	Zn226	Zn	0.749951	0.004616	0.504990
	Zn227	Zn	0.249249	0.003994	0.505295
	N228	N	0.413113	0.966050	0.685133
	N229	N	0.586509	0.039586	0.685497
	N230	N	0.586329	0.967319	0.325445
	N231	N	0.412508	0.040120	0.325426
	N232	N	0.680865	0.416128	0.969648
	N233	N	0.679945	0.590643	0.041797
	N234	N	0.320104	0.590976	0.968558
	N235	N	0.320017	0.417087	0.041242
	N236	N	0.964033	0.683703	0.419713
	N237	N	0.036552	0.685234	0.592616
	N238	N	0.964207	0.324705	0.592651
	N239	N	0.036173	0.323880	0.418556
	N240	N	0.964319	0.418141	0.685841
	N241	N	0.036892	0.592116	0.685437
	N242	N	0.964841	0.592403	0.325104
	N243	N	0.037044	0.417705	0.325902
	N244	N	0.412922	0.683637	0.968303
	N245	N	0.585509	0.682977	0.041636
	N246	N	0.587213	0.323653	0.969627
	N247	N	0.414501	0.324841	0.042079
	N248	N	0.679851	0.967748	0.418239
	N249	N	0.678715	0.040835	0.591130
	N250	N	0.318423	0.967449	0.593186
	N251	N	0.320564	0.041095	0.420090
	N252	N	0.914845	0.468081	0.185062
	N253	N	0.088604	0.540987	0.186284
	N254	N	0.087844	0.469592	0.825053
	N255	N	0.914428	0.541710	0.826889
	N256	N	0.179345	0.917367	0.469168
	N257	N	0.177823	0.089897	0.541475
	N258	N	0.819514	0.091680	0.469404
	N259	N	0.820629	0.918449	0.541623
	N260	N	0.463937	0.181996	0.920397
	N261	N	0.536442	0.182886	0.092456
	N262	N	0.462772	0.825230	0.090343
	N263	N	0.536122	0.822989	0.917872
	N264	N	0.462976	0.917402	0.184476
	N265	N	0.535922	0.090360	0.185738
	N266	N	0.463199	0.088211	0.827380
	N267	N	0.535778	0.915189	0.824779
	N268	N	0.911909	0.185124	0.469751
	N269	N	0.085671	0.183417	0.541213
	N270	N	0.086799	0.824647	0.469015
	N271	N	0.914229	0.825618	0.541526
	N272	N	0.178909	0.468246	0.919714
	N273	N	0.179159	0.541415	0.090801
	N274	N	0.821272	0.467698	0.092405
	N275	N	0.819923	0.540337	0.918879
	O276	O	0.487377	0.612170	0.473756
	H277	H	0.501151	0.612123	0.472477
	H278	H	0.477624	0.613230	0.473531
	O279	O	0.814046	0.161149	0.094366
	H280	H	0.815636	0.166733	0.093486
	H281	H	0.814773	0.154087	0.085332
	O282	O	0.521804	0.326494	0.506241
	H283	H	0.514105	0.320048	0.498430
	H284	H	0.541109	0.305075	0.500644
	O285	O	0.907938	-0.142603	-0.030214
	H286	H	0.914920	-0.140881	-0.038131
	H287	H	0.902754	-0.141147	-0.032728
	O288	O	-0.090594	0.141338	0.835763
	H289	H	-0.086725	0.130478	0.833475
	H290	H	-0.084729	0.143685	0.823979
	O291	O	0.493996	0.560289	0.478869
	H292	H	0.483521	0.540632	0.471110
	H293	H	0.509357	0.561189	0.480511
	O294	O	0.476857	0.604972	0.336058
	H295	H	0.453498	0.610738	0.341542
	H296	H	0.479518	0.628380	0.323373
	O297	O	0.934928	1.116255	0.912872
	H298	H	0.929502	1.114194	0.899796
	H299	H	0.932327	1.118922	0.907998
	O300	O	-0.035308	-0.114975	0.041925
	H301	H	-0.030985	-0.109381	0.054883
	H302	H	-0.040494	-0.122192	0.056635
	O303	O	0.675392	0.550047	0.373746
	H304	H	0.667322	0.538795	0.380998
	H305	H	0.692668	0.526007	0.360831
	O306	O	0.956173	0.057240	0.151811
	H307	H	0.957110	0.063053	0.143919
	H308	H	0.956480	0.058247	0.165258
	O309	O	0.693904	0.472470	0.530098
	H310	H	0.702851	0.477488	0.551204
	H311	H	0.688305	0.474220	0.535795
	O312	O	0.493794	1.686336	-0.517913
	H313	H	0.485002	1.679480	-0.511985
	H314	H	0.497828	1.692681	-0.520739
	O315	O	0.618311	0.317869	0.321351
	H316	H	0.597515	0.326653	0.323417
	H317	H	0.613682	0.298187	0.325144
	O318	O	0.519057	0.640887	0.660341
	H319	H	0.510280	0.626571	0.671562
	H320	H	0.513659	0.632160	0.652070
	O321	O	0.925492	0.044082	1.142225
	H322	H	0.922659	0.043833	1.127264
	H323	H	0.926909	0.044461	1.155048
	O324	O	-0.089733	0.180462	1.008998
	H325	H	-0.081730	0.187597	1.011392
	H326	H	-0.090101	0.176967	1.011418
	O327	O	0.315901	0.351637	0.652529
	H328	H	0.322446	0.346692	0.654753
	H329	H	0.320065	0.359424	0.639568
	O330	O	0.592539	0.334972	0.497198
	H331	H	0.600124	0.327540	0.492410
	H332	H	0.606503	0.366111	0.501776
	O333	O	1.091294	1.161495	1.093463
	H334	H	1.083005	1.164892	1.098966
	H335	H	1.089545	1.171990	1.083687
	O336	O	0.531042	0.485028	0.487999
	H337	H	0.527277	0.478340	0.479130
	H338	H	0.541224	0.482903	0.513796
	O339	O	1.373356	-0.616895	1.400311
	H340	H	1.378607	-0.603158	1.399063
	H341	H	1.358091	-0.620913	1.396512
	O342	O	0.189017	1.006480	0.953150
	H343	H	0.190088	1.000609	0.945385
	H344	H	0.199281	1.006850	0.947280
	O345	O	-0.110521	0.932524	0.979685
	H346	H	-0.121330	0.923000	0.985316
	H347	H	-0.110124	0.929769	0.998192
	O348	O	0.603414	0.652784	0.697552
	H349	H	0.592514	0.658752	0.688585
	H350	H	0.601598	0.651849	0.688937
	O351	O	0.025730	0.103026	-0.116054
	H352	H	0.019608	0.108139	-0.112769
	H353	H	0.041220	0.086259	-0.096761
	O354	O	0.865554	1.048826	-0.087588
	H355	H	0.860953	1.039329	-0.106033
	H356	H	0.879883	1.030500	-0.089339
	O357	O	-0.114392	0.852645	0.169428
	H358	H	-0.121961	0.832905	0.177378
	H359	H	-0.136168	0.870158	0.171516
	O360	O	0.704508	0.545196	0.705116
	H361	H	0.710699	0.566247	0.707087
	H362	H	0.714872	0.562062	0.706954
	O363	O	-0.000055	-0.169480	0.070519
	H364	H	-0.001912	-0.183407	0.085827
	H365	H	-0.013671	-0.164028	0.062005
	O366	O	-0.182519	0.920919	0.166973
	H367	H	-0.192502	0.919311	0.148116
	H368	H	-0.184094	0.943808	0.174720
	O369	O	0.404534	0.492247	0.610207
	H370	H	0.413614	0.485843	0.610923
	H371	H	0.392193	0.492481	0.611475
	O372	O	0.509212	0.307077	0.664247
	H373	H	0.504945	0.298998	0.664648
	H374	H	0.499952	0.300743	0.667457
	O375	O	0.519454	0.531241	0.294871
	H376	H	0.522872	0.523808	0.298686
	H377	H	0.518113	0.530430	0.269614
	O378	O	0.698337	0.580838	0.492247
	H379	H	0.700493	0.569675	0.494930
	H380	H	0.695912	0.568919	0.481599
	O381	O	0.540791	0.392120	0.586247
	H382	H	0.545383	0.397644	0.586344
	H383	H	0.531401	0.380659	0.587060
	O384	O	0.090066	1.042145	1.100445
	H385	H	0.086315	1.046022	1.101403
	H386	H	0.082962	1.039391	1.091629
	O387	O	1.293730	0.407893	-0.291353
	H388	H	1.301296	0.395189	-0.312691
	H389	H	1.270943	0.412444	-0.274318
	O390	O	0.345645	0.687526	0.436310
	H391	H	0.363928	0.681322	0.445749
	H392	H	0.332748	0.698084	0.458597
	O393	O	1.054227	-0.054195	0.948054
	H394	H	1.051327	-0.046319	0.938532
	H395	H	1.041905	-0.051012	0.952162
	O396	O	0.040477	0.883116	0.868364
	H397	H	0.043230	0.884283	0.870174
	H398	H	0.028045	0.872655	0.877811
	O399	O	0.334811	0.529041	0.369440
	H400	H	0.311023	0.537861	0.356813
	H401	H	0.338014	0.537674	0.376268
	O402	O	1.167797	-0.059549	1.119505
	H403	H	1.166620	-0.065908	1.113319
	H404	H	1.158585	-0.063749	1.130804
	O405	O	-0.019207	-0.054620	0.027221
	H406	H	-0.028273	-0.057188	0.038027
	H407	H	-0.015021	-0.062003	0.031111
	O408	O	1.185755	1.102468	1.172480
	H409	H	1.198185	1.091774	1.179393
	H410	H	1.181506	1.105873	1.158015
	O411	O	0.532061	0.482703	0.628914
	H412	H	0.545246	0.477958	0.630528
	H413	H	0.543120	0.482521	0.613918
	O414	O	0.149882	0.015959	0.828349
	H415	H	0.149727	0.003281	0.827406
	H416	H	0.157932	0.015055	0.816457
	O417	O	0.449352	0.328637	0.369244
	H418	H	0.439568	0.322026	0.367777
	H419	H	0.439118	0.352328	0.362602
	O420	O	0.337320	1.602055	-0.541043
	H421	H	0.333797	1.584023	-0.535730
	H422	H	0.336700	1.601371	-0.537841
	O423	O	0.978936	-0.105828	-0.117736
	H424	H	0.974641	-0.106398	-0.118726
	H425	H	0.983586	-0.095374	-0.114213
	O426	O	0.093513	0.157427	0.947472
	H427	H	0.092082	0.162550	0.952198
	H428	H	0.096110	0.171403	0.940242
	O429	O	0.469376	0.694004	0.413287
	H430	H	0.453995	0.686077	0.421561
	H431	H	0.480547	0.707599	0.427000
