data_Molecule from HDF5

_cell_length_a		16.547433
_cell_length_b		16.613109
_cell_length_c		16.826299
_cell_angle_alpha	90.112392
_cell_angle_beta	89.962368
_cell_angle_gamma	90.023897
_symmetry_space_group_name_H-M	'P 1'
_symmetry_Int_Tables_number		1

loop_
	_symmetry_equiv_pos_as_xyz
	x,y,z

loop_
	_atom_site_label
	_atom_site_type_symbol
	_atom_site_fract_x
	_atom_site_fract_y
	_atom_site_fract_z
	H0	H	0.389443	0.839572	0.738249
	H1	H	0.602053	0.148907	0.742105
	H2	H	0.600632	0.840588	0.296157
	H3	H	0.387942	0.150773	0.297326
	H4	H	0.721005	0.384615	0.867686
	H5	H	0.716306	0.600158	0.172098
	H6	H	0.272616	0.599869	0.864668
	H7	H	0.272507	0.389945	0.171129
	H8	H	0.841567	0.721020	0.408024
	H9	H	0.151639	0.712561	0.619375
	H10	H	0.837494	0.276540	0.621639
	H11	H	0.150909	0.275949	0.415422
	H12	H	0.838329	0.388720	0.740071
	H13	H	0.149688	0.600650	0.738868
	H14	H	0.842331	0.606676	0.291079
	H15	H	0.150216	0.389750	0.298083
	H16	H	0.387349	0.718542	0.866021
	H17	H	0.600754	0.717943	0.171811
	H18	H	0.602679	0.269986	0.866619
	H19	H	0.389830	0.273488	0.171237
	H20	H	0.715589	0.840426	0.413169
	H21	H	0.715199	0.150473	0.623825
	H22	H	0.276405	0.838846	0.619651
	H23	H	0.277596	0.152860	0.418107
	H24	H	0.887271	0.339917	0.240840
	H25	H	0.102299	0.649188	0.240690
	H26	H	0.098705	0.339944	0.797372
	H27	H	0.888234	0.650224	0.798336
	H28	H	0.215165	0.891609	0.363586
	H29	H	0.212560	0.097940	0.673929
	H30	H	0.772234	0.099926	0.365533
	H31	H	0.768759	0.885146	0.669634
	H32	H	0.337860	0.213623	0.914991
	H33	H	0.650854	0.214848	0.122448
	H34	H	0.337838	0.777241	0.120418
	H35	H	0.649365	0.773137	0.912952
	H36	H	0.337812	0.891259	0.237647
	H37	H	0.650156	0.101789	0.239564
	H38	H	0.338624	0.100241	0.798325
	H39	H	0.648269	0.884998	0.794540
	H40	H	0.888220	0.217781	0.365905
	H41	H	0.097104	0.215121	0.673546
	H42	H	0.102300	0.771363	0.365373
	H43	H	0.885692	0.769544	0.669845
	H44	H	0.211260	0.337842	0.916642
	H45	H	0.212875	0.651302	0.120696
	H46	H	0.772457	0.339504	0.124901
	H47	H	0.773595	0.649502	0.915112
	H48	H	0.402050	0.108265	0.607629
	H49	H	0.580861	0.884435	0.608405
	H50	H	0.581313	0.106152	0.428813
	H51	H	0.406676	0.884045	0.426813
	H52	H	0.581935	0.405021	0.128251
	H53	H	0.576898	0.584518	0.910291
	H54	H	0.405403	0.586192	0.128512
	H55	H	0.402430	0.405971	0.906924
	H56	H	0.102211	0.584332	0.439010
	H57	H	0.884804	0.578528	0.604674
	H58	H	0.107139	0.405822	0.608137
	H59	H	0.883499	0.409188	0.430765
	H60	H	0.106164	0.407024	0.609431
	H61	H	0.881082	0.580818	0.612385
	H62	H	0.102513	0.571781	0.427308
	H63	H	0.881027	0.408231	0.425583
	H64	H	0.402944	0.585138	0.128557
	H65	H	0.586068	0.587662	0.906660
	H66	H	0.583238	0.406476	0.127897
	H67	H	0.407276	0.404846	0.907430
	H68	H	0.579956	0.106053	0.429188
	H69	H	0.577865	0.885481	0.605517
	H70	H	0.403858	0.108652	0.613380
	H71	H	0.404522	0.883712	0.428068
	H72	H	0.904839	0.606282	0.107157
	H73	H	0.083270	0.384622	0.103660
	H74	H	0.081825	0.607398	0.925401
	H75	H	0.911761	0.385176	0.931548
	H76	H	0.089129	0.898653	0.632449
	H77	H	0.086316	0.082926	0.407656
	H78	H	0.901090	0.083850	0.630356
	H79	H	0.907995	0.917211	0.412578
	H80	H	0.607339	0.081872	0.931107
	H81	H	0.381438	0.088079	0.106674
	H82	H	0.605903	0.906583	0.103723
	H83	H	0.379857	0.895124	0.933859
	H84	H	0.606023	0.912000	0.110884
	H85	H	0.384600	0.080421	0.105618
	H86	H	0.605887	0.080916	0.929104
	H87	H	0.388828	0.917001	0.936763
	H88	H	0.907631	0.081934	0.628172
	H89	H	0.082188	0.088655	0.407840
	H90	H	0.087971	0.911516	0.627627
	H91	H	0.915973	0.904031	0.411076
	H92	H	0.083745	0.606870	0.930072
	H93	H	0.087914	0.379532	0.110941
	H94	H	0.911472	0.605068	0.109336
	H95	H	0.904845	0.383203	0.930510
	H96	H	0.408092	0.107015	0.609331
	H97	H	0.581568	0.884636	0.603858
	H98	H	0.581092	0.106376	0.430090
	H99	H	0.404741	0.883237	0.425494
	H100	H	0.581198	0.406703	0.128338
	H101	H	0.585052	0.578137	0.910235
	H102	H	0.405265	0.583955	0.127821
	H103	H	0.403806	0.401254	0.905791
	H104	H	0.109793	0.586985	0.424005
	H105	H	0.881545	0.587102	0.605618
	H106	H	0.108077	0.406000	0.610223
	H107	H	0.881594	0.403950	0.429854
	H108	H	0.909137	0.603096	0.102978
	H109	H	0.078298	0.383108	0.112225
	H110	H	0.086931	0.609425	0.926221
	H111	H	0.909095	0.382686	0.925260
	H112	H	0.077882	0.902614	0.626240
	H113	H	0.088680	0.088842	0.406094
	H114	H	0.906125	0.089346	0.629618
	H115	H	0.901768	0.904581	0.406600
	H116	H	0.606485	0.082522	0.928110
	H117	H	0.381333	0.081968	0.112665
	H118	H	0.609685	0.903694	0.111289
	H119	H	0.379035	0.910759	0.916494
	C120	C	0.373175	0.004252	0.640434
	C121	C	0.614239	0.986822	0.639107
	C122	C	0.614885	0.004100	0.396355
	C123	C	0.373351	0.986885	0.396550
	C124	C	0.616272	0.372525	0.027329
	C125	C	0.615589	0.616477	1.010545
	C126	C	0.372446	0.616699	0.026705
	C127	C	0.372508	0.372687	1.008953
	C128	C	0.003241	0.615875	0.396252
	C129	C	0.985682	0.615338	0.638831
	C130	C	0.002941	0.374618	0.640076
	C131	C	0.985550	0.374560	0.397440
	C132	C	0.874138	0.503028	0.140123
	C133	C	0.115460	0.485882	0.139746
	C134	C	0.115394	0.504098	0.896568
	C135	C	0.874796	0.486213	0.897706
	C136	C	0.116747	0.872995	0.526639
	C137	C	0.115790	0.117031	0.510069
	C138	C	0.872569	0.116972	0.527743
	C139	C	0.873453	0.873583	0.510061
	C140	C	0.503308	0.114921	0.897653
	C141	C	0.485515	0.116017	0.139918
	C142	C	0.503285	0.875135	0.139478
	C143	C	0.485310	0.874014	0.897208
	C144	C	0.371535	0.886474	0.698159
	C145	C	0.618912	0.102732	0.700831
	C146	C	0.618263	0.887018	0.336453
	C147	C	0.370818	0.104245	0.337703
	C148	C	0.678939	0.368009	0.913011
	C149	C	0.676100	0.618962	0.125935
	C150	C	0.312294	0.618754	0.910973
	C151	C	0.312579	0.371299	0.124945
	C152	C	0.887706	0.679400	0.391160
	C153	C	0.103920	0.674356	0.639466
	C154	C	0.884792	0.315624	0.640783
	C155	C	0.103541	0.315195	0.396530
	C156	C	0.885328	0.371718	0.699573
	C157	C	0.103189	0.618571	0.698384
	C158	C	0.888003	0.622441	0.333313
	C159	C	0.103463	0.371677	0.338316
	C160	C	0.369495	0.677422	0.911586
	C161	C	0.618655	0.677528	0.125764
	C162	C	0.620511	0.310589	0.912635
	C163	C	0.370441	0.313256	0.124934
	C164	C	0.675320	0.887001	0.394565
	C165	C	0.675435	0.103520	0.642189
	C166	C	0.315061	0.886080	0.639537
	C167	C	0.315714	0.105440	0.397487
	C168	C	0.869954	0.386509	0.200603
	C169	C	0.119169	0.602990	0.199540
	C170	C	0.117086	0.386556	0.837590
	C171	C	0.870797	0.603307	0.838343
	C172	C	0.176038	0.872059	0.410380
	C173	C	0.173546	0.117173	0.627232
	C174	C	0.812622	0.118550	0.411692
	C175	C	0.810234	0.868275	0.623997
	C176	C	0.385271	0.174279	0.896496
	C177	C	0.603598	0.175371	0.141153
	C178	C	0.384996	0.816485	0.139695
	C179	C	0.602574	0.813229	0.894748
	C180	C	0.385066	0.873325	0.197807
	C181	C	0.603092	0.119596	0.199733
	C182	C	0.385594	0.117795	0.838302
	C183	C	0.602012	0.868934	0.835889
	C184	C	0.870064	0.177169	0.411990
	C185	C	0.115921	0.175404	0.626988
	C186	C	0.119766	0.812502	0.411090
	C187	C	0.868383	0.810590	0.624063
	C188	C	0.172917	0.385522	0.896777
	C189	C	0.174436	0.603769	0.140033
	C190	C	0.812797	0.386355	0.142799
	C191	C	0.814126	0.603183	0.896560
	C192	C	0.397604	0.086596	0.616953
	C193	C	0.587840	0.905813	0.613237
	C194	C	0.588355	0.085092	0.421946
	C195	C	0.398093	0.904933	0.420051
	C196	C	0.589693	0.398712	0.107397
	C197	C	0.589937	0.590760	0.929982
	C198	C	0.397346	0.591929	0.107234
	C199	C	0.397395	0.397108	0.927816
	C200	C	0.084051	0.588447	0.422623
	C201	C	0.903832	0.589543	0.614498
	C202	C	0.085667	0.399323	0.616005
	C203	C	0.903470	0.400011	0.421686
	C204	C	0.900906	0.583785	0.114025
	C205	C	0.090186	0.403784	0.115741
	C206	C	0.091033	0.586507	0.920330
	C207	C	0.900963	0.404819	0.922201
	C208	C	0.091997	0.897259	0.607610
	C209	C	0.092407	0.093532	0.428614
	C210	C	0.897771	0.092150	0.608347
	C211	C	0.900846	0.900777	0.430698
	C212	C	0.585296	0.089192	0.922454
	C213	C	0.403645	0.090632	0.115420
	C214	C	0.585819	0.900242	0.115492
	C215	C	0.403825	0.900205	0.922245
	Zn216	Zn	0.494776	-0.005271	0.768895
	Zn217	Zn	0.494136	-0.004373	0.267849
	Zn218	Zn	0.745392	0.494281	0.019075
	Zn219	Zn	0.243276	0.494705	0.017785
	Zn220	Zn	-0.005514	0.743412	0.517601
	Zn221	Zn	-0.005758	0.246925	0.518802
	Zn222	Zn	-0.005730	0.495328	0.768006
	Zn223	Zn	-0.005356	0.494912	0.268561
	Zn224	Zn	0.494153	0.746158	0.018547
	Zn225	Zn	0.494763	0.243270	0.018497
	Zn226	Zn	0.743159	-0.005435	0.518765
	Zn227	Zn	0.245449	-0.004091	0.518131
	N228	N	0.406694	0.961217	0.699288
	N229	N	0.581563	0.029024	0.699101
	N230	N	0.581543	0.960989	0.337280
	N231	N	0.406092	0.029536	0.336982
	N232	N	0.676434	0.405887	0.985302
	N233	N	0.674666	0.581738	0.053050
	N234	N	0.313615	0.581740	0.983619
	N235	N	0.313470	0.407379	0.051555
	N236	N	0.960450	0.675291	0.429924
	N237	N	0.029625	0.672833	0.603269
	N238	N	0.959241	0.317091	0.604641
	N239	N	0.029016	0.316601	0.432430
	N240	N	0.960200	0.407574	0.699405
	N241	N	0.028436	0.582911	0.698669
	N242	N	0.960991	0.583451	0.336538
	N243	N	0.028921	0.407791	0.338440
	N244	N	0.405973	0.676507	0.984608
	N245	N	0.581931	0.676270	0.052751
	N246	N	0.582133	0.313229	0.984823
	N247	N	0.406727	0.313703	0.051598
	N248	N	0.673407	0.960783	0.431265
	N249	N	0.672648	0.030391	0.604361
	N250	N	0.315636	0.960526	0.604435
	N251	N	0.317011	0.031400	0.433569
	N252	N	0.907329	0.460176	0.199226
	N253	N	0.083380	0.528320	0.199944
	N254	N	0.082198	0.461473	0.837065
	N255	N	0.907737	0.529463	0.838727
	N256	N	0.174633	0.908901	0.483333
	N257	N	0.173747	0.081663	0.553557
	N258	N	0.813675	0.082031	0.484743
	N259	N	0.813166	0.906789	0.552061
	N260	N	0.459645	0.172715	0.932892
	N261	N	0.529413	0.173640	0.104730
	N262	N	0.459647	0.817475	0.104190
	N263	N	0.529174	0.816236	0.932458
	N264	N	0.459928	0.908741	0.198126
	N265	N	0.528590	0.083288	0.199401
	N266	N	0.460168	0.081656	0.838676
	N267	N	0.528030	0.906273	0.837168
	N268	N	0.906523	0.176526	0.485144
	N269	N	0.080754	0.175718	0.553198
	N270	N	0.083396	0.813000	0.484379
	N271	N	0.907102	0.813535	0.552017
	N272	N	0.172204	0.459801	0.932564
	N273	N	0.172381	0.529814	0.103600
	N274	N	0.815171	0.459896	0.105661
	N275	N	0.816203	0.529194	0.932867
	O276	O	-0.025837	1.208513	-0.193222
	H277	H	-0.031151	1.229011	-0.196589
	H278	H	-0.033721	1.208925	-0.189519
	O279	O	0.215602	0.058511	0.001031
	H280	H	0.205447	0.065232	-0.007750
	H281	H	0.224066	0.040538	0.006460
	O282	O	1.216890	0.768131	0.246846
	H283	H	1.211221	0.778999	0.246249
	H284	H	1.196527	0.787371	0.238689
	O285	O	0.473709	0.274097	0.675288
	H286	H	0.473678	0.281152	0.690877
	H287	H	0.490723	0.274563	0.679138
	O288	O	0.786823	0.787211	0.232753
	H289	H	0.793631	0.819236	0.223007
	H290	H	0.799070	0.790259	0.202743
	O291	O	0.784953	0.203718	0.798703
	H292	H	0.795868	0.209186	0.826421
	H293	H	0.770969	0.226478	0.791875
	O294	O	0.670798	-0.299413	0.652462
	H295	H	0.659941	-0.310431	0.633406
	H296	H	0.684219	-0.300546	0.649403
	O297	O	0.639823	0.547603	0.526763
	H298	H	0.640211	0.543955	0.512214
	H299	H	0.652335	0.558187	0.524603
	O300	O	0.152189	-0.017757	0.890642
	H301	H	0.140956	-0.021358	0.891666
	H302	H	0.170040	-0.032657	0.874253
	O303	O	0.420809	0.716874	0.574097
	H304	H	0.415606	0.719708	0.568030
	H305	H	0.420680	0.707844	0.567835
	O306	O	1.019067	0.768708	0.081156
	H307	H	1.011877	0.764960	0.073490
	H308	H	1.028114	0.765745	0.088516
	O309	O	0.329040	0.665279	0.351138
	H310	H	0.312577	0.669546	0.338196
	H311	H	0.339670	0.654135	0.348227
	O312	O	0.689447	0.352864	0.669478
	H313	H	0.663860	0.381722	0.677348
	H314	H	0.680326	0.364902	0.636649
	O315	O	0.834512	1.190002	1.093106
	H316	H	0.840398	1.152986	1.096899
	H317	H	0.864543	1.192813	1.098018
	O318	O	0.628685	0.710057	0.623058
	H319	H	0.644994	0.728926	0.628280
	H320	H	0.630986	0.714877	0.627428
	O321	O	0.303759	0.684703	0.711844
	H322	H	0.321316	0.664762	0.696291
	H323	H	0.320826	0.670400	0.687429
	O324	O	1.174952	0.979924	-0.212282
	H325	H	1.167604	0.968196	-0.207367
	H326	H	1.202344	0.976924	-0.232237
	O327	O	-0.292790	0.520670	0.745892
	H328	H	-0.302088	0.533275	0.725630
	H329	H	-0.262236	0.525735	0.761930
	O330	O	0.455611	0.717818	0.294271
	H331	H	0.460147	0.744492	0.271420
	H332	H	0.436053	0.713478	0.302866
	O333	O	0.970558	0.781961	0.229883
	H334	H	0.953898	0.765763	0.239335
	H335	H	0.966500	0.799865	0.234546
	O336	O	0.820660	-0.003265	-0.043348
	H337	H	0.810410	0.005042	-0.063328
	H338	H	0.835686	0.007164	-0.037548
	O339	O	1.200333	0.202506	1.224238
	H340	H	1.187262	0.195969	1.206310
	H341	H	1.233852	0.235219	1.255220
	O342	O	-0.214204	0.202644	-0.008405
	H343	H	-0.240995	0.230381	0.004843
	H344	H	-0.183128	0.194846	0.007242
	O345	O	0.055435	1.206912	0.959212
	H346	H	0.037124	1.203390	0.966179
	H347	H	0.068273	1.212754	0.986812
	O348	O	0.006900	0.104308	0.041922
	H349	H	0.023426	0.097153	0.051103
	H350	H	0.001971	0.092278	0.032803
	O351	O	1.040975	1.024624	-0.179082
	H352	H	1.039380	1.038259	-0.175863
	H353	H	1.044119	1.018686	-0.175883
	O354	O	-0.222470	-0.221341	1.056485
	H355	H	-0.229818	-0.218874	1.042607
	H356	H	-0.238927	-0.222706	1.040450
	O357	O	0.503271	0.470922	0.493539
	H358	H	0.499092	0.471332	0.493609
	H359	H	0.497496	0.461728	0.506307
	O360	O	0.316700	0.419121	0.741056
	H361	H	0.312707	0.401749	0.754201
	H362	H	0.318628	0.402144	0.739555
	O363	O	0.204327	-0.076794	0.080695
	H364	H	0.208984	-0.068003	0.086883
	H365	H	0.204526	-0.093009	0.063396
	O366	O	0.644143	0.326666	0.336978
	H367	H	0.615079	0.335519	0.344137
	H368	H	0.633312	0.325217	0.360024
	O369	O	0.950597	-0.186653	-0.008843
	H370	H	0.951251	-0.202631	0.003419
	H371	H	0.950501	-0.193364	-0.024882
	O372	O	0.809932	1.181044	0.249104
	H373	H	0.818799	1.176938	0.216140
	H374	H	0.783796	1.198859	0.255392
	O375	O	1.021968	0.218472	0.242260
	H376	H	1.041491	0.200218	0.243479
	H377	H	1.027582	0.244824	0.272747
	O378	O	0.549998	0.725307	0.445178
	H379	H	0.533892	0.723471	0.439246
	H380	H	0.563997	0.726114	0.428640
	O381	O	0.213810	1.216700	1.054284
	H382	H	0.215359	1.200079	1.071151
	H383	H	0.243760	1.241729	1.048838
	O384	O	0.911257	-0.041522	1.128038
	H385	H	0.929502	-0.040810	1.127984
	H386	H	0.922641	-0.048033	1.130116
	O387	O	1.282450	1.281293	-0.265183
	H388	H	1.321373	1.282502	-0.263375
	H389	H	1.252294	1.248015	-0.232465
	O390	O	0.181037	0.181973	-0.167283
	H391	H	0.163597	0.175937	-0.139091
	H392	H	0.160796	0.157002	-0.156763
	O393	O	0.270532	0.273959	0.557726
	H394	H	0.240636	0.247376	0.562117
	H395	H	0.281339	0.279383	0.593663
	O396	O	0.035950	0.940220	1.193944
	H397	H	0.032920	0.954645	1.199685
	H398	H	0.037751	0.944642	1.193761
	O399	O	-0.023309	0.012325	0.936606
	H400	H	-0.015260	0.004962	0.932039
	H401	H	-0.010333	0.029934	0.925273
	O402	O	0.425830	0.440658	0.288658
	H403	H	0.435044	0.461366	0.293237
	H404	H	0.439243	0.455277	0.286093
	O405	O	0.947530	0.030438	1.202344
	H406	H	0.931415	0.037864	1.196756
	H407	H	0.942414	0.039221	1.206960
	O408	O	0.203939	-0.213092	-0.192452
	H409	H	0.168168	-0.209340	-0.194298
	H410	H	0.234809	-0.247545	-0.224246
	O411	O	0.674799	0.372292	0.462097
	H412	H	0.697670	0.356568	0.451363
	H413	H	0.676102	0.370472	0.449778
	O414	O	0.619309	0.621837	0.305384
	H415	H	0.636735	0.613879	0.315248
	H416	H	0.644165	0.645912	0.294929
	O417	O	0.481557	0.329737	0.477911
	H418	H	0.474463	0.333402	0.467538
	H419	H	0.481589	0.330995	0.480068
	O420	O	0.705494	0.615419	0.398982
	H421	H	0.707330	0.611372	0.410054
	H422	H	0.715048	0.615582	0.381964
	O423	O	-0.224551	-0.033177	1.234572
	H424	H	-0.223682	-0.034597	1.241579
	H425	H	-0.246421	-0.020546	1.240007
	O426	O	0.476391	0.633749	0.745954
	H427	H	0.481689	0.641400	0.744202
	H428	H	0.485187	0.645863	0.746394
	O429	O	0.472892	0.600098	0.519669
	H430	H	0.477097	0.615399	0.501533
	H431	H	0.478927	0.592637	0.527096
	O432	O	0.276341	0.711548	0.475885
	H433	H	0.262790	0.732040	0.472840
	H434	H	0.270514	0.708736	0.453314
	O435	O	0.275103	0.528412	0.296257
	H436	H	0.257637	0.523919	0.280908
	H437	H	0.281079	0.538163	0.298607
	O438	O	-0.476133	0.281698	0.300948
	H439	H	-0.483653	0.263590	0.294070
	H440	H	-0.495338	0.287281	0.315782
	O441	O	0.545947	0.507049	0.408396
	H442	H	0.541698	0.523016	0.424110
	H443	H	0.552068	0.524158	0.398960
	O444	O	0.595138	0.540076	0.651932
	H445	H	0.595920	0.554066	0.659934
	H446	H	0.591077	0.548507	0.647880
	O447	O	0.096989	0.840686	1.056489
	H448	H	0.090066	0.841622	1.050397
	H449	H	0.096125	0.836274	1.041106
	O450	O	0.210608	1.024722	1.239211
	H451	H	0.215048	1.042426	1.237808
	H452	H	0.227314	1.028129	1.246643
	O453	O	0.487132	0.403265	0.705347
	H454	H	0.489083	0.423704	0.709447
	H455	H	0.494562	0.410862	0.708311
	O456	O	-0.061084	-0.085696	0.803592
	H457	H	-0.065900	-0.058448	0.798708
	H458	H	-0.061448	-0.082366	0.806360
	O459	O	0.780512	1.036712	0.074632
	H460	H	0.775651	1.025810	0.056109
	H461	H	0.786475	1.037905	0.074255
	O462	O	0.276750	0.529359	0.637941
	H463	H	0.274667	0.502106	0.636330
	H464	H	0.270162	0.516447	0.646538
	O465	O	0.800881	-0.143933	-0.105574
	H466	H	0.808784	-0.128012	-0.099535
	H467	H	0.815672	-0.134569	-0.104183
	O468	O	0.708415	0.345412	0.528773
	H469	H	0.729493	0.325857	0.533665
	H470	H	0.694874	0.355071	0.543435
	O471	O	0.566155	0.300579	0.566633
	H472	H	0.557347	0.303315	0.565847
	H473	H	0.571738	0.310318	0.571451
	O474	O	0.282401	0.499759	0.502586
	H475	H	0.292633	0.497837	0.484418
	H476	H	0.271722	0.499939	0.506780
	O477	O	0.301627	0.303946	1.318962
	H478	H	0.324976	0.326757	1.329688
	H479	H	0.319345	0.320867	1.341068
	O480	O	0.444397	0.495855	0.684874
	H481	H	0.447061	0.504866	0.686294
	H482	H	0.441676	0.499683	0.691607
	O483	O	0.347508	0.347769	0.454612
	H484	H	0.339147	0.346058	0.479877
	H485	H	0.343475	0.362644	0.472378
	O486	O	0.753208	-0.245633	0.778725
	H487	H	0.766046	-0.231355	0.769972
	H488	H	0.765532	-0.238745	0.785270
	O489	O	1.211430	0.778932	-0.016372
	H490	H	1.221266	0.761499	-0.027060
	H491	H	1.222136	0.773750	-0.042132
	O492	O	-0.000390	0.157320	0.126728
	H493	H	0.029349	0.144460	0.133043
	H494	H	0.002614	0.161071	0.148419
	O495	O	0.029430	0.773356	0.795939
	H496	H	0.017444	0.797643	0.788255
	H497	H	0.030512	0.752687	0.770157
	O498	O	0.773130	1.018605	0.792731
	H499	H	0.751203	1.036328	0.770346
	H500	H	0.775498	1.047777	0.794357
	O501	O	0.717806	0.474790	0.299930
	H502	H	0.725341	0.461991	0.281079
	H503	H	0.719414	0.448417	0.297439
