data_Molecule from HDF5

_cell_length_a		16.344323
_cell_length_b		16.309650
_cell_length_c		16.277742
_cell_angle_alpha	89.929083
_cell_angle_beta	90.046846
_cell_angle_gamma	90.062349
_symmetry_space_group_name_H-M	'P 1'
_symmetry_Int_Tables_number		1

loop_
	_symmetry_equiv_pos_as_xyz
	x,y,z

loop_
	_atom_site_label
	_atom_site_type_symbol
	_atom_site_fract_x
	_atom_site_fract_y
	_atom_site_fract_z
	H0	H	0.400179	0.838939	0.705408
	H1	H	0.598490	0.166013	0.705857
	H2	H	0.595093	0.838545	0.277284
	H3	H	0.399955	0.166885	0.275362
	H4	H	0.713730	0.404159	0.827540
	H5	H	0.713701	0.602315	0.153717
	H6	H	0.283855	0.602193	0.826882
	H7	H	0.284477	0.405048	0.154808
	H8	H	0.835530	0.717401	0.392316
	H9	H	0.160846	0.718289	0.589392
	H10	H	0.835559	0.286477	0.590655
	H11	H	0.162267	0.287464	0.391536
	H12	H	0.835946	0.403304	0.706349
	H13	H	0.162031	0.600207	0.704153
	H14	H	0.835275	0.601848	0.275235
	H15	H	0.161950	0.405014	0.275358
	H16	H	0.400859	0.717003	0.826450
	H17	H	0.598013	0.718666	0.154121
	H18	H	0.596928	0.289187	0.826909
	H19	H	0.399941	0.287838	0.154232
	H20	H	0.712356	0.839150	0.392808
	H21	H	0.714417	0.165792	0.589783
	H22	H	0.283178	0.839533	0.589668
	H23	H	0.283288	0.166572	0.390202
	H24	H	0.899854	0.339664	0.205425
	H25	H	0.096151	0.667194	0.204272
	H26	H	0.096012	0.338757	0.777292
	H27	H	0.900594	0.666910	0.776466
	H28	H	0.213765	0.903126	0.326787
	H29	H	0.214518	0.102097	0.653583
	H30	H	0.784119	0.101537	0.327087
	H31	H	0.784446	0.903929	0.654238
	H32	H	0.335188	0.218171	0.891207
	H33	H	0.662225	0.218916	0.089407
	H34	H	0.335574	0.787251	0.089688
	H35	H	0.661410	0.788501	0.891930
	H36	H	0.334862	0.904316	0.204945
	H37	H	0.662315	0.101032	0.205395
	H38	H	0.335982	0.102092	0.774516
	H39	H	0.662271	0.905301	0.776635
	H40	H	0.900816	0.216865	0.327251
	H41	H	0.097481	0.217264	0.654326
	H42	H	0.096717	0.787794	0.326630
	H43	H	0.901095	0.789246	0.654433
	H44	H	0.213105	0.339665	0.893095
	H45	H	0.213663	0.666797	0.089750
	H46	H	0.783189	0.340418	0.089919
	H47	H	0.782794	0.666067	0.890867
	H48	H	0.416715	0.115152	0.581254
	H49	H	0.584140	0.890367	0.578740
	H50	H	0.597375	0.117559	0.408371
	H51	H	0.403720	0.885660	0.394034
	H52	H	0.590391	0.420589	0.103287
	H53	H	0.596808	0.597498	0.872439
	H54	H	0.400565	0.591649	0.106871
	H55	H	0.400207	0.416965	0.874869
	H56	H	0.112935	0.593443	0.400350
	H57	H	0.881134	0.600308	0.584025
	H58	H	0.113251	0.411483	0.582864
	H59	H	0.882379	0.411948	0.391531
	H60	H	0.114962	0.409596	0.585824
	H61	H	0.883483	0.595525	0.582329
	H62	H	0.115223	0.594786	0.393662
	H63	H	0.881768	0.403002	0.399427
	H64	H	0.411598	0.594721	0.105003
	H65	H	0.589795	0.591446	0.876744
	H66	H	0.582266	0.405821	0.105564
	H67	H	0.412714	0.411916	0.876989
	H68	H	0.599051	0.123639	0.388582
	H69	H	0.601745	0.884874	0.579731
	H70	H	0.400410	0.117366	0.573600
	H71	H	0.410215	0.888981	0.397626
	H72	H	0.901682	0.619327	0.078703
	H73	H	0.093007	0.390854	0.072632
	H74	H	0.081944	0.617355	0.892869
	H75	H	0.891643	0.384063	0.902226
	H76	H	0.098453	0.915048	0.606826
	H77	H	0.091324	0.097287	0.374083
	H78	H	0.901473	0.105252	0.610764
	H79	H	0.903462	0.909771	0.373728
	H80	H	0.609535	0.096914	0.912445
	H81	H	0.380307	0.100766	0.089794
	H82	H	0.618042	0.906624	0.093177
	H83	H	0.382186	0.907645	0.896801
	H84	H	0.613067	0.904062	0.074898
	H85	H	0.384475	0.100721	0.074468
	H86	H	0.613264	0.084094	0.889565
	H87	H	0.382828	0.910732	0.898749
	H88	H	0.899238	0.086287	0.607242
	H89	H	0.091397	0.093903	0.374819
	H90	H	0.084299	0.914787	0.602325
	H91	H	0.904788	0.910057	0.373819
	H92	H	0.093856	0.616292	0.908120
	H93	H	0.100483	0.383130	0.089164
	H94	H	0.904732	0.620521	0.088390
	H95	H	0.910444	0.384794	0.885000
	H96	H	0.402457	0.121991	0.590727
	H97	H	0.590693	0.883961	0.594210
	H98	H	0.580572	0.115603	0.395780
	H99	H	0.403171	0.887840	0.401765
	H100	H	0.598704	0.407146	0.109707
	H101	H	0.587769	0.600646	0.874049
	H102	H	0.403388	0.603263	0.109132
	H103	H	0.402528	0.403695	0.871700
	H104	H	0.115117	0.600249	0.398670
	H105	H	0.880893	0.595903	0.587227
	H106	H	0.114466	0.407849	0.582605
	H107	H	0.886319	0.414097	0.402697
	H108	H	0.911286	0.617169	0.081500
	H109	H	0.081874	0.388929	0.088468
	H110	H	0.100388	0.623614	0.890987
	H111	H	0.914665	0.393004	0.908916
	H112	H	0.090891	0.902004	0.608510
	H113	H	0.088135	0.095400	0.375313
	H114	H	0.916691	0.094899	0.603665
	H115	H	0.904429	0.908664	0.373267
	H116	H	0.619454	0.109639	0.891319
	H117	H	0.386512	0.087217	0.082512
	H118	H	0.610320	0.921200	0.082927
	H119	H	0.382580	0.910745	0.895006
	C120	C	0.377481	0.010487	0.611261
	C121	C	0.620771	0.994580	0.612846
	C122	C	0.620154	0.010636	0.369190
	C123	C	0.376482	0.995230	0.368408
	C124	C	0.619560	0.382389	-0.001412
	C125	C	0.620465	0.625218	0.982396
	C126	C	0.376745	0.624826	-0.001185
	C127	C	0.376824	0.381860	0.982691
	C128	C	0.006671	0.624345	0.369275
	C129	C	0.989721	0.625255	0.612759
	C130	C	0.006599	0.380954	0.612369
	C131	C	0.990987	0.381002	0.368920
	C132	C	0.876652	0.511488	0.112344
	C133	C	0.120255	0.495413	0.112144
	C134	C	0.120577	0.511191	0.868964
	C135	C	0.876950	0.495055	0.869375
	C136	C	0.119866	0.881703	0.498086
	C137	C	0.119601	0.124266	0.482420
	C138	C	0.877087	0.124094	0.499048
	C139	C	0.876698	0.881276	0.482284
	C140	C	0.506794	0.125550	0.868406
	C141	C	0.490954	0.125130	0.111915
	C142	C	0.506470	0.881423	0.112433
	C143	C	0.490512	0.881234	0.868818
	C144	C	0.379964	0.887775	0.666951
	C145	C	0.618441	0.117438	0.667623
	C146	C	0.615908	0.887538	0.314969
	C147	C	0.378894	0.117891	0.312691
	C148	C	0.675650	0.383999	0.875914
	C149	C	0.675811	0.623041	0.105140
	C150	C	0.321690	0.622353	0.875604
	C151	C	0.322036	0.384387	0.105811
	C152	C	0.883948	0.679318	0.371670
	C153	C	0.112478	0.679945	0.609967
	C154	C	0.884158	0.325176	0.610201
	C155	C	0.113405	0.325508	0.371027
	C156	C	0.884217	0.382882	0.667901
	C157	C	0.112839	0.621442	0.667016
	C158	C	0.884001	0.621953	0.313612
	C159	C	0.113241	0.383892	0.313348
	C160	C	0.379974	0.679263	0.875300
	C161	C	0.617948	0.680553	0.105221
	C162	C	0.617418	0.327083	0.875714
	C163	C	0.379544	0.326386	0.105605
	C164	C	0.674438	0.887825	0.372018
	C165	C	0.676456	0.117103	0.610312
	C166	C	0.321625	0.888034	0.609504
	C167	C	0.321226	0.117882	0.370305
	C168	C	0.879296	0.388631	0.167609
	C169	C	0.117146	0.618286	0.166878
	C170	C	0.117086	0.387708	0.814665
	C171	C	0.879836	0.617982	0.813996
	C172	C	0.175567	0.883180	0.375398
	C173	C	0.175914	0.121965	0.604923
	C174	C	0.822058	0.121641	0.375987
	C175	C	0.822378	0.883979	0.605590
	C176	C	0.384179	0.180412	0.870897
	C177	C	0.613590	0.180842	0.109911
	C178	C	0.383920	0.825668	0.110034
	C179	C	0.612911	0.826312	0.871423
	C180	C	0.383617	0.883801	0.167378
	C181	C	0.613588	0.122355	0.167528
	C182	C	0.384280	0.122709	0.812853
	C183	C	0.613399	0.884660	0.814300
	C184	C	0.879478	0.179602	0.376088
	C185	C	0.117911	0.179156	0.605544
	C186	C	0.117150	0.825945	0.375333
	C187	C	0.880049	0.826720	0.605566
	C188	C	0.175227	0.388115	0.871940
	C189	C	0.175749	0.618074	0.110205
	C190	C	0.821155	0.388892	0.110403
	C191	C	0.821567	0.617699	0.871214
	C192	C	0.400005	0.096025	0.588552
	C193	C	0.598494	0.908466	0.590790
	C194	C	0.598532	0.096641	0.391127
	C195	C	0.398940	0.909759	0.391237
	C196	C	0.597224	0.404853	0.084213
	C197	C	0.598308	0.602954	0.896470
	C198	C	0.398694	0.602909	0.084723
	C199	C	0.398702	0.404305	0.896745
	C200	C	0.092396	0.602700	0.391182
	C201	C	0.904024	0.603556	0.590933
	C202	C	0.092136	0.403190	0.590226
	C203	C	0.905361	0.403159	0.391469
	C204	C	0.899218	0.596961	0.089656
	C205	C	0.098324	0.409757	0.089852
	C206	C	0.098590	0.596793	0.890789
	C207	C	0.899076	0.409427	0.892089
	C208	C	0.097721	0.903996	0.583745
	C209	C	0.096940	0.102070	0.396927
	C210	C	0.899282	0.101992	0.584980
	C211	C	0.898173	0.903052	0.395939
	C212	C	0.591993	0.103488	0.891165
	C213	C	0.405893	0.102811	0.089117
	C214	C	0.591783	0.904034	0.090269
	C215	C	0.404711	0.903246	0.890505
	Zn216	Zn	0.498798	0.003063	0.740476
	Zn217	Zn	0.498276	0.003257	0.240641
	Zn218	Zn	0.748166	0.503331	-0.009372
	Zn219	Zn	0.248610	0.503519	-0.009260
	Zn220	Zn	-0.002050	0.753191	0.490346
	Zn221	Zn	-0.001167	0.252666	0.491148
	Zn222	Zn	-0.002034	0.502756	0.741050
	Zn223	Zn	-0.001366	0.503328	0.240467
	Zn224	Zn	0.498142	0.753012	-0.009583
	Zn225	Zn	0.499048	0.253849	-0.009368
	Zn226	Zn	0.748541	0.002440	0.491084
	Zn227	Zn	0.248337	0.003050	0.489869
	N228	N	0.413791	0.965104	0.668240
	N229	N	0.584708	0.040149	0.669365
	N230	N	0.582538	0.965150	0.313391
	N231	N	0.412608	0.040809	0.311595
	N232	N	0.676985	0.417796	0.953383
	N233	N	0.677289	0.589194	0.027802
	N234	N	0.319458	0.589405	0.953292
	N235	N	0.320335	0.418077	0.028300
	N236	N	0.961100	0.681025	0.405544
	N237	N	0.035033	0.682597	0.577132
	N238	N	0.961384	0.323888	0.576290
	N239	N	0.036191	0.323632	0.404796
	N240	N	0.961175	0.416993	0.669174
	N241	N	0.035543	0.588029	0.668711
	N242	N	0.961202	0.588454	0.312171
	N243	N	0.036133	0.417608	0.312044
	N244	N	0.413386	0.680926	0.952862
	N245	N	0.584170	0.681836	0.027814
	N246	N	0.583308	0.326111	0.952833
	N247	N	0.412718	0.324507	0.027984
	N248	N	0.676937	0.965295	0.405152
	N249	N	0.677801	0.039672	0.577083
	N250	N	0.320053	0.965358	0.575587
	N251	N	0.319685	0.040462	0.404201
	N252	N	0.913286	0.465843	0.168636
	N253	N	0.083382	0.541045	0.168246
	N254	N	0.083806	0.465291	0.812603
	N255	N	0.913576	0.540857	0.812956
	N256	N	0.177436	0.917083	0.452714
	N257	N	0.176918	0.088435	0.527431
	N258	N	0.820364	0.087947	0.453543
	N259	N	0.820120	0.917127	0.527873
	N260	N	0.461390	0.182092	0.904937
	N261	N	0.536470	0.182476	0.075938
	N262	N	0.461122	0.824060	0.076510
	N263	N	0.535503	0.824261	0.904485
	N264	N	0.460700	0.917767	0.169054
	N265	N	0.536494	0.088555	0.168886
	N266	N	0.461360	0.089342	0.811239
	N267	N	0.536179	0.918377	0.812721
	N268	N	0.913060	0.181292	0.453514
	N269	N	0.083623	0.180740	0.528454
	N270	N	0.083183	0.824916	0.452611
	N271	N	0.912989	0.824921	0.527796
	N272	N	0.177656	0.465657	0.904822
	N273	N	0.177495	0.540712	0.076562
	N274	N	0.819338	0.466218	0.076675
	N275	N	0.819566	0.540239	0.904939
	O276	O	1.993490	0.056439	0.937029
	H277	H	1.991874	0.058871	0.948070
	H278	H	1.992350	0.068747	0.934733
	O279	O	0.009543	-0.038429	-0.020173
	H280	H	0.010319	-0.042834	-0.019471
	H281	H	0.009564	-0.038074	-0.022212
	O282	O	0.002017	0.020571	0.997570
	H283	H	0.000364	0.015988	0.990306
	H284	H	0.004106	0.022601	1.002451
	O285	O	0.518273	0.456108	0.493356
	H286	H	0.521561	0.450589	0.488448
	H287	H	0.513948	0.450263	0.493498
	O288	O	0.447696	0.418917	0.512077
	H289	H	0.447276	0.421026	0.509880
	H290	H	0.447362	0.419933	0.514531
	O291	O	0.009977	0.977694	0.932573
	H292	H	0.011225	0.979821	0.934272
	H293	H	0.005064	0.980973	0.937524
	O294	O	0.046348	-0.022487	-0.024355
	H295	H	0.052366	-0.027697	-0.022694
	H296	H	0.036764	-0.034903	-0.032202
	O297	O	0.377938	0.327429	0.640211
	H298	H	0.377434	0.334510	0.642597
	H299	H	0.388939	0.326230	0.631259
	O300	O	0.016173	1.025419	0.997710
	H301	H	0.015135	1.031548	0.989214
	H302	H	0.011084	1.026578	0.996719
	O303	O	0.451022	0.449631	0.483346
	H304	H	0.448075	0.451623	0.490078
	H305	H	0.452341	0.453815	0.481352
	O306	O	0.053086	0.048938	1.013422
	H307	H	0.058587	0.051488	1.012257
	H308	H	0.045182	0.055842	1.004788
	O309	O	1.015460	1.040677	1.008036
	H310	H	1.014932	1.043621	1.022472
	H311	H	1.022604	1.038702	1.015952
	O312	O	0.433013	0.462142	0.510501
	H313	H	0.433635	0.452135	0.515294
	H314	H	0.422394	0.468084	0.506285
	O315	O	0.429310	0.469635	0.489196
	H316	H	0.429924	0.462687	0.491732
	H317	H	0.439876	0.462556	0.482473
	O318	O	0.049643	0.975982	-0.063416
	H319	H	0.045369	0.967235	-0.068231
	H320	H	0.052001	0.968744	-0.064748
	O321	O	1.033146	1.009174	-0.029972
	H322	H	1.052749	1.013917	-0.028463
	H323	H	1.032999	1.013773	-0.028096
