data_Molecule from HDF5

_cell_length_a		16.310542
_cell_length_b		16.269553
_cell_length_c		16.399762
_cell_angle_alpha	90.069233
_cell_angle_beta	90.114316
_cell_angle_gamma	90.089750
_symmetry_space_group_name_H-M	'P 1'
_symmetry_Int_Tables_number		1

loop_
	_symmetry_equiv_pos_as_xyz
	x,y,z

loop_
	_atom_site_label
	_atom_site_type_symbol
	_atom_site_fract_x
	_atom_site_fract_y
	_atom_site_fract_z
	H0	H	0.399798	0.842030	0.717015
	H1	H	0.596319	0.169679	0.717564
	H2	H	0.595484	0.842172	0.288372
	H3	H	0.399370	0.170329	0.288733
	H4	H	0.712171	0.408175	0.840144
	H5	H	0.713853	0.604924	0.165502
	H6	H	0.281607	0.604598	0.840693
	H7	H	0.283361	0.406205	0.166113
	H8	H	0.834294	0.719854	0.405546
	H9	H	0.161418	0.719616	0.601403
	H10	H	0.834324	0.291464	0.599436
	H11	H	0.162390	0.291507	0.405424
	H12	H	0.834461	0.405486	0.718810
	H13	H	0.160608	0.603607	0.718348
	H14	H	0.834746	0.604283	0.287422
	H15	H	0.160986	0.404996	0.287420
	H16	H	0.400644	0.719285	0.839568
	H17	H	0.597050	0.721426	0.164989
	H18	H	0.595373	0.291820	0.840004
	H19	H	0.401028	0.291302	0.165952
	H20	H	0.710684	0.841395	0.405654
	H21	H	0.711857	0.169777	0.601074
	H22	H	0.284536	0.841569	0.600001
	H23	H	0.284164	0.170305	0.405885
	H24	H	0.899846	0.341212	0.216997
	H25	H	0.098349	0.668875	0.219639
	H26	H	0.096737	0.341622	0.788585
	H27	H	0.900874	0.669436	0.789245
	H28	H	0.212804	0.907066	0.340579
	H29	H	0.212190	0.102811	0.666585
	H30	H	0.783657	0.102674	0.339652
	H31	H	0.783317	0.908613	0.665912
	H32	H	0.334332	0.219027	0.905805
	H33	H	0.662492	0.218751	0.099766
	H34	H	0.334175	0.792143	0.098721
	H35	H	0.662384	0.792810	0.906170
	H36	H	0.334387	0.907003	0.216838
	H37	H	0.660756	0.105129	0.218764
	H38	H	0.334549	0.104129	0.788095
	H39	H	0.661551	0.907391	0.787923
	H40	H	0.900677	0.219677	0.339825
	H41	H	0.097187	0.220943	0.666086
	H42	H	0.095489	0.790051	0.340744
	H43	H	0.902159	0.793605	0.667116
	H44	H	0.211202	0.341376	0.907031
	H45	H	0.212295	0.670095	0.100900
	H46	H	0.785641	0.340968	0.098720
	H47	H	0.784633	0.669617	0.904887
	H48	H	0.403921	0.121471	0.592740
	H49	H	0.599221	0.887616	0.592763
	H50	H	0.590569	0.123065	0.407159
	H51	H	0.411625	0.891392	0.407221
	H52	H	0.593130	0.410594	0.118989
	H53	H	0.597130	0.604985	0.884130
	H54	H	0.402239	0.600808	0.119502
	H55	H	0.397781	0.419379	0.887793
	H56	H	0.114136	0.598401	0.411348
	H57	H	0.880027	0.597318	0.602786
	H58	H	0.111410	0.414928	0.591942
	H59	H	0.882565	0.413130	0.410306
	H60	H	0.114454	0.416755	0.600274
	H61	H	0.880288	0.604140	0.594885
	H62	H	0.113561	0.597406	0.411120
	H63	H	0.882817	0.412357	0.409134
	H64	H	0.405715	0.594356	0.116266
	H65	H	0.595714	0.591358	0.888294
	H66	H	0.593882	0.414530	0.118615
	H67	H	0.412254	0.414238	0.890767
	H68	H	0.589046	0.120826	0.411409
	H69	H	0.587717	0.886940	0.605425
	H70	H	0.403250	0.123861	0.599261
	H71	H	0.403271	0.892057	0.416632
	H72	H	0.906284	0.621688	0.095783
	H73	H	0.087808	0.390847	0.094981
	H74	H	0.086656	0.618441	0.917887
	H75	H	0.897763	0.385935	0.905207
	H76	H	0.108404	0.908795	0.624391
	H77	H	0.090966	0.097307	0.388690
	H78	H	0.900130	0.097007	0.619506
	H79	H	0.907206	0.909388	0.387930
	H80	H	0.612865	0.099815	0.911618
	H81	H	0.380891	0.098995	0.098492
	H82	H	0.612845	0.912293	0.092332
	H83	H	0.382644	0.902146	0.919856
	H84	H	0.613388	0.918263	0.099242
	H85	H	0.381950	0.100760	0.095137
	H86	H	0.613228	0.095841	0.907996
	H87	H	0.386843	0.926144	0.910802
	H88	H	0.907368	0.096401	0.617010
	H89	H	0.090589	0.099247	0.388283
	H90	H	0.088001	0.928226	0.613327
	H91	H	0.899648	0.909207	0.385675
	H92	H	0.099621	0.624432	0.910305
	H93	H	0.095080	0.388576	0.094492
	H94	H	0.905871	0.621812	0.097120
	H95	H	0.912688	0.390320	0.904786
	H96	H	0.409509	0.121266	0.597129
	H97	H	0.583468	0.893320	0.590229
	H98	H	0.593400	0.122563	0.411641
	H99	H	0.399727	0.887746	0.405323
	H100	H	0.589754	0.413059	0.117645
	H101	H	0.584425	0.600546	0.889343
	H102	H	0.409975	0.601225	0.116942
	H103	H	0.401670	0.403707	0.885213
	H104	H	0.113461	0.597968	0.410194
	H105	H	0.883578	0.594087	0.593046
	H106	H	0.115593	0.408330	0.597703
	H107	H	0.882524	0.412026	0.410290
	H108	H	0.907407	0.621406	0.096961
	H109	H	0.091491	0.388515	0.101110
	H110	H	0.085675	0.622010	0.902061
	H111	H	0.904933	0.391184	0.918260
	H112	H	0.079438	0.899306	0.619263
	H113	H	0.092554	0.098459	0.387964
	H114	H	0.904645	0.102934	0.619334
	H115	H	0.902822	0.916239	0.388624
	H116	H	0.616542	0.100646	0.907233
	H117	H	0.382370	0.097298	0.096026
	H118	H	0.615924	0.909940	0.100401
	H119	H	0.376924	0.907673	0.895079
	C120	C	0.377016	0.013866	0.624214
	C121	C	0.618720	0.997746	0.624545
	C122	C	0.618787	0.013940	0.381711
	C123	C	0.376207	0.998258	0.381264
	C124	C	0.620215	0.384154	0.010952
	C125	C	0.620336	0.627477	0.994833
	C126	C	0.377040	0.627254	0.010499
	C127	C	0.376145	0.383715	0.995587
	C128	C	0.005736	0.626446	0.382082
	C129	C	0.989596	0.626946	0.624933
	C130	C	0.005961	0.384264	0.624773
	C131	C	0.990408	0.383636	0.381637
	C132	C	0.877454	0.513371	0.124552
	C133	C	0.120305	0.497412	0.125291
	C134	C	0.119209	0.513485	0.882071
	C135	C	0.877146	0.497331	0.881318
	C136	C	0.119897	0.883885	0.511424
	C137	C	0.119984	0.127220	0.495406
	C138	C	0.876147	0.127233	0.510896
	C139	C	0.875476	0.883791	0.495155
	C140	C	0.505988	0.127178	0.881200
	C141	C	0.489830	0.127108	0.124508
	C142	C	0.506163	0.884378	0.124722
	C143	C	0.490166	0.884148	0.880822
	C144	C	0.379272	0.890879	0.678970
	C145	C	0.616823	0.120667	0.679852
	C146	C	0.615875	0.890848	0.326628
	C147	C	0.378660	0.121302	0.326138
	C148	C	0.674696	0.387034	0.888682
	C149	C	0.675949	0.625372	0.117014
	C150	C	0.320316	0.625117	0.888821
	C151	C	0.321141	0.385966	0.117484
	C152	C	0.882848	0.681225	0.385019
	C153	C	0.112519	0.681504	0.621866
	C154	C	0.882961	0.329167	0.621082
	C155	C	0.113300	0.328693	0.384703
	C156	C	0.883058	0.385834	0.680006
	C157	C	0.112109	0.624572	0.680378
	C158	C	0.883336	0.624476	0.326257
	C159	C	0.112761	0.385465	0.326254
	C160	C	0.379349	0.682054	0.888228
	C161	C	0.617650	0.682920	0.116953
	C162	C	0.616314	0.329689	0.888463
	C163	C	0.379834	0.329109	0.117570
	C164	C	0.673280	0.890545	0.384656
	C165	C	0.674184	0.120790	0.621899
	C166	C	0.322241	0.890548	0.620846
	C167	C	0.321631	0.121466	0.384534
	C168	C	0.879505	0.390226	0.179287
	C169	C	0.118189	0.620332	0.181059
	C170	C	0.116883	0.390589	0.826802
	C171	C	0.879921	0.620680	0.826932
	C172	C	0.174529	0.886797	0.389153
	C173	C	0.175188	0.124484	0.617883
	C174	C	0.821651	0.123830	0.388214
	C175	C	0.821474	0.887612	0.617661
	C176	C	0.383085	0.181503	0.884890
	C177	C	0.613447	0.181752	0.121107
	C178	C	0.382945	0.829532	0.120452
	C179	C	0.613571	0.830131	0.884629
	C180	C	0.383014	0.886577	0.179104
	C181	C	0.612782	0.125055	0.179800
	C182	C	0.383228	0.124450	0.826417
	C183	C	0.613068	0.886902	0.825930
	C184	C	0.880007	0.181586	0.388364
	C185	C	0.117557	0.182654	0.617737
	C186	C	0.116372	0.828783	0.389050
	C187	C	0.879934	0.830063	0.617978
	C188	C	0.173763	0.390285	0.885581
	C189	C	0.174943	0.620952	0.122421
	C190	C	0.822496	0.390114	0.120967
	C191	C	0.822716	0.620790	0.884758
	C192	C	0.399231	0.099977	0.602781
	C193	C	0.596627	0.911316	0.602690
	C194	C	0.597354	0.099976	0.403557
	C195	C	0.398416	0.912532	0.403203
	C196	C	0.598459	0.406229	0.096328
	C197	C	0.598624	0.605549	0.909297
	C198	C	0.399384	0.605249	0.095662
	C199	C	0.397483	0.405912	0.910135
	C200	C	0.091440	0.604527	0.404432
	C201	C	0.903447	0.604848	0.603137
	C202	C	0.091654	0.406824	0.603172
	C203	C	0.904781	0.405961	0.403441
	C204	C	0.899735	0.599423	0.102902
	C205	C	0.098081	0.411551	0.103274
	C206	C	0.097109	0.599422	0.903731
	C207	C	0.898722	0.411234	0.902955
	C208	C	0.098466	0.905787	0.596968
	C209	C	0.097926	0.105001	0.410341
	C210	C	0.897595	0.105252	0.596472
	C211	C	0.896709	0.905210	0.409423
	C212	C	0.592037	0.105284	0.902676
	C213	C	0.404037	0.105332	0.102965
	C214	C	0.591857	0.906695	0.103487
	C215	C	0.404351	0.905668	0.902176
	Zn216	Zn	0.498016	0.005891	0.753049
	Zn217	Zn	0.497544	0.006027	0.253023
	Zn218	Zn	0.749204	0.505477	0.003011
	Zn219	Zn	0.247897	0.505749	0.003446
	Zn220	Zn	-0.002391	0.755391	0.503305
	Zn221	Zn	-0.001516	0.255745	0.503178
	Zn222	Zn	-0.002323	0.505406	0.753503
	Zn223	Zn	-0.001811	0.505107	0.253607
	Zn224	Zn	0.498523	0.756237	0.002275
	Zn225	Zn	0.498318	0.255377	0.003128
	Zn226	Zn	0.746706	0.005932	0.503135
	Zn227	Zn	0.248714	0.006118	0.503337
	N228	N	0.412641	0.968666	0.681119
	N229	N	0.583157	0.043052	0.681480
	N230	N	0.582789	0.968507	0.324758
	N231	N	0.411978	0.043551	0.324132
	N232	N	0.676985	0.420366	0.965740
	N233	N	0.677763	0.591634	0.040125
	N234	N	0.318986	0.591618	0.965747
	N235	N	0.319010	0.419483	0.040606
	N236	N	0.960146	0.682826	0.418895
	N237	N	0.035225	0.683241	0.588313
	N238	N	0.960150	0.328100	0.587569
	N239	N	0.036062	0.327427	0.418375
	N240	N	0.960613	0.419395	0.682364
	N241	N	0.034523	0.591312	0.682146
	N242	N	0.960769	0.591165	0.324482
	N243	N	0.035485	0.418898	0.324281
	N244	N	0.413755	0.683529	0.964824
	N245	N	0.583757	0.684248	0.040002
	N246	N	0.583081	0.327854	0.965422
	N247	N	0.413287	0.327425	0.040755
	N248	N	0.675209	0.968031	0.418223
	N249	N	0.675158	0.043383	0.587947
	N250	N	0.320926	0.968047	0.587287
	N251	N	0.320074	0.044151	0.418140
	N252	N	0.913040	0.467934	0.181485
	N253	N	0.084818	0.542488	0.183006
	N254	N	0.083589	0.468333	0.824668
	N255	N	0.912808	0.542973	0.824664
	N256	N	0.176786	0.920167	0.466322
	N257	N	0.176712	0.090579	0.540993
	N258	N	0.819321	0.090572	0.465377
	N259	N	0.818542	0.920193	0.540298
	N260	N	0.460488	0.183153	0.918293
	N261	N	0.536172	0.183033	0.087234
	N262	N	0.460447	0.827944	0.087549
	N263	N	0.536325	0.828426	0.918118
	N264	N	0.460342	0.920318	0.181490
	N265	N	0.535021	0.092333	0.182347
	N266	N	0.460702	0.091453	0.824109
	N267	N	0.535439	0.919814	0.823518
	N268	N	0.912990	0.183769	0.465574
	N269	N	0.084085	0.184415	0.540734
	N270	N	0.083149	0.826910	0.465893
	N271	N	0.912950	0.827906	0.540866
	N272	N	0.175043	0.467641	0.919459
	N273	N	0.176281	0.543662	0.088498
	N274	N	0.821336	0.467591	0.087538
	N275	N	0.820873	0.543146	0.918095
	O276	O	1.441036	-0.450364	0.410892
	H277	H	1.443801	-0.451987	0.405494
	H278	H	1.448664	-0.442030	0.412001
	O279	O	0.464427	0.492528	0.434731
	H280	H	0.457284	0.499665	0.433930
	H281	H	0.460328	0.479317	0.432136
	O282	O	0.473123	0.540125	0.408740
	H283	H	0.471760	0.528314	0.408932
	H284	H	0.472759	0.532823	0.412028
	O285	O	0.421820	0.510674	0.419214
	H286	H	0.424177	0.523781	0.423067
	H287	H	0.415422	0.516346	0.410491
