data_Molecule from HDF5

_cell_length_a		16.277694
_cell_length_b		16.231688
_cell_length_c		16.488017
_cell_angle_alpha	89.859052
_cell_angle_beta	90.112668
_cell_angle_gamma	90.213346
_symmetry_space_group_name_H-M	'P 1'
_symmetry_Int_Tables_number		1

loop_
	_symmetry_equiv_pos_as_xyz
	x,y,z

loop_
	_atom_site_label
	_atom_site_type_symbol
	_atom_site_fract_x
	_atom_site_fract_y
	_atom_site_fract_z
	H0	H	0.399626	0.841183	0.721470
	H1	H	0.606825	0.164932	0.718907
	H2	H	0.605465	0.839791	0.283687
	H3	H	0.399096	0.163426	0.282936
	H4	H	0.719174	0.402248	0.839678
	H5	H	0.723469	0.603758	0.160158
	H6	H	0.285290	0.603764	0.840347
	H7	H	0.284985	0.399083	0.161744
	H8	H	0.839530	0.715680	0.401906
	H9	H	0.166347	0.715145	0.598927
	H10	H	0.839999	0.284132	0.599300
	H11	H	0.166255	0.285769	0.402145
	H12	H	0.841650	0.395120	0.719577
	H13	H	0.164900	0.603468	0.719121
	H14	H	0.841974	0.604939	0.280123
	H15	H	0.164981	0.398460	0.282244
	H16	H	0.403086	0.719959	0.840649
	H17	H	0.605137	0.718763	0.162340
	H18	H	0.603709	0.285705	0.840543
	H19	H	0.403394	0.284981	0.162713
	H20	H	0.716582	0.837833	0.403766
	H21	H	0.720760	0.164379	0.602032
	H22	H	0.287909	0.838067	0.601401
	H23	H	0.287297	0.165383	0.402193
	H24	H	0.899371	0.340237	0.218220
	H25	H	0.108732	0.662864	0.219026
	H26	H	0.104311	0.338091	0.784528
	H27	H	0.901349	0.662346	0.780416
	H28	H	0.219232	0.901393	0.340516
	H29	H	0.220840	0.103704	0.662133
	H30	H	0.783636	0.101990	0.341293
	H31	H	0.784700	0.898281	0.662775
	H32	H	0.338665	0.215691	0.905915
	H33	H	0.666817	0.218846	0.102410
	H34	H	0.340847	0.784744	0.100900
	H35	H	0.666845	0.789673	0.903748
	H36	H	0.340669	0.898549	0.218996
	H37	H	0.664805	0.106458	0.222362
	H38	H	0.341034	0.106082	0.784003
	H39	H	0.664221	0.901170	0.783244
	H40	H	0.899368	0.219702	0.341134
	H41	H	0.102958	0.218601	0.662162
	H42	H	0.101043	0.785595	0.339703
	H43	H	0.902221	0.781733	0.663416
	H44	H	0.219283	0.338012	0.901069
	H45	H	0.220140	0.664324	0.099593
	H46	H	0.787092	0.338506	0.099555
	H47	H	0.789909	0.665278	0.899738
	H48	H	0.406737	0.120805	0.594734
	H49	H	0.584290	0.889996	0.593757
	H50	H	0.591128	0.118795	0.401706
	H51	H	0.406136	0.883615	0.407523
	H52	H	0.590109	0.413958	0.112590
	H53	H	0.595946	0.602099	0.884233
	H54	H	0.419091	0.587554	0.110956
	H55	H	0.411204	0.408085	0.887153
	H56	H	0.119573	0.591677	0.403801
	H57	H	0.890455	0.587149	0.586464
	H58	H	0.116030	0.415430	0.591573
	H59	H	0.887504	0.410663	0.407760
	H60	H	0.120707	0.410781	0.599492
	H61	H	0.887387	0.585192	0.597673
	H62	H	0.119079	0.596635	0.410509
	H63	H	0.888547	0.410773	0.409243
	H64	H	0.413537	0.601917	0.117033
	H65	H	0.602219	0.593129	0.885436
	H66	H	0.596680	0.406180	0.116489
	H67	H	0.409008	0.411012	0.887170
	H68	H	0.585438	0.112880	0.416836
	H69	H	0.596525	0.887124	0.588246
	H70	H	0.416130	0.117981	0.597060
	H71	H	0.416515	0.887068	0.407464
	H72	H	0.918225	0.615769	0.089479
	H73	H	0.089235	0.386054	0.095006
	H74	H	0.097783	0.617490	0.908770
	H75	H	0.912585	0.385407	0.907709
	H76	H	0.100537	0.909431	0.616607
	H77	H	0.089165	0.096631	0.387989
	H78	H	0.912800	0.099182	0.616725
	H79	H	0.916041	0.907998	0.389981
	H80	H	0.622189	0.099624	0.900773
	H81	H	0.385965	0.101236	0.092864
	H82	H	0.620210	0.912288	0.099972
	H83	H	0.389330	0.913199	0.912141
	H84	H	0.619064	0.908536	0.091900
	H85	H	0.392699	0.087147	0.086468
	H86	H	0.618088	0.099279	0.918770
	H87	H	0.387150	0.913625	0.909161
	H88	H	0.905303	0.087908	0.615302
	H89	H	0.099814	0.094695	0.385539
	H90	H	0.091590	0.911257	0.613473
	H91	H	0.906488	0.902673	0.386143
	H92	H	0.092272	0.617287	0.904393
	H93	H	0.094007	0.387643	0.088297
	H94	H	0.912079	0.617355	0.089212
	H95	H	0.912248	0.386308	0.910871
	H96	H	0.412843	0.116272	0.588267
	H97	H	0.594000	0.883871	0.601388
	H98	H	0.601736	0.118430	0.414970
	H99	H	0.410332	0.887703	0.416278
	H100	H	0.600369	0.416115	0.114758
	H101	H	0.591560	0.593566	0.889103
	H102	H	0.403388	0.588783	0.115707
	H103	H	0.412407	0.411024	0.888400
	H104	H	0.116235	0.588639	0.411325
	H105	H	0.885573	0.595905	0.593017
	H106	H	0.119091	0.405436	0.590627
	H107	H	0.888526	0.412210	0.407976
	H108	H	0.915160	0.618365	0.094713
	H109	H	0.096901	0.383102	0.094999
	H110	H	0.091749	0.615157	0.911462
	H111	H	0.909846	0.384338	0.909327
	H112	H	0.093767	0.902493	0.616986
	H113	H	0.093359	0.086253	0.390031
	H114	H	0.918956	0.087963	0.612570
	H115	H	0.906082	0.914112	0.389228
	H116	H	0.616162	0.083672	0.908650
	H117	H	0.386715	0.087349	0.102317
	H118	H	0.616403	0.916590	0.093216
	H119	H	0.387809	0.910295	0.911232
	C120	C	0.381456	0.010819	0.623269
	C121	C	0.623431	0.993816	0.623848
	C122	C	0.623029	0.009330	0.381482
	C123	C	0.381153	0.993637	0.380531
	C124	C	0.625172	0.381319	0.008747
	C125	C	0.626717	0.625467	0.992319
	C126	C	0.382013	0.623154	0.008947
	C127	C	0.380869	0.379691	0.993626
	C128	C	0.011186	0.622511	0.378502
	C129	C	0.994880	0.620672	0.622287
	C130	C	0.011550	0.379187	0.622893
	C131	C	0.995226	0.380434	0.379017
	C132	C	0.882958	0.510369	0.121441
	C133	C	0.124622	0.492969	0.122094
	C134	C	0.124012	0.509181	0.879204
	C135	C	0.882160	0.492707	0.878776
	C136	C	0.124701	0.878971	0.509469
	C137	C	0.124406	0.123169	0.493654
	C138	C	0.880775	0.122528	0.509439
	C139	C	0.880015	0.877742	0.494245
	C140	C	0.511317	0.124201	0.880423
	C141	C	0.495475	0.123333	0.124122
	C142	C	0.511424	0.880954	0.124195
	C143	C	0.494931	0.882328	0.880615
	C144	C	0.380661	0.889087	0.681685
	C145	C	0.624963	0.116250	0.680272
	C146	C	0.623956	0.887958	0.323254
	C147	C	0.380561	0.115232	0.322356
	C148	C	0.681146	0.382481	0.888032
	C149	C	0.684333	0.623834	0.112636
	C150	C	0.324490	0.623083	0.888382
	C151	C	0.324065	0.379955	0.113970
	C152	C	0.888482	0.678249	0.380753
	C153	C	0.117560	0.677307	0.619786
	C154	C	0.888921	0.322110	0.620307
	C155	C	0.117340	0.323423	0.381111
	C156	C	0.889767	0.377167	0.680324
	C157	C	0.116619	0.621572	0.679304
	C158	C	0.890044	0.623213	0.320109
	C159	C	0.116897	0.379382	0.321489
	C160	C	0.383132	0.680837	0.888411
	C161	C	0.625343	0.681002	0.113596
	C162	C	0.623529	0.324333	0.888383
	C163	C	0.383052	0.323209	0.114406
	C164	C	0.679336	0.886851	0.382872
	C165	C	0.681807	0.115806	0.622127
	C166	C	0.325009	0.887794	0.621990
	C167	C	0.324945	0.116191	0.381679
	C168	C	0.881174	0.388398	0.179118
	C169	C	0.126380	0.614872	0.179132
	C170	C	0.124093	0.386781	0.822874
	C171	C	0.882539	0.614495	0.820391
	C172	C	0.180774	0.881239	0.388434
	C173	C	0.181929	0.123128	0.614172
	C174	C	0.822615	0.122031	0.389380
	C175	C	0.823352	0.878288	0.614969
	C176	C	0.388169	0.179350	0.883850
	C177	C	0.617668	0.180906	0.122949
	C178	C	0.389445	0.823236	0.121946
	C179	C	0.617726	0.826649	0.882631
	C180	C	0.389558	0.879518	0.180808
	C181	C	0.616760	0.124668	0.182525
	C182	C	0.389120	0.124526	0.823436
	C183	C	0.616498	0.882514	0.823000
	C184	C	0.880382	0.180439	0.389031
	C185	C	0.123578	0.180484	0.614070
	C186	C	0.122313	0.823213	0.388282
	C187	C	0.881568	0.820138	0.614980
	C188	C	0.180868	0.386803	0.881229
	C189	C	0.181992	0.615451	0.119954
	C190	C	0.825352	0.387740	0.120018
	C191	C	0.826984	0.615918	0.879596
	C192	C	0.405108	0.096162	0.600256
	C193	C	0.598650	0.909050	0.601120
	C194	C	0.599631	0.094478	0.404635
	C195	C	0.404474	0.908323	0.403773
	C196	C	0.602178	0.405149	0.092885
	C197	C	0.603421	0.602955	0.908058
	C198	C	0.405254	0.599558	0.092948
	C199	C	0.404103	0.403318	0.909184
	C200	C	0.096289	0.599072	0.401772
	C201	C	0.909852	0.596460	0.599154
	C202	C	0.096310	0.403502	0.600366
	C203	C	0.910446	0.404126	0.401619
	C204	C	0.907892	0.595253	0.097875
	C205	C	0.100315	0.407647	0.099308
	C206	C	0.100630	0.594499	0.901695
	C207	C	0.904912	0.407463	0.902297
	C208	C	0.102009	0.901121	0.593763
	C209	C	0.100786	0.099335	0.409496
	C210	C	0.905097	0.098506	0.593141
	C211	C	0.902941	0.901330	0.410315
	C212	C	0.596654	0.100904	0.902681
	C213	C	0.410532	0.098888	0.100670
	C214	C	0.596469	0.905313	0.101623
	C215	C	0.410160	0.905661	0.903893
	Zn216	Zn	0.502254	0.003348	0.751821
	Zn217	Zn	0.502648	0.001489	0.252810
	Zn218	Zn	0.755114	0.502338	0.000329
	Zn219	Zn	0.252111	0.501196	0.000676
	Zn220	Zn	0.002348	0.749189	0.501391
	Zn221	Zn	0.002628	0.252012	0.500652
	Zn222	Zn	0.003088	0.499989	0.750806
	Zn223	Zn	0.003724	0.501127	0.249901
	Zn224	Zn	0.503608	0.753752	0.001752
	Zn225	Zn	0.503812	0.251774	0.001693
	Zn226	Zn	0.751518	0.000712	0.502539
	Zn227	Zn	0.253330	0.001929	0.501805
	N228	N	0.414956	0.966496	0.682534
	N229	N	0.589337	0.039397	0.681537
	N230	N	0.589677	0.965133	0.322380
	N231	N	0.414816	0.037917	0.321568
	N232	N	0.682058	0.417454	0.963996
	N233	N	0.685452	0.590245	0.036221
	N234	N	0.323738	0.587967	0.964360
	N235	N	0.322606	0.414441	0.037664
	N236	N	0.964975	0.677860	0.416320
	N237	N	0.040735	0.676954	0.584931
	N238	N	0.965510	0.323078	0.585360
	N239	N	0.040801	0.324036	0.416340
	N240	N	0.966931	0.411878	0.682087
	N241	N	0.039434	0.587087	0.680693
	N242	N	0.967383	0.589264	0.318897
	N243	N	0.040109	0.414285	0.320306
	N244	N	0.418252	0.681113	0.964377
	N245	N	0.590208	0.682054	0.037806
	N246	N	0.589726	0.323495	0.964608
	N247	N	0.417515	0.323025	0.038345
	N248	N	0.678898	0.963369	0.418467
	N249	N	0.681099	0.038747	0.587844
	N250	N	0.325177	0.964498	0.586687
	N251	N	0.325083	0.039594	0.416964
	N252	N	0.916330	0.465550	0.180114
	N253	N	0.091613	0.537475	0.180685
	N254	N	0.089576	0.463874	0.821534
	N255	N	0.916023	0.536912	0.819798
	N256	N	0.182405	0.915072	0.464892
	N257	N	0.182389	0.088093	0.538315
	N258	N	0.822849	0.086747	0.465394
	N259	N	0.822244	0.913446	0.539099
	N260	N	0.465123	0.179340	0.918244
	N261	N	0.541141	0.180239	0.087316
	N262	N	0.466259	0.823867	0.087601
	N263	N	0.541272	0.826396	0.917764
	N264	N	0.466589	0.914564	0.182391
	N265	N	0.539633	0.089703	0.183469
	N266	N	0.466767	0.091214	0.820999
	N267	N	0.539194	0.916451	0.821692
	N268	N	0.915800	0.180715	0.464661
	N269	N	0.088616	0.180702	0.538017
	N270	N	0.087959	0.821917	0.464321
	N271	N	0.915836	0.819623	0.538926
	N272	N	0.181007	0.464035	0.915540
	N273	N	0.180797	0.538701	0.085038
	N274	N	0.826152	0.464743	0.085120
	N275	N	0.826593	0.539224	0.915182
	O276	O	0.003636	-0.069990	-0.124705
	H277	H	-0.002125	-0.072521	-0.130183
	H278	H	0.014607	-0.069142	-0.121045
	O279	O	0.684544	0.575642	0.532487
	H280	H	0.678610	0.581225	0.559062
	H281	H	0.694801	0.589130	0.536328
	O282	O	1.600791	0.547856	0.653845
	H283	H	1.615642	0.536002	0.658412
	H284	H	1.584048	0.546372	0.662410
	O285	O	-0.323284	0.628985	0.187799
	H286	H	-0.315203	0.635327	0.189378
	H287	H	-0.324115	0.629631	0.203879
	O288	O	0.489143	0.410730	0.386779
	H289	H	0.495512	0.403106	0.394221
	H290	H	0.493111	0.413905	0.395235
	O291	O	0.581028	0.456797	0.454221
	H292	H	0.585767	0.444701	0.460664
	H293	H	0.566827	0.452898	0.456283
	O294	O	0.954108	0.986730	1.053892
	H295	H	0.945891	0.991284	1.058317
	H296	H	0.935273	0.990663	1.057806
	O297	O	-0.008764	-0.111420	-0.045254
	H298	H	-0.008245	-0.108563	-0.041105
	H299	H	-0.004294	-0.122524	-0.044910
	O300	O	0.381530	0.417017	0.659078
	H301	H	0.388252	0.413061	0.665401
	H302	H	0.364294	0.424818	0.653015
	O303	O	0.041605	0.969906	1.036507
	H304	H	0.047227	0.980061	1.030928
	H305	H	0.042824	0.971184	1.041889
	O306	O	0.517787	0.580882	0.352541
	H307	H	0.524371	0.570088	0.354356
	H308	H	0.532854	0.570758	0.356375
	O309	O	0.928246	0.082882	-0.009656
	H310	H	0.921328	0.075815	-0.012244
	H311	H	0.928005	0.090823	-0.015435
	O312	O	-0.095399	-0.020450	1.167444
	H313	H	-0.097650	-0.025239	1.172921
	H314	H	-0.100220	-0.031075	1.164628
	O315	O	0.260910	0.678744	0.146010
	H316	H	0.259414	0.673974	0.150473
	H317	H	0.249921	0.687178	0.147518
	O318	O	0.462898	0.517382	0.473830
	H319	H	0.453704	0.522593	0.467071
	H320	H	0.458408	0.526310	0.465431
	O321	O	0.349927	0.550676	0.550350
	H322	H	0.356296	0.550736	0.547481
	H323	H	0.334596	0.556583	0.541924
	O324	O	0.356932	0.510404	0.527379
	H325	H	0.348536	0.515079	0.523944
	H326	H	0.359395	0.514529	0.523052
	O327	O	0.160536	0.785448	0.735593
	H328	H	0.165984	0.765407	0.736278
	H329	H	0.163910	0.782613	0.726884
	O330	O	0.509512	0.556010	0.566317
	H331	H	0.514534	0.541643	0.573770
	H332	H	0.526677	0.569760	0.574159
	O333	O	0.118661	0.997524	0.920017
	H334	H	0.122334	0.991432	0.916645
	H335	H	0.114674	0.998904	0.932678
	O336	O	1.013998	1.098567	1.039492
	H337	H	1.019724	1.102161	1.043422
	H338	H	1.010041	1.104875	1.033540
	O339	O	0.433200	0.688688	0.449699
	H340	H	0.431792	0.698183	0.438723
	H341	H	0.450396	0.686745	0.439837
	O342	O	1.100074	0.080253	0.109149
	H343	H	1.100632	0.091790	0.116265
	H344	H	1.109001	0.095050	0.097217
	O345	O	0.510325	0.607225	0.525503
	H346	H	0.510915	0.610266	0.522672
	H347	H	0.520086	0.604750	0.514153
	O348	O	1.122309	1.026461	1.095983
	H349	H	1.115263	1.033590	1.098377
	H350	H	1.112005	1.024597	1.083444
	O351	O	0.975242	1.016973	0.059789
	H352	H	0.971399	1.017478	0.056670
	H353	H	0.982913	1.028638	0.067831
	O354	O	0.506676	0.445747	0.437156
	H355	H	0.500125	0.451113	0.440039
	H356	H	0.501849	0.445176	0.445940
	O357	O	-0.072794	0.013806	0.055670
	H358	H	-0.072734	0.013922	0.059721
	H359	H	-0.083798	0.008819	0.054278
	O360	O	-0.052325	0.132393	0.022982
	H361	H	-0.054022	0.130667	0.009170
	H362	H	-0.057102	0.129738	0.018272
	O363	O	0.597414	0.420688	0.428164
	H364	H	0.600646	0.418329	0.420123
	H365	H	0.594197	0.419715	0.408516
	O366	O	-0.023390	-0.033831	-0.025398
	H367	H	-0.013348	-0.042070	-0.046335
	H368	H	-0.022526	-0.025875	-0.015433
	O369	O	0.559312	0.505116	0.497954
	H370	H	0.569349	0.508264	0.501591
	H371	H	0.551254	0.502351	0.506361
	O372	O	0.527395	0.369926	0.434855
	H373	H	0.533632	0.362842	0.428831
	H374	H	0.529380	0.365289	0.441509
	O375	O	0.439321	0.359715	0.543585
	H376	H	0.437194	0.345080	0.553107
	H377	H	0.425387	0.362669	0.545294
	O378	O	0.641927	0.428068	0.466485
	H379	H	0.646561	0.431916	0.464863
	H380	H	0.634340	0.422519	0.456301
	O381	O	0.538793	0.491337	0.586230
	H382	H	0.531218	0.492286	0.591141
	H383	H	0.528109	0.490187	0.572447
	O384	O	-0.101540	0.986580	-0.053122
	H385	H	-0.105501	0.972455	-0.044502
	H386	H	-0.095295	0.995020	-0.037006
	O387	O	1.111023	-0.031476	0.884004
	H388	H	1.108416	-0.040896	0.871101
	H389	H	1.106687	-0.042594	0.892267
	O390	O	-0.012204	1.093318	0.046312
	H391	H	-0.017660	1.102461	0.034158
	H392	H	0.002407	1.102252	0.037377
	O393	O	1.126686	0.940586	-0.099138
	H394	H	1.125672	0.933427	-0.108573
	H395	H	1.125986	0.930149	-0.100609
	O396	O	0.605812	0.595178	0.677522
	H397	H	0.597598	0.609864	0.679719
	H398	H	0.614522	0.598499	0.683227
	O399	O	0.019805	1.053673	0.917256
	H400	H	0.019771	1.041213	0.903427
	H401	H	0.028413	1.047913	0.919351
	O402	O	0.904613	0.830942	1.179075
	H403	H	0.925190	0.846019	1.171192
	H404	H	0.906220	0.816364	1.202149
	O405	O	0.345531	0.653397	0.387647
	H406	H	0.343121	0.667460	0.375451
	H407	H	0.345456	0.655936	0.380895
