data_Molecule from HDF5

_cell_length_a		16.348204
_cell_length_b		16.355962
_cell_length_c		16.307316
_cell_angle_alpha	90.219987
_cell_angle_beta	90.314127
_cell_angle_gamma	90.037897
_symmetry_space_group_name_H-M	'P 1'
_symmetry_Int_Tables_number		1

loop_
	_symmetry_equiv_pos_as_xyz
	x,y,z

loop_
	_atom_site_label
	_atom_site_type_symbol
	_atom_site_fract_x
	_atom_site_fract_y
	_atom_site_fract_z
	H0	H	0.397437	0.832503	0.713145
	H1	H	0.597803	0.156839	0.715293
	H2	H	0.595639	0.833596	0.279287
	H3	H	0.393025	0.157660	0.279723
	H4	H	0.713446	0.394204	0.837823
	H5	H	0.718284	0.600854	0.160136
	H6	H	0.278605	0.594647	0.837286
	H7	H	0.281485	0.394479	0.161526
	H8	H	0.834855	0.711324	0.396202
	H9	H	0.157550	0.714137	0.604149
	H10	H	0.835314	0.277558	0.600678
	H11	H	0.158401	0.277976	0.400281
	H12	H	0.834385	0.395288	0.714121
	H13	H	0.158198	0.596062	0.717963
	H14	H	0.835189	0.595262	0.280750
	H15	H	0.158147	0.393076	0.283276
	H16	H	0.393908	0.710556	0.836241
	H17	H	0.599546	0.714722	0.160727
	H18	H	0.597249	0.278493	0.836639
	H19	H	0.395913	0.277072	0.159864
	H20	H	0.713064	0.833210	0.395071
	H21	H	0.714424	0.156723	0.599084
	H22	H	0.278204	0.833814	0.598876
	H23	H	0.277639	0.157332	0.396884
	H24	H	0.897043	0.332642	0.214647
	H25	H	0.098910	0.656942	0.219813
	H26	H	0.095866	0.333099	0.783086
	H27	H	0.894355	0.656004	0.781068
	H28	H	0.210240	0.895411	0.334723
	H29	H	0.215211	0.096998	0.660018
	H30	H	0.779122	0.094900	0.335026
	H31	H	0.781704	0.897098	0.659798
	H32	H	0.336224	0.212375	0.894442
	H33	H	0.657795	0.212578	0.101511
	H34	H	0.334614	0.777863	0.099058
	H35	H	0.659042	0.777142	0.899333
	H36	H	0.333454	0.895623	0.213136
	H37	H	0.657421	0.098195	0.218046
	H38	H	0.335746	0.093550	0.780967
	H39	H	0.659853	0.893803	0.783576
	H40	H	0.893104	0.212590	0.336458
	H41	H	0.095569	0.209954	0.661869
	H42	H	0.096692	0.776587	0.335964
	H43	H	0.896008	0.779537	0.660614
	H44	H	0.212528	0.332874	0.899306
	H45	H	0.215534	0.657773	0.103620
	H46	H	0.777705	0.334016	0.101315
	H47	H	0.778818	0.656198	0.898111
	H48	H	0.402020	0.112521	0.595447
	H49	H	0.589576	0.882324	0.581039
	H50	H	0.583518	0.105830	0.416680
	H51	H	0.398141	0.878173	0.399837
	H52	H	0.586189	0.395535	0.117031
	H53	H	0.592702	0.594838	0.879586
	H54	H	0.404488	0.585602	0.114749
	H55	H	0.403653	0.399600	0.882456
	H56	H	0.107853	0.578469	0.412341
	H57	H	0.883054	0.592012	0.581431
	H58	H	0.113377	0.404157	0.596800
	H59	H	0.879261	0.400754	0.401224
	H60	H	0.113304	0.397718	0.591252
	H61	H	0.885241	0.576999	0.590594
	H62	H	0.112840	0.585912	0.404176
	H63	H	0.881838	0.399150	0.411359
	H64	H	0.409318	0.586377	0.112807
	H65	H	0.592900	0.574026	0.886361
	H66	H	0.596046	0.408481	0.115848
	H67	H	0.400964	0.405579	0.882916
	H68	H	0.596205	0.112343	0.407535
	H69	H	0.598248	0.875387	0.593784
	H70	H	0.413363	0.107855	0.590289
	H71	H	0.413262	0.882893	0.402939
	H72	H	0.915805	0.602551	0.080234
	H73	H	0.086090	0.380940	0.095656
	H74	H	0.087066	0.608875	0.914838
	H75	H	0.907684	0.382671	0.912418
	H76	H	0.082144	0.907152	0.610063
	H77	H	0.082294	0.075896	0.387859
	H78	H	0.904146	0.090481	0.614517
	H79	H	0.891949	0.899432	0.377305
	H80	H	0.614851	0.097645	0.910129
	H81	H	0.382893	0.081792	0.089203
	H82	H	0.610618	0.905150	0.091909
	H83	H	0.380712	0.903650	0.898390
	H84	H	0.610543	0.902834	0.088163
	H85	H	0.379506	0.090420	0.090769
	H86	H	0.608951	0.080396	0.914368
	H87	H	0.381255	0.896009	0.908931
	H88	H	0.903115	0.084016	0.612011
	H89	H	0.079004	0.097124	0.382326
	H90	H	0.087534	0.897679	0.614986
	H91	H	0.908385	0.915067	0.387631
	H92	H	0.092002	0.612200	0.907292
	H93	H	0.087062	0.383399	0.086331
	H94	H	0.892960	0.612068	0.086000
	H95	H	0.896710	0.378262	0.907097
	H96	H	0.401835	0.108184	0.582624
	H97	H	0.582328	0.880257	0.596164
	H98	H	0.580995	0.109810	0.400799
	H99	H	0.402190	0.883894	0.414422
	H100	H	0.581018	0.409436	0.110402
	H101	H	0.574708	0.585799	0.888876
	H102	H	0.406901	0.590536	0.115288
	H103	H	0.406856	0.405320	0.884867
	H104	H	0.111234	0.590121	0.415787
	H105	H	0.877132	0.591217	0.598093
	H106	H	0.110386	0.404955	0.588975
	H107	H	0.883117	0.408890	0.407147
	H108	H	0.911298	0.612112	0.103119
	H109	H	0.094872	0.379937	0.090644
	H110	H	0.083072	0.608882	0.905547
	H111	H	0.907431	0.378893	0.900248
	H112	H	0.093551	0.907737	0.614086
	H113	H	0.098175	0.087360	0.378643
	H114	H	0.908906	0.086436	0.612328
	H115	H	0.915003	0.892055	0.382347
	H116	H	0.614811	0.084209	0.896952
	H117	H	0.382967	0.087839	0.082052
	H118	H	0.609329	0.907065	0.088620
	H119	H	0.384734	0.907978	0.909569
	C120	C	0.375427	0.002876	0.619312
	C121	C	0.619702	0.986259	0.620129
	C122	C	0.616780	0.002847	0.376989
	C123	C	0.374020	0.987947	0.375625
	C124	C	0.617875	0.374279	0.007614
	C125	C	0.618278	0.616473	0.991444
	C126	C	0.375304	0.616875	0.007274
	C127	C	0.374916	0.373504	0.990459
	C128	C	0.004522	0.615297	0.378799
	C129	C	0.988232	0.617041	0.621482
	C130	C	0.005147	0.373231	0.620977
	C131	C	0.988217	0.373004	0.377589
	C132	C	0.875956	0.502955	0.119904
	C133	C	0.119566	0.487887	0.122043
	C134	C	0.117185	0.503148	0.879170
	C135	C	0.873897	0.486408	0.876900
	C136	C	0.117508	0.873370	0.505902
	C137	C	0.117214	0.116631	0.490145
	C138	C	0.874400	0.116739	0.506068
	C139	C	0.875420	0.873225	0.489272
	C140	C	0.505835	0.116488	0.876689
	C141	C	0.488029	0.117108	0.119434
	C142	C	0.503644	0.874653	0.119137
	C143	C	0.488978	0.872386	0.876503
	C144	C	0.376782	0.881138	0.675444
	C145	C	0.618246	0.108192	0.676970
	C146	C	0.615704	0.881783	0.318468
	C147	C	0.373662	0.109311	0.318369
	C148	C	0.674555	0.374624	0.885720
	C149	C	0.677771	0.618773	0.112251
	C150	C	0.317235	0.615031	0.885564
	C151	C	0.319405	0.374409	0.112611
	C152	C	0.883183	0.672427	0.377557
	C153	C	0.109155	0.675003	0.622718
	C154	C	0.883188	0.316808	0.619530
	C155	C	0.109989	0.316325	0.379810
	C156	C	0.882965	0.375168	0.676250
	C157	C	0.109893	0.616293	0.679547
	C158	C	0.883416	0.614890	0.319894
	C159	C	0.109706	0.373514	0.321389
	C160	C	0.374626	0.672567	0.885070
	C161	C	0.618759	0.675303	0.112446
	C162	C	0.617157	0.317100	0.885374
	C163	C	0.376325	0.315987	0.111730
	C164	C	0.673910	0.881503	0.376130
	C165	C	0.676209	0.108080	0.619183
	C166	C	0.317588	0.881801	0.618409
	C167	C	0.316250	0.109149	0.376663
	C168	C	0.876558	0.381314	0.176713
	C169	C	0.118741	0.608980	0.180358
	C170	C	0.115804	0.381476	0.821945
	C171	C	0.874616	0.607782	0.819898
	C172	C	0.173332	0.874240	0.383875
	C173	C	0.175206	0.115880	0.611963
	C174	C	0.817550	0.115081	0.383836
	C175	C	0.819653	0.876041	0.611539
	C176	C	0.384288	0.173330	0.875975
	C177	C	0.609366	0.174444	0.120651
	C178	C	0.382590	0.817039	0.118172
	C179	C	0.610475	0.815401	0.878609
	C180	C	0.381850	0.875891	0.174738
	C181	C	0.609160	0.117098	0.178460
	C182	C	0.384249	0.114601	0.819090
	C183	C	0.611094	0.873465	0.821168
	C184	C	0.874414	0.173614	0.384452
	C185	C	0.116621	0.172808	0.612585
	C186	C	0.116494	0.815658	0.384458
	C187	C	0.876856	0.818121	0.611901
	C188	C	0.174017	0.381523	0.879656
	C189	C	0.176696	0.609287	0.122444
	C190	C	0.817409	0.381982	0.120345
	C191	C	0.817324	0.607774	0.878004
	C192	C	0.398951	0.087449	0.596139
	C193	C	0.596682	0.901363	0.597185
	C194	C	0.593553	0.087541	0.401283
	C195	C	0.397792	0.903435	0.398957
	C196	C	0.594554	0.397687	0.092201
	C197	C	0.593958	0.591894	0.907052
	C198	C	0.399866	0.594198	0.092181
	C199	C	0.397307	0.396772	0.905524
	C200	C	0.088714	0.591714	0.403436
	C201	C	0.903928	0.593360	0.597087
	C202	C	0.090157	0.395685	0.598804
	C203	C	0.903362	0.396103	0.400053
	C204	C	0.899853	0.587008	0.096499
	C205	C	0.096243	0.403372	0.097736
	C206	C	0.094101	0.587845	0.902583
	C207	C	0.897073	0.401757	0.899932
	C208	C	0.094646	0.897310	0.591084
	C209	C	0.093362	0.093397	0.405011
	C210	C	0.898370	0.093574	0.590930
	C211	C	0.898388	0.895671	0.404384
	C212	C	0.590769	0.094015	0.900295
	C213	C	0.403558	0.093379	0.094608
	C214	C	0.588403	0.898220	0.096140
	C215	C	0.404308	0.895834	0.898837
	Zn216	Zn	0.497756	-0.005643	0.748389
	Zn217	Zn	0.495396	-0.003924	0.247503
	Zn218	Zn	0.746504	0.494867	-0.000489
	Zn219	Zn	0.247350	0.495807	-0.000353
	Zn220	Zn	-0.003365	0.744872	0.498842
	Zn221	Zn	-0.004318	0.245253	0.498916
	Zn222	Zn	-0.003677	0.495011	0.749338
	Zn223	Zn	-0.003330	0.494903	0.249602
	Zn224	Zn	0.496231	0.744631	-0.001483
	Zn225	Zn	0.496987	0.245420	-0.001710
	Zn226	Zn	0.747041	-0.005254	0.496997
	Zn227	Zn	0.245604	-0.004861	0.497552
	N228	N	0.411912	0.957386	0.676182
	N229	N	0.583814	0.031457	0.677899
	N230	N	0.580898	0.958265	0.318936
	N231	N	0.408796	0.032962	0.317716
	N232	N	0.675411	0.409194	0.962708
	N233	N	0.677502	0.582806	0.035929
	N234	N	0.317597	0.581129	0.962688
	N235	N	0.318581	0.409600	0.036249
	N236	N	0.959482	0.672908	0.413341
	N237	N	0.032543	0.675619	0.587305
	N238	N	0.960229	0.315141	0.586236
	N239	N	0.033328	0.315871	0.413868
	N240	N	0.959775	0.409468	0.677421
	N241	N	0.033577	0.581035	0.678997
	N242	N	0.959853	0.579777	0.320666
	N243	N	0.033076	0.408066	0.320081
	N244	N	0.410039	0.673846	0.961709
	N245	N	0.582598	0.674124	0.036192
	N246	N	0.582601	0.316891	0.961962
	N247	N	0.410149	0.315223	0.034699
	N248	N	0.674632	0.957895	0.411779
	N249	N	0.677216	0.031316	0.584597
	N250	N	0.316644	0.958549	0.584374
	N251	N	0.316392	0.032682	0.411646
	N252	N	0.912368	0.457474	0.176528
	N253	N	0.083841	0.532542	0.180062
	N254	N	0.081212	0.458038	0.821502
	N255	N	0.909048	0.531242	0.818980
	N256	N	0.174190	0.909362	0.460622
	N257	N	0.175894	0.081926	0.534674
	N258	N	0.817479	0.080610	0.460480
	N259	N	0.818493	0.909450	0.534328
	N260	N	0.460984	0.174780	0.910961
	N261	N	0.533181	0.174593	0.084534
	N262	N	0.459317	0.816411	0.084182
	N263	N	0.533508	0.814587	0.912090
	N264	N	0.458248	0.910958	0.175645
	N265	N	0.532506	0.082135	0.177671
	N266	N	0.460764	0.079927	0.819558
	N267	N	0.534577	0.908306	0.819583
	N268	N	0.908998	0.174802	0.461554
	N269	N	0.080994	0.172964	0.535917
	N270	N	0.082939	0.814881	0.461604
	N271	N	0.910750	0.816170	0.534922
	N272	N	0.174943	0.458153	0.914618
	N273	N	0.177368	0.532934	0.086931
	N274	N	0.816860	0.458421	0.085822
	N275	N	0.816824	0.531292	0.912702
	O276	O	0.031376	-0.017342	-0.046101
	H277	H	0.029221	-0.010813	-0.044342
	H278	H	0.036585	-0.013722	-0.034404
	O279	O	0.353961	0.421717	0.506131
	H280	H	0.354923	0.425294	0.511519
	H281	H	0.350747	0.405475	0.517726
	O282	O	1.330895	0.255506	0.349401
	H283	H	1.334549	0.261862	0.346100
	H284	H	1.339888	0.271481	0.344206
	O285	O	0.096862	1.093267	0.003806
	H286	H	0.100572	1.106534	0.025651
	H287	H	0.097657	1.088431	-0.018784
	O288	O	0.536819	0.591267	0.577314
	H289	H	0.534098	0.592704	0.573471
	H290	H	0.536306	0.582158	0.587525
	O291	O	0.398806	0.311031	0.532364
	H292	H	0.398794	0.298624	0.537671
	H293	H	0.395391	0.311387	0.547183
	O294	O	1.064116	0.999779	0.900483
	H295	H	1.065228	1.004088	0.906883
	H296	H	1.057447	0.996092	0.890885
	O297	O	-0.018360	0.161241	0.016812
	H298	H	-0.013678	0.177079	0.022553
	H299	H	-0.026170	0.162780	0.014833
	O300	O	0.453226	0.446197	0.504352
	H301	H	0.447227	0.445074	0.492056
	H302	H	0.451137	0.442801	0.516224
	O303	O	0.052378	0.893065	0.937328
	H304	H	0.051508	0.900023	0.932715
	H305	H	0.057315	0.879916	0.940086
	O306	O	0.454879	0.561321	0.430089
	H307	H	0.468214	0.560889	0.437634
	H308	H	0.450838	0.568061	0.431936
	O309	O	0.965403	0.030565	-0.015586
	H310	H	0.962354	0.035144	-0.022170
	H311	H	0.962788	0.021204	-0.023225
	O312	O	-0.047900	-0.056120	0.888084
	H313	H	-0.049388	-0.048836	0.877467
	H314	H	-0.044248	-0.051534	0.890260
	O315	O	0.522294	0.521317	0.427173
	H316	H	0.519950	0.527953	0.412374
	H317	H	0.520233	0.529108	0.425069
	O318	O	0.615770	0.513891	0.396782
	H319	H	0.634570	0.518754	0.402467
	H320	H	0.625503	0.516273	0.383029
	O321	O	0.606018	0.580533	0.497598
	H322	H	0.606836	0.592706	0.494497
	H323	H	0.617470	0.585945	0.530060
	O324	O	0.625222	0.434407	0.532016
	H325	H	0.605219	0.432136	0.531399
	H326	H	0.637775	0.430975	0.535833
	O327	O	0.059932	1.053293	1.121705
	H328	H	0.067384	1.038923	1.132408
	H329	H	0.050736	1.064988	1.126705
	O330	O	0.433229	0.397745	0.422910
	H331	H	0.435755	0.385368	0.419255
	H332	H	0.423378	0.397466	0.438727
	O333	O	0.117180	1.098281	0.972399
	H334	H	0.108528	1.095025	0.989910
	H335	H	0.121041	1.104598	0.977073
	O336	O	0.895335	0.996465	0.987387
	H337	H	0.882789	1.000665	0.992079
	H338	H	0.909189	0.988750	0.977860
	O339	O	0.695596	0.460176	0.407451
	H340	H	0.711502	0.458082	0.409384
	H341	H	0.697672	0.461989	0.406050
	O342	O	0.950520	0.079451	-0.051658
	H343	H	0.943791	0.086997	-0.060441
	H344	H	0.959920	0.086176	-0.036762
	O345	O	0.621285	0.493751	0.545425
	H346	H	0.623396	0.490492	0.554139
	H347	H	0.612947	0.490418	0.537201
	O348	O	0.860656	1.020816	0.867335
	H349	H	0.861234	1.006188	0.874718
	H350	H	0.860797	1.020060	0.849678
	O351	O	0.978415	0.963558	0.134168
	H352	H	0.973285	0.970716	0.144026
	H353	H	0.973971	0.950943	0.128083
	O354	O	0.562543	0.552736	0.566664
	H355	H	0.560038	0.560008	0.581887
	H356	H	0.565754	0.556216	0.573560
	O357	O	0.373415	0.316386	0.431108
	H358	H	0.363913	0.316451	0.431695
	H359	H	0.383524	0.317463	0.423763
	O360	O	0.167840	0.002336	-0.017152
	H361	H	0.168787	0.019651	-0.018091
	H362	H	0.171835	0.003234	-0.025710
	O363	O	0.450749	0.510782	0.523507
	H364	H	0.447593	0.510527	0.529353
	H365	H	0.445266	0.512171	0.519012
	O366	O	0.396748	0.477009	0.455946
	H367	H	0.413023	0.481958	0.459134
	H368	H	0.401579	0.480704	0.451467
	O369	O	0.592018	0.634327	0.642455
	H370	H	0.594787	0.643340	0.647976
	H371	H	0.589704	0.622557	0.652456
	O372	O	0.497619	0.360878	0.597486
	H373	H	0.490632	0.363376	0.598249
	H374	H	0.505645	0.363658	0.611672
	O375	O	0.466968	0.654208	0.484678
	H376	H	0.453538	0.659244	0.477386
	H377	H	0.468403	0.639892	0.476367
	O378	O	0.577614	0.389952	0.443226
	H379	H	0.570595	0.387902	0.442745
	H380	H	0.570486	0.403089	0.444199
	O381	O	0.372712	0.572379	0.363232
	H382	H	0.355792	0.561909	0.366209
	H383	H	0.387854	0.572408	0.343231
	O384	O	0.005360	0.899971	-0.041195
	H385	H	0.026456	0.906288	-0.034248
	H386	H	0.004769	0.884528	-0.041559
	O387	O	0.963069	0.017794	1.008801
	H388	H	0.946870	0.011448	1.003902
	H389	H	0.968187	0.035848	1.015819
	O390	O	0.034892	0.903505	-0.044982
	H391	H	0.039508	0.901617	-0.035375
	H392	H	0.034180	0.906392	-0.056991
	O393	O	1.039373	1.061722	0.012320
	H394	H	1.033057	1.074561	0.022284
	H395	H	1.045660	1.050005	0.017983
	O396	O	0.321903	0.649820	0.398582
	H397	H	0.320521	0.648542	0.398157
	H398	H	0.319240	0.646227	0.376851
	O399	O	-0.068135	0.962850	1.035236
	H400	H	-0.076419	0.952795	1.039149
	H401	H	-0.065271	0.956925	1.029707
	O402	O	0.855580	0.940121	0.934170
	H403	H	0.847725	0.927188	0.931166
	H404	H	0.866113	0.941168	0.931643
	O405	O	0.518405	0.598509	0.653426
	H406	H	0.527081	0.605503	0.656961
	H407	H	0.501670	0.607535	0.650472
