data_Molecule from HDF5

_cell_length_a		16.254149
_cell_length_b		16.209390
_cell_length_c		16.346454
_cell_angle_alpha	90.152512
_cell_angle_beta	90.500417
_cell_angle_gamma	90.696115
_symmetry_space_group_name_H-M	'P 1'
_symmetry_Int_Tables_number		1

loop_
	_symmetry_equiv_pos_as_xyz
	x,y,z

loop_
	_atom_site_label
	_atom_site_type_symbol
	_atom_site_fract_x
	_atom_site_fract_y
	_atom_site_fract_z
	H0	H	0.406489	0.839164	0.710443
	H1	H	0.609294	0.168002	0.714454
	H2	H	0.602198	0.839508	0.283169
	H3	H	0.408096	0.167913	0.283085
	H4	H	0.716062	0.406030	0.832298
	H5	H	0.725414	0.605026	0.158315
	H6	H	0.290728	0.600227	0.833391
	H7	H	0.289203	0.403628	0.158852
	H8	H	0.839598	0.712963	0.396647
	H9	H	0.168786	0.720246	0.594603
	H10	H	0.841884	0.286496	0.591779
	H11	H	0.170538	0.291887	0.398235
	H12	H	0.841502	0.402387	0.709043
	H13	H	0.168984	0.606101	0.712330
	H14	H	0.842634	0.601107	0.277321
	H15	H	0.168389	0.404217	0.279680
	H16	H	0.408106	0.716757	0.833427
	H17	H	0.608090	0.719402	0.160148
	H18	H	0.600605	0.287906	0.833504
	H19	H	0.406441	0.289639	0.160736
	H20	H	0.713640	0.837319	0.401682
	H21	H	0.723797	0.166916	0.598420
	H22	H	0.289763	0.839340	0.595280
	H23	H	0.294126	0.168269	0.399072
	H24	H	0.903390	0.339179	0.209559
	H25	H	0.109354	0.666663	0.212967
	H26	H	0.102624	0.339713	0.780405
	H27	H	0.907909	0.667511	0.779954
	H28	H	0.217541	0.905976	0.333264
	H29	H	0.223841	0.104390	0.659798
	H30	H	0.789390	0.100190	0.334000
	H31	H	0.791659	0.902494	0.661208
	H32	H	0.339590	0.212547	0.899692
	H33	H	0.667998	0.222082	0.097960
	H34	H	0.342829	0.786536	0.093926
	H35	H	0.670924	0.794312	0.903321
	H36	H	0.341688	0.902336	0.210411
	H37	H	0.668580	0.106842	0.214946
	H38	H	0.342980	0.102437	0.779606
	H39	H	0.669800	0.905409	0.783936
	H40	H	0.909234	0.213883	0.332081
	H41	H	0.107790	0.220884	0.659240
	H42	H	0.100259	0.790842	0.332434
	H43	H	0.908155	0.787620	0.660446
	H44	H	0.214673	0.338187	0.898759
	H45	H	0.222687	0.667283	0.095785
	H46	H	0.788821	0.340001	0.092586
	H47	H	0.793650	0.668735	0.896597
	H48	H	0.418226	0.117692	0.584632
	H49	H	0.588996	0.889861	0.588048
	H50	H	0.595942	0.121130	0.400367
	H51	H	0.414180	0.885946	0.398319
	H52	H	0.598769	0.410325	0.112502
	H53	H	0.605886	0.598779	0.877614
	H54	H	0.421086	0.588964	0.108781
	H55	H	0.409342	0.400391	0.878392
	H56	H	0.120894	0.590367	0.401607
	H57	H	0.891032	0.590976	0.583831
	H58	H	0.122023	0.418105	0.591737
	H59	H	0.891524	0.419426	0.399823
	H60	H	0.123916	0.409707	0.591597
	H61	H	0.887490	0.592055	0.593463
	H62	H	0.124767	0.603300	0.399275
	H63	H	0.885238	0.403051	0.393264
	H64	H	0.415827	0.605521	0.114628
	H65	H	0.595822	0.593771	0.882382
	H66	H	0.600552	0.415873	0.111766
	H67	H	0.403163	0.412208	0.879853
	H68	H	0.594355	0.117114	0.412301
	H69	H	0.607515	0.885315	0.587489
	H70	H	0.410337	0.122258	0.591359
	H71	H	0.412081	0.888051	0.408523
	H72	H	0.918699	0.620698	0.090974
	H73	H	0.093123	0.388674	0.084926
	H74	H	0.099358	0.620198	0.904886
	H75	H	0.907149	0.384956	0.896748
	H76	H	0.101748	0.914561	0.612660
	H77	H	0.096208	0.100594	0.381334
	H78	H	0.919168	0.087717	0.609493
	H79	H	0.908538	0.911150	0.381305
	H80	H	0.621414	0.093054	0.902211
	H81	H	0.393846	0.092329	0.074945
	H82	H	0.619979	0.911612	0.081579
	H83	H	0.389566	0.909273	0.901771
	H84	H	0.620705	0.924829	0.097057
	H85	H	0.389387	0.081060	0.101983
	H86	H	0.624522	0.103915	0.904453
	H87	H	0.389487	0.909419	0.904059
	H88	H	0.921487	0.103981	0.612984
	H89	H	0.105094	0.099362	0.378545
	H90	H	0.094666	0.912172	0.611161
	H91	H	0.910758	0.906906	0.381405
	H92	H	0.100245	0.620833	0.902980
	H93	H	0.100945	0.384982	0.087647
	H94	H	0.918573	0.618457	0.085498
	H95	H	0.914892	0.388172	0.901348
	H96	H	0.420857	0.120583	0.595794
	H97	H	0.596922	0.882705	0.603934
	H98	H	0.605426	0.121833	0.409206
	H99	H	0.404202	0.884696	0.402599
	H100	H	0.595062	0.414612	0.110636
	H101	H	0.596176	0.606095	0.879316
	H102	H	0.404348	0.591620	0.113913
	H103	H	0.415998	0.411116	0.883233
	H104	H	0.119759	0.599667	0.411677
	H105	H	0.887224	0.600214	0.587299
	H106	H	0.120112	0.413805	0.584670
	H107	H	0.890637	0.403710	0.411344
	H108	H	0.913820	0.621041	0.087292
	H109	H	0.094215	0.385868	0.093221
	H110	H	0.097411	0.620604	0.902715
	H111	H	0.906825	0.387093	0.906097
	H112	H	0.100357	0.907697	0.613420
	H113	H	0.099946	0.091679	0.381921
	H114	H	0.906683	0.096294	0.614618
	H115	H	0.905343	0.907170	0.380620
	H116	H	0.620143	0.097054	0.913132
	H117	H	0.382101	0.110020	0.097028
	H118	H	0.627221	0.904852	0.099919
	H119	H	0.388850	0.910760	0.903341
	C120	C	0.385943	0.011740	0.618468
	C121	C	0.628435	0.994612	0.621835
	C122	C	0.625943	0.011768	0.378003
	C123	C	0.383451	0.995096	0.375352
	C124	C	0.625427	0.383772	0.004086
	C125	C	0.629309	0.627510	0.987710
	C126	C	0.384900	0.623778	0.004787
	C127	C	0.381474	0.379924	0.988384
	C128	C	0.013199	0.624788	0.374356
	C129	C	0.996800	0.624880	0.617497
	C130	C	0.014074	0.382776	0.617171
	C131	C	0.997351	0.381572	0.373570
	C132	C	0.885591	0.511750	0.116135
	C133	C	0.127349	0.494600	0.118092
	C134	C	0.126207	0.511815	0.875055
	C135	C	0.882837	0.495191	0.872828
	C136	C	0.125955	0.882765	0.504578
	C137	C	0.129607	0.126580	0.488415
	C138	C	0.885544	0.123906	0.504686
	C139	C	0.881880	0.879642	0.489045
	C140	C	0.513326	0.124832	0.876918
	C141	C	0.496475	0.125590	0.120245
	C142	C	0.514463	0.882540	0.120062
	C143	C	0.497901	0.882524	0.876036
	C144	C	0.386615	0.888080	0.672873
	C145	C	0.628737	0.118596	0.676892
	C146	C	0.622662	0.888334	0.321477
	C147	C	0.387331	0.118924	0.320857
	C148	C	0.678787	0.385436	0.881277
	C149	C	0.686803	0.625266	0.109962
	C150	C	0.329009	0.621237	0.881976
	C151	C	0.326720	0.382979	0.110555
	C152	C	0.889537	0.677252	0.375843
	C153	C	0.120124	0.681686	0.615295
	C154	C	0.890651	0.325211	0.613065
	C155	C	0.121139	0.328348	0.377113
	C156	C	0.890519	0.382464	0.671367
	C157	C	0.119881	0.625294	0.674162
	C158	C	0.890770	0.621130	0.316998
	C159	C	0.120234	0.384315	0.318366
	C160	C	0.387197	0.679311	0.882212
	C161	C	0.628265	0.682009	0.110942
	C162	C	0.621454	0.326625	0.881959
	C163	C	0.384857	0.325986	0.111470
	C164	C	0.677629	0.887021	0.381133
	C165	C	0.685756	0.117962	0.619212
	C166	C	0.328575	0.888315	0.615527
	C167	C	0.330946	0.119188	0.378675
	C168	C	0.884895	0.388271	0.171308
	C169	C	0.127784	0.617801	0.174252
	C170	C	0.123081	0.388468	0.818826
	C171	C	0.886950	0.618845	0.817979
	C172	C	0.179910	0.885429	0.381858
	C173	C	0.185939	0.124932	0.610895
	C174	C	0.828192	0.120796	0.382554
	C175	C	0.828896	0.882269	0.612168
	C176	C	0.389494	0.177061	0.878707
	C177	C	0.619329	0.183299	0.118251
	C178	C	0.391498	0.825082	0.115343
	C179	C	0.621746	0.830114	0.881140
	C180	C	0.391015	0.882353	0.173423
	C181	C	0.619381	0.126193	0.176790
	C182	C	0.391073	0.122051	0.819167
	C183	C	0.621183	0.885877	0.822150
	C184	C	0.887744	0.177487	0.381355
	C185	C	0.128368	0.182973	0.610516
	C186	C	0.121355	0.828311	0.381416
	C187	C	0.886744	0.824938	0.611819
	C188	C	0.178667	0.387671	0.877999
	C189	C	0.184434	0.618197	0.116235
	C190	C	0.827847	0.388560	0.113353
	C191	C	0.830236	0.619280	0.876018
	C192	C	0.409638	0.097889	0.596940
	C193	C	0.604694	0.908404	0.599685
	C194	C	0.604713	0.097564	0.400472
	C195	C	0.404022	0.908707	0.396817
	C196	C	0.604434	0.406961	0.089666
	C197	C	0.606175	0.605704	0.902016
	C198	C	0.407179	0.601809	0.090183
	C199	C	0.403047	0.401569	0.902685
	C200	C	0.099398	0.603928	0.397378
	C201	C	0.910832	0.601208	0.594888
	C202	C	0.099731	0.406871	0.595762
	C203	C	0.911418	0.402407	0.395108
	C204	C	0.909868	0.597801	0.094350
	C205	C	0.103270	0.408566	0.095212
	C206	C	0.105193	0.598067	0.897097
	C207	C	0.903621	0.409080	0.894922
	C208	C	0.104994	0.904974	0.590265
	C209	C	0.106921	0.103839	0.402828
	C210	C	0.908891	0.102232	0.590338
	C211	C	0.902276	0.901795	0.403197
	C212	C	0.599743	0.104237	0.899860
	C213	C	0.410453	0.101414	0.097886
	C214	C	0.600362	0.906801	0.099123
	C215	C	0.411614	0.903660	0.896833
	Zn216	Zn	0.506476	0.004006	0.748272
	Zn217	Zn	0.505154	0.003552	0.248572
	Zn218	Zn	0.756505	0.504582	-0.004605
	Zn219	Zn	0.254409	0.502894	-0.003424
	Zn220	Zn	0.004484	0.752736	0.496072
	Zn221	Zn	0.006934	0.254207	0.495275
	Zn222	Zn	0.005079	0.503449	0.746193
	Zn223	Zn	0.005924	0.502968	0.245677
	Zn224	Zn	0.506673	0.754382	-0.002735
	Zn225	Zn	0.503551	0.252955	-0.002558
	Zn226	Zn	0.754685	0.002347	0.498565
	Zn227	Zn	0.256591	0.003668	0.496865
	N228	N	0.421731	0.965743	0.674712
	N229	N	0.593701	0.041021	0.678471
	N230	N	0.591258	0.966783	0.319214
	N231	N	0.419167	0.040568	0.318442
	N232	N	0.681464	0.420023	0.958182
	N233	N	0.687484	0.592170	0.032349
	N234	N	0.327509	0.587525	0.958988
	N235	N	0.324684	0.415795	0.033080
	N236	N	0.966697	0.679533	0.410910
	N237	N	0.042678	0.681610	0.580949
	N238	N	0.968413	0.325137	0.580065
	N239	N	0.043783	0.326786	0.410823
	N240	N	0.968154	0.417113	0.674217
	N241	N	0.042071	0.590611	0.675585
	N242	N	0.969014	0.589573	0.315550
	N243	N	0.042488	0.416886	0.316202
	N244	N	0.421378	0.680920	0.959668
	N245	N	0.593454	0.683701	0.033986
	N246	N	0.589057	0.325420	0.959492
	N247	N	0.417925	0.323867	0.034411
	N248	N	0.679959	0.964661	0.415458
	N249	N	0.686002	0.039830	0.585933
	N250	N	0.327914	0.966212	0.582381
	N251	N	0.328287	0.041291	0.411787
	N252	N	0.920084	0.466025	0.173323
	N253	N	0.093017	0.539866	0.175587
	N254	N	0.091193	0.466604	0.817120
	N255	N	0.919067	0.540841	0.815942
	N256	N	0.183143	0.918575	0.459467
	N257	N	0.186785	0.090677	0.533718
	N258	N	0.826646	0.088429	0.460360
	N259	N	0.825623	0.915431	0.534828
	N260	N	0.466570	0.178907	0.913748
	N261	N	0.541813	0.183035	0.083878
	N262	N	0.469392	0.825002	0.083128
	N263	N	0.544214	0.828181	0.914107
	N264	N	0.468477	0.917385	0.176399
	N265	N	0.541798	0.091100	0.178103
	N266	N	0.469291	0.090323	0.817976
	N267	N	0.543089	0.917802	0.818907
	N268	N	0.922854	0.179375	0.458343
	N269	N	0.094430	0.184335	0.533235
	N270	N	0.088757	0.826370	0.458814
	N271	N	0.919078	0.823361	0.534246
	N272	N	0.180944	0.465372	0.912089
	N273	N	0.184360	0.540531	0.082290
	N274	N	0.828276	0.466304	0.079804
	N275	N	0.827323	0.541420	0.909281
	O276	O	-0.043066	-0.012421	0.012301
	H277	H	-0.037548	-0.003211	0.006360
	H278	H	-0.045500	-0.017690	0.015079
	O279	O	0.459218	0.488805	0.473868
	H280	H	0.455883	0.482055	0.485587
	H281	H	0.461924	0.493276	0.473448
	O282	O	0.472208	0.471105	0.440631
	H283	H	0.476491	0.469575	0.437269
	H284	H	0.471440	0.458738	0.439383
	O285	O	0.967821	-0.014345	0.957404
	H286	H	0.953277	-0.019219	0.967774
	H287	H	0.971731	-0.021020	0.940470
	O288	O	1.001294	0.000911	-0.040847
	H289	H	1.015766	0.001922	-0.037517
	H290	H	0.998760	0.000346	-0.046042
	O291	O	0.492958	0.441820	0.478603
	H292	H	0.494819	0.437953	0.477709
	H293	H	0.498473	0.437799	0.474603
	O294	O	1.018506	0.056889	1.044522
	H295	H	1.009834	0.056432	1.039675
	H296	H	1.014325	0.073608	1.056794
	O297	O	-0.061457	0.047144	0.002488
	H298	H	-0.058647	0.055193	0.006463
	H299	H	-0.062372	0.041069	0.007356
	O300	O	0.536543	0.576246	0.542576
	H301	H	0.521064	0.582993	0.552558
	H302	H	0.542958	0.581178	0.541565
	O303	O	0.564892	0.439501	0.470328
	H304	H	0.568903	0.455601	0.471889
	H305	H	0.563773	0.435832	0.467443
	O306	O	1.019173	-0.002812	-0.028785
	H307	H	1.016789	-0.005320	-0.030059
	H308	H	1.008842	-0.008764	-0.032463
	O309	O	0.068561	0.055507	1.051987
	H310	H	0.070694	0.046554	1.040734
	H311	H	0.077104	0.051958	1.044296
	O312	O	0.997024	0.993937	0.998153
	H313	H	0.992267	0.993378	0.992064
	H314	H	1.000399	0.990999	0.999066
	O315	O	0.518520	0.576113	0.569449
	H316	H	0.513240	0.576972	0.577127
	H317	H	0.526112	0.581639	0.568348
	O318	O	0.419189	0.511129	0.513164
	H319	H	0.410678	0.506962	0.497157
	H320	H	0.413515	0.505737	0.523169
	O321	O	-0.026476	1.034692	0.971855
	H322	H	-0.019325	1.042712	0.975872
	H323	H	-0.032545	1.039447	0.978450
	O324	O	0.441702	0.545956	0.451256
	H325	H	0.454914	0.540632	0.439713
	H326	H	0.424486	0.538657	0.457120
	O327	O	0.589334	0.567429	0.485749
	H328	H	0.583091	0.575923	0.486273
	H329	H	0.589655	0.567680	0.493597
	O330	O	0.566762	0.544116	0.522760
	H331	H	0.560738	0.551601	0.527913
	H332	H	0.564791	0.532166	0.535430
	O333	O	0.478865	0.481194	0.556931
	H334	H	0.478762	0.471881	0.565309
	H335	H	0.483923	0.473295	0.559250
	O336	O	0.510398	0.409363	0.451881
	H337	H	0.509377	0.424979	0.453231
	H338	H	0.522322	0.405659	0.459780
	O339	O	1.025073	0.964080	0.097577
	H340	H	1.039058	0.964049	0.109660
	H341	H	1.014375	0.961145	0.096132
	O342	O	0.447494	0.449868	0.589608
	H343	H	0.444190	0.446406	0.586562
	H344	H	0.448355	0.446076	0.577718
	O345	O	0.513427	0.563492	0.400918
	H346	H	0.512601	0.565635	0.394828
	H347	H	0.513531	0.573270	0.395472
	O348	O	-0.055957	0.017396	-0.098341
	H349	H	-0.050545	0.019401	-0.103463
	H350	H	-0.065834	0.012941	-0.106774
	O351	O	0.009451	0.989773	1.038795
	H352	H	0.017852	0.989230	1.045851
	H353	H	0.013034	0.982182	1.038837
	O354	O	0.500782	0.528262	0.468931
	H355	H	0.504764	0.534449	0.463374
	H356	H	0.506285	0.527410	0.468285
	O357	O	0.078033	1.064582	1.015067
	H358	H	0.083163	1.079030	1.017092
	H359	H	0.073247	1.074238	1.027062
