data_Molecule from HDF5

_cell_length_a		16.517887
_cell_length_b		16.472453
_cell_length_c		16.404551
_cell_angle_alpha	90.026569
_cell_angle_beta	90.013256
_cell_angle_gamma	90.007803
_symmetry_space_group_name_H-M	'P 1'
_symmetry_Int_Tables_number		1

loop_
	_symmetry_equiv_pos_as_xyz
	x,y,z

loop_
	_atom_site_label
	_atom_site_type_symbol
	_atom_site_fract_x
	_atom_site_fract_y
	_atom_site_fract_z
	H0	H	0.401954	0.847559	0.722903
	H1	H	0.607870	0.166837	0.726322
	H2	H	0.609310	0.849493	0.283973
	H3	H	0.396038	0.164286	0.280562
	H4	H	0.726283	0.399144	0.848949
	H5	H	0.722474	0.609519	0.165865
	H6	H	0.280005	0.615254	0.849715
	H7	H	0.281183	0.400835	0.164849
	H8	H	0.847729	0.730402	0.400720
	H9	H	0.160184	0.731902	0.614803
	H10	H	0.846288	0.285346	0.614583
	H11	H	0.159347	0.281183	0.396909
	H12	H	0.846150	0.402348	0.728732
	H13	H	0.160085	0.615367	0.730924
	H14	H	0.846109	0.611997	0.285983
	H15	H	0.159195	0.396550	0.280345
	H16	H	0.399895	0.725364	0.846278
	H17	H	0.608780	0.728089	0.164304
	H18	H	0.607470	0.287626	0.847046
	H19	H	0.395310	0.283179	0.163483
	H20	H	0.726083	0.850639	0.400637
	H21	H	0.724252	0.167592	0.610717
	H22	H	0.280711	0.851082	0.611725
	H23	H	0.277191	0.163356	0.393475
	H24	H	0.898433	0.349372	0.229437
	H25	H	0.108378	0.665888	0.229785
	H26	H	0.108858	0.349487	0.785697
	H27	H	0.900289	0.666108	0.789080
	H28	H	0.228846	0.896767	0.348870
	H29	H	0.225782	0.113954	0.663292
	H30	H	0.785286	0.112787	0.345912
	H31	H	0.784312	0.904299	0.664175
	H32	H	0.346205	0.229159	0.899343
	H33	H	0.661401	0.228938	0.110921
	H34	H	0.345254	0.785425	0.111255
	H35	H	0.661855	0.787203	0.903501
	H36	H	0.345431	0.900133	0.229054
	H37	H	0.662043	0.111138	0.225488
	H38	H	0.346309	0.112477	0.782956
	H39	H	0.662938	0.904732	0.787188
	H40	H	0.898614	0.230796	0.347941
	H41	H	0.108937	0.227740	0.664913
	H42	H	0.111614	0.783092	0.348814
	H43	H	0.898680	0.787114	0.663961
	H44	H	0.228351	0.351476	0.899340
	H45	H	0.227343	0.665328	0.116653
	H46	H	0.781408	0.349290	0.114405
	H47	H	0.782854	0.664984	0.903933
	H48	H	0.406714	0.121096	0.587346
	H49	H	0.596472	0.893899	0.597153
	H50	H	0.591704	0.119066	0.420582
	H51	H	0.422370	0.896827	0.414545
	H52	H	0.595663	0.419263	0.120367
	H53	H	0.597124	0.597162	0.891519
	H54	H	0.410449	0.591966	0.119687
	H55	H	0.416351	0.421982	0.894980
	H56	H	0.113292	0.592000	0.422812
	H57	H	0.890527	0.594105	0.599909
	H58	H	0.115339	0.419133	0.596106
	H59	H	0.890984	0.417260	0.417840
	H60	H	0.116196	0.417628	0.595903
	H61	H	0.888949	0.602380	0.597511
	H62	H	0.116336	0.593201	0.415783
	H63	H	0.894415	0.418730	0.423448
	H64	H	0.420313	0.593752	0.116384
	H65	H	0.592668	0.592679	0.894018
	H66	H	0.590547	0.418861	0.117849
	H67	H	0.416609	0.419311	0.894065
	H68	H	0.598946	0.122539	0.415629
	H69	H	0.593722	0.895512	0.594396
	H70	H	0.414811	0.122858	0.602975
	H71	H	0.418610	0.899820	0.425871
	H72	H	0.913560	0.618380	0.093760
	H73	H	0.091409	0.398953	0.089575
	H74	H	0.089491	0.618071	0.921195
	H75	H	0.913286	0.394235	0.919941
	H76	H	0.089313	0.917879	0.617136
	H77	H	0.085630	0.095048	0.395402
	H78	H	0.913916	0.094159	0.617939
	H79	H	0.908372	0.916469	0.388812
	H80	H	0.612434	0.090191	0.919305
	H81	H	0.390295	0.094849	0.097063
	H82	H	0.614759	0.921452	0.096805
	H83	H	0.388750	0.913632	0.912702
	H84	H	0.616695	0.913818	0.096743
	H85	H	0.391811	0.097890	0.088400
	H86	H	0.619925	0.097139	0.906784
	H87	H	0.390525	0.915873	0.916450
	H88	H	0.916419	0.099323	0.619214
	H89	H	0.092820	0.098836	0.391299
	H90	H	0.094889	0.921096	0.618981
	H91	H	0.915810	0.926679	0.395051
	H92	H	0.093293	0.619916	0.921592
	H93	H	0.096246	0.394719	0.094083
	H94	H	0.910356	0.621040	0.096281
	H95	H	0.911809	0.392915	0.915993
	H96	H	0.423962	0.115858	0.589171
	H97	H	0.597748	0.894717	0.593405
	H98	H	0.590657	0.121391	0.410902
	H99	H	0.411282	0.893763	0.418131
	H100	H	0.592589	0.414329	0.121401
	H101	H	0.591402	0.598702	0.892339
	H102	H	0.414962	0.601173	0.122335
	H103	H	0.414649	0.420577	0.893953
	H104	H	0.116693	0.598341	0.420874
	H105	H	0.893185	0.596817	0.591924
	H106	H	0.115888	0.418867	0.594575
	H107	H	0.893700	0.423440	0.418503
	H108	H	0.914602	0.619928	0.098057
	H109	H	0.089050	0.396013	0.096363
	H110	H	0.091050	0.619984	0.917824
	H111	H	0.916213	0.393416	0.916548
	H112	H	0.089980	0.924196	0.615822
	H113	H	0.093173	0.090132	0.393750
	H114	H	0.911010	0.098310	0.621113
	H115	H	0.921944	0.914090	0.392838
	H116	H	0.617933	0.105212	0.920476
	H117	H	0.394919	0.089700	0.090446
	H118	H	0.613447	0.917399	0.090066
	H119	H	0.389709	0.918054	0.912157
	C120	C	0.382528	0.015885	0.626233
	C121	C	0.626793	0.999867	0.627003
	C122	C	0.625649	0.016513	0.383847
	C123	C	0.382823	0.999742	0.384179
	C124	C	0.625239	0.385081	0.015328
	C125	C	0.624739	0.627612	0.998190
	C126	C	0.382776	0.628144	0.014982
	C127	C	0.382205	0.386428	0.998125
	C128	C	0.012139	0.628028	0.386202
	C129	C	0.995093	0.630345	0.629029
	C130	C	0.011997	0.386133	0.628358
	C131	C	0.995970	0.385757	0.385616
	C132	C	0.881745	0.515130	0.128317
	C133	C	0.125172	0.500240	0.127946
	C134	C	0.124706	0.515803	0.886263
	C135	C	0.881905	0.498370	0.885780
	C136	C	0.125178	0.886481	0.513851
	C137	C	0.124265	0.128247	0.497395
	C138	C	0.882327	0.129915	0.514467
	C139	C	0.883376	0.887154	0.497114
	C140	C	0.512116	0.129433	0.883170
	C141	C	0.495820	0.127329	0.125494
	C142	C	0.511139	0.884992	0.127719
	C143	C	0.495153	0.885300	0.883695
	C144	C	0.381839	0.896101	0.684787
	C145	C	0.626676	0.119297	0.686279
	C146	C	0.627758	0.897189	0.323979
	C147	C	0.378245	0.117296	0.321210
	C148	C	0.685638	0.381946	0.896216
	C149	C	0.683462	0.628825	0.117856
	C150	C	0.321009	0.632158	0.896465
	C151	C	0.320907	0.382464	0.116923
	C152	C	0.894460	0.689508	0.382672
	C153	C	0.113205	0.691164	0.632367
	C154	C	0.893841	0.325343	0.631954
	C155	C	0.112684	0.322674	0.380328
	C156	C	0.893572	0.384002	0.688913
	C157	C	0.113102	0.633213	0.690315
	C158	C	0.893484	0.630734	0.325768
	C159	C	0.112646	0.380315	0.322072
	C160	C	0.380593	0.687094	0.894882
	C161	C	0.626597	0.687529	0.117264
	C162	C	0.626519	0.326178	0.895217
	C163	C	0.377963	0.324167	0.116358
	C164	C	0.686105	0.897960	0.381586
	C165	C	0.684664	0.119776	0.628468
	C166	C	0.321948	0.897694	0.629130
	C167	C	0.319116	0.116588	0.377855
	C168	C	0.879997	0.396516	0.189051
	C169	C	0.127170	0.618525	0.189482
	C170	C	0.127560	0.397315	0.825315
	C171	C	0.881155	0.618309	0.827956
	C172	C	0.187292	0.880993	0.395776
	C173	C	0.185457	0.131672	0.615944
	C174	C	0.824039	0.131730	0.394098
	C175	C	0.823674	0.885380	0.616429
	C176	C	0.393610	0.189282	0.880817
	C177	C	0.613970	0.188458	0.128782
	C178	C	0.392661	0.824864	0.129937
	C179	C	0.614476	0.826770	0.883742
	C180	C	0.392661	0.882509	0.188213
	C181	C	0.614588	0.129887	0.185914
	C182	C	0.393730	0.131090	0.822866
	C183	C	0.615065	0.885167	0.826134
	C184	C	0.880653	0.190238	0.395173
	C185	C	0.127205	0.188347	0.616823
	C186	C	0.129346	0.823776	0.395749
	C187	C	0.880833	0.827229	0.616392
	C188	C	0.186795	0.398035	0.882038
	C189	C	0.186437	0.618252	0.132993
	C190	C	0.821682	0.396399	0.131731
	C191	C	0.822847	0.617552	0.885109
	C192	C	0.407867	0.098501	0.600729
	C193	C	0.602975	0.916452	0.602316
	C194	C	0.600722	0.099310	0.408472
	C195	C	0.409555	0.918287	0.411621
	C196	C	0.600097	0.410174	0.098253
	C197	C	0.600651	0.603017	0.914398
	C198	C	0.408094	0.602780	0.097821
	C199	C	0.408367	0.413212	0.916072
	C200	C	0.093985	0.601837	0.412130
	C201	C	0.912659	0.605099	0.603482
	C202	C	0.094254	0.411380	0.602744
	C203	C	0.914315	0.412374	0.412294
	C204	C	0.906056	0.598069	0.103305
	C205	C	0.099641	0.417928	0.100831
	C206	C	0.098749	0.597974	0.912646
	C207	C	0.906610	0.415230	0.910329
	C208	C	0.098755	0.913321	0.595965
	C209	C	0.098189	0.102292	0.414915
	C210	C	0.906789	0.104692	0.597577
	C211	C	0.908324	0.911938	0.413968
	C212	C	0.595052	0.104540	0.908354
	C213	C	0.413810	0.101569	0.099578
	C214	C	0.593451	0.910304	0.101948
	C215	C	0.411550	0.909029	0.907012
	Zn216	Zn	0.504112	0.006771	0.754680
	Zn217	Zn	0.503741	0.007180	0.255253
	Zn218	Zn	0.753239	0.506157	0.006830
	Zn219	Zn	0.254338	0.508251	0.006872
	Zn220	Zn	0.004298	0.757964	0.506355
	Zn221	Zn	0.003914	0.257007	0.507058
	Zn222	Zn	0.003788	0.508291	0.757148
	Zn223	Zn	0.003817	0.507318	0.256585
	Zn224	Zn	0.503172	0.756025	0.005658
	Zn225	Zn	0.502910	0.257726	0.005676
	Zn226	Zn	0.754816	0.008866	0.505090
	Zn227	Zn	0.253089	0.007610	0.505017
	N228	N	0.418735	0.970829	0.683256
	N229	N	0.591172	0.043815	0.685268
	N230	N	0.591074	0.972156	0.325046
	N231	N	0.417011	0.043716	0.324855
	N232	N	0.685029	0.417955	0.971797
	N233	N	0.682322	0.592302	0.042670
	N234	N	0.322141	0.596272	0.972213
	N235	N	0.323332	0.420613	0.042576
	N236	N	0.969121	0.687962	0.419360
	N237	N	0.038800	0.689436	0.595001
	N238	N	0.968385	0.326712	0.594838
	N239	N	0.039289	0.326183	0.419373
	N240	N	0.968187	0.420984	0.687178
	N241	N	0.038553	0.596253	0.688394
	N242	N	0.967717	0.593090	0.327866
	N243	N	0.039054	0.419127	0.325449
	N244	N	0.418206	0.684883	0.969546
	N245	N	0.590969	0.687135	0.041511
	N246	N	0.589671	0.327904	0.970179
	N247	N	0.415435	0.326539	0.041649
	N248	N	0.684950	0.973003	0.417978
	N249	N	0.684780	0.044422	0.592204
	N250	N	0.322067	0.973317	0.593637
	N251	N	0.321701	0.042324	0.416162
	N252	N	0.916827	0.471187	0.186885
	N253	N	0.089973	0.543974	0.186651
	N254	N	0.089798	0.471584	0.827874
	N255	N	0.916871	0.542988	0.827961
	N256	N	0.184900	0.919164	0.470240
	N257	N	0.183861	0.094966	0.540724
	N258	N	0.824729	0.095081	0.469309
	N259	N	0.824683	0.921739	0.541030
	N260	N	0.468424	0.188279	0.917429
	N261	N	0.539184	0.187209	0.092318
	N262	N	0.467397	0.826233	0.092897
	N263	N	0.538863	0.826618	0.918816
	N264	N	0.467447	0.918891	0.187032
	N265	N	0.540095	0.092715	0.184267
	N266	N	0.468632	0.094768	0.824106
	N267	N	0.539848	0.920609	0.825853
	N268	N	0.915517	0.189743	0.471177
	N269	N	0.090204	0.186689	0.541881
	N270	N	0.091266	0.827063	0.470107
	N271	N	0.917261	0.828267	0.541175
	N272	N	0.185335	0.472863	0.919084
	N273	N	0.185143	0.543581	0.095480
	N274	N	0.822500	0.471234	0.094755
	N275	N	0.822963	0.541805	0.920078
	O276	O	0.688064	0.332195	0.316479
	H277	H	0.699943	0.347501	0.323621
	H278	H	0.701569	0.353054	0.323034
	O279	O	0.985864	0.210130	0.802119
	H280	H	0.978873	0.224575	0.780526
	H281	H	0.969670	0.214674	0.827414
	O282	O	0.701725	0.705555	0.705049
	H283	H	0.710697	0.726132	0.696728
	H284	H	0.682767	0.705171	0.700606
	O285	O	0.474496	0.714705	0.294617
	H286	H	0.455834	0.707258	0.308859
	H287	H	0.470621	0.738265	0.269148
	O288	O	1.061939	0.902184	0.100646
	H289	H	1.047646	0.896413	0.112375
	H290	H	1.055076	0.918247	0.104197
	O291	O	0.286762	0.519379	0.295377
	H292	H	0.304226	0.525621	0.307485
	H293	H	0.260108	0.525877	0.265196
	O294	O	0.120299	0.059297	0.893387
	H295	H	0.099269	0.063913	0.878520
	H296	H	0.112103	0.066047	0.874598
	O297	O	0.557145	0.575333	0.324113
	H298	H	0.541648	0.590948	0.319381
	H299	H	0.541139	0.582439	0.331611
	O300	O	0.634486	0.709461	0.517953
	H301	H	0.630421	0.704475	0.516737
	H302	H	0.629110	0.708249	0.512803
	O303	O	0.718433	0.293839	0.472339
	H304	H	0.743347	0.286922	0.478363
	H305	H	0.733665	0.298195	0.463229
	O306	O	0.311815	0.344585	0.678406
	H307	H	0.314446	0.340315	0.637980
	H308	H	0.334960	0.351586	0.686034
	O309	O	0.361680	0.478965	0.606860
	H310	H	0.372965	0.458046	0.607517
	H311	H	0.361113	0.482944	0.620490
	O312	O	0.150273	1.021755	0.818719
	H313	H	0.147540	1.045047	0.809860
	H314	H	0.150541	1.035707	0.821267
	O315	O	0.323558	0.677591	0.326810
	H316	H	0.336452	0.654815	0.319777
	H317	H	0.313358	0.685923	0.375285
	O318	O	0.909930	0.084512	-0.012470
	H319	H	0.903641	0.097346	-0.014062
	H320	H	0.909937	0.090011	-0.009822
	O321	O	0.052625	0.217541	-0.046267
	H322	H	0.049666	0.212220	-0.048551
	H323	H	0.067132	0.220382	-0.033105
	O324	O	0.540138	0.486996	0.587404
	H325	H	0.535454	0.478837	0.601140
	H326	H	0.532659	0.493624	0.568802
	O327	O	0.474186	0.312551	0.718626
	H328	H	0.473455	0.296410	0.729243
	H329	H	0.485967	0.297116	0.707829
	O330	O	0.099342	0.961604	0.079126
	H331	H	0.119935	0.967006	0.089164
	H332	H	0.098010	0.955419	0.051989
	O333	O	0.703114	0.595679	0.431883
	H334	H	0.700855	0.587071	0.454444
	H335	H	0.690400	0.591736	0.430477
	O336	O	0.010397	0.085153	0.195234
	H337	H	0.005797	0.074852	0.201356
	H338	H	0.015988	0.090854	0.207361
	O339	O	0.201101	0.891620	0.804823
	H340	H	0.208239	0.930503	0.808330
	H341	H	0.221821	0.886534	0.812513
	O342	O	0.186768	0.809614	0.929943
	H343	H	0.210297	0.789883	0.944971
	H344	H	0.174793	0.819157	0.932173
	O345	O	0.819070	0.815708	-0.072664
	H346	H	0.832101	0.827799	-0.081820
	H347	H	0.831883	0.817987	-0.062825
	O348	O	0.291337	0.631729	0.534960
	H349	H	0.279179	0.633349	0.568262
	H350	H	0.297851	0.608997	0.532674
	O351	O	0.264846	0.719645	0.676132
	H352	H	0.272931	0.713126	0.672159
	H353	H	0.283497	0.712301	0.668807
	O354	O	0.212951	0.933071	0.008960
	H355	H	0.204984	0.910457	0.020911
	H356	H	0.227377	0.939417	0.023114
	O357	O	-0.078451	0.207498	1.141429
	H358	H	-0.075184	0.199011	1.135990
	H359	H	-0.075793	0.207107	1.149234
	O360	O	0.638535	0.478022	0.563287
	H361	H	0.621139	0.469191	0.570284
	H362	H	0.645320	0.474607	0.554584
	O363	O	-0.141820	0.005104	0.790285
	H364	H	-0.148455	-0.000907	0.778145
	H365	H	-0.146085	0.010500	0.781641
	O366	O	0.183485	0.184094	0.186166
	H367	H	0.170977	0.198931	0.176793
	H368	H	0.178752	0.148745	0.187297
	O369	O	0.470726	0.701441	0.675883
	H370	H	0.468006	0.694911	0.671969
	H371	H	0.483944	0.701585	0.698201
	O372	O	0.988380	-0.011056	1.148763
	H373	H	0.979539	-0.020765	1.152966
	H374	H	0.994160	-0.016657	1.146951
	O375	O	0.528774	0.291176	0.287842
	H376	H	0.573150	0.303814	0.298145
	H377	H	0.535632	0.258940	0.253491
	O378	O	0.627312	0.666776	0.621816
	H379	H	0.627778	0.664354	0.641779
	H380	H	0.633544	0.663220	0.617970
	O381	O	0.620420	0.365558	0.602929
	H382	H	0.620290	0.360692	0.590743
	H383	H	0.608539	0.365252	0.606335
	O384	O	0.704219	0.483967	0.323010
	H385	H	0.712053	0.501701	0.306448
	H386	H	0.696092	0.497756	0.340442
	O387	O	-0.190925	0.129262	0.825368
	H388	H	-0.195068	0.133257	0.841318
	H389	H	-0.194245	0.140213	0.827128
	O390	O	0.006413	0.171676	0.073009
	H391	H	-0.001849	0.156665	0.075035
	H392	H	0.024710	0.162614	0.045397
	O393	O	1.005791	0.975608	0.911464
	H394	H	1.010663	0.952810	0.912267
	H395	H	1.019542	0.979038	0.907761
	O396	O	1.169551	0.016448	0.223434
	H397	H	1.183566	0.020669	0.228325
	H398	H	1.173612	0.020485	0.235495
	O399	O	0.803663	0.178049	0.920759
	H400	H	0.804229	0.185678	0.927510
	H401	H	0.805970	0.182152	0.943801
	O402	O	1.058297	0.801401	1.055083
	H403	H	1.052743	0.798685	1.073155
	H404	H	1.039075	0.803664	1.048593
	O405	O	0.806982	0.866937	0.089132
	H406	H	0.805180	0.885885	0.092501
	H407	H	0.813360	0.868382	0.076722
	O408	O	0.795526	-0.090965	0.073325
	H409	H	0.791064	-0.099684	0.072859
	H410	H	0.792131	-0.106077	0.048755
	O411	O	0.792678	0.934721	0.112346
	H412	H	0.770570	0.922797	0.115747
	H413	H	0.798371	0.937078	0.093284
	O414	O	0.464404	0.485891	0.439293
	H415	H	0.467345	0.483777	0.428061
	H416	H	0.472155	0.485057	0.449692
	O417	O	0.415469	0.406748	0.325055
	H418	H	0.428516	0.397593	0.314537
	H419	H	0.414695	0.413374	0.328249
	O420	O	-0.093987	-0.060002	0.080856
	H421	H	-0.095487	-0.058978	0.078093
	H422	H	-0.092949	-0.060476	0.078391
	O423	O	0.716954	0.536527	0.720455
	H424	H	0.729931	0.556462	0.737124
	H425	H	0.716566	0.549850	0.727235
	O426	O	0.508803	0.288314	0.523985
	H427	H	0.501091	0.303007	0.516183
	H428	H	0.514464	0.281488	0.503054
	O429	O	0.474288	0.491703	0.643402
	H430	H	0.478959	0.499236	0.644838
	H431	H	0.467410	0.461475	0.628885
	O432	O	0.547648	0.607941	0.417082
	H433	H	0.551890	0.601784	0.416290
	H434	H	0.544956	0.624817	0.414884
	O435	O	0.539694	0.555493	0.592261
	H436	H	0.546311	0.569560	0.594624
	H437	H	0.528014	0.537180	0.593312
	O438	O	0.212004	0.188637	0.004980
	H439	H	0.227416	0.199952	0.004898
	H440	H	0.205384	0.183261	0.020764
	O441	O	0.992550	-0.188589	-0.137660
	H442	H	1.004546	-0.204238	-0.159738
	H443	H	1.014164	-0.171838	-0.129615
	O444	O	-0.157232	1.004736	1.222560
	H445	H	-0.146335	0.970362	1.228700
	H446	H	-0.178352	0.996093	1.236442
	O447	O	0.310931	0.646104	0.585712
	H448	H	0.313535	0.630737	0.605125
	H449	H	0.301921	0.630446	0.587632
	O450	O	0.294158	0.404467	0.468404
	H451	H	0.289278	0.402335	0.444001
	H452	H	0.306833	0.396646	0.451699
	O453	O	0.292661	0.341503	0.511537
	H454	H	0.296220	0.352883	0.505084
	H455	H	0.272452	0.325098	0.514700
