data_Molecule from HDF5

_cell_length_a		16.567352
_cell_length_b		16.593172
_cell_length_c		16.672566
_cell_angle_alpha	89.892854
_cell_angle_beta	90.118530
_cell_angle_gamma	90.064612
_symmetry_space_group_name_H-M	'P 1'
_symmetry_Int_Tables_number		1

loop_
	_symmetry_equiv_pos_as_xyz
	x,y,z

loop_
	_atom_site_label
	_atom_site_type_symbol
	_atom_site_fract_x
	_atom_site_fract_y
	_atom_site_fract_z
	H0	H	0.396324	0.852684	0.692292
	H1	H	0.615726	0.161010	0.690697
	H2	H	0.611402	0.851629	0.245452
	H3	H	0.398058	0.161529	0.242160
	H4	H	0.730540	0.398056	0.811871
	H5	H	0.727691	0.610568	0.121668
	H6	H	0.283571	0.612199	0.810908
	H7	H	0.281815	0.398262	0.119931
	H8	H	0.850280	0.725718	0.362705
	H9	H	0.163337	0.728166	0.572517
	H10	H	0.852696	0.281040	0.575254
	H11	H	0.161649	0.281708	0.357789
	H12	H	0.851543	0.397480	0.689643
	H13	H	0.162460	0.613225	0.689900
	H14	H	0.850653	0.610320	0.246813
	H15	H	0.161196	0.396934	0.241355
	H16	H	0.397714	0.730219	0.812308
	H17	H	0.611815	0.726735	0.121616
	H18	H	0.614552	0.281438	0.811746
	H19	H	0.398308	0.281016	0.120045
	H20	H	0.726695	0.850594	0.362875
	H21	H	0.730166	0.161976	0.573209
	H22	H	0.281888	0.852124	0.575699
	H23	H	0.282886	0.161878	0.358398
	H24	H	0.901529	0.351016	0.187551
	H25	H	0.114050	0.661886	0.188389
	H26	H	0.115438	0.352512	0.741065
	H27	H	0.900812	0.661608	0.745092
	H28	H	0.230157	0.900404	0.312299
	H29	H	0.232260	0.116401	0.620388
	H30	H	0.783897	0.113565	0.311909
	H31	H	0.788658	0.903850	0.622997
	H32	H	0.349544	0.227826	0.859276
	H33	H	0.661911	0.227567	0.069354
	H34	H	0.350718	0.784175	0.072181
	H35	H	0.663171	0.785731	0.863258
	H36	H	0.350794	0.899885	0.188659
	H37	H	0.661333	0.113238	0.187850
	H38	H	0.350264	0.111841	0.743425
	H39	H	0.661905	0.899413	0.745174
	H40	H	0.898702	0.231071	0.312516
	H41	H	0.118382	0.234484	0.618725
	H42	H	0.112871	0.784889	0.311605
	H43	H	0.905432	0.787869	0.622797
	H44	H	0.228410	0.350868	0.859670
	H45	H	0.229025	0.661489	0.072405
	H46	H	0.787246	0.350018	0.069060
	H47	H	0.786930	0.662246	0.862733
	H48	H	0.421076	0.116160	0.551525
	H49	H	0.595241	0.895433	0.554335
	H50	H	0.592926	0.120425	0.369534
	H51	H	0.422404	0.897600	0.380271
	H52	H	0.595374	0.421578	0.074325
	H53	H	0.598933	0.594393	0.853945
	H54	H	0.416257	0.593922	0.077023
	H55	H	0.417118	0.420929	0.856982
	H56	H	0.118009	0.599285	0.383907
	H57	H	0.893858	0.599692	0.557112
	H58	H	0.118554	0.418366	0.555391
	H59	H	0.897457	0.418050	0.381542
	H60	H	0.115486	0.421850	0.549058
	H61	H	0.895706	0.595955	0.553895
	H62	H	0.117639	0.587874	0.375247
	H63	H	0.898157	0.422749	0.377893
	H64	H	0.418950	0.593487	0.075971
	H65	H	0.592943	0.594661	0.856419
	H66	H	0.589869	0.416638	0.074672
	H67	H	0.419758	0.416108	0.856442
	H68	H	0.592825	0.116263	0.382930
	H69	H	0.598127	0.894561	0.556770
	H70	H	0.420048	0.117133	0.555325
	H71	H	0.417253	0.896318	0.380672
	H72	H	0.917162	0.617615	0.053033
	H73	H	0.095122	0.395318	0.055940
	H74	H	0.086956	0.616036	0.874941
	H75	H	0.917868	0.392683	0.874360
	H76	H	0.097187	0.914462	0.579892
	H77	H	0.091200	0.088989	0.359782
	H78	H	0.917905	0.097070	0.578594
	H79	H	0.920458	0.922249	0.357034
	H80	H	0.616873	0.091502	0.878414
	H81	H	0.396412	0.091307	0.050948
	H82	H	0.616180	0.920067	0.053032
	H83	H	0.395887	0.922293	0.875642
	H84	H	0.619557	0.918728	0.061148
	H85	H	0.394204	0.091414	0.056568
	H86	H	0.618547	0.096173	0.876380
	H87	H	0.393227	0.914855	0.876640
	H88	H	0.919557	0.089055	0.576508
	H89	H	0.090102	0.097319	0.356972
	H90	H	0.098222	0.921433	0.577171
	H91	H	0.918863	0.909359	0.353347
	H92	H	0.094075	0.614806	0.885411
	H93	H	0.091112	0.396028	0.055565
	H94	H	0.912790	0.621499	0.057872
	H95	H	0.921621	0.395557	0.879188
	H96	H	0.423535	0.115192	0.554185
	H97	H	0.594090	0.894873	0.558131
	H98	H	0.604098	0.122307	0.377238
	H99	H	0.420030	0.895604	0.376081
	H100	H	0.596566	0.415014	0.077360
	H101	H	0.595654	0.599782	0.853855
	H102	H	0.418554	0.595955	0.077144
	H103	H	0.414882	0.416743	0.854048
	H104	H	0.122758	0.600653	0.371254
	H105	H	0.893996	0.594403	0.558802
	H106	H	0.115262	0.425334	0.555573
	H107	H	0.895202	0.417829	0.376160
	H108	H	0.919802	0.618849	0.059771
	H109	H	0.093364	0.395638	0.052746
	H110	H	0.098826	0.619555	0.874512
	H111	H	0.915222	0.394117	0.880506
	H112	H	0.091437	0.918154	0.576145
	H113	H	0.097738	0.093138	0.356080
	H114	H	0.925391	0.095325	0.574936
	H115	H	0.908401	0.917607	0.352203
	H116	H	0.616611	0.095927	0.881447
	H117	H	0.393136	0.096389	0.053573
	H118	H	0.619717	0.911841	0.055156
	H119	H	0.396117	0.918555	0.882611
	C120	C	0.386193	0.014754	0.587920
	C121	C	0.628452	0.998183	0.588548
	C122	C	0.628413	0.016155	0.345094
	C123	C	0.385456	0.998612	0.345138
	C124	C	0.627272	0.384754	-0.026539
	C125	C	0.627703	0.627373	0.957717
	C126	C	0.384716	0.627493	-0.025515
	C127	C	0.384275	0.384244	0.957818
	C128	C	0.015827	0.627731	0.345182
	C129	C	0.998202	0.628376	0.588563
	C130	C	0.014572	0.386471	0.587358
	C131	C	0.998971	0.385434	0.344920
	C132	C	0.885043	0.515533	0.087929
	C133	C	0.126940	0.498293	0.087362
	C134	C	0.127166	0.514661	0.844999
	C135	C	0.885704	0.497334	0.845723
	C136	C	0.128595	0.885406	0.475144
	C137	C	0.128321	0.128631	0.458357
	C138	C	0.886584	0.127666	0.474876
	C139	C	0.885234	0.885157	0.457598
	C140	C	0.514411	0.127405	0.844930
	C141	C	0.497329	0.126711	0.086023
	C142	C	0.515185	0.884577	0.088695
	C143	C	0.498264	0.885605	0.846045
	C144	C	0.379948	0.899070	0.650968
	C145	C	0.632858	0.114500	0.650016
	C146	C	0.630230	0.898371	0.285501
	C147	C	0.380993	0.115096	0.283081
	C148	C	0.689375	0.380657	0.857959
	C149	C	0.687826	0.629093	0.074625
	C150	C	0.323878	0.630239	0.857773
	C151	C	0.322731	0.380184	0.073884
	C152	C	0.897694	0.686442	0.343940
	C153	C	0.116260	0.688166	0.590794
	C154	C	0.898978	0.322723	0.592024
	C155	C	0.115064	0.322823	0.340569
	C156	C	0.898382	0.380824	0.649030
	C157	C	0.115644	0.630909	0.649296
	C158	C	0.897931	0.628888	0.286260
	C159	C	0.114795	0.379882	0.282252
	C160	C	0.380786	0.689034	0.858382
	C161	C	0.630066	0.686848	0.074846
	C162	C	0.631581	0.322496	0.858018
	C163	C	0.380319	0.321819	0.073669
	C164	C	0.687425	0.897931	0.343906
	C165	C	0.689997	0.114975	0.591672
	C166	C	0.322974	0.898816	0.592659
	C167	C	0.323607	0.115095	0.340999
	C168	C	0.883322	0.397916	0.147363
	C169	C	0.131276	0.615142	0.148144
	C170	C	0.131713	0.398434	0.783036
	C171	C	0.882862	0.614799	0.785343
	C172	C	0.189548	0.882698	0.358709
	C173	C	0.191381	0.133831	0.573776
	C174	C	0.824710	0.131239	0.358559
	C175	C	0.827690	0.884672	0.575951
	C176	C	0.396673	0.187561	0.841504
	C177	C	0.614857	0.187668	0.088331
	C178	C	0.397646	0.824318	0.090751
	C179	C	0.615864	0.825638	0.844390
	C180	C	0.397744	0.881903	0.148573
	C181	C	0.614663	0.130845	0.146900
	C182	C	0.397044	0.129879	0.783914
	C183	C	0.615446	0.882463	0.785888
	C184	C	0.881906	0.189754	0.358844
	C185	C	0.134654	0.192670	0.572960
	C186	C	0.131248	0.825177	0.358436
	C187	C	0.885602	0.827027	0.575600
	C188	C	0.188061	0.397670	0.842002
	C189	C	0.188578	0.614927	0.090275
	C190	C	0.826452	0.397319	0.088631
	C191	C	0.826044	0.615061	0.843657
	C192	C	0.413649	0.095262	0.561301
	C193	C	0.603057	0.916317	0.563550
	C194	C	0.603648	0.098127	0.369400
	C195	C	0.412284	0.917504	0.371545
	C196	C	0.601245	0.410616	0.054467
	C197	C	0.602720	0.603255	0.875980
	C198	C	0.410584	0.601825	0.055560
	C199	C	0.409907	0.410525	0.876841
	C200	C	0.098097	0.603049	0.369777
	C201	C	0.916086	0.603740	0.563647
	C202	C	0.095407	0.413825	0.560810
	C203	C	0.918107	0.411927	0.371148
	C204	C	0.909405	0.597949	0.063671
	C205	C	0.100629	0.416886	0.062051
	C206	C	0.100910	0.595698	0.871008
	C207	C	0.911045	0.415505	0.870753
	C208	C	0.102958	0.910795	0.556509
	C209	C	0.100724	0.100972	0.378269
	C210	C	0.913454	0.101186	0.555617
	C211	C	0.909039	0.909566	0.375593
	C212	C	0.595978	0.101859	0.871134
	C213	C	0.415854	0.100571	0.060724
	C214	C	0.597091	0.909813	0.063589
	C215	C	0.416443	0.910991	0.871215
	Zn216	Zn	0.506980	0.006175	0.716776
	Zn217	Zn	0.506229	0.006968	0.216402
	Zn218	Zn	0.756665	0.505774	-0.034051
	Zn219	Zn	0.255684	0.506177	-0.033634
	Zn220	Zn	0.006810	0.756237	0.466402
	Zn221	Zn	0.007136	0.257868	0.466561
	Zn222	Zn	0.006112	0.506256	0.716700
	Zn223	Zn	0.007164	0.506892	0.216419
	Zn224	Zn	0.506582	0.756728	-0.033338
	Zn225	Zn	0.505472	0.256033	-0.034071
	Zn226	Zn	0.756758	0.007105	0.466985
	Zn227	Zn	0.257338	0.007185	0.466647
	N228	N	0.418789	0.972074	0.648199
	N229	N	0.595286	0.040834	0.648236
	N230	N	0.594340	0.972926	0.285886
	N231	N	0.418841	0.041517	0.285610
	N232	N	0.686641	0.418837	0.930772
	N233	N	0.686673	0.592931	0.000653
	N234	N	0.325969	0.592805	0.931179
	N235	N	0.324845	0.418162	0.000709
	N236	N	0.972267	0.686108	0.379893
	N237	N	0.042215	0.686799	0.553790
	N238	N	0.972423	0.326188	0.554097
	N239	N	0.041918	0.326074	0.378754
	N240	N	0.971377	0.419797	0.646324
	N241	N	0.040940	0.594747	0.648431
	N242	N	0.972614	0.593301	0.286636
	N243	N	0.041609	0.418339	0.284831
	N244	N	0.417873	0.687688	0.932156
	N245	N	0.593297	0.686210	0.000987
	N246	N	0.593064	0.325380	0.930763
	N247	N	0.417686	0.324220	0.000402
	N248	N	0.686717	0.972231	0.380061
	N249	N	0.687332	0.041514	0.553974
	N250	N	0.326571	0.971945	0.554040
	N251	N	0.326358	0.041715	0.379081
	N252	N	0.919006	0.472573	0.147208
	N253	N	0.093773	0.541529	0.146541
	N254	N	0.094501	0.472219	0.784626
	N255	N	0.919211	0.540413	0.786419
	N256	N	0.188278	0.919159	0.432555
	N257	N	0.187674	0.094616	0.501292
	N258	N	0.827537	0.093174	0.431797
	N259	N	0.826839	0.919745	0.501244
	N260	N	0.470848	0.186507	0.878356
	N261	N	0.540859	0.185147	0.051208
	N262	N	0.471799	0.825644	0.054168
	N263	N	0.541857	0.827588	0.881227
	N264	N	0.472019	0.918600	0.147522
	N265	N	0.540684	0.093579	0.145892
	N266	N	0.471385	0.093159	0.785783
	N267	N	0.541319	0.919233	0.786798
	N268	N	0.919840	0.187706	0.432213
	N269	N	0.095998	0.189482	0.500189
	N270	N	0.094129	0.826581	0.431983
	N271	N	0.920451	0.826925	0.500986
	N272	N	0.185197	0.470912	0.880134
	N273	N	0.186034	0.541215	0.053012
	N274	N	0.827231	0.471618	0.052501
	N275	N	0.827509	0.540994	0.880356
	O276	O	-0.042877	0.973186	0.023067
	H277	H	-0.041675	0.985447	0.012143
	H278	H	-0.058243	0.976400	0.026763
	O279	O	0.644983	0.390490	0.525477
	H280	H	0.638337	0.374179	0.525508
	H281	H	0.632291	0.379629	0.518931
	O282	O	0.789584	-0.028887	1.191094
	H283	H	0.780480	-0.041525	1.206687
	H284	H	0.790079	-0.030575	1.204665
	O285	O	0.479252	0.281113	0.691725
	H286	H	0.452234	0.270275	0.705382
	H287	H	0.477200	0.279785	0.712880
	O288	O	0.289394	0.565486	0.528307
	H289	H	0.300156	0.576814	0.518832
	H290	H	0.287066	0.585767	0.515825
	O291	O	0.064741	-0.064578	0.160933
	H292	H	0.049053	-0.066760	0.157077
	H293	H	0.040061	-0.066607	0.159161
	O294	O	1.216751	-0.023301	0.750414
	H295	H	1.237892	-0.022012	0.731413
	H296	H	1.211646	-0.010866	0.760722
	O297	O	-0.106607	1.102087	0.791337
	H298	H	-0.103487	1.097899	0.775857
	H299	H	-0.113152	1.115696	0.799935
	O300	O	0.111429	-0.103219	1.055576
	H301	H	0.111229	-0.094516	1.056950
	H302	H	0.102347	-0.103189	1.068084
	O303	O	0.283908	0.470276	0.363834
	H304	H	0.278616	0.488448	0.348386
	H305	H	0.293941	0.483932	0.366197
	O306	O	0.386714	0.626882	0.392030
	H307	H	0.380832	0.622074	0.381691
	H308	H	0.385307	0.630295	0.401031
	O309	O	0.853703	0.205510	0.956385
	H310	H	0.860321	0.207341	0.963783
	H311	H	0.852028	0.198299	0.970009
	O312	O	0.479506	0.349051	0.401120
	H313	H	0.485871	0.344147	0.412731
	H314	H	0.478499	0.361197	0.405053
	O315	O	1.135473	1.160408	1.029772
	H316	H	1.134302	1.159734	1.042815
	H317	H	1.142705	1.166181	1.044143
	O318	O	0.628048	0.559423	0.435564
	H319	H	0.639869	0.562155	0.433462
	H320	H	0.636826	0.573345	0.447745
	O321	O	0.472531	1.390784	0.507159
	H322	H	0.470060	1.391128	0.503429
	H323	H	0.462640	1.391625	0.510451
	O324	O	1.175804	1.188190	-0.138711
	H325	H	1.194720	1.208205	-0.148181
	H326	H	1.167288	1.188804	-0.129137
	O327	O	0.196978	-0.187609	0.774098
	H328	H	0.195963	-0.182437	0.791303
	H329	H	0.205049	-0.165425	0.798433
	O330	O	0.994953	-0.014959	0.933171
	H331	H	0.999147	-0.014076	0.917971
	H332	H	0.998977	-0.007461	0.940192
	O333	O	0.721426	0.704703	0.479122
	H334	H	0.725584	0.694126	0.512417
	H335	H	0.745612	0.731027	0.495842
	O336	O	1.116765	0.101125	-0.014990
	H337	H	1.121906	0.114545	-0.013624
	H338	H	1.103273	0.114879	-0.009532
	O339	O	1.052976	-0.876384	0.868704
	H340	H	1.069217	-0.874158	0.859555
	H341	H	1.062206	-0.882870	0.860256
	O342	O	-0.281774	0.293031	0.251054
	H343	H	-0.279540	0.275393	0.231990
	H344	H	-0.290037	0.289880	0.255697
	O345	O	-0.501609	1.512087	1.247679
	H346	H	-0.509402	1.527474	1.242539
	H347	H	-0.492726	1.506297	1.251468
	O348	O	0.191042	0.015217	0.178541
	H349	H	0.180332	-0.000514	0.183371
	H350	H	0.186487	0.009878	0.198115
	O351	O	0.712209	0.571588	0.577859
	H352	H	0.709707	0.543429	0.593416
	H353	H	0.723377	0.577198	0.598056
	O354	O	-0.535887	0.547569	1.264391
	H355	H	-0.540161	0.535675	1.268565
	H356	H	-0.536060	0.553564	1.256952
	O357	O	-0.056952	0.063039	0.196252
	H358	H	-0.068360	0.062486	0.196306
	H359	H	-0.049735	0.076627	0.186827
	O360	O	0.645481	0.285550	0.484114
	H361	H	0.631361	0.272917	0.486127
	H362	H	0.636442	0.275839	0.486229
	O363	O	0.356422	0.316062	0.482924
	H364	H	0.345913	0.312610	0.491269
	H365	H	0.346653	0.335899	0.484766
	O366	O	0.560601	0.459310	0.702521
	H367	H	0.550872	0.457479	0.693358
	H368	H	0.575403	0.462685	0.709096
	O369	O	1.167650	0.099026	-0.086845
	H370	H	1.160388	0.113896	-0.098158
	H371	H	1.166912	0.097965	-0.082854
	O372	O	0.447389	0.656951	0.575234
	H373	H	0.440665	0.680468	0.594105
	H374	H	0.465984	0.647394	0.559941
	O375	O	0.535548	-0.706972	0.250361
	H376	H	0.532892	-0.715961	0.247042
	H377	H	0.540271	-0.707711	0.256629
	O378	O	1.069873	1.166355	0.904134
	H379	H	1.074671	1.155102	0.892160
	H380	H	1.080706	1.186220	0.921809
	O381	O	0.127768	0.987313	1.018548
	H382	H	0.134729	0.991501	1.015642
	H383	H	0.117617	0.993299	1.023032
	O384	O	1.207676	-0.207997	0.934794
	H385	H	1.221141	-0.213043	0.947964
	H386	H	1.209271	-0.207717	0.958851
	O387	O	0.959926	0.826360	-0.072000
	H388	H	0.981080	0.823794	-0.059257
	H389	H	0.969354	0.820875	-0.067955
	O390	O	0.287306	0.723363	0.439004
	H391	H	0.305647	0.739224	0.449231
	H392	H	0.273774	0.741713	0.430096
	O393	O	0.699906	0.509915	0.629922
	H394	H	0.684782	0.513120	0.619817
	H395	H	0.725603	0.506494	0.640154
	O396	O	-0.304520	0.694480	1.272140
	H397	H	-0.320286	0.681212	1.299267
	H398	H	-0.320584	0.669610	1.280644
	O399	O	-0.180209	0.192364	1.150593
	H400	H	-0.161816	0.181918	1.144895
	H401	H	-0.174538	0.174289	1.122668
	O402	O	0.283018	0.391593	0.528423
	H403	H	0.274366	0.395059	0.516767
	H404	H	0.270723	0.414191	0.521925
	O405	O	0.983960	0.220078	0.749971
	H406	H	0.975152	0.246564	0.726824
	H407	H	0.996956	0.209792	0.758018
	O408	O	0.349469	0.373077	0.304470
	H409	H	0.358791	0.385912	0.328243
	H410	H	0.353891	0.379528	0.304128
	O411	O	0.608549	0.392317	0.449872
	H412	H	0.610708	0.392278	0.432519
	H413	H	0.618681	0.378466	0.449275
	O414	O	0.592665	0.622234	0.533709
	H415	H	0.597797	0.607811	0.546839
	H416	H	0.614861	0.626197	0.543806
	O417	O	-0.020746	0.790981	1.182784
	H418	H	-0.053959	0.787371	1.181175
	H419	H	-0.034623	0.772453	1.195900
	O420	O	-0.174405	0.931674	0.948052
	H421	H	-0.169830	0.924835	0.937164
	H422	H	-0.169900	0.922378	0.943952
	O423	O	0.033873	-0.213034	0.746445
	H424	H	0.053928	-0.218285	0.736988
	H425	H	0.051898	-0.227961	0.738539
	O426	O	0.310393	0.537237	0.666651
	H427	H	0.302893	0.546056	0.679585
	H428	H	0.307403	0.550574	0.644510
	O429	O	0.545478	0.737310	0.419061
	H430	H	0.545093	0.739796	0.394150
	H431	H	0.569579	0.735631	0.426101
	O432	O	0.434019	0.657196	0.605897
	H433	H	0.452139	0.663160	0.622144
	H434	H	0.448925	0.659011	0.600127
	O435	O	-0.205487	0.793294	0.007125
	H436	H	-0.195937	0.797567	0.009042
	H437	H	-0.217926	0.778598	0.000590
	O438	O	0.006478	-0.003372	-0.182124
	H439	H	0.002895	-0.018370	-0.183743
	H440	H	0.004620	-0.002474	-0.179593
	O441	O	-0.175489	-0.174864	-0.219266
	H442	H	-0.154018	-0.156435	-0.209639
	H443	H	-0.160470	-0.163686	-0.196392
	O444	O	0.722242	0.474914	0.241215
	H445	H	0.729598	0.463067	0.228261
	H446	H	0.739676	0.463766	0.235010
	O447	O	0.306754	1.306509	1.666783
	H448	H	0.298059	1.315623	1.637521
	H449	H	0.315357	1.339953	1.666380
	O450	O	0.199568	1.196729	1.154234
	H451	H	0.195077	1.201942	1.161871
	H452	H	0.207746	1.157639	1.153449
	O453	O	0.717765	0.659327	0.674524
	H454	H	0.742412	0.675923	0.694483
	H455	H	0.702756	0.635645	0.673411
	O456	O	-0.149098	0.006087	0.754527
	H457	H	-0.140114	0.013801	0.760083
	H458	H	-0.166556	0.019663	0.740886
	O459	O	0.520169	0.549968	0.472037
	H460	H	0.528995	0.541770	0.473129
	H461	H	0.521801	0.551139	0.465308
	O462	O	0.801897	-0.198153	1.175375
	H463	H	0.795027	-0.180118	1.147369
	H464	H	0.773851	-0.229220	1.203269
	O465	O	0.959399	0.173109	0.133137
	H466	H	0.964491	0.198787	0.160060
	H467	H	0.987702	0.162632	0.124890
	O468	O	0.675521	0.347087	0.624229
	H469	H	0.652349	0.352286	0.613673
	H470	H	0.670896	0.349163	0.617838
	O471	O	0.813890	0.198308	0.766512
	H472	H	0.838924	0.196903	0.774115
	H473	H	0.802437	0.218336	0.774618
	O474	O	-0.200657	1.023191	-0.030720
	H475	H	-0.200673	1.009543	-0.032294
	H476	H	-0.206664	1.016657	-0.042807
	O477	O	0.507855	0.597130	1.645332
	H478	H	0.509913	0.599932	1.630045
	H479	H	0.520280	0.588363	1.656707
	O480	O	0.309513	0.639187	0.281321
	H481	H	0.315208	0.628906	0.287091
	H482	H	0.301358	0.643992	0.296164
	O483	O	0.193144	0.842691	0.133261
	H484	H	0.175714	0.850162	0.128484
	H485	H	0.183246	0.859809	0.131154
	O486	O	1.399495	-0.274914	1.249209
	H487	H	1.393847	-0.289508	1.258364
	H488	H	1.375243	-0.244171	1.219087
	O489	O	1.651217	0.580124	0.338843
	H490	H	1.656211	0.557054	0.348916
	H491	H	1.664150	0.596371	0.359298
