data_Molecule from HDF5

_cell_length_a		16.308583
_cell_length_b		16.293355
_cell_length_c		16.269783
_cell_angle_alpha	90.016147
_cell_angle_beta	89.799458
_cell_angle_gamma	90.164296
_symmetry_space_group_name_H-M	'P 1'
_symmetry_Int_Tables_number		1

loop_
	_symmetry_equiv_pos_as_xyz
	x,y,z

loop_
	_atom_site_label
	_atom_site_type_symbol
	_atom_site_fract_x
	_atom_site_fract_y
	_atom_site_fract_z
	H0	H	0.406321	0.839654	0.716263
	H1	H	0.609501	0.165196	0.716373
	H2	H	0.607261	0.839047	0.285423
	H3	H	0.410749	0.165598	0.286196
	H4	H	0.726244	0.403098	0.839596
	H5	H	0.726450	0.605524	0.165019
	H6	H	0.295023	0.602422	0.839001
	H7	H	0.293591	0.402444	0.165283
	H8	H	0.846097	0.718688	0.402937
	H9	H	0.172038	0.720445	0.600669
	H10	H	0.846137	0.288921	0.601735
	H11	H	0.171467	0.287815	0.400309
	H12	H	0.847345	0.401997	0.719388
	H13	H	0.173292	0.603228	0.715502
	H14	H	0.846814	0.604672	0.285440
	H15	H	0.172606	0.406957	0.286883
	H16	H	0.411863	0.715266	0.838122
	H17	H	0.609514	0.720065	0.164480
	H18	H	0.610382	0.288169	0.838479
	H19	H	0.409874	0.286806	0.164719
	H20	H	0.725234	0.840004	0.399353
	H21	H	0.722960	0.166123	0.599032
	H22	H	0.289870	0.841618	0.602018
	H23	H	0.295707	0.166833	0.401995
	H24	H	0.909767	0.340927	0.218352
	H25	H	0.109952	0.666564	0.215397
	H26	H	0.110695	0.340044	0.785054
	H27	H	0.913077	0.666553	0.787934
	H28	H	0.220783	0.907416	0.337717
	H29	H	0.224186	0.105124	0.664419
	H30	H	0.795227	0.102822	0.337492
	H31	H	0.790738	0.903470	0.664611
	H32	H	0.346156	0.217873	0.902744
	H33	H	0.672345	0.218137	0.099962
	H34	H	0.345931	0.786381	0.100444
	H35	H	0.671943	0.786502	0.899447
	H36	H	0.345266	0.902290	0.216281
	H37	H	0.671668	0.101487	0.215882
	H38	H	0.345042	0.099670	0.788007
	H39	H	0.671898	0.903933	0.784129
	H40	H	0.909963	0.218572	0.338384
	H41	H	0.106060	0.218544	0.664856
	H42	H	0.107612	0.790004	0.338788
	H43	H	0.907414	0.788299	0.665822
	H44	H	0.224715	0.339502	0.902882
	H45	H	0.225411	0.665686	0.100714
	H46	H	0.793064	0.340732	0.104024
	H47	H	0.794870	0.665243	0.901568
	H48	H	0.418632	0.121317	0.603294
	H49	H	0.595432	0.886970	0.595013
	H50	H	0.604406	0.119713	0.405120
	H51	H	0.410241	0.888389	0.417967
	H52	H	0.595267	0.413166	0.114928
	H53	H	0.598988	0.591686	0.888357
	H54	H	0.412777	0.590304	0.118701
	H55	H	0.419265	0.407511	0.885057
	H56	H	0.123300	0.598294	0.414620
	H57	H	0.894708	0.591454	0.594331
	H58	H	0.127753	0.412426	0.599670
	H59	H	0.891976	0.409555	0.410416
	H60	H	0.126171	0.404353	0.590913
	H61	H	0.891982	0.595598	0.598796
	H62	H	0.124420	0.591504	0.403856
	H63	H	0.894105	0.412885	0.412432
	H64	H	0.422742	0.593335	0.115875
	H65	H	0.602712	0.599566	0.884347
	H66	H	0.601787	0.403175	0.120649
	H67	H	0.413615	0.411031	0.884242
	H68	H	0.598424	0.118218	0.406355
	H69	H	0.598732	0.888450	0.588013
	H70	H	0.423532	0.114707	0.588086
	H71	H	0.407511	0.881537	0.401532
	H72	H	0.919178	0.617137	0.088383
	H73	H	0.096219	0.387723	0.096960
	H74	H	0.109101	0.619942	0.910947
	H75	H	0.914557	0.385292	0.910228
	H76	H	0.102599	0.910999	0.619437
	H77	H	0.101698	0.104758	0.383115
	H78	H	0.925700	0.093584	0.615098
	H79	H	0.925500	0.907972	0.387652
	H80	H	0.622696	0.092377	0.912634
	H81	H	0.394198	0.092274	0.091480
	H82	H	0.627494	0.904997	0.097565
	H83	H	0.394393	0.909527	0.912923
	H84	H	0.621953	0.909216	0.084078
	H85	H	0.391760	0.095995	0.096926
	H86	H	0.625071	0.091886	0.901946
	H87	H	0.391948	0.911904	0.903782
	H88	H	0.912597	0.105988	0.621606
	H89	H	0.108453	0.093538	0.383682
	H90	H	0.099694	0.914796	0.617988
	H91	H	0.910501	0.905601	0.382259
	H92	H	0.102847	0.620761	0.902385
	H93	H	0.104406	0.387433	0.089514
	H94	H	0.913170	0.620810	0.094992
	H95	H	0.921641	0.387363	0.907059
	H96	H	0.408119	0.121295	0.590390
	H97	H	0.603150	0.885429	0.593549
	H98	H	0.603165	0.117465	0.411328
	H99	H	0.423546	0.888652	0.405441
	H100	H	0.607648	0.414760	0.119119
	H101	H	0.607913	0.591302	0.885349
	H102	H	0.415927	0.600898	0.120142
	H103	H	0.419202	0.413657	0.887021
	H104	H	0.129405	0.603538	0.404756
	H105	H	0.893825	0.597744	0.593181
	H106	H	0.122659	0.415700	0.589217
	H107	H	0.893361	0.413126	0.407515
	H108	H	0.922259	0.619279	0.097784
	H109	H	0.105687	0.383631	0.099434
	H110	H	0.098438	0.616820	0.911834
	H111	H	0.920128	0.389642	0.915411
	H112	H	0.097705	0.910332	0.618074
	H113	H	0.095196	0.093680	0.388014
	H114	H	0.907068	0.088615	0.617521
	H115	H	0.915198	0.920057	0.388343
	H116	H	0.627305	0.101760	0.907498
	H117	H	0.392800	0.097961	0.090716
	H118	H	0.622582	0.919212	0.095276
	H119	H	0.390994	0.901484	0.906900
	C120	C	0.386297	0.011588	0.622824
	C121	C	0.629269	0.994360	0.621310
	C122	C	0.630828	0.010911	0.378345
	C123	C	0.386669	0.994352	0.379624
	C124	C	0.631235	0.381326	0.010592
	C125	C	0.632281	0.624401	0.993527
	C126	C	0.388303	0.623569	0.010420
	C127	C	0.388059	0.381212	0.993452
	C128	C	0.017837	0.626538	0.379248
	C129	C	1.001249	0.624784	0.623509
	C130	C	0.018076	0.381508	0.623616
	C131	C	1.000763	0.383041	0.380568
	C132	C	0.888167	0.511915	0.123801
	C133	C	0.131127	0.494483	0.123403
	C134	C	0.132419	0.511337	0.879435
	C135	C	0.889282	0.494534	0.880777
	C136	C	0.129357	0.883305	0.510633
	C137	C	0.130393	0.126174	0.492850
	C138	C	0.886929	0.124985	0.509771
	C139	C	0.886718	0.881767	0.493812
	C140	C	0.517336	0.124094	0.879037
	C141	C	0.500581	0.124536	0.122447
	C142	C	0.516656	0.881306	0.121830
	C143	C	0.500361	0.879738	0.878486
	C144	C	0.387120	0.888867	0.678384
	C145	C	0.628983	0.116770	0.677873
	C146	C	0.628193	0.887999	0.322987
	C147	C	0.389940	0.117025	0.324078
	C148	C	0.687832	0.382997	0.888175
	C149	C	0.687926	0.624327	0.116088
	C150	C	0.332975	0.621875	0.887760
	C151	C	0.332024	0.382727	0.116429
	C152	C	0.895026	0.681258	0.382078
	C153	C	0.123718	0.681619	0.620845
	C154	C	0.895058	0.326360	0.622389
	C155	C	0.123013	0.326574	0.380905
	C156	C	0.895910	0.382813	0.680689
	C157	C	0.124376	0.623178	0.677741
	C158	C	0.895551	0.624571	0.323377
	C159	C	0.123543	0.385560	0.324499
	C160	C	0.391316	0.677975	0.887082
	C161	C	0.629884	0.681604	0.115769
	C162	C	0.630085	0.326027	0.887459
	C163	C	0.389757	0.325227	0.116080
	C164	C	0.686807	0.888553	0.379808
	C165	C	0.685516	0.117090	0.619563
	C166	C	0.328830	0.889737	0.621615
	C167	C	0.332919	0.117665	0.381850
	C168	C	0.889693	0.389418	0.179988
	C169	C	0.129248	0.617725	0.177420
	C170	C	0.130674	0.388795	0.823341
	C171	C	0.892384	0.617690	0.825652
	C172	C	0.184156	0.886107	0.387132
	C173	C	0.186018	0.124799	0.615546
	C174	C	0.832609	0.123039	0.386705
	C175	C	0.829323	0.883120	0.616008
	C176	C	0.394652	0.179709	0.882044
	C177	C	0.623462	0.180198	0.120548
	C178	C	0.394492	0.824582	0.120671
	C179	C	0.623199	0.824696	0.879761
	C180	C	0.394077	0.882446	0.178061
	C181	C	0.623071	0.122359	0.178091
	C182	C	0.393904	0.120706	0.825224
	C183	C	0.622975	0.882522	0.821861
	C184	C	0.889534	0.180992	0.387303
	C185	C	0.127391	0.181083	0.616147
	C186	C	0.127523	0.828002	0.387490
	C187	C	0.887474	0.825951	0.616699
	C188	C	0.187328	0.388341	0.881921
	C189	C	0.187151	0.617201	0.120637
	C190	C	0.831727	0.389332	0.123142
	C191	C	0.833401	0.616759	0.882054
	C192	C	0.410014	0.097000	0.600641
	C193	C	0.605971	0.909053	0.598608
	C194	C	0.608472	0.096362	0.401006
	C195	C	0.407771	0.908353	0.401655
	C196	C	0.608148	0.403774	0.096343
	C197	C	0.609865	0.600965	0.908025
	C198	C	0.410731	0.601410	0.096243
	C199	C	0.410964	0.404004	0.907579
	C200	C	0.103528	0.604490	0.401277
	C201	C	0.915696	0.601678	0.601797
	C202	C	0.103341	0.404129	0.600148
	C203	C	0.915497	0.405166	0.403502
	C204	C	0.911284	0.597044	0.100503
	C205	C	0.108788	0.408460	0.101519
	C206	C	0.110049	0.597101	0.901959
	C207	C	0.912165	0.409436	0.904050
	C208	C	0.106764	0.905375	0.596259
	C209	C	0.108228	0.104029	0.407152
	C210	C	0.908539	0.102585	0.595808
	C211	C	0.910154	0.904419	0.408209
	C212	C	0.602959	0.101963	0.900858
	C213	C	0.415039	0.101940	0.099767
	C214	C	0.601978	0.904484	0.098925
	C215	C	0.414641	0.901408	0.901044
	Zn216	Zn	0.508531	0.002641	0.750468
	Zn217	Zn	0.508191	0.002180	0.250981
	Zn218	Zn	0.760232	0.502404	0.002448
	Zn219	Zn	0.259779	0.502679	0.002162
	Zn220	Zn	0.008762	0.753959	0.502473
	Zn221	Zn	0.008398	0.253878	0.501918
	Zn222	Zn	0.010544	0.502925	0.751697
	Zn223	Zn	0.009681	0.504327	0.251635
	Zn224	Zn	0.509279	0.751742	0.001361
	Zn225	Zn	0.509657	0.253049	0.001042
	Zn226	Zn	0.758465	0.003211	0.500951
	Zn227	Zn	0.258158	0.004235	0.501309
	N228	N	0.422269	0.965802	0.679278
	N229	N	0.594475	0.039592	0.679029
	N230	N	0.594223	0.964957	0.321896
	N231	N	0.422801	0.039327	0.322582
	N232	N	0.688396	0.416870	0.965619
	N233	N	0.689574	0.589556	0.038905
	N234	N	0.331159	0.588512	0.965396
	N235	N	0.330952	0.416749	0.038999
	N236	N	0.971951	0.682554	0.416040
	N237	N	0.046130	0.682536	0.587610
	N238	N	0.972012	0.325294	0.587387
	N239	N	0.045760	0.324864	0.415221
	N240	N	0.973412	0.416170	0.681576
	N241	N	0.047367	0.588541	0.679556
	N242	N	0.973095	0.591244	0.321604
	N243	N	0.046698	0.420024	0.324221
	N244	N	0.425050	0.679039	0.964389
	N245	N	0.596077	0.682013	0.038397
	N246	N	0.595470	0.324882	0.964679
	N247	N	0.423837	0.324182	0.038624
	N248	N	0.688606	0.966000	0.413565
	N249	N	0.685812	0.039993	0.585150
	N250	N	0.328262	0.967080	0.587715
	N251	N	0.330545	0.040363	0.415561
	N252	N	0.924015	0.466560	0.180607
	N253	N	0.095021	0.540540	0.179179
	N254	N	0.097459	0.466237	0.821629
	N255	N	0.926293	0.540492	0.824616
	N256	N	0.185343	0.919940	0.464563
	N257	N	0.188189	0.091634	0.537837
	N258	N	0.830913	0.088831	0.463970
	N259	N	0.828363	0.916720	0.538467
	N260	N	0.472320	0.181947	0.914713
	N261	N	0.546307	0.181713	0.086668
	N262	N	0.471606	0.823874	0.086348
	N263	N	0.545989	0.822717	0.913970
	N264	N	0.471139	0.917118	0.178877
	N265	N	0.545647	0.088427	0.179395
	N266	N	0.471138	0.086908	0.823383
	N267	N	0.545608	0.915951	0.820837
	N268	N	0.922599	0.182290	0.464888
	N269	N	0.093517	0.182220	0.538946
	N270	N	0.094316	0.825807	0.465317
	N271	N	0.922309	0.825035	0.539584
	N272	N	0.188681	0.465626	0.915984
	N273	N	0.188141	0.539557	0.087406
	N274	N	0.830653	0.466515	0.088892
	N275	N	0.831370	0.539374	0.915597
	O276	O	0.007010	-0.021230	0.025862
	H277	H	0.005995	-0.026997	0.033358
	H278	H	0.002188	-0.018570	0.019821
	O279	O	0.506923	0.562323	0.487504
	H280	H	0.509543	0.565057	0.486445
	H281	H	0.503068	0.564200	0.484347
	O282	O	0.470408	0.543866	0.515720
	H283	H	0.479389	0.543236	0.518661
	H284	H	0.469751	0.550093	0.513337
	O285	O	1.008069	-0.048733	1.068232
	H286	H	1.009403	-0.044950	1.078968
	H287	H	1.010489	-0.036171	1.070649
	O288	O	0.975708	0.007108	0.090776
	H289	H	0.988604	0.007424	0.072143
	H290	H	0.982222	0.009268	0.093135
	O291	O	0.584701	0.407420	0.359488
	H292	H	0.597282	0.410115	0.362823
	H293	H	0.584598	0.416235	0.361618
	O294	O	1.501034	0.546694	0.448224
	H295	H	1.507983	0.552254	0.443123
	H296	H	1.510304	0.555330	0.466096
	O297	O	-0.046348	0.007938	0.080200
	H298	H	-0.050939	0.018533	0.083890
	H299	H	-0.038914	0.019321	0.076033
	O300	O	0.574866	0.531666	0.568972
	H301	H	0.569842	0.538104	0.569843
	H302	H	0.575694	0.535807	0.571177
	O303	O	0.526215	0.427555	0.472849
	H304	H	0.528397	0.427418	0.477096
	H305	H	0.534078	0.427688	0.473207
	O306	O	0.963797	-0.014109	-0.010441
	H307	H	0.965828	-0.018858	-0.005732
	H308	H	0.957731	-0.014978	-0.000899
	O309	O	-0.063416	-0.081087	1.055495
	H310	H	-0.062781	-0.084864	1.059934
	H311	H	-0.071704	-0.090018	1.060916
	O312	O	0.990368	0.975456	0.995197
	H313	H	0.986981	0.971813	0.987482
	H314	H	0.984004	0.977161	1.004468
	O315	O	0.444451	0.363974	0.624024
	H316	H	0.434167	0.384460	0.628692
	H317	H	0.436998	0.362370	0.610576
	O318	O	0.495086	0.383796	0.544360
	H319	H	0.506634	0.388022	0.534693
	H320	H	0.484453	0.376654	0.539721
	O321	O	-0.013408	1.033948	1.003526
	H322	H	-0.014735	1.018024	1.000401
	H323	H	-0.003147	1.036081	1.003998
	O324	O	0.461388	0.526282	0.493735
	H325	H	0.452814	0.519164	0.498793
	H326	H	0.449357	0.524758	0.488541
	O327	O	0.605194	0.496109	0.652540
	H328	H	0.582701	0.493726	0.648442
	H329	H	0.596724	0.492743	0.658451
	O330	O	0.533939	0.504745	0.506820
	H331	H	0.545941	0.495452	0.492830
	H332	H	0.522266	0.500280	0.504410
	O333	O	0.607192	0.528750	0.494687
	H334	H	0.615570	0.520062	0.502787
	H335	H	0.615771	0.524401	0.498966
	O336	O	0.551270	0.580144	0.481102
	H337	H	0.546651	0.568680	0.482813
	H338	H	0.558205	0.579414	0.482573
	O339	O	0.948460	0.971859	0.075319
	H340	H	0.943702	0.958101	0.086613
	H341	H	0.934554	0.975747	0.057285
	O342	O	0.419264	0.471551	0.554139
	H343	H	0.431397	0.477591	0.555984
	H344	H	0.411190	0.468285	0.552846
	O345	O	0.510980	0.604277	0.637515
	H346	H	0.508687	0.610030	0.637572
	H347	H	0.515488	0.595940	0.643292
	O348	O	-0.079471	-0.080367	0.057642
	H349	H	-0.082269	-0.083818	0.063851
	H350	H	-0.067030	-0.082734	0.059095
	O351	O	-0.471546	0.521734	0.433388
	H352	H	-0.470566	0.527870	0.434941
	H353	H	-0.472197	0.524739	0.438006
	O354	O	0.515784	0.602486	0.481228
	H355	H	0.517282	0.592301	0.485059
	H356	H	0.521325	0.608175	0.480646
	O357	O	-0.563059	1.488069	0.538746
	H358	H	-0.553610	1.494225	0.545091
	H359	H	-0.564481	1.490431	0.521977
