data_Molecule from HDF5

_cell_length_a		16.143194
_cell_length_b		16.299543
_cell_length_c		16.400294
_cell_angle_alpha	89.959390
_cell_angle_beta	89.960777
_cell_angle_gamma	89.325446
_symmetry_space_group_name_H-M	'P 1'
_symmetry_Int_Tables_number		1

loop_
	_symmetry_equiv_pos_as_xyz
	x,y,z

loop_
	_atom_site_label
	_atom_site_type_symbol
	_atom_site_fract_x
	_atom_site_fract_y
	_atom_site_fract_z
	H0	H	0.393186	0.842996	0.721993
	H1	H	0.593183	0.167276	0.716475
	H2	H	0.598615	0.842029	0.285476
	H3	H	0.390034	0.167442	0.284215
	H4	H	0.715141	0.405353	0.838990
	H5	H	0.712665	0.601372	0.165098
	H6	H	0.281925	0.604911	0.838801
	H7	H	0.284373	0.409157	0.165002
	H8	H	0.831871	0.720165	0.402361
	H9	H	0.161008	0.716038	0.600852
	H10	H	0.830304	0.295044	0.602050
	H11	H	0.158975	0.284114	0.403125
	H12	H	0.833962	0.404372	0.720867
	H13	H	0.161843	0.600338	0.715169
	H14	H	0.834096	0.607109	0.284851
	H15	H	0.161440	0.400135	0.288098
	H16	H	0.397618	0.723037	0.839549
	H17	H	0.597083	0.720534	0.165317
	H18	H	0.601809	0.286463	0.840093
	H19	H	0.398066	0.288570	0.163412
	H20	H	0.712134	0.841499	0.404779
	H21	H	0.705011	0.168413	0.599438
	H22	H	0.285566	0.838579	0.598791
	H23	H	0.278073	0.168039	0.406332
	H24	H	0.897921	0.341964	0.220412
	H25	H	0.100160	0.665678	0.221949
	H26	H	0.103223	0.341625	0.785224
	H27	H	0.894158	0.666232	0.784747
	H28	H	0.212802	0.901964	0.340995
	H29	H	0.207952	0.100839	0.665912
	H30	H	0.777515	0.104848	0.340010
	H31	H	0.782894	0.909582	0.666516
	H32	H	0.333671	0.223669	0.902554
	H33	H	0.663009	0.215377	0.100334
	H34	H	0.332486	0.792049	0.101679
	H35	H	0.661187	0.789194	0.902287
	H36	H	0.332964	0.904513	0.216873
	H37	H	0.658783	0.106309	0.220866
	H38	H	0.331868	0.108515	0.787408
	H39	H	0.659628	0.903171	0.785110
	H40	H	0.889620	0.225291	0.341653
	H41	H	0.093068	0.219121	0.665071
	H42	H	0.097251	0.785648	0.340539
	H43	H	0.894856	0.787126	0.664482
	H44	H	0.216230	0.342163	0.903638
	H45	H	0.207681	0.669827	0.098699
	H46	H	0.786003	0.339497	0.100197
	H47	H	0.781735	0.667597	0.903567
	H48	H	0.404155	0.120806	0.600198
	H49	H	0.592161	0.886423	0.595163
	H50	H	0.578016	0.118591	0.408315
	H51	H	0.410693	0.887448	0.396052
	H52	H	0.595076	0.415838	0.116231
	H53	H	0.590925	0.594455	0.887571
	H54	H	0.397426	0.599961	0.118665
	H55	H	0.407471	0.418040	0.887977
	H56	H	0.111263	0.587718	0.413014
	H57	H	0.878869	0.593441	0.599535
	H58	H	0.114923	0.407859	0.596409
	H59	H	0.878702	0.414710	0.409795
	H60	H	0.113500	0.407580	0.591541
	H61	H	0.877354	0.600966	0.595614
	H62	H	0.115432	0.594197	0.404913
	H63	H	0.880058	0.416029	0.411137
	H64	H	0.407524	0.594154	0.114375
	H65	H	0.585467	0.599683	0.888247
	H66	H	0.585120	0.408334	0.115250
	H67	H	0.412298	0.412913	0.888482
	H68	H	0.584064	0.118971	0.413960
	H69	H	0.587400	0.887541	0.599337
	H70	H	0.402928	0.117817	0.590173
	H71	H	0.410356	0.893169	0.416847
	H72	H	0.909395	0.617970	0.094750
	H73	H	0.097515	0.386404	0.098750
	H74	H	0.093935	0.623567	0.902322
	H75	H	0.908619	0.386668	0.904855
	H76	H	0.083750	0.902558	0.618687
	H77	H	0.081254	0.088777	0.390612
	H78	H	0.905735	0.097251	0.615027
	H79	H	0.906693	0.914326	0.389895
	H80	H	0.616315	0.098163	0.904813
	H81	H	0.383023	0.093050	0.088504
	H82	H	0.612112	0.922649	0.097262
	H83	H	0.379837	0.915855	0.907770
	H84	H	0.618970	0.905374	0.101837
	H85	H	0.378711	0.097682	0.097854
	H86	H	0.613586	0.096155	0.911101
	H87	H	0.378473	0.912934	0.912778
	H88	H	0.899527	0.108604	0.620734
	H89	H	0.079975	0.099917	0.388370
	H90	H	0.095324	0.908017	0.619921
	H91	H	0.905013	0.907818	0.386663
	H92	H	0.080280	0.619550	0.903434
	H93	H	0.084597	0.389870	0.098702
	H94	H	0.904352	0.619133	0.092107
	H95	H	0.913418	0.390017	0.911408
	H96	H	0.394316	0.122059	0.595420
	H97	H	0.586609	0.889364	0.593362
	H98	H	0.585195	0.121826	0.406196
	H99	H	0.393242	0.884871	0.408079
	H100	H	0.595898	0.404617	0.119766
	H101	H	0.592711	0.601146	0.885911
	H102	H	0.407929	0.605721	0.118029
	H103	H	0.405268	0.411710	0.885581
	H104	H	0.114161	0.599145	0.415095
	H105	H	0.881429	0.594219	0.590517
	H106	H	0.113385	0.412392	0.593479
	H107	H	0.879887	0.416784	0.409174
	H108	H	0.904338	0.620118	0.097115
	H109	H	0.091756	0.390523	0.088323
	H110	H	0.089018	0.618411	0.914327
	H111	H	0.904819	0.388166	0.912293
	H112	H	0.085513	0.914526	0.615517
	H113	H	0.090476	0.094853	0.386342
	H114	H	0.891922	0.096824	0.618759
	H115	H	0.899710	0.913112	0.387334
	H116	H	0.613564	0.091461	0.905740
	H117	H	0.379635	0.103975	0.088423
	H118	H	0.612086	0.908925	0.084144
	H119	H	0.381407	0.918030	0.912919
	C120	C	0.372480	0.012509	0.624409
	C121	C	0.615625	0.995980	0.623619
	C122	C	0.615248	0.012899	0.380549
	C123	C	0.372956	0.996056	0.378658
	C124	C	0.621828	0.380930	0.010056
	C125	C	0.619313	0.626963	0.994387
	C126	C	0.374858	0.629156	0.009950
	C127	C	0.378243	0.385201	0.993956
	C128	C	0.005173	0.624826	0.381072
	C129	C	0.988086	0.624199	0.623631
	C130	C	0.005021	0.382469	0.623783
	C131	C	0.987951	0.383248	0.380946
	C132	C	0.877020	0.511792	0.123866
	C133	C	0.119707	0.496529	0.124344
	C134	C	0.119379	0.512943	0.879138
	C135	C	0.877575	0.495666	0.880358
	C136	C	0.117892	0.879479	0.510976
	C137	C	0.113681	0.123597	0.495332
	C138	C	0.869898	0.129301	0.510925
	C139	C	0.874525	0.882993	0.494901
	C140	C	0.505933	0.126693	0.879334
	C141	C	0.488751	0.126008	0.122035
	C142	C	0.505466	0.883952	0.123109
	C143	C	0.488127	0.884982	0.881211
	C144	C	0.374769	0.890595	0.681768
	C145	C	0.612758	0.118749	0.678533
	C146	C	0.616923	0.890375	0.324590
	C147	C	0.371200	0.118666	0.322711
	C148	C	0.677487	0.384457	0.887814
	C149	C	0.674624	0.622915	0.116595
	C150	C	0.319635	0.626094	0.887540
	C151	C	0.322156	0.387826	0.116265
	C152	C	0.881330	0.681716	0.382688
	C153	C	0.111798	0.678945	0.621508
	C154	C	0.880375	0.330406	0.622459
	C155	C	0.110504	0.323478	0.382684
	C156	C	0.882346	0.385131	0.681372
	C157	C	0.112189	0.621241	0.678217
	C158	C	0.882298	0.625446	0.324283
	C159	C	0.111757	0.381257	0.325724
	C160	C	0.377020	0.684747	0.888007
	C161	C	0.617524	0.682439	0.116523
	C162	C	0.621109	0.325391	0.888121
	C163	C	0.378833	0.327920	0.115559
	C164	C	0.673541	0.890301	0.383520
	C165	C	0.668420	0.119427	0.620150
	C166	C	0.320670	0.888451	0.620838
	C167	C	0.315543	0.118931	0.383381
	C168	C	0.878099	0.390081	0.181277
	C169	C	0.118702	0.617890	0.182090
	C170	C	0.121075	0.390271	0.824061
	C171	C	0.876297	0.617999	0.824042
	C172	C	0.174236	0.881702	0.389290
	C173	C	0.170030	0.121350	0.617070
	C174	C	0.814950	0.125893	0.388791
	C175	C	0.820058	0.887308	0.617598
	C176	C	0.382656	0.185377	0.881582
	C177	C	0.612859	0.179428	0.121069
	C178	C	0.381731	0.829425	0.121118
	C179	C	0.611563	0.827375	0.882202
	C180	C	0.381799	0.885474	0.178516
	C181	C	0.610818	0.124935	0.180845
	C182	C	0.381854	0.127932	0.824358
	C183	C	0.610995	0.884219	0.824089
	C184	C	0.870726	0.185858	0.389555
	C185	C	0.112833	0.180326	0.616796
	C186	C	0.117270	0.823247	0.389312
	C187	C	0.875878	0.826543	0.616409
	C188	C	0.177668	0.390666	0.882579
	C189	C	0.172256	0.619849	0.120725
	C190	C	0.822794	0.388851	0.121372
	C191	C	0.820228	0.618632	0.883088
	C192	C	0.394137	0.098068	0.601876
	C193	C	0.594763	0.910038	0.602193
	C194	C	0.589946	0.097765	0.402885
	C195	C	0.397602	0.910599	0.400366
	C196	C	0.598816	0.403007	0.095021
	C197	C	0.596449	0.604889	0.909228
	C198	C	0.397473	0.606529	0.095062
	C199	C	0.401492	0.407687	0.909243
	C200	C	0.091301	0.600676	0.404032
	C201	C	0.901698	0.602652	0.601646
	C202	C	0.091601	0.403166	0.600470
	C203	C	0.901993	0.408584	0.403379
	C204	C	0.899445	0.596961	0.101245
	C205	C	0.097754	0.411041	0.101806
	C206	C	0.094959	0.598385	0.900373
	C207	C	0.901898	0.410518	0.902905
	C208	C	0.094932	0.902012	0.596188
	C209	C	0.090592	0.101128	0.410415
	C210	C	0.892427	0.107416	0.596132
	C211	C	0.897294	0.905430	0.409850
	C212	C	0.592139	0.102424	0.900991
	C213	C	0.402745	0.104401	0.098618
	C214	C	0.591979	0.905933	0.100826
	C215	C	0.401973	0.908740	0.904540
	Zn216	Zn	0.495321	0.004486	0.751833
	Zn217	Zn	0.495554	0.004942	0.249882
	Zn218	Zn	0.748931	0.503731	0.002332
	Zn219	Zn	0.247109	0.506074	0.001911
	Zn220	Zn	-0.003708	0.751710	0.502729
	Zn221	Zn	-0.006256	0.255881	0.502820
	Zn222	Zn	-0.001880	0.503504	0.751251
	Zn223	Zn	-0.001639	0.504332	0.252775
	Zn224	Zn	0.497117	0.757034	0.002778
	Zn225	Zn	0.498889	0.253694	0.001279
	Zn226	Zn	0.743742	0.004948	0.503054
	Zn227	Zn	0.245153	0.002747	0.502779
	N228	N	0.406092	0.968879	0.684354
	N229	N	0.580550	0.041005	0.680685
	N230	N	0.581400	0.967580	0.322459
	N231	N	0.406043	0.041259	0.319718
	N232	N	0.677679	0.418534	0.964425
	N233	N	0.675717	0.589106	0.039778
	N234	N	0.318305	0.592193	0.964371
	N235	N	0.321742	0.422653	0.039967
	N236	N	0.958932	0.681303	0.417376
	N237	N	0.033667	0.680750	0.588187
	N238	N	0.957749	0.328808	0.587048
	N239	N	0.032435	0.324514	0.416186
	N240	N	0.960943	0.416488	0.682411
	N241	N	0.034361	0.587973	0.679532
	N242	N	0.960326	0.590741	0.323345
	N243	N	0.034312	0.417562	0.324405
	N244	N	0.410302	0.686867	0.965094
	N245	N	0.584038	0.685227	0.039304
	N246	N	0.587020	0.323095	0.965003
	N247	N	0.413052	0.326226	0.038562
	N248	N	0.672629	0.967409	0.417505
	N249	N	0.670354	0.042165	0.586520
	N250	N	0.319143	0.965062	0.585901
	N251	N	0.316289	0.041652	0.417229
	N252	N	0.911031	0.467528	0.182912
	N253	N	0.086486	0.540136	0.184140
	N254	N	0.085523	0.467195	0.821941
	N255	N	0.911168	0.540508	0.822038
	N256	N	0.175062	0.915681	0.466171
	N257	N	0.170646	0.086828	0.540583
	N258	N	0.814481	0.091522	0.465263
	N259	N	0.818980	0.921669	0.540914
	N260	N	0.460841	0.184927	0.914868
	N261	N	0.535971	0.180332	0.085060
	N262	N	0.459821	0.828220	0.087412
	N263	N	0.534077	0.827798	0.917031
	N264	N	0.459734	0.918606	0.179968
	N265	N	0.532504	0.092475	0.181663
	N266	N	0.459371	0.091909	0.822921
	N267	N	0.533219	0.919400	0.823446
	N268	N	0.904242	0.188178	0.466550
	N269	N	0.078266	0.181829	0.540092
	N270	N	0.082911	0.821970	0.465946
	N271	N	0.908973	0.823776	0.539162
	N272	N	0.176505	0.467938	0.916419
	N273	N	0.172934	0.543395	0.085344
	N274	N	0.821961	0.465404	0.086223
	N275	N	0.820865	0.541731	0.917507
	O276	O	0.519110	0.515666	0.460042
	H277	H	0.530266	0.514076	0.455627
	H278	H	0.516891	0.514837	0.466263
	O279	O	0.375643	0.556834	0.440461
	H280	H	0.375095	0.550373	0.437307
	H281	H	0.366015	0.570770	0.434043
	O282	O	0.949302	1.038860	0.105972
	H283	H	0.955183	1.041468	0.099571
	H284	H	0.953723	1.041415	0.094930
	O285	O	0.944450	0.057129	1.094042
	H286	H	0.947103	0.062047	1.092284
	H287	H	0.947029	0.055416	1.100780
	O288	O	0.523818	0.494883	0.476166
	H289	H	0.520977	0.486198	0.468865
	H290	H	0.530433	0.498700	0.474719
	O291	O	0.573954	0.554632	0.529016
	H292	H	0.564604	0.561152	0.520354
	H293	H	0.576815	0.558239	0.521898
	O294	O	0.460845	0.591607	0.519573
	H295	H	0.459111	0.590644	0.507571
	H296	H	0.464910	0.588491	0.526733
	O297	O	-0.000859	-0.023154	1.016539
	H298	H	0.001166	-0.024652	1.022067
	H299	H	0.001044	-0.007897	1.006707
	O300	O	1.059428	-0.141598	0.913224
	H301	H	1.063098	-0.144873	0.921859
	H302	H	1.062428	-0.152130	0.909866
	O303	O	1.051722	1.000907	0.150728
	H304	H	1.045746	1.020916	0.145979
	H305	H	1.046972	0.995647	0.151270
	O306	O	0.113026	1.114845	0.971062
	H307	H	0.120986	1.096795	0.967939
	H308	H	0.096295	1.120229	0.971389
	O309	O	0.505412	0.495439	0.457172
	H310	H	0.502012	0.481691	0.450456
	H311	H	0.509937	0.499181	0.454119
	O312	O	0.031416	-0.001044	-0.107016
	H313	H	0.038415	-0.011760	-0.105741
	H314	H	0.043934	-0.003948	-0.101662
	O315	O	0.983096	-0.015509	-0.049942
	H316	H	0.972310	-0.021575	-0.048858
	H317	H	0.996187	-0.023276	-0.053037
	O318	O	1.078683	1.083884	1.145393
	H319	H	1.072753	1.097926	1.142306
	H320	H	1.073825	1.089810	1.159365
	O321	O	-0.398114	-0.548545	0.487644
	H322	H	-0.387744	-0.555610	0.487543
	H323	H	-0.396952	-0.556546	0.493286
	O324	O	0.440946	0.540817	0.432365
	H325	H	0.444063	0.558003	0.428887
	H326	H	0.436323	0.544306	0.431472
	O327	O	-0.023550	0.061961	-0.050690
	H328	H	-0.035667	0.057922	-0.059219
	H329	H	-0.010312	0.058908	-0.046814
	O330	O	0.579615	0.408188	0.449057
	H331	H	0.580702	0.406849	0.456730
	H332	H	0.588262	0.404180	0.450480
	O333	O	-0.034976	0.955725	1.047243
	H334	H	-0.031475	0.962877	1.044060
	H335	H	-0.047717	0.958348	1.043208
	O336	O	0.059993	0.051829	0.028103
	H337	H	0.049427	0.042533	0.025023
	H338	H	0.066659	0.046720	0.036779
	O339	O	0.436200	0.440097	0.495166
	H340	H	0.432104	0.436229	0.490419
	H341	H	0.426976	0.446110	0.495800
	O342	O	0.907933	0.975861	1.031178
	H343	H	0.913661	0.970543	1.038725
	H344	H	0.911522	0.980968	1.033940
	O345	O	0.937361	1.028645	-0.012585
	H346	H	0.937779	1.029014	-0.014302
	H347	H	0.956152	1.021202	-0.020147
	O348	O	0.538931	0.446568	0.501916
	H349	H	0.537249	0.434637	0.500620
	H350	H	0.542682	0.445394	0.509440
	O351	O	0.446872	0.426175	0.616030
	H352	H	0.443651	0.425190	0.619301
	H353	H	0.444596	0.431096	0.618445
	O354	O	0.478817	0.434919	0.525401
	H355	H	0.475268	0.436550	0.536284
	H356	H	0.481953	0.435913	0.520491
	O357	O	0.980019	-0.046308	1.018074
	H358	H	0.972389	-0.043301	1.018365
	H359	H	0.986955	-0.047499	1.021877
	O360	O	0.498856	0.519602	0.565712
	H361	H	0.507369	0.517844	0.578090
	H362	H	0.492163	0.508425	0.567407
	O363	O	1.014494	0.934318	0.081618
	H364	H	1.013737	0.924721	0.078480
	H365	H	1.018514	0.944295	0.096035
	O366	O	1.021952	1.076220	0.864540
	H367	H	1.016863	1.071932	0.864391
	H368	H	1.017637	1.077629	0.871270
	O369	O	1.011582	0.059471	0.998430
	H370	H	1.021310	0.063027	0.984763
	H371	H	1.002557	0.077195	1.004165
	O372	O	0.065474	-0.032501	-0.066496
	H373	H	0.059531	-0.031435	-0.080544
	H374	H	0.071036	-0.023907	-0.068830
	O375	O	0.954055	-0.114408	-0.007310
	H376	H	0.948035	-0.121184	-0.006358
	H377	H	0.963084	-0.113563	0.003070
	O378	O	0.544361	0.483613	0.525050
	H379	H	0.544736	0.491260	0.523934
	H380	H	0.545638	0.480187	0.529489
	O381	O	0.503750	0.519909	0.438492
	H382	H	0.504094	0.516127	0.426012
	H383	H	0.514400	0.524903	0.442632
