data_Molecule from HDF5

_cell_length_a		16.372804
_cell_length_b		16.311317
_cell_length_c		16.278608
_cell_angle_alpha	90.148233
_cell_angle_beta	90.182990
_cell_angle_gamma	90.173238
_symmetry_space_group_name_H-M	'P 1'
_symmetry_Int_Tables_number		1

loop_
	_symmetry_equiv_pos_as_xyz
	x,y,z

loop_
	_atom_site_label
	_atom_site_type_symbol
	_atom_site_fract_x
	_atom_site_fract_y
	_atom_site_fract_z
	H0	H	0.404569	0.831284	0.711176
	H1	H	0.600505	0.159152	0.712574
	H2	H	0.597538	0.831553	0.283374
	H3	H	0.404580	0.159640	0.284020
	H4	H	0.714182	0.395885	0.834005
	H5	H	0.718061	0.595407	0.161084
	H6	H	0.286776	0.593364	0.833692
	H7	H	0.285569	0.396135	0.161312
	H8	H	0.839032	0.709769	0.399051
	H9	H	0.165690	0.710179	0.596309
	H10	H	0.839059	0.280762	0.593690
	H11	H	0.165319	0.280764	0.399317
	H12	H	0.838413	0.397576	0.710468
	H13	H	0.164627	0.594618	0.713587
	H14	H	0.838260	0.591634	0.283658
	H15	H	0.165102	0.397862	0.282868
	H16	H	0.402531	0.709408	0.834782
	H17	H	0.601737	0.711857	0.161386
	H18	H	0.596757	0.281940	0.834058
	H19	H	0.402676	0.281328	0.161894
	H20	H	0.716408	0.831645	0.397836
	H21	H	0.718117	0.158307	0.597515
	H22	H	0.286821	0.831950	0.595998
	H23	H	0.287779	0.159159	0.400049
	H24	H	0.903296	0.331609	0.211906
	H25	H	0.100901	0.659760	0.212714
	H26	H	0.097141	0.331824	0.784070
	H27	H	0.903385	0.659594	0.783784
	H28	H	0.215494	0.897283	0.334005
	H29	H	0.217422	0.094737	0.661702
	H30	H	0.787249	0.092738	0.334411
	H31	H	0.788489	0.897231	0.662254
	H32	H	0.338257	0.207595	0.899787
	H33	H	0.663936	0.212495	0.097897
	H34	H	0.338096	0.781370	0.094129
	H35	H	0.664603	0.780047	0.898818
	H36	H	0.338670	0.896585	0.212051
	H37	H	0.664902	0.094810	0.213260
	H38	H	0.339195	0.091436	0.782771
	H39	H	0.665570	0.898412	0.784586
	H40	H	0.905177	0.207151	0.333186
	H41	H	0.101413	0.210373	0.661665
	H42	H	0.098360	0.782174	0.334031
	H43	H	0.905165	0.782021	0.662811
	H44	H	0.215605	0.332366	0.897998
	H45	H	0.218814	0.658653	0.098399
	H46	H	0.787035	0.331320	0.095250
	H47	H	0.785670	0.658312	0.898510
	H48	H	0.406942	0.111727	0.589601
	H49	H	0.593276	0.880446	0.590616
	H50	H	0.587464	0.106312	0.413276
	H51	H	0.414469	0.879627	0.397287
	H52	H	0.590839	0.404076	0.113191
	H53	H	0.590494	0.587759	0.883137
	H54	H	0.407202	0.582297	0.112633
	H55	H	0.396646	0.410343	0.881524
	H56	H	0.116929	0.586651	0.404464
	H57	H	0.886159	0.585760	0.596522
	H58	H	0.114958	0.405433	0.586574
	H59	H	0.886006	0.400894	0.401919
	H60	H	0.118467	0.406445	0.597604
	H61	H	0.884518	0.594567	0.588052
	H62	H	0.117682	0.590147	0.402432
	H63	H	0.886291	0.399015	0.404312
	H64	H	0.415422	0.588643	0.112343
	H65	H	0.595358	0.588968	0.881342
	H66	H	0.595638	0.400658	0.115673
	H67	H	0.419303	0.406308	0.886291
	H68	H	0.607589	0.112771	0.410187
	H69	H	0.597514	0.879302	0.588035
	H70	H	0.410873	0.111592	0.593000
	H71	H	0.410309	0.882699	0.412959
	H72	H	0.905761	0.611850	0.088788
	H73	H	0.098163	0.376815	0.095233
	H74	H	0.089859	0.608774	0.909511
	H75	H	0.900490	0.378204	0.906971
	H76	H	0.099631	0.900010	0.616246
	H77	H	0.093963	0.089821	0.381860
	H78	H	0.912854	0.091994	0.614175
	H79	H	0.906033	0.901114	0.381327
	H80	H	0.619997	0.093576	0.901973
	H81	H	0.388170	0.079757	0.095465
	H82	H	0.618631	0.901971	0.094510
	H83	H	0.383758	0.900119	0.894978
	H84	H	0.616908	0.900546	0.087381
	H85	H	0.382319	0.096389	0.094498
	H86	H	0.615845	0.090430	0.910913
	H87	H	0.385261	0.894524	0.908759
	H88	H	0.905481	0.089956	0.615802
	H89	H	0.097686	0.087783	0.380941
	H90	H	0.096597	0.908473	0.613496
	H91	H	0.908833	0.904101	0.382705
	H92	H	0.101276	0.613021	0.908973
	H93	H	0.086726	0.382318	0.090969
	H94	H	0.908211	0.612145	0.093832
	H95	H	0.906884	0.377478	0.896269
	H96	H	0.411246	0.109481	0.588652
	H97	H	0.597251	0.878026	0.592647
	H98	H	0.593172	0.114432	0.394452
	H99	H	0.398658	0.876418	0.402088
	H100	H	0.596887	0.406861	0.113522
	H101	H	0.594455	0.583992	0.883080
	H102	H	0.405921	0.592115	0.116154
	H103	H	0.405812	0.388545	0.877198
	H104	H	0.117466	0.589960	0.406824
	H105	H	0.889920	0.584129	0.584463
	H106	H	0.119865	0.396131	0.591842
	H107	H	0.887148	0.402262	0.404381
	H108	H	0.911256	0.610313	0.089486
	H109	H	0.096929	0.381229	0.083090
	H110	H	0.094378	0.613766	0.899179
	H111	H	0.912403	0.382073	0.906683
	H112	H	0.090625	0.901092	0.613304
	H113	H	0.094408	0.085551	0.383055
	H114	H	0.910336	0.083784	0.612356
	H115	H	0.909380	0.899970	0.382191
	H116	H	0.616962	0.083755	0.902853
	H117	H	0.388884	0.087787	0.080570
	H118	H	0.615714	0.906982	0.090125
	H119	H	0.389271	0.909140	0.905741
	C120	C	0.380930	0.003234	0.618947
	C121	C	0.624564	0.987263	0.619617
	C122	C	0.623455	0.003225	0.376840
	C123	C	0.379853	0.987504	0.375857
	C124	C	0.622408	0.374299	0.006163
	C125	C	0.623071	0.616691	0.990069
	C126	C	0.380551	0.616076	0.005944
	C127	C	0.379071	0.373454	0.989894
	C128	C	0.009869	0.616740	0.376216
	C129	C	0.994201	0.617204	0.619199
	C130	C	0.009991	0.373979	0.619275
	C131	C	0.994006	0.373009	0.375629
	C132	C	0.880041	0.503327	0.119086
	C133	C	0.123384	0.488020	0.119283
	C134	C	0.122697	0.503803	0.876873
	C135	C	0.878892	0.487287	0.875324
	C136	C	0.123548	0.874438	0.506196
	C137	C	0.123929	0.116889	0.489863
	C138	C	0.881134	0.116650	0.505955
	C139	C	0.880256	0.873385	0.490369
	C140	C	0.510143	0.116689	0.876407
	C141	C	0.493526	0.117445	0.119585
	C142	C	0.509280	0.874549	0.118792
	C143	C	0.494095	0.873296	0.875435
	C144	C	0.383861	0.880053	0.673380
	C145	C	0.621301	0.110277	0.674640
	C146	C	0.619078	0.880305	0.321441
	C147	C	0.383342	0.110627	0.321315
	C148	C	0.676709	0.375733	0.882962
	C149	C	0.679542	0.615486	0.112493
	C150	C	0.325167	0.613247	0.882598
	C151	C	0.323916	0.376073	0.112696
	C152	C	0.887445	0.671786	0.378611
	C153	C	0.116770	0.672675	0.617103
	C154	C	0.887556	0.318700	0.615109
	C155	C	0.116740	0.318517	0.378264
	C156	C	0.887226	0.376572	0.673124
	C157	C	0.116474	0.614783	0.675061
	C158	C	0.886823	0.613047	0.321365
	C159	C	0.116643	0.376616	0.320493
	C160	C	0.382565	0.670753	0.882940
	C161	C	0.621462	0.673015	0.112801
	C162	C	0.618255	0.319231	0.882952
	C163	C	0.382135	0.318873	0.112894
	C164	C	0.678157	0.880436	0.378296
	C165	C	0.679916	0.109847	0.617727
	C166	C	0.325154	0.880569	0.616455
	C167	C	0.325122	0.110427	0.378622
	C168	C	0.882874	0.380295	0.173742
	C169	C	0.121379	0.610902	0.174857
	C170	C	0.118383	0.380678	0.821935
	C171	C	0.882701	0.610701	0.821442
	C172	C	0.177754	0.876776	0.382923
	C173	C	0.179449	0.115038	0.612866
	C174	C	0.825885	0.112979	0.382831
	C175	C	0.825950	0.876526	0.613432
	C176	C	0.387180	0.170771	0.878861
	C177	C	0.615760	0.173798	0.118047
	C178	C	0.386806	0.819164	0.115375
	C179	C	0.616085	0.817936	0.878380
	C180	C	0.387102	0.876499	0.173887
	C181	C	0.616051	0.115511	0.175400
	C182	C	0.387388	0.112859	0.820995
	C183	C	0.616658	0.876663	0.821522
	C184	C	0.884227	0.170053	0.382335
	C185	C	0.121751	0.172465	0.612932
	C186	C	0.119507	0.819783	0.382868
	C187	C	0.883639	0.819156	0.613748
	C188	C	0.177423	0.381115	0.878359
	C189	C	0.180175	0.610162	0.118115
	C190	C	0.824792	0.380263	0.116164
	C191	C	0.824280	0.610153	0.878624
	C192	C	0.403250	0.088836	0.596930
	C193	C	0.602440	0.901433	0.597003
	C194	C	0.602234	0.089174	0.399390
	C195	C	0.401458	0.901810	0.397774
	C196	C	0.600853	0.397131	0.092066
	C197	C	0.600085	0.593756	0.904615
	C198	C	0.402798	0.593976	0.091573
	C199	C	0.400717	0.395275	0.903845
	C200	C	0.095281	0.595240	0.398139
	C201	C	0.908768	0.594763	0.596342
	C202	C	0.095805	0.396057	0.598122
	C203	C	0.908567	0.394355	0.397227
	C204	C	0.901990	0.589139	0.097230
	C205	C	0.100614	0.402345	0.096397
	C206	C	0.101318	0.589602	0.899315
	C207	C	0.900444	0.401454	0.896992
	C208	C	0.101963	0.896625	0.592176
	C209	C	0.101809	0.094541	0.404151
	C210	C	0.903182	0.094984	0.591969
	C211	C	0.901776	0.895229	0.404270
	C212	C	0.595544	0.095426	0.898711
	C213	C	0.408462	0.094551	0.096869
	C214	C	0.594897	0.896660	0.097014
	C215	C	0.408297	0.894993	0.896847
	Zn216	Zn	0.502338	-0.004718	0.747201
	Zn217	Zn	0.501629	-0.003846	0.248008
	Zn218	Zn	0.751233	0.495083	-0.002589
	Zn219	Zn	0.251456	0.495514	-0.002222
	Zn220	Zn	0.002061	0.746061	0.497897
	Zn221	Zn	0.002645	0.244865	0.497365
	Zn222	Zn	0.001507	0.495786	0.747712
	Zn223	Zn	0.001999	0.495443	0.247509
	Zn224	Zn	0.501531	0.744907	-0.002321
	Zn225	Zn	0.501317	0.245616	-0.001857
	Zn226	Zn	0.752470	-0.004998	0.498073
	Zn227	Zn	0.251751	-0.004624	0.497887
	N228	N	0.417796	0.957331	0.675053
	N229	N	0.587760	0.032754	0.675944
	N230	N	0.585821	0.957577	0.320590
	N231	N	0.416620	0.033213	0.319444
	N232	N	0.679228	0.409518	0.960486
	N233	N	0.680463	0.581164	0.035193
	N234	N	0.323736	0.579919	0.960233
	N235	N	0.321893	0.409288	0.035170
	N236	N	0.964844	0.674273	0.411967
	N237	N	0.039735	0.673965	0.582854
	N238	N	0.965070	0.317068	0.582353
	N239	N	0.039682	0.316128	0.411526
	N240	N	0.964243	0.410285	0.675548
	N241	N	0.039173	0.581336	0.676474
	N242	N	0.963724	0.579702	0.319887
	N243	N	0.039409	0.409833	0.318794
	N244	N	0.416290	0.672636	0.960337
	N245	N	0.587058	0.673921	0.035618
	N246	N	0.585077	0.318349	0.960531
	N247	N	0.415568	0.317129	0.035456
	N248	N	0.681086	0.957884	0.411969
	N249	N	0.681684	0.032483	0.583880
	N250	N	0.323390	0.958094	0.583374
	N251	N	0.322964	0.033057	0.411834
	N252	N	0.916633	0.457664	0.175616
	N253	N	0.087030	0.533701	0.175835
	N254	N	0.085106	0.458026	0.820960
	N255	N	0.915720	0.533163	0.819090
	N256	N	0.180128	0.910216	0.460565
	N257	N	0.181317	0.081474	0.535327
	N258	N	0.823972	0.080339	0.460713
	N259	N	0.823760	0.909477	0.535597
	N260	N	0.464489	0.173215	0.912478
	N261	N	0.538772	0.175036	0.084140
	N262	N	0.463785	0.818085	0.081570
	N263	N	0.538596	0.815725	0.911078
	N264	N	0.464249	0.910195	0.176044
	N265	N	0.539061	0.081155	0.176434
	N266	N	0.464625	0.079733	0.819503
	N267	N	0.539743	0.910223	0.819598
	N268	N	0.917970	0.172189	0.459758
	N269	N	0.087660	0.173466	0.535615
	N270	N	0.086487	0.818322	0.460499
	N271	N	0.916681	0.817121	0.536204
	N272	N	0.180065	0.458620	0.911939
	N273	N	0.181306	0.532909	0.084142
	N274	N	0.823002	0.457707	0.082884
	N275	N	0.821863	0.532438	0.911264
	O276	O	0.029964	0.040854	1.085005
	H277	H	0.021296	0.037771	1.083351
	H278	H	0.036907	0.048179	1.089897
	O279	O	0.614214	0.560460	0.579110
	H280	H	0.605012	0.563261	0.575083
	H281	H	0.613039	0.568804	0.582389
	O282	O	0.599159	0.549880	0.571535
	H283	H	0.606780	0.545665	0.570267
	H284	H	0.612369	0.541978	0.567848
	O285	O	0.544606	0.602077	0.583715
	H286	H	0.553811	0.587029	0.582608
	H287	H	0.551045	0.609731	0.595041
	O288	O	0.002421	1.045094	0.080157
	H289	H	0.007432	1.046190	0.090128
	H290	H	0.007893	1.049426	0.075548
	O291	O	0.025674	1.055249	1.094829
	H292	H	0.020446	1.059192	1.093119
	H293	H	0.023900	1.057158	1.099065
	O294	O	0.568658	0.590337	0.560762
	H295	H	0.564380	0.602926	0.566984
	H296	H	0.561922	0.599482	0.562729
	O297	O	1.008074	0.067882	0.081933
	H298	H	1.004749	0.067339	0.081931
	H299	H	1.011222	0.062453	0.084837
