data_Molecule from HDF5

_cell_length_a		16.326875
_cell_length_b		16.120907
_cell_length_c		16.385059
_cell_angle_alpha	89.429870
_cell_angle_beta	89.661665
_cell_angle_gamma	90.142677
_symmetry_space_group_name_H-M	'P 1'
_symmetry_Int_Tables_number		1

loop_
	_symmetry_equiv_pos_as_xyz
	x,y,z

loop_
	_atom_site_label
	_atom_site_type_symbol
	_atom_site_fract_x
	_atom_site_fract_y
	_atom_site_fract_z
	H0	H	0.400493	0.836489	0.704601
	H1	H	0.601305	0.166066	0.699250
	H2	H	0.601309	0.835575	0.273853
	H3	H	0.402714	0.164575	0.271595
	H4	H	0.720646	0.400185	0.826871
	H5	H	0.716527	0.599966	0.150235
	H6	H	0.284351	0.604967	0.825270
	H7	H	0.282973	0.397799	0.149078
	H8	H	0.836835	0.715678	0.388973
	H9	H	0.164337	0.712291	0.579719
	H10	H	0.837588	0.284407	0.588540
	H11	H	0.164782	0.289938	0.391110
	H12	H	0.838358	0.396659	0.707569
	H13	H	0.161842	0.602793	0.703000
	H14	H	0.837820	0.603240	0.270913
	H15	H	0.162193	0.402323	0.270685
	H16	H	0.404718	0.717804	0.824867
	H17	H	0.598168	0.713519	0.151044
	H18	H	0.597957	0.290424	0.823375
	H19	H	0.401736	0.283599	0.149675
	H20	H	0.716155	0.835746	0.389203
	H21	H	0.715520	0.165535	0.583821
	H22	H	0.286250	0.834979	0.588262
	H23	H	0.288878	0.165499	0.387791
	H24	H	0.899481	0.337350	0.204919
	H25	H	0.100280	0.666115	0.199892
	H26	H	0.100758	0.335844	0.773243
	H27	H	0.900385	0.664569	0.771011
	H28	H	0.218452	0.901644	0.325691
	H29	H	0.217543	0.099583	0.649482
	H30	H	0.785244	0.105178	0.325965
	H31	H	0.782323	0.897199	0.649020
	H32	H	0.336728	0.215394	0.889048
	H33	H	0.664918	0.212525	0.079735
	H34	H	0.337309	0.785239	0.086431
	H35	H	0.665024	0.788877	0.890671
	H36	H	0.338758	0.897795	0.206576
	H37	H	0.663901	0.100800	0.201253
	H38	H	0.339139	0.103794	0.769302
	H39	H	0.663078	0.901139	0.770232
	H40	H	0.905758	0.217520	0.325213
	H41	H	0.098443	0.213245	0.651287
	H42	H	0.098042	0.789784	0.323495
	H43	H	0.902739	0.784578	0.649715
	H44	H	0.215555	0.336238	0.889224
	H45	H	0.213554	0.665733	0.082995
	H46	H	0.786150	0.336690	0.089047
	H47	H	0.786503	0.665369	0.886782
	H48	H	0.407955	0.116995	0.575872
	H49	H	0.598703	0.880947	0.583951
	H50	H	0.595664	0.117446	0.396261
	H51	H	0.403062	0.882180	0.400753
	H52	H	0.593488	0.406369	0.103063
	H53	H	0.593194	0.585949	0.876011
	H54	H	0.413265	0.582466	0.098321
	H55	H	0.410680	0.406971	0.871806
	H56	H	0.117509	0.603999	0.396295
	H57	H	0.883522	0.585586	0.587976
	H58	H	0.117328	0.404786	0.581600
	H59	H	0.883333	0.410551	0.391875
	H60	H	0.114996	0.410612	0.579629
	H61	H	0.881438	0.599818	0.581945
	H62	H	0.113234	0.586194	0.395556
	H63	H	0.883628	0.406441	0.396554
	H64	H	0.410407	0.602243	0.104728
	H65	H	0.589211	0.601218	0.872084
	H66	H	0.593798	0.407513	0.102723
	H67	H	0.402104	0.407321	0.868693
	H68	H	0.594769	0.119381	0.389222
	H69	H	0.585363	0.883907	0.584599
	H70	H	0.406563	0.118822	0.579834
	H71	H	0.409839	0.880275	0.390776
	H72	H	0.908069	0.620573	0.082549
	H73	H	0.085689	0.385405	0.080303
	H74	H	0.085809	0.615350	0.893311
	H75	H	0.905402	0.382794	0.899500
	H76	H	0.095744	0.909448	0.602705
	H77	H	0.100710	0.097681	0.370687
	H78	H	0.912334	0.097803	0.604295
	H79	H	0.906463	0.904147	0.368665
	H80	H	0.620338	0.107031	0.890685
	H81	H	0.384483	0.095726	0.080305
	H82	H	0.614696	0.918823	0.083242
	H83	H	0.388468	0.915510	0.898101
	H84	H	0.621698	0.900934	0.090667
	H85	H	0.385986	0.089259	0.078019
	H86	H	0.612123	0.089700	0.901830
	H87	H	0.383443	0.910453	0.889559
	H88	H	0.898492	0.090637	0.606046
	H89	H	0.095738	0.089678	0.373445
	H90	H	0.091443	0.906906	0.601944
	H91	H	0.902819	0.913727	0.371906
	H92	H	0.095721	0.616764	0.899758
	H93	H	0.096635	0.383200	0.076550
	H94	H	0.910721	0.617903	0.077506
	H95	H	0.911076	0.383044	0.894483
	H96	H	0.411004	0.117910	0.579194
	H97	H	0.591899	0.885580	0.572765
	H98	H	0.589443	0.116637	0.393079
	H99	H	0.414808	0.885421	0.400731
	H100	H	0.592744	0.406876	0.103221
	H101	H	0.603853	0.595912	0.869645
	H102	H	0.394450	0.588994	0.105319
	H103	H	0.406640	0.414079	0.873607
	H104	H	0.119848	0.595139	0.380910
	H105	H	0.886766	0.588277	0.573386
	H106	H	0.116926	0.410049	0.584225
	H107	H	0.885891	0.411932	0.397754
	H108	H	0.904732	0.619570	0.077512
	H109	H	0.092746	0.381387	0.088186
	H110	H	0.095280	0.620704	0.888146
	H111	H	0.912929	0.385878	0.901581
	H112	H	0.094748	0.904098	0.604261
	H113	H	0.090516	0.098350	0.372762
	H114	H	0.910050	0.082574	0.599058
	H115	H	0.912881	0.911487	0.373291
	H116	H	0.617253	0.087757	0.881263
	H117	H	0.384403	0.089776	0.084887
	H118	H	0.615650	0.902038	0.071630
	H119	H	0.384857	0.905129	0.898816
	C120	C	0.378960	0.009020	0.608931
	C121	C	0.621408	0.992662	0.607457
	C122	C	0.622893	0.009026	0.365029
	C123	C	0.380548	0.991523	0.366987
	C124	C	0.622659	0.378935	-0.004174
	C125	C	0.623308	0.622599	0.979743
	C126	C	0.378211	0.622352	-0.004366
	C127	C	0.377786	0.378732	0.978674
	C128	C	0.009059	0.624103	0.363242
	C129	C	0.991473	0.621239	0.608308
	C130	C	0.008867	0.378389	0.611168
	C131	C	0.991958	0.380687	0.366507
	C132	C	0.878955	0.510306	0.109226
	C133	C	0.120634	0.492509	0.108382
	C134	C	0.121959	0.509081	0.865625
	C135	C	0.879967	0.492149	0.867423
	C136	C	0.122613	0.878932	0.495601
	C137	C	0.123896	0.123077	0.479575
	C138	C	0.879203	0.121976	0.496345
	C139	C	0.878223	0.879210	0.478534
	C140	C	0.509076	0.124282	0.863332
	C141	C	0.492772	0.121110	0.108151
	C142	C	0.509394	0.878026	0.110415
	C143	C	0.493001	0.880490	0.866340
	C144	C	0.380401	0.885435	0.666160
	C145	C	0.620321	0.116698	0.661702
	C146	C	0.621189	0.884833	0.311312
	C147	C	0.382795	0.115419	0.309968
	C148	C	0.680499	0.380920	0.874469
	C149	C	0.678193	0.619973	0.101905
	C150	C	0.322869	0.623376	0.873720
	C151	C	0.321670	0.378548	0.100763
	C152	C	0.886029	0.678437	0.367541
	C153	C	0.114795	0.676289	0.603097
	C154	C	0.886343	0.321950	0.609273
	C155	C	0.115483	0.326928	0.369920
	C156	C	0.886925	0.377840	0.668537
	C157	C	0.113665	0.621730	0.663943
	C158	C	0.886514	0.622699	0.308561
	C159	C	0.114347	0.382796	0.310023
	C160	C	0.382828	0.679498	0.873428
	C161	C	0.619215	0.676330	0.102269
	C162	C	0.619565	0.326420	0.872594
	C163	C	0.380591	0.322003	0.101167
	C164	C	0.678421	0.885041	0.368504
	C165	C	0.677384	0.116363	0.604225
	C166	C	0.323930	0.884782	0.608002
	C167	C	0.326174	0.115919	0.367861
	C168	C	0.879942	0.386636	0.166349
	C169	C	0.119589	0.616756	0.162212
	C170	C	0.120517	0.385308	0.810763
	C171	C	0.880761	0.615518	0.809779
	C172	C	0.179179	0.881701	0.373730
	C173	C	0.179302	0.120048	0.601219
	C174	C	0.823951	0.123627	0.374248
	C175	C	0.821550	0.878438	0.600554
	C176	C	0.385939	0.178424	0.867818
	C177	C	0.615962	0.176058	0.102705
	C178	C	0.386315	0.822399	0.107982
	C179	C	0.615962	0.825886	0.869354
	C180	C	0.387189	0.878282	0.167540
	C181	C	0.615458	0.120247	0.162916
	C182	C	0.387059	0.122922	0.808207
	C183	C	0.615001	0.881716	0.809360
	C184	C	0.883852	0.179318	0.373790
	C185	C	0.119740	0.176177	0.602373
	C186	C	0.119677	0.825850	0.372779
	C187	C	0.880881	0.821956	0.601011
	C188	C	0.177222	0.385166	0.868823
	C189	C	0.176067	0.616511	0.104261
	C190	C	0.823481	0.386198	0.108833
	C191	C	0.824433	0.616047	0.867656
	C192	C	0.401761	0.095497	0.585264
	C193	C	0.598649	0.905757	0.586434
	C194	C	0.600087	0.095490	0.386548
	C195	C	0.402807	0.904916	0.390456
	C196	C	0.599954	0.400626	0.080993
	C197	C	0.601760	0.600825	0.894656
	C198	C	0.399723	0.598266	0.080773
	C199	C	0.400163	0.402573	0.893447
	C200	C	0.094706	0.601516	0.384501
	C201	C	0.906161	0.598065	0.587425
	C202	C	0.094356	0.401701	0.588401
	C203	C	0.906512	0.402923	0.388839
	C204	C	0.901280	0.597060	0.086011
	C205	C	0.098247	0.405804	0.087734
	C206	C	0.099021	0.595496	0.887462
	C207	C	0.903122	0.406149	0.891361
	C208	C	0.100395	0.900325	0.581027
	C209	C	0.102146	0.101612	0.394213
	C210	C	0.900619	0.097561	0.581088
	C211	C	0.900814	0.902927	0.393412
	C212	C	0.594602	0.101708	0.884935
	C213	C	0.407167	0.098219	0.087449
	C214	C	0.595124	0.900598	0.088240
	C215	C	0.407578	0.903490	0.888933
	Zn216	Zn	0.500543	0.001939	0.736251
	Zn217	Zn	0.501455	-0.000391	0.238309
	Zn218	Zn	0.751878	0.500778	-0.011702
	Zn219	Zn	0.249379	0.500567	-0.012783
	Zn220	Zn	0.000450	0.750273	0.486433
	Zn221	Zn	0.000952	0.251480	0.488755
	Zn222	Zn	0.000099	0.500435	0.738586
	Zn223	Zn	-0.000262	0.502128	0.236370
	Zn224	Zn	0.501376	0.750934	-0.011870
	Zn225	Zn	0.500274	0.250913	-0.013719
	Zn226	Zn	0.749633	0.000934	0.486995
	Zn227	Zn	0.252488	0.000517	0.487365
	N228	N	0.413884	0.963801	0.666892
	N229	N	0.586110	0.038518	0.663840
	N230	N	0.587230	0.962889	0.309127
	N231	N	0.416080	0.036888	0.309423
	N232	N	0.682680	0.412632	0.952115
	N233	N	0.680948	0.587247	0.024831
	N234	N	0.320190	0.588490	0.950791
	N235	N	0.319737	0.412960	0.023578
	N236	N	0.963269	0.679799	0.400546
	N237	N	0.038016	0.676062	0.569174
	N238	N	0.963278	0.322131	0.574329
	N239	N	0.038509	0.325651	0.404641
	N240	N	0.964131	0.412172	0.669784
	N241	N	0.035922	0.588167	0.667388
	N242	N	0.964093	0.589587	0.305922
	N243	N	0.036709	0.415494	0.307787
	N244	N	0.416720	0.678826	0.950127
	N245	N	0.585831	0.678097	0.025359
	N246	N	0.584122	0.325084	0.948904
	N247	N	0.414864	0.322046	0.024332
	N248	N	0.679780	0.963377	0.401121
	N249	N	0.678111	0.038250	0.571393
	N250	N	0.322958	0.962833	0.573334
	N251	N	0.324733	0.037938	0.402465
	N252	N	0.913623	0.464915	0.166768
	N253	N	0.085594	0.538725	0.164770
	N254	N	0.086781	0.463474	0.808793
	N255	N	0.914729	0.537463	0.809637
	N256	N	0.181216	0.913929	0.451130
	N257	N	0.181889	0.087872	0.523793
	N258	N	0.821147	0.088442	0.451003
	N259	N	0.819747	0.913168	0.523512
	N260	N	0.463002	0.179373	0.901196
	N261	N	0.538883	0.176590	0.069350
	N262	N	0.463252	0.822106	0.073221
	N263	N	0.539033	0.825025	0.904043
	N264	N	0.464681	0.912080	0.169158
	N265	N	0.537817	0.086845	0.166475
	N266	N	0.464598	0.089980	0.805305
	N267	N	0.537438	0.914973	0.807401
	N268	N	0.917594	0.178479	0.450641
	N269	N	0.086102	0.178467	0.525583
	N270	N	0.085212	0.823842	0.449685
	N271	N	0.915359	0.822199	0.524172
	N272	N	0.178283	0.463157	0.902035
	N273	N	0.177128	0.538094	0.071784
	N274	N	0.822563	0.464256	0.074080
	N275	N	0.823778	0.538283	0.902947
	O276	O	0.038259	-0.031510	-0.045556
	H277	H	0.039138	-0.040416	-0.044784
	H278	H	0.038761	-0.012337	-0.052026
	O279	O	0.975372	-0.069822	1.025487
	H280	H	0.968441	-0.068636	1.024119
	H281	H	0.965275	-0.076179	1.029177
	O282	O	0.031680	0.968397	0.947150
	H283	H	0.028884	0.973138	0.942978
	H284	H	0.037733	0.979765	0.943278
	O285	O	0.002745	0.981114	0.989229
	H286	H	0.004558	0.977232	0.986309
	H287	H	0.004368	0.979818	0.987441
	O288	O	0.552802	0.506598	0.475343
	H289	H	0.556662	0.504829	0.478231
	H290	H	0.554671	0.512633	0.466588
	O291	O	0.483613	0.497923	1.556415
	H292	H	0.489065	0.491977	1.569885
	H293	H	0.488082	0.492996	1.556994
	O294	O	0.981016	1.011204	1.004273
	H295	H	0.982671	1.017767	1.005859
	H296	H	0.990895	1.009707	1.010591
	O297	O	0.938877	-0.071362	0.908524
	H298	H	0.933411	-0.070606	0.899075
	H299	H	0.945008	-0.069988	0.904410
	O300	O	0.399558	0.478059	0.461833
	H301	H	0.400149	0.482229	0.466665
	H302	H	0.396542	0.477708	0.461983
	O303	O	1.094580	0.031853	-0.015019
	H304	H	1.098502	0.032950	-0.021225
	H305	H	1.101180	0.025848	-0.018610
	O306	O	-0.542743	1.478963	0.440209
	H307	H	-0.562566	1.487706	0.438695
	H308	H	-0.552028	1.466924	0.441348
	O309	O	-0.064586	0.004771	0.087346
	H310	H	-0.066071	0.006747	0.090446
	H311	H	-0.072516	-0.002942	0.092893
	O312	O	1.363378	0.569168	1.388814
	H313	H	1.361235	0.571791	1.390907
	H314	H	1.366750	0.566241	1.392366
	O315	O	1.043588	0.987599	1.017349
	H316	H	1.042529	0.986198	1.018423
	H317	H	1.040144	0.987815	1.009933
	O318	O	0.480077	0.448405	0.590926
	H319	H	0.480020	0.465408	0.594677
	H320	H	0.482314	0.455253	0.581158
	O321	O	0.918329	0.937764	0.987923
	H322	H	0.908807	0.940723	0.977391
	H323	H	0.920997	0.930518	0.986676
	O324	O	0.488685	0.420813	0.421209
	H325	H	0.490929	0.422391	0.422979
	H326	H	0.487999	0.421673	0.422116
	O327	O	0.488932	0.525693	0.498205
	H328	H	0.475275	0.521122	0.487825
	H329	H	0.486442	0.547418	0.498230
	O330	O	0.979969	0.002443	0.955906
	H331	H	0.976772	0.014523	0.955157
	H332	H	0.970870	0.000584	0.959817
	O333	O	1.017599	1.080004	0.006828
	H334	H	1.010316	1.074327	0.003579
	H335	H	1.030232	1.081810	0.002467
	O336	O	0.478654	0.410620	0.560006
	H337	H	0.494487	0.402087	0.563266
	H338	H	0.475990	0.395838	0.560524
	O339	O	0.488951	0.534783	0.606437
	H340	H	0.496980	0.529697	0.604740
	H341	H	0.487432	0.533625	0.597429
	O342	O	0.032018	0.990782	0.086554
	H343	H	0.035199	0.993091	0.094118
	H344	H	0.033945	0.984504	0.090712
	O345	O	-0.095585	0.015579	0.020886
	H346	H	-0.100215	0.010537	0.028331
	H347	H	-0.085760	0.018185	0.024706
	O348	O	0.605199	0.518904	0.424601
	H349	H	0.604647	0.522356	0.424162
	H350	H	0.606789	0.520037	0.414081
	O351	O	0.516646	0.483201	0.520702
	H352	H	0.515930	0.486683	0.522234
	H353	H	0.513044	0.487960	0.518289
	O354	O	0.506726	0.528435	0.534870
	H355	H	0.510192	0.534719	0.530184
	H356	H	0.502134	0.529695	0.524957
	O357	O	0.615221	0.392271	0.488546
	H358	H	0.621281	0.400921	0.476144
	H359	H	0.607640	0.384474	0.481514
	O360	O	0.119810	0.015688	0.003240
	H361	H	0.117356	0.019490	-0.004488
	H362	H	0.124748	0.010694	0.009632
	O363	O	0.474401	0.520858	0.478816
	H364	H	0.471020	0.520667	0.485221
	H365	H	0.485640	0.518459	0.492970
	O366	O	-0.002848	-0.006874	0.901380
	H367	H	0.001696	-0.006574	0.909939
	H368	H	-0.002682	-0.001859	0.896400
	O369	O	0.452770	0.539177	0.457810
	H370	H	0.447800	0.542603	0.456941
	H371	H	0.451506	0.541106	0.465711
