data_Molecule from HDF5

_cell_length_a		16.206256
_cell_length_b		16.214857
_cell_length_c		16.524305
_cell_angle_alpha	90.027939
_cell_angle_beta	89.976491
_cell_angle_gamma	89.997738
_symmetry_space_group_name_H-M	'P 1'
_symmetry_Int_Tables_number		1

loop_
	_symmetry_equiv_pos_as_xyz
	x,y,z

loop_
	_atom_site_label
	_atom_site_type_symbol
	_atom_site_fract_x
	_atom_site_fract_y
	_atom_site_fract_z
	H0	H	0.398625	0.836267	0.718444
	H1	H	0.601915	0.162092	0.718107
	H2	H	0.604032	0.837263	0.282945
	H3	H	0.397467	0.161687	0.283753
	H4	H	0.717985	0.400057	0.839790
	H5	H	0.716651	0.596801	0.163155
	H6	H	0.284623	0.597592	0.840782
	H7	H	0.285377	0.400032	0.163600
	H8	H	0.837289	0.712782	0.404391
	H9	H	0.166343	0.711812	0.598379
	H10	H	0.836750	0.286147	0.597703
	H11	H	0.166464	0.286652	0.404689
	H12	H	0.837590	0.397912	0.718008
	H13	H	0.164175	0.601349	0.718769
	H14	H	0.839183	0.602174	0.284265
	H15	H	0.164278	0.397466	0.284766
	H16	H	0.401921	0.715152	0.839837
	H17	H	0.599263	0.714439	0.163235
	H18	H	0.600505	0.282424	0.839962
	H19	H	0.403160	0.283252	0.163823
	H20	H	0.714959	0.834676	0.403328
	H21	H	0.713778	0.163966	0.598970
	H22	H	0.288862	0.834643	0.597692
	H23	H	0.289719	0.164037	0.406452
	H24	H	0.898836	0.336233	0.219135
	H25	H	0.103413	0.661956	0.218711
	H26	H	0.104019	0.336010	0.784341
	H27	H	0.898308	0.661466	0.784851
	H28	H	0.218034	0.900367	0.340362
	H29	H	0.216792	0.097124	0.662876
	H30	H	0.784307	0.098582	0.340314
	H31	H	0.784451	0.899621	0.662932
	H32	H	0.335794	0.211321	0.905533
	H33	H	0.666246	0.210749	0.098197
	H34	H	0.336239	0.787091	0.097541
	H35	H	0.666304	0.786538	0.905205
	H36	H	0.337708	0.898193	0.217006
	H37	H	0.663591	0.100529	0.218995
	H38	H	0.337568	0.100519	0.785609
	H39	H	0.663627	0.896681	0.784272
	H40	H	0.902029	0.215344	0.339752
	H41	H	0.101407	0.216302	0.662638
	H42	H	0.102075	0.782193	0.340560
	H43	H	0.902468	0.782828	0.663111
	H44	H	0.214355	0.334229	0.905474
	H45	H	0.213502	0.663635	0.098066
	H46	H	0.787950	0.334603	0.098420
	H47	H	0.788764	0.663469	0.905043
	H48	H	0.399544	0.118359	0.591537
	H49	H	0.587773	0.882806	0.597144
	H50	H	0.599199	0.116261	0.414220
	H51	H	0.405421	0.880523	0.407288
	H52	H	0.594538	0.400462	0.117102
	H53	H	0.597371	0.593612	0.886031
	H54	H	0.413938	0.592326	0.113775
	H55	H	0.397770	0.408138	0.885817
	H56	H	0.117421	0.590026	0.409790
	H57	H	0.880972	0.595166	0.603632
	H58	H	0.114211	0.416640	0.590747
	H59	H	0.885640	0.410148	0.408769
	H60	H	0.120414	0.409381	0.605363
	H61	H	0.885832	0.595479	0.586513
	H62	H	0.117328	0.588501	0.409010
	H63	H	0.883553	0.407459	0.406973
	H64	H	0.405766	0.599755	0.118749
	H65	H	0.594709	0.590625	0.888303
	H66	H	0.599619	0.409247	0.115838
	H67	H	0.414805	0.413388	0.892928
	H68	H	0.590909	0.118178	0.400026
	H69	H	0.593649	0.883944	0.589723
	H70	H	0.411061	0.118343	0.606680
	H71	H	0.413463	0.881728	0.402950
	H72	H	0.901440	0.617667	0.092684
	H73	H	0.084953	0.385972	0.091819
	H74	H	0.092899	0.614830	0.910155
	H75	H	0.913270	0.380491	0.899220
	H76	H	0.100772	0.905593	0.617800
	H77	H	0.092609	0.090601	0.388498
	H78	H	0.901204	0.086937	0.616311
	H79	H	0.915316	0.908926	0.390914
	H80	H	0.617435	0.086401	0.904211
	H81	H	0.386740	0.088540	0.090267
	H82	H	0.615549	0.910107	0.089384
	H83	H	0.383868	0.909828	0.903371
	H84	H	0.617870	0.910897	0.099841
	H85	H	0.383215	0.087404	0.098632
	H86	H	0.619058	0.094254	0.906691
	H87	H	0.382665	0.902573	0.909261
	H88	H	0.916457	0.088285	0.611407
	H89	H	0.094079	0.097553	0.386094
	H90	H	0.092721	0.911162	0.614013
	H91	H	0.908288	0.898711	0.386245
	H92	H	0.092745	0.615822	0.907897
	H93	H	0.098933	0.381761	0.090083
	H94	H	0.914097	0.617010	0.104267
	H95	H	0.918525	0.386222	0.914850
	H96	H	0.417832	0.112185	0.589773
	H97	H	0.596840	0.880423	0.597847
	H98	H	0.582744	0.111598	0.413627
	H99	H	0.412580	0.884419	0.411787
	H100	H	0.589161	0.408608	0.112692
	H101	H	0.592713	0.595110	0.887527
	H102	H	0.402563	0.588117	0.115852
	H103	H	0.412457	0.395643	0.885776
	H104	H	0.118770	0.589677	0.408202
	H105	H	0.887552	0.580232	0.595501
	H106	H	0.119314	0.399406	0.590615
	H107	H	0.884887	0.406773	0.410467
	H108	H	0.916827	0.610906	0.088441
	H109	H	0.092741	0.379473	0.103411
	H110	H	0.091095	0.614921	0.908759
	H111	H	0.901203	0.381018	0.912610
	H112	H	0.091248	0.900825	0.615661
	H113	H	0.098940	0.091757	0.385993
	H114	H	0.908890	0.100565	0.617435
	H115	H	0.902876	0.910654	0.387127
	H116	H	0.615780	0.088811	0.912371
	H117	H	0.382946	0.096026	0.094699
	H118	H	0.619933	0.901980	0.095453
	H119	H	0.386769	0.910998	0.912816
	C120	C	0.380269	0.007826	0.623574
	C121	C	0.621896	0.990991	0.623051
	C122	C	0.621309	0.007378	0.380277
	C123	C	0.380759	0.990627	0.379689
	C124	C	0.623467	0.376870	0.009069
	C125	C	0.623836	0.621755	0.993664
	C126	C	0.378659	0.621960	0.009401
	C127	C	0.379203	0.376567	0.994310
	C128	C	0.010159	0.619905	0.380175
	C129	C	0.993025	0.620155	0.623859
	C130	C	0.009464	0.378808	0.623481
	C131	C	0.993299	0.379014	0.380430
	C132	C	0.880582	0.507356	0.123612
	C133	C	0.122256	0.490640	0.123711
	C134	C	0.122086	0.507002	0.880388
	C135	C	0.881052	0.490694	0.880745
	C136	C	0.124042	0.876914	0.509518
	C137	C	0.124490	0.122194	0.493111
	C138	C	0.879071	0.121593	0.509349
	C139	C	0.879310	0.876759	0.494143
	C140	C	0.509107	0.119676	0.879505
	C141	C	0.492616	0.120045	0.123370
	C142	C	0.509512	0.878667	0.122819
	C143	C	0.492907	0.878294	0.880147
	C144	C	0.380141	0.884869	0.679554
	C145	C	0.621380	0.113534	0.679444
	C146	C	0.622112	0.885168	0.323065
	C147	C	0.379847	0.113488	0.323399
	C148	C	0.679415	0.379417	0.887832
	C149	C	0.679216	0.618506	0.114817
	C150	C	0.323170	0.618460	0.888539
	C151	C	0.323574	0.379244	0.115567
	C152	C	0.886516	0.675562	0.383103
	C153	C	0.116926	0.674924	0.619942
	C154	C	0.885944	0.323210	0.619748
	C155	C	0.117133	0.323967	0.383773
	C156	C	0.886599	0.378871	0.679255
	C157	C	0.115491	0.620561	0.680333
	C158	C	0.887416	0.620395	0.323451
	C159	C	0.115810	0.378703	0.323942
	C160	C	0.381447	0.677032	0.888183
	C161	C	0.620939	0.676787	0.114946
	C162	C	0.621032	0.321039	0.887887
	C163	C	0.382130	0.321464	0.115711
	C164	C	0.677354	0.884115	0.382734
	C165	C	0.677022	0.114460	0.620154
	C166	C	0.325771	0.883859	0.619480
	C167	C	0.325950	0.114624	0.384093
	C168	C	0.880099	0.384760	0.180128
	C169	C	0.122013	0.613413	0.179719
	C170	C	0.122205	0.384417	0.823801
	C171	C	0.880290	0.613195	0.823911
	C172	C	0.179943	0.879202	0.388399
	C173	C	0.179156	0.118440	0.614657
	C174	C	0.822853	0.119319	0.388267
	C175	C	0.822609	0.878971	0.614710
	C176	C	0.385532	0.174808	0.883567
	C177	C	0.616390	0.174534	0.120026
	C178	C	0.385446	0.824279	0.118901
	C179	C	0.616723	0.823285	0.883517
	C180	C	0.386364	0.879256	0.178366
	C181	C	0.615194	0.119343	0.179777
	C182	C	0.386391	0.119507	0.823996
	C183	C	0.615460	0.878236	0.823643
	C184	C	0.881407	0.177197	0.387946
	C185	C	0.121777	0.177684	0.614569
	C186	C	0.122019	0.820786	0.388647
	C187	C	0.881269	0.820827	0.614819
	C188	C	0.177108	0.383412	0.884014
	C189	C	0.176829	0.614270	0.119742
	C190	C	0.824958	0.383789	0.120235
	C191	C	0.825984	0.614513	0.884003
	C192	C	0.402746	0.093975	0.602265
	C193	C	0.599220	0.904681	0.601367
	C194	C	0.597869	0.093150	0.402790
	C195	C	0.403667	0.904519	0.401147
	C196	C	0.601018	0.399334	0.093501
	C197	C	0.601452	0.599689	0.908899
	C198	C	0.400881	0.599879	0.094282
	C199	C	0.401585	0.399119	0.909976
	C200	C	0.095825	0.596413	0.402466
	C201	C	0.907094	0.597240	0.601692
	C202	C	0.095726	0.401800	0.601897
	C203	C	0.907072	0.401456	0.402347
	C204	C	0.903699	0.593113	0.101459
	C205	C	0.098933	0.404461	0.101578
	C206	C	0.099049	0.593003	0.902672
	C207	C	0.904260	0.404878	0.902597
	C208	C	0.101634	0.899242	0.593920
	C209	C	0.102076	0.099877	0.408598
	C210	C	0.902146	0.098749	0.593373
	C211	C	0.902165	0.899631	0.409873
	C212	C	0.595257	0.096411	0.901365
	C213	C	0.406369	0.097227	0.101065
	C214	C	0.595537	0.901130	0.101178
	C215	C	0.406740	0.900865	0.902114
	Zn216	Zn	0.500713	-0.001282	0.751133
	Zn217	Zn	0.500748	-0.000441	0.251597
	Zn218	Zn	0.753382	0.499154	0.001275
	Zn219	Zn	0.249484	0.498590	0.002074
	Zn220	Zn	0.001724	0.747165	0.501525
	Zn221	Zn	0.001740	0.251012	0.501229
	Zn222	Zn	0.001079	0.499293	0.752279
	Zn223	Zn	0.001484	0.499055	0.251898
	Zn224	Zn	0.501241	0.751082	0.001792
	Zn225	Zn	0.501427	0.247069	0.001524
	Zn226	Zn	0.749411	-0.000660	0.501456
	Zn227	Zn	0.253556	-0.001042	0.501122
	N228	N	0.413306	0.962853	0.682089
	N229	N	0.587651	0.035692	0.681042
	N230	N	0.587936	0.962743	0.321505
	N231	N	0.412960	0.035480	0.320514
	N232	N	0.681230	0.413260	0.964268
	N233	N	0.681096	0.585038	0.038280
	N234	N	0.321346	0.584967	0.965038
	N235	N	0.321827	0.413037	0.039164
	N236	N	0.963591	0.675143	0.417821
	N237	N	0.039611	0.674902	0.585673
	N238	N	0.963499	0.323026	0.585768
	N239	N	0.039724	0.324052	0.418325
	N240	N	0.964562	0.412362	0.681796
	N241	N	0.037410	0.587172	0.682797
	N242	N	0.965211	0.586587	0.321525
	N243	N	0.038054	0.412335	0.322162
	N244	N	0.415245	0.678922	0.964556
	N245	N	0.587115	0.678519	0.038719
	N246	N	0.587160	0.319433	0.964119
	N247	N	0.415969	0.319629	0.039425
	N248	N	0.676849	0.961230	0.417706
	N249	N	0.677441	0.037118	0.585817
	N250	N	0.325760	0.961230	0.585207
	N251	N	0.326386	0.037268	0.418318
	N252	N	0.914234	0.462385	0.182034
	N253	N	0.088679	0.535411	0.181888
	N254	N	0.088776	0.462363	0.821584
	N255	N	0.913887	0.535325	0.821894
	N256	N	0.181185	0.913628	0.464415
	N257	N	0.181023	0.084684	0.538303
	N258	N	0.821189	0.085698	0.464545
	N259	N	0.821261	0.912957	0.538469
	N260	N	0.463188	0.175147	0.917405
	N261	N	0.539226	0.174724	0.085575
	N262	N	0.462833	0.823791	0.085047
	N263	N	0.539533	0.823272	0.918021
	N264	N	0.464432	0.912621	0.180935
	N265	N	0.536922	0.086415	0.181959
	N266	N	0.464289	0.085965	0.821613
	N267	N	0.537404	0.911737	0.821400
	N268	N	0.915769	0.178880	0.464267
	N269	N	0.088521	0.180010	0.538027
	N270	N	0.088103	0.819225	0.464970
	N271	N	0.915897	0.819554	0.538942
	N272	N	0.177155	0.460741	0.918381
	N273	N	0.177027	0.536924	0.085561
	N274	N	0.825052	0.461027	0.085875
	N275	N	0.826353	0.537349	0.918652
	O276	O	0.962881	0.985525	-0.037564
	H277	H	0.965128	0.991043	-0.037492
	H278	H	0.959932	0.971015	-0.024553
	O279	O	0.028038	-0.000079	-0.017124
	H280	H	0.026299	-0.006176	-0.014333
	H281	H	0.038053	0.005921	-0.011819
	O282	O	-0.004688	0.026762	1.010381
	H283	H	-0.007837	0.029806	1.005329
	H284	H	-0.010568	0.027946	1.010460
	O285	O	0.526771	0.519793	0.519702
	H286	H	0.526716	0.524861	0.514256
	H287	H	0.531589	0.519133	0.524930
	O288	O	0.535015	0.478290	0.487936
	H289	H	0.529275	0.475844	0.482181
	H290	H	0.527444	0.474289	0.485371
	O291	O	0.495013	0.487037	0.426667
	H292	H	0.496470	0.489386	0.428178
	H293	H	0.506131	0.496079	0.422370
	O294	O	-0.052705	-0.043260	0.010018
	H295	H	-0.058294	-0.041109	0.012431
	H296	H	-0.054077	-0.050469	-0.005891
	O297	O	0.554922	0.455176	0.522165
	H298	H	0.559196	0.456016	0.532081
	H299	H	0.558519	0.455113	0.524612
	O300	O	-0.053203	0.933241	0.938965
	H301	H	-0.037842	0.929372	0.936712
	H302	H	-0.049981	0.920873	0.934905
	O303	O	0.493228	0.484318	0.507108
	H304	H	0.483429	0.480986	0.503898
	H305	H	0.497036	0.474828	0.503184
	O306	O	-0.017667	0.054684	0.931578
	H307	H	-0.020894	0.061305	0.927716
	H308	H	-0.021803	0.049898	0.936609
	O309	O	1.005413	0.959637	0.916001
	H310	H	1.020396	0.970062	0.916372
	H311	H	1.009388	0.954814	0.912170
	O312	O	0.506772	0.461229	0.506326
	H313	H	0.506229	0.461819	0.517209
	H314	H	0.505464	0.466765	0.496663
	O315	O	0.474221	0.449195	0.521835
	H316	H	0.470571	0.451642	0.526563
	H317	H	0.475892	0.442439	0.516525
	O318	O	0.033223	0.985622	-0.033354
	H319	H	0.030615	0.986285	-0.029341
	H320	H	0.033248	0.991941	-0.037913
	O321	O	0.975746	1.035504	-0.010354
	H322	H	0.967965	1.039398	-0.013961
	H323	H	0.962096	1.042860	-0.014195
