data_Molecule from HDF5

_cell_length_a		16.326118
_cell_length_b		16.305435
_cell_length_c		16.352409
_cell_angle_alpha	90.008830
_cell_angle_beta	89.992178
_cell_angle_gamma	90.077639
_symmetry_space_group_name_H-M	'P 1'
_symmetry_Int_Tables_number		1

loop_
	_symmetry_equiv_pos_as_xyz
	x,y,z

loop_
	_atom_site_label
	_atom_site_type_symbol
	_atom_site_fract_x
	_atom_site_fract_y
	_atom_site_fract_z
	H0	H	0.398178	0.843791	0.714381
	H1	H	0.596300	0.170749	0.715608
	H2	H	0.594722	0.843664	0.285808
	H3	H	0.398677	0.169818	0.284663
	H4	H	0.709157	0.410087	0.836180
	H5	H	0.711501	0.606412	0.162901
	H6	H	0.280901	0.605836	0.837064
	H7	H	0.281879	0.409626	0.163370
	H8	H	0.832994	0.722599	0.401434
	H9	H	0.159775	0.721837	0.598598
	H10	H	0.832791	0.293093	0.597060
	H11	H	0.160406	0.294246	0.402483
	H12	H	0.832809	0.407534	0.714695
	H13	H	0.159278	0.606004	0.715391
	H14	H	0.832799	0.606064	0.284734
	H15	H	0.158696	0.407660	0.283485
	H16	H	0.397804	0.721547	0.837024
	H17	H	0.593076	0.721236	0.163816
	H18	H	0.593671	0.293029	0.836885
	H19	H	0.395463	0.290918	0.162771
	H20	H	0.710249	0.843520	0.402212
	H21	H	0.711416	0.171068	0.598304
	H22	H	0.282791	0.843735	0.597204
	H23	H	0.283556	0.171145	0.401958
	H24	H	0.896875	0.343012	0.213729
	H25	H	0.095093	0.669775	0.215281
	H26	H	0.093947	0.343627	0.785629
	H27	H	0.896811	0.670396	0.784079
	H28	H	0.211598	0.908934	0.337342
	H29	H	0.212252	0.106314	0.662924
	H30	H	0.783211	0.103862	0.336291
	H31	H	0.781408	0.909161	0.663128
	H32	H	0.332613	0.220503	0.903045
	H33	H	0.659461	0.222369	0.098222
	H34	H	0.333061	0.792233	0.098180
	H35	H	0.659463	0.793118	0.902884
	H36	H	0.333292	0.907442	0.215522
	H37	H	0.659967	0.105296	0.214255
	H38	H	0.332471	0.104736	0.785843
	H39	H	0.659006	0.909586	0.786162
	H40	H	0.900315	0.220516	0.336577
	H41	H	0.094447	0.221897	0.663476
	H42	H	0.095466	0.792122	0.337276
	H43	H	0.898006	0.792171	0.663545
	H44	H	0.209998	0.344029	0.902581
	H45	H	0.211212	0.670857	0.098702
	H46	H	0.780834	0.343973	0.097088
	H47	H	0.782598	0.671758	0.902300
	H48	H	0.405942	0.122730	0.595377
	H49	H	0.584863	0.891904	0.597976
	H50	H	0.596245	0.124881	0.407071
	H51	H	0.401962	0.892597	0.413366
	H52	H	0.584164	0.414699	0.113674
	H53	H	0.593360	0.593982	0.884981
	H54	H	0.397021	0.596407	0.116150
	H55	H	0.395628	0.409259	0.881256
	H56	H	0.112467	0.598250	0.404303
	H57	H	0.879133	0.610443	0.587332
	H58	H	0.112560	0.413511	0.591988
	H59	H	0.879838	0.408767	0.410388
	H60	H	0.110421	0.416986	0.593166
	H61	H	0.885466	0.590193	0.585840
	H62	H	0.112536	0.602927	0.407291
	H63	H	0.882838	0.418595	0.408300
	H64	H	0.408418	0.596897	0.113269
	H65	H	0.581623	0.602182	0.886386
	H66	H	0.591196	0.410433	0.117307
	H67	H	0.401505	0.422665	0.886083
	H68	H	0.585773	0.123400	0.400901
	H69	H	0.587348	0.893314	0.587212
	H70	H	0.404718	0.122676	0.590447
	H71	H	0.397649	0.887921	0.403273
	H72	H	0.914372	0.618357	0.088102
	H73	H	0.089302	0.390905	0.092986
	H74	H	0.089783	0.623998	0.905544
	H75	H	0.900781	0.390466	0.905287
	H76	H	0.089822	0.908028	0.617122
	H77	H	0.091663	0.099511	0.384287
	H78	H	0.906236	0.091446	0.612067
	H79	H	0.903664	0.921747	0.387953
	H80	H	0.611052	0.091875	0.901125
	H81	H	0.381538	0.094287	0.095295
	H82	H	0.612758	0.908949	0.088376
	H83	H	0.377739	0.912538	0.901062
	H84	H	0.609872	0.920215	0.091631
	H85	H	0.378143	0.103245	0.097526
	H86	H	0.615753	0.109429	0.902519
	H87	H	0.379685	0.909452	0.910727
	H88	H	0.909789	0.106510	0.615417
	H89	H	0.089217	0.100604	0.384787
	H90	H	0.094586	0.918384	0.616241
	H91	H	0.910121	0.909601	0.385118
	H92	H	0.085606	0.622369	0.906911
	H93	H	0.088569	0.391058	0.092541
	H94	H	0.892524	0.624292	0.085900
	H95	H	0.903611	0.391380	0.905783
	H96	H	0.401773	0.124598	0.594138
	H97	H	0.594684	0.889951	0.594313
	H98	H	0.586344	0.120753	0.412679
	H99	H	0.409089	0.891870	0.403914
	H100	H	0.591897	0.419030	0.115356
	H101	H	0.593375	0.607389	0.881554
	H102	H	0.403224	0.606251	0.117290
	H103	H	0.410830	0.409783	0.885801
	H104	H	0.110539	0.598395	0.409420
	H105	H	0.877604	0.597873	0.604224
	H106	H	0.112131	0.414729	0.595450
	H107	H	0.878246	0.412413	0.400815
	H108	H	0.902833	0.626757	0.106104
	H109	H	0.089166	0.391081	0.092192
	H110	H	0.089396	0.622283	0.910188
	H111	H	0.901687	0.391929	0.907889
	H112	H	0.083904	0.916740	0.613018
	H113	H	0.091093	0.102234	0.383777
	H114	H	0.894957	0.100762	0.618580
	H115	H	0.896414	0.911416	0.381678
	H116	H	0.608935	0.100845	0.917457
	H117	H	0.381719	0.101261	0.088306
	H118	H	0.614241	0.912768	0.099837
	H119	H	0.381770	0.919442	0.907913
	C120	C	0.375346	0.015306	0.621693
	C121	C	0.617934	0.999647	0.621586
	C122	C	0.617948	0.014927	0.378620
	C123	C	0.375001	0.998852	0.378538
	C124	C	0.617404	0.386262	0.007720
	C125	C	0.617613	0.629162	0.992072
	C126	C	0.374332	0.628563	0.008202
	C127	C	0.374222	0.385446	0.991955
	C128	C	0.004036	0.628691	0.378436
	C129	C	0.988091	0.628852	0.621568
	C130	C	0.004077	0.385804	0.621738
	C131	C	0.988254	0.385225	0.378168
	C132	C	0.874346	0.515079	0.121261
	C133	C	0.117784	0.499210	0.121447
	C134	C	0.117040	0.515336	0.878712
	C135	C	0.873954	0.499369	0.877902
	C136	C	0.117980	0.886006	0.508011
	C137	C	0.118648	0.128991	0.492134
	C138	C	0.875228	0.128202	0.508139
	C139	C	0.874160	0.885004	0.491975
	C140	C	0.504039	0.128671	0.878668
	C141	C	0.488347	0.128382	0.121398
	C142	C	0.504460	0.885473	0.121716
	C143	C	0.487733	0.885574	0.878505
	C144	C	0.377607	0.892314	0.676497
	C145	C	0.616285	0.122127	0.677257
	C146	C	0.615318	0.892296	0.323811
	C147	C	0.377794	0.121465	0.323028
	C148	C	0.672123	0.388821	0.885222
	C149	C	0.672851	0.626339	0.114686
	C150	C	0.318790	0.626574	0.885619
	C151	C	0.319312	0.388343	0.114795
	C152	C	0.881590	0.684415	0.380783
	C153	C	0.110991	0.683790	0.619313
	C154	C	0.881579	0.330512	0.618495
	C155	C	0.111273	0.331379	0.381503
	C156	C	0.881689	0.387380	0.677061
	C157	C	0.110756	0.626348	0.677152
	C158	C	0.881457	0.626337	0.323056
	C159	C	0.110562	0.387857	0.322451
	C160	C	0.376609	0.684241	0.885764
	C161	C	0.614829	0.684121	0.114948
	C162	C	0.614430	0.330952	0.885473
	C163	C	0.376154	0.329589	0.114364
	C164	C	0.672974	0.892412	0.381365
	C165	C	0.673639	0.122142	0.619024
	C166	C	0.320161	0.892440	0.618595
	C167	C	0.320624	0.121972	0.381189
	C168	C	0.876638	0.392005	0.175787
	C169	C	0.115503	0.621547	0.176833
	C170	C	0.114368	0.392514	0.823599
	C171	C	0.876293	0.622073	0.822482
	C172	C	0.173509	0.888605	0.385855
	C173	C	0.173734	0.126624	0.614629
	C174	C	0.820395	0.125477	0.385232
	C175	C	0.818916	0.887636	0.614512
	C176	C	0.381107	0.182802	0.881770
	C177	C	0.611033	0.183823	0.118390
	C178	C	0.381578	0.830397	0.119002
	C179	C	0.610752	0.830780	0.881695
	C180	C	0.381936	0.887460	0.177258
	C181	C	0.611142	0.126253	0.176527
	C182	C	0.381243	0.125641	0.823502
	C183	C	0.610591	0.888768	0.823995
	C184	C	0.878690	0.182916	0.385158
	C185	C	0.115836	0.184434	0.614650
	C186	C	0.115924	0.830460	0.385632
	C187	C	0.877180	0.830093	0.614814
	C188	C	0.172280	0.392649	0.881331
	C189	C	0.173110	0.621924	0.119002
	C190	C	0.818742	0.392536	0.118278
	C191	C	0.819600	0.622574	0.881167
	C192	C	0.397644	0.101180	0.599790
	C193	C	0.595607	0.913813	0.599466
	C194	C	0.595826	0.100844	0.400534
	C195	C	0.396457	0.912933	0.400502
	C196	C	0.595563	0.408317	0.093544
	C197	C	0.595700	0.607597	0.906488
	C198	C	0.396376	0.606377	0.093530
	C199	C	0.396207	0.407590	0.906547
	C200	C	0.089746	0.606468	0.400471
	C201	C	0.902780	0.606204	0.599020
	C202	C	0.089792	0.408581	0.599848
	C203	C	0.902323	0.406969	0.400154
	C204	C	0.896654	0.600996	0.099754
	C205	C	0.095524	0.413206	0.099160
	C206	C	0.094767	0.600931	0.900928
	C207	C	0.895816	0.413295	0.899587
	C208	C	0.095838	0.907852	0.593543
	C209	C	0.097085	0.107157	0.406484
	C210	C	0.897132	0.106129	0.593201
	C211	C	0.896620	0.907676	0.406922
	C212	C	0.589681	0.106972	0.900456
	C213	C	0.402728	0.106098	0.100055
	C214	C	0.590161	0.907481	0.099606
	C215	C	0.402024	0.907204	0.900199
	Zn216	Zn	0.496272	0.007211	0.749828
	Zn217	Zn	0.496582	0.006801	0.250364
	Zn218	Zn	0.746227	0.507631	-0.000472
	Zn219	Zn	0.245991	0.507225	-0.000129
	Zn220	Zn	-0.003599	0.757132	0.500290
	Zn221	Zn	-0.003233	0.257350	0.499797
	Zn222	Zn	-0.004128	0.507643	0.749697
	Zn223	Zn	-0.003919	0.506805	0.249728
	Zn224	Zn	0.495684	0.757168	0.000286
	Zn225	Zn	0.495731	0.257264	0.000422
	Zn226	Zn	0.746196	0.006869	0.499966
	Zn227	Zn	0.246946	0.007440	0.500391
	N228	N	0.411023	0.969937	0.678639
	N229	N	0.582457	0.044831	0.679026
	N230	N	0.581902	0.969715	0.321890
	N231	N	0.410806	0.043948	0.321202
	N232	N	0.674063	0.422371	0.962313
	N233	N	0.674510	0.592906	0.037394
	N234	N	0.317373	0.592656	0.962621
	N235	N	0.317988	0.422432	0.037836
	N236	N	0.958800	0.685810	0.414540
	N237	N	0.033830	0.685222	0.585198
	N238	N	0.958781	0.329315	0.584917
	N239	N	0.034295	0.329920	0.415588
	N240	N	0.958955	0.421268	0.678783
	N241	N	0.033394	0.593044	0.678813
	N242	N	0.958570	0.592333	0.321518
	N243	N	0.033013	0.420673	0.320357
	N244	N	0.410382	0.685572	0.962852
	N245	N	0.581086	0.685937	0.037771
	N246	N	0.581050	0.329265	0.962758
	N247	N	0.409542	0.327782	0.037036
	N248	N	0.674272	0.969674	0.414989
	N249	N	0.674411	0.044992	0.584920
	N250	N	0.319106	0.969800	0.585042
	N251	N	0.318971	0.044666	0.415139
	N252	N	0.910616	0.469359	0.177881
	N253	N	0.081745	0.544228	0.178420
	N254	N	0.080793	0.469929	0.821716
	N255	N	0.909578	0.544712	0.820632
	N256	N	0.174771	0.922530	0.462962
	N257	N	0.175473	0.092957	0.537520
	N258	N	0.818114	0.092260	0.462371
	N259	N	0.817161	0.921009	0.537338
	N260	N	0.458270	0.184755	0.915281
	N261	N	0.533701	0.185426	0.085043
	N262	N	0.458583	0.829152	0.085193
	N263	N	0.533269	0.828827	0.914957
	N264	N	0.459468	0.921129	0.179125
	N265	N	0.533870	0.092369	0.178446
	N266	N	0.458680	0.092403	0.821530
	N267	N	0.533289	0.922099	0.821856
	N268	N	0.912205	0.184863	0.462417
	N269	N	0.082209	0.185822	0.537485
	N270	N	0.082036	0.828822	0.462666
	N271	N	0.910803	0.828251	0.537559
	N272	N	0.173734	0.469735	0.915167
	N273	N	0.174402	0.544651	0.085274
	N274	N	0.817369	0.469893	0.085129
	N275	N	0.818087	0.545174	0.914827
	O276	O	1.548898	-0.541840	0.526000
	H277	H	1.548485	-0.548527	0.528401
	H278	H	1.556119	-0.541717	0.537756
	O279	O	0.532676	0.453946	0.562604
	H280	H	0.527513	0.459363	0.558342
	H281	H	0.527566	0.450572	0.560426
	O282	O	0.483161	0.479869	0.510632
	H283	H	0.484371	0.473697	0.500618
	H284	H	0.490312	0.491869	0.510738
	O285	O	0.521112	0.469295	0.542951
	H286	H	0.518749	0.466304	0.555494
	H287	H	0.524385	0.467164	0.537048
