data_Molecule from HDF5

_cell_length_a		16.318421
_cell_length_b		16.332330
_cell_length_c		16.340891
_cell_angle_alpha	90.044788
_cell_angle_beta	90.118865
_cell_angle_gamma	90.062085
_symmetry_space_group_name_H-M	'P 1'
_symmetry_Int_Tables_number		1

loop_
	_symmetry_equiv_pos_as_xyz
	x,y,z

loop_
	_atom_site_label
	_atom_site_type_symbol
	_atom_site_fract_x
	_atom_site_fract_y
	_atom_site_fract_z
	H0	H	0.408473	0.836708	0.715018
	H1	H	0.604554	0.162767	0.714088
	H2	H	0.604724	0.836449	0.285320
	H3	H	0.408305	0.163085	0.285454
	H4	H	0.718973	0.401789	0.837495
	H5	H	0.721565	0.597526	0.163669
	H6	H	0.291408	0.597194	0.837336
	H7	H	0.292577	0.401344	0.164585
	H8	H	0.842506	0.713537	0.401913
	H9	H	0.169521	0.713733	0.599937
	H10	H	0.843730	0.284498	0.597992
	H11	H	0.170111	0.284980	0.403111
	H12	H	0.842504	0.400774	0.714058
	H13	H	0.169340	0.597793	0.716350
	H14	H	0.842948	0.596315	0.286014
	H15	H	0.169701	0.400735	0.286854
	H16	H	0.407870	0.713199	0.837328
	H17	H	0.605023	0.714257	0.164313
	H18	H	0.603190	0.285617	0.837283
	H19	H	0.407483	0.282740	0.163869
	H20	H	0.721495	0.836275	0.401599
	H21	H	0.721282	0.162883	0.598443
	H22	H	0.291990	0.836634	0.598797
	H23	H	0.291110	0.162898	0.400893
	H24	H	0.907023	0.335792	0.215826
	H25	H	0.104377	0.662812	0.216029
	H26	H	0.104283	0.335758	0.786047
	H27	H	0.907895	0.661995	0.786983
	H28	H	0.220647	0.901466	0.337459
	H29	H	0.220991	0.098028	0.664441
	H30	H	0.791932	0.097276	0.337849
	H31	H	0.791913	0.901193	0.664029
	H32	H	0.342664	0.212782	0.901932
	H33	H	0.670087	0.212853	0.096828
	H34	H	0.342189	0.785116	0.099282
	H35	H	0.669612	0.784826	0.902923
	H36	H	0.342868	0.901497	0.215310
	H37	H	0.670042	0.098726	0.215482
	H38	H	0.343711	0.098018	0.784647
	H39	H	0.669605	0.900680	0.785644
	H40	H	0.908726	0.213256	0.337716
	H41	H	0.106309	0.214886	0.664044
	H42	H	0.106342	0.782807	0.338270
	H43	H	0.908857	0.785490	0.664295
	H44	H	0.219659	0.335232	0.903548
	H45	H	0.220769	0.662831	0.098680
	H46	H	0.790874	0.335388	0.099380
	H47	H	0.792080	0.661752	0.903653
	H48	H	0.420323	0.111460	0.586623
	H49	H	0.597971	0.885729	0.587242
	H50	H	0.592436	0.110951	0.414048
	H51	H	0.413624	0.885841	0.411489
	H52	H	0.595666	0.406255	0.115513
	H53	H	0.596553	0.589559	0.887045
	H54	H	0.414133	0.581460	0.112631
	H55	H	0.418954	0.402950	0.886316
	H56	H	0.117741	0.587793	0.417297
	H57	H	0.888633	0.595231	0.596914
	H58	H	0.124809	0.395311	0.591468
	H59	H	0.891492	0.403512	0.413159
	H60	H	0.118122	0.414079	0.587442
	H61	H	0.890210	0.593830	0.592178
	H62	H	0.122646	0.585934	0.400784
	H63	H	0.891631	0.411245	0.405970
	H64	H	0.422455	0.600544	0.115906
	H65	H	0.596793	0.596290	0.884452
	H66	H	0.600136	0.403618	0.117971
	H67	H	0.407029	0.402639	0.882720
	H68	H	0.609909	0.116901	0.410527
	H69	H	0.606536	0.880950	0.593979
	H70	H	0.404754	0.117380	0.591123
	H71	H	0.410262	0.883223	0.405544
	H72	H	0.910205	0.615199	0.092084
	H73	H	0.104039	0.383460	0.088910
	H74	H	0.107995	0.618929	0.902638
	H75	H	0.898178	0.378720	0.908188
	H76	H	0.098697	0.908970	0.615513
	H77	H	0.101459	0.085253	0.386977
	H78	H	0.907415	0.083951	0.616537
	H79	H	0.923923	0.895070	0.385436
	H80	H	0.620549	0.094227	0.915177
	H81	H	0.391705	0.087069	0.095020
	H82	H	0.622017	0.910110	0.097727
	H83	H	0.392520	0.909745	0.907524
	H84	H	0.623298	0.901400	0.093477
	H85	H	0.388471	0.095010	0.096392
	H86	H	0.621866	0.085729	0.902599
	H87	H	0.388961	0.905031	0.904455
	H88	H	0.924402	0.091476	0.613178
	H89	H	0.092529	0.095920	0.386026
	H90	H	0.098592	0.902358	0.617175
	H91	H	0.899924	0.905064	0.380092
	H92	H	0.088769	0.611891	0.903687
	H93	H	0.100199	0.381505	0.101327
	H94	H	0.915680	0.614300	0.097319
	H95	H	0.918408	0.380429	0.894012
	H96	H	0.417663	0.117861	0.602694
	H97	H	0.595312	0.883764	0.598524
	H98	H	0.597189	0.117430	0.396978
	H99	H	0.417431	0.885457	0.405494
	H100	H	0.600475	0.409093	0.116282
	H101	H	0.602376	0.592448	0.883831
	H102	H	0.402346	0.596845	0.120870
	H103	H	0.412089	0.413092	0.887229
	H104	H	0.124837	0.601140	0.408852
	H105	H	0.889939	0.589862	0.596445
	H106	H	0.125093	0.409818	0.606055
	H107	H	0.888647	0.401306	0.403766
	H108	H	0.916856	0.612022	0.089683
	H109	H	0.091864	0.386084	0.092399
	H110	H	0.100800	0.611928	0.920220
	H111	H	0.919199	0.387783	0.917744
	H112	H	0.103557	0.906209	0.617053
	H113	H	0.105963	0.097872	0.381942
	H114	H	0.911007	0.102190	0.620761
	H115	H	0.919245	0.919702	0.390965
	H116	H	0.625977	0.100676	0.902355
	H117	H	0.391920	0.092682	0.088710
	H118	H	0.619479	0.908558	0.088577
	H119	H	0.390973	0.904139	0.910408
	C120	C	0.385417	0.008041	0.621923
	C121	C	0.628455	0.991285	0.621748
	C122	C	0.628251	0.007502	0.378610
	C123	C	0.384919	0.992130	0.378588
	C124	C	0.627171	0.377820	0.008885
	C125	C	0.627741	0.621383	0.992789
	C126	C	0.384374	0.621133	0.008791
	C127	C	0.384291	0.377230	0.992893
	C128	C	0.014017	0.620195	0.379755
	C129	C	0.997947	0.621158	0.623373
	C130	C	0.014590	0.377758	0.622679
	C131	C	0.998461	0.377225	0.379680
	C132	C	0.884791	0.506411	0.122007
	C133	C	0.128262	0.491119	0.123150
	C134	C	0.127230	0.506738	0.880072
	C135	C	0.884031	0.490245	0.878762
	C136	C	0.128695	0.877110	0.509012
	C137	C	0.128535	0.121324	0.492940
	C138	C	0.885489	0.120695	0.509072
	C139	C	0.885383	0.877943	0.493050
	C140	C	0.514718	0.121395	0.878524
	C141	C	0.498743	0.120544	0.121745
	C142	C	0.514005	0.877790	0.122286
	C143	C	0.498341	0.877892	0.878693
	C144	C	0.387926	0.885186	0.677111
	C145	C	0.625633	0.113969	0.676635
	C146	C	0.625236	0.884685	0.323720
	C147	C	0.387642	0.114664	0.323352
	C148	C	0.681497	0.380846	0.886044
	C149	C	0.683244	0.618232	0.115213
	C150	C	0.329427	0.617715	0.885941
	C151	C	0.329942	0.380051	0.115846
	C152	C	0.891422	0.675400	0.381821
	C153	C	0.120990	0.675671	0.620199
	C154	C	0.892189	0.322287	0.619325
	C155	C	0.121341	0.322686	0.382424
	C156	C	0.891738	0.380419	0.676718
	C157	C	0.120846	0.617911	0.677985
	C158	C	0.891331	0.617164	0.324290
	C159	C	0.121084	0.380083	0.324489
	C160	C	0.386749	0.675740	0.886052
	C161	C	0.625736	0.676621	0.115276
	C162	C	0.623900	0.323253	0.885989
	C163	C	0.387012	0.321284	0.115445
	C164	C	0.683306	0.884900	0.381263
	C165	C	0.683615	0.114012	0.619422
	C166	C	0.330053	0.885313	0.619523
	C167	C	0.329420	0.114386	0.380786
	C168	C	0.886788	0.384118	0.177493
	C169	C	0.125299	0.614030	0.178303
	C170	C	0.124734	0.384184	0.824281
	C171	C	0.887181	0.613214	0.824524
	C172	C	0.182990	0.880524	0.386168
	C173	C	0.183375	0.118543	0.615709
	C174	C	0.830108	0.117983	0.386494
	C175	C	0.829972	0.880628	0.615377
	C176	C	0.391515	0.175267	0.881315
	C177	C	0.621188	0.175920	0.118954
	C178	C	0.391181	0.822679	0.119778
	C179	C	0.620942	0.822544	0.881766
	C180	C	0.391432	0.880205	0.177706
	C181	C	0.621197	0.118623	0.177367
	C182	C	0.392035	0.117963	0.823348
	C183	C	0.621074	0.880254	0.823743
	C184	C	0.887913	0.175678	0.386543
	C185	C	0.126091	0.176276	0.615702
	C186	C	0.126023	0.821669	0.386589
	C187	C	0.887862	0.822991	0.615425
	C188	C	0.181945	0.383768	0.882714
	C189	C	0.182890	0.614211	0.119899
	C190	C	0.829176	0.383993	0.119522
	C191	C	0.829496	0.612982	0.882204
	C192	C	0.407629	0.093459	0.599977
	C193	C	0.606347	0.905685	0.599674
	C194	C	0.606325	0.093052	0.400610
	C195	C	0.407187	0.906899	0.400902
	C196	C	0.605215	0.399772	0.094422
	C197	C	0.605152	0.599190	0.907121
	C198	C	0.406386	0.599331	0.094264
	C199	C	0.406263	0.399484	0.907581
	C200	C	0.099482	0.598128	0.402244
	C201	C	0.911890	0.599450	0.601588
	C202	C	0.100653	0.399889	0.601198
	C203	C	0.912734	0.398894	0.401344
	C204	C	0.907658	0.591735	0.099552
	C205	C	0.105465	0.405797	0.100801
	C206	C	0.105447	0.592164	0.902323
	C207	C	0.905462	0.404486	0.900151
	C208	C	0.106692	0.899322	0.594672
	C209	C	0.106296	0.099556	0.407124
	C210	C	0.907732	0.099036	0.594864
	C211	C	0.907769	0.900146	0.407463
	C212	C	0.600668	0.099943	0.900396
	C213	C	0.412869	0.098099	0.099900
	C214	C	0.599418	0.900139	0.099968
	C215	C	0.412948	0.900101	0.900776
	Zn216	Zn	0.507041	-0.000449	0.750152
	Zn217	Zn	0.506338	-0.000864	0.250528
	Zn218	Zn	0.755803	0.498466	0.000641
	Zn219	Zn	0.256455	0.499120	0.001245
	Zn220	Zn	0.006158	0.749007	0.501120
	Zn221	Zn	0.007370	0.249127	0.501116
	Zn222	Zn	0.006001	0.498962	0.751358
	Zn223	Zn	0.005830	0.498468	0.251116
	Zn224	Zn	0.505832	0.749312	0.000697
	Zn225	Zn	0.506140	0.249293	0.000477
	Zn226	Zn	0.756706	-0.000689	0.500736
	Zn227	Zn	0.256548	-0.000006	0.500863
	N228	N	0.421654	0.962462	0.678698
	N229	N	0.591988	0.036808	0.678058
	N230	N	0.591736	0.961777	0.321962
	N231	N	0.421560	0.037608	0.321874
	N232	N	0.683566	0.414132	0.963419
	N233	N	0.684696	0.584826	0.037889
	N234	N	0.327659	0.584510	0.963368
	N235	N	0.328147	0.414101	0.038766
	N236	N	0.968737	0.677302	0.415577
	N237	N	0.043518	0.677865	0.586998
	N238	N	0.969616	0.320765	0.586267
	N239	N	0.044162	0.320708	0.415773
	N240	N	0.969116	0.414123	0.678607
	N241	N	0.043365	0.584801	0.680009
	N242	N	0.968591	0.583591	0.322826
	N243	N	0.043702	0.413509	0.322811
	N244	N	0.420400	0.677777	0.963211
	N245	N	0.591939	0.678428	0.038079
	N246	N	0.590754	0.321407	0.963230
	N247	N	0.420159	0.319805	0.038200
	N248	N	0.685229	0.962224	0.414727
	N249	N	0.685427	0.036721	0.585972
	N250	N	0.328208	0.962551	0.586039
	N251	N	0.327662	0.037240	0.414490
	N252	N	0.920925	0.461204	0.179002
	N253	N	0.092081	0.536469	0.180396
	N254	N	0.091406	0.461325	0.822690
	N255	N	0.920485	0.535858	0.822353
	N256	N	0.184848	0.914304	0.463364
	N257	N	0.184940	0.085007	0.538321
	N258	N	0.828501	0.084675	0.463652
	N259	N	0.828495	0.914200	0.538142
	N260	N	0.468862	0.177528	0.914851
	N261	N	0.544032	0.177094	0.085174
	N262	N	0.468355	0.821309	0.085938
	N263	N	0.543660	0.820786	0.915116
	N264	N	0.468771	0.913630	0.179565
	N265	N	0.543736	0.084903	0.179242
	N266	N	0.469691	0.085298	0.821318
	N267	N	0.543847	0.914000	0.821791
	N268	N	0.921771	0.177394	0.463883
	N269	N	0.092968	0.178268	0.538285
	N270	N	0.092985	0.819581	0.463962
	N271	N	0.921404	0.821229	0.538230
	N272	N	0.183838	0.460946	0.916676
	N273	N	0.184853	0.536984	0.086561
	N274	N	0.827962	0.461084	0.085666
	N275	N	0.827726	0.535794	0.915502
	O276	O	0.015475	-0.055668	1.054823
	H277	H	0.013851	-0.051960	1.053966
	H278	H	0.017407	-0.055282	1.056629
	O279	O	0.418351	0.535541	0.459252
	H280	H	0.406667	0.537990	0.456155
	H281	H	0.419719	0.532708	0.461572
	O282	O	0.448674	0.539800	0.461257
	H283	H	0.451615	0.539827	0.466627
	H284	H	0.446300	0.538145	0.457682
	O285	O	0.423737	0.526245	0.482702
	H286	H	0.423275	0.532867	0.478420
	H287	H	0.432483	0.524766	0.492223
	O288	O	-0.009061	0.943393	0.081900
	H289	H	-0.003953	0.941600	0.078268
	H290	H	-0.000901	0.944101	0.079560
	O291	O	-0.046636	0.945046	1.076032
	H292	H	-0.051975	0.939056	1.077458
	H293	H	-0.049114	0.949269	1.084001
	O294	O	0.452161	0.543244	0.496760
	H295	H	0.450893	0.543051	0.490736
	H296	H	0.444916	0.543525	0.498267
	O297	O	0.995682	-0.047066	0.063573
	H298	H	0.993492	-0.055226	0.071249
	H299	H	0.990161	-0.040717	0.061439
