data_Molecule from HDF5

_cell_length_a		16.424949
_cell_length_b		16.398856
_cell_length_c		16.721472
_cell_angle_alpha	89.818120
_cell_angle_beta	90.038176
_cell_angle_gamma	90.129642
_symmetry_space_group_name_H-M	'P 1'
_symmetry_Int_Tables_number		1

loop_
	_symmetry_equiv_pos_as_xyz
	x,y,z

loop_
	_atom_site_label
	_atom_site_type_symbol
	_atom_site_fract_x
	_atom_site_fract_y
	_atom_site_fract_z
	H0	H	0.372301	0.840432	0.694732
	H1	H	0.587170	0.155271	0.693772
	H2	H	0.587099	0.841190	0.250594
	H3	H	0.371717	0.154368	0.247251
	H4	H	0.704875	0.389972	0.815854
	H5	H	0.699290	0.599148	0.126911
	H6	H	0.257429	0.602978	0.815380
	H7	H	0.257700	0.390900	0.127072
	H8	H	0.819885	0.712808	0.371685
	H9	H	0.139699	0.716445	0.574764
	H10	H	0.820738	0.279409	0.571985
	H11	H	0.139173	0.278817	0.368143
	H12	H	0.823554	0.389218	0.693604
	H13	H	0.137437	0.605148	0.695386
	H14	H	0.821074	0.600314	0.252562
	H15	H	0.136207	0.390154	0.248481
	H16	H	0.374949	0.720017	0.815163
	H17	H	0.581360	0.715148	0.127490
	H18	H	0.585593	0.274591	0.814438
	H19	H	0.373196	0.272811	0.126029
	H20	H	0.695217	0.836664	0.373163
	H21	H	0.700483	0.155955	0.574773
	H22	H	0.258759	0.839395	0.576578
	H23	H	0.260106	0.156843	0.366797
	H24	H	0.872340	0.339451	0.192582
	H25	H	0.083792	0.655700	0.190199
	H26	H	0.088366	0.340059	0.747931
	H27	H	0.875178	0.655151	0.748802
	H28	H	0.202525	0.893896	0.315644
	H29	H	0.202111	0.102890	0.628201
	H30	H	0.760096	0.099242	0.316603
	H31	H	0.759190	0.890231	0.629395
	H32	H	0.320218	0.216783	0.867150
	H33	H	0.638543	0.216051	0.070709
	H34	H	0.321252	0.776816	0.076694
	H35	H	0.639058	0.780330	0.871763
	H36	H	0.323794	0.888440	0.196860
	H37	H	0.638019	0.103929	0.191799
	H38	H	0.322828	0.106178	0.747017
	H39	H	0.636276	0.890171	0.750523
	H40	H	0.876890	0.215840	0.315437
	H41	H	0.086144	0.220149	0.627355
	H42	H	0.085790	0.776345	0.315674
	H43	H	0.878504	0.774720	0.628988
	H44	H	0.199149	0.337207	0.868567
	H45	H	0.197335	0.656669	0.072143
	H46	H	0.761424	0.337724	0.071588
	H47	H	0.763100	0.658014	0.868422
	H48	H	0.388593	0.112912	0.562927
	H49	H	0.561645	0.885945	0.563303
	H50	H	0.570124	0.110389	0.384521
	H51	H	0.390269	0.883057	0.379838
	H52	H	0.562018	0.410533	0.076239
	H53	H	0.570455	0.581580	0.860961
	H54	H	0.382263	0.583219	0.083692
	H55	H	0.384008	0.408909	0.858882
	H56	H	0.092765	0.583294	0.379997
	H57	H	0.870632	0.583084	0.555576
	H58	H	0.089534	0.417796	0.556308
	H59	H	0.864149	0.402323	0.382004
	H60	H	0.095598	0.410887	0.570057
	H61	H	0.868680	0.578945	0.564082
	H62	H	0.095467	0.586127	0.376015
	H63	H	0.868493	0.410410	0.384123
	H64	H	0.395152	0.582609	0.078149
	H65	H	0.564311	0.595466	0.858776
	H66	H	0.568558	0.400951	0.082520
	H67	H	0.391872	0.413856	0.863368
	H68	H	0.572768	0.113352	0.379157
	H69	H	0.573740	0.883546	0.558522
	H70	H	0.398093	0.109584	0.564144
	H71	H	0.399037	0.887582	0.383121
	H72	H	0.884708	0.614149	0.064497
	H73	H	0.063263	0.383356	0.065883
	H74	H	0.061388	0.607929	0.879782
	H75	H	0.898660	0.384362	0.875323
	H76	H	0.076943	0.903560	0.586242
	H77	H	0.077727	0.086640	0.359356
	H78	H	0.895762	0.087103	0.582898
	H79	H	0.888626	0.908116	0.362138
	H80	H	0.590754	0.086631	0.885974
	H81	H	0.367670	0.082872	0.058608
	H82	H	0.590490	0.914406	0.062254
	H83	H	0.366091	0.911377	0.882289
	H84	H	0.594603	0.907074	0.068277
	H85	H	0.367605	0.080300	0.061975
	H86	H	0.591409	0.081643	0.880119
	H87	H	0.366328	0.909990	0.882661
	H88	H	0.889779	0.090903	0.585611
	H89	H	0.066296	0.081339	0.364693
	H90	H	0.070050	0.915914	0.580238
	H91	H	0.888718	0.904219	0.360829
	H92	H	0.068088	0.607570	0.887979
	H93	H	0.065503	0.385606	0.055931
	H94	H	0.895641	0.610807	0.066487
	H95	H	0.894456	0.387914	0.889958
	H96	H	0.393783	0.108802	0.555704
	H97	H	0.570416	0.880266	0.570652
	H98	H	0.566226	0.111318	0.379184
	H99	H	0.390861	0.886736	0.389627
	H100	H	0.574625	0.412150	0.080307
	H101	H	0.578729	0.592623	0.855249
	H102	H	0.390371	0.594061	0.084503
	H103	H	0.393182	0.403739	0.859937
	H104	H	0.094508	0.588505	0.381148
	H105	H	0.865735	0.588290	0.562350
	H106	H	0.094659	0.402335	0.556414
	H107	H	0.865843	0.409224	0.375629
	H108	H	0.891029	0.609283	0.056437
	H109	H	0.073089	0.381825	0.062198
	H110	H	0.070855	0.611921	0.879185
	H111	H	0.883624	0.381198	0.880330
	H112	H	0.062503	0.902436	0.580751
	H113	H	0.065828	0.094091	0.359991
	H114	H	0.888348	0.082985	0.583771
	H115	H	0.885838	0.906454	0.360712
	H116	H	0.594153	0.088404	0.879538
	H117	H	0.366144	0.084406	0.062016
	H118	H	0.593451	0.905087	0.058085
	H119	H	0.367257	0.910630	0.883555
	C120	C	0.359851	0.006007	0.592906
	C121	C	0.601174	0.988484	0.594711
	C122	C	0.600931	0.006289	0.351605
	C123	C	0.360276	0.989980	0.351507
	C124	C	0.601326	0.375256	-0.022511
	C125	C	0.601884	0.619938	0.961826
	C126	C	0.357074	0.619793	-0.020646
	C127	C	0.357297	0.375321	0.963012
	C128	C	-0.011347	0.617020	0.349811
	C129	C	0.972690	0.616994	0.593063
	C130	C	-0.010887	0.376664	0.592600
	C131	C	0.970763	0.375521	0.349216
	C132	C	0.858127	0.506152	0.092777
	C133	C	0.099878	0.488261	0.092448
	C134	C	0.100195	0.504690	0.850444
	C135	C	0.859734	0.489041	0.849740
	C136	C	0.102229	0.875731	0.479591
	C137	C	0.102749	0.120271	0.463734
	C138	C	0.858939	0.118225	0.480923
	C139	C	0.857352	0.873559	0.464543
	C140	C	0.487845	0.118699	0.849208
	C141	C	0.471462	0.116843	0.091782
	C142	C	0.488703	0.875497	0.095035
	C143	C	0.471163	0.878163	0.851968
	C144	C	0.355151	0.887602	0.654014
	C145	C	0.604456	0.107942	0.653364
	C146	C	0.603464	0.887503	0.292118
	C147	C	0.355400	0.107708	0.288945
	C148	C	0.663152	0.372204	0.861714
	C149	C	0.659888	0.618932	0.079910
	C150	C	0.297225	0.621755	0.862374
	C151	C	0.297638	0.372568	0.080230
	C152	C	0.868166	0.674216	0.351601
	C153	C	0.092004	0.676915	0.593979
	C154	C	0.869180	0.317366	0.592369
	C155	C	0.090593	0.317023	0.348626
	C156	C	0.870499	0.372122	0.652756
	C157	C	0.090819	0.621641	0.654091
	C158	C	0.868713	0.618252	0.292298
	C159	C	0.089312	0.372434	0.288888
	C160	C	0.355841	0.679911	0.862203
	C161	C	0.601246	0.676448	0.080314
	C162	C	0.604033	0.314472	0.861250
	C163	C	0.355102	0.313748	0.079684
	C164	C	0.657593	0.885489	0.352973
	C165	C	0.661103	0.108198	0.594620
	C166	C	0.298410	0.887206	0.595311
	C167	C	0.300019	0.109093	0.348769
	C168	C	0.854870	0.387033	0.152138
	C169	C	0.102120	0.607896	0.150761
	C170	C	0.104800	0.386548	0.789398
	C171	C	0.857040	0.607905	0.789023
	C172	C	0.162132	0.875153	0.362364
	C173	C	0.162354	0.121588	0.581086
	C174	C	0.799770	0.118423	0.363525
	C175	C	0.798982	0.871600	0.582339
	C176	C	0.368199	0.177911	0.847612
	C177	C	0.591116	0.176639	0.091182
	C178	C	0.369504	0.815506	0.096330
	C179	C	0.590998	0.819238	0.851957
	C180	C	0.370875	0.871248	0.156067
	C181	C	0.590652	0.120959	0.151109
	C182	C	0.369688	0.122794	0.787921
	C183	C	0.589669	0.873744	0.791568
	C184	C	0.858195	0.176506	0.362859
	C185	C	0.104626	0.180056	0.580883
	C186	C	0.103740	0.816779	0.362104
	C187	C	0.858265	0.814190	0.582096
	C188	C	0.159878	0.385178	0.849383
	C189	C	0.158570	0.608581	0.092054
	C190	C	0.799540	0.386022	0.092161
	C191	C	0.801562	0.609465	0.848743
	C192	C	0.386060	0.088978	0.567969
	C193	C	0.575647	0.905079	0.571127
	C194	C	0.576652	0.089981	0.374493
	C195	C	0.386160	0.907387	0.376819
	C196	C	0.575687	0.400741	0.058714
	C197	C	0.577900	0.596608	0.879522
	C198	C	0.382012	0.593979	0.061073
	C199	C	0.382599	0.401384	0.881784
	C200	C	0.072542	0.593063	0.372547
	C201	C	0.889703	0.590867	0.567980
	C202	C	0.071770	0.402942	0.568055
	C203	C	0.887702	0.400289	0.373531
	C204	C	0.883259	0.589713	0.069240
	C205	C	0.074517	0.405153	0.068278
	C206	C	0.074259	0.587549	0.875283
	C207	C	0.884919	0.405996	0.874741
	C208	C	0.076911	0.900297	0.561147
	C209	C	0.077229	0.094719	0.382538
	C210	C	0.884019	0.093813	0.562874
	C211	C	0.881001	0.898902	0.382647
	C212	C	0.570540	0.092916	0.874513
	C213	C	0.388732	0.090175	0.067749
	C214	C	0.571487	0.901480	0.070023
	C215	C	0.388094	0.903381	0.875851
	Zn216	Zn	0.479627	-0.002491	0.722505
	Zn217	Zn	0.480312	-0.002056	0.222574
	Zn218	Zn	0.731123	0.497893	-0.030233
	Zn219	Zn	0.227948	0.496525	-0.028889
	Zn220	Zn	-0.019033	0.744886	0.471555
	Zn221	Zn	-0.019385	0.248764	0.471535
	Zn222	Zn	-0.019680	0.496466	0.721697
	Zn223	Zn	-0.020562	0.496632	0.220842
	Zn224	Zn	0.479377	0.749142	-0.028270
	Zn225	Zn	0.478759	0.245420	-0.029544
	Zn226	Zn	0.728785	-0.003854	0.473676
	Zn227	Zn	0.231474	-0.001741	0.471670
	N228	N	0.392705	0.962488	0.652541
	N229	N	0.568192	0.032416	0.653756
	N230	N	0.569107	0.963819	0.290897
	N231	N	0.392383	0.032775	0.290741
	N232	N	0.661398	0.409383	0.935006
	N233	N	0.660595	0.584740	0.005158
	N234	N	0.297772	0.585149	0.936341
	N235	N	0.298974	0.410141	0.006867
	N236	N	0.943959	0.673759	0.386487
	N237	N	0.017419	0.674123	0.556782
	N238	N	0.944024	0.319766	0.555938
	N239	N	0.015916	0.318972	0.385598
	N240	N	0.945998	0.408103	0.653130
	N241	N	0.015560	0.584937	0.653431
	N242	N	0.944841	0.583728	0.290821
	N243	N	0.013769	0.407982	0.289048
	N244	N	0.392148	0.678797	0.936233
	N245	N	0.566070	0.677494	0.005850
	N246	N	0.565915	0.316464	0.934302
	N247	N	0.391415	0.315139	0.005709
	N248	N	0.656158	0.960455	0.389391
	N249	N	0.659270	0.032857	0.559036
	N250	N	0.301126	0.961943	0.558106
	N251	N	0.303089	0.034975	0.387234
	N252	N	0.890457	0.462785	0.152600
	N253	N	0.066454	0.532000	0.151341
	N254	N	0.068322	0.461849	0.789994
	N255	N	0.892281	0.532000	0.789356
	N256	N	0.161240	0.910981	0.436381
	N257	N	0.161371	0.085277	0.507252
	N258	N	0.799971	0.083013	0.438114
	N259	N	0.798132	0.907825	0.508194
	N260	N	0.442525	0.175273	0.885156
	N261	N	0.516011	0.174359	0.055092
	N262	N	0.444021	0.817921	0.059055
	N263	N	0.516249	0.821701	0.888671
	N264	N	0.446165	0.907871	0.155373
	N265	N	0.515212	0.084727	0.151743
	N266	N	0.445265	0.086853	0.788714
	N267	N	0.514243	0.909932	0.791631
	N268	N	0.894161	0.176687	0.437042
	N269	N	0.068601	0.179663	0.506735
	N270	N	0.067397	0.816774	0.436108
	N271	N	0.893580	0.815219	0.507688
	N272	N	0.156856	0.459807	0.886696
	N273	N	0.157502	0.533157	0.056663
	N274	N	0.801433	0.461321	0.055817
	N275	N	0.802694	0.534305	0.885404
	O276	O	0.358573	0.647578	0.642783
	H277	H	0.346292	0.654485	0.609188
	H278	H	0.381615	0.648821	0.652263
	O279	O	0.679562	0.508537	0.684856
	H280	H	0.684490	0.524868	0.688864
	H281	H	0.685272	0.504635	0.687591
	O282	O	0.862121	1.128830	-0.001938
	H283	H	0.867520	1.135008	0.026525
	H284	H	0.877824	1.125670	0.004783
	O285	O	1.110034	-0.044433	1.152377
	H286	H	1.121671	-0.043347	1.146294
	H287	H	1.098032	-0.045331	1.158116
	O288	O	0.283714	-0.305909	0.279057
	H289	H	0.286074	-0.352346	0.273607
	H290	H	0.255310	-0.289248	0.260488
	O291	O	1.268293	1.652548	0.481029
	H292	H	1.271089	1.644826	0.460231
	H293	H	1.250233	1.661583	0.479368
	O294	O	0.189085	1.059579	-0.010591
	H295	H	0.193951	1.063877	-0.007788
	H296	H	0.179147	1.040330	-0.013745
	O297	O	0.808919	0.179784	0.148971
	H298	H	0.842286	0.165949	0.146758
	H299	H	0.812924	0.155547	0.138137
	O300	O	-0.226137	0.986157	1.135676
	H301	H	-0.233822	0.956247	1.131973
	H302	H	-0.231870	0.971290	1.149039
	O303	O	0.262939	0.278289	0.498816
	H304	H	0.244935	0.263822	0.522490
	H305	H	0.252709	0.277392	0.516672
	O306	O	0.119562	1.130652	0.972441
	H307	H	0.142461	1.137998	0.961968
	H308	H	0.123322	1.108028	0.969533
	O309	O	0.460767	0.487048	0.343496
	H310	H	0.441870	0.493265	0.329468
	H311	H	0.451494	0.484278	0.341117
	O312	O	0.551842	0.586136	0.534528
	H313	H	0.546455	0.582648	0.549698
	H314	H	0.556634	0.601580	0.537122
	O315	O	0.099992	-0.198136	1.095772
	H316	H	0.079252	-0.189360	1.096961
	H317	H	0.100428	-0.180957	1.082612
	O318	O	0.167015	0.807402	-0.071855
	H319	H	0.189369	0.787694	-0.078799
	H320	H	0.165404	0.820451	-0.092409
	O321	O	0.614552	0.412351	0.280900
	H322	H	0.596016	0.419432	0.284383
	H323	H	0.615161	0.412891	0.270050
	O324	O	0.379517	0.484617	0.606375
	H325	H	0.364502	0.492509	0.618064
	H326	H	0.385845	0.478717	0.596027
	O327	O	1.182474	-0.112511	0.791851
	H328	H	1.179587	-0.123638	0.776394
	H329	H	1.172472	-0.110347	0.800852
	O330	O	0.954279	0.208835	-0.245003
	H331	H	0.951580	0.208782	-0.251078
	H332	H	0.956681	0.226037	-0.260959
	O333	O	0.400072	0.333772	1.303032
	H334	H	0.393598	0.321220	1.287483
	H335	H	0.420739	0.334515	1.315320
	O336	O	1.140154	0.120688	1.111734
	H337	H	1.142198	0.109348	1.119417
	H338	H	1.137088	0.126805	1.088378
	O339	O	0.532582	0.414936	1.472606
	H340	H	0.535830	0.416958	1.459703
	H341	H	0.545790	0.414743	1.458992
	O342	O	0.492301	0.667266	0.626632
	H343	H	0.484419	0.660684	0.630644
	H344	H	0.481949	0.682247	0.618218
	O345	O	0.183157	0.112310	0.176629
	H346	H	0.178659	0.097921	0.176979
	H347	H	0.179232	0.117191	0.171216
	O348	O	0.961650	0.094764	1.026341
	H349	H	0.965734	0.090908	1.030202
	H350	H	0.964919	0.082034	1.017958
	O351	O	1.036095	0.846024	0.763215
	H352	H	1.020560	0.854143	0.764764
	H353	H	1.025294	0.849073	0.764823
	O354	O	0.301003	0.323627	0.652039
	H355	H	0.310966	0.352992	0.654230
	H356	H	0.329978	0.327619	0.657175
	O357	O	1.200455	1.053671	0.767283
	H358	H	1.215172	1.042385	0.750159
	H359	H	1.196019	1.059569	0.755237
	O360	O	0.387695	0.713857	0.470788
	H361	H	0.372284	0.723156	0.448514
	H362	H	0.380431	0.712437	0.451653
	O363	O	0.906028	0.142451	0.846280
	H364	H	0.923226	0.152214	0.834706
	H365	H	0.910353	0.146127	0.870371
	O366	O	1.386135	-0.611619	1.388469
	H367	H	1.416383	-0.615132	1.394324
	H368	H	1.372991	-0.634082	1.414960
	O369	O	0.372110	0.530324	0.256986
	H370	H	0.369889	0.533649	0.246921
	H371	H	0.364496	0.512242	0.246990
	O372	O	0.623898	0.367826	0.259628
	H373	H	0.650054	0.353016	0.248685
	H374	H	0.633619	0.389195	0.261744
	O375	O	-0.231980	1.104342	0.752856
	H376	H	-0.260076	1.130790	0.732418
	H377	H	-0.237888	1.122503	0.774183
	O378	O	0.645453	0.665101	0.274486
	H379	H	0.633302	0.650665	0.293783
	H380	H	0.624957	0.651651	0.278963
	O381	O	1.019356	0.028952	-0.206868
	H382	H	1.018292	0.036911	-0.199461
	H383	H	1.017678	0.029158	-0.203419
	O384	O	-0.050232	-0.219544	1.193951
	H385	H	-0.065231	-0.240422	1.203850
	H386	H	-0.088379	-0.227263	1.202131
	O387	O	-0.613114	1.458024	0.680092
	H388	H	-0.618369	1.453985	0.697763
	H389	H	-0.608631	1.461094	0.666559
	O390	O	-0.061746	-0.075009	0.816962
	H391	H	-0.067669	-0.064881	0.820972
	H392	H	-0.079359	-0.071590	0.826550
	O393	O	0.786840	0.835783	0.152953
	H394	H	0.775238	0.830309	0.117835
	H395	H	0.765299	0.816057	0.160908
	O396	O	0.993611	0.205119	1.152999
	H397	H	1.008890	0.212441	1.165378
	H398	H	1.004701	0.205275	1.153577
	O399	O	0.990669	1.025207	1.189766
	H400	H	0.985877	1.022094	1.187504
	H401	H	0.963615	0.999144	1.190784
	O402	O	-0.223571	-0.096909	0.907724
	H403	H	-0.238221	-0.090569	0.898107
	H404	H	-0.219778	-0.088804	0.886023
	O405	O	-0.231030	-0.178133	0.085911
	H406	H	-0.231919	-0.175869	0.066681
	H407	H	-0.251755	-0.195852	0.078058
	O408	O	0.391576	1.494848	1.499811
	H409	H	0.391961	1.506080	1.501466
	H410	H	0.404942	1.482030	1.496182
	O411	O	0.472924	0.309649	0.686081
	H412	H	0.485474	0.294659	0.684480
	H413	H	0.486146	0.296323	0.681908
	O414	O	0.553156	0.481991	0.663153
	H415	H	0.563143	0.473459	0.670529
	H416	H	0.566432	0.481156	0.653619
	O417	O	1.060882	1.095364	-0.061275
	H418	H	1.065572	1.081267	-0.070479
	H419	H	1.051759	1.097073	-0.068630
	O420	O	0.671670	0.278799	0.412704
	H421	H	0.697612	0.266642	0.408946
	H422	H	0.676676	0.273326	0.381675
	O423	O	0.686777	1.458406	0.379648
	H424	H	0.682118	1.442778	0.379859
	H425	H	0.669833	1.453606	0.368523
	O426	O	0.796186	1.016409	0.863505
	H427	H	0.799209	1.015250	0.864352
	H428	H	0.790250	1.029280	0.865813
	O429	O	0.690269	0.486385	0.510498
	H430	H	0.690123	0.492098	0.509721
	H431	H	0.681989	0.488900	0.517996
	O432	O	0.897561	-0.072901	1.004309
	H433	H	0.888800	-0.078002	1.007034
	H434	H	0.902533	-0.073837	1.017989
	O435	O	-0.331631	-0.310809	-0.333341
	H436	H	-0.345384	-0.296417	-0.325368
	H437	H	-0.340286	-0.336235	-0.344261
	O438	O	1.108707	-0.082443	0.914281
	H439	H	1.115901	-0.086476	0.915411
	H440	H	1.102141	-0.069072	0.911403
	O441	O	0.577076	0.302581	0.578450
	H442	H	0.570481	0.322954	0.571791
	H443	H	0.576319	0.312681	0.563398
	O444	O	0.486474	1.683797	0.457513
	H445	H	0.510833	1.683301	0.446165
	H446	H	0.462231	1.683940	0.447945
	O447	O	0.972019	1.100444	-0.146350
	H448	H	0.987301	1.106243	-0.160305
	H449	H	0.986322	1.108764	-0.143145
	O450	O	0.394127	0.397037	0.263772
	H451	H	0.402254	0.389018	0.270103
	H452	H	0.391701	0.388933	0.270130
	O453	O	0.446721	0.656171	0.307351
	H454	H	0.447163	0.679835	0.300133
	H455	H	0.411613	0.651796	0.316409
	O456	O	0.982379	-0.142906	0.001148
	H457	H	0.982460	-0.144571	0.007041
	H458	H	0.974930	-0.146088	0.011556
	O459	O	0.325916	0.515235	0.402332
	H460	H	0.329008	0.497553	0.397844
	H461	H	0.321335	0.511513	0.402120
	O462	O	0.685598	0.632647	0.423977
	H463	H	0.680062	0.619811	0.443318
	H464	H	0.711118	0.639352	0.418019
	O465	O	0.822374	-0.136504	-0.124795
	H466	H	0.825351	-0.133561	-0.137444
	H467	H	0.846955	-0.119931	-0.124593
