data_Molecule from HDF5

_cell_length_a		16.322440
_cell_length_b		16.361572
_cell_length_c		16.237273
_cell_angle_alpha	90.117490
_cell_angle_beta	89.500107
_cell_angle_gamma	89.909921
_symmetry_space_group_name_H-M	'P 1'
_symmetry_Int_Tables_number		1

loop_
	_symmetry_equiv_pos_as_xyz
	x,y,z

loop_
	_atom_site_label
	_atom_site_type_symbol
	_atom_site_fract_x
	_atom_site_fract_y
	_atom_site_fract_z
	H0	H	0.394761	0.847385	0.728591
	H1	H	0.592912	0.172408	0.726940
	H2	H	0.596628	0.847647	0.293433
	H3	H	0.396534	0.173057	0.298721
	H4	H	0.718189	0.407558	0.851788
	H5	H	0.708779	0.611070	0.177641
	H6	H	0.281632	0.612363	0.849534
	H7	H	0.279224	0.410700	0.174775
	H8	H	0.834234	0.727312	0.412021
	H9	H	0.157358	0.727722	0.613861
	H10	H	0.833627	0.292204	0.616797
	H11	H	0.157917	0.290779	0.409127
	H12	H	0.835089	0.407547	0.733910
	H13	H	0.160293	0.607700	0.725057
	H14	H	0.834212	0.610237	0.297950
	H15	H	0.157945	0.406976	0.294045
	H16	H	0.398917	0.724538	0.848103
	H17	H	0.595423	0.729134	0.174500
	H18	H	0.600702	0.293368	0.850004
	H19	H	0.392481	0.293562	0.173969
	H20	H	0.715697	0.848413	0.405926
	H21	H	0.711020	0.171945	0.611346
	H22	H	0.278956	0.847170	0.613117
	H23	H	0.278075	0.170388	0.412052
	H24	H	0.896016	0.347093	0.229767
	H25	H	0.095709	0.672285	0.230129
	H26	H	0.099378	0.348312	0.795675
	H27	H	0.898426	0.672564	0.798564
	H28	H	0.213689	0.906691	0.349765
	H29	H	0.209480	0.108805	0.675598
	H30	H	0.781193	0.111171	0.347850
	H31	H	0.776411	0.909620	0.674164
	H32	H	0.334304	0.229726	0.910454
	H33	H	0.658024	0.227633	0.112488
	H34	H	0.333488	0.794531	0.112178
	H35	H	0.658139	0.792980	0.907717
	H36	H	0.332565	0.912351	0.227648
	H37	H	0.658399	0.111847	0.226852
	H38	H	0.331352	0.109039	0.799713
	H39	H	0.658401	0.910944	0.794039
	H40	H	0.895567	0.227598	0.349833
	H41	H	0.095490	0.225439	0.675242
	H42	H	0.097580	0.791448	0.350205
	H43	H	0.891794	0.793721	0.675964
	H44	H	0.216497	0.350094	0.909403
	H45	H	0.211509	0.672640	0.113569
	H46	H	0.777175	0.348814	0.116896
	H47	H	0.781236	0.672798	0.914372
	H48	H	0.398158	0.126065	0.608239
	H49	H	0.588487	0.892704	0.605112
	H50	H	0.604428	0.130126	0.418011
	H51	H	0.412101	0.897490	0.422405
	H52	H	0.581235	0.416176	0.128314
	H53	H	0.594413	0.596070	0.897163
	H54	H	0.406940	0.612888	0.130200
	H55	H	0.415013	0.420200	0.898338
	H56	H	0.113302	0.605797	0.420185
	H57	H	0.882878	0.598641	0.602870
	H58	H	0.111494	0.416370	0.604476
	H59	H	0.882528	0.422175	0.422138
	H60	H	0.111866	0.414565	0.601411
	H61	H	0.880647	0.599657	0.610063
	H62	H	0.109537	0.599874	0.427551
	H63	H	0.879077	0.414856	0.419454
	H64	H	0.395348	0.600831	0.130764
	H65	H	0.584322	0.600865	0.899211
	H66	H	0.590144	0.417785	0.130032
	H67	H	0.403293	0.412350	0.893221
	H68	H	0.578684	0.126061	0.406960
	H69	H	0.581194	0.896764	0.601702
	H70	H	0.405728	0.124631	0.605984
	H71	H	0.397513	0.893012	0.424830
	H72	H	0.912651	0.623608	0.110125
	H73	H	0.090007	0.394415	0.104166
	H74	H	0.093966	0.628526	0.914685
	H75	H	0.914490	0.394775	0.912217
	H76	H	0.084723	0.920213	0.628007
	H77	H	0.084438	0.100614	0.397686
	H78	H	0.906914	0.099857	0.625238
	H79	H	0.907205	0.912880	0.395357
	H80	H	0.612372	0.101617	0.913003
	H81	H	0.384586	0.103352	0.094940
	H82	H	0.608982	0.918987	0.094735
	H83	H	0.377093	0.916245	0.911701
	H84	H	0.610224	0.924530	0.104334
	H85	H	0.380773	0.095360	0.109446
	H86	H	0.611165	0.106746	0.920652
	H87	H	0.379859	0.909874	0.927220
	H88	H	0.901291	0.103063	0.628646
	H89	H	0.090218	0.102329	0.394942
	H90	H	0.085114	0.914650	0.628575
	H91	H	0.902742	0.917913	0.395155
	H92	H	0.083827	0.624862	0.918508
	H93	H	0.087687	0.395818	0.103106
	H94	H	0.902442	0.621749	0.096085
	H95	H	0.912767	0.401747	0.936015
	H96	H	0.400016	0.124329	0.600443
	H97	H	0.588563	0.896287	0.596946
	H98	H	0.583734	0.118922	0.433257
	H99	H	0.403429	0.891634	0.410891
	H100	H	0.584590	0.424611	0.127072
	H101	H	0.592379	0.607158	0.893952
	H102	H	0.410532	0.597635	0.124449
	H103	H	0.401333	0.427163	0.896848
	H104	H	0.111148	0.596204	0.418641
	H105	H	0.880265	0.604464	0.605586
	H106	H	0.110755	0.417767	0.602246
	H107	H	0.881193	0.416399	0.427522
	H108	H	0.896102	0.628420	0.110827
	H109	H	0.089749	0.395768	0.101532
	H110	H	0.092475	0.625803	0.925910
	H111	H	0.893444	0.391820	0.925096
	H112	H	0.089518	0.918147	0.629092
	H113	H	0.088979	0.095971	0.397211
	H114	H	0.901045	0.096356	0.626770
	H115	H	0.908981	0.919128	0.397737
	H116	H	0.608568	0.098239	0.921186
	H117	H	0.377003	0.111276	0.108343
	H118	H	0.613324	0.913792	0.103997
	H119	H	0.383766	0.926094	0.923849
	C120	C	0.372424	0.017748	0.634322
	C121	C	0.615740	1.002087	0.631530
	C122	C	0.618837	0.018191	0.388399
	C123	C	0.374485	1.001256	0.390863
	C124	C	0.617733	0.389203	0.021490
	C125	C	0.618058	0.631666	1.004306
	C126	C	0.375470	0.632675	0.020595
	C127	C	0.375438	0.390035	1.003608
	C128	C	0.004265	0.630582	0.392622
	C129	C	0.988140	0.630996	0.634922
	C130	C	0.004436	0.386622	0.634989
	C131	C	0.987890	0.387494	0.391925
	C132	C	0.873463	0.518194	0.136636
	C133	C	0.117760	0.502323	0.133710
	C134	C	0.120044	0.519112	0.890053
	C135	C	0.876406	0.502434	0.893460
	C136	C	0.117003	0.887168	0.521105
	C137	C	0.116853	0.129826	0.504161
	C138	C	0.874319	0.130496	0.519703
	C139	C	0.874114	0.887391	0.503634
	C140	C	0.503538	0.132102	0.889580
	C141	C	0.487735	0.133151	0.133725
	C142	C	0.503784	0.889590	0.132292
	C143	C	0.487482	0.888002	0.889556
	C144	C	0.374405	0.895748	0.690408
	C145	C	0.613470	0.124114	0.688300
	C146	C	0.617153	0.896344	0.331069
	C147	C	0.376377	0.123950	0.336173
	C148	C	0.677912	0.388701	0.899860
	C149	C	0.672021	0.630913	0.127825
	C150	C	0.319810	0.631664	0.898187
	C151	C	0.317742	0.391135	0.125981
	C152	C	0.882625	0.688053	0.393047
	C153	C	0.109499	0.688472	0.633555
	C154	C	0.882596	0.330070	0.636204
	C155	C	0.109438	0.329702	0.390592
	C156	C	0.883113	0.387671	0.694459
	C157	C	0.110903	0.628656	0.688700
	C158	C	0.882587	0.629844	0.336031
	C159	C	0.109532	0.387349	0.333091
	C160	C	0.378023	0.687603	0.897382
	C161	C	0.615621	0.689741	0.126459
	C162	C	0.619496	0.331778	0.899005
	C163	C	0.374177	0.332835	0.125483
	C164	C	0.676248	0.896733	0.387260
	C165	C	0.672582	0.123580	0.630969
	C166	C	0.316954	0.895705	0.632844
	C167	C	0.317094	0.122623	0.392262
	C168	C	0.875522	0.396025	0.192304
	C169	C	0.115293	0.624016	0.190929
	C170	C	0.119512	0.397330	0.833551
	C171	C	0.878033	0.624054	0.836675
	C172	C	0.175084	0.887064	0.398737
	C173	C	0.172035	0.128942	0.626551
	C174	C	0.818760	0.130580	0.397064
	C175	C	0.815509	0.889213	0.625862
	C176	C	0.382173	0.189851	0.891346
	C177	C	0.609394	0.189695	0.132295
	C178	C	0.381905	0.833085	0.131995
	C179	C	0.609626	0.831611	0.888795
	C180	C	0.381351	0.891797	0.189232
	C181	C	0.609570	0.131879	0.189214
	C182	C	0.380717	0.130003	0.836018
	C183	C	0.609695	0.890177	0.832078
	C184	C	0.875860	0.188416	0.398014
	C185	C	0.115310	0.187026	0.626517
	C186	C	0.117040	0.830025	0.398772
	C187	C	0.872907	0.831571	0.626722
	C188	C	0.177578	0.398150	0.890557
	C189	C	0.173138	0.624166	0.133071
	C190	C	0.816416	0.396813	0.136046
	C191	C	0.819650	0.624146	0.894262
	C192	C	0.394689	0.102714	0.611501
	C193	C	0.592916	0.917274	0.608034
	C194	C	0.595784	0.102986	0.412427
	C195	C	0.397530	0.916169	0.412895
	C196	C	0.592556	0.412668	0.106386
	C197	C	0.596620	0.608331	0.918923
	C198	C	0.397765	0.610354	0.106233
	C199	C	0.399520	0.413121	0.918195
	C200	C	0.089132	0.607215	0.415495
	C201	C	0.903275	0.607767	0.612628
	C202	C	0.089188	0.409517	0.610037
	C203	C	0.903040	0.410949	0.416036
	C204	C	0.896970	0.602728	0.112798
	C205	C	0.095599	0.417267	0.109932
	C206	C	0.096807	0.604437	0.913103
	C207	C	0.899979	0.417965	0.917465
	C208	C	0.093280	0.910836	0.606307
	C209	C	0.094285	0.106515	0.418857
	C210	C	0.896672	0.106623	0.604790
	C211	C	0.899045	0.909989	0.418465
	C212	C	0.588680	0.108911	0.911808
	C213	C	0.402833	0.110014	0.110945
	C214	C	0.588776	0.912496	0.108146
	C215	C	0.402179	0.910837	0.913862
	Zn216	Zn	0.494474	0.009832	0.762044
	Zn217	Zn	0.495751	0.011139	0.261385
	Zn218	Zn	0.746257	0.510410	0.014098
	Zn219	Zn	0.247587	0.511792	0.012118
	Zn220	Zn	-0.004258	0.759692	0.513739
	Zn221	Zn	-0.004174	0.258476	0.512753
	Zn222	Zn	-0.002762	0.509533	0.763129
	Zn223	Zn	-0.003515	0.509261	0.263610
	Zn224	Zn	0.496385	0.759798	0.011191
	Zn225	Zn	0.495907	0.261094	0.011675
	Zn226	Zn	0.746601	0.009269	0.510378
	Zn227	Zn	0.245219	0.008593	0.512313
	N228	N	0.408235	0.972649	0.691626
	N229	N	0.578791	0.047524	0.688749
	N230	N	0.582234	0.973047	0.331342
	N231	N	0.411296	0.047454	0.334892
	N232	N	0.676929	0.423563	0.976940
	N233	N	0.673610	0.595299	0.051037
	N234	N	0.318100	0.598171	0.975842
	N235	N	0.318250	0.426051	0.048911
	N236	N	0.959287	0.688763	0.427234
	N237	N	0.032100	0.690103	0.600833
	N238	N	0.959073	0.329199	0.600148
	N239	N	0.032769	0.329726	0.426525
	N240	N	0.959946	0.422095	0.693825
	N241	N	0.034450	0.593783	0.689801
	N242	N	0.959157	0.594602	0.335680
	N243	N	0.033100	0.422780	0.333803
	N244	N	0.412003	0.688338	0.974540
	N245	N	0.582763	0.690401	0.048753
	N246	N	0.582671	0.332084	0.975547
	N247	N	0.409313	0.332067	0.048426
	N248	N	0.677386	0.973348	0.422036
	N249	N	0.673791	0.046796	0.596244
	N250	N	0.315593	0.972342	0.598828
	N251	N	0.315756	0.045462	0.425416
	N252	N	0.909955	0.472590	0.192994
	N253	N	0.081538	0.546998	0.191437
	N254	N	0.084427	0.473703	0.833109
	N255	N	0.912758	0.547351	0.836239
	N256	N	0.174920	0.921927	0.475799
	N257	N	0.173088	0.094046	0.549548
	N258	N	0.817650	0.095184	0.473884
	N259	N	0.815948	0.923028	0.548342
	N260	N	0.459625	0.191248	0.924008
	N261	N	0.532397	0.190732	0.098309
	N262	N	0.458996	0.831633	0.097210
	N263	N	0.532595	0.830175	0.923682
	N264	N	0.458146	0.926144	0.189545
	N265	N	0.532926	0.097467	0.190210
	N266	N	0.457295	0.094633	0.834874
	N267	N	0.532701	0.924702	0.832698
	N268	N	0.909324	0.188683	0.475267
	N269	N	0.081475	0.187564	0.549326
	N270	N	0.081498	0.830033	0.475798
	N271	N	0.908586	0.830273	0.549622
	N272	N	0.177968	0.475172	0.924831
	N273	N	0.174827	0.547526	0.098298
	N274	N	0.814983	0.473894	0.102322
	N275	N	0.818427	0.547409	0.928768
	O276	O	1.032187	-0.114673	0.963288
	H277	H	1.022546	-0.116629	0.958950
	H278	H	1.044555	-0.101154	0.955358
	O279	O	-0.075737	1.162070	-0.115080
	H280	H	-0.080205	1.173750	-0.118952
	H281	H	-0.080977	1.156721	-0.105293
	O282	O	0.472364	0.381036	0.476768
	H283	H	0.476471	0.386993	0.470878
	H284	H	0.464919	0.387877	0.485392
	O285	O	0.475335	0.585353	0.382867
	H286	H	0.462089	0.589614	0.392102
	H287	H	0.474821	0.576891	0.376592
	O288	O	0.544598	0.543413	0.582034
	H289	H	0.570857	0.545686	0.588365
	H290	H	0.536527	0.561537	0.586627
	O291	O	-0.437040	0.336565	0.400771
	H292	H	-0.451344	0.337907	0.409527
	H293	H	-0.442507	0.336826	0.383177
	O294	O	1.464041	0.558959	-0.382904
	H295	H	1.471812	0.570272	-0.385502
	H296	H	1.465436	0.539984	-0.392251
	O297	O	1.000361	1.162580	-0.070721
	H298	H	0.994309	1.162882	-0.059882
	H299	H	1.003145	1.174818	-0.067996
	O300	O	0.405910	0.567803	0.373282
	H301	H	0.400555	0.578190	0.374581
	H302	H	0.406469	0.576296	0.363821
	O303	O	0.463926	0.570562	0.500321
	H304	H	0.470504	0.572829	0.500479
	H305	H	0.469500	0.572055	0.507223
	O306	O	0.669239	0.400608	0.390177
	H307	H	0.669694	0.397079	0.368298
	H308	H	0.674363	0.386301	0.384661
	O309	O	0.736358	0.195420	0.859839
	H310	H	0.731407	0.201695	0.870184
	H311	H	0.726799	0.196965	0.858911
	O312	O	0.989218	1.028813	1.067133
	H313	H	0.993449	1.034460	1.059570
	H314	H	0.998703	1.028913	1.058937
	O315	O	0.411720	0.646866	0.405501
	H316	H	0.408467	0.649167	0.408628
	H317	H	0.420560	0.645292	0.426516
	O318	O	0.631062	0.517241	0.570615
	H319	H	0.638274	0.522956	0.570622
	H320	H	0.638503	0.503942	0.562381
	O321	O	0.511508	0.552080	0.545043
	H322	H	0.508878	0.560343	0.552268
	H323	H	0.515556	0.543723	0.547043
	O324	O	-0.094330	0.940562	1.075988
	H325	H	-0.091206	0.935206	1.078497
	H326	H	-0.099076	0.940033	1.085719
	O327	O	0.008749	1.043554	1.014243
	H328	H	0.001902	1.030726	1.012534
	H329	H	0.001099	1.052718	1.004989
	O330	O	0.019289	-0.046264	0.045952
	H331	H	0.024297	-0.041089	0.039089
	H332	H	0.016103	-0.049678	0.045691
	O333	O	0.368554	0.401076	0.581383
	H334	H	0.371281	0.398985	0.587869
	H335	H	0.371949	0.396522	0.588042
	O336	O	0.069613	0.021328	0.063646
	H337	H	0.065758	0.025110	0.061216
	H338	H	0.082327	0.014730	0.063736
	O339	O	-0.111196	-0.150706	0.075210
	H340	H	-0.095546	-0.151150	0.060892
	H341	H	-0.119263	-0.141745	0.083489
	O342	O	0.349822	0.453233	0.495803
	H343	H	0.339019	0.463084	0.486301
	H344	H	0.346846	0.461046	0.490206
	O345	O	0.090564	1.076398	0.959366
	H346	H	0.097447	1.075879	0.958138
	H347	H	0.107509	1.084840	0.958456
	O348	O	0.975894	0.079177	-0.033015
	H349	H	0.966862	0.076445	-0.045099
	H350	H	0.979176	0.071208	-0.031294
	O351	O	0.480833	0.492326	0.578613
	H352	H	0.483977	0.480895	0.573507
	H353	H	0.467876	0.487680	0.587875
	O354	O	-0.075163	1.041844	0.015912
	H355	H	-0.078284	1.038979	0.021238
	H356	H	-0.084766	1.031100	0.013541
	O357	O	1.105463	0.084007	0.009826
	H358	H	1.113138	0.066400	0.015551
	H359	H	1.102069	0.096002	0.015770
	O360	O	1.021148	0.081503	0.884749
	H361	H	1.023449	0.080954	0.891503
	H362	H	1.010562	0.077668	0.873245
	O363	O	0.454404	0.531339	0.508407
	H364	H	0.459539	0.528002	0.502471
	H365	H	0.448971	0.538100	0.493750
	O366	O	0.646130	0.507236	0.508842
	H367	H	0.642037	0.506610	0.515920
	H368	H	0.650978	0.495321	0.511160
	O369	O	1.002384	-0.007330	0.074437
	H370	H	0.996877	-0.021241	0.069710
	H371	H	0.993027	-0.008610	0.080702
	O372	O	0.616645	0.580401	0.480919
	H373	H	0.622483	0.571751	0.486313
	H374	H	0.623975	0.571968	0.468533
	O375	O	0.989762	0.051464	0.999650
	H376	H	1.009205	0.051056	0.995849
	H377	H	0.990428	0.046874	1.005672
	O378	O	-0.113553	0.964048	0.081879
	H379	H	-0.099548	0.966945	0.082281
	H380	H	-0.126516	0.956806	0.089228
	O381	O	0.548300	0.419268	0.622296
	H382	H	0.545958	0.427728	0.614970
	H383	H	0.557677	0.414679	0.621665
	O384	O	1.041784	1.017593	0.173680
	H385	H	1.043695	1.023392	0.165081
	H386	H	1.035453	1.014618	0.178899
	O387	O	0.505545	-0.488473	0.611481
	H388	H	0.495890	-0.501216	0.608947
	H389	H	0.518979	-0.485783	0.597771
	O390	O	1.137757	1.030120	-0.072591
	H391	H	1.138672	1.041535	-0.073384
	H392	H	1.138549	1.034932	-0.080222
	O393	O	0.420055	0.669326	0.469607
	H394	H	0.442758	0.659204	0.473837
	H395	H	0.419942	0.681426	0.486261
