data_Molecule from HDF5

_cell_length_a		16.563163
_cell_length_b		16.553020
_cell_length_c		16.844390
_cell_angle_alpha	89.964572
_cell_angle_beta	90.099858
_cell_angle_gamma	89.938809
_symmetry_space_group_name_H-M	'P 1'
_symmetry_Int_Tables_number		1

loop_
	_symmetry_equiv_pos_as_xyz
	x,y,z

loop_
	_atom_site_label
	_atom_site_type_symbol
	_atom_site_fract_x
	_atom_site_fract_y
	_atom_site_fract_z
	H0	H	0.398033	0.834504	0.730567
	H1	H	0.615454	0.142815	0.732127
	H2	H	0.618484	0.836569	0.281570
	H3	H	0.399526	0.143820	0.285547
	H4	H	0.731175	0.378967	0.855595
	H5	H	0.729190	0.594398	0.160597
	H6	H	0.282053	0.595934	0.854622
	H7	H	0.281115	0.381934	0.159188
	H8	H	0.850363	0.710631	0.403307
	H9	H	0.161526	0.709798	0.611676
	H10	H	0.850490	0.268171	0.610877
	H11	H	0.160374	0.266926	0.401082
	H12	H	0.850373	0.382734	0.727983
	H13	H	0.158369	0.599099	0.731806
	H14	H	0.851813	0.598538	0.283785
	H15	H	0.156815	0.377842	0.280899
	H16	H	0.400161	0.710366	0.853682
	H17	H	0.611011	0.710015	0.161190
	H18	H	0.613177	0.264036	0.855446
	H19	H	0.399405	0.266446	0.160503
	H20	H	0.730523	0.834955	0.399770
	H21	H	0.728609	0.142965	0.613952
	H22	H	0.286531	0.832464	0.611194
	H23	H	0.287653	0.146110	0.405263
	H24	H	0.896262	0.335170	0.230880
	H25	H	0.112371	0.643464	0.230114
	H26	H	0.112694	0.334602	0.784553
	H27	H	0.898018	0.644554	0.784841
	H28	H	0.231038	0.880392	0.355665
	H29	H	0.231229	0.097658	0.658780
	H30	H	0.778980	0.097730	0.356999
	H31	H	0.776107	0.873720	0.656230
	H32	H	0.349391	0.209463	0.904155
	H33	H	0.661759	0.208454	0.111019
	H34	H	0.349379	0.768176	0.111481
	H35	H	0.663903	0.771185	0.906356
	H36	H	0.351311	0.880392	0.229933
	H37	H	0.660851	0.094855	0.229147
	H38	H	0.349493	0.095445	0.787168
	H39	H	0.662003	0.883512	0.787498
	H40	H	0.895151	0.215376	0.356957
	H41	H	0.113531	0.213606	0.658872
	H42	H	0.114452	0.764429	0.355990
	H43	H	0.896627	0.762745	0.659323
	H44	H	0.226864	0.334141	0.901220
	H45	H	0.226883	0.643820	0.113379
	H46	H	0.786604	0.332274	0.109670
	H47	H	0.787642	0.646868	0.905318
	H48	H	0.422004	0.102863	0.604810
	H49	H	0.587141	0.879724	0.597517
	H50	H	0.587960	0.099472	0.417760
	H51	H	0.422508	0.877890	0.419171
	H52	H	0.594567	0.403288	0.114857
	H53	H	0.596761	0.575597	0.897455
	H54	H	0.422502	0.581224	0.115895
	H55	H	0.418989	0.395917	0.897374
	H56	H	0.117244	0.575318	0.418845
	H57	H	0.891226	0.581002	0.597207
	H58	H	0.116009	0.401569	0.592002
	H59	H	0.895619	0.403867	0.421636
	H60	H	0.116643	0.407888	0.598606
	H61	H	0.896027	0.576003	0.589908
	H62	H	0.116525	0.575537	0.419127
	H63	H	0.894493	0.405646	0.418086
	H64	H	0.410858	0.582538	0.121008
	H65	H	0.593420	0.581345	0.896957
	H66	H	0.592648	0.400007	0.115349
	H67	H	0.411147	0.401657	0.896483
	H68	H	0.589954	0.098197	0.423036
	H69	H	0.591510	0.878437	0.592148
	H70	H	0.421196	0.097902	0.591910
	H71	H	0.415676	0.876539	0.420084
	H72	H	0.916379	0.602318	0.097897
	H73	H	0.094190	0.374976	0.099738
	H74	H	0.090522	0.600636	0.917368
	H75	H	0.918119	0.377294	0.916050
	H76	H	0.094005	0.897423	0.618308
	H77	H	0.095220	0.076695	0.397097
	H78	H	0.921625	0.083990	0.617638
	H79	H	0.918690	0.901638	0.398740
	H80	H	0.616423	0.077927	0.920338
	H81	H	0.392253	0.076817	0.099976
	H82	H	0.616490	0.903522	0.096450
	H83	H	0.392185	0.899162	0.915264
	H84	H	0.618692	0.900048	0.098101
	H85	H	0.393364	0.078800	0.096415
	H86	H	0.616134	0.073813	0.919681
	H87	H	0.393446	0.898138	0.917988
	H88	H	0.910767	0.076367	0.618775
	H89	H	0.093876	0.077593	0.397612
	H90	H	0.098832	0.903027	0.617554
	H91	H	0.918768	0.905107	0.399765
	H92	H	0.091026	0.600249	0.919220
	H93	H	0.085154	0.379460	0.095640
	H94	H	0.921318	0.600592	0.097860
	H95	H	0.916494	0.375986	0.916660
	H96	H	0.410203	0.104229	0.597237
	H97	H	0.593011	0.876259	0.598880
	H98	H	0.593047	0.100640	0.418727
	H99	H	0.417982	0.875487	0.414331
	H100	H	0.596260	0.400202	0.117604
	H101	H	0.599940	0.581063	0.895297
	H102	H	0.413813	0.571547	0.115356
	H103	H	0.419256	0.405256	0.900439
	H104	H	0.116493	0.575144	0.418908
	H105	H	0.894160	0.571018	0.598575
	H106	H	0.120189	0.399454	0.600035
	H107	H	0.893305	0.401149	0.419251
	H108	H	0.918376	0.599645	0.093759
	H109	H	0.094211	0.379681	0.090117
	H110	H	0.092789	0.601052	0.917795
	H111	H	0.917234	0.376663	0.914340
	H112	H	0.091672	0.903747	0.614961
	H113	H	0.095619	0.078533	0.396942
	H114	H	0.921867	0.071101	0.613895
	H115	H	0.921478	0.902842	0.400660
	H116	H	0.617250	0.076354	0.916526
	H117	H	0.394301	0.074842	0.097402
	H118	H	0.617261	0.899696	0.094399
	H119	H	0.393612	0.901185	0.917415
	C120	C	0.385003	-0.001933	0.629438
	C121	C	0.625812	0.980290	0.629066
	C122	C	0.626006	-0.002568	0.386583
	C123	C	0.385370	0.979684	0.386031
	C124	C	0.627749	0.366871	0.015581
	C125	C	0.628192	0.610560	0.998900
	C126	C	0.383380	0.611044	0.016097
	C127	C	0.383502	0.367630	0.999008
	C128	C	0.014392	0.609591	0.386338
	C129	C	0.996398	0.609843	0.628060
	C130	C	0.014545	0.369239	0.628461
	C131	C	0.996212	0.368291	0.385747
	C132	C	0.885391	0.497925	0.128278
	C133	C	0.125257	0.480471	0.128137
	C134	C	0.125401	0.498147	0.885736
	C135	C	0.884229	0.480285	0.884705
	C136	C	0.128259	0.867311	0.516458
	C137	C	0.127930	0.110957	0.498327
	C138	C	0.883642	0.111047	0.516428
	C139	C	0.884495	0.867431	0.499473
	C140	C	0.513562	0.109179	0.887156
	C141	C	0.496871	0.109254	0.129011
	C142	C	0.514529	0.867755	0.128688
	C143	C	0.497337	0.868082	0.886540
	C144	C	0.381160	0.881010	0.689724
	C145	C	0.631716	0.096480	0.690850
	C146	C	0.633501	0.882295	0.323607
	C147	C	0.381924	0.097228	0.326100
	C148	C	0.689872	0.361947	0.901356
	C149	C	0.688532	0.612706	0.114553
	C150	C	0.322918	0.613561	0.900696
	C151	C	0.322281	0.364228	0.113802
	C152	C	0.897230	0.670707	0.384184
	C153	C	0.113971	0.670342	0.630414
	C154	C	0.897195	0.308378	0.629936
	C155	C	0.113131	0.306774	0.382559
	C156	C	0.897076	0.365398	0.687886
	C157	C	0.112665	0.615021	0.689961
	C158	C	0.898038	0.614819	0.325119
	C159	C	0.111562	0.361865	0.322841
	C160	C	0.381772	0.670652	0.900089
	C161	C	0.629523	0.669829	0.115035
	C162	C	0.631214	0.304615	0.901211
	C163	C	0.380806	0.306756	0.114268
	C164	C	0.689414	0.881730	0.382503
	C165	C	0.687733	0.096700	0.631993
	C166	C	0.325659	0.880184	0.630276
	C167	C	0.326438	0.098438	0.385515
	C168	C	0.880104	0.381255	0.189564
	C169	C	0.129596	0.596900	0.189275
	C170	C	0.129652	0.381145	0.825102
	C171	C	0.880681	0.597772	0.825253
	C172	C	0.189853	0.863199	0.401490
	C173	C	0.189927	0.115101	0.613056
	C174	C	0.820592	0.115419	0.402310
	C175	C	0.819360	0.859340	0.611859
	C176	C	0.396125	0.169613	0.885577
	C177	C	0.614435	0.169156	0.130212
	C178	C	0.396864	0.807536	0.130422
	C179	C	0.615958	0.809891	0.886834
	C180	C	0.397780	0.863593	0.189157
	C181	C	0.614249	0.112479	0.188635
	C182	C	0.396365	0.112921	0.827331
	C183	C	0.615208	0.865989	0.827870
	C184	C	0.878202	0.173805	0.402389
	C185	C	0.131601	0.172884	0.613006
	C186	C	0.132167	0.805061	0.401705
	C187	C	0.879044	0.803449	0.613030
	C188	C	0.186403	0.381019	0.883283
	C189	C	0.186473	0.597087	0.131194
	C190	C	0.825417	0.379915	0.129412
	C191	C	0.825584	0.598740	0.884984
	C192	C	0.410551	0.080215	0.604992
	C193	C	0.598425	0.899476	0.603525
	C194	C	0.598026	0.078395	0.412543
	C195	C	0.411285	0.897839	0.410622
	C196	C	0.601898	0.393551	0.095320
	C197	C	0.603719	0.586302	0.917769
	C198	C	0.408597	0.585718	0.096371
	C199	C	0.409139	0.393555	0.918986
	C200	C	0.095778	0.583014	0.411755
	C201	C	0.915018	0.583509	0.602471
	C202	C	0.096207	0.395584	0.603838
	C203	C	0.915691	0.395636	0.411915
	C204	C	0.911286	0.579458	0.103599
	C205	C	0.098651	0.399099	0.102409
	C206	C	0.098965	0.579470	0.910912
	C207	C	0.909975	0.397818	0.908679
	C208	C	0.102080	0.893790	0.596100
	C209	C	0.101944	0.085012	0.418132
	C210	C	0.910425	0.084555	0.595949
	C211	C	0.911933	0.895449	0.420380
	C212	C	0.595418	0.083382	0.911814
	C213	C	0.414676	0.083896	0.104967
	C214	C	0.595990	0.893716	0.103470
	C215	C	0.414600	0.892696	0.909992
	Zn216	Zn	0.505899	-0.010634	0.758174
	Zn217	Zn	0.506104	-0.011412	0.257397
	Zn218	Zn	0.757359	0.488857	0.006977
	Zn219	Zn	0.253703	0.489003	0.007084
	Zn220	Zn	0.005719	0.738138	0.507070
	Zn221	Zn	0.006035	0.240661	0.507185
	Zn222	Zn	0.005024	0.489252	0.756894
	Zn223	Zn	0.004887	0.489293	0.257236
	Zn224	Zn	0.505709	0.739595	0.007309
	Zn225	Zn	0.505319	0.237947	0.007822
	Zn226	Zn	0.754418	-0.011304	0.508082
	Zn227	Zn	0.257540	-0.011079	0.507191
	N228	N	0.417356	0.955539	0.689562
	N229	N	0.593699	0.023049	0.689288
	N230	N	0.594673	0.955481	0.325928
	N231	N	0.417665	0.022350	0.325928
	N232	N	0.687696	0.400279	0.973428
	N233	N	0.687669	0.576406	0.041403
	N234	N	0.323661	0.577123	0.973871
	N235	N	0.323584	0.401279	0.041021
	N236	N	0.970682	0.667551	0.421704
	N237	N	0.040690	0.667225	0.592519
	N238	N	0.971274	0.310504	0.593573
	N239	N	0.040396	0.310567	0.421068
	N240	N	0.971252	0.402371	0.687149
	N241	N	0.038406	0.578154	0.688784
	N242	N	0.972054	0.577485	0.326295
	N243	N	0.037881	0.399632	0.324597
	N244	N	0.418585	0.669486	0.972953
	N245	N	0.592570	0.668653	0.042062
	N246	N	0.592910	0.307606	0.973248
	N247	N	0.417932	0.308531	0.041750
	N248	N	0.684695	0.954545	0.421183
	N249	N	0.684631	0.023275	0.594564
	N250	N	0.327679	0.954315	0.593651
	N251	N	0.328012	0.024135	0.421825
	N252	N	0.916393	0.455740	0.189319
	N253	N	0.092530	0.522981	0.187771
	N254	N	0.092339	0.455116	0.826253
	N255	N	0.916123	0.522743	0.824685
	N256	N	0.187516	0.901511	0.473702
	N257	N	0.187937	0.077285	0.540565
	N258	N	0.823670	0.077079	0.474377
	N259	N	0.822802	0.898976	0.540277
	N260	N	0.470117	0.167625	0.922077
	N261	N	0.540340	0.167396	0.093717
	N262	N	0.470662	0.809657	0.093557
	N263	N	0.541219	0.810488	0.922196
	N264	N	0.472021	0.900398	0.188401
	N265	N	0.539783	0.076225	0.188235
	N266	N	0.470612	0.076258	0.827982
	N267	N	0.540019	0.901136	0.827201
	N268	N	0.916759	0.171489	0.474332
	N269	N	0.093593	0.170331	0.540672
	N270	N	0.094449	0.807421	0.474107
	N271	N	0.919058	0.808356	0.541925
	N272	N	0.183821	0.454623	0.920487
	N273	N	0.184092	0.523475	0.093956
	N274	N	0.828314	0.453510	0.092095
	N275	N	0.827232	0.524295	0.920889
	O276	O	-0.514641	1.398856	0.420128
	H277	H	-0.503536	1.396329	0.419140
	H278	H	-0.511279	1.397983	0.421317
	O279	O	-0.182493	0.177986	0.202053
	H280	H	-0.168349	0.162176	0.180127
	H281	H	-0.160994	0.161002	0.184165
	O282	O	1.009275	0.840837	-0.010339
	H283	H	0.991254	0.842625	-0.000769
	H284	H	1.010103	0.835756	-0.020516
	O285	O	0.728299	0.462237	0.279098
	H286	H	0.733558	0.441062	0.283080
	H287	H	0.748980	0.449690	0.260326
	O288	O	0.701005	0.314540	0.677056
	H289	H	0.691324	0.321914	0.663123
	H290	H	0.729787	0.291188	0.708251
	O291	O	0.794460	0.195625	0.988628
	H292	H	0.799536	0.192425	0.993808
	H293	H	0.790181	0.205407	0.987395
	O294	O	0.315856	-0.335475	0.686020
	H295	H	0.328961	-0.354519	0.669761
	H296	H	0.319550	-0.348328	0.682376
	O297	O	0.282626	0.442840	0.445276
	H298	H	0.283390	0.443876	0.436443
	H299	H	0.280073	0.447176	0.448234
	O300	O	0.223855	0.020403	1.237262
	H301	H	0.250060	0.021074	1.252190
	H302	H	0.228847	0.008567	1.221524
	O303	O	0.453824	0.451242	0.464451
	H304	H	0.443335	0.443802	0.480537
	H305	H	0.466331	0.461502	0.481990
	O306	O	1.211275	1.195906	0.216024
	H307	H	1.223119	1.204725	0.239993
	H308	H	1.216816	1.180129	0.234163
	O309	O	-0.041243	1.159081	0.044456
	H310	H	-0.032604	1.153745	0.051442
	H311	H	-0.012084	1.165352	0.032248
	O312	O	0.555519	0.443093	0.541029
	H313	H	0.557097	0.452909	0.543983
	H314	H	0.556994	0.440048	0.537744
	O315	O	1.020665	1.205664	1.229405
	H316	H	1.024779	1.216807	1.234773
	H317	H	1.038485	1.208515	1.236101
	O318	O	0.296390	0.702108	0.299615
	H319	H	0.320476	0.710295	0.302214
	H320	H	0.303704	0.687934	0.329557
	O321	O	0.209582	0.785587	0.791324
	H322	H	0.204029	0.802954	0.808072
	H323	H	0.225145	0.763680	0.779035
	O324	O	1.143580	0.980481	-0.061300
	H325	H	1.150630	0.963202	-0.054303
	H326	H	1.145870	0.985077	-0.048707
	O327	O	-0.280815	0.525863	0.431472
	H328	H	-0.278902	0.515089	0.418691
	H329	H	-0.291276	0.521674	0.442213
	O330	O	0.712180	0.283459	0.293164
	H331	H	0.698596	0.288405	0.313816
	H332	H	0.745576	0.250509	0.263363
	O333	O	0.934814	0.800058	-0.037405
	H334	H	0.939337	0.792332	-0.027076
	H335	H	0.944381	0.786981	-0.043334
	O336	O	1.222329	-0.034218	-0.224839
	H337	H	1.239006	-0.044648	-0.222284
	H338	H	1.237824	-0.049897	-0.226308
	O339	O	1.476536	0.378259	1.275664
	H340	H	1.480460	0.374294	1.275287
	H341	H	1.483248	0.378189	1.276545
	O342	O	-0.200238	-0.218558	0.219021
	H343	H	-0.167550	-0.203378	0.229293
	H344	H	-0.231580	-0.250967	0.251900
	O345	O	-0.551729	1.637485	1.579665
	H346	H	-0.542953	1.635959	1.574492
	H347	H	-0.553515	1.638430	1.576389
	O348	O	-0.014708	-0.173353	0.060477
	H349	H	-0.003797	-0.161996	0.074049
	H350	H	-0.004911	-0.185405	0.052209
	O351	O	1.204729	0.767201	-0.016729
	H352	H	1.217922	0.751540	-0.027821
	H353	H	1.206323	0.768914	0.000739
	O354	O	0.069393	-0.072122	1.245027
	H355	H	0.076706	-0.068739	1.244439
	H356	H	0.053500	-0.054447	1.249448
	O357	O	0.489219	0.458573	0.378384
	H358	H	0.492337	0.453605	0.375897
	H359	H	0.497756	0.451562	0.387698
	O360	O	0.476176	0.557613	0.690360
	H361	H	0.471847	0.558221	0.679528
	H362	H	0.475506	0.554103	0.694137
	O363	O	0.064053	0.016847	0.090236
	H364	H	0.066807	0.028446	0.093410
	H365	H	0.055319	-0.000626	0.085645
	O366	O	0.667655	0.489144	0.505972
	H367	H	0.667954	0.492926	0.519534
	H368	H	0.662419	0.480349	0.519990
	O369	O	0.974253	0.206549	-0.217462
	H370	H	0.997493	0.184444	-0.223305
	H371	H	0.982529	0.225322	-0.238368
	O372	O	0.730261	1.515938	0.735869
	H373	H	0.762050	1.528631	0.761926
	H374	H	0.727063	1.525195	0.719513
	O375	O	0.706638	-0.359174	-0.335585
	H376	H	0.680378	-0.366114	-0.341471
	H377	H	0.723295	-0.333994	-0.329839
	O378	O	0.282208	0.507674	0.282369
	H379	H	0.248351	0.520047	0.250589
	H380	H	0.297523	0.530910	0.294242
	O381	O	-0.158107	1.013786	1.053084
	H382	H	-0.156719	1.004869	1.051141
	H383	H	-0.149644	1.002026	1.037009
	O384	O	1.006001	0.213168	0.987149
	H385	H	1.020144	0.208548	0.978943
	H386	H	1.012039	0.208915	0.981607
	O387	O	1.198445	1.100970	-0.055917
	H388	H	1.189773	1.090039	-0.049015
	H389	H	1.188040	1.106620	-0.036048
	O390	O	0.163242	0.202710	0.003398
	H391	H	0.157753	0.198011	0.030613
	H392	H	0.186506	0.222355	0.009552
	O393	O	0.504553	0.504395	0.363471
	H394	H	0.504701	0.483950	0.355529
	H395	H	0.497725	0.497125	0.373997
	O396	O	-0.207275	1.004761	0.774128
	H397	H	-0.223138	1.015055	0.765342
	H398	H	-0.216427	1.034327	0.774212
	O399	O	0.317756	0.300904	1.314896
	H400	H	0.335521	0.310913	1.339687
	H401	H	0.339590	0.324233	1.321562
	O402	O	0.794607	0.961845	0.228599
	H403	H	0.784038	0.946919	0.221504
	H404	H	0.778574	0.957380	0.232846
	O405	O	0.978925	-0.224079	1.224831
	H406	H	0.986344	-0.223980	1.231257
	H407	H	0.978098	-0.233159	1.228385
	O408	O	-0.087932	-0.098616	-0.062954
	H409	H	-0.077802	-0.107292	-0.060809
	H410	H	-0.090604	-0.108544	-0.067973
	O411	O	0.296645	0.699655	0.474926
	H412	H	0.290986	0.692507	0.487911
	H413	H	0.281564	0.702180	0.487105
	O414	O	0.786467	0.215454	0.780486
	H415	H	0.826723	0.205101	0.788759
	H416	H	0.792621	0.216380	0.810379
	O417	O	0.486601	0.299601	0.734255
	H418	H	0.498663	0.286525	0.742838
	H419	H	0.484347	0.302031	0.737337
	O420	O	0.292013	0.279129	0.632319
	H421	H	0.269051	0.245988	0.647520
	H422	H	0.301002	0.279363	0.634795
	O423	O	0.038148	-0.227790	0.781274
	H424	H	0.049823	-0.242835	0.762957
	H425	H	0.047205	-0.227744	0.773227
	O426	O	0.870078	0.081466	0.895683
	H427	H	0.872636	0.079182	0.908441
	H428	H	0.873668	0.072053	0.907105
	O429	O	0.686436	0.710079	0.519314
	H430	H	0.694454	0.713062	0.519731
	H431	H	0.696824	0.716762	0.530480
	O432	O	0.484685	0.709719	0.289485
	H433	H	0.489327	0.701721	0.275039
	H434	H	0.488005	0.720104	0.285550
	O435	O	0.630254	0.421980	0.642215
	H436	H	0.637174	0.416768	0.639952
	H437	H	0.633651	0.418540	0.654157
	O438	O	-0.459868	0.703644	0.444775
	H439	H	-0.472653	0.703495	0.434687
	H440	H	-0.446692	0.694329	0.446057
	O441	O	0.191924	0.798644	0.199533
	H442	H	0.184746	0.806303	0.220777
	H443	H	0.202297	0.801167	0.206974
	O444	O	0.541354	0.712910	0.732849
	H445	H	0.546286	0.727901	0.731877
	H446	H	0.531326	0.717530	0.751251
	O447	O	-0.046779	0.932685	0.764642
	H448	H	-0.058625	0.933195	0.763898
	H449	H	-0.056416	0.930316	0.763812
	O450	O	0.210500	0.905380	1.068680
	H451	H	0.212225	0.899384	1.073028
	H452	H	0.206710	0.913310	1.055074
	O453	O	0.695052	0.347279	0.505427
	H454	H	0.693528	0.350991	0.505289
	H455	H	0.713859	0.353976	0.512224
	O456	O	-0.212119	-0.042888	0.950131
	H457	H	-0.210528	-0.059428	0.942206
	H458	H	-0.210218	-0.067952	0.951934
	O459	O	0.779215	0.767227	-0.220251
	H460	H	0.781140	0.784781	-0.222562
	H461	H	0.783331	0.763177	-0.203130
	O462	O	0.285980	0.469503	0.727468
	H463	H	0.297825	0.447452	0.731178
	H464	H	0.263612	0.446139	0.747626
	O465	O	0.791283	-0.213542	0.057381
	H466	H	0.792738	-0.216446	0.096260
	H467	H	0.775910	-0.238460	0.064219
	O468	O	0.696935	0.681373	0.317468
	H469	H	0.678837	0.652721	0.326574
	H470	H	0.680591	0.669386	0.341180
	O471	O	0.391866	0.277098	0.539637
	H472	H	0.401155	0.264295	0.543937
	H473	H	0.389120	0.281314	0.528593
	O474	O	0.435275	0.478316	0.643369
	H475	H	0.441078	0.480064	0.645667
	H476	H	0.447138	0.458669	0.652057
	O477	O	0.272920	0.541165	1.562440
	H478	H	0.284930	0.528849	1.575317
	H479	H	0.267837	0.518708	1.564908
	O480	O	0.246572	0.231783	0.758612
	H481	H	0.248258	0.220815	0.759703
	H482	H	0.248412	0.218552	0.786123
	O483	O	0.528973	0.259331	0.570344
	H484	H	0.544194	0.249078	0.571184
	H485	H	0.550588	0.265258	0.584601
	O486	O	0.597128	-0.732467	0.348307
	H487	H	0.596916	-0.746047	0.332191
	H488	H	0.614136	-0.735170	0.341456
	O489	O	1.107586	1.139969	0.068237
	H490	H	1.096268	1.124704	0.076707
	H491	H	1.126460	1.151357	0.084028
	O492	O	-0.050183	0.040661	0.251329
	H493	H	-0.066847	0.051770	0.256786
	H494	H	-0.059479	0.037037	0.248719
	O495	O	0.193536	0.989217	0.925210
	H496	H	0.181338	0.972418	0.916598
	H497	H	0.189193	1.009510	0.936727
	O498	O	1.063009	1.055028	0.770551
	H499	H	1.076125	1.036961	0.777047
	H500	H	1.063697	1.031873	0.771987
	O501	O	0.506581	0.617644	0.542404
	H502	H	0.498049	0.618154	0.542040
	H503	H	0.501172	0.607938	0.542090
