data_Molecule from HDF5

_cell_length_a		16.313471
_cell_length_b		16.301829
_cell_length_c		16.342129
_cell_angle_alpha	89.888731
_cell_angle_beta	90.084203
_cell_angle_gamma	90.147444
_symmetry_space_group_name_H-M	'P 1'
_symmetry_Int_Tables_number		1

loop_
	_symmetry_equiv_pos_as_xyz
	x,y,z

loop_
	_atom_site_label
	_atom_site_type_symbol
	_atom_site_fract_x
	_atom_site_fract_y
	_atom_site_fract_z
	H0	H	0.405346	0.839150	0.714569
	H1	H	0.604922	0.165649	0.713842
	H2	H	0.602219	0.838940	0.285094
	H3	H	0.405926	0.165519	0.283512
	H4	H	0.719490	0.403567	0.836793
	H5	H	0.720186	0.600809	0.162120
	H6	H	0.288785	0.601567	0.836521
	H7	H	0.287136	0.402297	0.162810
	H8	H	0.840749	0.716627	0.400980
	H9	H	0.167845	0.716293	0.597752
	H10	H	0.840783	0.286206	0.597060
	H11	H	0.168242	0.287025	0.401624
	H12	H	0.839962	0.403207	0.712729
	H13	H	0.167005	0.600705	0.714312
	H14	H	0.839857	0.599461	0.285951
	H15	H	0.167434	0.402903	0.283677
	H16	H	0.405737	0.716349	0.835482
	H17	H	0.602695	0.716386	0.162906
	H18	H	0.600857	0.290436	0.835676
	H19	H	0.404460	0.285989	0.162435
	H20	H	0.717629	0.838195	0.401432
	H21	H	0.718469	0.165353	0.596400
	H22	H	0.290817	0.838413	0.597595
	H23	H	0.289417	0.165376	0.399478
	H24	H	0.904633	0.338869	0.214340
	H25	H	0.104892	0.665634	0.215924
	H26	H	0.101865	0.338835	0.785000
	H27	H	0.904711	0.664692	0.783059
	H28	H	0.219403	0.902714	0.336676
	H29	H	0.220794	0.100809	0.663242
	H30	H	0.790791	0.099693	0.336549
	H31	H	0.788982	0.902782	0.662133
	H32	H	0.340627	0.218175	0.898956
	H33	H	0.668249	0.218498	0.097419
	H34	H	0.340821	0.786791	0.096742
	H35	H	0.667789	0.789204	0.902402
	H36	H	0.340683	0.901652	0.213968
	H37	H	0.668317	0.101965	0.214378
	H38	H	0.341004	0.100812	0.783377
	H39	H	0.667721	0.905443	0.785658
	H40	H	0.905826	0.216552	0.336651
	H41	H	0.103847	0.216860	0.663182
	H42	H	0.101451	0.788002	0.336066
	H43	H	0.907656	0.788368	0.662808
	H44	H	0.218085	0.339393	0.900905
	H45	H	0.218728	0.666605	0.097587
	H46	H	0.789723	0.338967	0.096550
	H47	H	0.791027	0.666089	0.901082
	H48	H	0.417554	0.118894	0.598383
	H49	H	0.598245	0.886356	0.590497
	H50	H	0.594327	0.116995	0.406000
	H51	H	0.405460	0.882738	0.399782
	H52	H	0.590640	0.406906	0.113721
	H53	H	0.600201	0.595264	0.883450
	H54	H	0.424420	0.589210	0.109600
	H55	H	0.414349	0.411223	0.885485
	H56	H	0.119361	0.595950	0.407443
	H57	H	0.889272	0.594471	0.588715
	H58	H	0.120539	0.407132	0.594454
	H59	H	0.888001	0.408956	0.403604
	H60	H	0.118803	0.409429	0.589375
	H61	H	0.888282	0.592265	0.594239
	H62	H	0.119624	0.593560	0.406975
	H63	H	0.888549	0.404869	0.408019
	H64	H	0.409927	0.607960	0.118790
	H65	H	0.596024	0.595360	0.884818
	H66	H	0.602084	0.405606	0.118520
	H67	H	0.408853	0.405787	0.882773
	H68	H	0.599908	0.118774	0.408236
	H69	H	0.597251	0.884881	0.595232
	H70	H	0.416069	0.114556	0.582914
	H71	H	0.420002	0.887773	0.403304
	H72	H	0.899600	0.620427	0.085508
	H73	H	0.094545	0.385842	0.101087
	H74	H	0.100664	0.622152	0.897703
	H75	H	0.903996	0.386938	0.916547
	H76	H	0.102303	0.901274	0.618450
	H77	H	0.093421	0.095375	0.384993
	H78	H	0.913935	0.087081	0.612438
	H79	H	0.905033	0.910272	0.382357
	H80	H	0.616933	0.091316	0.909363
	H81	H	0.388862	0.092803	0.093566
	H82	H	0.621686	0.904467	0.092092
	H83	H	0.389916	0.909496	0.910821
	H84	H	0.618106	0.911618	0.087967
	H85	H	0.389273	0.096438	0.089655
	H86	H	0.621748	0.095824	0.898840
	H87	H	0.388364	0.913751	0.903003
	H88	H	0.916422	0.100816	0.616011
	H89	H	0.098683	0.096551	0.384098
	H90	H	0.102797	0.915649	0.614686
	H91	H	0.913522	0.910146	0.384750
	H92	H	0.086849	0.615765	0.905068
	H93	H	0.088309	0.390969	0.086965
	H94	H	0.911403	0.622487	0.107210
	H95	H	0.905554	0.381665	0.895387
	H96	H	0.403833	0.120483	0.590334
	H97	H	0.593780	0.887288	0.592778
	H98	H	0.599097	0.119199	0.401808
	H99	H	0.408724	0.887829	0.414741
	H100	H	0.598845	0.416549	0.113527
	H101	H	0.598102	0.598112	0.882239
	H102	H	0.400093	0.585097	0.115387
	H103	H	0.406808	0.413395	0.884189
	H104	H	0.120623	0.594969	0.405783
	H105	H	0.886903	0.597457	0.592774
	H106	H	0.119250	0.412666	0.593701
	H107	H	0.889892	0.410715	0.409050
	H108	H	0.923928	0.613345	0.087734
	H109	H	0.103318	0.386536	0.087619
	H110	H	0.101079	0.617125	0.913672
	H111	H	0.922434	0.389665	0.906376
	H112	H	0.090246	0.908027	0.613174
	H113	H	0.097089	0.091652	0.386037
	H114	H	0.903319	0.095316	0.618051
	H115	H	0.909334	0.903296	0.381497
	H116	H	0.621283	0.103031	0.908638
	H117	H	0.392097	0.091340	0.089149
	H118	H	0.620155	0.912090	0.097017
	H119	H	0.386129	0.904891	0.904034
	C120	C	0.383398	0.010174	0.620100
	C121	C	0.625390	0.993963	0.620899
	C122	C	0.625660	0.010352	0.377416
	C123	C	0.382396	0.993950	0.377098
	C124	C	0.625232	0.381742	0.007457
	C125	C	0.626299	0.624285	0.991219
	C126	C	0.382538	0.623511	0.007122
	C127	C	0.381012	0.380595	0.991696
	C128	C	0.011834	0.623111	0.378236
	C129	C	0.995880	0.623632	0.621131
	C130	C	0.011892	0.380417	0.621178
	C131	C	0.996482	0.379867	0.377871
	C132	C	0.882809	0.510469	0.121174
	C133	C	0.124906	0.495427	0.120710
	C134	C	0.125253	0.510908	0.877216
	C135	C	0.882610	0.493860	0.877841
	C136	C	0.126248	0.880041	0.507809
	C137	C	0.125887	0.123115	0.492339
	C138	C	0.882878	0.123078	0.507858
	C139	C	0.881669	0.879745	0.490759
	C140	C	0.512280	0.125014	0.876956
	C141	C	0.497491	0.123393	0.119927
	C142	C	0.512090	0.880244	0.120965
	C143	C	0.496121	0.881201	0.877945
	C144	C	0.385184	0.887679	0.676151
	C145	C	0.624350	0.116679	0.676025
	C146	C	0.622716	0.887593	0.322990
	C147	C	0.385373	0.116526	0.321363
	C148	C	0.680624	0.384017	0.885051
	C149	C	0.681970	0.621505	0.113684
	C150	C	0.327030	0.621662	0.884885
	C151	C	0.325579	0.382456	0.114178
	C152	C	0.889120	0.678134	0.380748
	C153	C	0.118668	0.679117	0.618499
	C154	C	0.889121	0.324783	0.617766
	C155	C	0.119331	0.325024	0.380999
	C156	C	0.888886	0.382544	0.675446
	C157	C	0.118483	0.621424	0.676430
	C158	C	0.888815	0.619801	0.323608
	C159	C	0.118954	0.382376	0.322274
	C160	C	0.385058	0.678806	0.884475
	C161	C	0.623539	0.678767	0.114133
	C162	C	0.621825	0.327636	0.884590
	C163	C	0.383217	0.324152	0.113835
	C164	C	0.680065	0.887091	0.380774
	C165	C	0.680995	0.116624	0.617649
	C166	C	0.328381	0.887386	0.617827
	C167	C	0.327261	0.116555	0.378840
	C168	C	0.884725	0.387650	0.176150
	C169	C	0.124233	0.617242	0.177055
	C170	C	0.122779	0.387624	0.822523
	C171	C	0.885031	0.616410	0.821910
	C172	C	0.180913	0.882797	0.384972
	C173	C	0.182278	0.120897	0.614550
	C174	C	0.828099	0.120682	0.385136
	C175	C	0.827292	0.882518	0.613645
	C176	C	0.389355	0.179845	0.879220
	C177	C	0.619598	0.180098	0.118177
	C178	C	0.389384	0.825022	0.117780
	C179	C	0.619051	0.826873	0.881461
	C180	C	0.389694	0.881819	0.176299
	C181	C	0.619575	0.122448	0.176316
	C182	C	0.389395	0.122013	0.821484
	C183	C	0.619018	0.884584	0.823447
	C184	C	0.885608	0.178620	0.385334
	C185	C	0.124147	0.178425	0.614816
	C186	C	0.122394	0.825763	0.384675
	C187	C	0.885648	0.825439	0.613940
	C188	C	0.180437	0.388005	0.880037
	C189	C	0.180687	0.617871	0.118087
	C190	C	0.827604	0.387657	0.117766
	C191	C	0.828437	0.617123	0.880398
	C192	C	0.406041	0.095774	0.597206
	C193	C	0.602904	0.908351	0.599304
	C194	C	0.604082	0.096162	0.398971
	C195	C	0.404608	0.908264	0.399667
	C196	C	0.603531	0.403458	0.093139
	C197	C	0.604612	0.602580	0.905534
	C198	C	0.404902	0.600805	0.092396
	C199	C	0.403304	0.403403	0.906249
	C200	C	0.097748	0.601348	0.400199
	C201	C	0.910153	0.601190	0.598628
	C202	C	0.097416	0.403024	0.599166
	C203	C	0.910756	0.401887	0.400125
	C204	C	0.905101	0.596590	0.099766
	C205	C	0.102182	0.409764	0.098204
	C206	C	0.102801	0.596176	0.899146
	C207	C	0.904242	0.408200	0.899849
	C208	C	0.104815	0.901892	0.593252
	C209	C	0.103121	0.100930	0.407218
	C210	C	0.904826	0.100736	0.593454
	C211	C	0.902985	0.901478	0.405012
	C212	C	0.597829	0.103123	0.899277
	C213	C	0.412120	0.100178	0.097178
	C214	C	0.597885	0.902925	0.098798
	C215	C	0.410270	0.903034	0.899538
	Zn216	Zn	0.504027	0.002683	0.749028
	Zn217	Zn	0.504494	0.002170	0.249007
	Zn218	Zn	0.754719	0.502489	-0.000929
	Zn219	Zn	0.253165	0.503161	-0.000616
	Zn220	Zn	0.004172	0.751989	0.499245
	Zn221	Zn	0.004210	0.251566	0.500200
	Zn222	Zn	0.003677	0.501819	0.749291
	Zn223	Zn	0.004199	0.502413	0.249674
	Zn224	Zn	0.504068	0.751922	-0.000723
	Zn225	Zn	0.504014	0.252909	-0.000808
	Zn226	Zn	0.753721	0.001866	0.499187
	Zn227	Zn	0.254812	0.001925	0.499037
	N228	N	0.418926	0.965029	0.677406
	N229	N	0.590310	0.039420	0.678044
	N230	N	0.589885	0.964971	0.320766
	N231	N	0.418555	0.039075	0.319849
	N232	N	0.682882	0.417005	0.962453
	N233	N	0.683721	0.588291	0.036289
	N234	N	0.325362	0.588113	0.961959
	N235	N	0.323782	0.416456	0.036945
	N236	N	0.966470	0.680275	0.414037
	N237	N	0.041303	0.680449	0.584687
	N238	N	0.966561	0.323547	0.584756
	N239	N	0.042020	0.323282	0.414746
	N240	N	0.966360	0.416444	0.677682
	N241	N	0.041285	0.587551	0.677895
	N242	N	0.966161	0.586225	0.322268
	N243	N	0.041635	0.415654	0.320385
	N244	N	0.418994	0.679965	0.961657
	N245	N	0.589749	0.680608	0.037010
	N246	N	0.588175	0.326017	0.961757
	N247	N	0.417098	0.323131	0.036821
	N248	N	0.682014	0.964646	0.414226
	N249	N	0.681897	0.039436	0.584074
	N250	N	0.326983	0.964631	0.583787
	N251	N	0.325312	0.039269	0.412636
	N252	N	0.918267	0.464988	0.178298
	N253	N	0.090049	0.540026	0.178535
	N254	N	0.088881	0.464830	0.820692
	N255	N	0.918083	0.538833	0.820415
	N256	N	0.183341	0.915867	0.462261
	N257	N	0.183402	0.087144	0.537328
	N258	N	0.826325	0.086680	0.462219
	N259	N	0.824600	0.915544	0.536146
	N260	N	0.466732	0.181878	0.912853
	N261	N	0.542616	0.180644	0.083742
	N262	N	0.466782	0.823548	0.084508
	N263	N	0.541618	0.824801	0.914682
	N264	N	0.467138	0.915494	0.178288
	N265	N	0.542469	0.087858	0.177503
	N266	N	0.466698	0.088674	0.819919
	N267	N	0.541685	0.917699	0.821299
	N268	N	0.918939	0.180069	0.462722
	N269	N	0.089852	0.180125	0.537882
	N270	N	0.089120	0.823990	0.461968
	N271	N	0.918812	0.823636	0.536685
	N272	N	0.182148	0.465341	0.913226
	N273	N	0.181339	0.540830	0.084057
	N274	N	0.826499	0.465117	0.084150
	N275	N	0.826768	0.539997	0.914539
	O276	O	0.479857	0.503360	0.483822
	H277	H	0.479655	0.499984	0.485835
	H278	H	0.486660	0.499935	0.478952
	O279	O	0.069402	0.110952	0.081188
	H280	H	0.069590	0.103508	0.079042
	H281	H	0.069143	0.111716	0.082675
	O282	O	0.458977	0.533884	0.497393
	H283	H	0.454540	0.533952	0.496691
	H284	H	0.464046	0.542669	0.492297
	O285	O	0.506115	0.512805	0.502862
	H286	H	0.504909	0.517075	0.501549
	H287	H	0.509354	0.511963	0.495978
	O288	O	1.157711	0.093869	0.085165
	H289	H	1.161407	0.099646	0.090224
	H290	H	1.163042	0.097770	0.091666
	O291	O	-0.553009	0.492986	-0.472808
	H292	H	-0.547551	0.492658	-0.469326
	H293	H	-0.552331	0.498037	-0.469802
	O294	O	0.459594	0.506076	0.512573
	H295	H	0.449176	0.501548	0.516777
	H296	H	0.457580	0.514277	0.510017
	O297	O	0.083768	1.091089	0.109402
	H298	H	0.074671	1.089642	0.115982
	H299	H	0.079430	1.092086	0.113974
	O300	O	1.079061	0.081609	1.113242
	H301	H	1.082033	0.080894	1.114586
	H302	H	1.075938	0.090059	1.108796
	O303	O	0.442316	0.489013	0.535754
	H304	H	0.441466	0.490259	0.543892
	H305	H	0.435554	0.487667	0.536997
	O306	O	0.107159	1.095730	1.089252
	H307	H	0.113942	1.099511	1.089182
	H308	H	0.116740	1.102355	1.084674
	O309	O	0.444888	0.528316	0.525036
	H310	H	0.442597	0.528419	0.529002
	H311	H	0.449196	0.515034	0.522307
