data_Molecule from HDF5

_cell_length_a		16.377780
_cell_length_b		16.271655
_cell_length_c		16.259936
_cell_angle_alpha	90.222590
_cell_angle_beta	90.072601
_cell_angle_gamma	89.888862
_symmetry_space_group_name_H-M	'P 1'
_symmetry_Int_Tables_number		1

loop_
	_symmetry_equiv_pos_as_xyz
	x,y,z

loop_
	_atom_site_label
	_atom_site_type_symbol
	_atom_site_fract_x
	_atom_site_fract_y
	_atom_site_fract_z
	H0	H	0.398056	0.845918	0.726693
	H1	H	0.594047	0.173785	0.728739
	H2	H	0.595671	0.848009	0.294442
	H3	H	0.394913	0.174238	0.299156
	H4	H	0.708495	0.410758	0.848862
	H5	H	0.710885	0.614117	0.174633
	H6	H	0.274582	0.614956	0.849387
	H7	H	0.274676	0.411113	0.174543
	H8	H	0.833819	0.726283	0.409218
	H9	H	0.156700	0.724267	0.612046
	H10	H	0.832036	0.291544	0.611574
	H11	H	0.156659	0.291098	0.408920
	H12	H	0.831969	0.406676	0.728858
	H13	H	0.154933	0.609943	0.729366
	H14	H	0.830745	0.605788	0.298427
	H15	H	0.155252	0.406403	0.291828
	H16	H	0.394155	0.727089	0.848240
	H17	H	0.591150	0.726246	0.176641
	H18	H	0.592062	0.295095	0.848747
	H19	H	0.392125	0.295798	0.175343
	H20	H	0.710667	0.846470	0.410530
	H21	H	0.712938	0.172024	0.615298
	H22	H	0.278390	0.846379	0.614684
	H23	H	0.275832	0.172148	0.412310
	H24	H	0.893313	0.346546	0.224511
	H25	H	0.090123	0.673498	0.226835
	H26	H	0.092528	0.347545	0.795868
	H27	H	0.892825	0.673783	0.794543
	H28	H	0.212062	0.908148	0.348743
	H29	H	0.211089	0.110239	0.675822
	H30	H	0.777363	0.108791	0.349259
	H31	H	0.780180	0.907994	0.674579
	H32	H	0.330557	0.227604	0.912143
	H33	H	0.655722	0.228415	0.113444
	H34	H	0.331580	0.797007	0.112626
	H35	H	0.655825	0.794338	0.913754
	H36	H	0.332048	0.913315	0.227533
	H37	H	0.656420	0.112503	0.229506
	H38	H	0.331855	0.110147	0.795702
	H39	H	0.657294	0.911515	0.798502
	H40	H	0.895144	0.221848	0.347330
	H41	H	0.095164	0.227326	0.674611
	H42	H	0.093841	0.794200	0.346833
	H43	H	0.898212	0.793964	0.674370
	H44	H	0.213682	0.350915	0.905527
	H45	H	0.208466	0.674004	0.113917
	H46	H	0.775665	0.348271	0.110870
	H47	H	0.776990	0.674871	0.911919
	H48	H	0.402382	0.125768	0.607895
	H49	H	0.591381	0.893351	0.601822
	H50	H	0.586905	0.124654	0.425294
	H51	H	0.400337	0.893844	0.422057
	H52	H	0.578794	0.430798	0.122462
	H53	H	0.586135	0.604552	0.895899
	H54	H	0.390575	0.605295	0.130311
	H55	H	0.412292	0.422040	0.900968
	H56	H	0.109682	0.596742	0.417818
	H57	H	0.879140	0.596284	0.606738
	H58	H	0.105683	0.417457	0.596099
	H59	H	0.877875	0.411548	0.415340
	H60	H	0.107510	0.423731	0.605449
	H61	H	0.876597	0.608478	0.602280
	H62	H	0.111105	0.601950	0.415264
	H63	H	0.880334	0.414571	0.422680
	H64	H	0.402263	0.596556	0.124384
	H65	H	0.584323	0.600125	0.897053
	H66	H	0.579321	0.410457	0.129858
	H67	H	0.398563	0.411154	0.893258
	H68	H	0.590789	0.126202	0.422052
	H69	H	0.588367	0.892516	0.609397
	H70	H	0.405968	0.123366	0.601603
	H71	H	0.404199	0.893793	0.416085
	H72	H	0.907816	0.621904	0.097984
	H73	H	0.085885	0.394618	0.101423
	H74	H	0.089373	0.628764	0.922359
	H75	H	0.902423	0.394650	0.914886
	H76	H	0.087804	0.916269	0.628000
	H77	H	0.096101	0.093936	0.395295
	H78	H	0.904649	0.104779	0.628367
	H79	H	0.905551	0.914225	0.395437
	H80	H	0.609896	0.114983	0.928306
	H81	H	0.380422	0.102012	0.102464
	H82	H	0.606511	0.916891	0.096118
	H83	H	0.375655	0.911675	0.916158
	H84	H	0.607558	0.927737	0.106927
	H85	H	0.379523	0.101349	0.108377
	H86	H	0.602943	0.093570	0.927472
	H87	H	0.381226	0.919983	0.927680
	H88	H	0.900116	0.098430	0.627814
	H89	H	0.078804	0.092959	0.401416
	H90	H	0.087303	0.916445	0.627926
	H91	H	0.899407	0.914847	0.393523
	H92	H	0.080085	0.627886	0.913981
	H93	H	0.084203	0.394999	0.099848
	H94	H	0.890393	0.629014	0.100351
	H95	H	0.902955	0.397687	0.924094
	H96	H	0.398457	0.125525	0.601239
	H97	H	0.583745	0.896383	0.603313
	H98	H	0.585665	0.126634	0.420822
	H99	H	0.407265	0.895956	0.422501
	H100	H	0.597216	0.422573	0.130529
	H101	H	0.581125	0.603839	0.896744
	H102	H	0.404998	0.611577	0.128309
	H103	H	0.394999	0.429773	0.897577
	H104	H	0.109545	0.602303	0.421587
	H105	H	0.882293	0.599185	0.594123
	H106	H	0.110242	0.412539	0.605643
	H107	H	0.880142	0.419629	0.416252
	H108	H	0.902597	0.629821	0.114999
	H109	H	0.086626	0.395178	0.099291
	H110	H	0.078680	0.622750	0.925726
	H111	H	0.894442	0.394167	0.920292
	H112	H	0.087724	0.915443	0.627439
	H113	H	0.085415	0.108473	0.394372
	H114	H	0.907565	0.098096	0.625452
	H115	H	0.902075	0.920811	0.395891
	H116	H	0.612285	0.103355	0.909602
	H117	H	0.378403	0.107076	0.105645
	H118	H	0.613422	0.912750	0.109910
	H119	H	0.378848	0.925845	0.913751
	C120	C	0.373570	0.017478	0.633733
	C121	C	0.617689	1.001628	0.634810
	C122	C	0.616597	0.018328	0.391426
	C123	C	0.373629	1.002051	0.391544
	C124	C	0.614323	0.390678	0.020104
	C125	C	0.613908	0.632788	1.004287
	C126	C	0.370339	0.634395	0.020349
	C127	C	0.371662	0.391127	1.004455
	C128	C	0.002976	0.629807	0.389259
	C129	C	0.985878	0.630560	0.631869
	C130	C	0.001337	0.387982	0.632239
	C131	C	0.985950	0.385489	0.387878
	C132	C	0.870626	0.519193	0.133291
	C133	C	0.114004	0.502449	0.131326
	C134	C	0.114024	0.519600	0.889586
	C135	C	0.870554	0.502852	0.889501
	C136	C	0.117154	0.886584	0.519882
	C137	C	0.116320	0.129751	0.504279
	C138	C	0.874016	0.129798	0.519550
	C139	C	0.873616	0.887164	0.502769
	C140	C	0.501689	0.133267	0.891061
	C141	C	0.485885	0.133805	0.135362
	C142	C	0.502266	0.890428	0.134091
	C143	C	0.485789	0.889524	0.890949
	C144	C	0.376819	0.894718	0.689344
	C145	C	0.615023	0.124601	0.690827
	C146	C	0.615046	0.896257	0.333594
	C147	C	0.374880	0.125253	0.336695
	C148	C	0.670162	0.391105	0.897449
	C149	C	0.671542	0.632964	0.126438
	C150	C	0.314038	0.633804	0.897698
	C151	C	0.313549	0.391664	0.126087
	C152	C	0.881491	0.686883	0.390328
	C153	C	0.107780	0.686843	0.631987
	C154	C	0.880138	0.330306	0.631590
	C155	C	0.107702	0.329093	0.389012
	C156	C	0.880082	0.387594	0.689866
	C157	C	0.106839	0.629885	0.690465
	C158	C	0.880264	0.627339	0.334459
	C159	C	0.107234	0.386622	0.330818
	C160	C	0.373222	0.689837	0.897342
	C161	C	0.612074	0.688794	0.127354
	C162	C	0.611984	0.333879	0.897461
	C163	C	0.371980	0.334449	0.126510
	C164	C	0.672241	0.895430	0.391466
	C165	C	0.674165	0.123713	0.634474
	C166	C	0.317513	0.894868	0.633419
	C167	C	0.315540	0.124054	0.392867
	C168	C	0.873062	0.395688	0.187272
	C169	C	0.111404	0.624720	0.189020
	C170	C	0.113307	0.396838	0.833175
	C171	C	0.872435	0.625357	0.832988
	C172	C	0.173334	0.888243	0.397173
	C173	C	0.172819	0.130014	0.626881
	C174	C	0.816436	0.128396	0.397595
	C175	C	0.818281	0.888266	0.625679
	C176	C	0.379422	0.189096	0.892015
	C177	C	0.607431	0.190206	0.133698
	C178	C	0.380075	0.834976	0.132596
	C179	C	0.607673	0.833072	0.893636
	C180	C	0.380358	0.892836	0.189770
	C181	C	0.607600	0.132549	0.191560
	C182	C	0.380040	0.130880	0.833986
	C183	C	0.608439	0.890931	0.836037
	C184	C	0.874913	0.184919	0.396602
	C185	C	0.115106	0.188063	0.626277
	C186	C	0.114633	0.831645	0.396249
	C187	C	0.876895	0.831694	0.625637
	C188	C	0.173450	0.398594	0.888157
	C189	C	0.169891	0.625147	0.132676
	C190	C	0.814321	0.396770	0.130901
	C191	C	0.814615	0.625744	0.890977
	C192	C	0.395770	0.102569	0.610438
	C193	C	0.594731	0.916325	0.611404
	C194	C	0.594279	0.103572	0.415698
	C195	C	0.397142	0.916800	0.413845
	C196	C	0.591729	0.414327	0.105469
	C197	C	0.590773	0.609516	0.918896
	C198	C	0.392849	0.611255	0.105637
	C199	C	0.394929	0.414222	0.919269
	C200	C	0.088004	0.606940	0.411748
	C201	C	0.901284	0.607820	0.608018
	C202	C	0.085788	0.411258	0.609345
	C203	C	0.901107	0.408615	0.411116
	C204	C	0.893641	0.604842	0.111110
	C205	C	0.092047	0.417138	0.107315
	C206	C	0.089625	0.604423	0.913619
	C207	C	0.893230	0.417625	0.912906
	C208	C	0.094420	0.909301	0.605350
	C209	C	0.093410	0.105514	0.419166
	C210	C	0.897375	0.107036	0.605016
	C211	C	0.895778	0.910014	0.417277
	C212	C	0.586407	0.110669	0.914752
	C213	C	0.401309	0.110530	0.112141
	C214	C	0.587194	0.912514	0.110940
	C215	C	0.400616	0.912596	0.912663
	Zn216	Zn	0.494874	0.010266	0.761878
	Zn217	Zn	0.494730	0.010920	0.263473
	Zn218	Zn	0.742914	0.511728	0.011790
	Zn219	Zn	0.242633	0.512703	0.011190
	Zn220	Zn	-0.004668	0.759114	0.510437
	Zn221	Zn	-0.005404	0.258427	0.511261
	Zn222	Zn	-0.007287	0.510007	0.761404
	Zn223	Zn	-0.006539	0.509060	0.260061
	Zn224	Zn	0.493036	0.761277	0.012909
	Zn225	Zn	0.493020	0.262221	0.013163
	Zn226	Zn	0.745423	0.008907	0.512495
	Zn227	Zn	0.244745	0.008391	0.512737
	N228	N	0.410938	0.971929	0.689572
	N229	N	0.580840	0.047643	0.691349
	N230	N	0.581047	0.973658	0.333536
	N231	N	0.410055	0.048422	0.335779
	N232	N	0.671614	0.425853	0.974621
	N233	N	0.672747	0.598711	0.048869
	N234	N	0.312091	0.600279	0.975181
	N235	N	0.313396	0.426367	0.049041
	N236	N	0.958698	0.688538	0.423622
	N237	N	0.031558	0.687430	0.596274
	N238	N	0.956347	0.330430	0.596465
	N239	N	0.031209	0.328487	0.423967
	N240	N	0.956388	0.422873	0.690427
	N241	N	0.030136	0.595674	0.690449
	N242	N	0.956764	0.592476	0.333866
	N243	N	0.030386	0.420613	0.329610
	N244	N	0.407294	0.690609	0.974615
	N245	N	0.576946	0.688824	0.050553
	N246	N	0.578288	0.333351	0.974929
	N247	N	0.407266	0.334019	0.049908
	N248	N	0.673439	0.972376	0.426717
	N249	N	0.675748	0.046219	0.600363
	N250	N	0.315429	0.972144	0.599402
	N251	N	0.314706	0.046440	0.426299
	N252	N	0.907309	0.472812	0.188902
	N253	N	0.077340	0.547496	0.188274
	N254	N	0.077000	0.473091	0.834016
	N255	N	0.906370	0.547950	0.831797
	N256	N	0.175234	0.921361	0.475088
	N257	N	0.173616	0.094561	0.550010
	N258	N	0.816011	0.094720	0.475032
	N259	N	0.816154	0.921996	0.548274
	N260	N	0.456073	0.190696	0.926721
	N261	N	0.530592	0.191335	0.099577
	N262	N	0.456776	0.833593	0.098361
	N263	N	0.530523	0.832066	0.926976
	N264	N	0.457209	0.926553	0.190947
	N265	N	0.530896	0.098068	0.192637
	N266	N	0.457015	0.096912	0.833227
	N267	N	0.531744	0.925603	0.834534
	N268	N	0.910108	0.185834	0.473549
	N269	N	0.080918	0.188279	0.548966
	N270	N	0.080644	0.830325	0.473622
	N271	N	0.910429	0.830722	0.548230
	N272	N	0.174110	0.476014	0.922427
	N273	N	0.171551	0.548203	0.097352
	N274	N	0.812789	0.474565	0.098168
	N275	N	0.813363	0.548575	0.925152
	O276	O	0.972875	0.021932	1.008387
	H277	H	0.985865	0.032401	1.013922
	H278	H	0.962330	0.022967	1.009012
	O279	O	-0.053230	1.031490	-0.025479
	H280	H	-0.051479	1.031710	-0.027740
	H281	H	-0.041064	1.028604	-0.020621
	O282	O	0.625414	0.413776	0.512843
	H283	H	0.622955	0.413444	0.513379
	H284	H	0.631832	0.405763	0.511021
	O285	O	0.531479	0.452398	0.580119
	H286	H	0.519239	0.435322	0.581210
	H287	H	0.523039	0.465887	0.580495
	O288	O	0.564946	0.424716	0.509611
	H289	H	0.570640	0.422747	0.512197
	H290	H	0.564601	0.414411	0.514730
	O291	O	-0.585895	0.556000	0.414405
	H292	H	-0.597063	0.565222	0.410099
	H293	H	-0.577815	0.534319	0.421524
	O294	O	1.391126	0.452276	-0.380954
	H295	H	1.400123	0.455955	-0.374209
	H296	H	1.378394	0.451271	-0.379891
	O297	O	0.959844	1.160148	-0.050724
	H298	H	0.967132	1.161191	-0.053562
	H299	H	0.955751	1.151772	-0.046900
	O300	O	0.386581	0.619098	0.416061
	H301	H	0.381744	0.634124	0.435283
	H302	H	0.383210	0.610516	0.408132
	O303	O	0.400750	0.495768	0.619617
	H304	H	0.414105	0.491653	0.629673
	H305	H	0.394711	0.491152	0.623004
	O306	O	0.471651	0.494817	0.491690
	H307	H	0.475791	0.497915	0.498182
	H308	H	0.471229	0.498443	0.481318
	O309	O	0.964785	0.063770	0.943404
	H310	H	0.975540	0.072972	0.943945
	H311	H	0.964788	0.037643	0.942311
	O312	O	0.966700	1.029834	1.069088
	H313	H	0.966936	1.023466	1.067518
	H314	H	0.965956	1.034705	1.068444
	O315	O	0.354280	0.659516	0.513929
	H316	H	0.339900	0.669064	0.509191
	H317	H	0.364349	0.661810	0.515820
	O318	O	0.473039	0.504727	0.439126
	H319	H	0.488020	0.498750	0.443866
	H320	H	0.470770	0.508137	0.433144
	O321	O	0.495663	0.564944	0.583335
	H322	H	0.479694	0.551271	0.583785
	H323	H	0.506768	0.560566	0.585840
	O324	O	0.043974	0.953010	0.975413
	H325	H	0.045798	0.953757	0.969760
	H326	H	0.046648	0.961194	0.967237
	O327	O	0.024515	0.994504	1.005381
	H328	H	0.025594	0.996948	1.006347
	H329	H	0.026922	0.997434	1.002224
	O330	O	0.015798	-0.024302	0.061053
	H331	H	0.013692	-0.027717	0.060079
	H332	H	0.021350	-0.018934	0.063002
	O333	O	0.470518	0.506840	0.415483
	H334	H	0.471784	0.501100	0.412074
	H335	H	0.472198	0.510609	0.410178
	O336	O	-0.015208	0.076298	0.133406
	H337	H	-0.019019	0.085940	0.139944
	H338	H	-0.015438	0.075096	0.130074
	O339	O	-0.001196	0.013392	-0.041533
	H340	H	-0.009688	0.014188	-0.039541
	H341	H	-0.001003	0.028494	-0.031843
	O342	O	0.569508	0.673374	0.591723
	H343	H	0.581313	0.666746	0.573518
	H344	H	0.550174	0.669121	0.586406
	O345	O	-0.022911	0.955200	0.965712
	H346	H	-0.009185	0.957542	0.963540
	H347	H	-0.035006	0.956049	0.954660
	O348	O	1.043815	-0.034009	0.066929
	H349	H	1.045385	-0.039704	0.067920
	H350	H	1.036885	-0.024622	0.056981
	O351	O	0.447989	0.406494	0.589141
	H352	H	0.456473	0.406969	0.586424
	H353	H	0.453189	0.383672	0.584023
	O354	O	0.069645	0.924317	-0.096746
	H355	H	0.064628	0.917836	-0.096352
	H356	H	0.074986	0.925801	-0.098299
	O357	O	0.708498	-0.385844	0.309340
	H358	H	0.707837	-0.384695	0.312598
	H359	H	0.697466	-0.388603	0.308357
	O360	O	1.449661	0.499200	0.495870
	H361	H	1.453597	0.499733	0.493910
	H362	H	1.447003	0.492160	0.496087
	O363	O	0.482821	0.592489	0.533316
	H364	H	0.469181	0.603625	0.532936
	H365	H	0.479295	0.580187	0.546534
	O366	O	0.520845	0.504068	0.425964
	H367	H	0.515824	0.522431	0.416490
	H368	H	0.527414	0.502875	0.446425
	O369	O	0.882440	0.151783	-0.094563
	H370	H	0.881814	0.153231	-0.097022
	H371	H	0.871948	0.164409	-0.104174
	O372	O	0.656319	0.630975	0.665786
	H373	H	0.658424	0.638731	0.650314
	H374	H	0.649740	0.640781	0.666182
	O375	O	0.998500	0.026219	0.935215
	H376	H	1.012406	0.033874	0.932786
	H377	H	0.982093	0.021014	0.944050
	O378	O	0.149414	1.095935	0.001584
	H379	H	0.151547	1.100287	0.013799
	H380	H	0.151273	1.103005	-0.002638
	O381	O	0.589881	0.434963	0.618748
	H382	H	0.581003	0.450827	0.613318
	H383	H	0.605332	0.438090	0.645671
	O384	O	1.066569	1.018685	0.091099
	H385	H	1.058914	1.023215	0.098500
	H386	H	1.057983	1.006429	0.089470
	O387	O	0.587048	-0.485165	0.540270
	H388	H	0.581496	-0.480352	0.527356
	H389	H	0.600599	-0.483150	0.541907
	O390	O	0.968681	0.956674	0.016524
	H391	H	0.966900	0.945062	0.003572
	H392	H	0.962696	0.957086	0.019071
	O393	O	0.458301	0.404947	0.399663
	H394	H	0.468113	0.402009	0.411569
	H395	H	0.455564	0.407621	0.393272
