data_Molecule from HDF5

_cell_length_a		16.298301
_cell_length_b		16.269616
_cell_length_c		16.266692
_cell_angle_alpha	89.666262
_cell_angle_beta	90.253853
_cell_angle_gamma	89.948793
_symmetry_space_group_name_H-M	'P 1'
_symmetry_Int_Tables_number		1

loop_
	_symmetry_equiv_pos_as_xyz
	x,y,z

loop_
	_atom_site_label
	_atom_site_type_symbol
	_atom_site_fract_x
	_atom_site_fract_y
	_atom_site_fract_z
	H0	H	0.406691	0.841959	0.710517
	H1	H	0.605103	0.169413	0.711119
	H2	H	0.602864	0.841560	0.283698
	H3	H	0.404168	0.169527	0.277952
	H4	H	0.719168	0.407248	0.831352
	H5	H	0.721696	0.604715	0.158857
	H6	H	0.289716	0.605977	0.831736
	H7	H	0.290709	0.406086	0.159155
	H8	H	0.841486	0.723451	0.394861
	H9	H	0.168252	0.720526	0.594717
	H10	H	0.840863	0.290151	0.595926
	H11	H	0.167199	0.291689	0.397590
	H12	H	0.840572	0.405503	0.712048
	H13	H	0.168193	0.604056	0.710862
	H14	H	0.841784	0.608772	0.278810
	H15	H	0.168423	0.409475	0.283673
	H16	H	0.405904	0.722089	0.832064
	H17	H	0.604764	0.719881	0.159548
	H18	H	0.603837	0.291651	0.831714
	H19	H	0.405102	0.289788	0.158531
	H20	H	0.720708	0.843209	0.397580
	H21	H	0.719771	0.170250	0.595393
	H22	H	0.289850	0.843034	0.595448
	H23	H	0.289255	0.171056	0.395691
	H24	H	0.906362	0.343076	0.211975
	H25	H	0.104228	0.670529	0.210100
	H26	H	0.102778	0.342318	0.782582
	H27	H	0.904940	0.669847	0.779098
	H28	H	0.219393	0.908773	0.332285
	H29	H	0.220327	0.105212	0.659795
	H30	H	0.787180	0.107761	0.333078
	H31	H	0.790582	0.906102	0.659709
	H32	H	0.341032	0.221331	0.896100
	H33	H	0.668276	0.221417	0.095720
	H34	H	0.341265	0.790321	0.095268
	H35	H	0.667768	0.791406	0.898066
	H36	H	0.340778	0.905743	0.211185
	H37	H	0.668919	0.102390	0.210567
	H38	H	0.341903	0.105905	0.779539
	H39	H	0.668369	0.906517	0.782602
	H40	H	0.904938	0.222271	0.332542
	H41	H	0.103084	0.220070	0.660546
	H42	H	0.103886	0.793244	0.331835
	H43	H	0.906147	0.790477	0.659238
	H44	H	0.219193	0.342540	0.898389
	H45	H	0.220226	0.670528	0.095119
	H46	H	0.790778	0.342190	0.094687
	H47	H	0.787412	0.669140	0.892571
	H48	H	0.415243	0.122127	0.587662
	H49	H	0.590765	0.892898	0.589408
	H50	H	0.589810	0.121627	0.399868
	H51	H	0.417555	0.891395	0.403526
	H52	H	0.593340	0.410111	0.110808
	H53	H	0.607483	0.603539	0.875093
	H54	H	0.409579	0.597174	0.112507
	H55	H	0.411540	0.416847	0.880129
	H56	H	0.118123	0.597052	0.407996
	H57	H	0.888634	0.601689	0.583559
	H58	H	0.117332	0.422072	0.592913
	H59	H	0.889068	0.419463	0.402586
	H60	H	0.123309	0.407137	0.595157
	H61	H	0.890162	0.595223	0.586575
	H62	H	0.121305	0.597539	0.396938
	H63	H	0.886889	0.413436	0.400720
	H64	H	0.414394	0.596727	0.111820
	H65	H	0.595157	0.588097	0.883062
	H66	H	0.603160	0.411916	0.112598
	H67	H	0.412840	0.412299	0.879206
	H68	H	0.596600	0.119672	0.410176
	H69	H	0.602508	0.890382	0.584075
	H70	H	0.411122	0.121750	0.585528
	H71	H	0.407608	0.891001	0.410453
	H72	H	0.917129	0.620792	0.085079
	H73	H	0.099840	0.387369	0.097567
	H74	H	0.093064	0.620358	0.906193
	H75	H	0.913561	0.390996	0.904451
	H76	H	0.099573	0.910532	0.613547
	H77	H	0.099361	0.109556	0.376165
	H78	H	0.912831	0.102899	0.613616
	H79	H	0.914279	0.916088	0.380575
	H80	H	0.622229	0.105546	0.903332
	H81	H	0.388148	0.097668	0.089690
	H82	H	0.623061	0.909871	0.097246
	H83	H	0.389421	0.918752	0.900664
	H84	H	0.620645	0.908318	0.084899
	H85	H	0.389499	0.100932	0.085882
	H86	H	0.619000	0.097276	0.908614
	H87	H	0.386906	0.910085	0.900477
	H88	H	0.907216	0.096763	0.612959
	H89	H	0.103532	0.091356	0.379654
	H90	H	0.099124	0.915332	0.611569
	H91	H	0.910708	0.913065	0.379104
	H92	H	0.103414	0.624562	0.904630
	H93	H	0.089762	0.393449	0.088936
	H94	H	0.909265	0.622368	0.082360
	H95	H	0.910445	0.390233	0.904483
	H96	H	0.410855	0.123625	0.590165
	H97	H	0.600462	0.886646	0.596542
	H98	H	0.601885	0.124632	0.399745
	H99	H	0.406774	0.887473	0.398727
	H100	H	0.596755	0.418597	0.110143
	H101	H	0.587302	0.607699	0.879992
	H102	H	0.412739	0.600686	0.112447
	H103	H	0.409086	0.414382	0.878201
	H104	H	0.122399	0.606738	0.404526
	H105	H	0.887693	0.600283	0.590476
	H106	H	0.117195	0.411676	0.580118
	H107	H	0.889209	0.413738	0.407109
	H108	H	0.911324	0.624048	0.090774
	H109	H	0.103822	0.390558	0.083511
	H110	H	0.096241	0.624062	0.896614
	H111	H	0.912126	0.388713	0.902026
	H112	H	0.095359	0.911672	0.611925
	H113	H	0.086267	0.098614	0.383783
	H114	H	0.915601	0.095174	0.610703
	H115	H	0.909377	0.918018	0.380184
	H116	H	0.621399	0.096799	0.898420
	H117	H	0.389882	0.095430	0.085169
	H118	H	0.618734	0.919040	0.090150
	H119	H	0.389260	0.913945	0.907938
	C120	C	0.383404	0.014566	0.617372
	C121	C	0.626578	0.998245	0.618296
	C122	C	0.625465	0.014057	0.375294
	C123	C	0.382066	0.998153	0.374149
	C124	C	0.626470	0.384780	0.003354
	C125	C	0.626214	0.627761	0.987364
	C126	C	0.383260	0.627736	0.004056
	C127	C	0.382821	0.384829	0.987190
	C128	C	0.012991	0.629958	0.373248
	C129	C	0.996585	0.627680	0.616377
	C130	C	0.011906	0.384257	0.618401
	C131	C	0.995949	0.386133	0.375137
	C132	C	0.883656	0.514575	0.116574
	C133	C	0.126651	0.498396	0.118045
	C134	C	0.126100	0.514675	0.874599
	C135	C	0.882901	0.497866	0.873472
	C136	C	0.126272	0.885046	0.503909
	C137	C	0.125377	0.128156	0.488039
	C138	C	0.882289	0.128351	0.504531
	C139	C	0.883187	0.885807	0.487668
	C140	C	0.513091	0.128663	0.873919
	C141	C	0.496890	0.127266	0.116910
	C142	C	0.512789	0.883427	0.118932
	C143	C	0.496746	0.885448	0.875074
	C144	C	0.385956	0.891255	0.672906
	C145	C	0.624838	0.120717	0.673128
	C146	C	0.623193	0.890767	0.320941
	C147	C	0.384049	0.121120	0.317017
	C148	C	0.681534	0.386837	0.880351
	C149	C	0.683090	0.625070	0.110244
	C150	C	0.327487	0.626256	0.880876
	C151	C	0.328380	0.386123	0.110235
	C152	C	0.890371	0.685724	0.374679
	C153	C	0.119473	0.682363	0.614574
	C154	C	0.889268	0.328557	0.616209
	C155	C	0.118664	0.330211	0.377732
	C156	C	0.889189	0.386013	0.673723
	C157	C	0.119325	0.624941	0.672740
	C158	C	0.890610	0.628707	0.316768
	C159	C	0.119316	0.388782	0.321044
	C160	C	0.385278	0.684104	0.880937
	C161	C	0.625047	0.682166	0.110692
	C162	C	0.623932	0.329506	0.880374
	C163	C	0.385449	0.328468	0.109980
	C164	C	0.681949	0.891534	0.377337
	C165	C	0.681959	0.120982	0.615304
	C166	C	0.327635	0.891835	0.615891
	C167	C	0.327096	0.121850	0.375487
	C168	C	0.885878	0.391736	0.173550
	C169	C	0.124721	0.621578	0.172741
	C170	C	0.123334	0.391402	0.820189
	C171	C	0.884590	0.621013	0.817260
	C172	C	0.181392	0.888448	0.380948
	C173	C	0.181791	0.125675	0.611101
	C174	C	0.825740	0.127353	0.381589
	C175	C	0.828255	0.886282	0.610864
	C176	C	0.390019	0.183680	0.875689
	C177	C	0.619492	0.182904	0.115667
	C178	C	0.390022	0.828094	0.115768
	C179	C	0.619195	0.829564	0.877859
	C180	C	0.389661	0.885463	0.173356
	C181	C	0.619781	0.123974	0.172922
	C182	C	0.390458	0.126492	0.817772
	C183	C	0.619690	0.887083	0.820586
	C184	C	0.883970	0.184457	0.381413
	C185	C	0.124027	0.183186	0.611139
	C186	C	0.124097	0.830800	0.380653
	C187	C	0.885546	0.828729	0.610437
	C188	C	0.181166	0.391454	0.877763
	C189	C	0.182550	0.621466	0.115669
	C190	C	0.828428	0.391189	0.115065
	C191	C	0.826292	0.620693	0.873935
	C192	C	0.405939	0.100466	0.594567
	C193	C	0.604152	0.911976	0.596395
	C194	C	0.602779	0.099914	0.396865
	C195	C	0.404252	0.912442	0.397384
	C196	C	0.604341	0.406968	0.089109
	C197	C	0.603314	0.606167	0.901683
	C198	C	0.405692	0.604946	0.090039
	C199	C	0.404656	0.407647	0.901298
	C200	C	0.098599	0.607008	0.396264
	C201	C	0.911067	0.605461	0.593557
	C202	C	0.097144	0.406834	0.595874
	C203	C	0.910470	0.408844	0.397121
	C204	C	0.906187	0.600170	0.093043
	C205	C	0.104467	0.412631	0.096327
	C206	C	0.104111	0.600633	0.896140
	C207	C	0.905581	0.412054	0.896875
	C208	C	0.104380	0.906166	0.589995
	C209	C	0.103056	0.106387	0.402190
	C210	C	0.905243	0.105268	0.590164
	C211	C	0.905041	0.909157	0.402083
	C212	C	0.598770	0.106382	0.896777
	C213	C	0.411365	0.104693	0.093866
	C214	C	0.598481	0.905969	0.097275
	C215	C	0.410767	0.907889	0.896584
	Zn216	Zn	0.505018	0.006181	0.746258
	Zn217	Zn	0.504048	0.005215	0.246433
	Zn218	Zn	0.754840	0.506223	-0.005553
	Zn219	Zn	0.254996	0.506119	-0.003696
	Zn220	Zn	0.004569	0.757337	0.495287
	Zn221	Zn	0.003972	0.256794	0.496728
	Zn222	Zn	0.004232	0.506612	0.746191
	Zn223	Zn	0.004719	0.507449	0.245992
	Zn224	Zn	0.504480	0.756415	-0.003961
	Zn225	Zn	0.504564	0.257048	-0.004891
	Zn226	Zn	0.754384	0.006359	0.496668
	Zn227	Zn	0.254222	0.007166	0.496170
	N228	N	0.420034	0.968581	0.673938
	N229	N	0.591305	0.043259	0.675099
	N230	N	0.588914	0.968102	0.319353
	N231	N	0.417264	0.043347	0.315793
	N232	N	0.683077	0.420643	0.957564
	N233	N	0.684130	0.592087	0.032452
	N234	N	0.326121	0.592065	0.958544
	N235	N	0.326666	0.420324	0.032905
	N236	N	0.967677	0.686871	0.408814
	N237	N	0.042018	0.684422	0.580414
	N238	N	0.966341	0.327660	0.582287
	N239	N	0.040969	0.328396	0.410548
	N240	N	0.966462	0.420057	0.675359
	N241	N	0.041827	0.591625	0.673860
	N242	N	0.967936	0.594706	0.315890
	N243	N	0.042082	0.422948	0.319361
	N244	N	0.419124	0.685173	0.958489
	N245	N	0.590247	0.684044	0.033470
	N246	N	0.590426	0.328073	0.958068
	N247	N	0.418624	0.327677	0.032407
	N248	N	0.683365	0.969079	0.410504
	N249	N	0.683083	0.043449	0.581957
	N250	N	0.326228	0.969409	0.581881
	N251	N	0.325604	0.044355	0.410143
	N252	N	0.919145	0.469545	0.174652
	N253	N	0.090935	0.544213	0.174691
	N254	N	0.089853	0.469143	0.818069
	N255	N	0.918809	0.543704	0.816768
	N256	N	0.182844	0.921586	0.458584
	N257	N	0.182831	0.092239	0.533653
	N258	N	0.824510	0.093356	0.459177
	N259	N	0.826878	0.921308	0.533691
	N260	N	0.467253	0.185187	0.909796
	N261	N	0.542048	0.185189	0.081811
	N262	N	0.467617	0.826561	0.082741
	N263	N	0.541781	0.828531	0.911173
	N264	N	0.466941	0.919124	0.175394
	N265	N	0.542506	0.089969	0.173780
	N266	N	0.468058	0.093118	0.816417
	N267	N	0.542411	0.921338	0.818955
	N268	N	0.918492	0.185076	0.458771
	N269	N	0.089389	0.184706	0.533776
	N270	N	0.090471	0.828661	0.458133
	N271	N	0.918800	0.828060	0.532789
	N272	N	0.183042	0.469014	0.910945
	N273	N	0.184049	0.543775	0.082425
	N274	N	0.826810	0.468581	0.080422
	N275	N	0.825131	0.543009	0.908077
	O276	O	-0.071021	-0.074568	0.088481
	H277	H	-0.067284	-0.066637	0.094181
	H278	H	-0.057822	-0.076724	0.091093
	O279	O	0.558642	0.409803	0.523432
	H280	H	0.554170	0.423234	0.534097
	H281	H	0.562977	0.414749	0.529310
	O282	O	0.383780	0.491481	0.471665
	H283	H	0.378204	0.491969	0.481777
	H284	H	0.380277	0.496394	0.464096
	O285	O	1.022857	-0.017027	1.062132
	H286	H	1.031131	-0.002524	1.057475
	H287	H	1.022670	-0.026659	1.047383
	O288	O	0.975492	-0.039391	-0.013357
	H289	H	0.972728	-0.039064	-0.008776
	H290	H	0.979314	-0.048227	-0.011744
	O291	O	0.499101	0.469709	0.440890
	H292	H	0.499002	0.463235	0.434362
	H293	H	0.498320	0.468424	0.433572
	O294	O	1.029296	-0.073173	0.937829
	H295	H	1.030804	-0.071449	0.930200
	H296	H	1.033268	-0.077728	0.938411
	O297	O	-0.054431	-0.065277	-0.072472
	H298	H	-0.058858	-0.060984	-0.065180
	H299	H	-0.062000	-0.071669	-0.053207
	O300	O	0.549613	0.493896	0.509158
	H301	H	0.549783	0.496286	0.511458
	H302	H	0.554697	0.493154	0.521427
	O303	O	0.493893	0.422857	0.447543
	H304	H	0.504493	0.426478	0.435677
	H305	H	0.498985	0.426389	0.454593
	O306	O	0.974108	0.024397	-0.012972
	H307	H	0.970363	0.023127	-0.007275
	H308	H	0.975179	0.023770	-0.001918
	O309	O	0.103339	0.026017	1.024609
	H310	H	0.110044	0.023721	1.025570
	H311	H	0.099176	0.034184	1.031556
	O312	O	1.004753	1.033307	1.053306
	H313	H	0.992745	1.031064	1.045408
	H314	H	1.021933	1.023425	1.045519
	O315	O	0.524353	0.412575	0.398672
	H316	H	0.510002	0.412834	0.408035
	H317	H	0.532628	0.414069	0.398138
	O318	O	0.531358	0.540774	0.450885
	H319	H	0.529377	0.538041	0.442240
	H320	H	0.533047	0.528816	0.452460
	O321	O	-0.033355	1.012396	1.044681
	H322	H	-0.043731	1.017477	1.038833
	H323	H	-0.033080	1.007482	1.050352
	O324	O	0.515674	0.538844	0.505144
	H325	H	0.519204	0.540498	0.511991
	H326	H	0.514517	0.531970	0.510433
	O327	O	0.572645	0.523958	0.468405
	H328	H	0.558030	0.521325	0.467929
	H329	H	0.570448	0.514555	0.464392
	O330	O	0.560530	0.563951	0.591475
	H331	H	0.562484	0.572038	0.585673
	H332	H	0.562570	0.559769	0.589865
	O333	O	0.470736	0.469492	0.588164
	H334	H	0.468671	0.471124	0.594020
	H335	H	0.475291	0.479228	0.588460
	O336	O	0.460805	0.569669	0.458394
	H337	H	0.463451	0.580758	0.463681
	H338	H	0.459361	0.564612	0.444636
	O339	O	0.975320	1.001022	0.088636
	H340	H	0.984693	0.994337	0.080512
	H341	H	0.982504	0.993635	0.092323
	O342	O	0.490589	0.469886	0.496243
	H343	H	0.485782	0.467579	0.485496
	H344	H	0.499168	0.463917	0.480327
	O345	O	0.547341	0.491794	0.462776
	H346	H	0.559508	0.477586	0.452465
	H347	H	0.551067	0.495117	0.458833
	O348	O	0.018488	-0.022309	0.033717
	H349	H	0.006556	-0.017714	0.028948
	H350	H	0.010943	-0.028291	0.037904
	O351	O	0.072241	1.058204	0.998884
	H352	H	0.080893	1.064767	0.996366
	H353	H	0.079110	1.062874	1.006033
	O354	O	0.435352	0.505228	0.480309
	H355	H	0.435171	0.503284	0.496407
	H356	H	0.434426	0.491551	0.467243
	O357	O	0.049696	1.100123	1.045616
	H358	H	0.035184	1.107822	1.040305
	H359	H	0.053237	1.106456	1.047354
