data_Molecule from HDF5

_cell_length_a		16.314777
_cell_length_b		16.290147
_cell_length_c		16.378411
_cell_angle_alpha	89.866727
_cell_angle_beta	89.967177
_cell_angle_gamma	90.069114
_symmetry_space_group_name_H-M	'P 1'
_symmetry_Int_Tables_number		1

loop_
	_symmetry_equiv_pos_as_xyz
	x,y,z

loop_
	_atom_site_label
	_atom_site_type_symbol
	_atom_site_fract_x
	_atom_site_fract_y
	_atom_site_fract_z
	H0	H	0.408107	0.841581	0.718163
	H1	H	0.605545	0.168764	0.716857
	H2	H	0.607366	0.841789	0.287040
	H3	H	0.407905	0.168436	0.287430
	H4	H	0.721751	0.406730	0.840092
	H5	H	0.722544	0.604158	0.165960
	H6	H	0.291716	0.604840	0.839595
	H7	H	0.291692	0.407256	0.165051
	H8	H	0.843151	0.719902	0.404213
	H9	H	0.170124	0.718585	0.600636
	H10	H	0.843271	0.289679	0.601531
	H11	H	0.170594	0.293314	0.407301
	H12	H	0.843799	0.403889	0.719723
	H13	H	0.169714	0.604055	0.717837
	H14	H	0.843077	0.604295	0.286993
	H15	H	0.168797	0.406151	0.287424
	H16	H	0.409326	0.719909	0.839703
	H17	H	0.606291	0.721454	0.165460
	H18	H	0.604943	0.290872	0.839510
	H19	H	0.408358	0.290434	0.164927
	H20	H	0.720946	0.840875	0.405856
	H21	H	0.721524	0.168483	0.600760
	H22	H	0.292501	0.841426	0.602287
	H23	H	0.292721	0.169056	0.404923
	H24	H	0.906942	0.341183	0.217629
	H25	H	0.106865	0.668076	0.218941
	H26	H	0.103872	0.341633	0.789380
	H27	H	0.906627	0.668159	0.786914
	H28	H	0.221401	0.907511	0.339975
	H29	H	0.221221	0.102312	0.667018
	H30	H	0.791408	0.104129	0.340554
	H31	H	0.791856	0.904933	0.665696
	H32	H	0.343012	0.219499	0.903848
	H33	H	0.670088	0.220975	0.099986
	H34	H	0.342763	0.790477	0.100710
	H35	H	0.670737	0.792423	0.905887
	H36	H	0.343384	0.904402	0.219416
	H37	H	0.669409	0.105610	0.218567
	H38	H	0.343219	0.104252	0.787115
	H39	H	0.670148	0.907919	0.788535
	H40	H	0.909522	0.219170	0.339949
	H41	H	0.105363	0.219644	0.666273
	H42	H	0.105479	0.790553	0.339530
	H43	H	0.908305	0.788719	0.665565
	H44	H	0.220140	0.341693	0.904655
	H45	H	0.221363	0.668396	0.100983
	H46	H	0.791284	0.341312	0.101376
	H47	H	0.792884	0.668481	0.904746
	H48	H	0.416816	0.120054	0.595863
	H49	H	0.598826	0.888933	0.596587
	H50	H	0.597289	0.120171	0.409224
	H51	H	0.417208	0.891879	0.415791
	H52	H	0.599442	0.415701	0.117118
	H53	H	0.603626	0.596211	0.887201
	H54	H	0.407036	0.590754	0.117806
	H55	H	0.411821	0.412509	0.886273
	H56	H	0.122870	0.593395	0.404226
	H57	H	0.891634	0.597339	0.592206
	H58	H	0.123351	0.406067	0.594094
	H59	H	0.888226	0.409876	0.406182
	H60	H	0.120328	0.417389	0.593525
	H61	H	0.891049	0.593506	0.596892
	H62	H	0.122828	0.602864	0.411284
	H63	H	0.890129	0.408741	0.412415
	H64	H	0.422471	0.595276	0.113989
	H65	H	0.596399	0.597102	0.889404
	H66	H	0.595803	0.411567	0.116966
	H67	H	0.412293	0.412066	0.886709
	H68	H	0.599897	0.119495	0.412680
	H69	H	0.600190	0.888129	0.596450
	H70	H	0.412383	0.121170	0.593534
	H71	H	0.408776	0.888166	0.411793
	H72	H	0.918503	0.620428	0.098989
	H73	H	0.106800	0.388206	0.092680
	H74	H	0.095288	0.622679	0.903544
	H75	H	0.917467	0.391998	0.916952
	H76	H	0.108579	0.900256	0.623383
	H77	H	0.109655	0.099859	0.385392
	H78	H	0.923194	0.096697	0.615591
	H79	H	0.913741	0.917108	0.389819
	H80	H	0.623420	0.090470	0.897586
	H81	H	0.391602	0.097788	0.094081
	H82	H	0.621962	0.911895	0.095458
	H83	H	0.390861	0.912740	0.909377
	H84	H	0.620417	0.914971	0.094734
	H85	H	0.391033	0.095513	0.097469
	H86	H	0.626356	0.111630	0.908090
	H87	H	0.390059	0.912284	0.907669
	H88	H	0.910653	0.104389	0.621615
	H89	H	0.097909	0.091077	0.392135
	H90	H	0.105624	0.923830	0.616784
	H91	H	0.918698	0.909476	0.388310
	H92	H	0.096085	0.619008	0.915661
	H93	H	0.096861	0.387762	0.103952
	H94	H	0.915269	0.618502	0.090925
	H95	H	0.904674	0.386045	0.910768
	H96	H	0.412729	0.122201	0.598294
	H97	H	0.599440	0.888885	0.597776
	H98	H	0.601213	0.121465	0.408682
	H99	H	0.417439	0.888400	0.406110
	H100	H	0.600291	0.411037	0.118594
	H101	H	0.600407	0.602705	0.886284
	H102	H	0.412117	0.606404	0.120904
	H103	H	0.412023	0.411159	0.886518
	H104	H	0.118795	0.592904	0.415415
	H105	H	0.889746	0.598730	0.597287
	H106	H	0.123744	0.413114	0.603913
	H107	H	0.891279	0.414836	0.409808
	H108	H	0.909637	0.622767	0.096848
	H109	H	0.092212	0.393158	0.090123
	H110	H	0.106005	0.623664	0.909721
	H111	H	0.916901	0.387423	0.902076
	H112	H	0.086630	0.907578	0.614992
	H113	H	0.095608	0.105832	0.387467
	H114	H	0.909441	0.089328	0.617434
	H115	H	0.909591	0.910176	0.385442
	H116	H	0.617665	0.093009	0.920281
	H117	H	0.390092	0.099568	0.097062
	H118	H	0.621757	0.913879	0.097186
	H119	H	0.390138	0.911103	0.909867
	C120	C	0.385544	0.013024	0.624585
	C121	C	0.628137	0.996852	0.624877
	C122	C	0.628319	0.012716	0.381658
	C123	C	0.385875	0.997108	0.382284
	C124	C	0.627431	0.384002	0.010359
	C125	C	0.628873	0.627186	0.994945
	C126	C	0.385182	0.626661	0.010304
	C127	C	0.383927	0.383426	0.994006
	C128	C	0.014157	0.625722	0.381327
	C129	C	0.998503	0.625971	0.624413
	C130	C	0.014708	0.382879	0.625204
	C131	C	0.997899	0.383004	0.381435
	C132	C	0.885137	0.512599	0.124433
	C133	C	0.128147	0.497161	0.124499
	C134	C	0.127152	0.513467	0.881847
	C135	C	0.885179	0.496813	0.881325
	C136	C	0.129145	0.882480	0.511004
	C137	C	0.129282	0.126961	0.495807
	C138	C	0.885344	0.126249	0.510935
	C139	C	0.885611	0.883286	0.495068
	C140	C	0.514494	0.126823	0.880532
	C141	C	0.498717	0.126499	0.124203
	C142	C	0.514261	0.883670	0.124956
	C143	C	0.498402	0.883778	0.880881
	C144	C	0.387698	0.890298	0.680229
	C145	C	0.625822	0.119926	0.678984
	C146	C	0.626819	0.890092	0.325821
	C147	C	0.387870	0.119939	0.326192
	C148	C	0.683210	0.386398	0.888342
	C149	C	0.684413	0.624721	0.117224
	C150	C	0.329603	0.625179	0.888261
	C151	C	0.329446	0.386179	0.116440
	C152	C	0.891706	0.681519	0.383577
	C153	C	0.121425	0.680721	0.621202
	C154	C	0.891945	0.327638	0.622307
	C155	C	0.121573	0.330050	0.385684
	C156	C	0.892029	0.384755	0.680680
	C157	C	0.121012	0.624242	0.680008
	C158	C	0.891612	0.624019	0.325557
	C159	C	0.120452	0.385701	0.325940
	C160	C	0.387847	0.682459	0.888300
	C161	C	0.626619	0.682668	0.117212
	C162	C	0.625280	0.328989	0.887981
	C163	C	0.387458	0.328324	0.116224
	C164	C	0.683501	0.889765	0.384629
	C165	C	0.683382	0.119760	0.621455
	C166	C	0.330135	0.890209	0.622818
	C167	C	0.330639	0.120234	0.384510
	C168	C	0.886995	0.390065	0.179649
	C169	C	0.126651	0.619450	0.180381
	C170	C	0.124551	0.390255	0.827174
	C171	C	0.887133	0.619467	0.825687
	C172	C	0.184198	0.885993	0.388727
	C173	C	0.183519	0.123339	0.618369
	C174	C	0.829475	0.124385	0.389137
	C175	C	0.830180	0.884951	0.617358
	C176	C	0.391734	0.181561	0.883191
	C177	C	0.621515	0.182149	0.120513
	C178	C	0.391716	0.827770	0.122479
	C179	C	0.621819	0.829885	0.884862
	C180	C	0.392041	0.884430	0.181254
	C181	C	0.621075	0.125209	0.179525
	C182	C	0.391883	0.124578	0.824985
	C183	C	0.621575	0.886925	0.826376
	C184	C	0.888093	0.181539	0.388696
	C185	C	0.126153	0.181699	0.617983
	C186	C	0.126463	0.827808	0.388448
	C187	C	0.887915	0.827180	0.617260
	C188	C	0.182060	0.390448	0.884567
	C189	C	0.183508	0.619748	0.121693
	C190	C	0.829409	0.390041	0.122017
	C191	C	0.830349	0.619644	0.884001
	C192	C	0.407510	0.099068	0.602401
	C193	C	0.605968	0.910882	0.603314
	C194	C	0.605917	0.098241	0.403661
	C195	C	0.408002	0.911648	0.404737
	C196	C	0.605021	0.406204	0.095466
	C197	C	0.606546	0.605407	0.909762
	C198	C	0.407348	0.603913	0.095414
	C199	C	0.405696	0.405535	0.908509
	C200	C	0.099514	0.603005	0.403813
	C201	C	0.912986	0.603173	0.602195
	C202	C	0.100411	0.405559	0.603494
	C203	C	0.912093	0.404591	0.403224
	C204	C	0.907866	0.598510	0.102149
	C205	C	0.105378	0.411747	0.102243
	C206	C	0.105559	0.599457	0.903383
	C207	C	0.906835	0.410505	0.903407
	C208	C	0.106876	0.904187	0.596375
	C209	C	0.107362	0.105180	0.410396
	C210	C	0.907961	0.103493	0.596263
	C211	C	0.907658	0.905665	0.409755
	C212	C	0.600170	0.104919	0.902162
	C213	C	0.413125	0.104217	0.102555
	C214	C	0.599425	0.906817	0.102387
	C215	C	0.412603	0.905513	0.902621
	Zn216	Zn	0.506641	0.005240	0.752594
	Zn217	Zn	0.506707	0.004732	0.253480
	Zn218	Zn	0.757156	0.504845	0.002669
	Zn219	Zn	0.255692	0.505559	0.002186
	Zn220	Zn	0.006703	0.754363	0.502886
	Zn221	Zn	0.006856	0.255174	0.503513
	Zn222	Zn	0.006262	0.505049	0.753239
	Zn223	Zn	0.006176	0.504614	0.252749
	Zn224	Zn	0.506640	0.755714	0.003101
	Zn225	Zn	0.506417	0.254808	0.001669
	Zn226	Zn	0.756340	0.004450	0.503538
	Zn227	Zn	0.257483	0.005046	0.503687
	N228	N	0.421263	0.967825	0.681558
	N229	N	0.592431	0.042498	0.681302
	N230	N	0.593463	0.967706	0.323527
	N231	N	0.421606	0.042577	0.324910
	N232	N	0.684565	0.420069	0.965346
	N233	N	0.686049	0.590986	0.040255
	N234	N	0.327875	0.591082	0.965164
	N235	N	0.327196	0.419705	0.039406
	N236	N	0.968772	0.682670	0.417658
	N237	N	0.044266	0.681840	0.587281
	N238	N	0.969114	0.326621	0.588457
	N239	N	0.044224	0.327994	0.418985
	N240	N	0.969364	0.418410	0.682607
	N241	N	0.043632	0.590700	0.681841
	N242	N	0.968894	0.590254	0.323982
	N243	N	0.042575	0.418061	0.323304
	N244	N	0.421827	0.683412	0.965141
	N245	N	0.592950	0.684532	0.040217
	N246	N	0.591333	0.327456	0.964764
	N247	N	0.420401	0.326337	0.038928
	N248	N	0.684618	0.966840	0.418489
	N249	N	0.684780	0.042188	0.588331
	N250	N	0.328889	0.967470	0.588864
	N251	N	0.329081	0.042973	0.418616
	N252	N	0.920752	0.467535	0.181134
	N253	N	0.092706	0.542250	0.182120
	N254	N	0.090992	0.467586	0.825364
	N255	N	0.920291	0.541908	0.824062
	N256	N	0.185769	0.919207	0.465811
	N257	N	0.185730	0.090202	0.541307
	N258	N	0.827853	0.090471	0.466198
	N259	N	0.828628	0.918970	0.540514
	N260	N	0.468849	0.183048	0.916993
	N261	N	0.544203	0.183284	0.086994
	N262	N	0.468600	0.827035	0.088311
	N263	N	0.544332	0.827938	0.918158
	N264	N	0.469304	0.918522	0.182830
	N265	N	0.543907	0.091234	0.181899
	N266	N	0.469229	0.091147	0.823333
	N267	N	0.543923	0.919805	0.823999
	N268	N	0.921948	0.182823	0.465453
	N269	N	0.092930	0.183939	0.540831
	N270	N	0.092801	0.825548	0.465458
	N271	N	0.921613	0.826082	0.540160
	N272	N	0.183643	0.467973	0.917872
	N273	N	0.184298	0.542738	0.087563
	N274	N	0.828131	0.467490	0.088401
	N275	N	0.829173	0.542375	0.918112
	O276	O	0.456143	0.542663	0.454042
	H277	H	0.452003	0.541529	0.443793
	H278	H	0.449406	0.558026	0.448196
	O279	O	0.060708	0.011209	0.092661
	H280	H	0.066368	0.017879	0.089663
	H281	H	0.060949	-0.004190	0.096858
	O282	O	0.461914	0.551185	0.455780
	H283	H	0.461152	0.555768	0.450705
	H284	H	0.452058	0.555209	0.466419
	O285	O	0.459710	0.489631	0.439714
	H286	H	0.454846	0.475019	0.442846
	H287	H	0.453736	0.484288	0.431297
	O288	O	0.988151	-0.005844	0.088812
	H289	H	0.982698	-0.002800	0.092057
	H290	H	0.987645	-0.004403	0.079693
	O291	O	-0.534296	0.524189	-0.567301
	H292	H	-0.532696	0.510057	-0.559974
	H293	H	-0.517226	0.526993	-0.566120
	O294	O	0.440000	0.507956	0.407753
	H295	H	0.442973	0.508300	0.414473
	H296	H	0.440120	0.497647	0.402933
	O297	O	0.053019	0.973196	0.111825
	H298	H	0.033560	0.969691	0.107683
	H299	H	0.050849	0.965673	0.118825
	O300	O	1.038405	0.012451	1.102295
	H301	H	1.038122	0.005495	1.104363
	H302	H	1.044385	0.012196	1.111073
	O303	O	0.473228	0.503901	0.433287
	H304	H	0.473871	0.502484	0.435085
	H305	H	0.473191	0.501299	0.436972
	O306	O	-0.005945	1.011349	1.063399
	H307	H	-0.011615	1.014002	1.058730
	H308	H	0.003412	1.019193	1.069829
	O309	O	0.465879	0.498141	0.425911
	H310	H	0.466204	0.500191	0.417919
	H311	H	0.470772	0.492371	0.427155
