data_Molecule from HDF5

_cell_length_a		16.314060
_cell_length_b		16.283618
_cell_length_c		16.374464
_cell_angle_alpha	89.832001
_cell_angle_beta	90.296169
_cell_angle_gamma	89.765494
_symmetry_space_group_name_H-M	'P 1'
_symmetry_Int_Tables_number		1

loop_
	_symmetry_equiv_pos_as_xyz
	x,y,z

loop_
	_atom_site_label
	_atom_site_type_symbol
	_atom_site_fract_x
	_atom_site_fract_y
	_atom_site_fract_z
	H0	H	0.398431	0.835231	0.717670
	H1	H	0.604446	0.158375	0.717398
	H2	H	0.603066	0.834379	0.281477
	H3	H	0.400641	0.160564	0.281208
	H4	H	0.717450	0.394939	0.836974
	H5	H	0.717733	0.598104	0.158825
	H6	H	0.279680	0.601290	0.837568
	H7	H	0.285595	0.397872	0.160967
	H8	H	0.838249	0.716323	0.397128
	H9	H	0.163939	0.710731	0.599261
	H10	H	0.838390	0.279097	0.600699
	H11	H	0.163127	0.282385	0.401682
	H12	H	0.838360	0.393315	0.716950
	H13	H	0.161126	0.598109	0.717580
	H14	H	0.837589	0.600584	0.281037
	H15	H	0.161547	0.395016	0.282316
	H16	H	0.395800	0.716847	0.837598
	H17	H	0.599558	0.711849	0.160262
	H18	H	0.599229	0.281060	0.836235
	H19	H	0.401062	0.281040	0.160270
	H20	H	0.718341	0.834571	0.398439
	H21	H	0.717064	0.159617	0.598606
	H22	H	0.286680	0.833640	0.597596
	H23	H	0.283012	0.160356	0.395986
	H24	H	0.899265	0.335735	0.216202
	H25	H	0.098842	0.660799	0.214762
	H26	H	0.101766	0.335606	0.782693
	H27	H	0.895912	0.659874	0.779526
	H28	H	0.217227	0.896321	0.336180
	H29	H	0.219964	0.096676	0.660715
	H30	H	0.782532	0.098509	0.337112
	H31	H	0.782822	0.892731	0.660331
	H32	H	0.336618	0.214745	0.896273
	H33	H	0.661974	0.214830	0.099860
	H34	H	0.336864	0.783087	0.097843
	H35	H	0.662010	0.779188	0.899201
	H36	H	0.338496	0.896336	0.215318
	H37	H	0.662852	0.097010	0.214705
	H38	H	0.338802	0.099795	0.779143
	H39	H	0.662098	0.894168	0.782863
	H40	H	0.898056	0.215528	0.337340
	H41	H	0.103958	0.214432	0.661341
	H42	H	0.101702	0.780004	0.336876
	H43	H	0.902287	0.780853	0.661415
	H44	H	0.215958	0.335504	0.899476
	H45	H	0.214030	0.661826	0.097636
	H46	H	0.783527	0.335612	0.099605
	H47	H	0.781607	0.660091	0.896642
	H48	H	0.412453	0.111106	0.588672
	H49	H	0.590453	0.884350	0.584554
	H50	H	0.594974	0.113579	0.403532
	H51	H	0.410611	0.881456	0.402361
	H52	H	0.588512	0.409183	0.110976
	H53	H	0.585542	0.588360	0.884115
	H54	H	0.397328	0.585752	0.115383
	H55	H	0.412622	0.414210	0.887252
	H56	H	0.113526	0.584160	0.408455
	H57	H	0.884172	0.584059	0.597564
	H58	H	0.117876	0.398688	0.590036
	H59	H	0.887005	0.408811	0.410701
	H60	H	0.111279	0.411392	0.584636
	H61	H	0.882250	0.598452	0.589427
	H62	H	0.116699	0.588776	0.402392
	H63	H	0.884482	0.409489	0.403809
	H64	H	0.415111	0.585074	0.109457
	H65	H	0.590312	0.591058	0.882166
	H66	H	0.590483	0.402628	0.112928
	H67	H	0.410348	0.397359	0.881822
	H68	H	0.586537	0.111336	0.404272
	H69	H	0.598216	0.879450	0.591777
	H70	H	0.411053	0.110511	0.586163
	H71	H	0.411532	0.883206	0.408406
	H72	H	0.909075	0.613304	0.089240
	H73	H	0.097303	0.378832	0.098711
	H74	H	0.090673	0.611258	0.915991
	H75	H	0.907818	0.383237	0.910913
	H76	H	0.093610	0.905020	0.613392
	H77	H	0.092986	0.085050	0.385936
	H78	H	0.905634	0.089279	0.614750
	H79	H	0.908760	0.909171	0.385082
	H80	H	0.613011	0.086770	0.908616
	H81	H	0.381830	0.097124	0.091277
	H82	H	0.615058	0.911859	0.098408
	H83	H	0.388233	0.911186	0.911745
	H84	H	0.620026	0.894300	0.093074
	H85	H	0.388522	0.087269	0.080447
	H86	H	0.616047	0.088687	0.905512
	H87	H	0.383996	0.911295	0.902067
	H88	H	0.910269	0.082999	0.611746
	H89	H	0.087217	0.090609	0.385477
	H90	H	0.095987	0.902302	0.614029
	H91	H	0.911466	0.907130	0.385299
	H92	H	0.095484	0.616533	0.901804
	H93	H	0.083420	0.385213	0.092515
	H94	H	0.908279	0.612923	0.087523
	H95	H	0.907061	0.381456	0.904722
	H96	H	0.410035	0.112644	0.588180
	H97	H	0.588146	0.881170	0.595702
	H98	H	0.591855	0.110703	0.411054
	H99	H	0.405833	0.881339	0.407051
	H100	H	0.595036	0.407079	0.113718
	H101	H	0.590647	0.585710	0.883387
	H102	H	0.407801	0.600720	0.117169
	H103	H	0.396714	0.409045	0.881087
	H104	H	0.115931	0.592030	0.409952
	H105	H	0.888508	0.585684	0.581172
	H106	H	0.115049	0.410333	0.599470
	H107	H	0.883361	0.403360	0.407155
	H108	H	0.907134	0.613191	0.089683
	H109	H	0.096069	0.383406	0.083373
	H110	H	0.080964	0.610822	0.903876
	H111	H	0.912150	0.384127	0.906378
	H112	H	0.097565	0.906146	0.613863
	H113	H	0.094000	0.092343	0.383433
	H114	H	0.913659	0.090455	0.613025
	H115	H	0.908541	0.905658	0.384095
	H116	H	0.615756	0.090960	0.909681
	H117	H	0.385258	0.081707	0.094935
	H118	H	0.612318	0.906867	0.081251
	H119	H	0.383963	0.902921	0.908150
	C120	C	0.380615	0.004674	0.618734
	C121	C	0.622608	0.988581	0.620378
	C122	C	0.621894	0.004846	0.376686
	C123	C	0.378706	0.989301	0.375405
	C124	C	0.621124	0.375805	0.006007
	C125	C	0.619690	0.618237	0.989877
	C126	C	0.376100	0.621011	0.007408
	C127	C	0.377646	0.376413	0.990166
	C128	C	0.008401	0.619653	0.376762
	C129	C	0.992111	0.618512	0.619714
	C130	C	0.008091	0.375702	0.621144
	C131	C	0.991765	0.376369	0.377509
	C132	C	0.878389	0.506268	0.119446
	C133	C	0.121388	0.489912	0.120579
	C134	C	0.120243	0.505869	0.877619
	C135	C	0.877472	0.489348	0.876230
	C136	C	0.124358	0.874647	0.506779
	C137	C	0.122598	0.118902	0.491501
	C138	C	0.878724	0.118538	0.506985
	C139	C	0.880056	0.876353	0.491397
	C140	C	0.508347	0.119690	0.876375
	C141	C	0.492122	0.118621	0.119130
	C142	C	0.508401	0.875541	0.120343
	C143	C	0.492026	0.876496	0.877514
	C144	C	0.380196	0.883275	0.677319
	C145	C	0.622684	0.110342	0.677799
	C146	C	0.622082	0.882966	0.319981
	C147	C	0.379839	0.111780	0.318932
	C148	C	0.678333	0.376003	0.885081
	C149	C	0.678109	0.617480	0.110888
	C150	C	0.318701	0.620323	0.885809
	C151	C	0.322945	0.377707	0.112248
	C152	C	0.886620	0.677240	0.377824
	C153	C	0.114781	0.673554	0.619047
	C154	C	0.886882	0.317575	0.620452
	C155	C	0.114042	0.319819	0.380305
	C156	C	0.886785	0.374738	0.678240
	C157	C	0.113392	0.617514	0.677927
	C158	C	0.886214	0.619790	0.319778
	C159	C	0.113267	0.376146	0.321084
	C160	C	0.376137	0.678147	0.885833
	C161	C	0.619402	0.674235	0.111624
	C162	C	0.619630	0.319090	0.884698
	C163	C	0.380427	0.319641	0.111958
	C164	C	0.679385	0.882827	0.378205
	C165	C	0.679269	0.110865	0.619353
	C166	C	0.324409	0.882378	0.617835
	C167	C	0.321832	0.111798	0.376308
	C168	C	0.879315	0.384275	0.177297
	C169	C	0.119333	0.612280	0.176586
	C170	C	0.120328	0.384094	0.821140
	C171	C	0.876948	0.611413	0.818488
	C172	C	0.179204	0.876254	0.384865
	C173	C	0.180881	0.116934	0.612579
	C174	C	0.820952	0.118466	0.385497
	C175	C	0.822427	0.874974	0.612354
	C176	C	0.386019	0.177064	0.876266
	C177	C	0.613947	0.175625	0.119009
	C178	C	0.385916	0.820432	0.118253
	C179	C	0.613515	0.817796	0.878832
	C180	C	0.386778	0.876872	0.176785
	C181	C	0.614205	0.117419	0.176377
	C182	C	0.386855	0.119958	0.817864
	C183	C	0.613685	0.875463	0.821223
	C184	C	0.878890	0.176337	0.385676
	C185	C	0.122973	0.175273	0.612943
	C186	C	0.121844	0.818235	0.385297
	C187	C	0.882150	0.819344	0.613067
	C188	C	0.177317	0.384037	0.879284
	C189	C	0.176727	0.612542	0.118401
	C190	C	0.821716	0.384140	0.119492
	C191	C	0.819859	0.611488	0.876481
	C192	C	0.404373	0.089501	0.594655
	C193	C	0.599273	0.903864	0.597418
	C194	C	0.598163	0.089859	0.399724
	C195	C	0.402413	0.904139	0.399012
	C196	C	0.598163	0.399417	0.090687
	C197	C	0.595703	0.595201	0.905161
	C198	C	0.399816	0.597410	0.091981
	C199	C	0.399969	0.399940	0.905505
	C200	C	0.093398	0.595295	0.400088
	C201	C	0.907159	0.596017	0.596099
	C202	C	0.092691	0.399743	0.597949
	C203	C	0.906870	0.400170	0.400537
	C204	C	0.901391	0.590943	0.095698
	C205	C	0.098918	0.404531	0.098163
	C206	C	0.096171	0.591000	0.900574
	C207	C	0.902011	0.404782	0.900170
	C208	C	0.101995	0.897845	0.591816
	C209	C	0.098381	0.095989	0.406773
	C210	C	0.902796	0.094427	0.591157
	C211	C	0.902819	0.900402	0.406914
	C212	C	0.592768	0.095881	0.900886
	C213	C	0.407209	0.095426	0.095667
	C214	C	0.593690	0.897801	0.097532
	C215	C	0.407368	0.901321	0.900643
	Zn216	Zn	0.500815	-0.002889	0.748394
	Zn217	Zn	0.500728	-0.003038	0.247832
	Zn218	Zn	0.749526	0.497849	-0.002472
	Zn219	Zn	0.249516	0.498368	-0.001423
	Zn220	Zn	0.001062	0.747475	0.499170
	Zn221	Zn	0.000441	0.247847	0.499655
	Zn222	Zn	-0.000925	0.497520	0.748755
	Zn223	Zn	-0.000609	0.498321	0.248513
	Zn224	Zn	0.499217	0.747933	-0.001599
	Zn225	Zn	0.499557	0.247669	-0.001632
	Zn226	Zn	0.750155	-0.003254	0.499078
	Zn227	Zn	0.251975	-0.003096	0.497783
	N228	N	0.414495	0.960266	0.677801
	N229	N	0.588317	0.033392	0.678703
	N230	N	0.586984	0.959885	0.319129
	N231	N	0.414374	0.034559	0.318040
	N232	N	0.679321	0.410461	0.961655
	N233	N	0.678364	0.583433	0.034256
	N234	N	0.318568	0.585549	0.962422
	N235	N	0.321155	0.412428	0.035483
	N236	N	0.963610	0.677340	0.412309
	N237	N	0.038275	0.674363	0.583543
	N238	N	0.963540	0.317852	0.585903
	N239	N	0.037265	0.319823	0.414713
	N240	N	0.963309	0.410053	0.678946
	N241	N	0.036230	0.583898	0.678488
	N242	N	0.963154	0.584666	0.319088
	N243	N	0.036136	0.410337	0.319092
	N244	N	0.411405	0.678534	0.962237
	N245	N	0.583786	0.674804	0.035227
	N246	N	0.584957	0.318848	0.961009
	N247	N	0.413429	0.318610	0.035011
	N248	N	0.679519	0.959701	0.412698
	N249	N	0.679290	0.034223	0.584231
	N250	N	0.324642	0.958831	0.582000
	N251	N	0.320961	0.034582	0.410446
	N252	N	0.913801	0.461038	0.177463
	N253	N	0.085712	0.534989	0.178078
	N254	N	0.085654	0.461167	0.819995
	N255	N	0.911979	0.534412	0.818016
	N256	N	0.181106	0.910370	0.461493
	N257	N	0.180766	0.082811	0.535777
	N258	N	0.820776	0.083351	0.461960
	N259	N	0.821239	0.910132	0.535865
	N260	N	0.462583	0.177058	0.912060
	N261	N	0.537073	0.176480	0.084260
	N262	N	0.462793	0.819263	0.084182
	N263	N	0.536851	0.818635	0.913247
	N264	N	0.464008	0.910230	0.178166
	N265	N	0.537561	0.082572	0.176408
	N266	N	0.463603	0.085004	0.817771
	N267	N	0.537125	0.911261	0.820356
	N268	N	0.914028	0.176779	0.462237
	N269	N	0.087565	0.176655	0.536588
	N270	N	0.088356	0.817206	0.462312
	N271	N	0.917100	0.819967	0.536905
	N272	N	0.177342	0.460769	0.913720
	N273	N	0.178469	0.535276	0.084722
	N274	N	0.821134	0.460862	0.083975
	N275	N	0.820142	0.534755	0.911731
	O276	O	-0.016227	-0.045496	-0.065040
	H277	H	-0.029733	-0.040435	-0.075720
	H278	H	-0.025611	-0.048041	-0.067023
	O279	O	0.551685	0.534971	0.528832
	H280	H	0.543893	0.528744	0.515168
	H281	H	0.561037	0.525302	0.529063
	O282	O	1.409392	0.556521	0.560399
	H283	H	1.415642	0.563408	0.573502
	H284	H	1.423147	0.539850	0.562740
	O285	O	-0.098752	1.037782	0.084964
	H286	H	-0.096618	1.041933	0.084358
	H287	H	-0.088712	1.034812	0.100695
	O288	O	0.332788	0.637352	0.415502
	H289	H	0.332334	0.622674	0.411127
	H290	H	0.325589	0.640360	0.418578
	O291	O	0.486327	0.532792	0.329252
	H292	H	0.484141	0.543261	0.321514
	H293	H	0.468299	0.523995	0.328565
	O294	O	0.860386	1.039734	0.898685
	H295	H	0.844200	1.034366	0.886376
	H296	H	0.858312	1.047532	0.913302
	O297	O	0.029192	-0.102451	0.023487
	H298	H	0.039305	-0.100292	0.025582
	H299	H	0.015902	-0.104894	0.012687
	O300	O	0.418001	0.352492	0.518206
	H301	H	0.422102	0.364420	0.517519
	H302	H	0.416487	0.356323	0.532661
	O303	O	0.017746	1.039602	0.936902
	H304	H	0.031685	1.044337	0.939862
	H305	H	0.015969	1.044679	0.952099
	O306	O	0.626969	0.636180	0.584654
	H307	H	0.631046	0.638099	0.585252
	H308	H	0.640856	0.643787	0.581273
	O309	O	1.002985	-0.083533	-0.077067
	H310	H	0.990004	-0.089567	-0.080203
	H311	H	1.003895	-0.099363	-0.080919
	O312	O	-0.001635	0.077999	0.902112
	H313	H	0.000601	0.076763	0.882954
	H314	H	0.013289	0.070781	0.904574
	O315	O	0.534433	0.516541	0.429451
	H316	H	0.530763	0.508060	0.419057
	H317	H	0.531678	0.521033	0.428356
	O318	O	0.521199	0.422088	0.542278
	H319	H	0.533547	0.422005	0.550404
	H320	H	0.519051	0.426560	0.547069
	O321	O	0.606909	0.634109	0.654845
	H322	H	0.610595	0.631754	0.657822
	H323	H	0.621880	0.629244	0.648858
	O324	O	0.315250	0.424649	0.433961
	H325	H	0.311181	0.425607	0.427712
	H326	H	0.312261	0.419788	0.461830
	O327	O	0.002463	0.847993	0.982561
	H328	H	-0.002963	0.842886	0.992885
	H329	H	-0.007935	0.850796	0.984092
	O330	O	0.515980	0.510985	0.481809
	H331	H	0.523644	0.508412	0.489632
	H332	H	0.517184	0.509857	0.478976
	O333	O	0.130977	0.964046	0.927353
	H334	H	0.127995	0.957276	0.937245
	H335	H	0.125954	0.962209	0.926894
	O336	O	1.146984	1.085495	1.089340
	H337	H	1.142118	1.090941	1.087825
	H338	H	1.148587	1.087829	1.081171
	O339	O	0.390454	0.536218	0.496734
	H340	H	0.375410	0.540249	0.491371
	H341	H	0.407232	0.529422	0.501020
	O342	O	0.860355	0.036062	-0.001512
	H343	H	0.846493	0.044820	-0.006092
	H344	H	0.866086	0.032488	-0.012583
	O345	O	0.358477	0.365957	0.630617
	H346	H	0.362237	0.369790	0.652781
	H347	H	0.342722	0.358217	0.631786
	O348	O	0.932575	0.993705	1.107223
	H349	H	0.943441	0.989139	1.117003
	H350	H	0.941637	1.002937	1.099193
	O351	O	1.145301	1.048480	0.011407
	H352	H	1.141873	1.049691	0.009959
	H353	H	1.147756	1.051657	0.016611
	O354	O	0.459223	0.477802	0.466034
	H355	H	0.449872	0.475714	0.465971
	H356	H	0.453592	0.483315	0.461553
	O357	O	-0.060557	-0.020373	0.132031
	H358	H	-0.058549	-0.027349	0.135632
	H359	H	-0.062141	-0.017280	0.136314
	O360	O	-0.101572	-0.019711	0.104794
	H361	H	-0.099012	-0.017383	0.097574
	H362	H	-0.098486	-0.006696	0.110803
	O363	O	0.655467	0.545085	0.390416
	H364	H	0.648827	0.556252	0.379800
	H365	H	0.649087	0.533004	0.380537
	O366	O	0.351155	0.254440	0.265950
	H367	H	0.342450	0.273819	0.245059
	H368	H	0.371205	0.257592	0.285317
	O369	O	0.510596	0.445274	0.645975
	H370	H	0.499390	0.455342	0.646177
	H371	H	0.525073	0.447281	0.642473
	O372	O	0.452675	0.622771	0.461464
	H373	H	0.456578	0.618502	0.460807
	H374	H	0.456465	0.624273	0.457566
	O375	O	0.583356	0.351314	0.425934
	H376	H	0.580336	0.348916	0.416846
	H377	H	0.594234	0.352140	0.428747
	O378	O	0.584374	0.494311	0.402843
	H379	H	0.574011	0.489278	0.393372
	H380	H	0.592537	0.503631	0.394288
	O381	O	0.557120	0.466452	0.651620
	H382	H	0.570142	0.466004	0.655841
	H383	H	0.560524	0.468859	0.643986
	O384	O	0.104964	0.994437	-0.100064
	H385	H	0.108109	0.990591	-0.097790
	H386	H	0.111298	0.989902	-0.110922
	O387	O	0.845863	0.101393	0.829356
	H388	H	0.844048	0.102706	0.812867
	H389	H	0.860933	0.103011	0.849078
	O390	O	-0.094585	0.905268	0.066362
	H391	H	-0.089781	0.924698	0.064405
	H392	H	-0.084164	0.898336	0.066307
	O393	O	1.128165	1.096111	0.020060
	H394	H	1.126449	1.108655	0.004795
	H395	H	1.135720	1.095796	0.017568
	O396	O	0.547141	0.536741	0.540704
	H397	H	0.560105	0.535995	0.537143
	H398	H	0.541209	0.533702	0.557191
	O399	O	0.055928	1.099376	1.147710
	H400	H	0.061283	1.096074	1.156755
	H401	H	0.073930	1.114937	1.157228
	O402	O	1.002494	1.094485	0.956464
	H403	H	0.992297	1.095282	0.949272
	H404	H	1.000952	1.097029	0.966179
	O405	O	0.566122	0.399796	0.483698
	H406	H	0.564399	0.411000	0.480836
	H407	H	0.557434	0.396510	0.483327
