data_Molecule from HDF5

_cell_length_a		16.422867
_cell_length_b		16.274512
_cell_length_c		16.104684
_cell_angle_alpha	90.372770
_cell_angle_beta	89.562012
_cell_angle_gamma	90.326350
_symmetry_space_group_name_H-M	'P 1'
_symmetry_Int_Tables_number		1

loop_
	_symmetry_equiv_pos_as_xyz
	x,y,z

loop_
	_atom_site_label
	_atom_site_type_symbol
	_atom_site_fract_x
	_atom_site_fract_y
	_atom_site_fract_z
	H0	H	0.405246	0.839941	0.713423
	H1	H	0.599242	0.168297	0.717151
	H2	H	0.600358	0.840779	0.286705
	H3	H	0.409810	0.170320	0.292335
	H4	H	0.719352	0.401471	0.838288
	H5	H	0.715841	0.605820	0.167171
	H6	H	0.289265	0.601709	0.837224
	H7	H	0.284391	0.403618	0.166190
	H8	H	0.840970	0.721247	0.404138
	H9	H	0.165618	0.722939	0.601983
	H10	H	0.840790	0.287332	0.603130
	H11	H	0.164959	0.289175	0.397725
	H12	H	0.839914	0.406881	0.717859
	H13	H	0.166192	0.604944	0.717424
	H14	H	0.838984	0.601604	0.291091
	H15	H	0.164832	0.408023	0.284684
	H16	H	0.405549	0.715740	0.837058
	H17	H	0.598731	0.719085	0.167444
	H18	H	0.600969	0.288545	0.837575
	H19	H	0.402217	0.292004	0.168519
	H20	H	0.722537	0.842084	0.398177
	H21	H	0.722101	0.166711	0.608252
	H22	H	0.283375	0.842981	0.604225
	H23	H	0.288957	0.168433	0.402839
	H24	H	0.904125	0.339738	0.214519
	H25	H	0.096604	0.669789	0.213542
	H26	H	0.098630	0.340625	0.786302
	H27	H	0.907406	0.670274	0.791905
	H28	H	0.219193	0.905720	0.338191
	H29	H	0.216741	0.107701	0.667005
	H30	H	0.788031	0.105569	0.339612
	H31	H	0.785076	0.903159	0.666638
	H32	H	0.340269	0.218325	0.904595
	H33	H	0.663926	0.223983	0.103063
	H34	H	0.340217	0.788236	0.102627
	H35	H	0.664273	0.786370	0.899065
	H36	H	0.340095	0.907914	0.217954
	H37	H	0.666552	0.103495	0.215062
	H38	H	0.339941	0.099695	0.790283
	H39	H	0.664972	0.905236	0.784406
	H40	H	0.907157	0.215670	0.336616
	H41	H	0.101049	0.222116	0.666231
	H42	H	0.102849	0.790874	0.336968
	H43	H	0.903275	0.792178	0.668309
	H44	H	0.218451	0.341241	0.897293
	H45	H	0.220727	0.666151	0.104915
	H46	H	0.782480	0.341906	0.104369
	H47	H	0.785058	0.667346	0.901873
	H48	H	0.398884	0.122410	0.587946
	H49	H	0.591164	0.893018	0.581335
	H50	H	0.603738	0.122663	0.408034
	H51	H	0.414583	0.893026	0.418376
	H52	H	0.579197	0.413575	0.115483
	H53	H	0.597745	0.591692	0.885325
	H54	H	0.413249	0.592327	0.117539
	H55	H	0.407909	0.403981	0.882684
	H56	H	0.117818	0.600921	0.410073
	H57	H	0.886769	0.602291	0.598916
	H58	H	0.116492	0.413860	0.589549
	H59	H	0.884239	0.409100	0.401569
	H60	H	0.117742	0.415546	0.595485
	H61	H	0.889965	0.599862	0.593015
	H62	H	0.117504	0.596923	0.408310
	H63	H	0.887392	0.402113	0.415319
	H64	H	0.409605	0.600842	0.121125
	H65	H	0.591929	0.592767	0.886489
	H66	H	0.598622	0.403520	0.125096
	H67	H	0.406140	0.414358	0.884407
	H68	H	0.592501	0.120085	0.408541
	H69	H	0.605674	0.886545	0.592153
	H70	H	0.407051	0.126707	0.609778
	H71	H	0.399594	0.886855	0.413368
	H72	H	0.903276	0.622583	0.096734
	H73	H	0.083684	0.389382	0.098660
	H74	H	0.096326	0.622045	0.906314
	H75	H	0.910137	0.390697	0.915079
	H76	H	0.098864	0.921399	0.619511
	H77	H	0.087688	0.097911	0.387192
	H78	H	0.915805	0.089750	0.616636
	H79	H	0.908079	0.915982	0.384942
	H80	H	0.614649	0.093303	0.914958
	H81	H	0.385409	0.097687	0.105979
	H82	H	0.618883	0.914885	0.099961
	H83	H	0.386079	0.901539	0.912120
	H84	H	0.619936	0.903740	0.092584
	H85	H	0.385982	0.105739	0.095221
	H86	H	0.619023	0.095058	0.905393
	H87	H	0.390603	0.913509	0.915333
	H88	H	0.916584	0.103586	0.620931
	H89	H	0.104078	0.104976	0.379673
	H90	H	0.086602	0.915295	0.617167
	H91	H	0.916666	0.914733	0.387568
	H92	H	0.093884	0.618300	0.915965
	H93	H	0.095292	0.390791	0.080436
	H94	H	0.910486	0.620864	0.097704
	H95	H	0.904318	0.387554	0.910191
	H96	H	0.421029	0.116546	0.593322
	H97	H	0.588214	0.888194	0.600135
	H98	H	0.599883	0.118558	0.418138
	H99	H	0.412598	0.888083	0.402098
	H100	H	0.599062	0.426352	0.117908
	H101	H	0.595334	0.596081	0.884031
	H102	H	0.403568	0.592779	0.120523
	H103	H	0.414952	0.410553	0.886175
	H104	H	0.119225	0.600006	0.405944
	H105	H	0.888851	0.595881	0.598670
	H106	H	0.118137	0.410060	0.593189
	H107	H	0.890407	0.417906	0.413542
	H108	H	0.907235	0.619538	0.091195
	H109	H	0.103997	0.383118	0.098769
	H110	H	0.104373	0.621294	0.914071
	H111	H	0.912260	0.388837	0.907311
	H112	H	0.097354	0.907754	0.622331
	H113	H	0.102641	0.086740	0.385357
	H114	H	0.904069	0.096482	0.622377
	H115	H	0.912253	0.907741	0.384823
	H116	H	0.618564	0.102792	0.912477
	H117	H	0.390302	0.093334	0.094185
	H118	H	0.614778	0.914132	0.086382
	H119	H	0.386407	0.911432	0.902621
	C120	C	0.379810	0.013621	0.625096
	C121	C	0.624455	0.996491	0.623074
	C122	C	0.626820	0.012866	0.381079
	C123	C	0.381937	0.997400	0.382364
	C124	C	0.622749	0.383389	0.011100
	C125	C	0.623374	0.624568	0.994038
	C126	C	0.381068	0.623813	0.010833
	C127	C	0.380175	0.381773	0.993684
	C128	C	0.010545	0.627096	0.380770
	C129	C	0.995551	0.628470	0.625596
	C130	C	0.010587	0.383577	0.623378
	C131	C	0.994573	0.381961	0.379151
	C132	C	0.878544	0.512731	0.124173
	C133	C	0.123194	0.495811	0.122817
	C134	C	0.125028	0.512727	0.881099
	C135	C	0.880654	0.496991	0.882101
	C136	C	0.124220	0.885133	0.510956
	C137	C	0.125473	0.126679	0.493214
	C138	C	0.883345	0.125498	0.511330
	C139	C	0.882025	0.883396	0.494342
	C140	C	0.510400	0.124995	0.882217
	C141	C	0.494632	0.127869	0.125960
	C142	C	0.510859	0.882324	0.123649
	C143	C	0.494540	0.880116	0.879472
	C144	C	0.383280	0.889612	0.677744
	C145	C	0.621247	0.119398	0.680033
	C146	C	0.622647	0.889810	0.324337
	C147	C	0.387384	0.120956	0.328620
	C148	C	0.680231	0.382861	0.887309
	C149	C	0.677981	0.625094	0.117931
	C150	C	0.326901	0.621538	0.886442
	C151	C	0.323099	0.383715	0.117303
	C152	C	0.889041	0.682674	0.383826
	C153	C	0.117134	0.684560	0.622635
	C154	C	0.889086	0.326380	0.622726
	C155	C	0.116404	0.327189	0.378940
	C156	C	0.888567	0.385815	0.679898
	C157	C	0.117634	0.625843	0.679951
	C158	C	0.888021	0.623239	0.327500
	C159	C	0.116450	0.386382	0.322568
	C160	C	0.384493	0.678528	0.886388
	C161	C	0.620017	0.681518	0.118058
	C162	C	0.621237	0.326875	0.886838
	C163	C	0.381825	0.328397	0.118411
	C164	C	0.683025	0.890560	0.380085
	C165	C	0.681950	0.118512	0.625633
	C166	C	0.322737	0.891350	0.623514
	C167	C	0.327117	0.119892	0.383579
	C168	C	0.882229	0.389082	0.178041
	C169	C	0.118871	0.620027	0.176972
	C170	C	0.120219	0.389502	0.824364
	C171	C	0.885204	0.620599	0.828166
	C172	C	0.180700	0.886110	0.387057
	C173	C	0.179367	0.126910	0.617579
	C174	C	0.827059	0.124240	0.387984
	C175	C	0.824575	0.884496	0.617873
	C176	C	0.388659	0.180063	0.884409
	C177	C	0.615916	0.185144	0.123145
	C178	C	0.388776	0.826424	0.123148
	C179	C	0.615983	0.824456	0.879368
	C180	C	0.388658	0.885875	0.180148
	C181	C	0.617315	0.125459	0.179232
	C182	C	0.388412	0.120823	0.827809
	C183	C	0.616260	0.883600	0.822281
	C184	C	0.885804	0.179400	0.386635
	C185	C	0.121837	0.183601	0.617263
	C186	C	0.122852	0.829038	0.386501
	C187	C	0.883200	0.829002	0.618605
	C188	C	0.179636	0.389610	0.879727
	C189	C	0.180776	0.618150	0.123172
	C190	C	0.822193	0.389937	0.123081
	C191	C	0.824405	0.619188	0.882876
	C192	C	0.402216	0.099518	0.603440
	C193	C	0.601683	0.911379	0.598328
	C194	C	0.605142	0.098264	0.404749
	C195	C	0.402983	0.911535	0.404594
	C196	C	0.599400	0.407518	0.097266
	C197	C	0.601465	0.600468	0.907663
	C198	C	0.402527	0.601821	0.097389
	C199	C	0.403056	0.403559	0.906885
	C200	C	0.096082	0.605637	0.401873
	C201	C	0.910594	0.605815	0.603473
	C202	C	0.095380	0.406520	0.599850
	C203	C	0.909539	0.403432	0.403233
	C204	C	0.900516	0.598588	0.101930
	C205	C	0.100794	0.409988	0.099438
	C206	C	0.104316	0.598433	0.905155
	C207	C	0.902519	0.411329	0.904476
	C208	C	0.101004	0.908126	0.597536
	C209	C	0.104344	0.103374	0.406675
	C210	C	0.905534	0.103183	0.597572
	C211	C	0.905398	0.906187	0.407880
	C212	C	0.595283	0.103433	0.904435
	C213	C	0.409445	0.105376	0.104687
	C214	C	0.595703	0.904540	0.100020
	C215	C	0.409629	0.902341	0.903112
	Zn216	Zn	0.502426	0.004043	0.751845
	Zn217	Zn	0.503578	0.005180	0.253264
	Zn218	Zn	0.750725	0.504427	0.002625
	Zn219	Zn	0.253147	0.503013	0.001647
	Zn220	Zn	0.003052	0.757036	0.502760
	Zn221	Zn	0.003405	0.253176	0.501074
	Zn222	Zn	0.003316	0.505718	0.753930
	Zn223	Zn	0.001247	0.504858	0.251227
	Zn224	Zn	0.502535	0.751714	0.001921
	Zn225	Zn	0.501605	0.255420	0.002929
	Zn226	Zn	0.755362	0.004907	0.503434
	Zn227	Zn	0.252687	0.005806	0.502956
	N228	N	0.418099	0.966764	0.679036
	N229	N	0.585939	0.042546	0.678475
	N230	N	0.588394	0.966676	0.324944
	N231	N	0.420927	0.043589	0.327795
	N232	N	0.681043	0.417232	0.965585
	N233	N	0.679981	0.590363	0.039971
	N234	N	0.324821	0.588207	0.964609
	N235	N	0.321771	0.415849	0.038582
	N236	N	0.966414	0.685217	0.416091
	N237	N	0.040235	0.686105	0.589442
	N238	N	0.966013	0.324734	0.588347
	N239	N	0.039612	0.324352	0.413430
	N240	N	0.965003	0.420763	0.680267
	N241	N	0.040874	0.591783	0.682090
	N242	N	0.964536	0.589296	0.325361
	N243	N	0.039596	0.419598	0.322322
	N244	N	0.417617	0.679987	0.964619
	N245	N	0.586899	0.681278	0.039935
	N246	N	0.586184	0.327092	0.964716
	N247	N	0.416570	0.326937	0.040423
	N248	N	0.685684	0.968155	0.414732
	N249	N	0.684136	0.041201	0.590952
	N250	N	0.320569	0.969484	0.591664
	N251	N	0.323967	0.042245	0.416500
	N252	N	0.916501	0.466399	0.178991
	N253	N	0.083987	0.542978	0.176925
	N254	N	0.087077	0.466819	0.825175
	N255	N	0.919476	0.543591	0.827419
	N256	N	0.181621	0.920163	0.465510
	N257	N	0.181693	0.092259	0.539630
	N258	N	0.825278	0.091594	0.466605
	N259	N	0.823666	0.917532	0.539445
	N260	N	0.465444	0.182547	0.917703
	N261	N	0.538538	0.187112	0.091232
	N262	N	0.465673	0.824174	0.088651
	N263	N	0.539203	0.822184	0.913960
	N264	N	0.465571	0.919723	0.180733
	N265	N	0.541058	0.090438	0.180941
	N266	N	0.465123	0.087265	0.826235
	N267	N	0.539633	0.917281	0.822000
	N268	N	0.920285	0.180126	0.464155
	N269	N	0.088995	0.183842	0.538878
	N270	N	0.088372	0.828413	0.464503
	N271	N	0.918178	0.828198	0.540720
	N272	N	0.182932	0.467202	0.914118
	N273	N	0.183540	0.539916	0.090214
	N274	N	0.819625	0.467712	0.090404
	N275	N	0.821528	0.541284	0.915561
	O276	O	0.500217	0.387470	0.504418
	H277	H	0.492307	0.380577	0.497438
	H278	H	0.507739	0.386830	0.489830
	O279	O	0.667175	0.384210	0.444454
	H280	H	0.661321	0.406442	0.435285
	H281	H	0.683395	0.379434	0.430284
	O282	O	1.038602	1.073089	0.055490
	H283	H	1.051780	1.072748	0.063046
	H284	H	1.036067	1.061132	0.055163
	O285	O	1.006506	-0.091153	0.900638
	H286	H	1.017351	-0.085476	0.900251
	H287	H	1.008075	-0.079858	0.905306
	O288	O	0.496807	0.548307	0.601637
	H289	H	0.497952	0.553481	0.601503
	H290	H	0.499019	0.535629	0.599332
	O291	O	0.616688	0.445786	0.562877
	H292	H	0.621438	0.445274	0.565390
	H293	H	0.611857	0.438663	0.554344
	O294	O	0.530786	0.488622	0.493793
	H295	H	0.532431	0.496450	0.492964
	H296	H	0.536520	0.487470	0.496305
	O297	O	0.529804	0.474283	0.518109
	H298	H	0.523012	0.476068	0.513741
	H299	H	0.531902	0.482559	0.518502
	O300	O	0.995759	-0.077275	1.075633
	H301	H	0.986555	-0.077610	1.087538
	H302	H	0.994912	-0.065224	1.070617
	O303	O	1.093607	1.106091	0.101440
	H304	H	1.093851	1.113323	0.108082
	H305	H	1.108009	1.110623	0.106963
	O306	O	0.025217	1.042812	0.892034
	H307	H	0.008235	1.042257	0.889843
	H308	H	0.030331	1.050720	0.897271
	O309	O	0.532298	0.669100	0.435806
	H310	H	0.541367	0.669112	0.441951
	H311	H	0.530365	0.670469	0.440557
	O312	O	0.019527	-0.033556	-0.002487
	H313	H	0.027474	-0.049282	-0.013009
	H314	H	0.011713	-0.036228	-0.022222
	O315	O	1.113566	0.028930	0.021520
	H316	H	1.107674	0.023908	0.024532
	H317	H	1.121823	0.029047	0.020526
	O318	O	1.065182	1.005664	1.035976
	H319	H	1.068685	0.992717	1.034058
	H320	H	1.071271	1.019252	1.025278
	O321	O	-0.532749	-0.453013	0.491135
	H322	H	-0.526785	-0.456336	0.500708
	H323	H	-0.535793	-0.455604	0.487489
	O324	O	0.491120	0.421688	0.583357
	H325	H	0.510331	0.419911	0.581298
	H326	H	0.489335	0.426260	0.578414
	O327	O	-0.575123	-0.437295	0.462667
	H328	H	-0.594230	-0.440051	0.452798
	H329	H	-0.566251	-0.429785	0.464741
	O330	O	0.436052	0.538943	0.479937
	H331	H	0.435760	0.549583	0.483563
	H332	H	0.437811	0.547965	0.479836
	O333	O	-0.620018	0.461390	0.468622
	H334	H	-0.615426	0.468293	0.471744
	H335	H	-0.633293	0.447801	0.476550
	O336	O	0.052868	-0.010571	-0.014338
	H337	H	0.049358	-0.015562	-0.003302
	H338	H	0.062494	-0.017913	-0.030314
	O339	O	-0.145158	1.025524	0.973948
	H340	H	-0.145740	1.040177	0.973106
	H341	H	-0.136585	1.038874	0.963007
	O342	O	0.916772	0.999431	1.014482
	H343	H	0.909804	0.988383	1.032430
	H344	H	0.922072	1.008224	1.010231
	O345	O	0.978519	1.027717	-0.017162
	H346	H	0.967365	1.022182	-0.019059
	H347	H	0.974000	1.026033	-0.006876
	O348	O	0.429141	0.545230	0.498529
	H349	H	0.433111	0.536221	0.494744
	H350	H	0.425250	0.543130	0.510040
	O351	O	0.587866	0.602520	0.530505
	H352	H	0.591357	0.589883	0.549145
	H353	H	0.590497	0.590740	0.535963
	O354	O	0.436099	0.433793	0.581224
	H355	H	0.442542	0.427917	0.569799
	H356	H	0.430028	0.433750	0.587422
	O357	O	0.913902	-0.018189	1.086179
	H358	H	0.920255	-0.031225	1.091621
	H359	H	0.910014	-0.020744	1.085153
	O360	O	0.627419	0.568499	0.508894
	H361	H	0.629073	0.576806	0.514036
	H362	H	0.631943	0.579880	0.501596
	O363	O	0.982079	0.909368	-0.019293
	H364	H	0.979970	0.910789	-0.022038
	H365	H	0.977557	0.916303	-0.033829
	O366	O	1.089475	0.943648	0.879737
	H367	H	1.095359	0.941160	0.886760
	H368	H	1.097035	0.942995	0.865908
	O369	O	0.959653	0.030157	0.969104
	H370	H	0.959848	0.034265	0.973413
	H371	H	0.963588	0.018321	0.971878
	O372	O	0.059687	-0.035353	-0.012258
	H373	H	0.050042	-0.024626	-0.004854
	H374	H	0.050740	-0.036941	-0.004994
	O375	O	0.896430	-0.023144	0.059579
	H376	H	0.900036	-0.029947	0.061194
	H377	H	0.898205	-0.023064	0.059976
	O378	O	0.473683	0.441748	0.399600
	H379	H	0.485149	0.448625	0.404537
	H380	H	0.468150	0.439541	0.395343
	O381	O	0.502029	0.503258	0.475350
	H382	H	0.505085	0.500554	0.484005
	H383	H	0.497921	0.502676	0.465470
