data_Molecule from HDF5

_cell_length_a		16.473735
_cell_length_b		16.359633
_cell_length_c		16.458910
_cell_angle_alpha	90.078393
_cell_angle_beta	89.971626
_cell_angle_gamma	89.915641
_symmetry_space_group_name_H-M	'P 1'
_symmetry_Int_Tables_number		1

loop_
	_symmetry_equiv_pos_as_xyz
	x,y,z

loop_
	_atom_site_label
	_atom_site_type_symbol
	_atom_site_fract_x
	_atom_site_fract_y
	_atom_site_fract_z
	H0	H	0.392702	0.838775	0.723754
	H1	H	0.602606	0.156854	0.724549
	H2	H	0.607684	0.840389	0.280502
	H3	H	0.394345	0.157334	0.282601
	H4	H	0.721289	0.389152	0.843641
	H5	H	0.724461	0.606049	0.158425
	H6	H	0.279234	0.602637	0.842603
	H7	H	0.276188	0.392984	0.159456
	H8	H	0.841766	0.721783	0.395793
	H9	H	0.156326	0.720837	0.608664
	H10	H	0.839553	0.279147	0.604797
	H11	H	0.157147	0.277237	0.396986
	H12	H	0.841492	0.390247	0.725215
	H13	H	0.155928	0.605685	0.724756
	H14	H	0.841852	0.606837	0.277895
	H15	H	0.157228	0.392437	0.279820
	H16	H	0.395452	0.718781	0.843291
	H17	H	0.605713	0.719869	0.160689
	H18	H	0.602942	0.275484	0.843721
	H19	H	0.394821	0.279228	0.161885
	H20	H	0.723112	0.841186	0.396514
	H21	H	0.719604	0.157979	0.609390
	H22	H	0.275409	0.841270	0.609916
	H23	H	0.277807	0.157705	0.398233
	H24	H	0.893718	0.340007	0.223735
	H25	H	0.105104	0.656980	0.223067
	H26	H	0.104241	0.339466	0.779769
	H27	H	0.891051	0.656774	0.779022
	H28	H	0.224166	0.888747	0.346595
	H29	H	0.221083	0.106209	0.659954
	H30	H	0.773093	0.108569	0.346970
	H31	H	0.775252	0.891015	0.659517
	H32	H	0.340093	0.217388	0.898726
	H33	H	0.656624	0.220385	0.108991
	H34	H	0.341991	0.775789	0.110277
	H35	H	0.656119	0.773971	0.897767
	H36	H	0.343296	0.890105	0.227408
	H37	H	0.656970	0.105148	0.225618
	H38	H	0.342285	0.104381	0.779861
	H39	H	0.655956	0.887988	0.779458
	H40	H	0.891951	0.220802	0.343835
	H41	H	0.103901	0.221513	0.660019
	H42	H	0.106947	0.774371	0.345578
	H43	H	0.889934	0.774739	0.658974
	H44	H	0.220268	0.339438	0.894807
	H45	H	0.220136	0.657220	0.107340
	H46	H	0.778898	0.338375	0.107364
	H47	H	0.772219	0.654795	0.892204
	H48	H	0.415515	0.111922	0.597798
	H49	H	0.587309	0.885617	0.591289
	H50	H	0.586019	0.112026	0.413852
	H51	H	0.414019	0.880560	0.398785
	H52	H	0.588378	0.415052	0.113074
	H53	H	0.588216	0.585158	0.890820
	H54	H	0.415797	0.582728	0.110739
	H55	H	0.407960	0.407048	0.887720
	H56	H	0.110606	0.584312	0.411188
	H57	H	0.886123	0.596822	0.581605
	H58	H	0.110232	0.412236	0.589024
	H59	H	0.885292	0.406640	0.412949
	H60	H	0.111796	0.410016	0.592492
	H61	H	0.892072	0.574953	0.584927
	H62	H	0.111868	0.587738	0.412554
	H63	H	0.887628	0.413054	0.413295
	H64	H	0.407320	0.594949	0.117978
	H65	H	0.585554	0.580658	0.892023
	H66	H	0.584411	0.406213	0.113772
	H67	H	0.409189	0.408698	0.889286
	H68	H	0.584592	0.110523	0.416755
	H69	H	0.588706	0.885354	0.589166
	H70	H	0.413615	0.108178	0.585705
	H71	H	0.424747	0.893215	0.423327
	H72	H	0.910052	0.611021	0.086974
	H73	H	0.082662	0.385738	0.092048
	H74	H	0.081730	0.609197	0.916213
	H75	H	0.910014	0.384004	0.911055
	H76	H	0.086204	0.908948	0.615319
	H77	H	0.089473	0.084442	0.390004
	H78	H	0.913115	0.086906	0.613105
	H79	H	0.912758	0.909263	0.389858
	H80	H	0.612376	0.089694	0.914411
	H81	H	0.388251	0.087582	0.086850
	H82	H	0.611984	0.915179	0.095878
	H83	H	0.386266	0.910065	0.912531
	H84	H	0.614460	0.903379	0.094765
	H85	H	0.387316	0.080437	0.096413
	H86	H	0.609047	0.083385	0.918080
	H87	H	0.386519	0.908663	0.914705
	H88	H	0.909621	0.091830	0.616043
	H89	H	0.086263	0.087471	0.389867
	H90	H	0.089269	0.911677	0.615704
	H91	H	0.908531	0.913107	0.390102
	H92	H	0.092838	0.612060	0.915826
	H93	H	0.089405	0.386349	0.085299
	H94	H	0.910635	0.610837	0.089585
	H95	H	0.912971	0.385558	0.913596
	H96	H	0.403883	0.114186	0.592396
	H97	H	0.589316	0.884727	0.591240
	H98	H	0.587942	0.111708	0.417006
	H99	H	0.396857	0.883215	0.423150
	H100	H	0.593554	0.407534	0.117418
	H101	H	0.583085	0.585506	0.891826
	H102	H	0.400560	0.580389	0.115694
	H103	H	0.409577	0.406671	0.889323
	H104	H	0.110189	0.585075	0.414786
	H105	H	0.882185	0.586909	0.601574
	H106	H	0.110881	0.408071	0.588710
	H107	H	0.884375	0.411079	0.407572
	H108	H	0.912661	0.610147	0.087358
	H109	H	0.091425	0.382174	0.093594
	H110	H	0.086214	0.613671	0.906930
	H111	H	0.909086	0.385936	0.914760
	H112	H	0.085314	0.913116	0.613975
	H113	H	0.090703	0.088555	0.389146
	H114	H	0.906987	0.086409	0.615489
	H115	H	0.914134	0.914836	0.391371
	H116	H	0.611827	0.081970	0.910106
	H117	H	0.383447	0.092258	0.096974
	H118	H	0.609742	0.909355	0.085650
	H119	H	0.387220	0.911364	0.914800
	C120	C	0.378075	0.006857	0.624364
	C121	C	0.620569	0.989793	0.624221
	C122	C	0.620217	0.007219	0.382276
	C123	C	0.378622	0.990214	0.382364
	C124	C	0.620622	0.375909	0.010154
	C125	C	0.619789	0.618032	0.994847
	C126	C	0.376619	0.618997	0.010182
	C127	C	0.376925	0.376221	0.993495
	C128	C	0.007363	0.620219	0.379681
	C129	C	0.990563	0.619726	0.623023
	C130	C	0.006558	0.377603	0.622408
	C131	C	0.990279	0.377086	0.379302
	C132	C	0.878478	0.506332	0.121635
	C133	C	0.120197	0.489652	0.122630
	C134	C	0.119494	0.506977	0.880099
	C135	C	0.876629	0.489707	0.879579
	C136	C	0.120654	0.877073	0.511281
	C137	C	0.120616	0.120425	0.493771
	C138	C	0.876840	0.121307	0.510854
	C139	C	0.877753	0.878288	0.494063
	C140	C	0.507541	0.118212	0.881717
	C141	C	0.490640	0.119916	0.125631
	C142	C	0.508292	0.876006	0.125476
	C143	C	0.490610	0.876007	0.881433
	C144	C	0.374831	0.887099	0.684140
	C145	C	0.621817	0.109369	0.684660
	C146	C	0.625022	0.888149	0.320957
	C147	C	0.376042	0.109729	0.322423
	C148	C	0.680963	0.371989	0.891268
	C149	C	0.682948	0.623115	0.111852
	C150	C	0.317876	0.621552	0.890654
	C151	C	0.316820	0.374877	0.112458
	C152	C	0.889032	0.681650	0.377164
	C153	C	0.108881	0.680760	0.626450
	C154	C	0.887513	0.318187	0.624130
	C155	C	0.109485	0.316859	0.377928
	C156	C	0.888396	0.373838	0.683853
	C157	C	0.108526	0.623523	0.684528
	C158	C	0.889195	0.624416	0.318520
	C159	C	0.109517	0.374203	0.319438
	C160	C	0.376226	0.679001	0.890938
	C161	C	0.623460	0.679515	0.113118
	C162	C	0.621908	0.315305	0.891383
	C163	C	0.375803	0.318052	0.113492
	C164	C	0.682230	0.888391	0.378892
	C165	C	0.679962	0.109814	0.627198
	C166	C	0.316251	0.888225	0.627673
	C167	C	0.318014	0.109769	0.380110
	C168	C	0.875683	0.387325	0.183006
	C169	C	0.122870	0.609460	0.182948
	C170	C	0.122324	0.387221	0.819686
	C171	C	0.873046	0.608852	0.818717
	C172	C	0.183046	0.872134	0.393562
	C173	C	0.181042	0.124074	0.612622
	C174	C	0.814487	0.125539	0.393388
	C175	C	0.816057	0.874008	0.612247
	C176	C	0.388031	0.178043	0.879956
	C177	C	0.609068	0.180733	0.127732
	C178	C	0.389873	0.815176	0.128845
	C179	C	0.608929	0.814459	0.878899
	C180	C	0.390421	0.872422	0.187025
	C181	C	0.609359	0.123327	0.185892
	C182	C	0.388980	0.121737	0.820705
	C183	C	0.608719	0.871225	0.819856
	C184	C	0.873725	0.181613	0.392054
	C185	C	0.122535	0.181357	0.612547
	C186	C	0.124503	0.815185	0.393021
	C187	C	0.873269	0.815696	0.611669
	C188	C	0.180134	0.387280	0.877005
	C189	C	0.180148	0.609450	0.125067
	C190	C	0.818327	0.386580	0.125132
	C191	C	0.814031	0.608058	0.875478
	C192	C	0.403850	0.089909	0.599163
	C193	C	0.595494	0.906856	0.598005
	C194	C	0.593541	0.089769	0.408439
	C195	C	0.404481	0.907124	0.407941
	C196	C	0.595755	0.402088	0.093169
	C197	C	0.593196	0.591502	0.912758
	C198	C	0.400955	0.593427	0.093200
	C199	C	0.401775	0.400477	0.910519
	C200	C	0.089513	0.593368	0.405486
	C201	C	0.908216	0.593561	0.596880
	C202	C	0.089436	0.403109	0.597172
	C203	C	0.907560	0.402817	0.404200
	C204	C	0.903887	0.588939	0.095540
	C205	C	0.094983	0.406447	0.097515
	C206	C	0.094140	0.589906	0.905526
	C207	C	0.903007	0.406702	0.905513
	C208	C	0.094431	0.903519	0.593556
	C209	C	0.095816	0.094422	0.411330
	C210	C	0.902581	0.095645	0.593346
	C211	C	0.904115	0.904937	0.411886
	C212	C	0.589624	0.092425	0.906912
	C213	C	0.408024	0.094057	0.100699
	C214	C	0.590632	0.902027	0.099440
	C215	C	0.408297	0.902424	0.906888
	Zn216	Zn	0.499153	-0.002945	0.752675
	Zn217	Zn	0.499834	-0.001868	0.253595
	Zn218	Zn	0.749085	0.496996	0.001411
	Zn219	Zn	0.247780	0.498161	0.001388
	Zn220	Zn	-0.001183	0.748616	0.502144
	Zn221	Zn	-0.001555	0.248567	0.501636
	Zn222	Zn	-0.001484	0.498349	0.751561
	Zn223	Zn	-0.000697	0.499064	0.250669
	Zn224	Zn	0.498652	0.747718	0.003421
	Zn225	Zn	0.498675	0.247268	0.002738
	Zn226	Zn	0.748772	-0.000644	0.502836
	Zn227	Zn	0.249415	-0.001484	0.503163
	N228	N	0.412715	0.961879	0.681983
	N229	N	0.585815	0.033770	0.683113
	N230	N	0.586940	0.962927	0.323048
	N231	N	0.412994	0.034393	0.323718
	N232	N	0.680223	0.409006	0.966393
	N233	N	0.680472	0.585590	0.037407
	N234	N	0.318026	0.585210	0.965904
	N235	N	0.317200	0.410280	0.036832
	N236	N	0.963514	0.679213	0.414456
	N237	N	0.034252	0.678678	0.588895
	N238	N	0.962134	0.320244	0.586852
	N239	N	0.034235	0.318130	0.414046
	N240	N	0.963753	0.410120	0.682928
	N241	N	0.033724	0.586702	0.682788
	N242	N	0.963987	0.587018	0.319988
	N243	N	0.034280	0.410721	0.319953
	N244	N	0.411766	0.677888	0.966530
	N245	N	0.584335	0.676128	0.039310
	N246	N	0.585508	0.317426	0.966429
	N247	N	0.412339	0.318589	0.038409
	N248	N	0.679218	0.963408	0.416390
	N249	N	0.679456	0.034253	0.590558
	N250	N	0.318088	0.963615	0.591126
	N251	N	0.319392	0.034084	0.416432
	N252	N	0.912171	0.462688	0.181219
	N253	N	0.086332	0.533868	0.181636
	N254	N	0.085296	0.462463	0.821483
	N255	N	0.911307	0.534152	0.821308
	N256	N	0.180795	0.910022	0.468220
	N257	N	0.179906	0.086454	0.537935
	N258	N	0.816525	0.088364	0.468122
	N259	N	0.818804	0.912310	0.538006
	N260	N	0.462639	0.175994	0.917256
	N261	N	0.534093	0.179121	0.091318
	N262	N	0.464245	0.817114	0.091152
	N263	N	0.534682	0.817389	0.916583
	N264	N	0.465185	0.909336	0.185092
	N265	N	0.534671	0.086099	0.184643
	N266	N	0.464052	0.085039	0.821675
	N267	N	0.534008	0.908762	0.821255
	N268	N	0.911698	0.179079	0.466223
	N269	N	0.085720	0.179211	0.537836
	N270	N	0.086609	0.817908	0.467360
	N271	N	0.910898	0.818080	0.537179
	N272	N	0.178741	0.462722	0.913934
	N273	N	0.178618	0.534006	0.088361
	N274	N	0.819802	0.461676	0.087635
	N275	N	0.816124	0.532701	0.912412
	O276	O	0.673876	0.325124	0.339952
	H277	H	0.674458	0.310516	0.374159
	H278	H	0.636163	0.314020	0.343739
	O279	O	0.376288	0.477077	0.718117
	H280	H	0.381917	0.480301	0.720794
	H281	H	0.361527	0.480089	0.721133
	O282	O	0.412455	0.560762	0.323388
	H283	H	0.431374	0.544735	0.311414
	H284	H	0.427004	0.561802	0.322226
	O285	O	0.800161	0.988477	0.199967
	H286	H	0.806226	1.002741	0.199960
	H287	H	0.794766	1.003573	0.210021
	O288	O	0.585915	0.560969	0.593832
	H289	H	0.584562	0.555449	0.581043
	H290	H	0.584407	0.547469	0.586439
	O291	O	0.473722	0.700904	0.401921
	H292	H	0.493265	0.707164	0.424398
	H293	H	0.468686	0.698372	0.417347
	O294	O	1.194927	1.108596	1.151372
	H295	H	1.182319	1.109788	1.148723
	H296	H	1.211087	1.104273	1.143013
	O297	O	0.355914	0.405216	0.365525
	H298	H	0.351335	0.404421	0.363621
	H299	H	0.371848	0.412246	0.361155
	O300	O	0.293380	0.371737	0.554251
	H301	H	0.275381	0.375507	0.550968
	H302	H	0.297168	0.374703	0.559851
	O303	O	0.585128	0.525082	0.381627
	H304	H	0.589428	0.525846	0.382414
	H305	H	0.588627	0.542577	0.378859
	O306	O	-0.037753	0.132846	0.812519
	H307	H	-0.035652	0.130026	0.793733
	H308	H	-0.055558	0.126387	0.828048
	O309	O	1.219276	-0.202179	-0.024875
	H310	H	1.252944	-0.232370	-0.026288
	H311	H	1.211352	-0.188706	-0.045732
	O312	O	0.615586	0.524573	0.650973
	H313	H	0.610877	0.558297	0.644178
	H314	H	0.637176	0.528154	0.669767
	O315	O	0.349257	0.592207	0.367771
	H316	H	0.328452	0.597230	0.357022
	H317	H	0.371310	0.599841	0.348557
	O318	O	0.132979	0.018258	0.073121
	H319	H	0.153793	0.031423	0.083221
	H320	H	0.123503	0.023384	0.076928
	O321	O	0.655536	0.343229	0.548900
	H322	H	0.655820	0.329776	0.557872
	H323	H	0.655949	0.347413	0.569583
	O324	O	0.958578	-0.120928	0.865289
	H325	H	0.960277	-0.115080	0.887859
	H326	H	0.949947	-0.107853	0.871542
	O327	O	0.637386	0.373948	0.581031
	H328	H	0.628034	0.393835	0.597023
	H329	H	0.623247	0.386298	0.582100
	O330	O	0.070690	0.936562	0.852085
	H331	H	0.062476	0.950585	0.849613
	H332	H	0.087330	0.932448	0.848296
	O333	O	0.145882	0.903976	-0.053336
	H334	H	0.160107	0.906647	-0.063368
	H335	H	0.147414	0.886435	-0.040474
	O336	O	1.201544	1.200407	0.056812
	H337	H	1.207651	1.204308	0.045207
	H338	H	1.211543	1.194987	0.054285
	O339	O	-0.021937	0.954196	0.919264
	H340	H	-0.023038	0.940166	0.915664
	H341	H	-0.024031	0.952020	0.930842
	O342	O	0.512112	0.296697	0.367417
	H343	H	0.493309	0.306196	0.375021
	H344	H	0.500547	0.281517	0.351911
	O345	O	0.085239	-0.044062	1.187729
	H346	H	0.074427	-0.054956	1.189964
	H347	H	0.091463	-0.033713	1.200647
	O348	O	0.463285	0.425346	0.491327
	H349	H	0.463952	0.411262	0.500799
	H350	H	0.463715	0.433849	0.484306
	O351	O	0.811818	0.937613	-0.019328
	H352	H	0.826620	0.943428	-0.043125
	H353	H	0.812380	0.927731	-0.017918
	O354	O	0.811374	0.810825	1.138607
	H355	H	0.805381	0.807339	1.111418
	H356	H	0.794279	0.844403	1.146158
	O357	O	-0.061854	-0.206700	0.209974
	H358	H	-0.087041	-0.195905	0.204915
	H359	H	-0.076074	-0.228747	0.229303
	O360	O	0.476252	0.503669	0.717560
	H361	H	0.467950	0.486248	0.730031
	H362	H	0.472218	0.504489	0.718714
	O363	O	1.060566	0.202962	0.211375
	H364	H	1.057504	0.214423	0.216287
	H365	H	1.079054	0.198286	0.225268
	O366	O	-0.055759	0.189242	1.016194
	H367	H	-0.078504	0.190231	1.011209
	H368	H	-0.047831	0.206932	1.016511
	O369	O	0.798551	0.084252	1.055705
	H370	H	0.792623	0.068381	1.053922
	H371	H	0.806931	0.087522	1.051545
	O372	O	0.350450	0.343307	0.595909
	H373	H	0.361198	0.338546	0.594439
	H374	H	0.353204	0.360885	0.603685
	O375	O	0.177911	-0.177658	0.823354
	H376	H	0.185840	-0.148874	0.833730
	H377	H	0.135676	-0.178926	0.813992
	O378	O	0.387216	0.570850	0.631208
	H379	H	0.381666	0.583545	0.622772
	H380	H	0.387183	0.563124	0.624205
	O381	O	0.096215	1.189572	-0.079999
	H382	H	0.072883	1.187439	-0.100064
	H383	H	0.092251	1.172043	-0.086756
	O384	O	0.635733	0.657174	0.694312
	H385	H	0.616835	0.669080	0.706284
	H386	H	0.649480	0.675545	0.666119
	O387	O	0.479340	0.712362	0.568854
	H388	H	0.477332	0.717155	0.580669
	H389	H	0.471994	0.726552	0.558007
	O390	O	1.055271	0.873717	0.113251
	H391	H	1.056221	0.879681	0.119863
	H392	H	1.048003	0.850361	0.121975
	O393	O	0.785037	0.111568	0.943083
	H394	H	0.771618	0.099752	0.967702
	H395	H	0.787078	0.105042	0.927831
	O396	O	0.691729	0.565904	0.408476
	H397	H	0.700121	0.553856	0.392621
	H398	H	0.692793	0.541307	0.412047
	O399	O	0.364100	0.558172	0.504523
	H400	H	0.384275	0.562836	0.504550
	H401	H	0.364709	0.555146	0.480662
	O402	O	1.016032	0.846275	0.081617
	H403	H	1.020647	0.852852	0.066611
	H404	H	1.014661	0.838213	0.093003
	O405	O	0.046532	0.038114	0.110564
	H406	H	0.048656	0.023526	0.121782
	H407	H	0.057851	0.056101	0.117230
	O408	O	0.676000	0.689012	0.526605
	H409	H	0.678236	0.673340	0.508907
	H410	H	0.690975	0.695240	0.522971
	O411	O	0.818453	1.146144	0.814521
	H412	H	0.840764	1.136993	0.821499
	H413	H	0.805305	1.131892	0.824786
	O414	O	0.338451	0.547775	0.528379
	H415	H	0.320503	0.560670	0.535664
	H416	H	0.343689	0.531724	0.533439
	O417	O	0.021775	1.137778	1.015998
	H418	H	0.035420	1.137899	1.020782
	H419	H	0.029030	1.134923	1.013022
	O420	O	-0.181983	0.993413	0.833935
	H421	H	-0.189185	0.991316	0.837439
	H422	H	-0.192469	1.002903	0.818558
	O423	O	0.033706	1.065368	-0.167603
	H424	H	0.020274	1.077425	-0.167271
	H425	H	0.048450	1.056803	-0.166582
	O426	O	0.424653	0.387994	0.373852
	H427	H	0.424422	0.388805	0.376397
	H428	H	0.414940	0.380879	0.365723
	O429	O	0.410691	0.645527	0.291824
	H430	H	0.423290	0.662255	0.309039
	H431	H	0.405039	0.675139	0.276359
	O432	O	0.606193	0.425547	0.638976
	H433	H	0.609045	0.432405	0.646773
	H434	H	0.606272	0.408927	0.647834
	O435	O	0.007448	0.051539	0.118774
	H436	H	0.017484	0.067743	0.106959
	H437	H	0.012516	0.046472	0.129890
	O438	O	0.018042	0.788488	0.790109
	H439	H	0.014393	0.776169	0.792102
	H440	H	0.011195	0.787708	0.770659
	O441	O	0.707329	0.484933	0.313776
	H442	H	0.716547	0.478204	0.296005
	H443	H	0.700027	0.444094	0.313563
