data_Molecule from HDF5

_cell_length_a		16.401515
_cell_length_b		16.113728
_cell_length_c		16.290154
_cell_angle_alpha	90.034910
_cell_angle_beta	89.804240
_cell_angle_gamma	89.874601
_symmetry_space_group_name_H-M	'P 1'
_symmetry_Int_Tables_number		1

loop_
	_symmetry_equiv_pos_as_xyz
	x,y,z

loop_
	_atom_site_label
	_atom_site_type_symbol
	_atom_site_fract_x
	_atom_site_fract_y
	_atom_site_fract_z
	H0	H	0.403409	0.840464	0.719480
	H1	H	0.600497	0.170343	0.716305
	H2	H	0.601382	0.840468	0.287039
	H3	H	0.402211	0.169587	0.290531
	H4	H	0.719342	0.404051	0.839773
	H5	H	0.720416	0.608269	0.164521
	H6	H	0.285790	0.609802	0.839893
	H7	H	0.283114	0.403331	0.164045
	H8	H	0.839224	0.718659	0.402926
	H9	H	0.165519	0.717915	0.596743
	H10	H	0.839364	0.290114	0.598130
	H11	H	0.165608	0.287779	0.402293
	H12	H	0.841715	0.400821	0.719641
	H13	H	0.165510	0.603617	0.715876
	H14	H	0.839853	0.603440	0.285397
	H15	H	0.164960	0.401424	0.283314
	H16	H	0.407170	0.719758	0.838865
	H17	H	0.597781	0.717173	0.167787
	H18	H	0.602208	0.290606	0.839444
	H19	H	0.404920	0.293583	0.167353
	H20	H	0.716726	0.839440	0.402033
	H21	H	0.719123	0.168162	0.604442
	H22	H	0.287622	0.839609	0.605707
	H23	H	0.286252	0.167650	0.404276
	H24	H	0.903679	0.338994	0.214151
	H25	H	0.100623	0.668574	0.215197
	H26	H	0.101951	0.338221	0.787588
	H27	H	0.905176	0.668849	0.786065
	H28	H	0.222889	0.898949	0.341321
	H29	H	0.216479	0.104760	0.665867
	H30	H	0.784077	0.105476	0.340312
	H31	H	0.783946	0.900443	0.664277
	H32	H	0.339760	0.221807	0.907376
	H33	H	0.665559	0.219705	0.101804
	H34	H	0.339916	0.789929	0.103007
	H35	H	0.665625	0.791711	0.906189
	H36	H	0.339822	0.905402	0.220387
	H37	H	0.664029	0.105473	0.220734
	H38	H	0.340716	0.109656	0.786567
	H39	H	0.664025	0.905217	0.786233
	H40	H	0.906249	0.214343	0.336566
	H41	H	0.098752	0.217797	0.665347
	H42	H	0.099466	0.791106	0.337611
	H43	H	0.904331	0.789559	0.665572
	H44	H	0.221895	0.340859	0.898256
	H45	H	0.215327	0.669577	0.100758
	H46	H	0.787135	0.341212	0.101557
	H47	H	0.789997	0.670487	0.902243
	H48	H	0.409676	0.120772	0.590669
	H49	H	0.595240	0.887231	0.594199
	H50	H	0.596144	0.123063	0.411475
	H51	H	0.406951	0.884925	0.411590
	H52	H	0.597516	0.415763	0.119209
	H53	H	0.599557	0.592293	0.886665
	H54	H	0.408434	0.595532	0.117954
	H55	H	0.409662	0.417931	0.886619
	H56	H	0.116140	0.595660	0.410086
	H57	H	0.887320	0.602435	0.589904
	H58	H	0.119150	0.413320	0.600090
	H59	H	0.886115	0.412911	0.405110
	H60	H	0.120593	0.403309	0.594249
	H61	H	0.890964	0.588868	0.590776
	H62	H	0.117484	0.592274	0.404717
	H63	H	0.886225	0.406437	0.404945
	H64	H	0.407573	0.598759	0.119466
	H65	H	0.592168	0.599512	0.887342
	H66	H	0.595113	0.414678	0.119261
	H67	H	0.414822	0.414918	0.888480
	H68	H	0.591143	0.120711	0.411102
	H69	H	0.593301	0.887159	0.597181
	H70	H	0.402328	0.123018	0.595654
	H71	H	0.413452	0.885884	0.408326
	H72	H	0.909142	0.623262	0.095648
	H73	H	0.106901	0.382236	0.091724
	H74	H	0.095667	0.624085	0.901588
	H75	H	0.914307	0.389030	0.912202
	H76	H	0.100120	0.916230	0.618391
	H77	H	0.087102	0.085374	0.390715
	H78	H	0.907249	0.094862	0.618260
	H79	H	0.907366	0.908810	0.385030
	H80	H	0.614278	0.091841	0.912244
	H81	H	0.390333	0.092473	0.093312
	H82	H	0.617150	0.914821	0.097702
	H83	H	0.387221	0.918491	0.908059
	H84	H	0.618784	0.910854	0.099028
	H85	H	0.384451	0.097889	0.106273
	H86	H	0.619925	0.097174	0.901997
	H87	H	0.384885	0.909053	0.908997
	H88	H	0.909706	0.093744	0.617373
	H89	H	0.094029	0.104503	0.383650
	H90	H	0.088524	0.911621	0.617045
	H91	H	0.905505	0.914662	0.385466
	H92	H	0.089211	0.619022	0.910342
	H93	H	0.086891	0.386148	0.100914
	H94	H	0.913179	0.622010	0.093699
	H95	H	0.905734	0.386341	0.912359
	H96	H	0.410727	0.123060	0.599686
	H97	H	0.592543	0.888526	0.594255
	H98	H	0.593318	0.120704	0.415737
	H99	H	0.411921	0.888164	0.415272
	H100	H	0.597416	0.413376	0.119473
	H101	H	0.600447	0.601710	0.883706
	H102	H	0.405183	0.596571	0.118601
	H103	H	0.409856	0.411751	0.885862
	H104	H	0.118691	0.598669	0.405338
	H105	H	0.885129	0.595148	0.602139
	H106	H	0.115535	0.412658	0.589061
	H107	H	0.888605	0.409978	0.409426
	H108	H	0.909669	0.622059	0.091024
	H109	H	0.089964	0.392879	0.079295
	H110	H	0.101404	0.621184	0.912767
	H111	H	0.909820	0.384991	0.905022
	H112	H	0.097215	0.904359	0.621226
	H113	H	0.107033	0.087928	0.384056
	H114	H	0.909277	0.096452	0.618446
	H115	H	0.911241	0.912617	0.386107
	H116	H	0.618443	0.103923	0.913145
	H117	H	0.385607	0.106952	0.094043
	H118	H	0.617229	0.911292	0.095108
	H119	H	0.388673	0.914413	0.915972
	C120	C	0.379666	0.013472	0.625671
	C121	C	0.622885	0.996363	0.624108
	C122	C	0.623184	0.013098	0.382170
	C123	C	0.381362	0.995321	0.382914
	C124	C	0.624821	0.384497	0.011076
	C125	C	0.625263	0.627255	0.994007
	C126	C	0.379855	0.627282	0.010818
	C127	C	0.381266	0.384892	0.994285
	C128	C	0.010198	0.625208	0.378341
	C129	C	0.994608	0.624905	0.622658
	C130	C	0.010991	0.380825	0.623086
	C131	C	0.994657	0.380510	0.378039
	C132	C	0.881095	0.513773	0.122709
	C133	C	0.123334	0.495584	0.121090
	C134	C	0.124906	0.512583	0.879243
	C135	C	0.881730	0.495708	0.880227
	C136	C	0.124401	0.881552	0.510922
	C137	C	0.123721	0.123403	0.493916
	C138	C	0.880136	0.124460	0.510279
	C139	C	0.879641	0.882179	0.493414
	C140	C	0.510683	0.128343	0.881055
	C141	C	0.494254	0.127998	0.126386
	C142	C	0.510343	0.883254	0.125991
	C143	C	0.494154	0.884497	0.881881
	C144	C	0.382794	0.889620	0.681865
	C145	C	0.620493	0.120685	0.678662
	C146	C	0.621673	0.889558	0.325372
	C147	C	0.382680	0.119874	0.328065
	C148	C	0.681075	0.384770	0.888639
	C149	C	0.681201	0.626900	0.116296
	C150	C	0.325066	0.627646	0.888272
	C151	C	0.323360	0.385029	0.116326
	C152	C	0.888026	0.680984	0.381760
	C153	C	0.117108	0.680303	0.618768
	C154	C	0.888592	0.326569	0.619836
	C155	C	0.116714	0.325050	0.380876
	C156	C	0.889677	0.381856	0.680181
	C157	C	0.116826	0.623709	0.678118
	C158	C	0.888328	0.623617	0.323164
	C159	C	0.116482	0.382206	0.322152
	C160	C	0.385204	0.682780	0.887907
	C161	C	0.620343	0.681192	0.117841
	C162	C	0.622511	0.328285	0.888495
	C163	C	0.383636	0.330226	0.117903
	C164	C	0.678442	0.888819	0.383016
	C165	C	0.679711	0.119501	0.623198
	C166	C	0.325049	0.889216	0.625233
	C167	C	0.324719	0.118794	0.384535
	C168	C	0.883373	0.388676	0.177090
	C169	C	0.121341	0.619121	0.177718
	C170	C	0.122760	0.388064	0.824658
	C171	C	0.884449	0.619712	0.824091
	C172	C	0.182419	0.880947	0.389096
	C173	C	0.178344	0.123364	0.616862
	C174	C	0.823497	0.124275	0.388249
	C175	C	0.823195	0.881855	0.615731
	C176	C	0.388542	0.184328	0.885285
	C177	C	0.616733	0.182476	0.123053
	C178	C	0.388333	0.827707	0.123554
	C179	C	0.616852	0.829480	0.885129
	C180	C	0.388457	0.884968	0.182049
	C181	C	0.616042	0.125468	0.181980
	C182	C	0.388948	0.128599	0.825219
	C183	C	0.616073	0.885957	0.825507
	C184	C	0.884073	0.178380	0.386300
	C185	C	0.119863	0.179785	0.616576
	C186	C	0.121115	0.827458	0.387090
	C187	C	0.883091	0.826737	0.616437
	C188	C	0.182454	0.389517	0.879473
	C189	C	0.178078	0.619783	0.120408
	C190	C	0.825524	0.389817	0.120967
	C191	C	0.826959	0.620332	0.881640
	C192	C	0.401186	0.100044	0.602402
	C193	C	0.600275	0.909778	0.601679
	C194	C	0.600350	0.099262	0.405837
	C195	C	0.404115	0.908721	0.405078
	C196	C	0.602945	0.407718	0.097034
	C197	C	0.603742	0.604530	0.908108
	C198	C	0.400747	0.603819	0.096471
	C199	C	0.404533	0.407956	0.909162
	C200	C	0.095297	0.602348	0.400322
	C201	C	0.909873	0.602172	0.600658
	C202	C	0.096271	0.403215	0.600896
	C203	C	0.908807	0.403198	0.400185
	C204	C	0.903951	0.599953	0.100314
	C205	C	0.101202	0.409438	0.097549
	C206	C	0.102154	0.599221	0.901690
	C207	C	0.903784	0.409199	0.903169
	C208	C	0.101914	0.903977	0.596619
	C209	C	0.102125	0.099700	0.408433
	C210	C	0.902092	0.101811	0.595872
	C211	C	0.901588	0.905251	0.407650
	C212	C	0.595483	0.104596	0.902849
	C213	C	0.408909	0.105756	0.104341
	C214	C	0.595585	0.905744	0.103712
	C215	C	0.409136	0.907298	0.904430
	Zn216	Zn	0.501465	0.005819	0.751990
	Zn217	Zn	0.501670	0.005330	0.255209
	Zn218	Zn	0.753792	0.505610	0.002328
	Zn219	Zn	0.251909	0.505150	0.001180
	Zn220	Zn	0.002119	0.754520	0.501118
	Zn221	Zn	0.002227	0.251914	0.500616
	Zn222	Zn	0.003112	0.502954	0.751747
	Zn223	Zn	0.002559	0.503233	0.249069
	Zn224	Zn	0.502535	0.754702	0.003425
	Zn225	Zn	0.503073	0.256576	0.004121
	Zn226	Zn	0.751120	0.003573	0.502864
	Zn227	Zn	0.252685	0.002660	0.503523
	N228	N	0.415857	0.968015	0.682387
	N229	N	0.585865	0.043064	0.679204
	N230	N	0.587901	0.967720	0.324729
	N231	N	0.417405	0.042155	0.327191
	N232	N	0.682523	0.419241	0.965998
	N233	N	0.684441	0.594212	0.038261
	N234	N	0.321711	0.593997	0.965756
	N235	N	0.321658	0.418261	0.038480
	N236	N	0.964865	0.681993	0.415414
	N237	N	0.040359	0.681212	0.584923
	N238	N	0.965115	0.325676	0.585154
	N239	N	0.039858	0.324071	0.414866
	N240	N	0.966866	0.414967	0.682150
	N241	N	0.039775	0.589845	0.680461
	N242	N	0.965273	0.589469	0.321023
	N243	N	0.039223	0.415929	0.320246
	N244	N	0.418259	0.682910	0.965298
	N245	N	0.586188	0.681534	0.040775
	N246	N	0.588197	0.328311	0.965591
	N247	N	0.419088	0.330147	0.041193
	N248	N	0.679727	0.966885	0.417425
	N249	N	0.681230	0.041024	0.589748
	N250	N	0.323062	0.967112	0.590887
	N251	N	0.323853	0.040416	0.417997
	N252	N	0.917461	0.466613	0.178225
	N253	N	0.088006	0.540909	0.178401
	N254	N	0.087965	0.465733	0.824119
	N255	N	0.917569	0.541236	0.822875
	N256	N	0.184711	0.913564	0.467084
	N257	N	0.180900	0.089126	0.539541
	N258	N	0.820899	0.091563	0.466219
	N259	N	0.821017	0.915612	0.538256
	N260	N	0.465227	0.184327	0.919201
	N261	N	0.539975	0.184074	0.089286
	N262	N	0.465103	0.826519	0.089426
	N263	N	0.540161	0.828522	0.919580
	N264	N	0.465455	0.918908	0.183693
	N265	N	0.538774	0.092497	0.184263
	N266	N	0.465943	0.094637	0.822148
	N267	N	0.538743	0.919381	0.823401
	N268	N	0.918643	0.178795	0.463230
	N269	N	0.086633	0.180049	0.539080
	N270	N	0.085717	0.827617	0.463889
	N271	N	0.917408	0.826567	0.539177
	N272	N	0.183964	0.468126	0.912631
	N273	N	0.179330	0.541959	0.085692
	N274	N	0.823875	0.468448	0.088050
	N275	N	0.825066	0.542240	0.915890
	O276	O	0.579915	0.593897	0.458636
	H277	H	0.588704	0.590759	0.459381
	H278	H	0.583973	0.597314	0.454444
	O279	O	0.514705	0.445262	0.544745
	H280	H	0.519044	0.439803	0.552334
	H281	H	0.510788	0.426506	0.558939
	O282	O	1.048778	1.106510	-0.028996
	H283	H	1.049835	1.092396	-0.028292
	H284	H	1.048736	1.112369	-0.027671
	O285	O	1.089455	-0.056508	0.964303
	H286	H	1.095845	-0.044528	0.972177
	H287	H	1.085127	-0.059792	0.964510
	O288	O	0.503468	0.453062	0.525844
	H289	H	0.509011	0.452616	0.515870
	H290	H	0.502269	0.448196	0.531621
	O291	O	0.482849	0.520433	0.510972
	H292	H	0.481837	0.518539	0.510031
	H293	H	0.479484	0.522355	0.514916
	O294	O	0.477471	0.518209	0.500980
	H295	H	0.469144	0.521963	0.505534
	H296	H	0.475698	0.517525	0.509855
	O297	O	0.465271	0.416400	0.470653
	H298	H	0.467485	0.397138	0.473301
	H299	H	0.476750	0.429603	0.467979
	O300	O	1.081500	0.004354	1.027705
	H301	H	1.079073	0.013010	1.034884
	H302	H	1.090447	0.006512	1.018079
	O303	O	0.996260	0.878640	-0.059126
	H304	H	0.995185	0.888347	-0.062921
	H305	H	1.001219	0.864458	-0.065317
	O306	O	0.117011	1.005566	0.946166
	H307	H	0.118690	0.993982	0.944382
	H308	H	0.124791	1.005535	0.943712
	O309	O	0.535041	0.508941	0.451560
	H310	H	0.529740	0.506602	0.450611
	H311	H	0.538878	0.510362	0.445815
	O312	O	-0.051671	0.070809	0.047160
	H313	H	-0.040447	0.060813	0.049208
	H314	H	-0.058842	0.068222	0.050405
	O315	O	1.093262	-0.096981	-0.073637
	H316	H	1.098443	-0.091051	-0.060429
	H317	H	1.106523	-0.093379	-0.084555
	O318	O	1.062403	0.981433	1.076781
	H319	H	1.059090	0.977837	1.075172
	H320	H	1.053031	0.985562	1.082350
	O321	O	-0.547334	-0.565136	0.498051
	H322	H	-0.545835	-0.554928	0.504003
	H323	H	-0.534583	-0.564150	0.497377
	O324	O	0.424956	0.476302	0.526548
	H325	H	0.417164	0.484232	0.517967
	H326	H	0.424377	0.469659	0.516908
	O327	O	-0.492569	-0.569072	0.512053
	H328	H	-0.496651	-0.575803	0.514013
	H329	H	-0.497423	-0.571390	0.527538
	O330	O	0.542045	0.559969	0.517609
	H331	H	0.548964	0.560820	0.516347
	H332	H	0.540950	0.560768	0.510942
	O333	O	-0.468000	0.446675	0.531519
	H334	H	-0.472118	0.450060	0.526103
	H335	H	-0.458658	0.459376	0.530084
	O336	O	-0.136644	0.032892	-0.005699
	H337	H	-0.127975	0.043453	-0.003475
	H338	H	-0.138093	0.033752	-0.001471
	O339	O	-0.128799	0.971886	1.035374
	H340	H	-0.133857	0.971978	1.028218
	H341	H	-0.132347	0.960871	1.031049
	O342	O	1.011442	0.984577	1.090053
	H343	H	1.006806	0.976922	1.088485
	H344	H	1.015675	0.982856	1.085944
	O345	O	0.892234	1.075410	-0.062910
	H346	H	0.882766	1.079448	-0.058212
	H347	H	0.883246	1.073601	-0.054705
	O348	O	0.549791	0.616149	0.504816
	H349	H	0.551034	0.617614	0.511689
	H350	H	0.548235	0.614047	0.495530
	O351	O	0.531974	0.469299	0.524439
	H352	H	0.534121	0.467099	0.522085
	H353	H	0.544371	0.465795	0.522123
	O354	O	0.532520	0.463555	0.480416
	H355	H	0.529184	0.454220	0.474844
	H356	H	0.532932	0.467620	0.479877
	O357	O	1.041002	0.025671	0.949551
	H358	H	1.044863	0.030962	0.946282
	H359	H	1.050071	0.032132	0.959865
	O360	O	0.523857	0.494691	0.555611
	H361	H	0.523756	0.503386	0.564884
	H362	H	0.525759	0.487464	0.554107
	O363	O	1.087016	1.002093	0.084846
	H364	H	1.092563	1.007750	0.086137
	H365	H	1.075174	1.003104	0.087105
	O366	O	1.026204	0.927050	0.975962
	H367	H	1.013249	0.918544	0.978080
	H368	H	1.039835	0.927338	0.979068
	O369	O	0.994022	-0.093785	1.048353
	H370	H	1.003050	-0.103753	1.050805
	H371	H	0.985911	-0.095365	1.042808
	O372	O	-0.066313	0.097621	-0.002028
	H373	H	-0.063127	0.097878	-0.003281
	H374	H	-0.065529	0.088481	-0.006019
	O375	O	0.979828	0.028075	-0.063798
	H376	H	0.982143	0.034362	-0.066660
	H377	H	0.981972	0.029055	-0.075986
	O378	O	0.431338	0.579032	0.527504
	H379	H	0.430720	0.590199	0.536719
	H380	H	0.439400	0.566659	0.522354
	O381	O	0.510802	0.583373	0.479601
	H382	H	0.496259	0.587443	0.478594
	H383	H	0.500436	0.583781	0.475306
