data_Molecule from HDF5

_cell_length_a		16.355795
_cell_length_b		16.369666
_cell_length_c		16.142013
_cell_angle_alpha	90.116992
_cell_angle_beta	90.106714
_cell_angle_gamma	89.681545
_symmetry_space_group_name_H-M	'P 1'
_symmetry_Int_Tables_number		1

loop_
	_symmetry_equiv_pos_as_xyz
	x,y,z

loop_
	_atom_site_label
	_atom_site_type_symbol
	_atom_site_fract_x
	_atom_site_fract_y
	_atom_site_fract_z
	H0	H	0.408333	0.839170	0.719895
	H1	H	0.602538	0.164823	0.722042
	H2	H	0.603677	0.839066	0.292805
	H3	H	0.406640	0.165528	0.291159
	H4	H	0.720750	0.401718	0.840204
	H5	H	0.720615	0.598789	0.169643
	H6	H	0.290151	0.603288	0.841523
	H7	H	0.292270	0.403413	0.169672
	H8	H	0.843333	0.719163	0.404449
	H9	H	0.167370	0.720139	0.606796
	H10	H	0.842455	0.288275	0.606716
	H11	H	0.165817	0.282283	0.402732
	H12	H	0.843081	0.406965	0.719901
	H13	H	0.169475	0.601848	0.720183
	H14	H	0.843020	0.599836	0.291338
	H15	H	0.169169	0.403589	0.292476
	H16	H	0.404608	0.718482	0.842606
	H17	H	0.605861	0.715669	0.170095
	H18	H	0.607247	0.284879	0.842086
	H19	H	0.409261	0.289263	0.170842
	H20	H	0.722844	0.840857	0.405376
	H21	H	0.721162	0.163968	0.609954
	H22	H	0.290099	0.839619	0.605180
	H23	H	0.285913	0.164164	0.403141
	H24	H	0.912182	0.338454	0.217527
	H25	H	0.102954	0.665476	0.219412
	H26	H	0.106742	0.340709	0.787913
	H27	H	0.908785	0.666587	0.792630
	H28	H	0.219240	0.902840	0.340374
	H29	H	0.219172	0.102422	0.669559
	H30	H	0.788239	0.102302	0.341379
	H31	H	0.792901	0.905814	0.671193
	H32	H	0.344679	0.221531	0.904176
	H33	H	0.669139	0.217742	0.108193
	H34	H	0.344094	0.786078	0.107912
	H35	H	0.667646	0.784421	0.905061
	H36	H	0.341987	0.907215	0.218272
	H37	H	0.669272	0.098595	0.221677
	H38	H	0.342770	0.102658	0.790697
	H39	H	0.669058	0.904393	0.793180
	H40	H	0.902095	0.218552	0.341135
	H41	H	0.103777	0.218135	0.669055
	H42	H	0.103689	0.788344	0.339984
	H43	H	0.906096	0.787946	0.670134
	H44	H	0.224106	0.340680	0.903451
	H45	H	0.223113	0.664048	0.108561
	H46	H	0.792730	0.338992	0.104479
	H47	H	0.786684	0.663627	0.903064
	H48	H	0.398583	0.121836	0.597932
	H49	H	0.597627	0.887186	0.599354
	H50	H	0.595706	0.116389	0.418627
	H51	H	0.407018	0.885786	0.415051
	H52	H	0.607035	0.410358	0.124611
	H53	H	0.593274	0.591877	0.889734
	H54	H	0.415581	0.595927	0.123453
	H55	H	0.415388	0.414879	0.889663
	H56	H	0.121272	0.591065	0.411778
	H57	H	0.890980	0.595789	0.594289
	H58	H	0.119988	0.406462	0.590096
	H59	H	0.886164	0.403831	0.407498
	H60	H	0.118992	0.414259	0.594709
	H61	H	0.890544	0.594949	0.600223
	H62	H	0.124686	0.600316	0.409740
	H63	H	0.891226	0.410192	0.419121
	H64	H	0.412338	0.594075	0.123353
	H65	H	0.596770	0.598222	0.886561
	H66	H	0.597228	0.413974	0.120269
	H67	H	0.419598	0.409155	0.889905
	H68	H	0.600628	0.119466	0.414607
	H69	H	0.602069	0.886704	0.596188
	H70	H	0.418287	0.118905	0.608238
	H71	H	0.413301	0.885739	0.407932
	H72	H	0.908316	0.617356	0.093123
	H73	H	0.093097	0.386392	0.105716
	H74	H	0.095639	0.616931	0.915348
	H75	H	0.908252	0.384493	0.909590
	H76	H	0.111667	0.905322	0.627533
	H77	H	0.094529	0.103298	0.385040
	H78	H	0.905047	0.094391	0.624618
	H79	H	0.915463	0.907971	0.388430
	H80	H	0.623254	0.094340	0.908743
	H81	H	0.395309	0.086877	0.092218
	H82	H	0.620144	0.911750	0.095399
	H83	H	0.387551	0.901755	0.914746
	H84	H	0.623137	0.908337	0.104977
	H85	H	0.387335	0.097394	0.110186
	H86	H	0.621277	0.098440	0.919040
	H87	H	0.392582	0.913031	0.919881
	H88	H	0.917807	0.091387	0.619088
	H89	H	0.104858	0.086383	0.387250
	H90	H	0.096124	0.924518	0.617622
	H91	H	0.909221	0.908949	0.387495
	H92	H	0.101219	0.618021	0.917000
	H93	H	0.099021	0.390291	0.086853
	H94	H	0.909703	0.619856	0.102244
	H95	H	0.919741	0.387450	0.908423
	H96	H	0.415048	0.112460	0.586314
	H97	H	0.603145	0.884787	0.601259
	H98	H	0.594663	0.118062	0.412273
	H99	H	0.415635	0.888870	0.417031
	H100	H	0.597966	0.403183	0.124244
	H101	H	0.601373	0.590939	0.887818
	H102	H	0.415983	0.591783	0.121532
	H103	H	0.412748	0.408767	0.888164
	H104	H	0.121207	0.598132	0.418570
	H105	H	0.888920	0.600456	0.598225
	H106	H	0.122969	0.407060	0.599197
	H107	H	0.890110	0.417097	0.407721
	H108	H	0.916729	0.616196	0.096542
	H109	H	0.111806	0.383040	0.100547
	H110	H	0.099185	0.619243	0.910867
	H111	H	0.914192	0.388937	0.919100
	H112	H	0.086438	0.900812	0.622371
	H113	H	0.085373	0.087943	0.393045
	H114	H	0.915892	0.104732	0.624058
	H115	H	0.913009	0.914122	0.389952
	H116	H	0.618085	0.087491	0.917483
	H117	H	0.389411	0.107485	0.090834
	H118	H	0.622533	0.902008	0.097166
	H119	H	0.389044	0.912748	0.906922
	C120	C	0.382831	0.010364	0.626986
	C121	C	0.628248	0.993724	0.628809
	C122	C	0.626554	0.010825	0.385370
	C123	C	0.382668	0.994020	0.383771
	C124	C	0.629008	0.379870	0.014060
	C125	C	0.626780	0.622364	0.996837
	C126	C	0.384796	0.623560	0.014467
	C127	C	0.386544	0.381789	0.997330
	C128	C	0.014520	0.624437	0.383888
	C129	C	0.997754	0.625628	0.627289
	C130	C	0.013415	0.381638	0.625231
	C131	C	0.996625	0.380567	0.382932
	C132	C	0.884680	0.510199	0.126253
	C133	C	0.129133	0.493823	0.127439
	C134	C	0.128719	0.511101	0.883813
	C135	C	0.884493	0.494308	0.883322
	C136	C	0.126253	0.881388	0.513547
	C137	C	0.124661	0.122845	0.496634
	C138	C	0.882871	0.124896	0.513758
	C139	C	0.884315	0.882157	0.497645
	C140	C	0.513774	0.123700	0.884763
	C141	C	0.497991	0.124960	0.127769
	C142	C	0.514387	0.879786	0.127932
	C143	C	0.497331	0.879847	0.884572
	C144	C	0.387147	0.887836	0.682073
	C145	C	0.623957	0.115898	0.684691
	C146	C	0.624386	0.888033	0.330157
	C147	C	0.385301	0.116733	0.328469
	C148	C	0.683436	0.381445	0.889881
	C149	C	0.682596	0.619474	0.120552
	C150	C	0.328254	0.622639	0.890902
	C151	C	0.330663	0.383415	0.120962
	C152	C	0.891757	0.679947	0.385375
	C153	C	0.119388	0.681715	0.626226
	C154	C	0.891093	0.326457	0.625406
	C155	C	0.118010	0.322045	0.383512
	C156	C	0.891283	0.385430	0.681891
	C157	C	0.120336	0.622599	0.682551
	C158	C	0.891786	0.621103	0.328584
	C159	C	0.119763	0.382364	0.328645
	C160	C	0.385553	0.679872	0.891210
	C161	C	0.625648	0.677452	0.120724
	C162	C	0.627432	0.323099	0.890858
	C163	C	0.388582	0.326696	0.121440
	C164	C	0.683481	0.889019	0.386419
	C165	C	0.683071	0.115475	0.628718
	C166	C	0.328158	0.888083	0.625348
	C167	C	0.325341	0.115957	0.384256
	C168	C	0.889909	0.387436	0.180646
	C169	C	0.124870	0.616447	0.182650
	C170	C	0.126763	0.388954	0.826957
	C171	C	0.887338	0.617336	0.829175
	C172	C	0.181716	0.882681	0.389625
	C173	C	0.180881	0.121948	0.620325
	C174	C	0.825965	0.122783	0.390562
	C175	C	0.830372	0.885172	0.621781
	C176	C	0.392498	0.181658	0.885330
	C177	C	0.620614	0.179478	0.127393
	C178	C	0.392443	0.824700	0.126869
	C179	C	0.619231	0.823434	0.885779
	C180	C	0.391054	0.885229	0.181403
	C181	C	0.620704	0.120393	0.183830
	C182	C	0.391484	0.122616	0.828709
	C183	C	0.619906	0.882804	0.829718
	C184	C	0.882964	0.180326	0.390154
	C185	C	0.123437	0.179641	0.620050
	C186	C	0.124130	0.825853	0.389436
	C187	C	0.886412	0.826295	0.621110
	C188	C	0.185489	0.389250	0.883828
	C189	C	0.184407	0.615829	0.127059
	C190	C	0.830499	0.387788	0.124477
	C191	C	0.826735	0.615751	0.883861
	C192	C	0.404262	0.095583	0.604228
	C193	C	0.607068	0.908193	0.605678
	C194	C	0.603576	0.095946	0.408326
	C195	C	0.405497	0.908913	0.406658
	C196	C	0.607065	0.402573	0.100677
	C197	C	0.603837	0.600267	0.910296
	C198	C	0.407731	0.600583	0.100514
	C199	C	0.409281	0.404327	0.911468
	C200	C	0.100211	0.602939	0.406750
	C201	C	0.912319	0.603540	0.604309
	C202	C	0.098417	0.403057	0.601746
	C203	C	0.911347	0.403498	0.405036
	C204	C	0.905376	0.595734	0.103802
	C205	C	0.107580	0.408583	0.104323
	C206	C	0.105434	0.596042	0.907458
	C207	C	0.907351	0.409096	0.905796
	C208	C	0.104429	0.903757	0.600002
	C209	C	0.101660	0.099391	0.410643
	C210	C	0.906018	0.103000	0.600311
	C211	C	0.906076	0.904015	0.411007
	C212	C	0.598978	0.100081	0.908170
	C213	C	0.412776	0.103566	0.104647
	C214	C	0.599913	0.901089	0.105710
	C215	C	0.411830	0.902519	0.907264
	Zn216	Zn	0.504841	0.001906	0.755882
	Zn217	Zn	0.505707	0.002288	0.255956
	Zn218	Zn	0.755325	0.501291	0.004613
	Zn219	Zn	0.257586	0.502141	0.005998
	Zn220	Zn	0.005377	0.753732	0.505204
	Zn221	Zn	0.003992	0.251795	0.504198
	Zn222	Zn	0.006543	0.503159	0.754724
	Zn223	Zn	0.006914	0.502634	0.255104
	Zn224	Zn	0.505604	0.751452	0.006422
	Zn225	Zn	0.507248	0.253492	0.005831
	Zn226	Zn	0.755610	0.003236	0.506064
	Zn227	Zn	0.253773	0.002191	0.505097
	N228	N	0.420540	0.964883	0.683111
	N229	N	0.590572	0.038992	0.684979
	N230	N	0.589582	0.964852	0.329391
	N231	N	0.420331	0.040141	0.328003
	N232	N	0.684532	0.415884	0.967668
	N233	N	0.683211	0.585780	0.042439
	N234	N	0.327486	0.588512	0.968789
	N235	N	0.329204	0.416827	0.042903
	N236	N	0.969152	0.682230	0.418846
	N237	N	0.042059	0.683520	0.592562
	N238	N	0.967954	0.324010	0.590637
	N239	N	0.040363	0.320647	0.416376
	N240	N	0.968116	0.418884	0.682031
	N241	N	0.043559	0.588610	0.683219
	N242	N	0.968949	0.587201	0.327776
	N243	N	0.043511	0.418067	0.328232
	N244	N	0.419581	0.680893	0.969112
	N245	N	0.591795	0.679475	0.042618
	N246	N	0.594226	0.322319	0.969084
	N247	N	0.422583	0.325456	0.043555
	N248	N	0.685009	0.966331	0.419860
	N249	N	0.685682	0.038481	0.594600
	N250	N	0.325423	0.965194	0.591726
	N251	N	0.323700	0.038677	0.417815
	N252	N	0.922891	0.464605	0.181845
	N253	N	0.091124	0.539696	0.182838
	N254	N	0.092286	0.465850	0.826593
	N255	N	0.922564	0.540820	0.828598
	N256	N	0.183147	0.916565	0.467705
	N257	N	0.181686	0.087158	0.542620
	N258	N	0.825874	0.089046	0.468635
	N259	N	0.829070	0.919247	0.544044
	N260	N	0.469653	0.182494	0.919466
	N261	N	0.543469	0.182493	0.093486
	N262	N	0.470039	0.821480	0.094150
	N263	N	0.541823	0.821339	0.918862
	N264	N	0.467865	0.918962	0.182169
	N265	N	0.543550	0.087067	0.184177
	N266	N	0.467999	0.087384	0.828448
	N267	N	0.542959	0.917277	0.828832
	N268	N	0.917146	0.182079	0.467985
	N269	N	0.089348	0.180336	0.542175
	N270	N	0.090598	0.824577	0.467554
	N271	N	0.919312	0.824267	0.542783
	N272	N	0.186748	0.466123	0.918537
	N273	N	0.187247	0.538511	0.093589
	N274	N	0.827109	0.465126	0.091384
	N275	N	0.824913	0.538325	0.916929
	O276	O	0.047128	0.038552	0.055001
	H277	H	0.052038	0.040750	0.057486
	H278	H	0.044505	0.039161	0.061014
	O279	O	0.641994	0.581617	0.543491
	H280	H	0.645286	0.574626	0.538498
	H281	H	0.643472	0.586545	0.532993
	O282	O	0.452971	0.511078	0.401309
	H283	H	0.453584	0.516513	0.411059
	H284	H	0.448349	0.512841	0.406887
	O285	O	1.084475	-0.024706	1.087304
	H286	H	1.089075	-0.022143	1.073166
	H287	H	1.086342	-0.021532	1.084530
	O288	O	0.985902	0.008239	-0.011111
	H289	H	0.985099	0.009149	-0.017852
	H290	H	0.981722	0.008782	-0.009281
	O291	O	0.469181	0.499770	0.553503
	H292	H	0.466928	0.509353	0.558559
	H293	H	0.462422	0.494786	0.555193
	O294	O	1.019824	-0.033919	1.058114
	H295	H	1.019695	-0.030022	1.056270
	H296	H	1.025485	-0.047688	1.063094
	O297	O	0.059520	0.067340	0.104169
	H298	H	0.051759	0.066476	0.114536
	H299	H	0.055167	0.069443	0.102974
	O300	O	0.538102	0.355782	0.420083
	H301	H	0.524336	0.353034	0.420578
	H302	H	0.536894	0.370058	0.412487
	O303	O	0.503731	0.618849	0.534616
	H304	H	0.508019	0.616393	0.532692
	H305	H	0.511307	0.630289	0.532399
	O306	O	0.982124	-0.011471	-0.046318
	H307	H	0.971278	-0.008852	-0.049933
	H308	H	0.976875	0.000462	-0.064071
	O309	O	-0.009718	0.007393	0.925085
	H310	H	-0.012846	0.010724	0.911009
	H311	H	-0.005562	0.002825	0.927155
	O312	O	1.029791	1.029808	0.930865
	H313	H	1.030584	1.034888	0.930978
	H314	H	1.038767	1.031586	0.918986
	O315	O	0.552786	0.534477	0.416594
	H316	H	0.555208	0.526883	0.415377
	H317	H	0.549596	0.521398	0.406071
	O318	O	0.624356	0.365355	0.501285
	H319	H	0.624955	0.355218	0.493046
	H320	H	0.624863	0.360395	0.486005
	O321	O	0.044394	1.049840	1.026333
	H322	H	0.043656	1.037330	1.032646
	H323	H	0.042246	1.053713	1.023563
	O324	O	0.547109	0.609109	0.549695
	H325	H	0.551557	0.606059	0.530400
	H326	H	0.545714	0.617547	0.550153
	O327	O	0.984770	0.919866	0.002178
	H328	H	0.989145	0.930221	0.002906
	H329	H	0.995178	0.930348	0.002731
	O330	O	0.468117	0.435319	0.669996
	H331	H	0.465633	0.433985	0.677018
	H332	H	0.468560	0.424615	0.681740
	O333	O	0.418370	0.505940	0.504948
	H334	H	0.424651	0.510202	0.501200
	H335	H	0.430845	0.513848	0.500346
	O336	O	0.599839	0.438904	0.484959
	H337	H	0.603021	0.421208	0.479082
	H338	H	0.597918	0.446430	0.493002
	O339	O	0.999328	0.939513	-0.032113
	H340	H	0.993594	0.936055	-0.036426
	H341	H	1.004203	0.938073	-0.036469
	O342	O	0.379270	0.511018	0.449344
	H343	H	0.370582	0.512937	0.465048
	H344	H	0.369375	0.521408	0.445854
	O345	O	0.592472	0.505478	0.550168
	H346	H	0.602455	0.513296	0.546229
	H347	H	0.590327	0.506822	0.555817
	O348	O	0.053449	0.011737	-0.062068
	H349	H	0.050609	0.014404	-0.052646
	H350	H	0.057586	0.009691	-0.052285
	O351	O	-0.518197	0.414778	0.521102
	H352	H	-0.506366	0.421351	0.535810
	H353	H	-0.536398	0.409317	0.509724
	O354	O	0.476281	0.528482	0.422734
	H355	H	0.471610	0.528424	0.428510
	H356	H	0.477335	0.519331	0.426919
	O357	O	-0.541471	1.532770	0.553103
	H358	H	-0.524349	1.536180	0.556748
	H359	H	-0.545695	1.537471	0.548982
