data_Molecule from HDF5

_cell_length_a		16.263376
_cell_length_b		16.367795
_cell_length_c		16.243918
_cell_angle_alpha	90.349868
_cell_angle_beta	89.829643
_cell_angle_gamma	90.024126
_symmetry_space_group_name_H-M	'P 1'
_symmetry_Int_Tables_number		1

loop_
	_symmetry_equiv_pos_as_xyz
	x,y,z

loop_
	_atom_site_label
	_atom_site_type_symbol
	_atom_site_fract_x
	_atom_site_fract_y
	_atom_site_fract_z
	H0	H	0.403644	0.839317	0.705986
	H1	H	0.600946	0.165157	0.707191
	H2	H	0.603065	0.841032	0.274117
	H3	H	0.405850	0.166065	0.279205
	H4	H	0.718176	0.402146	0.829369
	H5	H	0.713793	0.600175	0.157580
	H6	H	0.288384	0.599030	0.828542
	H7	H	0.288773	0.407006	0.157010
	H8	H	0.839559	0.716950	0.395405
	H9	H	0.166021	0.719035	0.593511
	H10	H	0.840226	0.285232	0.593446
	H11	H	0.166007	0.286024	0.390585
	H12	H	0.837997	0.405618	0.705818
	H13	H	0.166405	0.601135	0.707637
	H14	H	0.838071	0.599671	0.280834
	H15	H	0.165873	0.403648	0.276670
	H16	H	0.402463	0.715788	0.828773
	H17	H	0.600533	0.719152	0.155990
	H18	H	0.602675	0.285841	0.829323
	H19	H	0.402588	0.287908	0.156127
	H20	H	0.718072	0.839614	0.390872
	H21	H	0.718042	0.164632	0.592109
	H22	H	0.287255	0.839045	0.589333
	H23	H	0.287924	0.165194	0.395337
	H24	H	0.901443	0.339599	0.208637
	H25	H	0.099507	0.664737	0.209269
	H26	H	0.102609	0.340266	0.775731
	H27	H	0.902915	0.665456	0.778522
	H28	H	0.216475	0.903346	0.328087
	H29	H	0.216138	0.101672	0.655785
	H30	H	0.788773	0.099956	0.328002
	H31	H	0.788616	0.906077	0.655925
	H32	H	0.340044	0.217940	0.892272
	H33	H	0.665636	0.218858	0.092019
	H34	H	0.339439	0.787662	0.092333
	H35	H	0.665153	0.784320	0.890342
	H36	H	0.339540	0.905178	0.206994
	H37	H	0.666745	0.101896	0.206072
	H38	H	0.338860	0.098475	0.780657
	H39	H	0.667288	0.903245	0.777719
	H40	H	0.903571	0.217701	0.328599
	H41	H	0.103847	0.219830	0.655021
	H42	H	0.102484	0.786371	0.328734
	H43	H	0.901754	0.788186	0.655575
	H44	H	0.217564	0.339809	0.893322
	H45	H	0.217484	0.664840	0.094990
	H46	H	0.786753	0.339212	0.091541
	H47	H	0.786617	0.665115	0.895451
	H48	H	0.408485	0.117155	0.583298
	H49	H	0.596427	0.887183	0.579610
	H50	H	0.599536	0.117806	0.405214
	H51	H	0.409799	0.887522	0.400565
	H52	H	0.590115	0.411821	0.107115
	H53	H	0.589662	0.596055	0.877345
	H54	H	0.407258	0.586745	0.106943
	H55	H	0.413499	0.410361	0.877694
	H56	H	0.120652	0.596523	0.397217
	H57	H	0.887212	0.593477	0.586695
	H58	H	0.118866	0.411544	0.584445
	H59	H	0.888290	0.409648	0.405177
	H60	H	0.118759	0.409795	0.583391
	H61	H	0.885356	0.598062	0.588436
	H62	H	0.119366	0.597838	0.401823
	H63	H	0.886339	0.412096	0.399529
	H64	H	0.418715	0.600593	0.107500
	H65	H	0.599656	0.596983	0.873931
	H66	H	0.593785	0.405745	0.110372
	H67	H	0.409942	0.403799	0.874470
	H68	H	0.598602	0.120242	0.394204
	H69	H	0.598126	0.884959	0.587544
	H70	H	0.405832	0.119551	0.588401
	H71	H	0.407783	0.886329	0.397383
	H72	H	0.914528	0.614613	0.084848
	H73	H	0.108940	0.380516	0.092397
	H74	H	0.091239	0.619455	0.891034
	H75	H	0.904076	0.386453	0.903609
	H76	H	0.101797	0.915986	0.609475
	H77	H	0.092422	0.097599	0.375667
	H78	H	0.917670	0.087348	0.603403
	H79	H	0.909535	0.896539	0.371425
	H80	H	0.618657	0.089318	0.896733
	H81	H	0.384257	0.099559	0.088688
	H82	H	0.615782	0.914476	0.076927
	H83	H	0.386637	0.914077	0.895000
	H84	H	0.620438	0.912413	0.089152
	H85	H	0.387361	0.097487	0.080356
	H86	H	0.622121	0.100767	0.896367
	H87	H	0.383917	0.902355	0.897615
	H88	H	0.914908	0.105764	0.610371
	H89	H	0.098479	0.095218	0.374170
	H90	H	0.085974	0.914153	0.604900
	H91	H	0.901732	0.914582	0.374570
	H92	H	0.089454	0.613923	0.908451
	H93	H	0.081195	0.387525	0.093339
	H94	H	0.901655	0.619508	0.083728
	H95	H	0.909354	0.384845	0.892956
	H96	H	0.411537	0.117963	0.589226
	H97	H	0.589777	0.887467	0.585198
	H98	H	0.589637	0.115964	0.399504
	H99	H	0.411711	0.886886	0.397338
	H100	H	0.597687	0.412543	0.109920
	H101	H	0.596460	0.588070	0.877801
	H102	H	0.401301	0.603020	0.113639
	H103	H	0.405931	0.410070	0.875361
	H104	H	0.118541	0.593665	0.400010
	H105	H	0.886797	0.597941	0.583202
	H106	H	0.117887	0.411238	0.582623
	H107	H	0.885189	0.405956	0.400034
	H108	H	0.907650	0.620270	0.094778
	H109	H	0.095517	0.391381	0.069476
	H110	H	0.105390	0.619858	0.902504
	H111	H	0.915802	0.390029	0.901982
	H112	H	0.093779	0.901560	0.611944
	H113	H	0.093825	0.091382	0.377096
	H114	H	0.899987	0.092871	0.610843
	H115	H	0.920878	0.911410	0.379060
	H116	H	0.617878	0.096066	0.906286
	H117	H	0.387109	0.090642	0.087205
	H118	H	0.620469	0.902977	0.080517
	H119	H	0.388651	0.909827	0.906270
	C120	C	0.380084	0.010544	0.614831
	C121	C	0.624161	0.993971	0.613732
	C122	C	0.624891	0.010886	0.369905
	C123	C	0.381250	0.994195	0.370358
	C124	C	0.623884	0.380551	0.001288
	C125	C	0.623335	0.623390	0.984479
	C126	C	0.380301	0.624298	0.000974
	C127	C	0.380666	0.380336	0.984229
	C128	C	0.010928	0.623528	0.372129
	C129	C	0.994408	0.625325	0.615232
	C130	C	0.010792	0.381442	0.613545
	C131	C	0.994470	0.380663	0.371354
	C132	C	0.879509	0.510489	0.115858
	C133	C	0.123316	0.494073	0.114423
	C134	C	0.124330	0.510564	0.870981
	C135	C	0.880509	0.494376	0.871382
	C136	C	0.123512	0.880985	0.500717
	C137	C	0.124173	0.123690	0.483713
	C138	C	0.881573	0.123921	0.500414
	C139	C	0.881225	0.880059	0.483335
	C140	C	0.511617	0.123247	0.871641
	C141	C	0.494262	0.124899	0.114160
	C142	C	0.511359	0.881342	0.112327
	C143	C	0.494589	0.879661	0.870105
	C144	C	0.382620	0.888065	0.668892
	C145	C	0.621534	0.116438	0.669305
	C146	C	0.622908	0.889047	0.313078
	C147	C	0.384499	0.117165	0.316642
	C148	C	0.679972	0.382174	0.878156
	C149	C	0.677207	0.621208	0.108251
	C150	C	0.325710	0.620159	0.877589
	C151	C	0.326047	0.384904	0.107912
	C152	C	0.888017	0.678481	0.375042
	C153	C	0.117379	0.680708	0.613523
	C154	C	0.888414	0.324727	0.612514
	C155	C	0.117429	0.324617	0.371442
	C156	C	0.887320	0.384351	0.668396
	C157	C	0.117672	0.622060	0.670150
	C158	C	0.887235	0.620537	0.318039
	C159	C	0.117281	0.383024	0.314817
	C160	C	0.382057	0.678555	0.877801
	C161	C	0.621137	0.680430	0.107305
	C162	C	0.622601	0.324404	0.878103
	C163	C	0.382322	0.325665	0.107356
	C164	C	0.680293	0.888555	0.371074
	C165	C	0.679825	0.116026	0.612036
	C166	C	0.325192	0.887794	0.610580
	C167	C	0.326096	0.116843	0.374126
	C168	C	0.881714	0.387980	0.170426
	C169	C	0.120167	0.616339	0.170691
	C170	C	0.122529	0.388655	0.814211
	C171	C	0.882558	0.616864	0.816710
	C172	C	0.178999	0.882975	0.377191
	C173	C	0.179140	0.122137	0.606622
	C174	C	0.826618	0.120698	0.376998
	C175	C	0.826234	0.884587	0.606987
	C176	C	0.388527	0.178947	0.873070
	C177	C	0.617117	0.180481	0.112092
	C178	C	0.388215	0.825859	0.111825
	C179	C	0.616768	0.823010	0.870520
	C180	C	0.388312	0.884192	0.168753
	C181	C	0.617545	0.122523	0.168955
	C182	C	0.387979	0.119784	0.817337
	C183	C	0.617602	0.881967	0.814501
	C184	C	0.883205	0.179448	0.377351
	C185	C	0.122997	0.180764	0.606330
	C186	C	0.122487	0.824417	0.377802
	C187	C	0.882520	0.825931	0.606788
	C188	C	0.179657	0.388518	0.872761
	C189	C	0.178654	0.616584	0.113441
	C190	C	0.824455	0.387839	0.112331
	C191	C	0.824724	0.616648	0.874556
	C192	C	0.401979	0.096196	0.593325
	C193	C	0.601433	0.908610	0.590835
	C194	C	0.602560	0.096068	0.392971
	C195	C	0.403013	0.908943	0.392007
	C196	C	0.600737	0.403394	0.087091
	C197	C	0.601484	0.600530	0.898520
	C198	C	0.402547	0.603029	0.087160
	C199	C	0.403166	0.401716	0.898119
	C200	C	0.097345	0.602154	0.393404
	C201	C	0.908669	0.603019	0.592769
	C202	C	0.096439	0.404264	0.590314
	C203	C	0.908802	0.402771	0.394817
	C204	C	0.901500	0.595959	0.094080
	C205	C	0.101685	0.408459	0.091580
	C206	C	0.101913	0.595846	0.893808
	C207	C	0.903099	0.409298	0.893050
	C208	C	0.100740	0.903996	0.586656
	C209	C	0.101682	0.101240	0.397824
	C210	C	0.904262	0.101856	0.585789
	C211	C	0.904054	0.901164	0.397216
	C212	C	0.597303	0.101707	0.893407
	C213	C	0.408503	0.102430	0.091931
	C214	C	0.596899	0.903286	0.089001
	C215	C	0.408657	0.902214	0.892842
	Zn216	Zn	0.502625	0.001903	0.742991
	Zn217	Zn	0.503515	0.002613	0.241382
	Zn218	Zn	0.751880	0.502163	-0.006442
	Zn219	Zn	0.252596	0.502745	-0.006903
	Zn220	Zn	0.002932	0.752486	0.492606
	Zn221	Zn	0.003372	0.252402	0.492099
	Zn222	Zn	0.002196	0.502867	0.742444
	Zn223	Zn	0.001588	0.502029	0.243617
	Zn224	Zn	0.502159	0.752208	-0.008427
	Zn225	Zn	0.502282	0.252327	-0.007608
	Zn226	Zn	0.753270	0.001924	0.491750
	Zn227	Zn	0.252069	0.002254	0.492071
	N228	N	0.415939	0.965318	0.671515
	N229	N	0.587382	0.039516	0.670299
	N230	N	0.589055	0.965963	0.312377
	N231	N	0.417939	0.040020	0.314134
	N232	N	0.680635	0.416535	0.955717
	N233	N	0.678699	0.586340	0.031009
	N234	N	0.324148	0.587479	0.955416
	N235	N	0.324647	0.417892	0.030316
	N236	N	0.965866	0.680373	0.407787
	N237	N	0.039656	0.682927	0.580399
	N238	N	0.966345	0.322873	0.579177
	N239	N	0.039994	0.322836	0.405766
	N240	N	0.964355	0.418884	0.669007
	N241	N	0.040172	0.588435	0.671478
	N242	N	0.964705	0.586945	0.316212
	N243	N	0.040035	0.417176	0.314848
	N244	N	0.415245	0.681167	0.955549
	N245	N	0.588434	0.681796	0.029330
	N246	N	0.588308	0.323401	0.955540
	N247	N	0.415744	0.322989	0.029413
	N248	N	0.681476	0.965358	0.405876
	N249	N	0.681425	0.038864	0.578107
	N250	N	0.323354	0.965135	0.577836
	N251	N	0.323947	0.039596	0.406912
	N252	N	0.915055	0.465159	0.172805
	N253	N	0.086549	0.539167	0.171488
	N254	N	0.088671	0.465759	0.813075
	N255	N	0.916714	0.539958	0.814703
	N256	N	0.179795	0.917584	0.454678
	N257	N	0.179844	0.087298	0.529440
	N258	N	0.825025	0.087362	0.454521
	N259	N	0.825290	0.917530	0.529438
	N260	N	0.466196	0.181336	0.906111
	N261	N	0.539529	0.182187	0.078788
	N262	N	0.465577	0.824101	0.077280
	N263	N	0.539185	0.821474	0.904305
	N264	N	0.465670	0.918212	0.169035
	N265	N	0.540179	0.088469	0.170137
	N266	N	0.465319	0.085877	0.816243
	N267	N	0.540426	0.916516	0.814302
	N268	N	0.916818	0.181654	0.454911
	N269	N	0.089421	0.181807	0.528602
	N270	N	0.088727	0.823276	0.455560
	N271	N	0.915863	0.822895	0.528766
	N272	N	0.180822	0.465306	0.907200
	N273	N	0.180552	0.539527	0.079119
	N274	N	0.823235	0.464923	0.078847
	N275	N	0.823277	0.539656	0.907802
	O276	O	1.061319	1.056971	-0.008737
	H277	H	1.062387	1.063155	-0.000475
	H278	H	1.071312	1.051359	-0.023906
	O279	O	0.055181	0.036388	0.983839
	H280	H	0.047593	0.041251	0.974727
	H281	H	0.061375	0.040458	0.982194
	O282	O	0.046575	-0.071900	-0.035715
	H283	H	0.050704	-0.086908	-0.042415
	H284	H	0.060639	-0.080748	-0.040574
	O285	O	0.586033	0.480428	0.476696
	H286	H	0.579913	0.474468	0.476489
	H287	H	0.590329	0.473224	0.469453
	O288	O	0.073767	-0.039696	-0.004865
	H289	H	0.065859	-0.031438	0.002742
	H290	H	0.065421	-0.051749	0.000902
	O291	O	0.116123	1.041345	0.121660
	H292	H	0.130471	1.035966	0.121527
	H293	H	0.114705	1.048763	0.126648
	O294	O	0.024378	0.929298	-0.070871
	H295	H	0.012935	0.940516	-0.068118
	H296	H	0.024470	0.934851	-0.076367
	O297	O	0.527098	0.448474	0.497776
	H298	H	0.521395	0.453945	0.492349
	H299	H	0.526753	0.453778	0.498082
	O300	O	0.559675	0.505988	0.478313
	H301	H	0.567630	0.505180	0.478776
	H302	H	0.570385	0.494031	0.472325
	O303	O	1.011134	-0.081416	0.920095
	H304	H	1.008155	-0.081553	0.924360
	H305	H	1.016303	-0.088971	0.917694
	O306	O	-0.056014	1.087327	0.905598
	H307	H	-0.053763	1.089264	0.899369
	H308	H	-0.050349	1.087991	0.908821
	O309	O	-0.078508	1.039874	1.064189
	H310	H	-0.076930	1.044377	1.070361
	H311	H	-0.073817	1.036587	1.069184
	O312	O	-0.017341	0.009997	0.914319
	H313	H	-0.023826	0.007425	0.920226
	H314	H	-0.025868	0.019059	0.918587
	O315	O	0.531109	0.461400	0.528820
	H316	H	0.529903	0.467224	0.538618
	H317	H	0.523996	0.468055	0.530313
	O318	O	0.054632	-0.092963	0.969805
	H319	H	0.050275	-0.090628	0.976269
	H320	H	0.063777	-0.102031	0.966573
	O321	O	0.546588	0.530927	0.535267
	H322	H	0.547692	0.532090	0.538581
	H323	H	0.549103	0.526591	0.542914
	O324	O	1.060535	0.009686	0.940233
	H325	H	1.064638	0.006593	0.938674
	H326	H	1.052752	0.017364	0.930474
	O327	O	0.945854	1.020344	0.990170
	H328	H	0.948454	1.025495	0.989537
	H329	H	0.940258	1.014135	1.000786
	O330	O	0.563017	0.430582	0.471577
	H331	H	0.556236	0.420783	0.469564
	H332	H	0.559907	0.431670	0.473029
	O333	O	0.083115	-0.027197	1.003880
	H334	H	0.084136	-0.026321	0.983954
	H335	H	0.092007	-0.033869	1.003901
	O336	O	1.013123	-0.002905	1.034828
	H337	H	1.015436	-0.011190	1.027301
	H338	H	1.007660	0.006657	1.025692
	O339	O	0.490410	0.537740	0.519126
	H340	H	0.494457	0.540022	0.527839
	H341	H	0.502883	0.532487	0.516225
	O342	O	-0.072318	1.080851	0.014899
	H343	H	-0.064889	1.078643	0.025916
	H344	H	-0.065615	1.082017	0.012690
	O345	O	0.523007	0.414014	0.482807
	H346	H	0.519273	0.419104	0.479937
	H347	H	0.522887	0.411645	0.478591
