data_Molecule from HDF5

_cell_length_a		16.629208
_cell_length_b		16.585330
_cell_length_c		16.594298
_cell_angle_alpha	89.903536
_cell_angle_beta	90.092271
_cell_angle_gamma	89.879269
_symmetry_space_group_name_H-M	'P 1'
_symmetry_Int_Tables_number		1

loop_
	_symmetry_equiv_pos_as_xyz
	x,y,z

loop_
	_atom_site_label
	_atom_site_type_symbol
	_atom_site_fract_x
	_atom_site_fract_y
	_atom_site_fract_z
	H0	H	0.400879	0.853774	0.715448
	H1	H	0.609293	0.166892	0.716311
	H2	H	0.609825	0.853245	0.273665
	H3	H	0.395665	0.163222	0.270426
	H4	H	0.725189	0.405032	0.838628
	H5	H	0.721657	0.610129	0.153092
	H6	H	0.285274	0.612367	0.837986
	H7	H	0.281862	0.403294	0.150077
	H8	H	0.847828	0.729664	0.390213
	H9	H	0.160840	0.728411	0.596843
	H10	H	0.848146	0.289994	0.598140
	H11	H	0.160802	0.289474	0.392662
	H12	H	0.847214	0.406756	0.713654
	H13	H	0.161815	0.610697	0.712473
	H14	H	0.849457	0.615353	0.272185
	H15	H	0.162189	0.406057	0.276464
	H16	H	0.402271	0.727617	0.837476
	H17	H	0.604365	0.726476	0.152833
	H18	H	0.609026	0.289060	0.838996
	H19	H	0.400212	0.288358	0.151702
	H20	H	0.726655	0.854151	0.389711
	H21	H	0.727359	0.165250	0.601991
	H22	H	0.282570	0.855416	0.601532
	H23	H	0.280134	0.164438	0.388306
	H24	H	0.902577	0.352764	0.214649
	H25	H	0.108759	0.667312	0.213814
	H26	H	0.106643	0.351843	0.777145
	H27	H	0.902508	0.667524	0.777922
	H28	H	0.225269	0.905274	0.339843
	H29	H	0.224929	0.114520	0.651106
	H30	H	0.782293	0.115708	0.339269
	H31	H	0.781037	0.903401	0.648892
	H32	H	0.348615	0.231518	0.890740
	H33	H	0.660116	0.227487	0.099132
	H34	H	0.348039	0.787369	0.099466
	H35	H	0.660885	0.790095	0.891862
	H36	H	0.347987	0.902663	0.216938
	H37	H	0.659449	0.110846	0.215173
	H38	H	0.348413	0.113780	0.775135
	H39	H	0.660483	0.907498	0.776840
	H40	H	0.898424	0.231558	0.338742
	H41	H	0.107490	0.229062	0.651667
	H42	H	0.109646	0.788684	0.338999
	H43	H	0.899219	0.787781	0.649690
	H44	H	0.224303	0.353067	0.892702
	H45	H	0.223327	0.667394	0.096897
	H46	H	0.784350	0.353590	0.100232
	H47	H	0.786922	0.667742	0.894646
	H48	H	0.418747	0.121757	0.584662
	H49	H	0.593173	0.898075	0.589192
	H50	H	0.589425	0.122147	0.401246
	H51	H	0.414633	0.896469	0.405671
	H52	H	0.597236	0.419423	0.106530
	H53	H	0.593998	0.600587	0.882783
	H54	H	0.414491	0.601355	0.107096
	H55	H	0.414000	0.420998	0.884052
	H56	H	0.115407	0.599515	0.407984
	H57	H	0.888365	0.600760	0.595595
	H58	H	0.117970	0.417341	0.588327
	H59	H	0.892477	0.421015	0.401847
	H60	H	0.115613	0.417821	0.582031
	H61	H	0.891447	0.608980	0.579935
	H62	H	0.115546	0.596398	0.402678
	H63	H	0.892986	0.418804	0.406918
	H64	H	0.411621	0.598294	0.108647
	H65	H	0.596967	0.602646	0.881437
	H66	H	0.592877	0.420223	0.106896
	H67	H	0.416720	0.422471	0.884507
	H68	H	0.588317	0.117798	0.409971
	H69	H	0.589742	0.900314	0.583745
	H70	H	0.412743	0.121745	0.580332
	H71	H	0.417177	0.898436	0.406950
	H72	H	0.914558	0.621515	0.083479
	H73	H	0.093456	0.399219	0.083511
	H74	H	0.103040	0.625150	0.903181
	H75	H	0.916149	0.396819	0.903614
	H76	H	0.087844	0.924257	0.602831
	H77	H	0.090208	0.099718	0.383971
	H78	H	0.912682	0.098561	0.606993
	H79	H	0.917144	0.921234	0.382975
	H80	H	0.615141	0.101191	0.911307
	H81	H	0.395095	0.089781	0.082683
	H82	H	0.614541	0.919164	0.084940
	H83	H	0.389790	0.917803	0.901032
	H84	H	0.614810	0.919022	0.083930
	H85	H	0.388944	0.101410	0.089249
	H86	H	0.615162	0.093456	0.904528
	H87	H	0.392333	0.916710	0.908483
	H88	H	0.915653	0.097821	0.605981
	H89	H	0.094313	0.101422	0.381462
	H90	H	0.091315	0.912957	0.609310
	H91	H	0.914444	0.920562	0.381729
	H92	H	0.089926	0.624061	0.895686
	H93	H	0.095767	0.398286	0.083866
	H94	H	0.914096	0.621019	0.084334
	H95	H	0.913143	0.396481	0.906544
	H96	H	0.412371	0.124127	0.587171
	H97	H	0.596478	0.898792	0.583064
	H98	H	0.596899	0.122449	0.407850
	H99	H	0.414217	0.897941	0.409365
	H100	H	0.594659	0.417271	0.108828
	H101	H	0.597249	0.598315	0.882198
	H102	H	0.415074	0.596838	0.106265
	H103	H	0.416621	0.419571	0.883612
	H104	H	0.117751	0.601962	0.403501
	H105	H	0.895115	0.591769	0.581956
	H106	H	0.115236	0.423046	0.585894
	H107	H	0.894584	0.424105	0.405695
	H108	H	0.915452	0.621461	0.084454
	H109	H	0.093899	0.397362	0.085550
	H110	H	0.091368	0.619169	0.910109
	H111	H	0.912358	0.396365	0.902639
	H112	H	0.099835	0.922976	0.608101
	H113	H	0.094247	0.096743	0.383513
	H114	H	0.915355	0.100980	0.607091
	H115	H	0.914735	0.922742	0.383369
	H116	H	0.618617	0.102782	0.901839
	H117	H	0.393230	0.102425	0.075189
	H118	H	0.613949	0.919521	0.084145
	H119	H	0.393594	0.923256	0.904422
	C120	C	0.382953	0.019160	0.616434
	C121	C	0.626079	1.001851	0.617506
	C122	C	0.624210	0.017591	0.374409
	C123	C	0.381714	1.000218	0.373692
	C124	C	0.626446	0.387594	0.003805
	C125	C	0.625973	0.630871	0.986407
	C126	C	0.383212	0.629974	0.003277
	C127	C	0.383570	0.388442	0.987160
	C128	C	0.013080	0.631561	0.372521
	C129	C	0.995603	0.631107	0.616377
	C130	C	0.012882	0.388153	0.616408
	C131	C	0.996442	0.388802	0.373785
	C132	C	0.883271	0.518043	0.116491
	C133	C	0.126083	0.501869	0.115772
	C134	C	0.125538	0.518293	0.873175
	C135	C	0.883177	0.500998	0.874125
	C136	C	0.125395	0.888295	0.503633
	C137	C	0.124580	0.130655	0.486631
	C138	C	0.882623	0.131323	0.503362
	C139	C	0.882901	0.888696	0.485782
	C140	C	0.513243	0.131602	0.873787
	C141	C	0.495236	0.129308	0.115433
	C142	C	0.511629	0.886903	0.116646
	C143	C	0.495686	0.888345	0.873708
	C144	C	0.381742	0.901134	0.676098
	C145	C	0.628077	0.119674	0.676928
	C146	C	0.627882	0.900267	0.313807
	C147	C	0.377660	0.116972	0.311673
	C148	C	0.685597	0.386299	0.885977
	C149	C	0.682377	0.629795	0.105829
	C150	C	0.324910	0.630928	0.884799
	C151	C	0.322615	0.385268	0.103789
	C152	C	0.895102	0.690261	0.371224
	C153	C	0.113947	0.688765	0.616112
	C154	C	0.894866	0.329616	0.617294
	C155	C	0.114378	0.329452	0.373502
	C156	C	0.894698	0.387615	0.674666
	C157	C	0.114358	0.630462	0.673657
	C158	C	0.895856	0.633515	0.312492
	C159	C	0.114825	0.387335	0.315752
	C160	C	0.382849	0.688332	0.884814
	C161	C	0.624319	0.687557	0.105582
	C162	C	0.627989	0.328451	0.886083
	C163	C	0.381546	0.328378	0.104606
	C164	C	0.685680	0.900642	0.371663
	C165	C	0.686683	0.118845	0.620105
	C166	C	0.323156	0.901668	0.619301
	C167	C	0.320512	0.117588	0.370095
	C168	C	0.882888	0.400029	0.175411
	C169	C	0.127077	0.619953	0.174118
	C170	C	0.125904	0.399340	0.816013
	C171	C	0.883260	0.620113	0.816926
	C172	C	0.185369	0.886745	0.386490
	C173	C	0.184602	0.132626	0.604296
	C174	C	0.822506	0.133733	0.385981
	C175	C	0.822327	0.885640	0.602701
	C176	C	0.395493	0.191195	0.871858
	C177	C	0.613118	0.187779	0.117607
	C178	C	0.394804	0.826657	0.118612
	C179	C	0.613578	0.829633	0.873044
	C180	C	0.394810	0.883949	0.176843
	C181	C	0.612696	0.129915	0.175376
	C182	C	0.395239	0.133116	0.814383
	C183	C	0.613608	0.888090	0.815886
	C184	C	0.880333	0.191377	0.385798
	C185	C	0.126233	0.189714	0.604489
	C186	C	0.127746	0.828807	0.386100
	C187	C	0.880630	0.828183	0.603140
	C188	C	0.184118	0.399848	0.873482
	C189	C	0.184086	0.620256	0.115865
	C190	C	0.824441	0.400225	0.118278
	C191	C	0.825742	0.620020	0.874832
	C192	C	0.407413	0.101262	0.591115
	C193	C	0.600551	0.920283	0.592445
	C194	C	0.598801	0.099501	0.399323
	C195	C	0.407859	0.919019	0.400053
	C196	C	0.601974	0.412054	0.085921
	C197	C	0.602847	0.607251	0.903700
	C198	C	0.407091	0.605931	0.085814
	C199	C	0.408772	0.413762	0.905283
	C200	C	0.094963	0.606663	0.397586
	C201	C	0.913110	0.607343	0.592663
	C202	C	0.094961	0.412317	0.592162
	C203	C	0.914655	0.413924	0.397967
	C204	C	0.907853	0.600223	0.091222
	C205	C	0.101599	0.419824	0.091457
	C206	C	0.101745	0.601264	0.896360
	C207	C	0.906996	0.418208	0.897429
	C208	C	0.100076	0.913038	0.585566
	C209	C	0.100018	0.106139	0.404336
	C210	C	0.907611	0.106155	0.585490
	C211	C	0.908319	0.914281	0.404095
	C212	C	0.594973	0.106413	0.898651
	C213	C	0.413516	0.104865	0.089691
	C214	C	0.593205	0.912217	0.091621
	C215	C	0.413210	0.912349	0.897762
	Zn216	Zn	0.504204	0.010375	0.744957
	Zn217	Zn	0.502911	0.008125	0.245138
	Zn218	Zn	0.754682	0.509471	-0.004820
	Zn219	Zn	0.254491	0.509833	-0.005267
	Zn220	Zn	0.004029	0.759902	0.494143
	Zn221	Zn	0.003804	0.259868	0.494909
	Zn222	Zn	0.004003	0.509398	0.745272
	Zn223	Zn	0.005461	0.509426	0.244785
	Zn224	Zn	0.503817	0.758882	-0.005219
	Zn225	Zn	0.504397	0.259476	-0.004508
	Zn226	Zn	0.753871	0.010210	0.495252
	Zn227	Zn	0.253858	0.010048	0.495576
	N228	N	0.418038	0.975370	0.674646
	N229	N	0.590936	0.045915	0.675444
	N230	N	0.590148	0.973995	0.315411
	N231	N	0.415134	0.043173	0.313771
	N232	N	0.685164	0.422161	0.960488
	N233	N	0.683700	0.595518	0.030689
	N234	N	0.324815	0.595557	0.959586
	N235	N	0.323721	0.421924	0.029691
	N236	N	0.969205	0.689354	0.407808
	N237	N	0.039050	0.689514	0.581254
	N238	N	0.969448	0.329553	0.581957
	N239	N	0.039755	0.330019	0.408574
	N240	N	0.969152	0.423135	0.674540
	N241	N	0.039538	0.595655	0.674192
	N242	N	0.970416	0.597859	0.313078
	N243	N	0.040376	0.423424	0.315511
	N244	N	0.418146	0.688068	0.959634
	N245	N	0.590321	0.688696	0.030157
	N246	N	0.592270	0.328738	0.960501
	N247	N	0.418926	0.330351	0.030912
	N248	N	0.683554	0.974707	0.408580
	N249	N	0.685377	0.044727	0.583489
	N250	N	0.323692	0.976133	0.583032
	N251	N	0.322813	0.043874	0.407876
	N252	N	0.918686	0.474465	0.174526
	N253	N	0.091710	0.545300	0.174370
	N254	N	0.090368	0.474121	0.815623
	N255	N	0.918078	0.544966	0.816086
	N256	N	0.184253	0.922829	0.460860
	N257	N	0.183884	0.096672	0.529930
	N258	N	0.823689	0.097075	0.460155
	N259	N	0.823695	0.922516	0.528663
	N260	N	0.469958	0.190697	0.907642
	N261	N	0.539070	0.187699	0.081053
	N262	N	0.468525	0.828485	0.081722
	N263	N	0.539148	0.829749	0.908376
	N264	N	0.468661	0.920617	0.175805
	N265	N	0.538155	0.094466	0.174365
	N266	N	0.469436	0.096747	0.815405
	N267	N	0.539129	0.924050	0.816107
	N268	N	0.916879	0.190052	0.460002
	N269	N	0.089691	0.188721	0.530287
	N270	N	0.091341	0.829416	0.460231
	N271	N	0.917744	0.830059	0.529312
	N272	N	0.184281	0.475006	0.908020
	N273	N	0.183820	0.545560	0.080433
	N274	N	0.824365	0.474842	0.082516
	N275	N	0.825221	0.544785	0.909541
	O276	O	-0.062465	0.989960	-0.116422
	H277	H	-0.068904	0.991616	-0.123252
	H278	H	-0.067484	0.976624	-0.115471
	O279	O	0.286868	0.432961	0.484200
	H280	H	0.275020	0.422371	0.475017
	H281	H	0.287627	0.434642	0.480694
	O282	O	0.857713	0.142410	1.020013
	H283	H	0.880228	0.139133	1.013569
	H284	H	0.855466	0.145169	1.003214
	O285	O	0.643318	0.472379	0.641252
	H286	H	0.656710	0.493618	0.657318
	H287	H	0.646846	0.471948	0.641447
	O288	O	0.317640	0.701257	0.683818
	H289	H	0.332410	0.690461	0.661788
	H290	H	0.330788	0.684268	0.667411
	O291	O	0.209231	0.213230	0.196225
	H292	H	0.231964	0.241213	0.225723
	H293	H	0.218429	0.194021	0.169173
	O294	O	0.799325	0.214646	0.788353
	H295	H	0.786839	0.200440	0.778523
	H296	H	0.804355	0.220657	0.786025
	O297	O	0.456584	0.463895	0.276489
	H298	H	0.467413	0.478251	0.280284
	H299	H	0.454918	0.481010	0.266475
	O300	O	0.061543	0.115584	0.816449
	H301	H	0.052552	0.109879	0.813808
	H302	H	0.060500	0.109523	0.824057
	O303	O	0.718447	0.721460	0.524614
	H304	H	0.731188	0.725451	0.538313
	H305	H	0.725050	0.724157	0.536301
	O306	O	0.541522	0.294912	0.283969
	H307	H	0.526966	0.289079	0.277550
	H308	H	0.522399	0.293059	0.284290
	O309	O	0.507921	0.372046	0.521267
	H310	H	0.495572	0.374935	0.520288
	H311	H	0.513510	0.371370	0.534947
	O312	O	0.704643	0.493743	0.313156
	H313	H	0.715990	0.509594	0.310765
	H314	H	0.700009	0.487609	0.320203
	O315	O	1.021277	1.162373	0.996419
	H316	H	1.020036	1.168729	1.011665
	H317	H	1.031033	1.167833	1.002173
	O318	O	0.502223	0.591271	0.333725
	H319	H	0.497301	0.605041	0.314772
	H320	H	0.468725	0.598550	0.330422
	O321	O	0.199539	0.965963	1.195830
	H322	H	0.193337	0.981470	1.197863
	H323	H	0.198999	0.968855	1.194569
	O324	O	1.065931	0.997621	0.047939
	H325	H	1.070790	1.001173	0.051554
	H326	H	1.054854	1.017992	0.060901
	O327	O	-0.127094	0.011532	0.793858
	H328	H	-0.120505	0.013962	0.805737
	H329	H	-0.122406	0.006458	0.794732
	O330	O	0.518035	0.600610	0.457695
	H331	H	0.544065	0.597741	0.455991
	H332	H	0.516929	0.599524	0.450758
	O333	O	0.662144	0.319433	0.582551
	H334	H	0.657311	0.339613	0.564611
	H335	H	0.656477	0.315780	0.563312
	O336	O	1.009441	-0.138776	-0.024446
	H337	H	1.018667	-0.133046	-0.022942
	H338	H	1.002257	-0.142767	-0.011779
	O339	O	0.721805	-0.460336	0.713753
	H340	H	0.747523	-0.454655	0.728413
	H341	H	0.723728	-0.423071	0.711403
	O342	O	-0.174004	0.038488	-0.121914
	H343	H	-0.187739	0.051680	-0.116976
	H344	H	-0.170310	0.035787	-0.114290
	O345	O	0.045989	1.230610	1.216585
	H346	H	0.064761	1.248511	1.232695
	H347	H	0.061608	1.243549	1.227312
	O348	O	0.211911	0.214701	0.020079
	H349	H	0.204811	0.206196	0.016871
	H350	H	0.216595	0.226493	0.021838
	O351	O	0.361566	0.545520	0.591109
	H352	H	0.357509	0.538407	0.578399
	H353	H	0.344727	0.542145	0.613392
	O354	O	-0.013043	-0.105777	0.836194
	H355	H	0.000268	-0.119352	0.829248
	H356	H	-0.014188	-0.112130	0.833567
	O357	O	0.591313	0.404480	0.681186
	H358	H	0.575547	0.419984	0.679626
	H359	H	0.599940	0.400188	0.671842
	O360	O	0.290737	0.302110	0.698348
	H361	H	0.333197	0.293678	0.701944
	H362	H	0.268765	0.270611	0.730235
	O363	O	0.058726	-0.043983	0.225360
	H364	H	0.044793	-0.061488	0.229587
	H365	H	0.043764	-0.013193	0.222268
	O366	O	0.594500	0.631192	0.486127
	H367	H	0.604397	0.644038	0.465789
	H368	H	0.584767	0.634263	0.478791
	O369	O	0.819760	-0.178311	-0.193337
	H370	H	0.840579	-0.150217	-0.195936
	H371	H	0.835855	-0.173042	-0.157508
	O372	O	0.963852	0.993982	-0.007226
	H373	H	0.965645	1.001668	-0.001227
	H374	H	0.957897	0.990812	-0.006253
	O375	O	0.801325	-0.190447	0.201055
	H376	H	0.852005	-0.193770	0.205486
	H377	H	0.795698	-0.139264	0.200046
	O378	O	0.290052	0.537546	0.278168
	H379	H	0.288940	0.556148	0.273260
	H380	H	0.283067	0.537956	0.264028
	O381	O	-0.175422	1.188046	1.178605
	H382	H	-0.200128	1.196194	1.168235
	H383	H	-0.193574	1.202457	1.170876
	O384	O	0.776848	-0.211895	1.035624
	H385	H	0.773703	-0.217902	1.065423
	H386	H	0.759430	-0.231473	1.054062
	O387	O	0.970688	1.229898	-0.225420
	H388	H	0.966051	1.234255	-0.246971
	H389	H	0.960172	1.230983	-0.242027
	O390	O	0.594552	0.537336	0.538048
	H391	H	0.605612	0.536368	0.541578
	H392	H	0.591188	0.531441	0.540465
	O393	O	0.717873	0.722415	0.706312
	H394	H	0.746375	0.754444	0.737826
	H395	H	0.682830	0.725573	0.696097
	O396	O	0.091052	1.117986	1.089498
	H397	H	0.089624	1.125478	1.102461
	H398	H	0.068778	1.119853	1.100151
	O399	O	0.216604	-0.011742	0.799647
	H400	H	0.225607	-0.016689	0.792279
	H401	H	0.224737	-0.031891	0.799433
	O402	O	0.541933	0.595123	0.464022
	H403	H	0.537799	0.609723	0.462135
	H404	H	0.535488	0.596068	0.474288
	O405	O	0.897310	-0.024142	1.113374
	H406	H	0.907408	-0.005137	1.105264
	H407	H	0.883421	-0.012806	1.135536
	O408	O	0.195991	0.196479	-0.190584
	H409	H	0.172092	0.182419	-0.173827
	H410	H	0.183652	0.175025	-0.169571
	O411	O	0.561540	0.536888	0.628358
	H412	H	0.556803	0.545754	0.615276
	H413	H	0.562300	0.535028	0.623305
	O414	O	0.421979	0.676073	0.573167
	H415	H	0.425022	0.661734	0.571378
	H416	H	0.419720	0.668383	0.566527
	O417	O	0.431258	0.529374	0.457341
	H418	H	0.437706	0.533087	0.462942
	H419	H	0.430416	0.535960	0.464709
	O420	O	0.223296	0.794787	0.953705
	H421	H	0.232488	0.793909	0.958523
	H422	H	0.231608	0.785733	0.942080
	O423	O	0.041609	-0.208462	0.769859
	H424	H	0.044342	-0.212831	0.755264
	H425	H	0.055020	-0.219719	0.759907
	O426	O	0.282228	0.477593	0.720841
	H427	H	0.254569	0.466061	0.743735
	H428	H	0.283384	0.438655	0.716426
	O429	O	1.023717	0.799149	1.047697
	H430	H	1.025623	0.819635	1.038128
	H431	H	1.033566	0.793422	1.028982
	O432	O	0.285947	0.729742	0.461091
	H433	H	0.276160	0.740592	0.450388
	H434	H	0.282311	0.735333	0.454147
	O435	O	-0.030395	0.795007	0.212859
	H436	H	-0.013862	0.792207	0.200438
	H437	H	-0.025604	0.772123	0.221160
	O438	O	0.135007	0.070874	-0.097653
	H439	H	0.127110	0.068699	-0.092711
	H440	H	0.130806	0.062831	-0.098890
	O441	O	-0.060804	0.060946	0.193075
	H442	H	-0.051859	0.088802	0.194460
	H443	H	-0.075835	0.083660	0.189890
	O444	O	0.543499	0.719734	0.706582
	H445	H	0.531223	0.714370	0.715748
	H446	H	0.532439	0.727298	0.709129
	O447	O	0.210228	0.803058	0.784119
	H448	H	0.228780	0.778421	0.771040
	H449	H	0.204060	0.808613	0.790679
	O450	O	-0.211297	1.006603	1.123994
	H451	H	-0.217204	1.010146	1.107251
	H452	H	-0.215805	1.015505	1.129955
	O453	O	0.409829	0.310753	0.428847
	H454	H	0.408573	0.315184	0.439180
	H455	H	0.402140	0.309449	0.433576
	O456	O	0.203891	-0.066168	1.056269
	H457	H	0.199091	-0.048109	1.054411
	H458	H	0.194980	-0.064928	1.045574
	O459	O	0.654419	0.513164	0.433443
	H460	H	0.664633	0.518683	0.436066
	H461	H	0.659561	0.503314	0.437926
	O462	O	0.713538	0.290918	0.273504
	H463	H	0.689344	0.307737	0.282916
	H464	H	0.695071	0.304131	0.291533
	O465	O	0.782622	0.226784	-0.036225
	H466	H	0.791185	0.229611	-0.053114
	H467	H	0.763837	0.249142	-0.049411
	O468	O	0.544162	0.586325	0.393811
	H469	H	0.547915	0.594053	0.390854
	H470	H	0.528911	0.595132	0.393574
	O471	O	0.335967	0.329087	0.534399
	H472	H	0.326640	0.324226	0.545065
	H473	H	0.333408	0.327637	0.557782
	O474	O	0.325971	0.324153	0.309099
	H475	H	0.335257	0.351369	0.322458
	H476	H	0.345090	0.334528	0.333623
	O477	O	0.462227	0.293988	1.709454
	H478	H	0.478939	0.293873	1.714189
	H479	H	0.475627	0.294146	1.726508
	O480	O	0.714599	0.340721	0.416377
	H481	H	0.715974	0.334990	0.409940
	H482	H	0.716439	0.344282	0.428760
	O483	O	0.562077	0.632168	0.339168
	H484	H	0.572113	0.632770	0.345574
	H485	H	0.579782	0.653184	0.342918
	O486	O	1.224713	-0.175590	1.169192
	H487	H	1.212338	-0.180464	1.163165
	H488	H	1.208455	-0.151138	1.148846
	O489	O	1.354821	0.682761	0.291212
	H490	H	1.350250	0.691135	0.279045
	H491	H	1.361460	0.696001	0.302657
