data_Molecule from HDF5

_cell_length_a		16.404605
_cell_length_b		16.305077
_cell_length_c		16.377814
_cell_angle_alpha	90.116728
_cell_angle_beta	90.275890
_cell_angle_gamma	90.089465
_symmetry_space_group_name_H-M	'P 1'
_symmetry_Int_Tables_number		1

loop_
	_symmetry_equiv_pos_as_xyz
	x,y,z

loop_
	_atom_site_label
	_atom_site_type_symbol
	_atom_site_fract_x
	_atom_site_fract_y
	_atom_site_fract_z
	H0	H	0.390007	0.826372	0.731427
	H1	H	0.594105	0.149171	0.733584
	H2	H	0.592111	0.827219	0.296630
	H3	H	0.384412	0.148365	0.294734
	H4	H	0.709491	0.386835	0.851749
	H5	H	0.713914	0.594506	0.173726
	H6	H	0.272409	0.594166	0.854199
	H7	H	0.273080	0.385388	0.173252
	H8	H	0.829161	0.704592	0.411497
	H9	H	0.151088	0.706247	0.614538
	H10	H	0.829899	0.269113	0.616626
	H11	H	0.151229	0.268457	0.412261
	H12	H	0.832055	0.383400	0.734340
	H13	H	0.151772	0.592045	0.732269
	H14	H	0.831712	0.591669	0.292064
	H15	H	0.152049	0.384616	0.295639
	H16	H	0.392161	0.706884	0.853423
	H17	H	0.595965	0.707451	0.175606
	H18	H	0.593862	0.269145	0.852688
	H19	H	0.389794	0.271189	0.173772
	H20	H	0.705667	0.825074	0.414476
	H21	H	0.712928	0.147448	0.622333
	H22	H	0.273634	0.825762	0.615009
	H23	H	0.269582	0.148134	0.410879
	H24	H	0.892228	0.327057	0.228101
	H25	H	0.095734	0.650961	0.233036
	H26	H	0.093685	0.327816	0.795747
	H27	H	0.890487	0.650649	0.795177
	H28	H	0.209853	0.882778	0.354135
	H29	H	0.210305	0.090415	0.674704
	H30	H	0.771178	0.088552	0.354078
	H31	H	0.773837	0.884843	0.675508
	H32	H	0.331528	0.207917	0.910364
	H33	H	0.652541	0.206352	0.116643
	H34	H	0.332519	0.768559	0.116509
	H35	H	0.654287	0.773332	0.915249
	H36	H	0.331293	0.884240	0.232698
	H37	H	0.650660	0.092278	0.235554
	H38	H	0.332369	0.093439	0.792380
	H39	H	0.652253	0.885973	0.796589
	H40	H	0.888320	0.204037	0.353222
	H41	H	0.093700	0.206846	0.674499
	H42	H	0.088470	0.771559	0.352042
	H43	H	0.889153	0.769379	0.674995
	H44	H	0.211658	0.329431	0.908872
	H45	H	0.210481	0.652096	0.115643
	H46	H	0.774828	0.328060	0.113576
	H47	H	0.774082	0.651254	0.910206
	H48	H	0.404395	0.099752	0.600427
	H49	H	0.582002	0.870823	0.612990
	H50	H	0.583244	0.103214	0.426399
	H51	H	0.402773	0.873271	0.418408
	H52	H	0.584012	0.405564	0.125523
	H53	H	0.585488	0.578628	0.900193
	H54	H	0.400724	0.573496	0.126986
	H55	H	0.400559	0.396547	0.897984
	H56	H	0.105009	0.575727	0.418980
	H57	H	0.879621	0.572454	0.600297
	H58	H	0.103047	0.401155	0.603469
	H59	H	0.875505	0.394152	0.418280
	H60	H	0.106217	0.397079	0.607984
	H61	H	0.875157	0.576010	0.610191
	H62	H	0.107245	0.585215	0.422864
	H63	H	0.878391	0.396658	0.425514
	H64	H	0.407978	0.580523	0.127310
	H65	H	0.580881	0.582076	0.899768
	H66	H	0.579481	0.396530	0.126582
	H67	H	0.400254	0.403224	0.899660
	H68	H	0.579492	0.102077	0.423863
	H69	H	0.575517	0.875586	0.603312
	H70	H	0.395154	0.103353	0.602081
	H71	H	0.401418	0.874925	0.427620
	H72	H	0.904143	0.602789	0.099707
	H73	H	0.076602	0.376600	0.104383
	H74	H	0.077753	0.604791	0.917102
	H75	H	0.897393	0.375859	0.929585
	H76	H	0.081276	0.897182	0.628153
	H77	H	0.086663	0.072670	0.399244
	H78	H	0.899853	0.079046	0.629018
	H79	H	0.899181	0.904953	0.403063
	H80	H	0.606189	0.077338	0.921249
	H81	H	0.375923	0.081700	0.106441
	H82	H	0.605523	0.906881	0.114334
	H83	H	0.374952	0.887636	0.924382
	H84	H	0.610223	0.890798	0.109855
	H85	H	0.377933	0.081999	0.101560
	H86	H	0.606591	0.082335	0.925397
	H87	H	0.382563	0.903851	0.932192
	H88	H	0.900931	0.076735	0.628304
	H89	H	0.074228	0.073116	0.403483
	H90	H	0.083018	0.896387	0.628645
	H91	H	0.903619	0.889889	0.398717
	H92	H	0.080081	0.601796	0.930079
	H93	H	0.086974	0.376114	0.096647
	H94	H	0.898826	0.606575	0.104124
	H95	H	0.897445	0.371618	0.916849
	H96	H	0.402650	0.103451	0.609148
	H97	H	0.587456	0.872035	0.601884
	H98	H	0.579641	0.101897	0.428498
	H99	H	0.394352	0.871040	0.422216
	H100	H	0.589011	0.397550	0.129418
	H101	H	0.585704	0.583992	0.897821
	H102	H	0.398110	0.583271	0.130546
	H103	H	0.406261	0.399780	0.900423
	H104	H	0.102873	0.578253	0.428823
	H105	H	0.875340	0.583411	0.601156
	H106	H	0.103916	0.394820	0.601394
	H107	H	0.878264	0.401562	0.418539
	H108	H	0.906251	0.604315	0.107477
	H109	H	0.088063	0.372626	0.108928
	H110	H	0.089965	0.606587	0.922395
	H111	H	0.908254	0.376563	0.922286
	H112	H	0.083002	0.897652	0.628275
	H113	H	0.079500	0.084173	0.398464
	H114	H	0.902464	0.078732	0.629018
	H115	H	0.888011	0.894999	0.396559
	H116	H	0.603998	0.076381	0.927568
	H117	H	0.378645	0.076782	0.104178
	H118	H	0.602410	0.901129	0.098124
	H119	H	0.377354	0.903597	0.913203
	C120	C	0.370376	-0.004261	0.634791
	C121	C	0.612979	0.979423	0.637223
	C122	C	0.610443	-0.004234	0.395510
	C123	C	0.367818	0.979060	0.392104
	C124	C	0.613982	0.368273	0.021000
	C125	C	0.614994	0.611941	1.005644
	C126	C	0.371731	0.610548	0.022409
	C127	C	0.370968	0.368248	1.004964
	C128	C	-0.000676	0.610145	0.391816
	C129	C	0.982434	0.609200	0.634813
	C130	C	-0.001323	0.366788	0.635152
	C131	C	0.983290	0.366523	0.391361
	C132	C	0.872007	0.497916	0.133941
	C133	C	0.114311	0.481582	0.134928
	C134	C	0.113382	0.497931	0.892364
	C135	C	0.870516	0.481212	0.891833
	C136	C	0.111899	0.866070	0.522187
	C137	C	0.111715	0.108553	0.506142
	C138	C	0.868934	0.108827	0.522937
	C139	C	0.867984	0.865759	0.505741
	C140	C	0.500194	0.110449	0.892469
	C141	C	0.483115	0.111106	0.136171
	C142	C	0.500168	0.867613	0.137016
	C143	C	0.484056	0.867737	0.893333
	C144	C	0.370592	0.874492	0.692355
	C145	C	0.613630	0.100680	0.695139
	C146	C	0.610583	0.874868	0.336657
	C147	C	0.365925	0.100102	0.333734
	C148	C	0.670960	0.367332	0.900159
	C149	C	0.674256	0.612819	0.125887
	C150	C	0.312703	0.612313	0.901962
	C151	C	0.312373	0.366955	0.125293
	C152	C	0.877896	0.666556	0.391383
	C153	C	0.103171	0.667527	0.634379
	C154	C	0.878373	0.308301	0.635505
	C155	C	0.103462	0.307650	0.392162
	C156	C	0.879171	0.365418	0.694151
	C157	C	0.103464	0.610587	0.692942
	C158	C	0.879155	0.610064	0.332260
	C159	C	0.103848	0.365675	0.334299
	C160	C	0.371961	0.668694	0.901697
	C161	C	0.615479	0.669178	0.127001
	C162	C	0.613595	0.308782	0.900736
	C163	C	0.370373	0.309869	0.125494
	C164	C	0.667452	0.873959	0.395010
	C165	C	0.672622	0.099735	0.639426
	C166	C	0.312965	0.874144	0.634547
	C167	C	0.308659	0.099840	0.391475
	C168	C	0.872082	0.375928	0.190551
	C169	C	0.114609	0.602780	0.193472
	C170	C	0.113184	0.376472	0.834441
	C171	C	0.870868	0.602545	0.834012
	C172	C	0.169629	0.864919	0.401566
	C173	C	0.170774	0.109571	0.626724
	C174	C	0.810246	0.108455	0.402256
	C175	C	0.812003	0.865616	0.627246
	C176	C	0.379687	0.168992	0.891176
	C177	C	0.603880	0.168333	0.136614
	C178	C	0.380072	0.808292	0.135927
	C179	C	0.605577	0.811398	0.894791
	C180	C	0.379519	0.866015	0.193754
	C181	C	0.602927	0.111599	0.195772
	C182	C	0.380051	0.111885	0.832664
	C183	C	0.604651	0.867499	0.835774
	C184	C	0.868729	0.165666	0.401683
	C185	C	0.112877	0.167572	0.626545
	C186	C	0.109502	0.809539	0.400406
	C187	C	0.869562	0.808127	0.626796
	C188	C	0.172167	0.377161	0.890809
	C189	C	0.171712	0.603250	0.135108
	C190	C	0.813926	0.376469	0.133255
	C191	C	0.813209	0.602885	0.891488
	C192	C	0.394002	0.080342	0.610673
	C193	C	0.588715	0.894826	0.612947
	C194	C	0.587397	0.080324	0.419540
	C195	C	0.392388	0.895017	0.415796
	C196	C	0.590817	0.392784	0.105305
	C197	C	0.590912	0.588352	0.921061
	C198	C	0.395611	0.586106	0.106526
	C199	C	0.395247	0.392916	0.921261
	C200	C	0.083255	0.586563	0.416470
	C201	C	0.898509	0.584552	0.610752
	C202	C	0.082536	0.390725	0.611188
	C203	C	0.899361	0.390487	0.414226
	C204	C	0.896118	0.582697	0.110663
	C205	C	0.090663	0.397013	0.110526
	C206	C	0.089649	0.582486	0.916373
	C207	C	0.894036	0.396659	0.915899
	C208	C	0.089042	0.890031	0.606364
	C209	C	0.087031	0.083809	0.422045
	C210	C	0.893644	0.085131	0.606968
	C211	C	0.890418	0.889579	0.421423
	C212	C	0.583753	0.085880	0.917416
	C213	C	0.399043	0.086984	0.111354
	C214	C	0.584328	0.892288	0.114185
	C215	C	0.400030	0.891397	0.916566
	Zn216	Zn	0.491518	-0.012208	0.764342
	Zn217	Zn	0.490418	-0.010474	0.265743
	Zn218	Zn	0.742590	0.489976	0.012779
	Zn219	Zn	0.242622	0.489877	0.013792
	Zn220	Zn	-0.009997	0.738219	0.513667
	Zn221	Zn	-0.009403	0.237567	0.513776
	Zn222	Zn	-0.008252	0.489035	0.763888
	Zn223	Zn	-0.007257	0.488881	0.262965
	Zn224	Zn	0.493220	0.739377	0.014811
	Zn225	Zn	0.492043	0.239561	0.013768
	Zn226	Zn	0.740055	-0.012942	0.515332
	Zn227	Zn	0.240818	-0.012675	0.514263
	N228	N	0.405367	0.951274	0.692951
	N229	N	0.577066	0.024840	0.693636
	N230	N	0.575902	0.951559	0.336678
	N231	N	0.402002	0.024043	0.333761
	N232	N	0.671241	0.403682	0.976037
	N233	N	0.674101	0.577923	0.049316
	N234	N	0.312532	0.576910	0.978009
	N235	N	0.312350	0.402232	0.049188
	N236	N	0.953516	0.666764	0.427599
	N237	N	0.027035	0.666693	0.598841
	N238	N	0.953767	0.309151	0.599270
	N239	N	0.027442	0.307879	0.426896
	N240	N	0.955014	0.401112	0.694055
	N241	N	0.027533	0.575001	0.693212
	N242	N	0.955724	0.575905	0.332278
	N243	N	0.028158	0.401577	0.333738
	N244	N	0.407884	0.667658	0.977664
	N245	N	0.579416	0.668785	0.051098
	N246	N	0.578747	0.309415	0.976984
	N247	N	0.406039	0.310375	0.049718
	N248	N	0.667522	0.950226	0.430975
	N249	N	0.672285	0.023179	0.604210
	N250	N	0.312829	0.950595	0.599481
	N251	N	0.309611	0.023616	0.426918
	N252	N	0.907459	0.452517	0.191082
	N253	N	0.079716	0.525975	0.193530
	N254	N	0.077384	0.452608	0.835212
	N255	N	0.905822	0.525959	0.834278
	N256	N	0.171338	0.899303	0.478163
	N257	N	0.169930	0.073506	0.550738
	N258	N	0.810200	0.073997	0.478798
	N259	N	0.811151	0.900996	0.551296
	N260	N	0.455368	0.168281	0.927481
	N261	N	0.528076	0.168452	0.100551
	N262	N	0.456227	0.809130	0.101279
	N263	N	0.529716	0.811334	0.929815
	N264	N	0.455165	0.902249	0.194466
	N265	N	0.526608	0.076853	0.195545
	N266	N	0.455975	0.076471	0.832994
	N267	N	0.528015	0.901696	0.834561
	N268	N	0.904291	0.166189	0.477795
	N269	N	0.076750	0.166906	0.550593
	N270	N	0.073974	0.810363	0.476194
	N271	N	0.903500	0.807858	0.550138
	N272	N	0.172543	0.453703	0.926066
	N273	N	0.171716	0.526863	0.099630
	N274	N	0.813512	0.453370	0.099082
	N275	N	0.812744	0.526332	0.926579
	O276	O	0.518243	0.308954	0.495241
	H277	H	0.527196	0.298742	0.477572
	H278	H	0.518541	0.308211	0.501863
	O279	O	0.605016	0.639446	0.570185
	H280	H	0.609156	0.641659	0.584087
	H281	H	0.614086	0.648925	0.580948
	O282	O	1.027630	-0.143173	0.991775
	H283	H	1.027115	-0.154154	0.990241
	H284	H	1.034361	-0.127582	0.998426
	O285	O	0.558049	0.470953	0.401819
	H286	H	0.545132	0.476367	0.398132
	H287	H	0.570352	0.466773	0.399533
	O288	O	1.087801	1.134536	1.082037
	H289	H	1.084703	1.144602	1.104451
	H290	H	1.087322	1.132723	1.079470
	O291	O	0.516543	1.426786	0.608489
	H292	H	0.505787	1.412426	0.606222
	H293	H	0.506338	1.422132	0.614470
	O294	O	0.561281	0.439440	0.515878
	H295	H	0.556807	0.444573	0.526335
	H296	H	0.558059	0.426346	0.523106
	O297	O	0.303351	0.487585	0.445602
	H298	H	0.304513	0.490284	0.450376
	H299	H	0.298813	0.497748	0.438731
	O300	O	0.524963	0.533371	0.599137
	H301	H	0.526740	0.529378	0.592513
	H302	H	0.525772	0.540951	0.596858
	O303	O	0.662280	0.304272	0.434688
	H304	H	0.669768	0.323984	0.421802
	H305	H	0.677757	0.288670	0.430212
	O306	O	0.593949	0.469415	0.391668
	H307	H	0.583119	0.449455	0.405313
	H308	H	0.597012	0.476165	0.389246
	O309	O	0.336896	0.573193	0.535969
	H310	H	0.348588	0.565765	0.545041
	H311	H	0.332613	0.574351	0.537887
	O312	O	0.084387	-0.038903	0.207043
	H313	H	0.085144	-0.032734	0.213802
	H314	H	0.089874	-0.043492	0.200451
	O315	O	0.563395	0.349115	0.594384
	H316	H	0.566265	0.350482	0.564617
	H317	H	0.574876	0.329760	0.601598
	O318	O	-0.080082	0.891516	1.140234
	H319	H	-0.084330	0.886293	1.151557
	H320	H	-0.069726	0.887818	1.142213
	O321	O	0.491481	0.506565	0.349421
	H322	H	0.513670	0.498014	0.349512
	H323	H	0.491011	0.503468	0.352116
	O324	O	0.312749	0.667741	-0.262776
	H325	H	0.315387	0.668388	-0.257943
	H326	H	0.321680	0.671433	-0.257614
	O327	O	-0.021503	1.127461	0.093653
	H328	H	-0.023485	1.122722	0.092350
	H329	H	-0.030026	1.123707	0.096503
	O330	O	0.056781	0.016753	0.861747
	H331	H	0.068928	0.010718	0.851886
	H332	H	0.050475	0.023042	0.870990
	O333	O	0.056713	0.047713	0.847947
	H334	H	0.063834	0.044257	0.845581
	H335	H	0.065387	0.050461	0.851924
	O336	O	0.510312	0.283096	0.378688
	H337	H	0.517507	0.294449	0.372321
	H338	H	0.520499	0.265155	0.363026
	O339	O	0.928647	0.010645	-0.032613
	H340	H	0.937646	0.001040	-0.027521
	H341	H	0.930778	0.022356	-0.035545
	O342	O	0.172446	0.115216	0.200978
	H343	H	0.163075	0.116962	0.213263
	H344	H	0.176835	0.114201	0.206761
	O345	O	1.079434	-0.133018	0.947764
	H346	H	1.075069	-0.119811	0.948298
	H347	H	1.073931	-0.128483	0.943763
	O348	O	1.180575	0.919291	0.004215
	H349	H	1.179681	0.922227	0.003560
	H350	H	1.190421	0.920994	0.004581
	O351	O	0.526062	0.576700	0.443745
	H352	H	0.528247	0.565267	0.438351
	H353	H	0.520976	0.568229	0.448497
	O354	O	0.874247	-0.165251	1.078611
	H355	H	0.883039	-0.166612	1.081048
	H356	H	0.874027	-0.176230	1.072002
	O357	O	0.497737	0.633216	0.596805
	H358	H	0.510928	0.645299	0.583061
	H359	H	0.492176	0.632298	0.586522
	O360	O	0.832704	-0.033612	0.003022
	H361	H	0.839093	-0.044226	-0.010353
	H362	H	0.836396	-0.036074	0.001691
	O363	O	0.047610	1.150397	0.961503
	H364	H	0.054881	1.157419	0.960129
	H365	H	0.047613	1.149739	0.979149
	O366	O	0.638484	0.476105	0.589707
	H367	H	0.650529	0.485646	0.595329
	H368	H	0.636438	0.475307	0.591078
	O369	O	-0.386907	0.505861	-0.389220
	H370	H	-0.389424	0.490177	-0.400576
	H371	H	-0.370491	0.500424	-0.380408
	O372	O	0.435520	0.444827	0.685257
	H373	H	0.437007	0.445676	0.681187
	H374	H	0.430294	0.435311	0.695552
	O375	O	0.505624	0.643345	0.445669
	H376	H	0.511259	0.638587	0.449020
	H377	H	0.512479	0.639421	0.441505
	O378	O	0.860364	1.130605	0.169319
	H379	H	0.860828	1.126514	0.153567
	H380	H	0.855181	1.104455	0.159465
	O381	O	0.830172	-0.010264	-0.067225
	H382	H	0.827952	-0.017375	-0.066879
	H383	H	0.828565	-0.009551	-0.070810
	O384	O	0.978407	0.930617	0.170587
	H385	H	0.982741	0.930110	0.176520
	H386	H	0.995592	0.934899	0.156425
	O387	O	0.169175	-0.013531	0.029396
	H388	H	0.160571	-0.010506	0.030186
	H389	H	0.171042	-0.012516	0.027134
	O390	O	0.315037	1.307632	-0.369939
	H391	H	0.312122	1.316921	-0.380386
	H392	H	0.304938	1.309338	-0.371568
	O393	O	0.929396	1.064045	1.003680
	H394	H	0.916359	1.065507	1.001271
	H395	H	0.943852	1.061296	0.994423
	O396	O	0.431745	0.429029	0.433862
	H397	H	0.428571	0.432893	0.442490
	H398	H	0.435204	0.423718	0.435903
	O399	O	-0.098225	1.132300	0.948911
	H400	H	-0.088016	1.142113	0.936631
	H401	H	-0.100972	1.139068	0.960621
	O402	O	0.412295	0.408082	0.394307
	H403	H	0.397241	0.413218	0.399418
	H404	H	0.399039	0.418425	0.384726
	O405	O	1.027982	0.942671	-0.027551
	H406	H	1.030862	0.935069	-0.028343
	H407	H	1.031596	0.933835	-0.034430
	O408	O	1.315957	1.136269	-0.171599
	H409	H	1.316000	1.142910	-0.175261
	H410	H	1.317320	1.133856	-0.169528
	O411	O	0.999140	-0.065529	0.914022
	H412	H	0.996614	-0.065008	0.914176
	H413	H	1.006124	-0.056820	0.925732
	O414	O	0.364613	0.662614	0.432150
	H415	H	0.390679	0.664239	0.449551
	H416	H	0.369344	0.663868	0.445151
	O417	O	0.300801	0.587117	0.332041
	H418	H	0.295569	0.607618	0.339007
	H419	H	0.295687	0.601797	0.319532
