data_Molecule from HDF5

_cell_length_a		16.295661
_cell_length_b		16.348167
_cell_length_c		16.341447
_cell_angle_alpha	89.903137
_cell_angle_beta	89.906721
_cell_angle_gamma	90.079577
_symmetry_space_group_name_H-M	'P 1'
_symmetry_Int_Tables_number		1

loop_
	_symmetry_equiv_pos_as_xyz
	x,y,z

loop_
	_atom_site_label
	_atom_site_type_symbol
	_atom_site_fract_x
	_atom_site_fract_y
	_atom_site_fract_z
	H0	H	0.401041	0.837105	0.716380
	H1	H	0.598175	0.163351	0.714244
	H2	H	0.597649	0.837360	0.284460
	H3	H	0.400923	0.162688	0.284456
	H4	H	0.714140	0.403282	0.836496
	H5	H	0.712985	0.596230	0.163941
	H6	H	0.286637	0.598515	0.836307
	H7	H	0.286185	0.402557	0.163585
	H8	H	0.836270	0.714538	0.401294
	H9	H	0.163409	0.715014	0.597987
	H10	H	0.837074	0.284424	0.599559
	H11	H	0.163020	0.285205	0.401086
	H12	H	0.836557	0.402713	0.713910
	H13	H	0.163535	0.598786	0.713975
	H14	H	0.836184	0.597679	0.285555
	H15	H	0.163730	0.402518	0.285690
	H16	H	0.402252	0.715492	0.837316
	H17	H	0.597234	0.714106	0.163410
	H18	H	0.598814	0.285518	0.836859
	H19	H	0.401611	0.284909	0.163028
	H20	H	0.712478	0.836217	0.402931
	H21	H	0.714979	0.162810	0.598515
	H22	H	0.285946	0.836408	0.598745
	H23	H	0.287367	0.163269	0.403489
	H24	H	0.901843	0.336449	0.214208
	H25	H	0.097723	0.663002	0.213399
	H26	H	0.098230	0.337155	0.784707
	H27	H	0.901041	0.662780	0.783729
	H28	H	0.215375	0.901752	0.337191
	H29	H	0.214415	0.097113	0.663575
	H30	H	0.785413	0.098570	0.337156
	H31	H	0.786137	0.901952	0.663569
	H32	H	0.336765	0.215378	0.901414
	H33	H	0.663523	0.214515	0.098265
	H34	H	0.336455	0.784993	0.099107
	H35	H	0.663443	0.786300	0.902382
	H36	H	0.336140	0.901827	0.214487
	H37	H	0.663491	0.097801	0.213406
	H38	H	0.336471	0.098319	0.785741
	H39	H	0.663678	0.903320	0.786869
	H40	H	0.902438	0.215080	0.337168
	H41	H	0.098925	0.214803	0.663050
	H42	H	0.098846	0.785989	0.336957
	H43	H	0.902183	0.785180	0.662734
	H44	H	0.214141	0.336964	0.901336
	H45	H	0.213873	0.663577	0.095975
	H46	H	0.786687	0.336373	0.097131
	H47	H	0.785939	0.663200	0.902336
	H48	H	0.408256	0.113500	0.585731
	H49	H	0.596177	0.884331	0.588476
	H50	H	0.598380	0.116046	0.409272
	H51	H	0.408858	0.883730	0.403186
	H52	H	0.590929	0.399953	0.117136
	H53	H	0.588339	0.604720	0.882575
	H54	H	0.407919	0.595662	0.115591
	H55	H	0.400135	0.410119	0.883160
	H56	H	0.113793	0.591095	0.411302
	H57	H	0.886793	0.589804	0.587919
	H58	H	0.116850	0.404097	0.591851
	H59	H	0.886171	0.414201	0.407984
	H60	H	0.115533	0.408700	0.591821
	H61	H	0.883134	0.590242	0.597867
	H62	H	0.116597	0.590588	0.401199
	H63	H	0.880718	0.403651	0.399936
	H64	H	0.402650	0.593532	0.116836
	H65	H	0.604627	0.592416	0.881511
	H66	H	0.599811	0.407451	0.117626
	H67	H	0.413468	0.410555	0.887145
	H68	H	0.593025	0.117774	0.401393
	H69	H	0.596208	0.881680	0.599756
	H70	H	0.400750	0.117652	0.595172
	H71	H	0.408979	0.885106	0.409506
	H72	H	0.911025	0.613028	0.090518
	H73	H	0.086697	0.383354	0.100747
	H74	H	0.087752	0.613171	0.907241
	H75	H	0.905655	0.383970	0.908036
	H76	H	0.093071	0.903896	0.616887
	H77	H	0.094183	0.079214	0.387803
	H78	H	0.910385	0.091015	0.614167
	H79	H	0.905856	0.905781	0.383370
	H80	H	0.617162	0.105980	0.917239
	H81	H	0.383918	0.088198	0.096535
	H82	H	0.618744	0.904116	0.099711
	H83	H	0.384541	0.910918	0.907366
	H84	H	0.615957	0.901914	0.086813
	H85	H	0.381196	0.098941	0.096375
	H86	H	0.610152	0.078905	0.912149
	H87	H	0.382318	0.904981	0.904082
	H88	H	0.905753	0.096118	0.617333
	H89	H	0.081898	0.100923	0.386430
	H90	H	0.095008	0.908096	0.616175
	H91	H	0.905693	0.906976	0.383311
	H92	H	0.097483	0.615661	0.910500
	H93	H	0.089731	0.387461	0.084924
	H94	H	0.902136	0.616443	0.090739
	H95	H	0.906065	0.383407	0.904891
	H96	H	0.412883	0.114322	0.597848
	H97	H	0.587059	0.885971	0.594797
	H98	H	0.588813	0.113574	0.409337
	H99	H	0.403320	0.882682	0.407165
	H100	H	0.589123	0.410887	0.113471
	H101	H	0.586829	0.585366	0.888908
	H102	H	0.406970	0.589593	0.115334
	H103	H	0.408489	0.399225	0.881981
	H104	H	0.117876	0.599681	0.406117
	H105	H	0.881971	0.599064	0.591230
	H106	H	0.117675	0.406690	0.595941
	H107	H	0.883732	0.401576	0.413636
	H108	H	0.908271	0.617026	0.098432
	H109	H	0.102142	0.381132	0.094534
	H110	H	0.094579	0.618059	0.900540
	H111	H	0.908070	0.384734	0.906395
	H112	H	0.090636	0.907668	0.615204
	H113	H	0.105934	0.099735	0.378540
	H114	H	0.903387	0.090013	0.615960
	H115	H	0.906635	0.906388	0.383894
	H116	H	0.620857	0.095153	0.891279
	H117	H	0.385087	0.094107	0.086926
	H118	H	0.613727	0.913668	0.092176
	H119	H	0.383696	0.904436	0.910617
	C120	C	0.378776	0.007554	0.622076
	C121	C	0.621583	0.991942	0.622175
	C122	C	0.621809	0.008397	0.378044
	C123	C	0.378751	0.991530	0.378590
	C124	C	0.621574	0.378466	0.007990
	C125	C	0.621385	0.621543	0.992116
	C126	C	0.378038	0.621497	0.008336
	C127	C	0.378660	0.378164	0.991912
	C128	C	0.007940	0.622172	0.377759
	C129	C	0.992149	0.621400	0.620499
	C130	C	0.008495	0.378250	0.621536
	C131	C	0.991749	0.378545	0.378847
	C132	C	0.878457	0.507877	0.121790
	C133	C	0.121386	0.491539	0.121188
	C134	C	0.121703	0.508119	0.877518
	C135	C	0.878147	0.491844	0.877910
	C136	C	0.121443	0.878542	0.508342
	C137	C	0.122173	0.121707	0.492046
	C138	C	0.878586	0.121128	0.508195
	C139	C	0.878475	0.878242	0.491633
	C140	C	0.508231	0.121632	0.878894
	C141	C	0.491550	0.121680	0.121505
	C142	C	0.507828	0.878717	0.121600
	C143	C	0.491508	0.878719	0.878861
	C144	C	0.381027	0.885560	0.677801
	C145	C	0.618635	0.114642	0.676372
	C146	C	0.618526	0.885820	0.322951
	C147	C	0.380793	0.114181	0.323036
	C148	C	0.676496	0.381989	0.885191
	C149	C	0.675821	0.617727	0.115069
	C150	C	0.324119	0.618914	0.885181
	C151	C	0.323625	0.381391	0.114775
	C152	C	0.885049	0.676693	0.380756
	C153	C	0.114822	0.676937	0.618298
	C154	C	0.885603	0.322691	0.619295
	C155	C	0.114783	0.323800	0.381108
	C156	C	0.885503	0.381191	0.676358
	C157	C	0.114736	0.619384	0.676118
	C158	C	0.884985	0.618936	0.323117
	C159	C	0.114961	0.382004	0.323898
	C160	C	0.381270	0.677298	0.885789
	C161	C	0.618590	0.676271	0.114958
	C162	C	0.619051	0.323571	0.885312
	C163	C	0.381525	0.323537	0.114749
	C164	C	0.675759	0.885306	0.381332
	C165	C	0.676523	0.114387	0.618708
	C166	C	0.323501	0.885114	0.619519
	C167	C	0.324170	0.114442	0.381755
	C168	C	0.880902	0.385374	0.176874
	C169	C	0.118498	0.614641	0.175627
	C170	C	0.118661	0.385538	0.822841
	C171	C	0.880852	0.614333	0.822505
	C172	C	0.177115	0.881307	0.385629
	C173	C	0.176704	0.118314	0.614903
	C174	C	0.823848	0.118659	0.385549
	C175	C	0.823693	0.880906	0.614631
	C176	C	0.385270	0.177035	0.881048
	C177	C	0.614742	0.176410	0.118571
	C178	C	0.384898	0.823536	0.119340
	C179	C	0.614623	0.824005	0.881468
	C180	C	0.384816	0.881566	0.176617
	C181	C	0.614778	0.118442	0.175726
	C182	C	0.385327	0.119435	0.823250
	C183	C	0.614871	0.882519	0.824628
	C184	C	0.881618	0.176772	0.385688
	C185	C	0.119218	0.176507	0.614695
	C186	C	0.119333	0.823680	0.385620
	C187	C	0.881176	0.822866	0.614404
	C188	C	0.176380	0.385595	0.880676
	C189	C	0.175922	0.614906	0.117183
	C190	C	0.824099	0.385055	0.118198
	C191	C	0.823621	0.614505	0.881214
	C192	C	0.400841	0.093278	0.599470
	C193	C	0.599604	0.906073	0.600682
	C194	C	0.599878	0.093731	0.400063
	C195	C	0.400480	0.905971	0.400125
	C196	C	0.599642	0.399790	0.093936
	C197	C	0.599473	0.600509	0.906523
	C198	C	0.399546	0.599547	0.093895
	C199	C	0.400882	0.400093	0.906105
	C200	C	0.094042	0.600269	0.399784
	C201	C	0.906122	0.599331	0.598801
	C202	C	0.094608	0.400147	0.599687
	C203	C	0.905645	0.400095	0.400946
	C204	C	0.900634	0.593484	0.099679
	C205	C	0.099312	0.406201	0.099740
	C206	C	0.099660	0.593694	0.899415
	C207	C	0.900101	0.406217	0.900012
	C208	C	0.099271	0.900186	0.593999
	C209	C	0.100416	0.099834	0.406473
	C210	C	0.900272	0.098990	0.593833
	C211	C	0.899904	0.900044	0.405754
	C212	C	0.593921	0.099839	0.900715
	C213	C	0.405513	0.099976	0.099864
	C214	C	0.593969	0.900250	0.099397
	C215	C	0.405631	0.900286	0.901079
	Zn216	Zn	0.500163	0.000472	0.750729
	Zn217	Zn	0.499757	0.000415	0.249813
	Zn218	Zn	0.750193	0.499934	0.000303
	Zn219	Zn	0.250050	0.500087	-0.000288
	Zn220	Zn	0.000026	0.750206	0.499804
	Zn221	Zn	0.000595	0.249986	0.500287
	Zn222	Zn	0.000122	0.500105	0.749356
	Zn223	Zn	-0.000373	0.499753	0.250293
	Zn224	Zn	0.499651	0.750436	0.000489
	Zn225	Zn	0.500168	0.249567	-0.000151
	Zn226	Zn	0.749579	-0.000335	0.500042
	Zn227	Zn	0.249981	-0.000609	0.500072
	N228	N	0.414665	0.962751	0.679261
	N229	N	0.585246	0.037419	0.678632
	N230	N	0.585678	0.963209	0.320703
	N231	N	0.413988	0.036833	0.320964
	N232	N	0.678065	0.415369	0.962307
	N233	N	0.677608	0.584405	0.037859
	N234	N	0.321890	0.585155	0.962295
	N235	N	0.321775	0.414674	0.037461
	N236	N	0.962648	0.678754	0.413963
	N237	N	0.037605	0.678126	0.584405
	N238	N	0.963216	0.320860	0.585943
	N239	N	0.037264	0.321620	0.414553
	N240	N	0.962807	0.415016	0.677651
	N241	N	0.037374	0.585501	0.677590
	N242	N	0.962433	0.585675	0.321269
	N243	N	0.037320	0.415112	0.322197
	N244	N	0.414171	0.679031	0.963334
	N245	N	0.585169	0.678642	0.037836
	N246	N	0.585744	0.321293	0.962728
	N247	N	0.414911	0.321492	0.037414
	N248	N	0.677487	0.962340	0.415193
	N249	N	0.678361	0.037000	0.585776
	N250	N	0.322227	0.962035	0.585278
	N251	N	0.322888	0.037460	0.415818
	N252	N	0.914176	0.462683	0.178996
	N253	N	0.085482	0.537155	0.178362
	N254	N	0.085174	0.462757	0.821029
	N255	N	0.914111	0.537091	0.820468
	N256	N	0.178544	0.914702	0.462807
	N257	N	0.178710	0.084935	0.537733
	N258	N	0.821792	0.084911	0.462598
	N259	N	0.821926	0.914559	0.537509
	N260	N	0.462426	0.178334	0.914921
	N261	N	0.537145	0.178540	0.085629
	N262	N	0.462313	0.821853	0.085597
	N263	N	0.536906	0.821523	0.914656
	N264	N	0.462197	0.915233	0.177822
	N265	N	0.537237	0.085063	0.177716
	N266	N	0.462637	0.085577	0.821920
	N267	N	0.537437	0.915598	0.823019
	N268	N	0.915053	0.178356	0.462864
	N269	N	0.085762	0.178358	0.537453
	N270	N	0.085445	0.821890	0.462923
	N271	N	0.914413	0.821053	0.536891
	N272	N	0.178250	0.462634	0.914095
	N273	N	0.177638	0.537692	0.083876
	N274	N	0.822723	0.462206	0.084588
	N275	N	0.821875	0.537297	0.914825
