data_Molecule from HDF5

_cell_length_a		16.283412
_cell_length_b		16.334375
_cell_length_c		16.364376
_cell_angle_alpha	89.941607
_cell_angle_beta	89.937221
_cell_angle_gamma	90.000726
_symmetry_space_group_name_H-M	'P 1'
_symmetry_Int_Tables_number		1

loop_
	_symmetry_equiv_pos_as_xyz
	x,y,z

loop_
	_atom_site_label
	_atom_site_type_symbol
	_atom_site_fract_x
	_atom_site_fract_y
	_atom_site_fract_z
	H0	H	0.401789	0.837627	0.715592
	H1	H	0.598378	0.163403	0.714616
	H2	H	0.599415	0.837087	0.284295
	H3	H	0.402096	0.163581	0.285596
	H4	H	0.714431	0.403094	0.836519
	H5	H	0.713240	0.596966	0.163825
	H6	H	0.287076	0.597048	0.835865
	H7	H	0.286423	0.403081	0.162622
	H8	H	0.836433	0.715504	0.400595
	H9	H	0.163672	0.713275	0.597166
	H10	H	0.836122	0.285467	0.597537
	H11	H	0.164388	0.286270	0.402537
	H12	H	0.836423	0.400180	0.715697
	H13	H	0.163245	0.596817	0.713803
	H14	H	0.835821	0.596892	0.286925
	H15	H	0.163007	0.401309	0.284920
	H16	H	0.402671	0.714954	0.836722
	H17	H	0.597281	0.714853	0.163703
	H18	H	0.598560	0.285876	0.837305
	H19	H	0.401622	0.285381	0.162591
	H20	H	0.713678	0.836032	0.403313
	H21	H	0.713769	0.164276	0.596855
	H22	H	0.286687	0.835610	0.598062
	H23	H	0.286417	0.163540	0.403130
	H24	H	0.901969	0.336195	0.213868
	H25	H	0.097781	0.662988	0.214545
	H26	H	0.098428	0.336591	0.786221
	H27	H	0.900890	0.662485	0.784260
	H28	H	0.214298	0.902545	0.336649
	H29	H	0.214966	0.097524	0.663075
	H30	H	0.786101	0.097090	0.336327
	H31	H	0.785958	0.903066	0.663337
	H32	H	0.336892	0.215272	0.901043
	H33	H	0.664169	0.213525	0.096738
	H34	H	0.335790	0.787291	0.097810
	H35	H	0.664039	0.786710	0.902566
	H36	H	0.336156	0.902220	0.214270
	H37	H	0.662875	0.097843	0.213846
	H38	H	0.336455	0.098512	0.785021
	H39	H	0.663930	0.902638	0.786102
	H40	H	0.902778	0.213702	0.336502
	H41	H	0.098029	0.213596	0.663343
	H42	H	0.098269	0.785782	0.336533
	H43	H	0.901315	0.784817	0.662952
	H44	H	0.214245	0.336509	0.903353
	H45	H	0.212266	0.664060	0.095524
	H46	H	0.785523	0.336485	0.097506
	H47	H	0.787334	0.664146	0.903344
	H48	H	0.406090	0.116744	0.595031
	H49	H	0.591238	0.882991	0.601004
	H50	H	0.601576	0.117101	0.408350
	H51	H	0.398915	0.880375	0.401001
	H52	H	0.592777	0.411530	0.113851
	H53	H	0.591523	0.595476	0.885634
	H54	H	0.411706	0.589037	0.112513
	H55	H	0.408515	0.400525	0.882332
	H56	H	0.117270	0.596392	0.405537
	H57	H	0.884094	0.591352	0.591696
	H58	H	0.117717	0.400725	0.593286
	H59	H	0.886295	0.407753	0.413439
	H60	H	0.114159	0.409428	0.588700
	H61	H	0.882644	0.592430	0.594566
	H62	H	0.115025	0.592281	0.409677
	H63	H	0.883284	0.410662	0.402473
	H64	H	0.407824	0.602939	0.117423
	H65	H	0.595888	0.595877	0.883443
	H66	H	0.589340	0.402898	0.115362
	H67	H	0.401308	0.410088	0.882815
	H68	H	0.590510	0.117514	0.398088
	H69	H	0.587985	0.887311	0.589734
	H70	H	0.408954	0.115197	0.592910
	H71	H	0.414923	0.884864	0.400535
	H72	H	0.910367	0.615434	0.095836
	H73	H	0.094165	0.386074	0.086706
	H74	H	0.097393	0.615031	0.912320
	H75	H	0.901743	0.382593	0.906166
	H76	H	0.088022	0.912162	0.611829
	H77	H	0.096195	0.098764	0.382442
	H78	H	0.906973	0.090572	0.614710
	H79	H	0.908663	0.902690	0.383568
	H80	H	0.615110	0.095579	0.911584
	H81	H	0.379710	0.105813	0.092681
	H82	H	0.612817	0.915989	0.089063
	H83	H	0.383668	0.912507	0.903276
	H84	H	0.618987	0.906585	0.103977
	H85	H	0.387752	0.088615	0.083945
	H86	H	0.614924	0.087911	0.906273
	H87	H	0.381495	0.901711	0.904797
	H88	H	0.909011	0.096022	0.615886
	H89	H	0.096747	0.088959	0.384850
	H90	H	0.089648	0.897269	0.617247
	H91	H	0.902294	0.906895	0.383318
	H92	H	0.097735	0.619145	0.899933
	H93	H	0.097590	0.381596	0.096490
	H94	H	0.906782	0.614621	0.090593
	H95	H	0.910069	0.384149	0.902583
	H96	H	0.404891	0.115537	0.590733
	H97	H	0.599752	0.883160	0.592039
	H98	H	0.587377	0.112336	0.411986
	H99	H	0.406343	0.886134	0.414510
	H100	H	0.597957	0.405046	0.117574
	H101	H	0.594751	0.591615	0.885282
	H102	H	0.397529	0.591708	0.117534
	H103	H	0.412599	0.410873	0.886615
	H104	H	0.116253	0.590470	0.404346
	H105	H	0.883444	0.594270	0.592581
	H106	H	0.117091	0.409364	0.599034
	H107	H	0.881299	0.399949	0.405912
	H108	H	0.904118	0.617645	0.096288
	H109	H	0.086656	0.385134	0.095692
	H110	H	0.086733	0.614511	0.904565
	H111	H	0.908837	0.385166	0.911791
	H112	H	0.101718	0.907815	0.617581
	H113	H	0.088161	0.093629	0.385676
	H114	H	0.903026	0.094453	0.616335
	H115	H	0.908971	0.910487	0.386014
	H116	H	0.618245	0.095649	0.902451
	H117	H	0.381967	0.088505	0.103970
	H118	H	0.617252	0.898048	0.087878
	H119	H	0.385819	0.907480	0.913268
	C120	C	0.378409	0.007903	0.621563
	C121	C	0.621179	0.992386	0.621696
	C122	C	0.621184	0.007591	0.378714
	C123	C	0.378350	0.991801	0.377822
	C124	C	0.621851	0.378351	0.008155
	C125	C	0.621684	0.622212	0.992328
	C126	C	0.378139	0.622358	0.007736
	C127	C	0.379014	0.379095	0.991709
	C128	C	0.007916	0.621177	0.378482
	C129	C	0.991497	0.620568	0.620839
	C130	C	0.008229	0.377998	0.621859
	C131	C	0.991889	0.378165	0.378924
	C132	C	0.878451	0.507567	0.122175
	C133	C	0.121525	0.491979	0.121474
	C134	C	0.121789	0.508000	0.878081
	C135	C	0.878648	0.492028	0.878605
	C136	C	0.121771	0.877614	0.507807
	C137	C	0.122012	0.121556	0.492207
	C138	C	0.877992	0.121603	0.507836
	C139	C	0.878160	0.878107	0.491779
	C140	C	0.508256	0.121668	0.878224
	C141	C	0.491387	0.122142	0.121646
	C142	C	0.508035	0.878902	0.121443
	C143	C	0.492025	0.879277	0.878981
	C144	C	0.381342	0.885639	0.677176
	C145	C	0.618729	0.115176	0.676576
	C146	C	0.619248	0.885348	0.323215
	C147	C	0.381273	0.114802	0.323321
	C148	C	0.677001	0.381539	0.885518
	C149	C	0.676125	0.618724	0.115168
	C150	C	0.324462	0.618596	0.884783
	C151	C	0.323852	0.381919	0.114208
	C152	C	0.884912	0.676301	0.380967
	C153	C	0.114879	0.675231	0.618094
	C154	C	0.884839	0.323166	0.618743
	C155	C	0.115158	0.323837	0.381681
	C156	C	0.884906	0.380376	0.677076
	C157	C	0.114642	0.617437	0.675915
	C158	C	0.884604	0.617717	0.324331
	C159	C	0.114890	0.380981	0.323562
	C160	C	0.381941	0.677049	0.885132
	C161	C	0.618416	0.676944	0.114984
	C162	C	0.619388	0.323509	0.885630
	C163	C	0.381126	0.323691	0.114025
	C164	C	0.676211	0.884778	0.382007
	C165	C	0.676017	0.115228	0.618192
	C166	C	0.324545	0.884771	0.618422
	C167	C	0.324224	0.114975	0.382001
	C168	C	0.881057	0.385027	0.176720
	C169	C	0.118482	0.614588	0.176198
	C170	C	0.118770	0.385207	0.824031
	C171	C	0.880889	0.614439	0.823158
	C172	C	0.176790	0.881293	0.385392
	C173	C	0.176771	0.118215	0.614591
	C174	C	0.823734	0.118195	0.385024
	C175	C	0.823618	0.881631	0.614808
	C176	C	0.385202	0.176944	0.880800
	C177	C	0.614964	0.176378	0.118211
	C178	C	0.384684	0.824885	0.118409
	C179	C	0.615282	0.824852	0.881914
	C180	C	0.385039	0.881876	0.176396
	C181	C	0.614520	0.118795	0.176143
	C182	C	0.385292	0.119049	0.823167
	C183	C	0.615024	0.882088	0.823847
	C184	C	0.881511	0.176102	0.385197
	C185	C	0.118593	0.175869	0.614759
	C186	C	0.119448	0.823117	0.385440
	C187	C	0.880949	0.823223	0.614487
	C188	C	0.176472	0.385170	0.881913
	C189	C	0.175437	0.615089	0.117375
	C190	C	0.823560	0.385180	0.118561
	C191	C	0.824616	0.615010	0.882313
	C192	C	0.400252	0.093680	0.599524
	C193	C	0.599555	0.906668	0.600424
	C194	C	0.599499	0.093314	0.400020
	C195	C	0.400167	0.905891	0.399284
	C196	C	0.599757	0.400049	0.093562
	C197	C	0.600333	0.600792	0.906948
	C198	C	0.399544	0.600751	0.093590
	C199	C	0.401051	0.400951	0.905993
	C200	C	0.093891	0.599617	0.400158
	C201	C	0.905668	0.599156	0.599193
	C202	C	0.093862	0.399960	0.600141
	C203	C	0.905812	0.399760	0.400784
	C204	C	0.900580	0.593920	0.100620
	C205	C	0.099333	0.406174	0.099442
	C206	C	0.100274	0.593998	0.899145
	C207	C	0.900468	0.406041	0.900423
	C208	C	0.099692	0.899337	0.593527
	C209	C	0.100126	0.099992	0.406369
	C210	C	0.899797	0.099998	0.593495
	C211	C	0.900274	0.899941	0.406491
	C212	C	0.594134	0.099619	0.900374
	C213	C	0.405436	0.100717	0.100006
	C214	C	0.594218	0.900411	0.099958
	C215	C	0.405876	0.900854	0.900754
	Zn216	Zn	0.499830	0.000499	0.750215
	Zn217	Zn	0.499790	-0.000041	0.249416
	Zn218	Zn	0.750334	0.500134	0.000148
	Zn219	Zn	0.250193	0.499972	-0.000298
	Zn220	Zn	-0.000227	0.749481	0.499698
	Zn221	Zn	0.000125	0.250110	0.500011
	Zn222	Zn	-0.000251	0.499466	0.750115
	Zn223	Zn	-0.000003	0.499245	0.250650
	Zn224	Zn	0.499734	0.751176	0.000104
	Zn225	Zn	0.499786	0.250115	-0.000187
	Zn226	Zn	0.749902	-0.000246	0.500243
	Zn227	Zn	0.250096	-0.000559	0.499797
	N228	N	0.414209	0.963166	0.678955
	N229	N	0.585500	0.037827	0.678906
	N230	N	0.585831	0.962710	0.320925
	N231	N	0.414311	0.037393	0.320839
	N232	N	0.678484	0.415046	0.962562
	N233	N	0.678181	0.585302	0.038086
	N234	N	0.321940	0.585562	0.962067
	N235	N	0.322605	0.415613	0.037108
	N236	N	0.962434	0.678312	0.414172
	N237	N	0.037611	0.677394	0.584694
	N238	N	0.962263	0.321463	0.585344
	N239	N	0.037862	0.322185	0.415484
	N240	N	0.962466	0.413850	0.679135
	N241	N	0.037007	0.584177	0.677850
	N242	N	0.962164	0.584365	0.322369
	N243	N	0.037200	0.414095	0.321854
	N244	N	0.414615	0.679263	0.962653
	N245	N	0.585585	0.679566	0.037565
	N246	N	0.585927	0.321223	0.962812
	N247	N	0.414667	0.321972	0.036917
	N248	N	0.677409	0.961734	0.415800
	N249	N	0.677663	0.038006	0.584756
	N250	N	0.322597	0.961835	0.584639
	N251	N	0.322370	0.037571	0.415206
	N252	N	0.914344	0.462425	0.179007
	N253	N	0.085886	0.537032	0.178857
	N254	N	0.085566	0.462525	0.821620
	N255	N	0.913918	0.536962	0.821028
	N256	N	0.178109	0.914487	0.462553
	N257	N	0.178734	0.084966	0.537457
	N258	N	0.821539	0.084951	0.462349
	N259	N	0.821634	0.914959	0.537660
	N260	N	0.462585	0.178596	0.914415
	N261	N	0.537389	0.178526	0.084760
	N262	N	0.462122	0.822951	0.084990
	N263	N	0.537882	0.822965	0.915305
	N264	N	0.462809	0.914711	0.178407
	N265	N	0.537025	0.085625	0.177963
	N266	N	0.462625	0.085410	0.821737
	N267	N	0.537383	0.915490	0.822076
	N268	N	0.914522	0.178242	0.462378
	N269	N	0.085216	0.177813	0.537515
	N270	N	0.085805	0.820872	0.462579
	N271	N	0.914446	0.821240	0.537200
	N272	N	0.178250	0.462512	0.914916
	N273	N	0.177384	0.537783	0.084001
	N274	N	0.821911	0.462646	0.085532
	N275	N	0.823057	0.537816	0.915939
