data_Molecule from HDF5

_cell_length_a		16.667885
_cell_length_b		16.556555
_cell_length_c		16.751903
_cell_angle_alpha	90.028203
_cell_angle_beta	90.189991
_cell_angle_gamma	89.893915
_symmetry_space_group_name_H-M	'P 1'
_symmetry_Int_Tables_number		1

loop_
	_symmetry_equiv_pos_as_xyz
	x,y,z

loop_
	_atom_site_label
	_atom_site_type_symbol
	_atom_site_fract_x
	_atom_site_fract_y
	_atom_site_fract_z
	H0	H	0.386464	0.842131	0.735998
	H1	H	0.603755	0.149152	0.735283
	H2	H	0.605302	0.842354	0.287090
	H3	H	0.388793	0.150865	0.289057
	H4	H	0.716326	0.391882	0.856804
	H5	H	0.720602	0.604298	0.163414
	H6	H	0.270986	0.603802	0.858813
	H7	H	0.271796	0.387361	0.164870
	H8	H	0.841474	0.718574	0.404099
	H9	H	0.151038	0.716381	0.615079
	H10	H	0.844560	0.271058	0.621514
	H11	H	0.150412	0.272891	0.407285
	H12	H	0.843223	0.388521	0.735537
	H13	H	0.150618	0.603014	0.733853
	H14	H	0.842236	0.603196	0.287676
	H15	H	0.149728	0.387276	0.289870
	H16	H	0.388378	0.718368	0.858124
	H17	H	0.601254	0.718019	0.164437
	H18	H	0.599114	0.276187	0.856709
	H19	H	0.389214	0.271809	0.164382
	H20	H	0.720784	0.843019	0.402608
	H21	H	0.718820	0.148936	0.619916
	H22	H	0.274761	0.840033	0.616965
	H23	H	0.275571	0.151709	0.406124
	H24	H	0.889689	0.341177	0.233591
	H25	H	0.104050	0.650627	0.235397
	H26	H	0.102063	0.340619	0.791514
	H27	H	0.890721	0.652292	0.791474
	H28	H	0.219918	0.886199	0.357548
	H29	H	0.217351	0.098704	0.665007
	H30	H	0.765659	0.109380	0.362573
	H31	H	0.769851	0.885895	0.662974
	H32	H	0.341989	0.217879	0.905213
	H33	H	0.649904	0.217857	0.118915
	H34	H	0.340747	0.773827	0.115439
	H35	H	0.649017	0.769963	0.902611
	H36	H	0.342233	0.885676	0.234777
	H37	H	0.647984	0.105048	0.236565
	H38	H	0.341285	0.101500	0.789232
	H39	H	0.646427	0.881216	0.783182
	H40	H	0.883666	0.223002	0.361404
	H41	H	0.099556	0.214445	0.666135
	H42	H	0.100634	0.773221	0.356941
	H43	H	0.888532	0.772523	0.665112
	H44	H	0.215113	0.339643	0.908872
	H45	H	0.216637	0.651872	0.117952
	H46	H	0.774330	0.341247	0.117802
	H47	H	0.775964	0.652084	0.907675
	H48	H	0.409992	0.107706	0.602707
	H49	H	0.580624	0.883591	0.600416
	H50	H	0.573914	0.104434	0.423439
	H51	H	0.406909	0.883597	0.422640
	H52	H	0.586800	0.404988	0.123717
	H53	H	0.581437	0.584012	0.901717
	H54	H	0.410189	0.575609	0.117704
	H55	H	0.405583	0.413033	0.903433
	H56	H	0.107782	0.592655	0.428135
	H57	H	0.884222	0.581912	0.606845
	H58	H	0.109675	0.406282	0.605289
	H59	H	0.890518	0.417631	0.427493
	H60	H	0.107570	0.404599	0.598835
	H61	H	0.882057	0.589900	0.601640
	H62	H	0.102005	0.575478	0.428714
	H63	H	0.882154	0.409991	0.414989
	H64	H	0.412966	0.590926	0.122619
	H65	H	0.586351	0.585618	0.899496
	H66	H	0.589069	0.409257	0.122712
	H67	H	0.410433	0.404544	0.902108
	H68	H	0.582074	0.104643	0.431386
	H69	H	0.577092	0.887001	0.595267
	H70	H	0.408627	0.105350	0.596542
	H71	H	0.408066	0.882929	0.420168
	H72	H	0.912037	0.604167	0.094041
	H73	H	0.085116	0.386879	0.093845
	H74	H	0.089581	0.609822	0.925696
	H75	H	0.907232	0.383983	0.922082
	H76	H	0.090321	0.906790	0.622657
	H77	H	0.086123	0.085039	0.399013
	H78	H	0.906886	0.077763	0.620443
	H79	H	0.904273	0.907163	0.400411
	H80	H	0.606870	0.076823	0.918176
	H81	H	0.385209	0.084919	0.097426
	H82	H	0.606896	0.906518	0.100674
	H83	H	0.390416	0.918943	0.925270
	H84	H	0.604336	0.908422	0.098291
	H85	H	0.386771	0.081046	0.097137
	H86	H	0.610744	0.089660	0.918579
	H87	H	0.383281	0.908186	0.916380
	H88	H	0.913477	0.081041	0.617703
	H89	H	0.085455	0.084001	0.399900
	H90	H	0.085676	0.910756	0.619464
	H91	H	0.908817	0.914523	0.404419
	H92	H	0.084852	0.611330	0.916906
	H93	H	0.090877	0.380986	0.104476
	H94	H	0.902942	0.609014	0.099461
	H95	H	0.907353	0.383156	0.921234
	H96	H	0.403389	0.108182	0.600084
	H97	H	0.583842	0.885565	0.594499
	H98	H	0.584111	0.108644	0.421297
	H99	H	0.409400	0.884093	0.422045
	H100	H	0.584194	0.408936	0.121147
	H101	H	0.585718	0.580192	0.900918
	H102	H	0.397944	0.584332	0.124626
	H103	H	0.400898	0.405821	0.898965
	H104	H	0.109652	0.582032	0.413943
	H105	H	0.886685	0.582119	0.597157
	H106	H	0.106459	0.410651	0.601722
	H107	H	0.884835	0.401932	0.429399
	H108	H	0.913879	0.607641	0.104989
	H109	H	0.077752	0.384908	0.105491
	H110	H	0.079862	0.606532	0.924422
	H111	H	0.908690	0.382971	0.921899
	H112	H	0.084431	0.904155	0.620917
	H113	H	0.084933	0.085749	0.400331
	H114	H	0.908845	0.085192	0.622653
	H115	H	0.913293	0.906205	0.403155
	H116	H	0.605200	0.083601	0.929413
	H117	H	0.384810	0.082465	0.100619
	H118	H	0.606092	0.909986	0.100981
	H119	H	0.386702	0.905170	0.931343
	C120	C	0.374529	0.004270	0.632190
	C121	C	0.615566	0.986675	0.631679
	C122	C	0.615739	0.004631	0.390918
	C123	C	0.374831	0.986600	0.389176
	C124	C	0.617483	0.375639	0.020123
	C125	C	0.617736	0.617220	1.002109
	C126	C	0.373967	0.616978	0.020076
	C127	C	0.373682	0.374471	1.003388
	C128	C	0.004293	0.616726	0.390264
	C129	C	0.987069	0.617627	0.633570
	C130	C	0.005652	0.374524	0.634477
	C131	C	0.987478	0.375139	0.391268
	C132	C	0.876481	0.504381	0.132251
	C133	C	0.117280	0.487006	0.133711
	C134	C	0.116808	0.505303	0.891206
	C135	C	0.875754	0.487128	0.890516
	C136	C	0.118745	0.873716	0.519547
	C137	C	0.117633	0.116701	0.502225
	C138	C	0.873885	0.117107	0.520752
	C139	C	0.874708	0.875100	0.503461
	C140	C	0.505068	0.116630	0.889530
	C141	C	0.487156	0.116534	0.132416
	C142	C	0.504121	0.874349	0.132745
	C143	C	0.487451	0.874818	0.890007
	C144	C	0.370064	0.888082	0.694149
	C145	C	0.620860	0.102612	0.694433
	C146	C	0.622003	0.889048	0.328085
	C147	C	0.371402	0.103948	0.329163
	C148	C	0.676344	0.373579	0.903369
	C149	C	0.679324	0.621451	0.117506
	C150	C	0.312180	0.620927	0.904786
	C151	C	0.312743	0.370020	0.118768
	C152	C	0.888045	0.677984	0.386718
	C153	C	0.104220	0.676996	0.634420
	C154	C	0.890258	0.312411	0.638458
	C155	C	0.103612	0.313260	0.388713
	C156	C	0.889954	0.370670	0.695420
	C157	C	0.104101	0.620388	0.693181
	C158	C	0.888404	0.620629	0.328540
	C159	C	0.103328	0.370087	0.330216
	C160	C	0.370597	0.677892	0.904314
	C161	C	0.620160	0.678039	0.117999
	C162	C	0.618035	0.316292	0.903254
	C163	C	0.371213	0.312684	0.118661
	C164	C	0.679536	0.889267	0.385595
	C165	C	0.678030	0.102587	0.637037
	C166	C	0.314367	0.887119	0.635012
	C167	C	0.315015	0.104313	0.387355
	C168	C	0.872598	0.387679	0.193238
	C169	C	0.120736	0.604189	0.194451
	C170	C	0.119578	0.387594	0.831761
	C171	C	0.872818	0.605130	0.831125
	C172	C	0.178920	0.869466	0.403681
	C173	C	0.177046	0.117550	0.618827
	C174	C	0.808602	0.125003	0.407708
	C175	C	0.811909	0.869574	0.617855
	C176	C	0.388431	0.177522	0.887037
	C177	C	0.602842	0.177891	0.136385
	C178	C	0.387730	0.813407	0.134581
	C179	C	0.602397	0.810746	0.884985
	C180	C	0.388391	0.869274	0.193940
	C181	C	0.602061	0.121559	0.195181
	C182	C	0.388209	0.119763	0.829324
	C183	C	0.601280	0.866540	0.825748
	C184	C	0.867418	0.181500	0.407011
	C185	C	0.118547	0.174822	0.619610
	C186	C	0.119915	0.812893	0.403423
	C187	C	0.870988	0.813044	0.618757
	C188	C	0.175701	0.387014	0.890356
	C189	C	0.176935	0.604666	0.136058
	C190	C	0.815261	0.387848	0.135540
	C191	C	0.815648	0.605044	0.888774
	C192	C	0.400127	0.085985	0.606838
	C193	C	0.588189	0.906275	0.604361
	C194	C	0.587930	0.085013	0.417926
	C195	C	0.400696	0.904926	0.414432
	C196	C	0.593496	0.400533	0.101589
	C197	C	0.591844	0.590845	0.921683
	C198	C	0.399899	0.591075	0.100726
	C199	C	0.398568	0.400397	0.922655
	C200	C	0.085344	0.590741	0.416200
	C201	C	0.905379	0.592060	0.608911
	C202	C	0.086726	0.400118	0.609064
	C203	C	0.906809	0.402179	0.416884
	C204	C	0.902383	0.585825	0.106698
	C205	C	0.091765	0.405575	0.108432
	C206	C	0.091985	0.587653	0.915457
	C207	C	0.900680	0.404846	0.915025
	C208	C	0.093759	0.899761	0.600009
	C209	C	0.092640	0.092099	0.420928
	C210	C	0.901624	0.088914	0.599913
	C211	C	0.901067	0.902047	0.423374
	C212	C	0.586349	0.090786	0.914939
	C213	C	0.406520	0.090155	0.105933
	C214	C	0.584803	0.900931	0.107309
	C215	C	0.407472	0.902931	0.916770
	Zn216	Zn	0.495809	-0.005195	0.760815
	Zn217	Zn	0.495422	-0.004581	0.261457
	Zn218	Zn	0.747768	0.496039	0.011232
	Zn219	Zn	0.244753	0.496224	0.012524
	Zn220	Zn	-0.004305	0.745875	0.511347
	Zn221	Zn	-0.004354	0.246142	0.512097
	Zn222	Zn	-0.003680	0.496588	0.762599
	Zn223	Zn	-0.003508	0.495794	0.261435
	Zn224	Zn	0.495423	0.746070	0.010772
	Zn225	Zn	0.496238	0.245742	0.011297
	Zn226	Zn	0.744848	-0.004257	0.512017
	Zn227	Zn	0.247199	-0.004794	0.510053
	N228	N	0.407045	0.961880	0.692398
	N229	N	0.582531	0.029408	0.691367
	N230	N	0.583157	0.962002	0.331132
	N231	N	0.407780	0.029441	0.329847
	N232	N	0.676342	0.409433	0.977244
	N233	N	0.678039	0.584387	0.044336
	N234	N	0.314013	0.583675	0.977939
	N235	N	0.314098	0.407844	0.046001
	N236	N	0.961202	0.675713	0.424558
	N237	N	0.030328	0.675646	0.598320
	N238	N	0.963362	0.314638	0.600899
	N239	N	0.030318	0.315843	0.425761
	N240	N	0.962827	0.408527	0.693242
	N241	N	0.029971	0.584238	0.693140
	N242	N	0.961970	0.583495	0.330471
	N243	N	0.029960	0.407799	0.331464
	N244	N	0.408369	0.675609	0.977153
	N245	N	0.582622	0.675829	0.045055
	N246	N	0.581942	0.317302	0.976851
	N247	N	0.408429	0.315225	0.045752
	N248	N	0.675945	0.962339	0.424048
	N249	N	0.674623	0.029553	0.598428
	N250	N	0.317203	0.960487	0.596914
	N251	N	0.316724	0.030130	0.423784
	N252	N	0.909988	0.461401	0.191260
	N253	N	0.084557	0.529876	0.193555
	N254	N	0.083782	0.462372	0.831906
	N255	N	0.909190	0.530601	0.831716
	N256	N	0.178528	0.906547	0.476951
	N257	N	0.176660	0.082246	0.544716
	N258	N	0.812469	0.085492	0.479545
	N259	N	0.814146	0.907509	0.545064
	N260	N	0.462119	0.175865	0.923733
	N261	N	0.530238	0.175146	0.097890
	N262	N	0.460794	0.816261	0.097250
	N263	N	0.530515	0.815805	0.924442
	N264	N	0.461957	0.906513	0.193116
	N265	N	0.528956	0.083907	0.192839
	N266	N	0.461973	0.082817	0.830407
	N267	N	0.528716	0.905834	0.828701
	N268	N	0.907484	0.176834	0.478454
	N269	N	0.082469	0.174762	0.545833
	N270	N	0.083179	0.815284	0.476536
	N271	N	0.909250	0.816102	0.546377
	N272	N	0.174323	0.461502	0.926536
	N273	N	0.175139	0.530874	0.098899
	N274	N	0.817361	0.461514	0.098193
	N275	N	0.817268	0.530590	0.924969
	O276	O	-0.000720	1.203860	-0.059857
	H277	H	-0.006677	1.207409	-0.058545
	H278	H	-0.001267	1.193488	-0.066475
	O279	O	-0.196415	0.185863	0.206544
	H280	H	-0.176274	0.171360	0.184731
	H281	H	-0.181565	0.160345	0.194997
	O282	O	1.296323	0.699096	0.304852
	H283	H	1.294450	0.689765	0.339954
	H284	H	1.329843	0.692901	0.309713
	O285	O	0.461540	0.274536	0.729273
	H286	H	0.443081	0.256714	0.753182
	H287	H	0.433946	0.271548	0.736947
	O288	O	0.782391	0.783254	0.225645
	H289	H	0.760965	0.767180	0.245365
	H290	H	0.782866	0.784484	0.183603
	O291	O	0.686546	0.314367	0.689811
	H292	H	0.673740	0.329944	0.667059
	H293	H	0.676812	0.322522	0.673377
	O294	O	1.105602	-0.123286	1.025904
	H295	H	1.105662	-0.122467	1.005781
	H296	H	1.104589	-0.130587	1.031176
	O297	O	0.578168	0.700776	0.440847
	H298	H	0.578193	0.694202	0.445674
	H299	H	0.565429	0.694212	0.443617
	O300	O	0.212147	-0.033926	0.797582
	H301	H	0.214205	-0.027861	0.799486
	H302	H	0.219266	-0.034055	0.788850
	O303	O	0.378710	0.667586	0.559221
	H304	H	0.387752	0.647199	0.569024
	H305	H	0.381890	0.680199	0.580286
	O306	O	0.937186	1.055417	0.252415
	H307	H	0.939793	1.037484	0.245816
	H308	H	0.938867	1.033867	0.254880
	O309	O	0.558011	0.553404	0.276297
	H310	H	0.547645	0.558091	0.285135
	H311	H	0.559892	0.538831	0.267507
	O312	O	0.587523	0.378681	0.552653
	H313	H	0.576828	0.382184	0.545273
	H314	H	0.582686	0.362359	0.553890
	O315	O	0.770821	1.220789	0.982983
	H316	H	0.761210	1.229719	0.969007
	H317	H	0.757480	1.232681	0.959856
	O318	O	0.709858	0.712535	0.539351
	H319	H	0.710548	0.710978	0.532488
	H320	H	0.723574	0.714772	0.525105
	O321	O	0.306508	0.685627	0.703866
	H322	H	0.334417	0.670195	0.702844
	H323	H	0.298331	0.696498	0.710749
	O324	O	1.076059	0.824318	0.072383
	H325	H	1.073482	0.830839	0.096038
	H326	H	1.093538	0.809606	0.082749
	O327	O	-0.287218	0.527819	0.729052
	H328	H	-0.270361	0.519784	0.749416
	H329	H	-0.293068	0.518422	0.709072
	O330	O	0.467290	0.710214	0.291153
	H331	H	0.471188	0.716776	0.298233
	H332	H	0.477195	0.724198	0.282544
	O333	O	0.720314	0.589204	0.422883
	H334	H	0.723915	0.576495	0.410000
	H335	H	0.722443	0.593791	0.426025
	O336	O	0.773513	0.214989	-0.206323
	H337	H	0.801837	0.202740	-0.200964
	H338	H	0.754005	0.243099	-0.234821
	O339	O	1.204044	0.203806	1.220300
	H340	H	1.166102	0.210294	1.209449
	H341	H	1.218078	0.185002	1.215779
	O342	O	-0.046028	0.143687	0.067859
	H343	H	-0.045184	0.143305	0.087322
	H344	H	-0.053800	0.141379	0.061339
	O345	O	0.057475	1.144495	0.866489
	H346	H	0.055205	1.146988	0.848189
	H347	H	0.061201	1.134005	0.881010
	O348	O	-0.219473	0.011239	-0.205425
	H349	H	-0.227896	0.010614	-0.210044
	H350	H	-0.225422	0.028423	-0.217892
	O351	O	0.962336	0.920861	-0.112642
	H352	H	0.959297	0.906897	-0.100912
	H353	H	0.964137	0.915871	-0.108822
	O354	O	-0.204193	-0.047129	0.935493
	H355	H	-0.211623	-0.050304	0.928846
	H356	H	-0.199227	-0.059273	0.949357
	O357	O	0.274129	0.466525	0.698865
	H358	H	0.266646	0.455403	0.708997
	H359	H	0.266637	0.451693	0.689985
	O360	O	0.290753	0.289688	0.719793
	H361	H	0.282318	0.307398	0.692357
	H362	H	0.257004	0.256360	0.750226
	O363	O	0.193712	-0.218232	0.002971
	H364	H	0.209342	-0.234792	0.004502
	H365	H	0.176862	-0.224259	-0.024125
	O366	O	0.410001	0.455464	0.279837
	H367	H	0.418218	0.469744	0.293227
	H368	H	0.380978	0.461513	0.270194
	O369	O	0.971760	-0.185575	-0.015330
	H370	H	0.969518	-0.185227	-0.032245
	H371	H	0.990157	-0.193251	-0.016082
	O372	O	1.106908	0.993168	-0.166410
	H373	H	1.101040	0.982714	-0.167751
	H374	H	1.094979	0.988882	-0.139683
	O375	O	1.019553	0.211153	0.233584
	H376	H	1.021414	0.235156	0.263512
	H377	H	1.003064	0.183591	0.231930
	O378	O	0.532034	0.290750	0.336873
	H379	H	0.524422	0.276394	0.318948
	H380	H	0.516745	0.305414	0.339554
	O381	O	0.177095	1.208990	1.005382
	H382	H	0.183065	1.219597	1.010009
	H383	H	0.165128	1.205367	1.014474
	O384	O	0.812751	-0.184073	0.829164
	H385	H	0.805330	-0.172829	0.837206
	H386	H	0.793228	-0.202305	0.816495
	O387	O	1.191173	1.188364	-0.185200
	H388	H	1.175468	1.175341	-0.156041
	H389	H	1.169595	1.164073	-0.175743
	O390	O	-0.041449	0.106168	-0.111396
	H391	H	-0.043866	0.109779	-0.117639
	H392	H	-0.042914	0.075533	-0.102062
	O393	O	0.477287	0.610059	0.528618
	H394	H	0.483828	0.600942	0.542962
	H395	H	0.456789	0.603378	0.530662
	O396	O	-0.040389	1.118891	1.074112
	H397	H	-0.052538	1.124169	1.076556
	H398	H	-0.052396	1.112122	1.073083
	O399	O	0.170813	0.037933	1.209128
	H400	H	0.203043	0.040181	1.230109
	H401	H	0.168548	0.039965	1.187431
	O402	O	0.586216	0.391487	0.432422
	H403	H	0.571712	0.383750	0.432914
	H404	H	0.590837	0.385818	0.427339
	O405	O	0.788408	-0.039772	1.215425
	H406	H	0.799209	-0.055804	1.216805
	H407	H	0.767665	-0.049700	1.229334
	O408	O	0.202116	-0.207740	-0.200282
	H409	H	0.205741	-0.206223	-0.212859
	H410	H	0.187915	-0.192039	-0.185598
	O411	O	0.428829	0.456450	0.556868
	H412	H	0.429991	0.439745	0.544369
	H413	H	0.431258	0.463100	0.565308
	O414	O	0.542162	0.547083	0.653856
	H415	H	0.532153	0.536140	0.649452
	H416	H	0.542488	0.546348	0.648781
	O417	O	0.279747	0.493727	0.519166
	H418	H	0.280535	0.480131	0.517051
	H419	H	0.282472	0.512535	0.517516
	O420	O	0.529292	0.690217	0.655207
	H421	H	0.542215	0.692469	0.661587
	H422	H	0.536021	0.689353	0.664362
	O423	O	-0.226349	-0.168366	1.050475
	H424	H	-0.245410	-0.179592	1.049571
	H425	H	-0.215922	-0.159446	1.039265
	O426	O	0.417689	0.579695	0.733712
	H427	H	0.423597	0.594182	0.730517
	H428	H	0.399345	0.566616	0.744681
	O429	O	0.702624	0.701031	0.719276
	H430	H	0.701222	0.686948	0.691176
	H431	H	0.691840	0.674758	0.708282
	O432	O	0.621487	0.502335	0.525827
	H433	H	0.624673	0.514414	0.533203
	H434	H	0.627803	0.470401	0.518302
	O435	O	0.286453	0.534088	0.314071
	H436	H	0.256150	0.534948	0.288366
	H437	H	0.305785	0.549863	0.324725
	O438	O	-0.292650	0.294082	0.300037
	H439	H	-0.270497	0.270158	0.273141
	H440	H	-0.319196	0.284538	0.298770
	O441	O	0.285525	0.398178	0.397640
	H442	H	0.289885	0.401482	0.400215
	H443	H	0.276296	0.394864	0.377613
	O444	O	0.555295	0.424794	0.737323
	H445	H	0.559762	0.431421	0.742147
	H446	H	0.538318	0.404195	0.733954
	O447	O	-0.028663	0.776533	1.235643
	H448	H	-0.038971	0.759258	1.251661
	H449	H	-0.054910	0.775435	1.240481
	O450	O	0.227603	1.030641	1.026979
	H451	H	0.231394	1.037721	1.038713
	H452	H	0.224399	1.041880	1.035685
	O453	O	0.270263	0.275375	0.549541
	H454	H	0.235248	0.241772	0.547168
	H455	H	0.282369	0.297399	0.551766
	O456	O	0.139483	0.149832	1.054405
	H457	H	0.115292	0.159307	1.059171
	H458	H	0.143417	0.146948	1.052245
	O459	O	0.849226	0.933156	0.085130
	H460	H	0.843698	0.933159	0.096483
	H461	H	0.852637	0.934521	0.073896
	O462	O	0.281673	0.709067	0.481463
	H463	H	0.286025	0.712523	0.489265
	H464	H	0.270138	0.722947	0.493808
	O465	O	0.785726	0.055619	0.071486
	H466	H	0.775198	0.051900	0.051633
	H467	H	0.779679	0.051614	0.076559
	O468	O	0.718210	0.285080	0.502804
	H469	H	0.713184	0.279873	0.478161
	H470	H	0.722453	0.263098	0.482514
	O471	O	0.496071	0.266893	0.498625
	H472	H	0.495472	0.267083	0.506283
	H473	H	0.488535	0.260786	0.514507
	O474	O	0.643410	0.646082	0.352640
	H475	H	0.630671	0.642789	0.376658
	H476	H	0.631462	0.620919	0.348794
	O477	O	0.367945	0.335049	1.316144
	H478	H	0.375025	0.326661	1.321262
	H479	H	0.359216	0.343268	1.320767
	O480	O	0.463283	0.526987	0.628674
	H481	H	0.457736	0.520145	0.637321
	H482	H	0.470919	0.517468	0.634359
	O483	O	0.478329	0.408071	0.468564
	H484	H	0.482769	0.403160	0.471006
	H485	H	0.476975	0.405278	0.467784
	O486	O	0.982667	-0.040068	0.778049
	H487	H	0.966215	-0.045088	0.790446
	H488	H	0.981661	-0.042931	0.773506
	O489	O	1.107055	0.903274	0.210800
	H490	H	1.112321	0.882582	0.216835
	H491	H	1.124256	0.905396	0.216677
	O492	O	0.145818	-0.121891	0.194331
	H493	H	0.142529	-0.119362	0.190193
	H494	H	0.168732	-0.135082	0.198131
	O495	O	0.027606	0.780838	0.791228
	H496	H	0.030861	0.776228	0.773792
	H497	H	0.024664	0.777637	0.786525
	O498	O	0.949902	0.930135	1.010971
	H499	H	0.954181	0.923386	1.009296
	H500	H	0.959185	0.916819	1.012536
	O501	O	0.710748	0.476490	0.297950
	H502	H	0.706251	0.471185	0.297400
	H503	H	0.724778	0.450195	0.285318
