data_Molecule from HDF5

_cell_length_a		16.594654
_cell_length_b		16.524083
_cell_length_c		16.552908
_cell_angle_alpha	89.922195
_cell_angle_beta	89.881872
_cell_angle_gamma	90.030955
_symmetry_space_group_name_H-M	'P 1'
_symmetry_Int_Tables_number		1

loop_
	_symmetry_equiv_pos_as_xyz
	x,y,z

loop_
	_atom_site_label
	_atom_site_type_symbol
	_atom_site_fract_x
	_atom_site_fract_y
	_atom_site_fract_z
	H0	H	0.381824	0.866209	0.721223
	H1	H	0.590036	0.180678	0.717902
	H2	H	0.591524	0.865409	0.277876
	H3	H	0.378778	0.179610	0.277551
	H4	H	0.707186	0.417527	0.843410
	H5	H	0.709687	0.629463	0.155432
	H6	H	0.269227	0.623273	0.842400
	H7	H	0.262441	0.414916	0.156940
	H8	H	0.830825	0.743400	0.393359
	H9	H	0.144160	0.740108	0.599602
	H10	H	0.831578	0.298558	0.607236
	H11	H	0.142488	0.298159	0.392043
	H12	H	0.832430	0.413937	0.724048
	H13	H	0.143825	0.625671	0.717294
	H14	H	0.829635	0.625374	0.278621
	H15	H	0.142640	0.413220	0.274900
	H16	H	0.385835	0.740437	0.842415
	H17	H	0.592977	0.744456	0.156381
	H18	H	0.587213	0.304853	0.842253
	H19	H	0.380132	0.300300	0.158264
	H20	H	0.705769	0.865333	0.393823
	H21	H	0.708095	0.178840	0.603950
	H22	H	0.266135	0.864809	0.604176
	H23	H	0.263703	0.179101	0.394358
	H24	H	0.879194	0.365915	0.222275
	H25	H	0.092187	0.679028	0.221625
	H26	H	0.093735	0.366972	0.776179
	H27	H	0.883043	0.679711	0.779454
	H28	H	0.212718	0.912099	0.345028
	H29	H	0.208529	0.128466	0.655299
	H30	H	0.760972	0.131886	0.344464
	H31	H	0.764616	0.917381	0.656421
	H32	H	0.328585	0.241266	0.898316
	H33	H	0.641952	0.244435	0.105296
	H34	H	0.328563	0.801063	0.104677
	H35	H	0.643341	0.800923	0.893979
	H36	H	0.329285	0.915882	0.221890
	H37	H	0.641854	0.128855	0.222144
	H38	H	0.329461	0.126163	0.779898
	H39	H	0.642565	0.917078	0.777153
	H40	H	0.878327	0.246888	0.343944
	H41	H	0.092735	0.244442	0.655262
	H42	H	0.092641	0.800064	0.342534
	H43	H	0.882200	0.801458	0.657124
	H44	H	0.210076	0.366700	0.891946
	H45	H	0.208213	0.679032	0.105456
	H46	H	0.762729	0.366784	0.107594
	H47	H	0.764079	0.677728	0.893162
	H48	H	0.384279	0.138961	0.586670
	H49	H	0.568270	0.912833	0.587422
	H50	H	0.570113	0.132848	0.412228
	H51	H	0.397679	0.909091	0.406892
	H52	H	0.577704	0.435131	0.113011
	H53	H	0.573222	0.612273	0.888031
	H54	H	0.400024	0.610006	0.111605
	H55	H	0.397964	0.428673	0.887574
	H56	H	0.097923	0.610827	0.412188
	H57	H	0.872113	0.615695	0.589915
	H58	H	0.099276	0.434128	0.589595
	H59	H	0.876443	0.439248	0.408274
	H60	H	0.097943	0.431887	0.584060
	H61	H	0.875500	0.610103	0.585945
	H62	H	0.097474	0.608880	0.408230
	H63	H	0.873950	0.429547	0.409962
	H64	H	0.396454	0.614096	0.113929
	H65	H	0.577139	0.612856	0.886756
	H66	H	0.572448	0.436758	0.110555
	H67	H	0.392788	0.434396	0.888435
	H68	H	0.576462	0.133870	0.413966
	H69	H	0.579594	0.910156	0.583999
	H70	H	0.400500	0.137152	0.600174
	H71	H	0.403419	0.913886	0.412593
	H72	H	0.895864	0.636371	0.093516
	H73	H	0.073108	0.412290	0.084349
	H74	H	0.075991	0.634116	0.910917
	H75	H	0.895208	0.410425	0.914606
	H76	H	0.079091	0.936295	0.611379
	H77	H	0.072946	0.112190	0.387699
	H78	H	0.899906	0.109776	0.609517
	H79	H	0.900695	0.930347	0.387077
	H80	H	0.598096	0.114606	0.911200
	H81	H	0.375065	0.107678	0.089938
	H82	H	0.596101	0.937107	0.090114
	H83	H	0.375012	0.930226	0.913709
	H84	H	0.598181	0.932021	0.090754
	H85	H	0.373602	0.112712	0.090130
	H86	H	0.597957	0.111407	0.907259
	H87	H	0.376511	0.936383	0.911314
	H88	H	0.897246	0.109697	0.610411
	H89	H	0.077757	0.106977	0.388291
	H90	H	0.069890	0.932354	0.609474
	H91	H	0.891975	0.929650	0.385375
	H92	H	0.079316	0.635027	0.909861
	H93	H	0.077308	0.409109	0.087656
	H94	H	0.903678	0.632598	0.087412
	H95	H	0.898501	0.408484	0.907470
	H96	H	0.402670	0.130186	0.580027
	H97	H	0.576296	0.907686	0.595090
	H98	H	0.574237	0.135939	0.408034
	H99	H	0.394415	0.911187	0.415410
	H100	H	0.572905	0.431510	0.112799
	H101	H	0.575688	0.609312	0.889066
	H102	H	0.394451	0.608720	0.113312
	H103	H	0.400059	0.434791	0.891123
	H104	H	0.100085	0.612551	0.408544
	H105	H	0.873511	0.608813	0.592758
	H106	H	0.096355	0.437395	0.585652
	H107	H	0.878781	0.434703	0.417009
	H108	H	0.894270	0.634417	0.083129
	H109	H	0.071949	0.410972	0.089904
	H110	H	0.076471	0.634727	0.907453
	H111	H	0.902970	0.412131	0.913090
	H112	H	0.076989	0.927105	0.614021
	H113	H	0.071041	0.105889	0.390310
	H114	H	0.898645	0.107666	0.609130
	H115	H	0.895648	0.937130	0.388545
	H116	H	0.600597	0.115754	0.906874
	H117	H	0.375582	0.110640	0.085668
	H118	H	0.596227	0.933442	0.085626
	H119	H	0.373870	0.931872	0.907105
	C120	C	0.364464	0.031265	0.621045
	C121	C	0.607328	1.014051	0.620699
	C122	C	0.606473	0.030697	0.378460
	C123	C	0.364705	1.014449	0.378499
	C124	C	0.606717	0.401825	0.008631
	C125	C	0.608051	0.644092	0.991396
	C126	C	0.366122	0.642507	0.008753
	C127	C	0.364018	0.400118	0.992330
	C128	C	-0.005129	0.642924	0.377339
	C129	C	0.977827	0.642978	0.620298
	C130	C	-0.004503	0.400606	0.620817
	C131	C	0.978915	0.400280	0.377584
	C132	C	0.865069	0.530850	0.120831
	C133	C	0.107259	0.513831	0.120477
	C134	C	0.108997	0.530852	0.877756
	C135	C	0.866109	0.513752	0.878648
	C136	C	0.108066	0.899725	0.508082
	C137	C	0.106769	0.141979	0.491504
	C138	C	0.864878	0.143208	0.507267
	C139	C	0.864523	0.900472	0.491098
	C140	C	0.494702	0.144696	0.878053
	C141	C	0.478024	0.143456	0.121261
	C142	C	0.493946	0.900875	0.121375
	C143	C	0.478600	0.901222	0.878464
	C144	C	0.363291	0.912908	0.680744
	C145	C	0.608836	0.132916	0.679006
	C146	C	0.608992	0.912823	0.318067
	C147	C	0.361126	0.132263	0.317577
	C148	C	0.666664	0.399536	0.890434
	C149	C	0.668983	0.647154	0.108692
	C150	C	0.308215	0.643016	0.889895
	C151	C	0.303114	0.397136	0.110137
	C152	C	0.877346	0.702735	0.375291
	C153	C	0.096590	0.701675	0.620025
	C154	C	0.878491	0.339235	0.624914
	C155	C	0.095558	0.338719	0.374079
	C156	C	0.878891	0.396636	0.683155
	C157	C	0.096416	0.644291	0.678151
	C158	C	0.876989	0.644252	0.318134
	C159	C	0.095781	0.396296	0.315728
	C160	C	0.365737	0.701370	0.889877
	C161	C	0.610566	0.704335	0.109239
	C162	C	0.606996	0.343531	0.889825
	C163	C	0.361685	0.339999	0.110757
	C164	C	0.666200	0.912683	0.375900
	C165	C	0.667364	0.132174	0.622015
	C166	C	0.305794	0.912330	0.622735
	C167	C	0.303744	0.132009	0.375705
	C168	C	0.861558	0.413083	0.181731
	C169	C	0.110332	0.631844	0.181390
	C170	C	0.111835	0.413546	0.816761
	C171	C	0.863863	0.631955	0.818388
	C172	C	0.170870	0.895332	0.391342
	C173	C	0.168075	0.145957	0.608434
	C174	C	0.802633	0.148294	0.390782
	C175	C	0.804959	0.898857	0.609501
	C176	C	0.375868	0.202398	0.878529
	C177	C	0.595329	0.203985	0.123428
	C178	C	0.376080	0.840638	0.123356
	C179	C	0.596137	0.841290	0.875831
	C180	C	0.376130	0.898216	0.181462
	C181	C	0.595170	0.146488	0.181535
	C182	C	0.376360	0.145225	0.819745
	C183	C	0.595892	0.898945	0.817539
	C184	C	0.860734	0.205888	0.390590
	C185	C	0.110259	0.203518	0.608498
	C186	C	0.111042	0.839675	0.389972
	C187	C	0.863244	0.841146	0.609593
	C188	C	0.169533	0.413406	0.874481
	C189	C	0.167989	0.631918	0.123573
	C190	C	0.803281	0.413535	0.124783
	C191	C	0.805130	0.631256	0.875382
	C192	C	0.388850	0.113915	0.596122
	C193	C	0.582292	0.931665	0.595830
	C194	C	0.580930	0.112869	0.404027
	C195	C	0.390859	0.932585	0.404241
	C196	C	0.581683	0.427185	0.090779
	C197	C	0.582798	0.618661	0.909275
	C198	C	0.390206	0.618190	0.091544
	C199	C	0.389616	0.425356	0.910354
	C200	C	0.077142	0.617911	0.402474
	C201	C	0.895196	0.618588	0.596362
	C202	C	0.076759	0.426949	0.594055
	C203	C	0.897636	0.426967	0.404057
	C204	C	0.890720	0.612939	0.095162
	C205	C	0.081508	0.432151	0.094599
	C206	C	0.084286	0.613193	0.902530
	C207	C	0.891410	0.431673	0.904463
	C208	C	0.082488	0.924792	0.589997
	C209	C	0.080968	0.115952	0.409791
	C210	C	0.891112	0.116555	0.588513
	C211	C	0.889029	0.925169	0.408469
	C212	C	0.577307	0.120883	0.901621
	C213	C	0.396013	0.117753	0.095821
	C214	C	0.575688	0.926573	0.096072
	C215	C	0.396472	0.925844	0.903671
	Zn216	Zn	0.486192	0.022989	0.749271
	Zn217	Zn	0.485464	0.022587	0.250101
	Zn218	Zn	0.736331	0.522231	-0.000038
	Zn219	Zn	0.236215	0.521798	0.000241
	Zn220	Zn	-0.013871	0.771570	0.499052
	Zn221	Zn	-0.013279	0.271778	0.499509
	Zn222	Zn	-0.012541	0.522231	0.749614
	Zn223	Zn	-0.013473	0.521752	0.248736
	Zn224	Zn	0.486504	0.772240	0.000360
	Zn225	Zn	0.485906	0.272542	0.000620
	Zn226	Zn	0.735464	0.021829	0.498902
	Zn227	Zn	0.235961	0.021912	0.499768
	N228	N	0.398877	0.987980	0.679961
	N229	N	0.572387	0.058298	0.678464
	N230	N	0.572647	0.987465	0.319367
	N231	N	0.398251	0.058038	0.319148
	N232	N	0.666909	0.434940	0.965428
	N233	N	0.667414	0.610262	0.034354
	N234	N	0.308182	0.607347	0.964912
	N235	N	0.304160	0.433492	0.035455
	N236	N	0.951879	0.702322	0.411070
	N237	N	0.021634	0.701116	0.585005
	N238	N	0.952039	0.341660	0.586671
	N239	N	0.021764	0.340841	0.411675
	N240	N	0.952784	0.434043	0.680815
	N241	N	0.021507	0.608747	0.678753
	N242	N	0.951358	0.607846	0.319310
	N243	N	0.021928	0.433751	0.317730
	N244	N	0.400877	0.701175	0.964929
	N245	N	0.573437	0.702509	0.035207
	N246	N	0.570658	0.344672	0.964433
	N247	N	0.398665	0.341587	0.036483
	N248	N	0.664816	0.987151	0.412825
	N249	N	0.666845	0.056992	0.586756
	N250	N	0.306359	0.986988	0.586358
	N251	N	0.305511	0.057551	0.412544
	N252	N	0.899274	0.486970	0.179394
	N253	N	0.073450	0.557392	0.179823
	N254	N	0.074946	0.487707	0.818563
	N255	N	0.900942	0.557724	0.820058
	N256	N	0.169108	0.932072	0.465660
	N257	N	0.165845	0.108082	0.534671
	N258	N	0.804973	0.109885	0.464404
	N259	N	0.805481	0.934960	0.534709
	N260	N	0.450498	0.202265	0.913936
	N261	N	0.521138	0.202419	0.086844
	N262	N	0.450439	0.842196	0.086712
	N263	N	0.522175	0.842636	0.913051
	N264	N	0.450381	0.935004	0.180535
	N265	N	0.521057	0.109676	0.180292
	N266	N	0.451384	0.110295	0.819110
	N267	N	0.521668	0.935665	0.818965
	N268	N	0.898791	0.202871	0.464028
	N269	N	0.072737	0.201074	0.534732
	N270	N	0.072583	0.842136	0.463640
	N271	N	0.899417	0.842124	0.534771
	N272	N	0.167896	0.487449	0.911749
	N273	N	0.166302	0.557563	0.086568
	N274	N	0.805242	0.487909	0.087519
	N275	N	0.806090	0.556593	0.911899
	O276	O	1.172445	0.193736	-1.177420
	H277	H	1.160506	0.189289	-1.174031
	H278	H	1.155239	0.186085	-1.159368
	O279	O	0.016953	0.240649	1.216651
	H280	H	0.021654	0.262789	1.246177
	H281	H	0.034120	0.237895	1.209293
	O282	O	0.499366	0.326252	0.518491
	H283	H	0.507226	0.329998	0.507651
	H284	H	0.507412	0.321438	0.536328
	O285	O	-0.215436	0.085738	1.202301
	H286	H	-0.239202	0.080338	1.213453
	H287	H	-0.221286	0.079130	1.174111
	O288	O	0.954148	-0.190357	1.212311
	H289	H	0.966620	-0.202529	1.224170
	H290	H	0.975509	-0.182742	1.214114
	O291	O	0.624013	0.625146	1.424064
	H292	H	0.624589	0.622282	1.429294
	H293	H	0.617313	0.630152	1.408412
	O294	O	0.097839	-0.006314	0.155961
	H295	H	0.096977	0.009501	0.152956
	H296	H	0.083144	0.004628	0.159023
	O297	O	0.674699	0.713058	0.691840
	H298	H	0.690603	0.701464	0.708094
	H299	H	0.663731	0.705418	0.691324
	O300	O	0.073258	-0.030327	-0.067191
	H301	H	0.066465	-0.032178	-0.057444
	H302	H	0.085358	-0.042885	-0.065170
	O303	O	-0.203746	-0.108602	-0.174897
	H304	H	-0.198492	-0.094874	-0.164807
	H305	H	-0.182485	-0.103662	-0.159378
	O306	O	0.924688	0.052616	0.000054
	H307	H	0.934798	0.048906	0.003298
	H308	H	0.913441	0.040394	0.003218
	O309	O	0.467397	0.501165	0.508044
	H310	H	0.470759	0.507951	0.507933
	H311	H	0.459071	0.499153	0.516921
	O312	O	0.288969	0.424658	0.377298
	H313	H	0.294265	0.431274	0.400089
	H314	H	0.295641	0.421812	0.379093
	O315	O	0.274363	0.357908	0.704492
	H316	H	0.280586	0.358194	0.690444
	H317	H	0.262440	0.347490	0.727496
	O318	O	1.193017	0.810698	-0.208410
	H319	H	1.190912	0.832054	-0.192549
	H320	H	1.226501	0.779846	-0.238849
	O321	O	0.655483	0.522369	0.560523
	H322	H	0.670524	0.533938	0.573630
	H323	H	0.659203	0.531860	0.539999
	O324	O	0.812859	-0.037126	1.097581
	H325	H	0.807844	-0.053575	1.101427
	H326	H	0.818799	-0.020147	1.091338
	O327	O	1.253072	1.227302	0.737463
	H328	H	1.272237	1.223261	0.744193
	H329	H	1.230545	1.219209	0.752065
	O330	O	0.298221	0.709742	0.689023
	H331	H	0.307793	0.687744	0.668348
	H332	H	0.326515	0.694010	0.678001
	O333	O	0.418759	0.687583	0.283662
	H334	H	0.400181	0.703538	0.267092
	H335	H	0.410187	0.687062	0.280819
	O336	O	0.701721	0.735290	0.529149
	H337	H	0.703611	0.742198	0.549396
	H338	H	0.718919	0.750476	0.540629
	O339	O	0.723139	0.285827	0.630156
	H340	H	0.746951	0.269858	0.616432
	H341	H	0.731207	0.282915	0.628368
	O342	O	0.020259	0.805037	-0.219569
	H343	H	0.047985	0.798533	-0.224222
	H344	H	0.028619	0.786330	-0.231628
	O345	O	-0.153594	0.227035	-0.194360
	H346	H	-0.150240	0.194123	-0.197959
	H347	H	-0.148502	0.233344	-0.161093
	O348	O	0.177494	0.209807	0.186829
	H349	H	0.185714	0.227375	0.168005
	H350	H	0.171004	0.169858	0.189250
	O351	O	0.055353	-0.174786	1.095243
	H352	H	0.068161	-0.173322	1.082039
	H353	H	0.049297	-0.166191	1.084203
	O354	O	0.772676	0.070432	1.041563
	H355	H	0.772915	0.066257	1.022458
	H356	H	0.759369	0.068852	1.029173
	O357	O	0.347866	0.429924	0.566643
	H358	H	0.361059	0.414163	0.565130
	H359	H	0.351354	0.415433	0.558147
	O360	O	0.278316	0.314936	0.522673
	H361	H	0.283977	0.305096	0.541220
	H362	H	0.275671	0.302906	0.527079
	O363	O	1.008228	1.002116	0.220540
	H364	H	0.990610	1.029420	0.225073
	H365	H	0.997589	1.020652	0.208531
	O366	O	0.869975	0.244906	1.044894
	H367	H	0.879471	0.249341	1.063318
	H368	H	0.878920	0.241802	1.044485
	O369	O	0.201332	0.048528	1.221214
	H370	H	0.198333	0.049532	1.225083
	H371	H	0.221645	0.042996	1.231165
	O372	O	0.068197	1.078260	0.831504
	H373	H	0.050454	1.082592	0.827480
	H374	H	0.068352	1.083545	0.831858
	O375	O	0.990011	0.043968	-0.013788
	H376	H	1.004792	0.028054	-0.012330
	H377	H	0.979400	0.034406	0.007152
	O378	O	0.502407	0.484659	0.707423
	H379	H	0.509748	0.461888	0.704420
	H380	H	0.506543	0.471721	0.700837
	O381	O	-0.401233	0.385857	-0.421893
	H382	H	-0.413232	0.396674	-0.431394
	H383	H	-0.371833	0.373919	-0.428345
	O384	O	0.942322	0.907799	0.144784
	H385	H	0.935803	0.927982	0.149018
	H386	H	0.974023	0.912328	0.148408
	O387	O	0.324724	0.731074	1.501923
	H388	H	0.312980	0.744528	1.498258
	H389	H	0.347566	0.734760	1.508824
	O390	O	0.547896	0.468478	0.407545
	H391	H	0.554926	0.475961	0.417781
	H392	H	0.548140	0.469557	0.400460
	O393	O	0.860983	0.033916	0.132775
	H394	H	0.851710	0.026961	0.134722
	H395	H	0.855863	0.029776	0.124673
	O396	O	0.437002	0.479259	0.333731
	H397	H	0.432497	0.491698	0.326648
	H398	H	0.443527	0.486299	0.348161
	O399	O	0.726838	0.752112	0.271106
	H400	H	0.736122	0.762110	0.274114
	H401	H	0.733814	0.743311	0.267129
	O402	O	1.121385	-0.009373	1.057032
	H403	H	1.109403	-0.019254	1.068069
	H404	H	1.124719	0.007917	1.062245
	O405	O	0.512254	0.310528	0.291560
	H406	H	0.502250	0.308212	0.289561
	H407	H	0.493622	0.313315	0.272991
	O408	O	0.774703	1.192130	0.954363
	H409	H	0.791530	1.198122	0.957984
	H410	H	0.768619	1.206960	0.965560
	O411	O	1.308902	0.812113	0.252684
	H412	H	1.306117	0.829203	0.225177
	H413	H	1.300203	0.789445	0.248975
	O414	O	-0.225448	-0.196165	0.011559
	H415	H	-0.239819	-0.205982	0.037453
	H416	H	-0.227850	-0.197973	0.017414
	O417	O	0.346252	0.714439	0.310131
	H418	H	0.328658	0.720182	0.345836
	H419	H	0.337416	0.699137	0.298309
	O420	O	1.209786	-0.201719	0.961431
	H421	H	1.221287	-0.208452	0.964552
	H422	H	1.222029	-0.211947	0.944261
	O423	O	0.948376	1.195051	-0.146784
	H424	H	0.942285	1.204118	-0.161956
	H425	H	0.936114	1.195681	-0.148020
	O426	O	0.639094	0.546874	0.294729
	H427	H	0.654511	0.546073	0.277125
	H428	H	0.629962	0.549542	0.307880
	O429	O	0.546740	0.360398	0.658358
	H430	H	0.557987	0.368911	0.632680
	H431	H	0.579063	0.342661	0.669701
	O432	O	0.796805	0.029188	0.786933
	H433	H	0.809530	0.012968	0.774840
	H434	H	0.787326	0.022215	0.770385
	O435	O	0.591447	0.642927	0.472707
	H436	H	0.600776	0.652996	0.460821
	H437	H	0.576790	0.640123	0.470293
	O438	O	0.680692	0.324033	0.302062
	H439	H	0.663563	0.330922	0.291243
	H440	H	0.667687	0.337885	0.311044
	O441	O	1.202097	-0.011134	-0.216997
	H442	H	1.214667	-0.000060	-0.239054
	H443	H	1.199121	-0.029214	-0.212014
	O444	O	0.307637	0.521432	0.707838
	H445	H	0.300433	0.500922	0.711695
	H446	H	0.317232	0.523802	0.717030
	O447	O	0.508040	0.733118	0.706718
	H448	H	0.522846	0.735267	0.714307
	H449	H	0.513299	0.731972	0.711341
	O450	O	1.467851	-0.312189	0.551886
	H451	H	1.483526	-0.315583	0.564982
	H452	H	1.490084	-0.314060	0.550322
	O453	O	0.681387	0.556912	0.718153
	H454	H	0.679530	0.549662	0.732654
	H455	H	0.691227	0.541150	0.720808
	O456	O	0.198883	1.238734	1.026907
	H457	H	0.185447	1.248039	1.021240
	H458	H	0.214425	1.254890	1.035497
	O459	O	0.680128	0.610016	0.315923
	H460	H	0.686620	0.612599	0.314333
	H461	H	0.663947	0.620448	0.325897
	O462	O	1.579576	0.326242	0.450356
	H463	H	1.585003	0.327386	0.444895
	H464	H	1.594364	0.333964	0.447574
	O465	O	-0.055295	-0.027572	0.833038
	H466	H	-0.042272	-0.044992	0.841371
	H467	H	-0.035282	-0.031600	0.837954
	O468	O	-0.028466	0.799741	-0.035920
	H469	H	-0.026249	0.793214	-0.035011
	H470	H	-0.029069	0.795486	-0.046198
	O471	O	0.274159	0.542547	0.297367
	H472	H	0.284746	0.529230	0.312432
	H473	H	0.250399	0.547701	0.279899
	O474	O	1.042372	1.237914	-0.048438
	H475	H	1.039954	1.238370	-0.044543
	H476	H	1.034768	1.223912	-0.049804
	O477	O	0.331229	0.564252	1.585232
	H478	H	0.332155	0.571428	1.570401
	H479	H	0.335877	0.558107	1.607562
