data_Molecule from HDF5

_cell_length_a		16.652204
_cell_length_b		16.556892
_cell_length_c		16.775889
_cell_angle_alpha	90.116915
_cell_angle_beta	90.019443
_cell_angle_gamma	90.187873
_symmetry_space_group_name_H-M	'P 1'
_symmetry_Int_Tables_number		1

loop_
	_symmetry_equiv_pos_as_xyz
	x,y,z

loop_
	_atom_site_label
	_atom_site_type_symbol
	_atom_site_fract_x
	_atom_site_fract_y
	_atom_site_fract_z
	H0	H	0.383033	0.857156	0.730238
	H1	H	0.602094	0.163679	0.724057
	H2	H	0.600189	0.851305	0.283933
	H3	H	0.389666	0.161746	0.280868
	H4	H	0.720860	0.400307	0.850925
	H5	H	0.720690	0.615287	0.157312
	H6	H	0.274116	0.613794	0.850676
	H7	H	0.274732	0.401500	0.157208
	H8	H	0.843045	0.730355	0.397246
	H9	H	0.151700	0.731290	0.609178
	H10	H	0.839951	0.290553	0.604053
	H11	H	0.152221	0.287754	0.398955
	H12	H	0.843135	0.401447	0.725313
	H13	H	0.152249	0.616564	0.726262
	H14	H	0.844015	0.615918	0.279247
	H15	H	0.152510	0.403570	0.283041
	H16	H	0.390720	0.729268	0.849910
	H17	H	0.604583	0.732121	0.156378
	H18	H	0.601872	0.286024	0.849974
	H19	H	0.394056	0.287612	0.158298
	H20	H	0.715048	0.851251	0.400532
	H21	H	0.715905	0.164501	0.606619
	H22	H	0.269786	0.857008	0.613594
	H23	H	0.276548	0.162952	0.398087
	H24	H	0.892399	0.351943	0.224551
	H25	H	0.103009	0.664067	0.223939
	H26	H	0.102975	0.352158	0.782278
	H27	H	0.889935	0.662097	0.781257
	H28	H	0.224532	0.896703	0.352447
	H29	H	0.223256	0.118897	0.653613
	H30	H	0.775816	0.112549	0.348779
	H31	H	0.771992	0.898750	0.655680
	H32	H	0.341480	0.228293	0.899277
	H33	H	0.653493	0.227354	0.106377
	H34	H	0.342755	0.785837	0.107989
	H35	H	0.650182	0.783616	0.894921
	H36	H	0.343332	0.900468	0.225269
	H37	H	0.652303	0.113400	0.223832
	H38	H	0.345518	0.118225	0.777719
	H39	H	0.648865	0.897454	0.777101
	H40	H	0.894110	0.227082	0.348170
	H41	H	0.102447	0.231118	0.657121
	H42	H	0.107151	0.781320	0.352061
	H43	H	0.888471	0.783326	0.655739
	H44	H	0.214223	0.349562	0.901552
	H45	H	0.217263	0.664590	0.107321
	H46	H	0.776517	0.352053	0.108963
	H47	H	0.776701	0.662843	0.898938
	H48	H	0.407968	0.120202	0.588045
	H49	H	0.587109	0.894613	0.590977
	H50	H	0.585995	0.120738	0.414216
	H51	H	0.410815	0.899133	0.422446
	H52	H	0.586079	0.425617	0.110574
	H53	H	0.595749	0.596448	0.890335
	H54	H	0.410622	0.595884	0.113001
	H55	H	0.401037	0.419705	0.891326
	H56	H	0.106695	0.595024	0.416160
	H57	H	0.888446	0.595306	0.586232
	H58	H	0.108965	0.418037	0.589747
	H59	H	0.884851	0.418197	0.412662
	H60	H	0.107557	0.424437	0.594199
	H61	H	0.888105	0.588117	0.595239
	H62	H	0.107622	0.594822	0.414211
	H63	H	0.885832	0.418905	0.413034
	H64	H	0.408711	0.595730	0.113917
	H65	H	0.585082	0.585921	0.898026
	H66	H	0.581318	0.413721	0.114755
	H67	H	0.410819	0.421337	0.894969
	H68	H	0.589756	0.122208	0.412322
	H69	H	0.582480	0.895140	0.595276
	H70	H	0.414113	0.119462	0.594262
	H71	H	0.404664	0.894553	0.413623
	H72	H	0.906968	0.618522	0.088161
	H73	H	0.093339	0.393891	0.093784
	H74	H	0.084478	0.618948	0.913149
	H75	H	0.906115	0.395146	0.915039
	H76	H	0.089332	0.921206	0.614059
	H77	H	0.077836	0.096054	0.395719
	H78	H	0.902460	0.097746	0.615806
	H79	H	0.910345	0.924552	0.396596
	H80	H	0.607985	0.094858	0.914038
	H81	H	0.387519	0.093918	0.091698
	H82	H	0.610813	0.917653	0.097207
	H83	H	0.388681	0.920880	0.921438
	H84	H	0.608761	0.918080	0.089267
	H85	H	0.384258	0.095453	0.098528
	H86	H	0.607330	0.096554	0.915579
	H87	H	0.388857	0.926369	0.915652
	H88	H	0.906588	0.098816	0.613795
	H89	H	0.088534	0.104486	0.389473
	H90	H	0.082541	0.930865	0.608190
	H91	H	0.911074	0.916509	0.393632
	H92	H	0.086338	0.619013	0.917896
	H93	H	0.082710	0.393628	0.099893
	H94	H	0.908666	0.621722	0.096587
	H95	H	0.912169	0.395397	0.911317
	H96	H	0.415591	0.116345	0.586738
	H97	H	0.581388	0.897967	0.589190
	H98	H	0.586248	0.121135	0.409545
	H99	H	0.416090	0.897881	0.411717
	H100	H	0.594029	0.417662	0.117623
	H101	H	0.580043	0.601320	0.893780
	H102	H	0.409760	0.593669	0.112987
	H103	H	0.408791	0.412096	0.891306
	H104	H	0.108737	0.596514	0.414868
	H105	H	0.884617	0.599323	0.596036
	H106	H	0.111100	0.418035	0.597717
	H107	H	0.885595	0.419064	0.411901
	H108	H	0.915593	0.617131	0.092107
	H109	H	0.083069	0.398833	0.088677
	H110	H	0.089042	0.621458	0.913955
	H111	H	0.911959	0.397845	0.917947
	H112	H	0.077060	0.919157	0.610667
	H113	H	0.091962	0.090798	0.393286
	H114	H	0.904464	0.101903	0.616261
	H115	H	0.903899	0.920882	0.392881
	H116	H	0.607051	0.094244	0.915933
	H117	H	0.383925	0.101021	0.093061
	H118	H	0.607726	0.924733	0.094233
	H119	H	0.385410	0.918950	0.914436
	C120	C	0.376378	0.017668	0.624492
	C121	C	0.616836	0.999012	0.623829
	C122	C	0.618139	0.017162	0.381443
	C123	C	0.377045	0.999545	0.382668
	C124	C	0.619161	0.386254	0.012287
	C125	C	0.619511	0.628742	0.995483
	C126	C	0.376260	0.628247	0.011932
	C127	C	0.374972	0.385765	0.995097
	C128	C	0.005933	0.629351	0.382107
	C129	C	0.989115	0.628690	0.625129
	C130	C	0.005999	0.387347	0.624855
	C131	C	0.988574	0.386979	0.381482
	C132	C	0.877503	0.516277	0.124783
	C133	C	0.118465	0.498944	0.125346
	C134	C	0.117942	0.516028	0.883591
	C135	C	0.876907	0.499087	0.882851
	C136	C	0.118343	0.887708	0.511151
	C137	C	0.118476	0.130290	0.494569
	C138	C	0.874203	0.130182	0.512309
	C139	C	0.875172	0.886620	0.495327
	C140	C	0.505419	0.128477	0.882787
	C141	C	0.488011	0.129435	0.125906
	C142	C	0.506407	0.886766	0.125124
	C143	C	0.488482	0.886779	0.881998
	C144	C	0.368310	0.903094	0.688167
	C145	C	0.619951	0.116745	0.683784
	C146	C	0.618854	0.898534	0.323406
	C147	C	0.372635	0.115513	0.321391
	C148	C	0.679821	0.383037	0.896845
	C149	C	0.680134	0.632951	0.111048
	C150	C	0.315203	0.631024	0.896563
	C151	C	0.315698	0.383977	0.111423
	C152	C	0.889548	0.690196	0.379062
	C153	C	0.105312	0.690669	0.627632
	C154	C	0.887798	0.329093	0.624409
	C155	C	0.105570	0.327672	0.380516
	C156	C	0.889164	0.384351	0.684480
	C157	C	0.105485	0.633677	0.685886
	C158	C	0.890104	0.633426	0.320444
	C159	C	0.105802	0.385078	0.322806
	C160	C	0.373136	0.688833	0.896425
	C161	C	0.622492	0.691002	0.110589
	C162	C	0.620865	0.326069	0.896287
	C163	C	0.374691	0.327324	0.111931
	C164	C	0.676117	0.898671	0.381071
	C165	C	0.676406	0.117097	0.625309
	C166	C	0.311644	0.902854	0.630089
	C167	C	0.316299	0.116117	0.379660
	C168	C	0.874185	0.398883	0.184733
	C169	C	0.120932	0.616882	0.184292
	C170	C	0.120293	0.398719	0.823111
	C171	C	0.873062	0.615681	0.822195
	C172	C	0.182226	0.880667	0.397675
	C173	C	0.180827	0.135147	0.609109
	C174	C	0.815556	0.131047	0.395470
	C175	C	0.812983	0.881837	0.609831
	C176	C	0.388848	0.189017	0.880329
	C177	C	0.605971	0.188552	0.126249
	C178	C	0.389630	0.825589	0.126899
	C179	C	0.603718	0.824300	0.877213
	C180	C	0.389763	0.882809	0.185035
	C181	C	0.605422	0.131825	0.184411
	C182	C	0.390652	0.134164	0.820073
	C183	C	0.603189	0.880851	0.818637
	C184	C	0.874368	0.188113	0.395042
	C185	C	0.121096	0.191096	0.610432
	C186	C	0.123790	0.823174	0.397523
	C187	C	0.871188	0.824549	0.609844
	C188	C	0.175811	0.397425	0.882405
	C189	C	0.178011	0.617087	0.126534
	C190	C	0.817061	0.398741	0.126966
	C191	C	0.816605	0.616069	0.880537
	C192	C	0.404634	0.097858	0.597478
	C193	C	0.591166	0.917127	0.598872
	C194	C	0.594031	0.099883	0.405277
	C195	C	0.403166	0.918274	0.408414
	C196	C	0.594128	0.411622	0.093261
	C197	C	0.594158	0.602209	0.915007
	C198	C	0.402241	0.602350	0.092347
	C199	C	0.399710	0.410515	0.913839
	C200	C	0.086746	0.603100	0.407937
	C201	C	0.908048	0.601864	0.599669
	C202	C	0.087930	0.412536	0.600719
	C203	C	0.906605	0.411724	0.405354
	C204	C	0.903202	0.597864	0.099589
	C205	C	0.093378	0.416601	0.100998
	C206	C	0.093785	0.598390	0.908058
	C207	C	0.902798	0.417296	0.907737
	C208	C	0.090772	0.915882	0.590372
	C209	C	0.093171	0.104329	0.414012
	C210	C	0.897898	0.106177	0.594025
	C211	C	0.901220	0.913274	0.415210
	C212	C	0.586540	0.102377	0.908305
	C213	C	0.406615	0.104044	0.101508
	C214	C	0.587771	0.912686	0.100374
	C215	C	0.408515	0.914260	0.909399
	Zn216	Zn	0.497337	0.007758	0.753432
	Zn217	Zn	0.497230	0.007997	0.253715
	Zn218	Zn	0.748970	0.507834	0.003866
	Zn219	Zn	0.246367	0.507427	0.003946
	Zn220	Zn	-0.003211	0.757797	0.503660
	Zn221	Zn	-0.002925	0.258870	0.503037
	Zn222	Zn	-0.002372	0.508328	0.754313
	Zn223	Zn	-0.002520	0.508059	0.253501
	Zn224	Zn	0.497683	0.758218	0.003222
	Zn225	Zn	0.496987	0.257164	0.003934
	Zn226	Zn	0.745722	0.007328	0.503411
	Zn227	Zn	0.248383	0.008874	0.502883
	N228	N	0.407966	0.975544	0.684747
	N229	N	0.583787	0.042110	0.683271
	N230	N	0.583860	0.973505	0.323215
	N231	N	0.409886	0.041988	0.323084
	N232	N	0.678959	0.419671	0.970141
	N233	N	0.678421	0.594834	0.038373
	N234	N	0.316690	0.594101	0.969691
	N235	N	0.315860	0.419592	0.037698
	N236	N	0.962735	0.687959	0.416532
	N237	N	0.031833	0.687731	0.590456
	N238	N	0.961618	0.330784	0.587930
	N239	N	0.031613	0.328665	0.416345
	N240	N	0.963892	0.419713	0.685098
	N241	N	0.032106	0.595860	0.684541
	N242	N	0.963703	0.596413	0.321975
	N243	N	0.031763	0.421209	0.323223
	N244	N	0.410568	0.687272	0.969202
	N245	N	0.585581	0.688649	0.037512
	N246	N	0.583786	0.327834	0.969213
	N247	N	0.410909	0.328288	0.038519
	N248	N	0.676057	0.973602	0.416236
	N249	N	0.674978	0.042722	0.589008
	N250	N	0.316223	0.975477	0.591064
	N251	N	0.318719	0.042824	0.416959
	N252	N	0.911122	0.473063	0.183487
	N253	N	0.084691	0.542247	0.183841
	N254	N	0.085151	0.473681	0.823258
	N255	N	0.910002	0.541845	0.823436
	N256	N	0.179070	0.920049	0.469585
	N257	N	0.179520	0.098162	0.535891
	N258	N	0.815177	0.095815	0.469558
	N259	N	0.815434	0.920009	0.537451
	N260	N	0.461590	0.185778	0.918680
	N261	N	0.531815	0.187533	0.090581
	N262	N	0.463290	0.827832	0.090322
	N263	N	0.531266	0.827774	0.915936
	N264	N	0.463472	0.920017	0.184243
	N265	N	0.531006	0.096054	0.184676
	N266	N	0.464109	0.097082	0.821481
	N267	N	0.530200	0.918907	0.821341
	N268	N	0.909828	0.188168	0.468979
	N269	N	0.083218	0.188473	0.538004
	N270	N	0.084562	0.827373	0.469190
	N271	N	0.909288	0.827356	0.537531
	N272	N	0.174660	0.471453	0.919185
	N273	N	0.177094	0.542485	0.090821
	N274	N	0.818774	0.472768	0.090331
	N275	N	0.818838	0.542240	0.917597
	O276	O	0.153445	0.968125	-0.078446
	H277	H	0.154522	0.978063	-0.061071
	H278	H	0.137495	0.968959	-0.076534
	O279	O	0.205432	0.212408	0.211958
	H280	H	0.197535	0.199373	0.191875
	H281	H	0.220918	0.241206	0.237804
	O282	O	1.285164	0.296182	0.723698
	H283	H	1.303672	0.292747	0.692205
	H284	H	1.263121	0.278617	0.741099
	O285	O	0.475200	0.307897	0.726156
	H286	H	0.467087	0.283590	0.731263
	H287	H	0.465752	0.303243	0.718450
	O288	O	0.347944	0.480080	0.568352
	H289	H	0.337120	0.466995	0.547780
	H290	H	0.358652	0.495057	0.556753
	O291	O	0.518653	0.283253	0.283339
	H292	H	0.530117	0.270077	0.263779
	H293	H	0.555404	0.283443	0.282747
	O294	O	1.114293	0.172646	0.945380
	H295	H	1.111130	0.155069	0.960439
	H296	H	1.125717	0.172422	0.936275
	O297	O	0.508258	0.729679	0.687671
	H298	H	0.501867	0.691705	0.692173
	H299	H	0.516620	0.754493	0.715247
	O300	O	-0.063716	0.223153	1.004691
	H301	H	-0.039103	0.221607	1.005967
	H302	H	-0.065980	0.224153	0.981708
	O303	O	0.686718	0.697034	0.311071
	H304	H	0.661932	0.685722	0.328905
	H305	H	0.676857	0.677804	0.335644
	O306	O	0.495999	0.340413	0.438616
	H307	H	0.499575	0.356382	0.432523
	H308	H	0.507656	0.341778	0.422154
	O309	O	0.309249	0.697105	0.691070
	H310	H	0.328736	0.687855	0.682986
	H311	H	0.296622	0.695871	0.691944
	O312	O	0.494867	0.615053	0.575354
	H313	H	0.502933	0.612388	0.595167
	H314	H	0.479924	0.607302	0.581872
	O315	O	0.917684	0.865987	1.029991
	H316	H	0.904836	0.871629	1.036546
	H317	H	0.907456	0.859748	1.037297
	O318	O	0.726784	0.459725	0.571371
	H319	H	0.728853	0.475155	0.608289
	H320	H	0.725401	0.441229	0.558389
	O321	O	0.211593	0.796297	0.793376
	H322	H	0.219834	0.794146	0.794340
	H323	H	0.187694	0.803828	0.796958
	O324	O	0.900615	0.928921	0.067799
	H325	H	0.883600	0.938215	0.090186
	H326	H	0.903885	0.923799	0.072004
	O327	O	-0.204078	0.204484	0.789791
	H328	H	-0.211222	0.229441	0.771422
	H329	H	-0.208536	0.205711	0.832223
	O330	O	0.310641	0.480513	0.458540
	H331	H	0.307218	0.487151	0.440061
	H332	H	0.324260	0.494321	0.454168
	O333	O	0.719237	0.289493	0.469344
	H334	H	0.727567	0.276864	0.454636
	H335	H	0.727961	0.279332	0.469644
	O336	O	0.972231	0.050326	0.172526
	H337	H	0.986562	0.049289	0.171454
	H338	H	0.976603	0.038357	0.181499
	O339	O	0.849796	-0.112023	1.065688
	H340	H	0.842955	-0.118209	1.046370
	H341	H	0.833503	-0.103498	1.066820
	O342	O	-0.045493	0.209491	0.105154
	H343	H	-0.035102	0.212899	0.089815
	H344	H	-0.028020	0.205832	0.110037
	O345	O	-0.048639	1.092023	0.771454
	H346	H	-0.051770	1.099772	0.754058
	H347	H	-0.067050	1.081731	0.784032
	O348	O	-0.165204	0.116412	0.107748
	H349	H	-0.166239	0.087998	0.114138
	H350	H	-0.150203	0.105749	0.097018
	O351	O	0.787839	0.801105	0.217732
	H352	H	0.755817	0.766652	0.245459
	H353	H	0.798508	0.796998	0.183619
	O354	O	0.184776	0.183876	0.810146
	H355	H	0.167402	0.158575	0.818598
	H356	H	0.190119	0.173284	0.813692
	O357	O	0.295089	0.469863	0.708910
	H358	H	0.293642	0.454689	0.690693
	H359	H	0.265239	0.461194	0.741622
	O360	O	0.537653	0.339300	0.593192
	H361	H	0.525932	0.350150	0.594240
	H362	H	0.545244	0.323780	0.579344
	O363	O	0.206574	-0.204224	-0.039298
	H364	H	0.211352	-0.194666	-0.041543
	H365	H	0.216507	-0.217327	-0.036206
	O366	O	0.556076	0.621607	0.592817
	H367	H	0.552472	0.619954	0.582589
	H368	H	0.556871	0.632382	0.596949
	O369	O	0.923680	-0.006685	-0.105789
	H370	H	0.925869	-0.009890	-0.108842
	H371	H	0.925187	-0.000309	-0.113437
	O372	O	0.802954	0.814300	-0.188726
	H373	H	0.832215	0.829341	-0.176578
	H374	H	0.814972	0.830741	-0.165613
	O375	O	1.056927	-0.045939	0.238798
	H376	H	1.056440	-0.044287	0.239953
	H377	H	1.072918	-0.052666	0.243090
	O378	O	0.493826	0.576328	0.436184
	H379	H	0.496219	0.576324	0.438724
	H380	H	0.493047	0.587056	0.443482
	O381	O	0.036960	0.974225	1.070376
	H382	H	0.045432	0.974025	1.080970
	H383	H	0.029135	0.978324	1.083533
	O384	O	0.935805	0.075357	0.925917
	H385	H	0.936870	0.069060	0.900535
	H386	H	0.937546	0.077802	0.925684
	O387	O	1.200283	0.880554	0.140345
	H388	H	1.201889	0.869440	0.153977
	H389	H	1.199921	0.907066	0.124214
	O390	O	0.218653	0.224439	0.041987
	H391	H	0.220572	0.238037	0.050924
	H392	H	0.223930	0.238426	0.049710
	O393	O	0.716176	0.719288	0.519418
	H394	H	0.720169	0.739488	0.532008
	H395	H	0.715820	0.726076	0.552967
	O396	O	-0.227363	1.176263	0.977233
	H397	H	-0.227225	1.185345	0.998300
	H398	H	-0.228241	1.193297	0.998010
	O399	O	0.214552	0.031832	1.229232
	H400	H	0.233334	0.035631	1.245899
	H401	H	0.221519	0.050338	1.217778
	O402	O	0.429919	0.458578	0.275961
	H403	H	0.435133	0.454187	0.275210
	H404	H	0.437144	0.458627	0.279494
	O405	O	0.771419	0.033353	0.777005
	H406	H	0.760119	0.060162	0.768907
	H407	H	0.755765	0.050789	0.768919
	O408	O	0.217875	-0.013014	-0.212208
	H409	H	0.204140	-0.028961	-0.207438
	H410	H	0.239331	-0.018172	-0.233160
	O411	O	0.516280	0.450975	0.730746
	H412	H	0.504690	0.442113	0.727378
	H413	H	0.518217	0.438831	0.737857
	O414	O	0.469503	0.722220	0.281637
	H415	H	0.463751	0.736960	0.266082
	H416	H	0.458437	0.727490	0.280822
	O417	O	0.305642	0.317495	0.308937
	H418	H	0.315725	0.322756	0.334809
	H419	H	0.329217	0.333790	0.308229
	O420	O	0.557418	0.560795	0.278016
	H421	H	0.553777	0.562466	0.276558
	H422	H	0.560378	0.557681	0.275286
	O423	O	0.017068	-0.210845	0.777520
	H424	H	0.027321	-0.239330	0.753634
	H425	H	0.028803	-0.191740	0.784812
	O426	O	0.712955	0.533047	0.708484
	H427	H	0.699571	0.552627	0.717086
	H428	H	0.720448	0.547681	0.720983
	O429	O	0.710025	0.709009	0.713551
	H430	H	0.735555	0.737406	0.740367
	H431	H	0.681385	0.705074	0.715283
	O432	O	0.478152	0.580218	0.729081
	H433	H	0.469553	0.562312	0.716380
	H434	H	0.464492	0.570373	0.737367
	O435	O	0.347366	0.508940	0.573523
	H436	H	0.333391	0.504703	0.595335
	H437	H	0.345801	0.505093	0.564300
	O438	O	-0.226936	0.234515	0.236322
	H439	H	-0.231822	0.224508	0.213039
	H440	H	-0.199515	0.220268	0.236831
	O441	O	0.044593	0.223698	0.215371
	H442	H	0.048074	0.221627	0.226053
	H443	H	0.050481	0.230933	0.223535
	O444	O	0.317603	0.727230	0.508801
	H445	H	0.302520	0.739533	0.512464
	H446	H	0.323857	0.723618	0.499624
	O447	O	0.246170	0.758291	1.249782
	H448	H	0.252571	0.773001	1.240498
	H449	H	0.240773	0.755145	1.257227
	O450	O	0.120262	0.843063	1.056435
	H451	H	0.133146	0.842525	1.064299
	H452	H	0.103154	0.843839	1.060519
	O453	O	0.329190	0.376725	0.473254
	H454	H	0.325253	0.397654	0.473133
	H455	H	0.338284	0.367504	0.484012
	O456	O	0.162045	0.038414	1.013632
	H457	H	0.165229	0.049860	1.013676
	H458	H	0.162741	0.033972	0.989400
	O459	O	0.969726	0.789600	0.230066
	H460	H	0.955406	0.790685	0.233190
	H461	H	0.955233	0.768271	0.246030
	O462	O	0.665221	0.340725	0.684729
	H463	H	0.651956	0.350530	0.668289
	H464	H	0.652767	0.356059	0.672035
	O465	O	0.773852	-0.025363	0.232300
	H466	H	0.752364	-0.042100	0.255488
	H467	H	0.774837	-0.047447	0.242654
	O468	O	0.643710	0.329150	0.314457
	H469	H	0.649805	0.359449	0.331834
	H470	H	0.659433	0.311565	0.284936
	O471	O	0.526590	0.422871	0.436395
	H472	H	0.543724	0.431489	0.438458
	H473	H	0.542079	0.427495	0.436896
	O474	O	0.333198	0.294352	0.546955
	H475	H	0.334452	0.294537	0.541247
	H476	H	0.326821	0.284097	0.523268
	O477	O	0.546765	0.725179	1.474062
	H478	H	0.544291	0.717514	1.481394
	H479	H	0.527441	0.731246	1.477802
	O480	O	0.276795	0.539690	0.281512
	H481	H	0.274329	0.549632	0.268673
	H482	H	0.277481	0.542288	0.264997
	O483	O	0.731151	0.562478	0.439050
	H484	H	0.737254	0.565205	0.451391
	H485	H	0.737303	0.571606	0.460714
	O486	O	0.986116	0.042978	0.778217
	H487	H	0.968224	0.054194	0.771556
	H488	H	0.967690	0.050611	0.776376
	O489	O	0.780356	0.918473	-0.045923
	H490	H	0.777928	0.929067	-0.049183
	H491	H	0.781431	0.933626	-0.041778
	O492	O	0.308479	-0.308672	0.370234
	H493	H	0.309851	-0.335167	0.383577
	H494	H	0.288828	-0.293559	0.369256
	O495	O	-0.037095	0.796192	0.921841
	H496	H	-0.012134	0.794286	0.908475
	H497	H	-0.030099	0.787257	0.956718
	O498	O	0.963389	1.151134	0.808554
	H499	H	0.950148	1.163982	0.804289
	H500	H	0.962140	1.167473	0.802309
	O501	O	0.708897	0.479455	0.287987
	H502	H	0.717816	0.482433	0.283272
	H503	H	0.719514	0.480376	0.294269
