data_Molecule from HDF5

_cell_length_a		16.247124
_cell_length_b		16.222211
_cell_length_c		16.442159
_cell_angle_alpha	90.075950
_cell_angle_beta	89.680040
_cell_angle_gamma	89.751635
_symmetry_space_group_name_H-M	'P 1'
_symmetry_Int_Tables_number		1

loop_
	_symmetry_equiv_pos_as_xyz
	x,y,z

loop_
	_atom_site_label
	_atom_site_type_symbol
	_atom_site_fract_x
	_atom_site_fract_y
	_atom_site_fract_z
	H0	H	0.396138	0.848083	0.729756
	H1	H	0.598534	0.173418	0.731424
	H2	H	0.606053	0.849999	0.294244
	H3	H	0.393981	0.172991	0.294786
	H4	H	0.717746	0.407991	0.853705
	H5	H	0.713554	0.612485	0.173950
	H6	H	0.278974	0.613003	0.852262
	H7	H	0.276956	0.407241	0.173229
	H8	H	0.836959	0.731997	0.415008
	H9	H	0.162334	0.726780	0.613431
	H10	H	0.834251	0.297984	0.614197
	H11	H	0.162060	0.297501	0.413297
	H12	H	0.834585	0.412395	0.732137
	H13	H	0.159816	0.615411	0.732428
	H14	H	0.836271	0.620470	0.295988
	H15	H	0.158169	0.406756	0.291420
	H16	H	0.396343	0.728128	0.851431
	H17	H	0.599921	0.729452	0.172845
	H18	H	0.597337	0.294853	0.851198
	H19	H	0.394311	0.290981	0.174114
	H20	H	0.718265	0.850169	0.412002
	H21	H	0.710305	0.175917	0.612936
	H22	H	0.282893	0.848288	0.613315
	H23	H	0.284431	0.175781	0.415451
	H24	H	0.891409	0.351834	0.235707
	H25	H	0.099398	0.674648	0.230053
	H26	H	0.097701	0.349536	0.796609
	H27	H	0.893501	0.675287	0.798760
	H28	H	0.218700	0.911229	0.352543
	H29	H	0.212796	0.111337	0.676301
	H30	H	0.781961	0.115458	0.353196
	H31	H	0.781717	0.913456	0.675401
	H32	H	0.334215	0.224536	0.914468
	H33	H	0.661877	0.224451	0.110823
	H34	H	0.334034	0.795682	0.112998
	H35	H	0.661689	0.794060	0.913857
	H36	H	0.337362	0.905699	0.235381
	H37	H	0.660369	0.113687	0.230254
	H38	H	0.335269	0.109814	0.798946
	H39	H	0.660294	0.905270	0.793935
	H40	H	0.899157	0.230436	0.353027
	H41	H	0.097556	0.229511	0.675348
	H42	H	0.104544	0.792646	0.353294
	H43	H	0.900067	0.797168	0.675982
	H44	H	0.212009	0.348135	0.913026
	H45	H	0.213866	0.673163	0.113843
	H46	H	0.783768	0.347833	0.113674
	H47	H	0.781721	0.675335	0.917243
	H48	H	0.410354	0.127045	0.608936
	H49	H	0.580244	0.898534	0.603150
	H50	H	0.585006	0.127775	0.418552
	H51	H	0.417082	0.899484	0.425496
	H52	H	0.591450	0.412686	0.130633
	H53	H	0.588086	0.606405	0.897304
	H54	H	0.397396	0.608888	0.131037
	H55	H	0.408853	0.422314	0.901557
	H56	H	0.113409	0.599709	0.421268
	H57	H	0.881493	0.600767	0.614217
	H58	H	0.113296	0.424133	0.608427
	H59	H	0.881287	0.417695	0.427479
	H60	H	0.114969	0.419117	0.607775
	H61	H	0.880066	0.613627	0.604742
	H62	H	0.113990	0.600001	0.419912
	H63	H	0.885620	0.429036	0.428256
	H64	H	0.402178	0.590212	0.123217
	H65	H	0.595618	0.599914	0.897015
	H66	H	0.592101	0.421947	0.127329
	H67	H	0.408463	0.411648	0.897890
	H68	H	0.588981	0.126699	0.425061
	H69	H	0.598463	0.895355	0.596440
	H70	H	0.404046	0.126762	0.604381
	H71	H	0.407334	0.897840	0.429730
	H72	H	0.909341	0.629096	0.111125
	H73	H	0.074906	0.400881	0.101165
	H74	H	0.084459	0.626771	0.924474
	H75	H	0.901364	0.396490	0.933415
	H76	H	0.095447	0.926903	0.627229
	H77	H	0.089204	0.107539	0.399302
	H78	H	0.906407	0.107420	0.629466
	H79	H	0.906532	0.922193	0.399360
	H80	H	0.613887	0.102288	0.922283
	H81	H	0.382547	0.099689	0.103716
	H82	H	0.618070	0.911431	0.108192
	H83	H	0.381309	0.920908	0.917152
	H84	H	0.609653	0.918828	0.093587
	H85	H	0.382834	0.097905	0.105774
	H86	H	0.614914	0.099220	0.919129
	H87	H	0.380989	0.916249	0.921210
	H88	H	0.903702	0.105347	0.628929
	H89	H	0.096671	0.107017	0.396572
	H90	H	0.083810	0.922126	0.625675
	H91	H	0.911091	0.925645	0.401775
	H92	H	0.091078	0.629549	0.923647
	H93	H	0.094430	0.395149	0.096351
	H94	H	0.907987	0.625221	0.100037
	H95	H	0.901619	0.390355	0.909848
	H96	H	0.403044	0.129226	0.611350
	H97	H	0.593683	0.891015	0.614935
	H98	H	0.592046	0.130202	0.418555
	H99	H	0.409740	0.894275	0.420053
	H100	H	0.583729	0.417224	0.127179
	H101	H	0.586165	0.596531	0.900014
	H102	H	0.417043	0.604684	0.124416
	H103	H	0.399238	0.418697	0.896782
	H104	H	0.114005	0.601051	0.420933
	H105	H	0.886145	0.600416	0.599827
	H106	H	0.112472	0.422185	0.603852
	H107	H	0.881028	0.424594	0.417326
	H108	H	0.898549	0.630551	0.106404
	H109	H	0.087395	0.392300	0.115513
	H110	H	0.087664	0.629794	0.918285
	H111	H	0.921572	0.399948	0.920257
	H112	H	0.093287	0.914686	0.630983
	H113	H	0.093649	0.101273	0.400011
	H114	H	0.906242	0.105148	0.628584
	H115	H	0.911786	0.920044	0.400457
	H116	H	0.615872	0.102863	0.917861
	H117	H	0.382533	0.100563	0.106795
	H118	H	0.612113	0.929299	0.108422
	H119	H	0.383392	0.921407	0.923139
	C120	C	0.376573	0.019696	0.636456
	C121	C	0.619232	1.002918	0.634565
	C122	C	0.620607	0.020662	0.391188
	C123	C	0.378963	1.003746	0.393539
	C124	C	0.619676	0.387871	0.021897
	C125	C	0.618938	0.631321	1.004582
	C126	C	0.375235	0.632211	0.020634
	C127	C	0.374646	0.387502	1.004846
	C128	C	0.006723	0.633317	0.392253
	C129	C	0.989792	0.634543	0.636284
	C130	C	0.005857	0.392159	0.636002
	C131	C	0.989508	0.391961	0.392629
	C132	C	0.875285	0.520931	0.135921
	C133	C	0.117003	0.503355	0.134385
	C134	C	0.118115	0.520737	0.891695
	C135	C	0.876592	0.503577	0.892779
	C136	C	0.122379	0.890255	0.521980
	C137	C	0.121131	0.134552	0.505462
	C138	C	0.876402	0.135631	0.522506
	C139	C	0.878498	0.891978	0.506067
	C140	C	0.506688	0.131220	0.891250
	C141	C	0.489974	0.130529	0.134454
	C142	C	0.506300	0.889082	0.134486
	C143	C	0.489561	0.888532	0.890749
	C144	C	0.377119	0.897073	0.691708
	C145	C	0.617565	0.125234	0.691931
	C146	C	0.623582	0.898712	0.333385
	C147	C	0.376530	0.124915	0.334532
	C148	C	0.677868	0.388845	0.900987
	C149	C	0.675172	0.631396	0.125740
	C150	C	0.317933	0.632252	0.900175
	C151	C	0.316224	0.387983	0.125458
	C152	C	0.885091	0.692526	0.394677
	C153	C	0.112878	0.689891	0.634331
	C154	C	0.883005	0.336107	0.634286
	C155	C	0.112226	0.334902	0.393164
	C156	C	0.883079	0.393146	0.692685
	C157	C	0.111488	0.634541	0.693762
	C158	C	0.884814	0.636898	0.335572
	C159	C	0.110449	0.389715	0.332611
	C160	C	0.376467	0.689485	0.899755
	C161	C	0.618518	0.689893	0.125094
	C162	C	0.618118	0.332465	0.899852
	C163	C	0.374706	0.330040	0.125817
	C164	C	0.679574	0.898773	0.392178
	C165	C	0.673216	0.126547	0.632937
	C166	C	0.320571	0.897101	0.633781
	C167	C	0.321668	0.126372	0.394492
	C168	C	0.873838	0.399461	0.195126
	C169	C	0.118128	0.625682	0.191388
	C170	C	0.117364	0.398236	0.834919
	C171	C	0.875468	0.626514	0.837393
	C172	C	0.180201	0.890995	0.400720
	C173	C	0.175277	0.132020	0.627621
	C174	C	0.820372	0.135131	0.401241
	C175	C	0.820744	0.893050	0.627345
	C176	C	0.383625	0.187011	0.894148
	C177	C	0.612561	0.187318	0.132015
	C178	C	0.383763	0.832537	0.133884
	C179	C	0.612429	0.831558	0.892724
	C180	C	0.385133	0.887521	0.194576
	C181	C	0.612211	0.131627	0.191029
	C182	C	0.383962	0.129855	0.836499
	C183	C	0.611847	0.887164	0.833324
	C184	C	0.878664	0.192306	0.401172
	C185	C	0.117761	0.190480	0.627310
	C186	C	0.123249	0.832198	0.401163
	C187	C	0.879542	0.835221	0.627510
	C188	C	0.173846	0.397346	0.893046
	C189	C	0.175010	0.624983	0.133406
	C190	C	0.820312	0.397509	0.134480
	C191	C	0.819701	0.626484	0.896338
	C192	C	0.399206	0.105664	0.614624
	C193	C	0.597174	0.916999	0.611430
	C194	C	0.595769	0.106127	0.414140
	C195	C	0.404180	0.919210	0.417882
	C196	C	0.596024	0.410589	0.106306
	C197	C	0.596438	0.607662	0.920113
	C198	C	0.398806	0.608220	0.104453
	C199	C	0.398636	0.410939	0.920632
	C200	C	0.091693	0.607629	0.414543
	C201	C	0.904673	0.611689	0.613002
	C202	C	0.091377	0.415178	0.613402
	C203	C	0.904518	0.416655	0.417181
	C204	C	0.898569	0.606014	0.112780
	C205	C	0.092630	0.418095	0.111064
	C206	C	0.094733	0.606382	0.915275
	C207	C	0.901114	0.417868	0.914650
	C208	C	0.097946	0.914242	0.606184
	C209	C	0.099555	0.111938	0.420620
	C210	C	0.898684	0.112659	0.607027
	C211	C	0.902714	0.915662	0.422353
	C212	C	0.592706	0.108218	0.913275
	C213	C	0.404822	0.106332	0.112121
	C214	C	0.591275	0.913007	0.110590
	C215	C	0.404089	0.912435	0.913876
	Zn216	Zn	0.498624	0.010159	0.763259
	Zn217	Zn	0.499004	0.010723	0.263745
	Zn218	Zn	0.748473	0.510479	0.013855
	Zn219	Zn	0.245773	0.510725	0.013153
	Zn220	Zn	0.000221	0.761462	0.513633
	Zn221	Zn	-0.001618	0.263715	0.514167
	Zn222	Zn	-0.003001	0.513553	0.764238
	Zn223	Zn	-0.003661	0.512886	0.263361
	Zn224	Zn	0.497750	0.760791	0.012451
	Zn225	Zn	0.497646	0.258797	0.013541
	Zn226	Zn	0.747711	0.013534	0.513347
	Zn227	Zn	0.250377	0.012195	0.514066
	N228	N	0.411296	0.974370	0.693408
	N229	N	0.584720	0.047199	0.693030
	N230	N	0.587417	0.975542	0.332794
	N231	N	0.411406	0.047471	0.333622
	N232	N	0.679059	0.422479	0.977755
	N233	N	0.675618	0.595545	0.049867
	N234	N	0.317073	0.597228	0.976253
	N235	N	0.316038	0.422850	0.049283
	N236	N	0.961919	0.690399	0.428984
	N237	N	0.036338	0.689927	0.599061
	N238	N	0.960313	0.335544	0.599546
	N239	N	0.035896	0.336542	0.430104
	N240	N	0.960390	0.427190	0.693660
	N241	N	0.033997	0.600814	0.694967
	N242	N	0.961624	0.600681	0.333892
	N243	N	0.033058	0.424467	0.332173
	N244	N	0.411347	0.689857	0.975719
	N245	N	0.584189	0.689829	0.048810
	N246	N	0.582459	0.331944	0.975813
	N247	N	0.410236	0.329653	0.049821
	N248	N	0.677727	0.975641	0.427371
	N249	N	0.674583	0.049459	0.598105
	N250	N	0.319997	0.974562	0.600197
	N251	N	0.323172	0.050068	0.430567
	N252	N	0.907375	0.477158	0.196252
	N253	N	0.082596	0.548844	0.191971
	N254	N	0.083621	0.476186	0.833852
	N255	N	0.910039	0.548926	0.835154
	N256	N	0.179790	0.926237	0.476929
	N257	N	0.177680	0.098129	0.550736
	N258	N	0.818824	0.100533	0.477708
	N259	N	0.819881	0.927459	0.550912
	N260	N	0.461020	0.187756	0.927720
	N261	N	0.535587	0.186795	0.097586
	N262	N	0.460026	0.833494	0.097232
	N263	N	0.535570	0.832405	0.927815
	N264	N	0.462313	0.922046	0.194959
	N265	N	0.534990	0.097036	0.192665
	N266	N	0.461566	0.095817	0.834846
	N267	N	0.534312	0.921759	0.831914
	N268	N	0.912445	0.192812	0.477503
	N269	N	0.085246	0.192518	0.550302
	N270	N	0.088099	0.831571	0.477458
	N271	N	0.914946	0.834406	0.551315
	N272	N	0.174415	0.474517	0.927614
	N273	N	0.174369	0.547800	0.098839
	N274	N	0.820742	0.474012	0.098522
	N275	N	0.820439	0.548922	0.930242
	O276	O	1.021346	-0.007587	0.978519
	H277	H	1.027266	-0.020083	0.964972
	H278	H	1.012616	-0.011338	0.978463
	O279	O	0.121500	0.990052	0.039939
	H280	H	0.120792	0.978273	0.039244
	H281	H	0.130415	0.993587	0.043462
	O282	O	0.341759	0.632771	0.405194
	H283	H	0.349292	0.634356	0.396258
	H284	H	0.341469	0.616969	0.403962
	O285	O	0.451114	0.458206	0.611311
	H286	H	0.456274	0.450860	0.613380
	H287	H	0.456345	0.463753	0.621967
	O288	O	0.646305	0.564635	0.495863
	H289	H	0.639689	0.569962	0.485273
	H290	H	0.650708	0.565885	0.504703
	O291	O	-0.530804	0.580847	0.638082
	H292	H	-0.521281	0.569559	0.639455
	H293	H	-0.535950	0.588095	0.611064
	O294	O	1.653291	0.590173	-0.433367
	H295	H	1.660094	0.581559	-0.445517
	H296	H	1.638336	0.591690	-0.436034
	O297	O	0.901209	1.019471	0.106136
	H298	H	0.901114	1.011845	0.101172
	H299	H	0.909944	1.025902	0.128818
	O300	O	0.535691	0.411218	0.433834
	H301	H	0.531859	0.409900	0.429480
	H302	H	0.539428	0.420726	0.434673
	O303	O	0.699592	0.334202	0.707624
	H304	H	0.687540	0.327822	0.701704
	H305	H	0.703680	0.348804	0.713495
	O306	O	0.588079	0.561936	0.551185
	H307	H	0.593546	0.579351	0.560239
	H308	H	0.572709	0.555839	0.547445
	O309	O	1.007243	0.079757	0.975072
	H310	H	1.007389	0.072112	0.974594
	H311	H	1.005905	0.071650	0.982332
	O312	O	0.899980	0.988553	1.107421
	H313	H	0.904259	0.993166	1.111661
	H314	H	0.889616	1.005539	1.106623
	O315	O	0.361606	0.510895	0.526904
	H316	H	0.356573	0.499888	0.528809
	H317	H	0.359243	0.520878	0.534496
	O318	O	0.351045	0.485308	0.585004
	H319	H	0.359136	0.481763	0.583919
	H320	H	0.336613	0.478140	0.584536
	O321	O	0.491933	0.581011	0.579944
	H322	H	0.491123	0.576121	0.575946
	H323	H	0.495681	0.593002	0.590885
	O324	O	-0.048469	1.051285	0.918917
	H325	H	-0.048568	1.058683	0.932128
	H326	H	-0.043520	1.047188	0.920165
	O327	O	0.041688	0.927655	0.998747
	H328	H	0.031418	0.926471	1.009417
	H329	H	0.022349	0.921856	0.999538
	O330	O	-0.118686	0.052509	-0.028540
	H331	H	-0.124716	0.058544	-0.029350
	H332	H	-0.119251	0.058210	-0.026521
	O333	O	0.478569	0.645307	0.474051
	H334	H	0.469187	0.626212	0.481389
	H335	H	0.486525	0.647138	0.468714
	O336	O	-0.059110	0.056065	0.006978
	H337	H	-0.063664	0.044857	0.009148
	H338	H	-0.062222	0.056933	0.002786
	O339	O	-0.013537	-0.024692	-0.008635
	H340	H	-0.010930	-0.030498	-0.016064
	H341	H	-0.005274	-0.017949	-0.011142
	O342	O	0.383635	0.551671	0.392922
	H343	H	0.390969	0.542190	0.389326
	H344	H	0.377055	0.551143	0.389338
	O345	O	-0.029784	0.972293	1.016298
	H346	H	-0.038064	0.974496	1.014094
	H347	H	-0.028038	0.972530	1.010927
	O348	O	1.079151	0.016902	-0.014205
	H349	H	1.079985	0.012306	-0.013188
	H350	H	1.083393	0.012484	-0.014869
	O351	O	0.484993	0.524864	0.370020
	H352	H	0.460560	0.533896	0.365299
	H353	H	0.466925	0.524956	0.375056
	O354	O	0.044426	0.918378	0.085909
	H355	H	0.052334	0.917958	0.095867
	H356	H	0.028005	0.932447	0.089924
	O357	O	0.590574	-0.659808	0.362747
	H358	H	0.589167	-0.656447	0.357358
	H359	H	0.580136	-0.657994	0.365315
	O360	O	1.419529	0.478203	0.480411
	H361	H	1.421602	0.478038	0.490265
	H362	H	1.424158	0.486655	0.476926
	O363	O	0.355099	0.383386	0.551583
	H364	H	0.352173	0.372899	0.552776
	H365	H	0.357434	0.401205	0.570977
	O366	O	0.524865	0.535281	0.482777
	H367	H	0.524485	0.537846	0.478532
	H368	H	0.532230	0.524414	0.466798
	O369	O	1.037596	0.043022	0.033536
	H370	H	1.046537	0.044994	0.020347
	H371	H	1.030046	0.043926	0.027564
	O372	O	0.554713	0.478960	0.642490
	H373	H	0.555316	0.485328	0.650834
	H374	H	0.551382	0.475021	0.633812
	O375	O	0.663201	0.407970	0.420188
	H376	H	0.673888	0.414501	0.421014
	H377	H	0.675584	0.408092	0.421415
	O378	O	-0.039613	1.059837	0.069869
	H379	H	-0.040313	1.070494	0.060420
	H380	H	-0.034359	1.058086	0.070600
	O381	O	0.519394	0.598092	0.372744
	H382	H	0.516237	0.619307	0.364317
	H383	H	0.522191	0.587436	0.378574
	O384	O	1.041414	1.055633	0.102669
	H385	H	1.037655	1.053225	0.094929
	H386	H	1.048519	1.054485	0.093786
	O387	O	0.467410	-0.629829	0.563552
	H388	H	0.468255	-0.627592	0.560714
	H389	H	0.482229	-0.636385	0.558750
	O390	O	1.040087	0.926335	-0.132679
	H391	H	1.047535	0.920867	-0.146385
	H392	H	1.040700	0.935514	-0.142364
	O393	O	0.498060	0.482913	0.510534
	H394	H	0.495135	0.487135	0.515098
	H395	H	0.504188	0.492572	0.512035
