data_Molecule from HDF5

_cell_length_a		16.598398
_cell_length_b		16.575523
_cell_length_c		16.483181
_cell_angle_alpha	89.960116
_cell_angle_beta	90.046095
_cell_angle_gamma	89.954680
_symmetry_space_group_name_H-M	'P 1'
_symmetry_Int_Tables_number		1

loop_
	_symmetry_equiv_pos_as_xyz
	x,y,z

loop_
	_atom_site_label
	_atom_site_type_symbol
	_atom_site_fract_x
	_atom_site_fract_y
	_atom_site_fract_z
	H0	H	0.376177	0.864534	0.719445
	H1	H	0.587426	0.177872	0.718126
	H2	H	0.589474	0.866005	0.274535
	H3	H	0.379859	0.178425	0.276325
	H4	H	0.705598	0.415531	0.839851
	H5	H	0.705933	0.628383	0.152360
	H6	H	0.259431	0.631141	0.839184
	H7	H	0.262425	0.417030	0.151655
	H8	H	0.829219	0.746159	0.389260
	H9	H	0.139613	0.745794	0.606021
	H10	H	0.827281	0.300775	0.602694
	H11	H	0.139683	0.301332	0.392815
	H12	H	0.826982	0.417299	0.718346
	H13	H	0.138094	0.630303	0.722311
	H14	H	0.826739	0.626621	0.276243
	H15	H	0.140929	0.419838	0.278393
	H16	H	0.376959	0.744430	0.838852
	H17	H	0.589294	0.743699	0.152526
	H18	H	0.590267	0.300017	0.839954
	H19	H	0.378713	0.301526	0.152715
	H20	H	0.706099	0.866213	0.389995
	H21	H	0.705218	0.177312	0.602918
	H22	H	0.258762	0.865579	0.605146
	H23	H	0.262443	0.178051	0.392409
	H24	H	0.882302	0.364140	0.214640
	H25	H	0.089434	0.678506	0.218057
	H26	H	0.087611	0.364698	0.775181
	H27	H	0.877209	0.676572	0.772682
	H28	H	0.204106	0.917846	0.339699
	H29	H	0.204756	0.128114	0.654330
	H30	H	0.762696	0.126445	0.339197
	H31	H	0.760751	0.915505	0.652442
	H32	H	0.328493	0.246007	0.889378
	H33	H	0.639921	0.242136	0.100691
	H34	H	0.326873	0.799092	0.102613
	H35	H	0.637441	0.798508	0.890108
	H36	H	0.326137	0.917891	0.216590
	H37	H	0.639594	0.125716	0.217322
	H38	H	0.326633	0.127883	0.774558
	H39	H	0.638215	0.917114	0.775324
	H40	H	0.879779	0.241787	0.338675
	H41	H	0.086037	0.241551	0.654748
	H42	H	0.091899	0.799090	0.340243
	H43	H	0.877127	0.799027	0.652504
	H44	H	0.206174	0.366129	0.888704
	H45	H	0.206708	0.677698	0.102794
	H46	H	0.761181	0.366651	0.103269
	H47	H	0.758638	0.676219	0.887702
	H48	H	0.388549	0.133109	0.582298
	H49	H	0.565273	0.912786	0.581958
	H50	H	0.568348	0.134276	0.403456
	H51	H	0.393646	0.909366	0.407064
	H52	H	0.571222	0.433447	0.107436
	H53	H	0.568071	0.609945	0.884771
	H54	H	0.398131	0.604160	0.104507
	H55	H	0.393581	0.436625	0.883587
	H56	H	0.093679	0.610609	0.411567
	H57	H	0.873154	0.609482	0.584020
	H58	H	0.093504	0.433096	0.581162
	H59	H	0.870510	0.431944	0.405843
	H60	H	0.093331	0.435532	0.586015
	H61	H	0.873002	0.611688	0.582718
	H62	H	0.095005	0.606304	0.405331
	H63	H	0.869262	0.430715	0.403907
	H64	H	0.398672	0.614928	0.107704
	H65	H	0.572693	0.611451	0.883073
	H66	H	0.572172	0.431833	0.108646
	H67	H	0.398605	0.433063	0.883606
	H68	H	0.572093	0.131578	0.413019
	H69	H	0.578337	0.909440	0.580060
	H70	H	0.394809	0.134635	0.590499
	H71	H	0.394191	0.909211	0.408012
	H72	H	0.896068	0.633370	0.085330
	H73	H	0.081176	0.407584	0.087816
	H74	H	0.068913	0.629322	0.912983
	H75	H	0.897037	0.411099	0.909288
	H76	H	0.073487	0.932517	0.609680
	H77	H	0.066481	0.109099	0.386618
	H78	H	0.893733	0.114423	0.610645
	H79	H	0.901145	0.932651	0.385799
	H80	H	0.592659	0.107028	0.911588
	H81	H	0.369642	0.114560	0.085981
	H82	H	0.595012	0.932809	0.089873
	H83	H	0.369876	0.935938	0.903112
	H84	H	0.595668	0.926893	0.083005
	H85	H	0.372761	0.111190	0.081611
	H86	H	0.594992	0.107553	0.902999
	H87	H	0.369248	0.926834	0.910352
	H88	H	0.891975	0.109090	0.609943
	H89	H	0.074487	0.119018	0.381361
	H90	H	0.070955	0.938251	0.607136
	H91	H	0.892646	0.932973	0.382598
	H92	H	0.076655	0.634406	0.909222
	H93	H	0.068472	0.411054	0.090649
	H94	H	0.894380	0.633459	0.083128
	H95	H	0.892091	0.410123	0.910606
	H96	H	0.398037	0.129263	0.581698
	H97	H	0.572082	0.907278	0.592280
	H98	H	0.578516	0.136719	0.405800
	H99	H	0.393345	0.908574	0.408005
	H100	H	0.573379	0.434082	0.108957
	H101	H	0.571908	0.606425	0.884619
	H102	H	0.388878	0.608911	0.109404
	H103	H	0.393522	0.431029	0.881022
	H104	H	0.097775	0.613670	0.406030
	H105	H	0.874288	0.610128	0.581881
	H106	H	0.095449	0.430754	0.585354
	H107	H	0.870045	0.429281	0.405960
	H108	H	0.893792	0.634405	0.085285
	H109	H	0.073550	0.413081	0.078768
	H110	H	0.067537	0.633736	0.904614
	H111	H	0.894227	0.408880	0.905564
	H112	H	0.067256	0.932446	0.608038
	H113	H	0.079269	0.106606	0.383584
	H114	H	0.896498	0.110634	0.608527
	H115	H	0.896259	0.940358	0.387013
	H116	H	0.595335	0.114523	0.908844
	H117	H	0.371545	0.109240	0.087232
	H118	H	0.592234	0.934938	0.081645
	H119	H	0.373961	0.936502	0.914637
	C120	C	0.360816	0.029379	0.618503
	C121	C	0.604333	1.012906	0.617802
	C122	C	0.604861	0.030696	0.374956
	C123	C	0.362084	1.012868	0.375633
	C124	C	0.604649	0.400712	0.004656
	C125	C	0.604227	0.642667	0.987402
	C126	C	0.361788	0.643081	0.003845
	C127	C	0.362896	0.401090	0.986321
	C128	C	-0.007495	0.643537	0.375096
	C129	C	0.975815	0.643618	0.617497
	C130	C	-0.008839	0.401026	0.617092
	C131	C	0.974133	0.399558	0.374541
	C132	C	0.863164	0.530120	0.116518
	C133	C	0.106979	0.513346	0.118507
	C134	C	0.103938	0.529793	0.875126
	C135	C	0.861793	0.512865	0.875107
	C136	C	0.104135	0.901100	0.505099
	C137	C	0.104745	0.143382	0.488278
	C138	C	0.861896	0.143377	0.505459
	C139	C	0.863159	0.901646	0.488244
	C140	C	0.491446	0.143138	0.874834
	C141	C	0.474687	0.143194	0.117508
	C142	C	0.491116	0.899644	0.117574
	C143	C	0.473878	0.900695	0.876142
	C144	C	0.357687	0.912035	0.679851
	C145	C	0.605977	0.130724	0.677915
	C146	C	0.607544	0.912900	0.314620
	C147	C	0.360763	0.131260	0.316196
	C148	C	0.665424	0.397625	0.887064
	C149	C	0.665583	0.646340	0.105176
	C150	C	0.300009	0.648156	0.886469
	C151	C	0.302386	0.398517	0.104460
	C152	C	0.875578	0.704979	0.371719
	C153	C	0.092603	0.705205	0.622616
	C154	C	0.873910	0.340827	0.620639
	C155	C	0.092605	0.340871	0.373822
	C156	C	0.873850	0.398863	0.678075
	C157	C	0.091969	0.647477	0.680666
	C158	C	0.874402	0.645699	0.315393
	C159	C	0.093097	0.399560	0.316729
	C160	C	0.358682	0.704572	0.886101
	C161	C	0.607390	0.703507	0.105426
	C162	C	0.607680	0.340132	0.886938
	C163	C	0.360174	0.341021	0.104926
	C164	C	0.665646	0.913230	0.372103
	C165	C	0.664705	0.130496	0.620815
	C166	C	0.299269	0.912428	0.622694
	C167	C	0.302336	0.130974	0.373596
	C168	C	0.862382	0.411725	0.175924
	C169	C	0.108237	0.631025	0.178361
	C170	C	0.106237	0.412074	0.814751
	C171	C	0.858753	0.630007	0.813478
	C172	C	0.164455	0.898957	0.386870
	C173	C	0.164426	0.145731	0.606998
	C174	C	0.802533	0.145399	0.386571
	C175	C	0.801617	0.897773	0.605703
	C176	C	0.374807	0.204985	0.871275
	C177	C	0.593067	0.202151	0.119180
	C178	C	0.373580	0.839672	0.120346
	C179	C	0.591253	0.839755	0.872481
	C180	C	0.373372	0.898647	0.177178
	C181	C	0.592739	0.144559	0.177193
	C182	C	0.373898	0.146312	0.814300
	C183	C	0.591407	0.898211	0.815274
	C184	C	0.860945	0.202438	0.386294
	C185	C	0.105367	0.202164	0.607353
	C186	C	0.108577	0.839901	0.387317
	C187	C	0.859511	0.840119	0.605774
	C188	C	0.165179	0.412602	0.871478
	C189	C	0.166622	0.630847	0.120932
	C190	C	0.802600	0.412792	0.120115
	C191	C	0.799936	0.629740	0.870550
	C192	C	0.386279	0.111043	0.592155
	C193	C	0.579192	0.931137	0.592240
	C194	C	0.579917	0.112743	0.400091
	C195	C	0.386782	0.930598	0.400504
	C196	C	0.579349	0.425912	0.086888
	C197	C	0.578151	0.616781	0.905508
	C198	C	0.387740	0.616773	0.085926
	C199	C	0.388179	0.426338	0.904186
	C200	C	0.074091	0.617794	0.400537
	C201	C	0.894612	0.617781	0.590632
	C202	C	0.072809	0.426037	0.591523
	C203	C	0.891472	0.423794	0.398512
	C204	C	0.887659	0.612247	0.091613
	C205	C	0.081787	0.431584	0.092890
	C206	C	0.078347	0.611365	0.901367
	C207	C	0.887265	0.431271	0.901033
	C208	C	0.077998	0.926979	0.587087
	C209	C	0.080576	0.118554	0.405428
	C210	C	0.886711	0.118538	0.588134
	C211	C	0.889087	0.927852	0.406577
	C212	C	0.573216	0.117207	0.900502
	C213	C	0.392651	0.118559	0.092287
	C214	C	0.573058	0.924470	0.092193
	C215	C	0.392252	0.925898	0.901983
	Zn216	Zn	0.482352	0.021078	0.746373
	Zn217	Zn	0.483094	0.021321	0.246407
	Zn218	Zn	0.733029	0.521675	-0.003548
	Zn219	Zn	0.234181	0.522115	-0.005278
	Zn220	Zn	-0.015769	0.772754	0.496423
	Zn221	Zn	-0.016904	0.271494	0.497267
	Zn222	Zn	-0.016782	0.521534	0.745940
	Zn223	Zn	-0.016652	0.522152	0.246386
	Zn224	Zn	0.482638	0.770601	-0.004027
	Zn225	Zn	0.483722	0.271955	-0.003683
	Zn226	Zn	0.733692	0.022012	0.496335
	Zn227	Zn	0.232814	0.021293	0.497099
	N228	N	0.394829	0.986012	0.677685
	N229	N	0.569224	0.056592	0.676294
	N230	N	0.570578	0.986991	0.316051
	N231	N	0.397104	0.056832	0.317279
	N232	N	0.663503	0.434855	0.961225
	N233	N	0.664067	0.609520	0.030600
	N234	N	0.301691	0.610771	0.960860
	N235	N	0.303714	0.435129	0.029714
	N236	N	0.949968	0.703798	0.408194
	N237	N	0.019321	0.702907	0.583896
	N238	N	0.947658	0.342249	0.583319
	N239	N	0.017391	0.340397	0.408771
	N240	N	0.947936	0.435876	0.675888
	N241	N	0.018241	0.610106	0.677886
	N242	N	0.948257	0.608315	0.317166
	N243	N	0.018349	0.435134	0.316784
	N244	N	0.396178	0.701724	0.960362
	N245	N	0.569897	0.701466	0.031163
	N246	N	0.570690	0.341723	0.961369
	N247	N	0.397083	0.342320	0.030495
	N248	N	0.664236	0.987528	0.408780
	N249	N	0.663999	0.056095	0.584141
	N250	N	0.300917	0.986666	0.585493
	N251	N	0.302819	0.056243	0.409788
	N252	N	0.899359	0.485669	0.173893
	N253	N	0.071699	0.556813	0.177048
	N254	N	0.068854	0.485937	0.817081
	N255	N	0.896510	0.556448	0.816243
	N256	N	0.161863	0.936368	0.461125
	N257	N	0.164269	0.109830	0.531945
	N258	N	0.802915	0.109400	0.461592
	N259	N	0.803832	0.935370	0.531537
	N260	N	0.448954	0.203095	0.908169
	N261	N	0.518488	0.201761	0.083044
	N262	N	0.447841	0.840155	0.083791
	N263	N	0.517199	0.841137	0.909596
	N264	N	0.447483	0.935265	0.175506
	N265	N	0.518053	0.108807	0.176554
	N266	N	0.447654	0.108606	0.816249
	N267	N	0.517539	0.935393	0.817387
	N268	N	0.896766	0.201601	0.461615
	N269	N	0.069241	0.201083	0.532364
	N270	N	0.071868	0.841182	0.462005
	N271	N	0.897075	0.842324	0.531799
	N272	N	0.163794	0.486823	0.908464
	N273	N	0.166260	0.556439	0.084476
	N274	N	0.803001	0.487234	0.083718
	N275	N	0.801734	0.555889	0.908267
	O276	O	0.854778	0.106178	-1.126807
	H277	H	0.868842	0.094918	-1.122462
	H278	H	0.856253	0.121712	-1.129822
	O279	O	0.161244	-0.048774	1.193682
	H280	H	0.146019	-0.042044	1.191740
	H281	H	0.175724	-0.052164	1.215785
	O282	O	0.258399	0.539721	0.360486
	H283	H	0.250945	0.541662	0.348351
	H284	H	0.266532	0.546294	0.346801
	O285	O	-0.232783	-0.003472	1.202095
	H286	H	-0.251110	0.002745	1.205611
	H287	H	-0.233798	-0.012776	1.208426
	O288	O	0.819422	-0.156813	1.165552
	H289	H	0.817701	-0.126235	1.165537
	H290	H	0.810286	-0.170558	1.166307
	O291	O	0.405769	0.306337	1.671073
	H292	H	0.420043	0.315272	1.670234
	H293	H	0.416067	0.289127	1.703660
	O294	O	0.196642	0.233626	0.020699
	H295	H	0.208521	0.242449	0.042517
	H296	H	0.204213	0.230474	0.013064
	O297	O	0.693061	0.729997	0.703282
	H298	H	0.712443	0.758717	0.729340
	H299	H	0.652034	0.723533	0.710594
	O300	O	-0.045612	0.009597	-0.186565
	H301	H	-0.044666	-0.007725	-0.178100
	H302	H	-0.056252	-0.006331	-0.185035
	O303	O	0.079760	0.050539	-0.218533
	H304	H	0.073893	0.025757	-0.224135
	H305	H	0.074204	0.047820	-0.207417
	O306	O	0.926280	0.235252	0.036343
	H307	H	0.938642	0.241320	0.034561
	H308	H	0.930605	0.233320	0.055677
	O309	O	0.518353	0.306031	0.282941
	H310	H	0.528635	0.305482	0.280867
	H311	H	0.524471	0.288669	0.273100
	O312	O	0.582800	0.411704	0.581472
	H313	H	0.590366	0.406244	0.589672
	H314	H	0.594459	0.416421	0.591512
	O315	O	0.271312	0.594801	0.570285
	H316	H	0.258480	0.576985	0.595204
	H317	H	0.282364	0.569800	0.564656
	O318	O	1.166200	0.836189	-0.189413
	H319	H	1.178920	0.876912	-0.191239
	H320	H	1.168645	0.826921	-0.146439
	O321	O	0.618329	0.664436	0.301346
	H322	H	0.611339	0.652193	0.308789
	H323	H	0.623674	0.662638	0.319905
	O324	O	0.783371	-0.018254	1.028412
	H325	H	0.788586	-0.036614	1.041120
	H326	H	0.783090	-0.016749	1.037436
	O327	O	1.285417	1.327666	0.691424
	H328	H	1.316475	1.317626	0.679807
	H329	H	1.287867	1.304879	0.694669
	O330	O	0.289523	0.716867	0.393709
	H331	H	0.291145	0.689134	0.397722
	H332	H	0.273531	0.725472	0.420159
	O333	O	0.183784	0.801075	0.248750
	H334	H	0.187333	0.787543	0.262294
	H335	H	0.198545	0.803820	0.251806
	O336	O	0.697119	0.712048	0.543658
	H337	H	0.689252	0.711319	0.563792
	H338	H	0.707147	0.729536	0.563823
	O339	O	0.784138	0.223057	0.792426
	H340	H	0.809750	0.204128	0.791765
	H341	H	0.801404	0.225818	0.819521
	O342	O	-0.208389	0.841159	-0.179393
	H343	H	-0.206568	0.864818	-0.154106
	H344	H	-0.189153	0.852324	-0.174847
	O345	O	0.052059	0.204226	-0.189951
	H346	H	0.052890	0.174648	-0.183715
	H347	H	0.061072	0.210674	-0.162372
	O348	O	0.062607	0.011626	0.031630
	H349	H	0.081546	0.019592	0.047861
	H350	H	0.054866	0.028039	0.027608
	O351	O	-0.213550	-0.193909	1.010723
	H352	H	-0.211125	-0.200830	1.002473
	H353	H	-0.227978	-0.205710	1.025272
	O354	O	0.958075	-0.014148	1.208348
	H355	H	0.958539	-0.017987	1.217919
	H356	H	0.980126	-0.030384	1.205847
	O357	O	0.468451	0.573867	0.419791
	H358	H	0.471401	0.582113	0.406705
	H359	H	0.471650	0.553684	0.424958
	O360	O	0.266868	0.497545	0.711647
	H361	H	0.238851	0.486007	0.741219
	H362	H	0.274730	0.457961	0.700411
	O363	O	0.971483	0.825408	-0.051893
	H364	H	0.968643	0.821960	-0.062535
	H365	H	0.970625	0.824626	-0.050875
	O366	O	0.770628	0.233913	0.972889
	H367	H	0.761847	0.242802	0.977371
	H368	H	0.785484	0.243922	0.967220
	O369	O	0.190671	0.127827	1.207996
	H370	H	0.204213	0.153928	1.222973
	H371	H	0.195213	0.125698	1.200161
	O372	O	0.053201	1.002119	1.127968
	H373	H	0.056963	0.989028	1.131610
	H374	H	0.059610	0.992126	1.127884
	O375	O	0.791664	0.136806	0.097621
	H376	H	0.796163	0.149159	0.082443
	H377	H	0.803638	0.127991	0.073546
	O378	O	0.351835	0.536538	0.449333
	H379	H	0.356875	0.521553	0.464785
	H380	H	0.354294	0.523801	0.434505
	O381	O	-0.556058	0.300557	-0.544025
	H382	H	-0.550891	0.304655	-0.544631
	H383	H	-0.536123	0.306167	-0.545492
	O384	O	0.959424	0.837081	0.166120
	H385	H	0.934291	0.843526	0.174116
	H386	H	0.952930	0.825969	0.179434
	O387	O	0.299725	0.315140	1.498543
	H388	H	0.286467	0.312279	1.502467
	H389	H	0.309649	0.300756	1.488059
	O390	O	0.499740	0.675191	0.435497
	H391	H	0.509140	0.672883	0.428916
	H392	H	0.490122	0.676535	0.430422
	O393	O	0.942518	0.129542	0.100634
	H394	H	0.931564	0.125431	0.099534
	H395	H	0.953984	0.139567	0.096514
	O396	O	0.360797	0.641519	0.281436
	H397	H	0.357554	0.666110	0.263134
	H398	H	0.348439	0.629247	0.279971
	O399	O	0.674202	0.703226	0.386357
	H400	H	0.668754	0.694372	0.392428
	H401	H	0.665758	0.706297	0.404082
	O402	O	1.058472	0.032774	0.904360
	H403	H	1.067509	0.016629	0.908209
	H404	H	1.067445	0.028864	0.905698
	O405	O	0.691713	0.494758	0.286328
	H406	H	0.690350	0.504212	0.298267
	H407	H	0.706853	0.490284	0.286984
	O408	O	1.201999	1.017907	1.007434
	H409	H	1.207034	1.030804	1.027776
	H410	H	1.195709	1.000577	1.021572
	O411	O	1.461026	0.513912	0.281550
	H412	H	1.469187	0.516690	0.281942
	H413	H	1.472188	0.525193	0.285506
	O414	O	0.011552	-0.187495	0.022737
	H415	H	-0.001961	-0.179384	-0.000960
	H416	H	0.005092	-0.191519	0.050203
	O417	O	0.677711	0.569694	0.434719
	H418	H	0.664290	0.575518	0.441292
	H419	H	0.682948	0.570326	0.448945
	O420	O	1.186840	-0.189063	0.975239
	H421	H	1.162288	-0.184895	1.001270
	H422	H	1.203339	-0.214335	0.980305
	O423	O	1.005569	0.811367	-0.217834
	H424	H	1.014210	0.792462	-0.235810
	H425	H	1.037132	0.814152	-0.218229
	O426	O	0.484849	0.484359	0.339123
	H427	H	0.510917	0.489301	0.343814
	H428	H	0.485125	0.470682	0.343247
	O429	O	0.520076	0.499820	0.653924
	H430	H	0.513487	0.504073	0.660149
	H431	H	0.535055	0.512202	0.657999
	O432	O	0.768056	0.045789	0.782201
	H433	H	0.767735	0.057208	0.783072
	H434	H	0.758431	0.048055	0.767869
	O435	O	0.409862	0.613809	0.693438
	H436	H	0.396166	0.602000	0.694457
	H437	H	0.401440	0.608848	0.684894
	O438	O	0.683844	0.320937	0.296919
	H439	H	0.700339	0.318823	0.303499
	H440	H	0.668269	0.333064	0.296687
	O441	O	1.185539	0.013568	-0.184659
	H442	H	1.211058	0.004976	-0.206026
	H443	H	1.167698	0.024866	-0.174209
	O444	O	0.499568	0.676903	0.552605
	H445	H	0.489991	0.680567	0.567012
	H446	H	0.485041	0.681555	0.546865
	O447	O	0.517935	0.729925	0.704252
	H448	H	0.495997	0.733584	0.694056
	H449	H	0.501719	0.733345	0.718186
	O450	O	1.700668	-0.694701	0.465961
	H451	H	1.706346	-0.688778	0.468713
	H452	H	1.717776	-0.707408	0.463373
	O453	O	0.341378	0.732788	0.538117
	H454	H	0.319544	0.705994	0.547177
	H455	H	0.341772	0.744038	0.524682
	O456	O	-0.008499	1.171843	1.210538
	H457	H	-0.008245	1.170895	1.218968
	H458	H	-0.021973	1.174597	1.217756
	O459	O	0.678729	0.518110	0.642703
	H460	H	0.678285	0.553168	0.636991
	H461	H	0.698389	0.525588	0.659274
	O462	O	1.628912	0.364913	0.672947
	H463	H	1.646873	0.352014	0.690675
	H464	H	1.641153	0.381809	0.652670
	O465	O	0.292072	0.333221	1.306848
	H466	H	0.319541	0.360759	1.306285
	H467	H	0.302997	0.332671	1.328562
	O468	O	0.128392	1.226439	0.145069
	H469	H	0.139144	1.218073	0.164267
	H470	H	0.106154	1.227486	0.151055
	O471	O	0.527228	0.496454	0.569103
	H472	H	0.532488	0.508364	0.575281
	H473	H	0.523822	0.503684	0.575371
	O474	O	0.975137	1.221791	0.023313
	H475	H	0.981913	1.209905	0.038327
	H476	H	0.987560	1.245526	0.033803
	O477	O	0.555364	0.427694	1.537451
	H478	H	0.552356	0.436544	1.535718
	H479	H	0.556396	0.423707	1.550376
