data_Molecule from HDF5

_cell_length_a		16.566134
_cell_length_b		16.465012
_cell_length_c		16.641676
_cell_angle_alpha	90.056765
_cell_angle_beta	90.031271
_cell_angle_gamma	89.855133
_symmetry_space_group_name_H-M	'P 1'
_symmetry_Int_Tables_number		1

loop_
	_symmetry_equiv_pos_as_xyz
	x,y,z

loop_
	_atom_site_label
	_atom_site_type_symbol
	_atom_site_fract_x
	_atom_site_fract_y
	_atom_site_fract_z
	H0	H	0.384319	0.866518	0.725436
	H1	H	0.594118	0.180322	0.723766
	H2	H	0.597058	0.866075	0.281752
	H3	H	0.383819	0.179004	0.280620
	H4	H	0.715243	0.414181	0.848224
	H5	H	0.714098	0.629045	0.157312
	H6	H	0.268263	0.626212	0.848043
	H7	H	0.271444	0.418202	0.160698
	H8	H	0.832905	0.740907	0.402517
	H9	H	0.147463	0.744157	0.608413
	H10	H	0.835300	0.301988	0.607186
	H11	H	0.148072	0.299971	0.397186
	H12	H	0.837262	0.415189	0.726407
	H13	H	0.145774	0.630672	0.728273
	H14	H	0.835153	0.628076	0.281785
	H15	H	0.147512	0.415472	0.280449
	H16	H	0.384757	0.743663	0.847320
	H17	H	0.594511	0.743017	0.158687
	H18	H	0.595245	0.300973	0.846303
	H19	H	0.388013	0.302037	0.159998
	H20	H	0.711139	0.865209	0.400365
	H21	H	0.709949	0.181303	0.606865
	H22	H	0.271343	0.864256	0.607092
	H23	H	0.267514	0.178056	0.395768
	H24	H	0.888528	0.364435	0.223015
	H25	H	0.096167	0.680793	0.224128
	H26	H	0.099048	0.366422	0.780162
	H27	H	0.883628	0.679100	0.781092
	H28	H	0.212223	0.916439	0.347295
	H29	H	0.213463	0.127679	0.657858
	H30	H	0.768511	0.129267	0.347827
	H31	H	0.769493	0.918792	0.659813
	H32	H	0.332837	0.242088	0.899532
	H33	H	0.648178	0.242704	0.106420
	H34	H	0.334621	0.801012	0.107992
	H35	H	0.647230	0.799596	0.898257
	H36	H	0.335871	0.915138	0.226174
	H37	H	0.647722	0.127989	0.224245
	H38	H	0.334059	0.127451	0.781727
	H39	H	0.647018	0.914707	0.780405
	H40	H	0.887315	0.244054	0.346583
	H41	H	0.096869	0.244695	0.657466
	H42	H	0.093674	0.802607	0.346648
	H43	H	0.887980	0.803080	0.660040
	H44	H	0.212212	0.364852	0.898719
	H45	H	0.210593	0.680614	0.106861
	H46	H	0.772562	0.364283	0.106914
	H47	H	0.768260	0.678473	0.897479
	H48	H	0.407894	0.131370	0.587401
	H49	H	0.582291	0.909491	0.591647
	H50	H	0.573401	0.133373	0.414586
	H51	H	0.408416	0.911771	0.411624
	H52	H	0.578011	0.433320	0.113528
	H53	H	0.577300	0.609612	0.892640
	H54	H	0.403839	0.613084	0.114766
	H55	H	0.401613	0.437057	0.892899
	H56	H	0.102516	0.612925	0.415960
	H57	H	0.878117	0.614910	0.592366
	H58	H	0.101972	0.439749	0.591474
	H59	H	0.880840	0.437901	0.413651
	H60	H	0.104458	0.434033	0.593940
	H61	H	0.880886	0.609143	0.590948
	H62	H	0.103655	0.608703	0.411639
	H63	H	0.878348	0.433259	0.409530
	H64	H	0.398908	0.612027	0.116037
	H65	H	0.581185	0.611599	0.890641
	H66	H	0.582701	0.429598	0.115336
	H67	H	0.402834	0.429343	0.891582
	H68	H	0.585733	0.136629	0.418095
	H69	H	0.579466	0.909752	0.593357
	H70	H	0.397255	0.134518	0.587763
	H71	H	0.403820	0.911298	0.419065
	H72	H	0.900388	0.634870	0.089445
	H73	H	0.075477	0.409824	0.099647
	H74	H	0.076512	0.634212	0.915037
	H75	H	0.905966	0.410990	0.918561
	H76	H	0.083548	0.930518	0.616362
	H77	H	0.076690	0.109186	0.392244
	H78	H	0.896083	0.117355	0.618107
	H79	H	0.897616	0.935241	0.391782
	H80	H	0.601841	0.109996	0.915390
	H81	H	0.378353	0.108029	0.097921
	H82	H	0.604808	0.929043	0.093006
	H83	H	0.378691	0.933212	0.913048
	H84	H	0.601548	0.934007	0.087536
	H85	H	0.377739	0.116891	0.091323
	H86	H	0.603011	0.108759	0.910712
	H87	H	0.379877	0.934045	0.914973
	H88	H	0.899807	0.104899	0.612630
	H89	H	0.080552	0.113349	0.389459
	H90	H	0.083818	0.937236	0.614568
	H91	H	0.903455	0.933491	0.393616
	H92	H	0.079796	0.633657	0.917305
	H93	H	0.078629	0.412303	0.085943
	H94	H	0.901247	0.637034	0.095702
	H95	H	0.900714	0.409431	0.914100
	H96	H	0.403674	0.136273	0.596515
	H97	H	0.579714	0.911052	0.590733
	H98	H	0.581366	0.138639	0.406332
	H99	H	0.400349	0.907475	0.411736
	H100	H	0.583861	0.435676	0.114033
	H101	H	0.581063	0.606746	0.891384
	H102	H	0.401796	0.608396	0.113621
	H103	H	0.395940	0.432927	0.890335
	H104	H	0.105735	0.614658	0.410389
	H105	H	0.879189	0.610795	0.597184
	H106	H	0.102162	0.433847	0.587432
	H107	H	0.879664	0.431530	0.415533
	H108	H	0.906523	0.633701	0.092854
	H109	H	0.088517	0.407204	0.094826
	H110	H	0.080001	0.635432	0.913568
	H111	H	0.907280	0.410206	0.911539
	H112	H	0.077619	0.933866	0.614658
	H113	H	0.082820	0.107788	0.391021
	H114	H	0.908620	0.115897	0.612934
	H115	H	0.899622	0.929958	0.389879
	H116	H	0.603864	0.113433	0.912626
	H117	H	0.381787	0.107277	0.087949
	H118	H	0.601950	0.936724	0.095704
	H119	H	0.379854	0.935450	0.913182
	C120	C	0.370301	0.030343	0.623202
	C121	C	0.612045	1.014438	0.624257
	C122	C	0.612592	0.031991	0.381544
	C123	C	0.370479	1.013468	0.381151
	C124	C	0.613135	0.400237	0.011172
	C125	C	0.612082	0.642457	0.994280
	C126	C	0.368981	0.643473	0.011786
	C127	C	0.369020	0.400753	0.995167
	C128	C	-0.000118	0.643658	0.381980
	C129	C	0.982539	0.644486	0.625676
	C130	C	0.000156	0.402675	0.623457
	C131	C	0.982928	0.401150	0.380787
	C132	C	0.871052	0.530804	0.124257
	C133	C	0.112613	0.514199	0.125164
	C134	C	0.112013	0.530820	0.882607
	C135	C	0.870876	0.513814	0.882206
	C136	C	0.113031	0.901233	0.511963
	C137	C	0.112666	0.143133	0.493898
	C138	C	0.869710	0.144904	0.511497
	C139	C	0.869104	0.901482	0.495417
	C140	C	0.499214	0.143526	0.881240
	C141	C	0.482764	0.143359	0.124328
	C142	C	0.499507	0.900826	0.124309
	C143	C	0.482569	0.900700	0.881216
	C144	C	0.366955	0.912973	0.684267
	C145	C	0.613195	0.133229	0.683929
	C146	C	0.615434	0.913358	0.321698
	C147	C	0.366304	0.131738	0.320725
	C148	C	0.674059	0.396675	0.894293
	C149	C	0.672965	0.646387	0.111125
	C150	C	0.308387	0.645464	0.894521
	C151	C	0.310591	0.399387	0.113235
	C152	C	0.880856	0.702048	0.382264
	C153	C	0.100347	0.704456	0.627544
	C154	C	0.882702	0.342015	0.625803
	C155	C	0.100868	0.340212	0.378575
	C156	C	0.883369	0.398389	0.685094
	C157	C	0.099565	0.648258	0.686984
	C158	C	0.881531	0.645608	0.322735
	C159	C	0.100622	0.397666	0.320547
	C160	C	0.366166	0.703701	0.894335
	C161	C	0.613683	0.703062	0.111753
	C162	C	0.614159	0.340742	0.893506
	C163	C	0.368779	0.341571	0.112967
	C164	C	0.672032	0.912989	0.380567
	C165	C	0.670507	0.133628	0.625778
	C166	C	0.310770	0.911982	0.625193
	C167	C	0.308276	0.131088	0.377928
	C168	C	0.869665	0.411818	0.183438
	C169	C	0.114606	0.633026	0.184535
	C170	C	0.115971	0.412949	0.821441
	C171	C	0.866380	0.631678	0.821336
	C172	C	0.172134	0.898573	0.394309
	C173	C	0.173122	0.145939	0.611096
	C174	C	0.809162	0.147426	0.394277
	C175	C	0.809416	0.899917	0.612799
	C176	C	0.380843	0.203344	0.880078
	C177	C	0.601195	0.202808	0.125226
	C178	C	0.381826	0.840655	0.126459
	C179	C	0.600158	0.839706	0.879105
	C180	C	0.382423	0.897653	0.185185
	C181	C	0.600804	0.145725	0.183835
	C182	C	0.381043	0.146014	0.821744
	C183	C	0.600051	0.896985	0.820579
	C184	C	0.868099	0.204501	0.393746
	C185	C	0.115134	0.204016	0.611022
	C186	C	0.113216	0.841940	0.393815
	C187	C	0.868293	0.842503	0.613024
	C188	C	0.172241	0.412268	0.880401
	C189	C	0.171576	0.633182	0.126298
	C190	C	0.812107	0.411668	0.125659
	C191	C	0.808920	0.631500	0.879234
	C192	C	0.395908	0.112943	0.597876
	C193	C	0.587623	0.931775	0.599158
	C194	C	0.587516	0.114504	0.405966
	C195	C	0.396892	0.931607	0.406707
	C196	C	0.588711	0.425596	0.092832
	C197	C	0.587105	0.616747	0.913150
	C198	C	0.394222	0.618329	0.093411
	C199	C	0.393145	0.425843	0.912919
	C200	C	0.082442	0.619076	0.405803
	C201	C	0.900668	0.618892	0.600781
	C202	C	0.081694	0.428596	0.598179
	C203	C	0.900930	0.426798	0.405775
	C204	C	0.895603	0.613597	0.099644
	C205	C	0.087949	0.431268	0.100591
	C206	C	0.086106	0.613100	0.908061
	C207	C	0.897174	0.431655	0.907406
	C208	C	0.088352	0.926418	0.593877
	C209	C	0.087388	0.117419	0.412243
	C210	C	0.894493	0.119801	0.593207
	C211	C	0.893402	0.926119	0.413034
	C212	C	0.581491	0.118068	0.905829
	C213	C	0.400743	0.118111	0.099367
	C214	C	0.581603	0.926183	0.099242
	C215	C	0.400953	0.926856	0.906323
	Zn216	Zn	0.490762	0.022401	0.752721
	Zn217	Zn	0.490996	0.022721	0.252948
	Zn218	Zn	0.742436	0.521511	0.003233
	Zn219	Zn	0.240156	0.522359	0.003824
	Zn220	Zn	-0.008771	0.772717	0.503822
	Zn221	Zn	-0.007986	0.273080	0.502554
	Zn222	Zn	-0.008092	0.522556	0.753777
	Zn223	Zn	-0.008405	0.522715	0.252655
	Zn224	Zn	0.490710	0.772126	0.002751
	Zn225	Zn	0.490949	0.271767	0.002842
	Zn226	Zn	0.740697	0.023502	0.503438
	Zn227	Zn	0.242344	0.022105	0.502325
	N228	N	0.403340	0.987738	0.683189
	N229	N	0.577683	0.057980	0.683368
	N230	N	0.579306	0.988427	0.321912
	N231	N	0.404326	0.057525	0.322512
	N232	N	0.673653	0.432995	0.968569
	N233	N	0.672210	0.609396	0.037276
	N234	N	0.309825	0.608993	0.968653
	N235	N	0.310310	0.435071	0.038567
	N236	N	0.955461	0.701217	0.418299
	N237	N	0.026604	0.702107	0.590128
	N238	N	0.956308	0.344423	0.588184
	N239	N	0.026639	0.342125	0.415354
	N240	N	0.957370	0.435618	0.683652
	N241	N	0.025174	0.611724	0.686138
	N242	N	0.956690	0.610362	0.322225
	N243	N	0.026349	0.434823	0.321727
	N244	N	0.403067	0.702622	0.968235
	N245	N	0.576452	0.700908	0.038234
	N246	N	0.576938	0.342723	0.967112
	N247	N	0.404247	0.342165	0.038374
	N248	N	0.670763	0.987884	0.416839
	N249	N	0.670180	0.058613	0.589733
	N250	N	0.312914	0.986240	0.587906
	N251	N	0.310759	0.056637	0.414895
	N252	N	0.905517	0.486925	0.182726
	N253	N	0.078837	0.557912	0.183977
	N254	N	0.079167	0.487704	0.822678
	N255	N	0.904178	0.557419	0.823022
	N256	N	0.172294	0.934341	0.468750
	N257	N	0.171879	0.109015	0.537154
	N258	N	0.809709	0.111227	0.468588
	N259	N	0.809915	0.935839	0.538385
	N260	N	0.455403	0.201844	0.916442
	N261	N	0.526725	0.201496	0.088899
	N262	N	0.455817	0.842380	0.089357
	N263	N	0.526198	0.841631	0.915933
	N264	N	0.456778	0.934298	0.184069
	N265	N	0.526200	0.109746	0.183494
	N266	N	0.455762	0.109703	0.822237
	N267	N	0.525753	0.934278	0.821741
	N268	N	0.904924	0.203071	0.467667
	N269	N	0.078442	0.202488	0.537089
	N270	N	0.077164	0.843035	0.468308
	N271	N	0.904498	0.843296	0.538869
	N272	N	0.169706	0.486568	0.917962
	N273	N	0.170716	0.558128	0.090368
	N274	N	0.812706	0.486787	0.089665
	N275	N	0.811502	0.556981	0.916415
	O276	O	1.125472	0.217099	-0.801018
	H277	H	1.111072	0.195895	-0.795984
	H278	H	1.132250	0.218764	-0.781932
	O279	O	0.205103	0.102818	0.959421
	H280	H	0.207053	0.127305	0.961205
	H281	H	0.193863	0.112947	0.950915
	O282	O	0.300738	0.499338	0.710369
	H283	H	0.299753	0.517550	0.709135
	H284	H	0.302955	0.503104	0.716951
	O285	O	0.055897	0.129887	1.015348
	H286	H	0.059619	0.139358	1.020821
	H287	H	0.059485	0.124143	1.027190
	O288	O	0.787063	-0.030147	0.936329
	H289	H	0.790831	-0.026321	0.939975
	H290	H	0.788835	-0.013811	0.948399
	O291	O	0.481185	0.476023	1.502567
	H292	H	0.475738	0.456790	1.516927
	H293	H	0.476765	0.474618	1.501769
	O294	O	0.014147	0.201778	-0.189301
	H295	H	0.018447	0.200404	-0.195352
	H296	H	0.000321	0.209407	-0.202509
	O297	O	0.441790	0.647576	0.637731
	H298	H	0.453379	0.637923	0.645475
	H299	H	0.449526	0.646269	0.641533
	O300	O	0.026248	-0.114822	-0.050955
	H301	H	0.031775	-0.110258	-0.052987
	H302	H	0.023441	-0.106575	-0.026747
	O303	O	-0.200319	-0.163020	-0.261847
	H304	H	-0.195466	-0.184113	-0.258586
	H305	H	-0.189063	-0.160024	-0.280742
	O306	O	0.990660	0.199594	0.146682
	H307	H	0.991474	0.211361	0.154253
	H308	H	0.987987	0.199084	0.146947
	O309	O	0.495817	0.523474	0.406824
	H310	H	0.491377	0.514969	0.418061
	H311	H	0.488539	0.529559	0.412895
	O312	O	0.273528	0.550463	0.290020
	H313	H	0.265485	0.539256	0.287921
	H314	H	0.268693	0.561368	0.286422
	O315	O	0.273090	0.307182	0.533281
	H316	H	0.261894	0.287605	0.542162
	H317	H	0.267190	0.307146	0.543388
	O318	O	1.290825	0.726330	0.303404
	H319	H	1.298838	0.689300	0.297602
	H320	H	1.281744	0.746003	0.290552
	O321	O	0.469730	0.406606	0.282682
	H322	H	0.477863	0.379747	0.280098
	H323	H	0.449596	0.407172	0.283888
	O324	O	1.197505	0.043000	1.211295
	H325	H	1.203480	0.036084	1.223374
	H326	H	1.190357	0.031059	1.204539
	O327	O	1.194918	0.821730	0.798954
	H328	H	1.201488	0.806974	0.798989
	H329	H	1.159137	0.828950	0.790089
	O330	O	0.530211	0.377587	0.526923
	H331	H	0.522483	0.376210	0.538178
	H332	H	0.533552	0.376316	0.533894
	O333	O	0.623981	0.405790	0.328433
	H334	H	0.631461	0.429291	0.330026
	H335	H	0.633833	0.399979	0.325016
	O336	O	0.518857	0.509599	0.660636
	H337	H	0.501834	0.493951	0.665957
	H338	H	0.537321	0.509457	0.661506
	O339	O	0.647436	0.503632	0.506624
	H340	H	0.648507	0.483747	0.518112
	H341	H	0.645951	0.518693	0.523355
	O342	O	0.152498	0.862360	0.196722
	H343	H	0.141266	0.887309	0.184439
	H344	H	0.141801	0.856733	0.187264
	O345	O	-0.213408	0.232514	-0.148275
	H346	H	-0.204260	0.230181	-0.152066
	H347	H	-0.212779	0.211790	-0.149069
	O348	O	0.160143	0.231550	-0.003883
	H349	H	0.164696	0.243402	0.001285
	H350	H	0.160007	0.237010	0.004091
	O351	O	-0.035679	-0.179698	0.870138
	H352	H	-0.040548	-0.179404	0.880182
	H353	H	-0.036172	-0.191852	0.877954
	O354	O	1.030619	-0.161903	1.078151
	H355	H	1.035798	-0.173640	1.083253
	H356	H	1.026539	-0.156379	1.080538
	O357	O	0.616890	0.394852	0.709587
	H358	H	0.633089	0.391145	0.722390
	H359	H	0.622665	0.413210	0.696729
	O360	O	0.672825	0.702210	0.323144
	H361	H	0.657460	0.672836	0.324971
	H362	H	0.650066	0.700204	0.348092
	O363	O	0.775832	0.987958	0.222455
	H364	H	0.757489	1.000007	0.213928
	H365	H	0.766150	0.982399	0.232338
	O366	O	0.936803	0.110611	1.029689
	H367	H	0.951411	0.112201	1.029700
	H368	H	0.930530	0.122072	1.018084
	O369	O	-0.129841	0.004591	1.081296
	H370	H	-0.129150	-0.001584	1.084830
	H371	H	-0.143071	-0.006119	1.072198
	O372	O	0.206956	0.809809	0.968020
	H373	H	0.221062	0.809479	0.961303
	H374	H	0.218787	0.797238	0.954996
	O375	O	1.152769	-0.018523	0.029269
	H376	H	1.156959	-0.003489	0.010483
	H377	H	1.158931	-0.030721	0.014429
	O378	O	0.276719	0.568390	0.579309
	H379	H	0.276196	0.567089	0.579172
	H380	H	0.273786	0.567603	0.567196
	O381	O	-0.304529	0.637018	-0.294087
	H382	H	-0.282462	0.639826	-0.282265
	H383	H	-0.310219	0.625295	-0.326266
	O384	O	0.788784	0.818429	0.205463
	H385	H	0.757372	0.792493	0.228857
	H386	H	0.795557	0.847941	0.203139
	O387	O	0.201662	0.993037	0.789493
	H388	H	0.216531	0.988968	0.784682
	H389	H	0.205832	0.976749	0.785095
	O390	O	0.487163	0.300834	0.359961
	H391	H	0.491885	0.298162	0.376140
	H392	H	0.492160	0.289166	0.342840
	O393	O	0.780296	0.060963	-0.207727
	H394	H	0.779230	0.041826	-0.191628
	H395	H	0.768175	0.046157	-0.229400
	O396	O	0.700959	0.734905	0.538677
	H397	H	0.697125	0.746107	0.525155
	H398	H	0.700330	0.740053	0.524124
	O399	O	0.421328	0.639210	0.521938
	H400	H	0.420510	0.640176	0.532129
	H401	H	0.406875	0.636559	0.530135
	O402	O	0.979320	-0.025703	1.180035
	H403	H	0.981990	-0.026009	1.175211
	H404	H	0.977420	-0.036022	1.170912
	O405	O	0.587783	0.531192	0.293234
	H406	H	0.591410	0.531569	0.307545
	H407	H	0.587859	0.525538	0.286581
	O408	O	0.773450	1.157445	1.017666
	H409	H	0.780135	1.160780	1.007650
	H410	H	0.773082	1.172702	1.000116
	O411	O	1.040501	1.058208	-0.183049
	H412	H	1.042440	1.064752	-0.180272
	H413	H	1.046748	1.047867	-0.183420
	O414	O	-0.116455	-0.033601	-0.013845
	H415	H	-0.122424	-0.032827	-0.010517
	H416	H	-0.105778	-0.042468	-0.003295
	O417	O	0.644703	0.541640	0.298076
	H418	H	0.630075	0.530343	0.304573
	H419	H	0.655123	0.530739	0.290154
	O420	O	1.003788	0.217388	0.809051
	H421	H	0.982953	0.217969	0.810749
	H422	H	0.989373	0.186673	0.811846
	O423	O	0.865565	1.217099	0.079167
	H424	H	0.879145	1.210901	0.077434
	H425	H	0.876125	1.205883	0.059858
	O426	O	0.455025	0.305396	0.718679
	H427	H	0.460317	0.309682	0.731289
	H428	H	0.444551	0.295764	0.734995
	O429	O	0.465519	0.734691	0.292590
	H430	H	0.453372	0.716448	0.286498
	H431	H	0.465143	0.752335	0.277203
	O432	O	0.806051	-0.158606	1.034609
	H433	H	0.819424	-0.160702	1.059525
	H434	H	0.789863	-0.174338	1.034286
	O435	O	0.579512	0.718693	0.443738
	H436	H	0.564426	0.714244	0.458012
	H437	H	0.552961	0.718870	0.434424
	O438	O	0.710659	0.514929	0.633387
	H439	H	0.703598	0.514349	0.618592
	H440	H	0.722688	0.521047	0.638880
	O441	O	0.946622	0.039667	0.037636
	H442	H	0.936213	0.033365	0.036469
	H443	H	0.951567	0.035887	0.040065
	O444	O	0.696099	0.309215	0.473839
	H445	H	0.680186	0.308007	0.470193
	H446	H	0.715302	0.285229	0.464735
	O447	O	0.515662	0.738837	0.722322
	H448	H	0.529966	0.741179	0.717669
	H449	H	0.531470	0.764884	0.741229
	O450	O	1.272784	-0.262764	0.474398
	H451	H	1.263531	-0.256968	0.455628
	H452	H	1.266691	-0.247612	0.459252
	O453	O	0.324268	0.700338	0.679560
	H454	H	0.319504	0.687470	0.659051
	H455	H	0.332854	0.697987	0.674839
	O456	O	-0.037685	0.807072	1.218290
	H457	H	-0.054241	0.793603	1.229404
	H458	H	-0.056983	0.795806	1.219729
	O459	O	0.580765	0.501568	0.579978
	H460	H	0.586401	0.509843	0.574081
	H461	H	0.566431	0.498978	0.583899
	O462	O	1.310970	0.295213	0.318991
	H463	H	1.318723	0.278385	0.319328
	H464	H	1.303042	0.308032	0.320905
	O465	O	0.289789	0.321813	0.704675
	H466	H	0.276239	0.321120	0.711521
	H467	H	0.306886	0.340511	0.702805
	O468	O	0.008473	0.817949	-0.145699
	H469	H	0.002093	0.813073	-0.147197
	H470	H	-0.002881	0.808626	-0.146650
	O471	O	0.277623	0.465043	0.442280
	H472	H	0.273194	0.472832	0.437343
	H473	H	0.284967	0.448349	0.449078
	O474	O	0.992420	1.234303	-0.000161
	H475	H	0.986648	1.245259	0.005857
	H476	H	1.011420	1.236125	0.016715
	O477	O	0.610469	0.310859	1.458706
	H478	H	0.606531	0.312964	1.464787
	H479	H	0.606883	0.318581	1.461637
