data_Molecule from HDF5

_cell_length_a		16.502794
_cell_length_b		16.479109
_cell_length_c		16.190485
_cell_angle_alpha	89.850993
_cell_angle_beta	89.862062
_cell_angle_gamma	89.984433
_symmetry_space_group_name_H-M	'P 1'
_symmetry_Int_Tables_number		1

loop_
	_symmetry_equiv_pos_as_xyz
	x,y,z

loop_
	_atom_site_label
	_atom_site_type_symbol
	_atom_site_fract_x
	_atom_site_fract_y
	_atom_site_fract_z
	H0	H	0.393730	0.840662	0.718844
	H1	H	0.599326	0.159192	0.713519
	H2	H	0.595469	0.837489	0.280027
	H3	H	0.395803	0.158785	0.277372
	H4	H	0.721240	0.391646	0.837740
	H5	H	0.716412	0.601836	0.158159
	H6	H	0.278538	0.606938	0.835875
	H7	H	0.277261	0.395324	0.157216
	H8	H	0.838466	0.720875	0.389631
	H9	H	0.155417	0.721844	0.600655
	H10	H	0.840857	0.274353	0.605421
	H11	H	0.153413	0.274780	0.387001
	H12	H	0.838945	0.395624	0.716821
	H13	H	0.158303	0.601560	0.712827
	H14	H	0.837605	0.600801	0.277412
	H15	H	0.156782	0.399724	0.278827
	H16	H	0.393356	0.721725	0.836714
	H17	H	0.600520	0.716160	0.159195
	H18	H	0.604873	0.278459	0.836780
	H19	H	0.391386	0.279513	0.156885
	H20	H	0.718217	0.840046	0.389179
	H21	H	0.721338	0.155873	0.603627
	H22	H	0.275739	0.839984	0.604264
	H23	H	0.273683	0.155046	0.387827
	H24	H	0.892853	0.340131	0.218556
	H25	H	0.095548	0.660151	0.212790
	H26	H	0.103878	0.340280	0.775585
	H27	H	0.898408	0.659180	0.778477
	H28	H	0.217501	0.892705	0.334927
	H29	H	0.218469	0.103706	0.656051
	H30	H	0.778135	0.102564	0.334766
	H31	H	0.775351	0.891022	0.655867
	H32	H	0.341575	0.226298	0.885767
	H33	H	0.655030	0.222032	0.103198
	H34	H	0.341630	0.773784	0.107610
	H35	H	0.655937	0.779034	0.891780
	H36	H	0.338437	0.896459	0.215845
	H37	H	0.657800	0.098804	0.212606
	H38	H	0.339455	0.106442	0.773696
	H39	H	0.657081	0.898723	0.777531
	H40	H	0.891100	0.220014	0.335579
	H41	H	0.105907	0.221520	0.655498
	H42	H	0.098157	0.782691	0.332956
	H43	H	0.892843	0.779167	0.656871
	H44	H	0.223445	0.343349	0.887779
	H45	H	0.218254	0.657880	0.103511
	H46	H	0.771825	0.342452	0.107136
	H47	H	0.776220	0.656581	0.889163
	H48	H	0.412945	0.110919	0.585941
	H49	H	0.587435	0.887507	0.582212
	H50	H	0.584610	0.111977	0.400698
	H51	H	0.409397	0.887409	0.410889
	H52	H	0.583166	0.413615	0.109435
	H53	H	0.581524	0.596222	0.881432
	H54	H	0.412305	0.593685	0.112920
	H55	H	0.411584	0.411081	0.882123
	H56	H	0.108217	0.584765	0.405967
	H57	H	0.886328	0.586273	0.583087
	H58	H	0.109381	0.408224	0.580588
	H59	H	0.887604	0.414255	0.413586
	H60	H	0.109969	0.410067	0.584790
	H61	H	0.883525	0.588443	0.589567
	H62	H	0.113295	0.595114	0.399548
	H63	H	0.881704	0.409833	0.402068
	H64	H	0.402052	0.588207	0.114287
	H65	H	0.595709	0.591478	0.877909
	H66	H	0.584292	0.409027	0.111754
	H67	H	0.408263	0.414955	0.881562
	H68	H	0.587255	0.109287	0.412070
	H69	H	0.586991	0.885834	0.585149
	H70	H	0.406666	0.107750	0.575429
	H71	H	0.401716	0.883987	0.408418
	H72	H	0.901988	0.614813	0.088940
	H73	H	0.091636	0.383996	0.090100
	H74	H	0.086689	0.612279	0.902455
	H75	H	0.910573	0.388287	0.911875
	H76	H	0.088855	0.909323	0.612163
	H77	H	0.087802	0.083792	0.381633
	H78	H	0.908999	0.085134	0.610408
	H79	H	0.906609	0.904940	0.378378
	H80	H	0.611375	0.089981	0.901708
	H81	H	0.387220	0.088545	0.080092
	H82	H	0.611441	0.907459	0.087590
	H83	H	0.383080	0.903308	0.907608
	H84	H	0.611566	0.906734	0.086248
	H85	H	0.384061	0.087743	0.088908
	H86	H	0.610554	0.095828	0.909863
	H87	H	0.387904	0.910887	0.916694
	H88	H	0.909254	0.085670	0.610091
	H89	H	0.082469	0.084438	0.383522
	H90	H	0.085476	0.911032	0.609638
	H91	H	0.903323	0.911688	0.379379
	H92	H	0.088430	0.611735	0.909769
	H93	H	0.083327	0.387981	0.085751
	H94	H	0.913744	0.609888	0.086998
	H95	H	0.905546	0.385610	0.909711
	H96	H	0.401032	0.113796	0.585009
	H97	H	0.584579	0.887156	0.584264
	H98	H	0.595895	0.114172	0.405245
	H99	H	0.408392	0.883888	0.402802
	H100	H	0.588175	0.413065	0.111404
	H101	H	0.585478	0.581693	0.884698
	H102	H	0.410638	0.582779	0.108833
	H103	H	0.412331	0.416107	0.884321
	H104	H	0.109250	0.595955	0.412336
	H105	H	0.884319	0.593569	0.584417
	H106	H	0.111132	0.405764	0.584060
	H107	H	0.883010	0.401518	0.412511
	H108	H	0.905161	0.609735	0.077413
	H109	H	0.092030	0.387025	0.080523
	H110	H	0.092930	0.614456	0.904611
	H111	H	0.910607	0.385824	0.906131
	H112	H	0.085533	0.906861	0.611133
	H113	H	0.085218	0.089021	0.380681
	H114	H	0.908597	0.085656	0.609997
	H115	H	0.910527	0.910590	0.381336
	H116	H	0.607916	0.086601	0.910598
	H117	H	0.383060	0.095781	0.084501
	H118	H	0.611034	0.907598	0.085829
	H119	H	0.385114	0.915511	0.904890
	C120	C	0.375126	0.006748	0.617151
	C121	C	0.618590	0.991193	0.616607
	C122	C	0.619574	0.006796	0.374035
	C123	C	0.375181	0.989572	0.373951
	C124	C	0.618893	0.378852	0.005526
	C125	C	0.619048	0.620626	0.988111
	C126	C	0.376779	0.621460	0.005866
	C127	C	0.377448	0.380525	0.987975
	C128	C	0.005073	0.622197	0.374297
	C129	C	0.989627	0.621022	0.616932
	C130	C	0.006283	0.375812	0.617806
	C131	C	0.988486	0.377287	0.375546
	C132	C	0.875144	0.506908	0.118183
	C133	C	0.118997	0.491502	0.117387
	C134	C	0.121312	0.508372	0.873670
	C135	C	0.876808	0.490685	0.875685
	C136	C	0.117810	0.877678	0.504065
	C137	C	0.118167	0.118847	0.487751
	C138	C	0.876488	0.118553	0.504370
	C139	C	0.875131	0.876747	0.486694
	C140	C	0.506135	0.123326	0.873602
	C141	C	0.489613	0.121141	0.116737
	C142	C	0.506535	0.876234	0.119019
	C143	C	0.489884	0.878708	0.876955
	C144	C	0.373784	0.888300	0.679231
	C145	C	0.619612	0.110855	0.675582
	C146	C	0.617198	0.886093	0.317031
	C147	C	0.375589	0.110152	0.315586
	C148	C	0.680505	0.374512	0.885377
	C149	C	0.677471	0.620841	0.109607
	C150	C	0.317793	0.624510	0.884419
	C151	C	0.316898	0.377109	0.108886
	C152	C	0.885968	0.680908	0.371998
	C153	C	0.108540	0.680912	0.618162
	C154	C	0.887774	0.315369	0.622437
	C155	C	0.106805	0.316539	0.370701
	C156	C	0.887005	0.375848	0.678075
	C157	C	0.109944	0.621060	0.674405
	C158	C	0.885317	0.621128	0.316078
	C159	C	0.108451	0.378285	0.316625
	C160	C	0.374946	0.681973	0.884870
	C161	C	0.619577	0.677511	0.110327
	C162	C	0.622577	0.318046	0.885047
	C163	C	0.373792	0.319482	0.108591
	C164	C	0.677915	0.887283	0.371874
	C165	C	0.679909	0.109135	0.620151
	C166	C	0.315659	0.887583	0.621542
	C167	C	0.314759	0.108341	0.370485
	C168	C	0.873638	0.388048	0.179139
	C169	C	0.116767	0.611778	0.175180
	C170	C	0.122650	0.388515	0.814475
	C171	C	0.877576	0.610686	0.816783
	C172	C	0.176957	0.875692	0.382896
	C173	C	0.179425	0.122308	0.607528
	C174	C	0.817307	0.121316	0.383249
	C175	C	0.815269	0.873749	0.607543
	C176	C	0.388368	0.185012	0.868803
	C177	C	0.608028	0.181010	0.120077
	C178	C	0.388310	0.815282	0.123587
	C179	C	0.608722	0.819089	0.873799
	C180	C	0.386673	0.876167	0.177940
	C181	C	0.609563	0.119774	0.174684
	C182	C	0.387328	0.125113	0.812931
	C183	C	0.609203	0.878733	0.817074
	C184	C	0.873861	0.179402	0.383537
	C185	C	0.122754	0.180491	0.607427
	C186	C	0.117816	0.820504	0.382059
	C187	C	0.873929	0.817985	0.608279
	C188	C	0.182270	0.390123	0.870690
	C189	C	0.177660	0.610610	0.120375
	C190	C	0.813887	0.388816	0.123051
	C191	C	0.816908	0.609581	0.872032
	C192	C	0.399640	0.089319	0.590023
	C193	C	0.593437	0.908331	0.591257
	C194	C	0.595987	0.090298	0.398959
	C195	C	0.399491	0.906641	0.399727
	C196	C	0.592605	0.404544	0.089174
	C197	C	0.594774	0.596683	0.903231
	C198	C	0.401245	0.595703	0.089954
	C199	C	0.403119	0.406540	0.904495
	C200	C	0.088571	0.598538	0.398814
	C201	C	0.906384	0.596646	0.592675
	C202	C	0.088600	0.400621	0.590916
	C203	C	0.905717	0.401434	0.401923
	C204	C	0.899897	0.589758	0.091966
	C205	C	0.095691	0.408079	0.092686
	C206	C	0.096686	0.591242	0.898483
	C207	C	0.901623	0.408053	0.901811
	C208	C	0.093449	0.902247	0.588991
	C209	C	0.092448	0.093172	0.403899
	C210	C	0.901765	0.093006	0.588288
	C211	C	0.899758	0.901745	0.401835
	C212	C	0.588394	0.097811	0.899823
	C213	C	0.406373	0.097471	0.091689
	C214	C	0.589701	0.900467	0.093837
	C215	C	0.406912	0.903002	0.902336
	Zn216	Zn	0.497350	-0.000227	0.745825
	Zn217	Zn	0.497508	-0.000849	0.245981
	Zn218	Zn	0.746353	0.499264	-0.003389
	Zn219	Zn	0.249145	0.500881	-0.003519
	Zn220	Zn	-0.003323	0.750889	0.495647
	Zn221	Zn	-0.002961	0.246840	0.496189
	Zn222	Zn	-0.001236	0.499137	0.746051
	Zn223	Zn	-0.003036	0.499302	0.246692
	Zn224	Zn	0.498522	0.748476	-0.002383
	Zn225	Zn	0.497596	0.251713	-0.003711
	Zn226	Zn	0.748646	-0.001751	0.495380
	Zn227	Zn	0.246206	-0.002513	0.495849
	N228	N	0.409948	0.963308	0.676609
	N229	N	0.581907	0.036563	0.673251
	N230	N	0.581661	0.961546	0.318181
	N231	N	0.412201	0.035204	0.317560
	N232	N	0.678239	0.411736	0.961125
	N233	N	0.677154	0.586160	0.032382
	N234	N	0.318852	0.587481	0.960648
	N235	N	0.318881	0.414372	0.032823
	N236	N	0.961588	0.681658	0.407278
	N237	N	0.032579	0.681198	0.583344
	N238	N	0.963015	0.314982	0.585994
	N239	N	0.031170	0.315686	0.406506
	N240	N	0.961781	0.412728	0.675429
	N241	N	0.035125	0.584567	0.673723
	N242	N	0.960515	0.585365	0.317261
	N243	N	0.033898	0.415347	0.319504
	N244	N	0.410877	0.680200	0.961277
	N245	N	0.584069	0.677648	0.033576
	N246	N	0.584778	0.320730	0.960824
	N247	N	0.410593	0.321232	0.032446
	N248	N	0.679567	0.963256	0.406661
	N249	N	0.679715	0.033497	0.584543
	N250	N	0.316125	0.962599	0.583741
	N251	N	0.314091	0.032452	0.405790
	N252	N	0.911140	0.462432	0.175909
	N253	N	0.080729	0.536716	0.173297
	N254	N	0.085451	0.462966	0.816028
	N255	N	0.914222	0.535822	0.818826
	N256	N	0.177306	0.910471	0.459939
	N257	N	0.176476	0.084370	0.532071
	N258	N	0.818877	0.084274	0.459193
	N259	N	0.815917	0.909729	0.530743
	N260	N	0.463207	0.184241	0.905754
	N261	N	0.532342	0.181852	0.084862
	N262	N	0.463976	0.815203	0.087720
	N263	N	0.533276	0.818667	0.909756
	N264	N	0.460955	0.913634	0.174977
	N265	N	0.534721	0.083354	0.173001
	N266	N	0.461718	0.087518	0.815651
	N267	N	0.534168	0.914895	0.818621
	N268	N	0.910168	0.177914	0.460034
	N269	N	0.085238	0.178433	0.531762
	N270	N	0.081639	0.821865	0.458576
	N271	N	0.910256	0.819863	0.531943
	N272	N	0.181905	0.465701	0.906386
	N273	N	0.179081	0.534880	0.084923
	N274	N	0.814666	0.463812	0.085927
	N275	N	0.816085	0.533794	0.907814
	O276	O	0.447826	0.570283	0.482469
	H277	H	0.442769	0.559915	0.473749
	H278	H	0.440283	0.575739	0.505043
	O279	O	0.457109	0.670530	0.613449
	H280	H	0.459174	0.669565	0.625551
	H281	H	0.461213	0.673658	0.634489
	O282	O	0.424202	0.375687	0.492369
	H283	H	0.413340	0.376195	0.489775
	H284	H	0.416378	0.374611	0.487352
	O285	O	0.870648	0.139279	-0.177584
	H286	H	0.896622	0.150405	-0.183642
	H287	H	0.872311	0.145699	-0.144812
	O288	O	-0.040402	0.050368	1.055368
	H289	H	-0.034931	0.046381	1.040605
	H290	H	-0.032295	0.035565	1.072934
	O291	O	0.637822	0.416886	0.417677
	H292	H	0.635643	0.419762	0.416988
	H293	H	0.631824	0.421550	0.419194
	O294	O	0.607714	0.464903	0.313139
	H295	H	0.611477	0.484690	0.336029
	H296	H	0.626470	0.464033	0.307318
	O297	O	1.055527	1.136042	0.916200
	H298	H	1.062317	1.145076	0.918230
	H299	H	1.038882	1.123677	0.912400
	O300	O	0.028248	0.204779	0.097247
	H301	H	0.021634	0.197025	0.086071
	H302	H	0.022762	0.211515	0.109031
	O303	O	0.521823	0.417336	0.675147
	H304	H	0.518378	0.422759	0.673554
	H305	H	0.509447	0.411758	0.662884
	O306	O	0.907330	0.186802	0.051018
	H307	H	0.915989	0.184598	0.077070
	H308	H	0.905661	0.181367	0.047160
	O309	O	0.696657	0.504219	0.528786
	H310	H	0.703945	0.503371	0.533242
	H311	H	0.698936	0.501973	0.548025
	O312	O	0.940551	0.839750	0.183088
	H313	H	0.944193	0.842255	0.185312
	H314	H	0.949614	0.833346	0.180103
	O315	O	0.350114	0.314277	0.508592
	H316	H	0.349976	0.317568	0.512465
	H317	H	0.353294	0.304141	0.510434
	O318	O	0.620362	0.315767	0.336304
	H319	H	0.618633	0.309088	0.349237
	H320	H	0.623391	0.337949	0.334375
	O321	O	0.971358	0.202207	0.786105
	H322	H	0.977397	0.190111	0.782303
	H323	H	0.957143	0.221098	0.760872
	O324	O	-0.185588	0.047587	1.098404
	H325	H	-0.186566	0.027788	1.098575
	H326	H	-0.187107	0.055140	1.098827
	O327	O	0.430432	0.616491	0.442251
	H328	H	0.433671	0.614352	0.441295
	H329	H	0.427444	0.616666	0.435456
	O330	O	0.307691	0.490631	0.673921
	H331	H	0.294173	0.479105	0.683608
	H332	H	0.306657	0.472260	0.672401
	O333	O	0.978146	0.980257	0.987572
	H334	H	0.991213	0.978515	0.987323
	H335	H	0.987274	0.971751	0.977445
	O336	O	0.557494	0.388502	0.494599
	H337	H	0.565435	0.383688	0.488728
	H338	H	0.550166	0.383855	0.490438
	O339	O	0.811337	0.059230	0.813066
	H340	H	0.795491	0.053471	0.804708
	H341	H	0.811834	0.081651	0.829978
	O342	O	0.165274	0.801576	0.912550
	H343	H	0.148504	0.788020	0.908859
	H344	H	0.176915	0.830583	0.917931
	O345	O	0.205519	0.927241	0.947447
	H346	H	0.205940	0.933899	0.915451
	H347	H	0.218986	0.909125	0.947809
	O348	O	0.681181	0.668257	0.636851
	H349	H	0.695382	0.681830	0.624864
	H350	H	0.691196	0.632491	0.653173
	O351	O	0.039266	0.045106	0.164285
	H352	H	0.057072	0.040566	0.143493
	H353	H	0.035634	0.019688	0.165119
	O354	O	1.198521	0.962714	-0.204242
	H355	H	1.230868	0.962874	-0.223718
	H356	H	1.199504	0.945100	-0.180379
	O357	O	0.214039	1.023979	0.207879
	H358	H	0.208839	1.058049	0.201219
	H359	H	0.241541	1.026907	0.236281
	O360	O	0.453823	0.489559	0.485776
	H361	H	0.468182	0.488598	0.473911
	H362	H	0.450350	0.488656	0.486102
	O363	O	0.450250	0.686376	0.496203
	H364	H	0.476157	0.683204	0.492677
	H365	H	0.462739	0.695042	0.514339
	O366	O	0.465272	0.669468	0.480100
	H367	H	0.443474	0.665888	0.502142
	H368	H	0.466303	0.682125	0.474326
	O369	O	0.532327	0.496403	0.413852
	H370	H	0.530658	0.497475	0.412428
	H371	H	0.544345	0.501493	0.409624
	O372	O	0.479320	0.501503	0.379873
	H373	H	0.476570	0.509174	0.382233
	H374	H	0.497053	0.507471	0.373805
	O375	O	0.364235	0.354310	0.638585
	H376	H	0.377906	0.341021	0.629591
	H377	H	0.376957	0.355652	0.634934
	O378	O	0.543055	0.604951	0.574461
	H379	H	0.537000	0.600265	0.575186
	H380	H	0.552537	0.602654	0.573580
	O381	O	0.604563	0.546006	0.703119
	H382	H	0.581274	0.538435	0.706720
	H383	H	0.607283	0.556168	0.724935
	O384	O	0.025224	0.925342	0.809978
	H385	H	0.028695	0.932600	0.819245
	H386	H	0.026923	0.905910	0.805795
	O387	O	0.837877	0.843162	-0.061287
	H388	H	0.835520	0.848838	-0.065641
	H389	H	0.830441	0.837191	-0.044378
	O390	O	0.526453	0.463596	0.374379
	H391	H	0.529769	0.476012	0.385916
	H392	H	0.518042	0.473490	0.395315
	O393	O	1.163434	0.154591	0.993820
	H394	H	1.150689	0.158365	0.978821
	H395	H	1.185105	0.173275	1.009379
	O396	O	-0.084332	0.848808	1.139548
	H397	H	-0.076114	0.836660	1.139238
	H398	H	-0.081027	0.866563	1.143460
	O399	O	0.413163	0.441130	0.362125
	H400	H	0.406567	0.422518	0.348188
	H401	H	0.441229	0.457583	0.376158
	O402	O	1.087823	-0.183205	0.841842
	H403	H	1.088260	-0.186807	0.855053
	H404	H	1.057977	-0.179558	0.847919
	O405	O	0.185260	0.192551	0.140533
	H406	H	0.150808	0.202141	0.127176
	H407	H	0.190828	0.215521	0.138199
	O408	O	0.943467	0.876536	0.910747
	H409	H	0.950971	0.886182	0.905042
	H410	H	0.933753	0.875528	0.905187
	O411	O	0.921441	0.907046	0.040768
	H412	H	0.930549	0.909112	0.033262
	H413	H	0.937983	0.904666	0.045217
	O414	O	-0.056478	0.119023	1.106892
	H415	H	-0.043006	0.129058	1.109512
	H416	H	-0.070033	0.103178	1.103399
	O417	O	0.526902	0.542302	0.386589
	H418	H	0.494815	0.548299	0.372796
	H419	H	0.533647	0.572221	0.382712
	O420	O	-0.190851	0.853213	0.076617
	H421	H	-0.196505	0.840125	0.080086
	H422	H	-0.184965	0.866909	0.100524
	O423	O	0.860738	0.036582	-0.081967
	H424	H	0.878019	0.033789	-0.064869
	H425	H	0.855278	0.062147	-0.087895
	O426	O	0.212409	-0.023415	1.003288
	H427	H	0.205447	-0.017738	1.006725
	H428	H	0.218172	0.001143	1.030504
	O429	O	0.554312	0.341517	0.647663
	H430	H	0.563583	0.348871	0.643501
	H431	H	0.557254	0.323678	0.651671
