data_Molecule from HDF5

_cell_length_a		16.511756
_cell_length_b		16.744841
_cell_length_c		16.554205
_cell_angle_alpha	89.984257
_cell_angle_beta	89.941380
_cell_angle_gamma	90.185679
_symmetry_space_group_name_H-M	'P 1'
_symmetry_Int_Tables_number		1

loop_
	_symmetry_equiv_pos_as_xyz
	x,y,z

loop_
	_atom_site_label
	_atom_site_type_symbol
	_atom_site_fract_x
	_atom_site_fract_y
	_atom_site_fract_z
	H0	H	0.394310	0.854758	0.715303
	H1	H	0.603661	0.165259	0.711094
	H2	H	0.604086	0.852445	0.271828
	H3	H	0.391321	0.160216	0.263865
	H4	H	0.722477	0.404978	0.836405
	H5	H	0.718847	0.611981	0.149271
	H6	H	0.279150	0.614454	0.833642
	H7	H	0.281152	0.405913	0.147509
	H8	H	0.845050	0.728576	0.386784
	H9	H	0.158274	0.730598	0.598270
	H10	H	0.844103	0.288750	0.596333
	H11	H	0.158631	0.289894	0.387800
	H12	H	0.843398	0.406477	0.710290
	H13	H	0.159579	0.611399	0.710655
	H14	H	0.845931	0.613861	0.270211
	H15	H	0.159573	0.408135	0.274136
	H16	H	0.394132	0.731743	0.834225
	H17	H	0.604764	0.729766	0.147513
	H18	H	0.609261	0.285298	0.837075
	H19	H	0.393784	0.286869	0.145828
	H20	H	0.719085	0.852614	0.389535
	H21	H	0.718997	0.166664	0.592210
	H22	H	0.276757	0.854767	0.599624
	H23	H	0.275375	0.161544	0.381399
	H24	H	0.894653	0.355167	0.214852
	H25	H	0.105867	0.665034	0.211798
	H26	H	0.106185	0.354096	0.769509
	H27	H	0.896531	0.663501	0.770226
	H28	H	0.220277	0.906851	0.335010
	H29	H	0.224484	0.116088	0.647891
	H30	H	0.784565	0.109694	0.333197
	H31	H	0.783373	0.908515	0.649320
	H32	H	0.345078	0.232768	0.882535
	H33	H	0.653962	0.233035	0.100036
	H34	H	0.343695	0.787603	0.096273
	H35	H	0.657214	0.789395	0.885591
	H36	H	0.343758	0.902488	0.212473
	H37	H	0.656909	0.112851	0.210700
	H38	H	0.343878	0.114369	0.769287
	H39	H	0.658918	0.908258	0.772956
	H40	H	0.897782	0.228863	0.334891
	H41	H	0.109328	0.232355	0.647440
	H42	H	0.105888	0.788155	0.336069
	H43	H	0.895357	0.788867	0.648382
	H44	H	0.222055	0.353967	0.886126
	H45	H	0.220024	0.666023	0.092216
	H46	H	0.776862	0.355498	0.098910
	H47	H	0.780940	0.664587	0.888125
	H48	H	0.418528	0.117056	0.581133
	H49	H	0.596299	0.895255	0.588142
	H50	H	0.592396	0.121062	0.397873
	H51	H	0.414444	0.899267	0.402108
	H52	H	0.591219	0.414057	0.107552
	H53	H	0.592776	0.602394	0.877021
	H54	H	0.404876	0.601744	0.104714
	H55	H	0.418099	0.418739	0.880357
	H56	H	0.114804	0.603192	0.407192
	H57	H	0.889035	0.602679	0.577050
	H58	H	0.111376	0.423561	0.576494
	H59	H	0.889746	0.420706	0.405680
	H60	H	0.115113	0.420862	0.584817
	H61	H	0.891069	0.595103	0.581615
	H62	H	0.111904	0.594278	0.406235
	H63	H	0.888095	0.419630	0.399607
	H64	H	0.412154	0.593018	0.099757
	H65	H	0.590570	0.595647	0.879613
	H66	H	0.590782	0.427223	0.102115
	H67	H	0.409802	0.417402	0.876790
	H68	H	0.590975	0.120328	0.399818
	H69	H	0.586521	0.898241	0.584554
	H70	H	0.412471	0.116836	0.573712
	H71	H	0.413133	0.900485	0.406286
	H72	H	0.914323	0.619395	0.082365
	H73	H	0.085803	0.400689	0.080584
	H74	H	0.088427	0.618256	0.901984
	H75	H	0.909925	0.396837	0.900004
	H76	H	0.090111	0.925423	0.602837
	H77	H	0.090129	0.100806	0.379859
	H78	H	0.912068	0.102725	0.605454
	H79	H	0.912135	0.921928	0.379733
	H80	H	0.612605	0.094910	0.896899
	H81	H	0.387195	0.093974	0.082020
	H82	H	0.613849	0.920430	0.083444
	H83	H	0.389284	0.920053	0.904858
	H84	H	0.614466	0.914984	0.081391
	H85	H	0.387055	0.101475	0.076049
	H86	H	0.615089	0.105673	0.902855
	H87	H	0.388433	0.920795	0.902062
	H88	H	0.909239	0.099155	0.605953
	H89	H	0.090228	0.094231	0.382054
	H90	H	0.082464	0.918486	0.602188
	H91	H	0.915027	0.912541	0.378657
	H92	H	0.092444	0.620094	0.903574
	H93	H	0.095824	0.397578	0.079394
	H94	H	0.911312	0.619379	0.078891
	H95	H	0.914356	0.399915	0.902932
	H96	H	0.409920	0.120797	0.582097
	H97	H	0.594948	0.898261	0.577781
	H98	H	0.592936	0.121159	0.400002
	H99	H	0.410132	0.899063	0.403681
	H100	H	0.579084	0.418470	0.100959
	H101	H	0.586341	0.601174	0.879763
	H102	H	0.416873	0.604157	0.101851
	H103	H	0.412058	0.425963	0.879934
	H104	H	0.115667	0.598637	0.398552
	H105	H	0.886231	0.601414	0.585921
	H106	H	0.114996	0.414585	0.577519
	H107	H	0.887725	0.415070	0.404160
	H108	H	0.910132	0.620957	0.083022
	H109	H	0.091479	0.396238	0.088755
	H110	H	0.091395	0.620758	0.898992
	H111	H	0.909640	0.398225	0.906464
	H112	H	0.091865	0.915940	0.606796
	H113	H	0.083617	0.098214	0.382345
	H114	H	0.913350	0.099103	0.603094
	H115	H	0.905504	0.914498	0.376104
	H116	H	0.609195	0.096496	0.909434
	H117	H	0.390535	0.092948	0.073860
	H118	H	0.611732	0.918852	0.077334
	H119	H	0.387757	0.917689	0.903417
	C120	C	0.379299	0.016983	0.612999
	C121	C	0.622895	1.000950	0.613393
	C122	C	0.622338	0.017122	0.369030
	C123	C	0.379163	1.000551	0.369850
	C124	C	0.621117	0.387633	0.000709
	C125	C	0.621533	0.630804	0.982789
	C126	C	0.379117	0.631345	-0.001251
	C127	C	0.379975	0.388413	0.982161
	C128	C	0.010159	0.629900	0.371617
	C129	C	0.992730	0.630855	0.613632
	C130	C	0.009688	0.388284	0.611894
	C131	C	0.992635	0.387810	0.371049
	C132	C	0.878949	0.517885	0.114114
	C133	C	0.122595	0.501261	0.113153
	C134	C	0.122737	0.517339	0.869587
	C135	C	0.879485	0.500795	0.870892
	C136	C	0.121213	0.888080	0.500404
	C137	C	0.122150	0.130556	0.483966
	C138	C	0.880597	0.130408	0.500320
	C139	C	0.879332	0.886355	0.482581
	C140	C	0.508879	0.131033	0.869982
	C141	C	0.491387	0.128542	0.110826
	C142	C	0.509200	0.886685	0.112348
	C143	C	0.492333	0.888749	0.870924
	C144	C	0.375792	0.901165	0.674769
	C145	C	0.622881	0.118681	0.671263
	C146	C	0.622860	0.899598	0.311075
	C147	C	0.374325	0.114945	0.306042
	C148	C	0.682435	0.385708	0.883205
	C149	C	0.679667	0.631218	0.101678
	C150	C	0.318929	0.632961	0.880906
	C151	C	0.320344	0.386885	0.100294
	C152	C	0.892264	0.689228	0.368591
	C153	C	0.111133	0.690190	0.615949
	C154	C	0.891357	0.328761	0.614347
	C155	C	0.111425	0.329500	0.369056
	C156	C	0.890774	0.387368	0.670882
	C157	C	0.111816	0.630923	0.671843
	C158	C	0.892666	0.632147	0.310750
	C159	C	0.111649	0.388138	0.312532
	C160	C	0.376025	0.691325	0.881143
	C161	C	0.623122	0.689773	0.100859
	C162	C	0.626345	0.326327	0.883669
	C163	C	0.376373	0.328070	0.099471
	C164	C	0.680498	0.899834	0.369342
	C165	C	0.680203	0.119280	0.612369
	C166	C	0.317408	0.901037	0.617046
	C167	C	0.316613	0.115428	0.364540
	C168	C	0.876072	0.401657	0.174732
	C169	C	0.123782	0.618774	0.171275
	C170	C	0.124399	0.400346	0.810005
	C171	C	0.877935	0.617043	0.810545
	C172	C	0.180617	0.887352	0.382152
	C173	C	0.183681	0.133710	0.600948
	C174	C	0.823335	0.129637	0.380776
	C175	C	0.821790	0.887870	0.601616
	C176	C	0.391594	0.191752	0.865775
	C177	C	0.608092	0.190776	0.115916
	C178	C	0.390950	0.827183	0.114713
	C179	C	0.610470	0.829574	0.867857
	C180	C	0.391055	0.884533	0.172440
	C181	C	0.609383	0.131297	0.171347
	C182	C	0.391019	0.132930	0.809469
	C183	C	0.611084	0.888574	0.811867
	C184	C	0.879575	0.188757	0.381720
	C185	C	0.126402	0.191715	0.600760
	C186	C	0.124089	0.828369	0.382653
	C187	C	0.877602	0.828535	0.601251
	C188	C	0.182065	0.400477	0.867874
	C189	C	0.180878	0.618900	0.112190
	C190	C	0.817517	0.401903	0.117262
	C191	C	0.820411	0.617707	0.869138
	C192	C	0.406094	0.097332	0.586438
	C193	C	0.599361	0.918676	0.590112
	C194	C	0.598745	0.099312	0.392352
	C195	C	0.405186	0.920364	0.396549
	C196	C	0.594794	0.412738	0.082231
	C197	C	0.596818	0.606798	0.900313
	C198	C	0.404289	0.606858	0.080654
	C199	C	0.405880	0.413437	0.900179
	C200	C	0.092487	0.605713	0.396815
	C201	C	0.910101	0.606527	0.588850
	C202	C	0.092293	0.412673	0.586932
	C203	C	0.910119	0.411655	0.396042
	C204	C	0.904501	0.598828	0.088698
	C205	C	0.098241	0.419527	0.089788
	C206	C	0.098016	0.598555	0.894328
	C207	C	0.904280	0.419456	0.895979
	C208	C	0.095481	0.912870	0.582517
	C209	C	0.095665	0.104932	0.402589
	C210	C	0.904536	0.106866	0.583128
	C211	C	0.903783	0.909583	0.399635
	C212	C	0.590941	0.106068	0.895786
	C213	C	0.409607	0.103087	0.084776
	C214	C	0.591882	0.910987	0.087761
	C215	C	0.409833	0.912637	0.896347
	Zn216	Zn	0.500715	0.009409	0.742448
	Zn217	Zn	0.500401	0.008166	0.239931
	Zn218	Zn	0.749644	0.509555	-0.007723
	Zn219	Zn	0.251783	0.508911	-0.009077
	Zn220	Zn	0.001033	0.758308	0.492267
	Zn221	Zn	0.001354	0.259426	0.491934
	Zn222	Zn	0.001334	0.508436	0.740859
	Zn223	Zn	0.001486	0.509302	0.242839
	Zn224	Zn	0.500877	0.759514	-0.009774
	Zn225	Zn	0.499868	0.258842	-0.008803
	Zn226	Zn	0.751963	0.009696	0.491146
	Zn227	Zn	0.250075	0.008936	0.491734
	N228	N	0.413525	0.974305	0.672490
	N229	N	0.588129	0.044042	0.672234
	N230	N	0.587622	0.973827	0.310417
	N231	N	0.412659	0.042629	0.309331
	N232	N	0.679498	0.423075	0.957014
	N233	N	0.679024	0.595214	0.027159
	N234	N	0.320645	0.596311	0.955063
	N235	N	0.322439	0.423660	0.026136
	N236	N	0.966435	0.687997	0.405856
	N237	N	0.035959	0.690508	0.580605
	N238	N	0.966412	0.329091	0.578492
	N239	N	0.036364	0.328964	0.404664
	N240	N	0.965552	0.423492	0.669774
	N241	N	0.037044	0.594735	0.670628
	N242	N	0.966998	0.595839	0.312438
	N243	N	0.036719	0.423674	0.313450
	N244	N	0.412720	0.690704	0.955515
	N245	N	0.587827	0.689709	0.025838
	N246	N	0.588922	0.327287	0.957781
	N247	N	0.412559	0.328614	0.024816
	N248	N	0.680508	0.973979	0.404666
	N249	N	0.680634	0.044927	0.577322
	N250	N	0.319093	0.974321	0.579674
	N251	N	0.319699	0.043337	0.403870
	N252	N	0.913635	0.474858	0.173167
	N253	N	0.088461	0.544464	0.172320
	N254	N	0.088356	0.474079	0.810591
	N255	N	0.913647	0.543074	0.811134
	N256	N	0.178909	0.923714	0.456419
	N257	N	0.181217	0.096203	0.527206
	N258	N	0.823726	0.094121	0.455584
	N259	N	0.822519	0.923154	0.526660
	N260	N	0.466095	0.190784	0.902599
	N261	N	0.533758	0.189228	0.078786
	N262	N	0.465603	0.828175	0.078209
	N263	N	0.535518	0.829543	0.903807
	N264	N	0.465685	0.920803	0.171233
	N265	N	0.535741	0.093273	0.168579
	N266	N	0.464975	0.095693	0.812073
	N267	N	0.536528	0.924622	0.813450
	N268	N	0.914528	0.189329	0.457017
	N269	N	0.088849	0.189896	0.526866
	N270	N	0.087917	0.828623	0.457381
	N271	N	0.912624	0.827276	0.526018
	N272	N	0.181216	0.474192	0.904242
	N273	N	0.180324	0.544730	0.076838
	N274	N	0.819239	0.475193	0.080336
	N275	N	0.821234	0.544307	0.905984
	O276	O	-0.073498	0.946978	0.028803
	H277	H	-0.076833	0.946345	0.016068
	H278	H	-0.080043	0.944047	0.019697
	O279	O	0.537130	0.344310	0.291377
	H280	H	0.527622	0.334112	0.273361
	H281	H	0.535430	0.351346	0.300422
	O282	O	0.965051	0.184077	0.835347
	H283	H	0.961285	0.196743	0.830207
	H284	H	0.965026	0.196048	0.832415
	O285	O	0.571798	0.289681	0.550192
	H286	H	0.551157	0.292142	0.565173
	H287	H	0.562594	0.300913	0.549245
	O288	O	0.295777	0.298530	0.613879
	H289	H	0.325791	0.297438	0.601849
	H290	H	0.282860	0.308622	0.601803
	O291	O	0.162602	0.082387	-0.070901
	H292	H	0.151610	0.087248	-0.069558
	H293	H	0.170682	0.070122	-0.065830
	O294	O	0.805388	0.118284	0.989342
	H295	H	0.820124	0.112163	0.985052
	H296	H	0.790871	0.118046	0.979781
	O297	O	0.329930	0.611490	0.596194
	H298	H	0.323390	0.591111	0.585549
	H299	H	0.354418	0.609325	0.594955
	O300	O	-0.101354	0.232565	1.033430
	H301	H	-0.117420	0.239830	1.028121
	H302	H	-0.106589	0.218312	1.024145
	O303	O	0.718320	0.454564	0.531811
	H304	H	0.713131	0.462024	0.553457
	H305	H	0.708132	0.459751	0.522247
	O306	O	0.313697	0.383210	0.680913
	H307	H	0.320498	0.394760	0.648303
	H308	H	0.308928	0.407645	0.698603
	O309	O	0.624275	0.451510	0.368302
	H310	H	0.635180	0.449250	0.351023
	H311	H	0.624271	0.428859	0.362957
	O312	O	0.568327	0.447665	0.706258
	H313	H	0.567572	0.467655	0.706626
	H314	H	0.567874	0.459847	0.711923
	O315	O	1.079210	0.866419	0.980098
	H316	H	1.082503	0.862184	0.960577
	H317	H	1.077808	0.864660	0.968809
	O318	O	0.280966	0.548180	0.267630
	H319	H	0.272536	0.565959	0.267929
	H320	H	0.268577	0.556890	0.247682
	O321	O	0.105921	0.869391	1.194199
	H322	H	0.118065	0.878948	1.195476
	H323	H	0.095611	0.880554	1.192745
	O324	O	1.209231	1.019601	0.139425
	H325	H	1.231662	1.031671	0.160729
	H326	H	1.200372	1.044138	0.136103
	O327	O	-0.153367	0.222427	0.778989
	H328	H	-0.142224	0.228722	0.782480
	H329	H	-0.160657	0.249234	0.774784
	O330	O	0.412589	0.488267	0.331290
	H331	H	0.418580	0.500564	0.333691
	H332	H	0.407160	0.493365	0.315279
	O333	O	0.686488	0.329801	0.674292
	H334	H	0.682972	0.351224	0.648688
	H335	H	0.658448	0.346328	0.665284
	O336	O	0.869800	0.222830	-0.026990
	H337	H	0.858936	0.226690	-0.031528
	H338	H	0.865453	0.223519	-0.030946
	O339	O	0.701732	-0.279585	0.654427
	H340	H	0.725139	-0.254494	0.667824
	H341	H	0.693517	-0.271557	0.624581
	O342	O	0.042480	0.223776	0.206033
	H343	H	0.028282	0.245962	0.225116
	H344	H	0.016647	0.213322	0.193951
	O345	O	0.080117	0.799997	1.073266
	H346	H	0.078248	0.809398	1.055286
	H347	H	0.067423	0.801917	1.063720
	O348	O	-0.224070	0.046549	-0.214420
	H349	H	-0.236184	0.066350	-0.232479
	H350	H	-0.235136	0.076120	-0.223546
	O351	O	0.623156	0.589040	0.430299
	H352	H	0.622319	0.595683	0.424315
	H353	H	0.625244	0.573269	0.425989
	O354	O	-0.178132	0.197019	1.177388
	H355	H	-0.196568	0.200242	1.194164
	H356	H	-0.183277	0.188670	1.145997
	O357	O	0.486388	0.539905	0.630206
	H358	H	0.491866	0.540680	0.626991
	H359	H	0.486495	0.553749	0.629172
	O360	O	0.529569	0.473974	0.561234
	H361	H	0.525377	0.475890	0.557751
	H362	H	0.522391	0.485057	0.548231
	O363	O	-0.218491	-0.027155	0.210076
	H364	H	-0.233710	-0.022798	0.211414
	H365	H	-0.220069	-0.032436	0.214610
	O366	O	0.714080	0.477525	0.278368
	H367	H	0.728864	0.478371	0.249502
	H368	H	0.703679	0.454753	0.280213
	O369	O	1.215245	0.224303	0.019651
	H370	H	1.217441	0.220796	0.005923
	H371	H	1.221346	0.237968	0.024239
	O372	O	1.046386	1.037521	0.101794
	H373	H	1.035634	1.041944	0.106998
	H374	H	1.043874	1.026995	0.091700
	O375	O	0.785042	-0.210636	0.212490
	H376	H	0.795163	-0.190599	0.194734
	H377	H	0.817827	-0.197621	0.213283
	O378	O	0.670130	0.688465	0.317645
	H379	H	0.660931	0.671627	0.318427
	H380	H	0.697930	0.710807	0.289564
	O381	O	0.172312	1.167241	0.857567
	H382	H	0.177014	1.180573	0.857972
	H383	H	0.175417	1.170118	0.871818
	O384	O	0.857088	-0.140969	1.041013
	H385	H	0.869545	-0.136048	1.053965
	H386	H	0.844741	-0.154645	1.044986
	O387	O	1.187471	0.955339	0.023457
	H388	H	1.192085	0.966033	0.043387
	H389	H	1.189738	0.952327	0.022395
	O390	O	0.683139	0.685486	0.537102
	H391	H	0.697873	0.682964	0.527156
	H392	H	0.700246	0.682366	0.533204
	O393	O	0.803293	0.805866	0.860775
	H394	H	0.819239	0.809802	0.863702
	H395	H	0.805073	0.829145	0.872098
	O396	O	0.209455	1.214144	1.191312
	H397	H	0.181451	1.224003	1.195985
	H398	H	0.197767	1.206667	1.167739
	O399	O	0.026956	0.202120	1.012999
	H400	H	0.019732	0.195837	1.003590
	H401	H	0.011069	0.195742	1.024186
	O402	O	0.414154	0.457695	0.454061
	H403	H	0.424168	0.460222	0.455378
	H404	H	0.404761	0.461798	0.440664
	O405	O	1.061600	0.019661	1.171011
	H406	H	1.060797	0.026024	1.168521
	H407	H	1.061414	0.020129	1.171840
	O408	O	0.053654	0.060837	-0.242493
	H409	H	0.060220	0.071816	-0.241478
	H410	H	0.071407	0.071112	-0.241642
	O411	O	0.396210	0.684680	0.562917
	H412	H	0.409453	0.679273	0.559225
	H413	H	0.401522	0.681323	0.552044
	O414	O	0.534443	0.726289	0.627026
	H415	H	0.547428	0.733917	0.618726
	H416	H	0.541523	0.737055	0.621803
	O417	O	0.468884	0.636358	0.435455
	H418	H	0.461690	0.639025	0.420090
	H419	H	0.481503	0.635117	0.433437
	O420	O	-0.197068	0.947431	0.971628
	H421	H	-0.192765	0.933669	0.954488
	H422	H	-0.200208	0.950784	0.969353
	O423	O	0.028501	-0.213566	0.774403
	H424	H	0.042824	-0.216595	0.756747
	H425	H	0.051929	-0.217685	0.759853
	O426	O	0.309194	0.364673	0.453169
	H427	H	0.290868	0.362172	0.444696
	H428	H	0.308941	0.355538	0.453930
	O429	O	1.006578	0.854643	0.907487
	H430	H	0.994028	0.861218	0.901132
	H431	H	1.011030	0.856435	0.898367
	O432	O	0.285664	0.731126	0.459757
	H433	H	0.288775	0.733206	0.462341
	H434	H	0.271853	0.737913	0.472518
	O435	O	-0.149657	1.080944	-0.012763
	H436	H	-0.156186	1.069116	-0.023973
	H437	H	-0.123738	1.083324	-0.019904
	O438	O	0.211831	-0.015891	-0.223635
	H439	H	0.219020	-0.015706	-0.226878
	H440	H	0.226283	-0.001989	-0.231179
	O441	O	-0.119630	-0.029716	-0.184029
	H442	H	-0.091095	-0.021958	-0.187885
	H443	H	-0.147642	-0.010171	-0.199428
	O444	O	0.408853	0.614477	0.614035
	H445	H	0.421321	0.625210	0.614129
	H446	H	0.407337	0.616505	0.601297
	O447	O	0.196714	0.812368	0.796085
	H448	H	0.211257	0.835927	0.787223
	H449	H	0.196431	0.804966	0.824934
	O450	O	-0.016012	0.833569	1.118460
	H451	H	-0.000583	0.844367	1.109421
	H452	H	-0.004738	0.820773	1.124746
	O453	O	0.470741	0.593900	0.571297
	H454	H	0.474499	0.574546	0.556068
	H455	H	0.466558	0.587993	0.566690
	O456	O	0.186073	-0.202113	0.980573
	H457	H	0.184766	-0.211499	0.987197
	H458	H	0.191179	-0.190109	0.969165
	O459	O	0.472857	0.291333	0.705736
	H460	H	0.468675	0.303435	0.724135
	H461	H	0.459853	0.282589	0.720885
	O462	O	0.707510	0.295839	0.279555
	H463	H	0.709118	0.285099	0.297351
	H464	H	0.691638	0.307931	0.300290
	O465	O	0.936379	-0.099692	0.007918
	H466	H	0.951477	-0.091981	-0.007581
	H467	H	0.912832	-0.103960	0.005810
	O468	O	0.716205	0.291358	0.448219
	H469	H	0.714055	0.285998	0.462595
	H470	H	0.723129	0.288420	0.470200
	O471	O	0.713722	0.547307	0.710755
	H472	H	0.727707	0.560454	0.722790
	H473	H	0.714243	0.568219	0.713816
	O474	O	0.320605	0.322940	0.302199
	H475	H	0.346395	0.331666	0.300053
	H476	H	0.310976	0.306276	0.285338
	O477	O	0.443201	0.269782	1.432045
	H478	H	0.444303	0.269193	1.431231
	H479	H	0.442275	0.282370	1.435898
	O480	O	0.527198	0.596970	0.328512
	H481	H	0.535028	0.612370	0.329509
	H482	H	0.532425	0.601693	0.319764
	O483	O	0.376291	0.528942	0.681611
	H484	H	0.376418	0.535315	0.682896
	H485	H	0.381121	0.558256	0.676760
	O486	O	1.296066	-0.287556	1.289829
	H487	H	1.295935	-0.271122	1.286995
	H488	H	1.286254	-0.293207	1.313475
	O489	O	1.463004	0.729972	0.276081
	H490	H	1.460807	0.751149	0.254790
	H491	H	1.440614	0.733303	0.283369
