data_Molecule from HDF5

_cell_length_a		16.293043
_cell_length_b		16.321256
_cell_length_c		16.345862
_cell_angle_alpha	89.817092
_cell_angle_beta	89.941546
_cell_angle_gamma	90.137675
_symmetry_space_group_name_H-M	'P 1'
_symmetry_Int_Tables_number		1

loop_
	_symmetry_equiv_pos_as_xyz
	x,y,z

loop_
	_atom_site_label
	_atom_site_type_symbol
	_atom_site_fract_x
	_atom_site_fract_y
	_atom_site_fract_z
	H0	H	0.402884	0.842079	0.716787
	H1	H	0.602846	0.167673	0.715227
	H2	H	0.603536	0.841885	0.284987
	H3	H	0.405509	0.167931	0.284572
	H4	H	0.717769	0.407155	0.837490
	H5	H	0.717877	0.603605	0.162884
	H6	H	0.289889	0.603273	0.836359
	H7	H	0.287267	0.406407	0.163505
	H8	H	0.839208	0.720065	0.401557
	H9	H	0.166671	0.719329	0.596119
	H10	H	0.839218	0.290965	0.598544
	H11	H	0.167196	0.292464	0.401904
	H12	H	0.839169	0.405777	0.715447
	H13	H	0.166585	0.604302	0.713672
	H14	H	0.839306	0.604230	0.284969
	H15	H	0.167004	0.408015	0.284769
	H16	H	0.403529	0.722085	0.837898
	H17	H	0.601396	0.718810	0.163887
	H18	H	0.600656	0.291285	0.836986
	H19	H	0.403218	0.288939	0.163204
	H20	H	0.717646	0.841467	0.402875
	H21	H	0.717368	0.168882	0.597665
	H22	H	0.286940	0.842313	0.600437
	H23	H	0.290192	0.169081	0.401621
	H24	H	0.902491	0.342948	0.216687
	H25	H	0.101943	0.668985	0.214106
	H26	H	0.100855	0.341564	0.785964
	H27	H	0.904575	0.668522	0.784506
	H28	H	0.219226	0.908005	0.337209
	H29	H	0.218655	0.104238	0.664084
	H30	H	0.788409	0.104975	0.337058
	H31	H	0.789427	0.907968	0.663697
	H32	H	0.338810	0.218793	0.901997
	H33	H	0.666168	0.220133	0.097757
	H34	H	0.339948	0.789268	0.100410
	H35	H	0.666842	0.791616	0.903901
	H36	H	0.340481	0.904039	0.217525
	H37	H	0.666894	0.103251	0.214055
	H38	H	0.339855	0.104114	0.784510
	H39	H	0.666959	0.906058	0.786070
	H40	H	0.905554	0.221050	0.337004
	H41	H	0.101988	0.220767	0.664006
	H42	H	0.102463	0.791123	0.336831
	H43	H	0.904175	0.790220	0.662879
	H44	H	0.217318	0.341618	0.902058
	H45	H	0.217920	0.669153	0.098055
	H46	H	0.787114	0.342732	0.099638
	H47	H	0.787577	0.668746	0.901096
	H48	H	0.405388	0.122614	0.594735
	H49	H	0.592257	0.890692	0.590475
	H50	H	0.587363	0.118221	0.405395
	H51	H	0.415597	0.891715	0.409919
	H52	H	0.593518	0.403890	0.118006
	H53	H	0.596779	0.603011	0.882405
	H54	H	0.414489	0.597761	0.114845
	H55	H	0.408620	0.409426	0.883550
	H56	H	0.118398	0.599269	0.408140
	H57	H	0.889766	0.594311	0.586753
	H58	H	0.119667	0.410140	0.591131
	H59	H	0.883758	0.407612	0.399845
	H60	H	0.117472	0.416090	0.591033
	H61	H	0.885184	0.594516	0.600108
	H62	H	0.118586	0.597836	0.406280
	H63	H	0.888370	0.408498	0.416284
	H64	H	0.407694	0.601299	0.118242
	H65	H	0.597478	0.594248	0.885295
	H66	H	0.601645	0.414946	0.117306
	H67	H	0.407984	0.413749	0.884739
	H68	H	0.601554	0.120353	0.414259
	H69	H	0.601575	0.887594	0.592208
	H70	H	0.416589	0.120259	0.597819
	H71	H	0.407255	0.889573	0.412753
	H72	H	0.911904	0.619413	0.088745
	H73	H	0.105029	0.386007	0.095597
	H74	H	0.104401	0.624884	0.901376
	H75	H	0.902379	0.388116	0.910234
	H76	H	0.093774	0.908311	0.615947
	H77	H	0.103001	0.091178	0.385844
	H78	H	0.910486	0.096738	0.615360
	H79	H	0.911363	0.908347	0.383214
	H80	H	0.620483	0.102022	0.906474
	H81	H	0.385555	0.100557	0.095635
	H82	H	0.623611	0.908914	0.104469
	H83	H	0.386425	0.920214	0.900388
	H84	H	0.619058	0.904074	0.085668
	H85	H	0.388020	0.097206	0.087680
	H86	H	0.617889	0.097622	0.909810
	H87	H	0.384301	0.902540	0.906670
	H88	H	0.910818	0.100913	0.616240
	H89	H	0.086370	0.099268	0.388471
	H90	H	0.099562	0.912998	0.616181
	H91	H	0.905261	0.913959	0.382839
	H92	H	0.089214	0.620700	0.900716
	H93	H	0.086715	0.390286	0.101092
	H94	H	0.904688	0.623044	0.092959
	H95	H	0.911318	0.388357	0.899910
	H96	H	0.412637	0.118552	0.587095
	H97	H	0.594725	0.887975	0.599446
	H98	H	0.600973	0.124057	0.398058
	H99	H	0.409958	0.887405	0.404351
	H100	H	0.588961	0.415351	0.112792
	H101	H	0.589664	0.598966	0.886962
	H102	H	0.407193	0.593573	0.115521
	H103	H	0.411857	0.411468	0.885121
	H104	H	0.119200	0.600207	0.406154
	H105	H	0.884682	0.606445	0.591788
	H106	H	0.119169	0.413582	0.596637
	H107	H	0.890189	0.422480	0.406213
	H108	H	0.912280	0.622114	0.097045
	H109	H	0.092267	0.393866	0.082516
	H110	H	0.097288	0.618432	0.914237
	H111	H	0.915110	0.393025	0.912373
	H112	H	0.092463	0.915516	0.613303
	H113	H	0.100196	0.109667	0.381349
	H114	H	0.907342	0.099153	0.616669
	H115	H	0.912539	0.916280	0.386347
	H116	H	0.619344	0.096185	0.904272
	H117	H	0.387932	0.091494	0.095392
	H118	H	0.615640	0.922574	0.092158
	H119	H	0.391578	0.915870	0.917867
	C120	C	0.381878	0.012975	0.622343
	C121	C	0.624708	0.996777	0.621998
	C122	C	0.625006	0.013090	0.378257
	C123	C	0.382201	0.997027	0.379091
	C124	C	0.623513	0.383715	0.008397
	C125	C	0.623705	0.626813	0.992283
	C126	C	0.381360	0.626800	0.008360
	C127	C	0.380050	0.382698	0.991940
	C128	C	0.011230	0.627403	0.378229
	C129	C	0.994496	0.627394	0.621349
	C130	C	0.010606	0.384380	0.621445
	C131	C	0.995351	0.384582	0.378675
	C132	C	0.880926	0.513870	0.121992
	C133	C	0.123681	0.497952	0.121045
	C134	C	0.124943	0.513294	0.877911
	C135	C	0.881094	0.497498	0.878446
	C136	C	0.124767	0.884004	0.507933
	C137	C	0.125298	0.128083	0.492926
	C138	C	0.881569	0.127524	0.508192
	C139	C	0.881261	0.884014	0.491849
	C140	C	0.511162	0.126875	0.878290
	C141	C	0.495178	0.125342	0.121045
	C142	C	0.511646	0.882756	0.123081
	C143	C	0.495086	0.883796	0.879280
	C144	C	0.383404	0.890481	0.678062
	C145	C	0.622352	0.119574	0.676591
	C146	C	0.623134	0.890371	0.323479
	C147	C	0.384737	0.119540	0.322709
	C148	C	0.679404	0.386551	0.885987
	C149	C	0.679407	0.624085	0.114730
	C150	C	0.327123	0.624294	0.885481
	C151	C	0.324824	0.385230	0.114591
	C152	C	0.888016	0.682311	0.380519
	C153	C	0.117719	0.681968	0.617621
	C154	C	0.887945	0.328909	0.619148
	C155	C	0.118414	0.329922	0.381119
	C156	C	0.887849	0.386154	0.677078
	C157	C	0.117625	0.624887	0.675984
	C158	C	0.888120	0.624921	0.322748
	C159	C	0.118342	0.387562	0.323172
	C160	C	0.383764	0.683239	0.886315
	C161	C	0.621411	0.681167	0.115169
	C162	C	0.621134	0.329130	0.885508
	C163	C	0.382534	0.327157	0.114657
	C164	C	0.680063	0.890285	0.381917
	C165	C	0.679447	0.119977	0.618380
	C166	C	0.325662	0.890715	0.620354
	C167	C	0.327576	0.120020	0.381015
	C168	C	0.882555	0.391534	0.178492
	C169	C	0.122281	0.620433	0.176279
	C170	C	0.121555	0.390207	0.823792
	C171	C	0.883978	0.620120	0.823053
	C172	C	0.181021	0.887099	0.385703
	C173	C	0.180588	0.124971	0.615335
	C174	C	0.826655	0.125139	0.385691
	C175	C	0.826842	0.886950	0.614906
	C176	C	0.387995	0.181465	0.880848
	C177	C	0.617718	0.181516	0.118369
	C178	C	0.388850	0.827250	0.121153
	C179	C	0.618080	0.829078	0.882599
	C180	C	0.389114	0.884081	0.179306
	C181	C	0.618041	0.123641	0.176149
	C182	C	0.388501	0.124482	0.822713
	C183	C	0.618090	0.886098	0.824330
	C184	C	0.884911	0.182700	0.385516
	C185	C	0.122569	0.182753	0.615388
	C186	C	0.123182	0.829017	0.385466
	C187	C	0.883707	0.828315	0.614363
	C188	C	0.179331	0.390240	0.881545
	C189	C	0.179720	0.620464	0.118557
	C190	C	0.825303	0.391162	0.120239
	C191	C	0.825790	0.620064	0.881004
	C192	C	0.404899	0.098494	0.599887
	C193	C	0.602429	0.910956	0.600431
	C194	C	0.603001	0.098816	0.399577
	C195	C	0.404554	0.911706	0.402081
	C196	C	0.601285	0.405188	0.093830
	C197	C	0.601371	0.604946	0.906962
	C198	C	0.403156	0.604063	0.094075
	C199	C	0.402787	0.405093	0.906551
	C200	C	0.096444	0.605420	0.400475
	C201	C	0.908657	0.605037	0.599408
	C202	C	0.096585	0.406838	0.599422
	C203	C	0.909791	0.406451	0.400815
	C204	C	0.903134	0.599507	0.099283
	C205	C	0.101089	0.412234	0.099357
	C206	C	0.103341	0.599282	0.899256
	C207	C	0.903327	0.411818	0.900779
	C208	C	0.102089	0.905934	0.593176
	C209	C	0.103267	0.106484	0.407176
	C210	C	0.903235	0.105433	0.593864
	C211	C	0.903391	0.906172	0.406119
	C212	C	0.596955	0.105174	0.900389
	C213	C	0.409287	0.102846	0.099175
	C214	C	0.597377	0.905224	0.100655
	C215	C	0.409542	0.906468	0.901599
	Zn216	Zn	0.503475	0.004651	0.750551
	Zn217	Zn	0.503671	0.004378	0.250229
	Zn218	Zn	0.752174	0.505452	0.000555
	Zn219	Zn	0.252880	0.505504	-0.000210
	Zn220	Zn	0.002490	0.755464	0.499288
	Zn221	Zn	0.003303	0.256138	0.500596
	Zn222	Zn	0.002965	0.505359	0.749678
	Zn223	Zn	0.002846	0.506143	0.249997
	Zn224	Zn	0.502946	0.755788	0.000960
	Zn225	Zn	0.502442	0.254717	0.000127
	Zn226	Zn	0.752914	0.005337	0.500360
	Zn227	Zn	0.253669	0.005552	0.500598
	N228	N	0.417674	0.967648	0.679375
	N229	N	0.589139	0.042003	0.678920
	N230	N	0.589658	0.967565	0.321228
	N231	N	0.418280	0.042288	0.321555
	N232	N	0.680766	0.419861	0.963181
	N233	N	0.680996	0.591100	0.037337
	N234	N	0.325600	0.589972	0.962450
	N235	N	0.323436	0.419083	0.037327
	N236	N	0.965160	0.684049	0.414329
	N237	N	0.040205	0.683582	0.584541
	N238	N	0.965233	0.327827	0.585427
	N239	N	0.040930	0.327847	0.415005
	N240	N	0.965334	0.420245	0.678438
	N241	N	0.039947	0.591444	0.678323
	N242	N	0.965657	0.591607	0.321035
	N243	N	0.040986	0.420781	0.321637
	N244	N	0.416966	0.684656	0.963732
	N245	N	0.587508	0.683088	0.038088
	N246	N	0.587012	0.327288	0.962460
	N247	N	0.416081	0.325274	0.037337
	N248	N	0.681337	0.967704	0.415355
	N249	N	0.680927	0.042748	0.585056
	N250	N	0.324858	0.967857	0.586346
	N251	N	0.326049	0.042977	0.415508
	N252	N	0.916490	0.468700	0.179353
	N253	N	0.088200	0.543241	0.177830
	N254	N	0.088478	0.467848	0.821227
	N255	N	0.917540	0.542952	0.821368
	N256	N	0.181952	0.920560	0.462764
	N257	N	0.182542	0.091850	0.537971
	N258	N	0.824441	0.091470	0.462947
	N259	N	0.825333	0.920890	0.537852
	N260	N	0.465173	0.182902	0.914835
	N261	N	0.540141	0.182693	0.084907
	N262	N	0.466045	0.826180	0.087159
	N263	N	0.540653	0.827692	0.916018
	N264	N	0.466524	0.918111	0.180412
	N265	N	0.540892	0.089279	0.177662
	N266	N	0.465950	0.091094	0.821012
	N267	N	0.540651	0.919472	0.822188
	N268	N	0.918420	0.184178	0.462750
	N269	N	0.088904	0.184761	0.538233
	N270	N	0.088776	0.827037	0.462453
	N271	N	0.916932	0.826604	0.536836
	N272	N	0.181409	0.467709	0.914225
	N273	N	0.180842	0.543189	0.084873
	N274	N	0.824068	0.468180	0.085846
	N275	N	0.823953	0.542609	0.914625
	O276	O	0.499823	0.515645	0.482065
	H277	H	0.494643	0.510785	0.487311
	H278	H	0.487978	0.521076	0.475455
	O279	O	0.085121	0.029275	0.081450
	H280	H	0.089708	0.026747	0.087679
	H281	H	0.091776	0.021860	0.082967
	O282	O	0.491942	0.474530	0.617012
	H283	H	0.496821	0.477001	0.610211
	H284	H	0.496132	0.471525	0.624452
	O285	O	0.435728	0.508685	0.499428
	H286	H	0.428122	0.510702	0.497814
	H287	H	0.427091	0.505531	0.504073
	O288	O	1.097879	0.005553	0.068785
	H289	H	1.085956	0.000451	0.067949
	H290	H	1.104775	0.009261	0.073023
	O291	O	-0.468719	0.492723	-0.509048
	H292	H	-0.469366	0.496608	-0.508741
	H293	H	-0.474807	0.498307	-0.504585
	O294	O	0.521054	0.477975	0.481975
	H295	H	0.524857	0.479285	0.469726
	H296	H	0.526518	0.480596	0.484378
	O297	O	0.096265	1.006002	0.041719
	H298	H	0.108061	1.021225	0.034597
	H299	H	0.092841	1.002774	0.038979
	O300	O	1.100279	0.050905	1.018225
	H301	H	1.106656	0.049410	1.010353
	H302	H	1.095121	0.053083	1.021874
	O303	O	0.534248	0.497249	0.536185
	H304	H	0.543660	0.495064	0.533506
	H305	H	0.544280	0.498194	0.532036
	O306	O	0.099491	1.011309	1.005095
	H307	H	0.099085	1.016323	1.007020
	H308	H	0.100554	1.006642	1.014870
	O309	O	0.413101	0.488347	0.598865
	H310	H	0.415691	0.476535	0.608663
	H311	H	0.410820	0.490432	0.605711
