data_Molecule from HDF5

_cell_length_a		16.275616
_cell_length_b		16.442524
_cell_length_c		16.387767
_cell_angle_alpha	89.932984
_cell_angle_beta	89.856063
_cell_angle_gamma	89.765130
_symmetry_space_group_name_H-M	'P 1'
_symmetry_Int_Tables_number		1

loop_
	_symmetry_equiv_pos_as_xyz
	x,y,z

loop_
	_atom_site_label
	_atom_site_type_symbol
	_atom_site_fract_x
	_atom_site_fract_y
	_atom_site_fract_z
	H0	H	0.376517	0.828529	0.736290
	H1	H	0.583067	0.148598	0.736849
	H2	H	0.584309	0.829056	0.296965
	H3	H	0.373348	0.147468	0.295353
	H4	H	0.697918	0.386379	0.855670
	H5	H	0.696697	0.592522	0.176587
	H6	H	0.259863	0.593686	0.855774
	H7	H	0.261207	0.389874	0.177466
	H8	H	0.818412	0.709038	0.413792
	H9	H	0.141786	0.705151	0.619555
	H10	H	0.818395	0.269705	0.620996
	H11	H	0.140963	0.269578	0.412684
	H12	H	0.817782	0.386129	0.735986
	H13	H	0.141517	0.589106	0.733792
	H14	H	0.817816	0.594047	0.297789
	H15	H	0.139766	0.385823	0.296760
	H16	H	0.374100	0.710940	0.856417
	H17	H	0.583327	0.709403	0.175587
	H18	H	0.583244	0.268441	0.856620
	H19	H	0.371830	0.268627	0.175998
	H20	H	0.698799	0.828429	0.413985
	H21	H	0.698285	0.149036	0.618560
	H22	H	0.262957	0.826995	0.617875
	H23	H	0.258382	0.147418	0.412668
	H24	H	0.873592	0.329961	0.236996
	H25	H	0.080408	0.649527	0.235013
	H26	H	0.084758	0.329442	0.797580
	H27	H	0.877710	0.649850	0.798253
	H28	H	0.198202	0.887826	0.355587
	H29	H	0.195921	0.088333	0.678743
	H30	H	0.763481	0.089249	0.355205
	H31	H	0.762346	0.888095	0.678627
	H32	H	0.316824	0.208001	0.913257
	H33	H	0.640136	0.206847	0.118169
	H34	H	0.317390	0.772658	0.119529
	H35	H	0.640079	0.770212	0.913591
	H36	H	0.318517	0.887515	0.236192
	H37	H	0.641277	0.089707	0.232339
	H38	H	0.316957	0.090789	0.799085
	H39	H	0.641477	0.887666	0.799534
	H40	H	0.874416	0.210285	0.357522
	H41	H	0.082722	0.207043	0.677208
	H42	H	0.085298	0.768579	0.356959
	H43	H	0.878964	0.770825	0.678621
	H44	H	0.199745	0.329991	0.913831
	H45	H	0.195175	0.650564	0.116682
	H46	H	0.759833	0.329739	0.118041
	H47	H	0.760727	0.650049	0.914995
	H48	H	0.387848	0.100438	0.602250
	H49	H	0.578756	0.871744	0.611106
	H50	H	0.572394	0.101457	0.429230
	H51	H	0.394254	0.871245	0.411847
	H52	H	0.565301	0.393868	0.130245
	H53	H	0.562783	0.576530	0.905658
	H54	H	0.389742	0.586820	0.131474
	H55	H	0.381393	0.401275	0.901030
	H56	H	0.096177	0.580662	0.423941
	H57	H	0.866457	0.578763	0.604237
	H58	H	0.099924	0.390347	0.616425
	H59	H	0.865832	0.398322	0.430657
	H60	H	0.092398	0.391449	0.596022
	H61	H	0.864595	0.577279	0.610134
	H62	H	0.092843	0.578485	0.430887
	H63	H	0.864984	0.402151	0.426728
	H64	H	0.383024	0.580404	0.131739
	H65	H	0.567797	0.586729	0.900225
	H66	H	0.572383	0.397916	0.132067
	H67	H	0.395087	0.404278	0.906063
	H68	H	0.573895	0.104951	0.420607
	H69	H	0.562244	0.876422	0.613892
	H70	H	0.383213	0.104391	0.610711
	H71	H	0.401761	0.881094	0.434686
	H72	H	0.894163	0.603743	0.116396
	H73	H	0.069158	0.376425	0.105787
	H74	H	0.071502	0.602625	0.927484
	H75	H	0.885028	0.373563	0.923212
	H76	H	0.066470	0.891857	0.631290
	H77	H	0.060125	0.066820	0.410041
	H78	H	0.886115	0.084919	0.633740
	H79	H	0.897466	0.898153	0.405882
	H80	H	0.594649	0.081862	0.925816
	H81	H	0.362988	0.078475	0.111166
	H82	H	0.592130	0.899771	0.103029
	H83	H	0.364806	0.905759	0.922701
	H84	H	0.594874	0.900099	0.108277
	H85	H	0.362682	0.083505	0.104812
	H86	H	0.592800	0.079653	0.928614
	H87	H	0.361033	0.893623	0.923712
	H88	H	0.885583	0.073045	0.630025
	H89	H	0.061707	0.093060	0.400939
	H90	H	0.076133	0.893011	0.633870
	H91	H	0.888846	0.891052	0.400047
	H92	H	0.069478	0.604927	0.920909
	H93	H	0.070098	0.376227	0.106499
	H94	H	0.891174	0.599379	0.098534
	H95	H	0.892520	0.375846	0.923325
	H96	H	0.393280	0.101938	0.610937
	H97	H	0.569498	0.878656	0.598430
	H98	H	0.565222	0.102095	0.423170
	H99	H	0.377739	0.873218	0.431249
	H100	H	0.565867	0.402153	0.128389
	H101	H	0.575007	0.577031	0.901312
	H102	H	0.391563	0.578056	0.128579
	H103	H	0.392045	0.390791	0.900112
	H104	H	0.092827	0.573788	0.424788
	H105	H	0.863431	0.583304	0.608019
	H106	H	0.091453	0.409025	0.608764
	H107	H	0.863686	0.396843	0.426495
	H108	H	0.877677	0.607077	0.108515
	H109	H	0.068878	0.375714	0.107281
	H110	H	0.064985	0.601345	0.925518
	H111	H	0.888001	0.376620	0.930117
	H112	H	0.070847	0.900710	0.629562
	H113	H	0.084223	0.075912	0.399215
	H114	H	0.896351	0.079732	0.628385
	H115	H	0.885893	0.903200	0.403885
	H116	H	0.593997	0.078218	0.924800
	H117	H	0.366091	0.076198	0.104025
	H118	H	0.595270	0.895078	0.105677
	H119	H	0.366647	0.899567	0.933637
	C120	C	0.357670	-0.003747	0.638521
	C121	C	0.601135	0.980946	0.638597
	C122	C	0.601953	-0.003027	0.393973
	C123	C	0.358672	0.980325	0.394811
	C124	C	0.599920	0.367179	0.024473
	C125	C	0.599706	0.610756	1.007950
	C126	C	0.357092	0.612500	0.024555
	C127	C	0.357504	0.368243	1.008101
	C128	C	-0.012325	0.609770	0.395615
	C129	C	0.971489	0.609500	0.637943
	C130	C	-0.012042	0.366845	0.638786
	C131	C	0.970888	0.367546	0.395719
	C132	C	0.856015	0.497818	0.138893
	C133	C	0.099581	0.481703	0.137367
	C134	C	0.101155	0.497955	0.894044
	C135	C	0.857800	0.481290	0.894814
	C136	C	0.102427	0.865330	0.525416
	C137	C	0.100309	0.109113	0.509205
	C138	C	0.858166	0.110501	0.525103
	C139	C	0.859272	0.866988	0.509365
	C140	C	0.487115	0.110525	0.895415
	C141	C	0.470653	0.109886	0.137375
	C142	C	0.487663	0.868033	0.137416
	C143	C	0.470712	0.868446	0.895713
	C144	C	0.357658	0.876140	0.696725
	C145	C	0.601755	0.101063	0.697178
	C146	C	0.603288	0.877018	0.335803
	C147	C	0.355932	0.100113	0.335500
	C148	C	0.658989	0.366950	0.904153
	C149	C	0.657750	0.611317	0.128599
	C150	C	0.298902	0.613044	0.904010
	C151	C	0.299353	0.369354	0.129096
	C152	C	0.866489	0.669358	0.394930
	C153	C	0.093290	0.666384	0.638257
	C154	C	0.866771	0.308744	0.639870
	C155	C	0.092152	0.308486	0.393598
	C156	C	0.866515	0.366514	0.697324
	C157	C	0.093284	0.608535	0.695017
	C158	C	0.866275	0.611807	0.337393
	C159	C	0.091810	0.366608	0.336231
	C160	C	0.355728	0.671498	0.904315
	C161	C	0.601208	0.669713	0.127835
	C162	C	0.601721	0.308250	0.904487
	C163	C	0.354571	0.309135	0.128279
	C164	C	0.660580	0.876802	0.393951
	C165	C	0.659057	0.101224	0.638326
	C166	C	0.301277	0.875401	0.637537
	C167	C	0.298589	0.100006	0.393946
	C168	C	0.854926	0.377764	0.197463
	C169	C	0.099413	0.601874	0.195489
	C170	C	0.102984	0.377484	0.836550
	C171	C	0.857818	0.601733	0.837057
	C172	C	0.159599	0.867277	0.404015
	C173	C	0.157742	0.108340	0.630194
	C174	C	0.801468	0.109635	0.403852
	C175	C	0.801242	0.867792	0.630283
	C176	C	0.365270	0.168523	0.894636
	C177	C	0.591789	0.168089	0.137280
	C178	C	0.366039	0.811063	0.138399
	C179	C	0.591959	0.809481	0.894440
	C180	C	0.366601	0.867921	0.196797
	C181	C	0.592398	0.109788	0.194262
	C182	C	0.365483	0.110290	0.837669
	C183	C	0.592752	0.867852	0.837739
	C184	C	0.856543	0.169794	0.405011
	C185	C	0.101277	0.167481	0.629388
	C186	C	0.103481	0.807979	0.404720
	C187	C	0.859350	0.809874	0.630406
	C188	C	0.160523	0.377832	0.894328
	C189	C	0.156413	0.602429	0.136572
	C190	C	0.798086	0.377672	0.138426
	C191	C	0.799958	0.602070	0.895247
	C192	C	0.381223	0.080323	0.614792
	C193	C	0.576989	0.897357	0.614721
	C194	C	0.577577	0.080921	0.417592
	C195	C	0.383862	0.896983	0.418826
	C196	C	0.575017	0.391047	0.108366
	C197	C	0.575443	0.586921	0.924288
	C198	C	0.380946	0.588558	0.108711
	C199	C	0.382230	0.392069	0.924193
	C200	C	0.072004	0.584878	0.419477
	C201	C	0.886846	0.586418	0.614339
	C202	C	0.072640	0.390333	0.614315
	C203	C	0.886677	0.391998	0.420866
	C204	C	0.880451	0.581632	0.114877
	C205	C	0.076104	0.397880	0.113416
	C206	C	0.076082	0.581352	0.917605
	C207	C	0.881626	0.397249	0.918709
	C208	C	0.078269	0.888382	0.609675
	C209	C	0.075902	0.085322	0.425057
	C210	C	0.882290	0.086295	0.608958
	C211	C	0.883634	0.890617	0.424978
	C212	C	0.571791	0.086690	0.919401
	C213	C	0.385807	0.086225	0.113711
	C214	C	0.572155	0.891558	0.112964
	C215	C	0.386068	0.892605	0.919716
	Zn216	Zn	0.479351	-0.011464	0.767431
	Zn217	Zn	0.480138	-0.011120	0.265854
	Zn218	Zn	0.728195	0.489827	0.016297
	Zn219	Zn	0.229403	0.490178	0.016043
	Zn220	Zn	-0.019422	0.737494	0.516919
	Zn221	Zn	-0.020391	0.239178	0.516825
	Zn222	Zn	-0.020702	0.488880	0.765630
	Zn223	Zn	-0.021327	0.489089	0.267221
	Zn224	Zn	0.478669	0.740005	0.016168
	Zn225	Zn	0.477906	0.238631	0.016695
	Zn226	Zn	0.729770	-0.011546	0.516589
	Zn227	Zn	0.229467	-0.011847	0.516761
	N228	N	0.392248	0.952299	0.697349
	N229	N	0.566541	0.025111	0.697445
	N230	N	0.567784	0.952983	0.335497
	N231	N	0.392829	0.024913	0.336003
	N232	N	0.658093	0.402920	0.979905
	N233	N	0.657095	0.575402	0.053194
	N234	N	0.299492	0.577124	0.979734
	N235	N	0.301121	0.405649	0.053364
	N236	N	0.942942	0.668341	0.430454
	N237	N	0.016539	0.667153	0.603333
	N238	N	0.943227	0.308936	0.604099
	N239	N	0.015973	0.308968	0.429930
	N240	N	0.943020	0.401776	0.696836
	N241	N	0.016662	0.573836	0.694834
	N242	N	0.942469	0.575374	0.337764
	N243	N	0.015295	0.402429	0.337359
	N244	N	0.391567	0.670768	0.980094
	N245	N	0.565723	0.669683	0.051784
	N246	N	0.565528	0.308431	0.980339
	N247	N	0.389971	0.308355	0.052138
	N248	N	0.659706	0.952375	0.429707
	N249	N	0.658816	0.025713	0.602635
	N250	N	0.301078	0.951274	0.602242
	N251	N	0.300344	0.024719	0.430340
	N252	N	0.890129	0.453712	0.197947
	N253	N	0.064819	0.525787	0.195923
	N254	N	0.066718	0.453220	0.836150
	N255	N	0.892590	0.525418	0.836519
	N256	N	0.159018	0.902195	0.480153
	N257	N	0.157198	0.072724	0.554270
	N258	N	0.802323	0.073375	0.479533
	N259	N	0.801036	0.902427	0.553865
	N260	N	0.441964	0.168816	0.929698
	N261	N	0.514745	0.168393	0.102891
	N262	N	0.442322	0.810897	0.102294
	N263	N	0.515092	0.809722	0.929629
	N264	N	0.443220	0.902723	0.195985
	N265	N	0.516006	0.074533	0.194471
	N266	N	0.442333	0.075120	0.837859
	N267	N	0.516408	0.903687	0.838412
	N268	N	0.890796	0.170642	0.481626
	N269	N	0.066298	0.168094	0.553142
	N270	N	0.068598	0.806769	0.481248
	N271	N	0.894688	0.809416	0.554124
	N272	N	0.159718	0.453651	0.929338
	N273	N	0.156745	0.526741	0.100944
	N274	N	0.798385	0.453478	0.103197
	N275	N	0.799601	0.526067	0.930260
	O276	O	0.348010	0.451053	0.700595
	H277	H	0.369369	0.435259	0.690051
	H278	H	0.340010	0.451692	0.714420
	O279	O	0.604588	0.605792	0.461176
	H280	H	0.601255	0.615429	0.465543
	H281	H	0.595311	0.608449	0.471858
	O282	O	0.993964	-0.028379	0.968783
	H283	H	0.994505	-0.025596	0.958410
	H284	H	0.993982	-0.024370	0.968206
	O285	O	1.092771	0.078418	0.095764
	H286	H	1.089484	0.083283	0.090769
	H287	H	1.088372	0.067595	0.089880
	O288	O	0.958488	0.990349	1.016100
	H289	H	0.961516	0.990784	1.015176
	H290	H	0.961797	0.982674	1.001153
	O291	O	0.537549	1.417241	0.569065
	H292	H	0.535152	1.418214	0.576155
	H293	H	0.530883	1.420505	0.546946
	O294	O	0.588395	0.606778	0.622744
	H295	H	0.592841	0.610816	0.616660
	H296	H	0.586405	0.605052	0.605293
	O297	O	0.463714	0.278843	0.557127
	H298	H	0.451885	0.261859	0.551102
	H299	H	0.473905	0.272542	0.555904
	O300	O	1.000508	-0.068178	0.043265
	H301	H	1.004506	-0.062313	0.050166
	H302	H	0.989665	-0.062547	0.040416
	O303	O	0.319232	0.342687	0.645197
	H304	H	0.319885	0.352885	0.645477
	H305	H	0.340836	0.326759	0.646922
	O306	O	1.006275	0.911533	1.176220
	H307	H	1.004253	0.913413	1.161911
	H308	H	1.003786	0.913630	1.180089
	O309	O	0.356206	0.471968	0.468703
	H310	H	0.350468	0.460727	0.456795
	H311	H	0.348499	0.462333	0.481266
	O312	O	0.331328	0.452669	0.422625
	H313	H	0.333673	0.449436	0.413597
	H314	H	0.334280	0.447832	0.425307
	O315	O	0.640638	0.312015	0.501565
	H316	H	0.659300	0.325454	0.505607
	H317	H	0.646104	0.306411	0.510959
	O318	O	-0.135462	1.027702	0.934762
	H319	H	-0.130649	1.027646	0.943169
	H320	H	-0.150336	1.024835	0.935369
	O321	O	0.583741	0.568393	0.627969
	H322	H	0.575015	0.567450	0.630299
	H323	H	0.590478	0.585944	0.630436
	O324	O	0.639642	0.471255	-0.687191
	H325	H	0.652697	0.475293	-0.701147
	H326	H	0.626959	0.490329	-0.686993
	O327	O	-0.013494	0.916639	-0.109782
	H328	H	-0.004936	0.915321	-0.115346
	H329	H	-0.016081	0.916298	-0.106138
	O330	O	-0.070691	-0.017051	0.957612
	H331	H	-0.066050	-0.017155	0.955833
	H332	H	-0.059788	-0.001215	0.960617
	O333	O	-0.124625	0.134243	0.981223
	H334	H	-0.124573	0.138153	0.975363
	H335	H	-0.130736	0.119108	0.981956
	O336	O	0.446666	0.639424	0.555018
	H337	H	0.456396	0.637438	0.560114
	H338	H	0.432709	0.638997	0.556500
	O339	O	1.101760	-0.102047	-0.011919
	H340	H	1.093750	-0.102551	-0.010253
	H341	H	1.116729	-0.100064	-0.025852
	O342	O	0.004146	0.169326	0.000867
	H343	H	0.001280	0.166891	0.005106
	H344	H	0.006871	0.167969	-0.011174
	O345	O	0.919215	-0.033615	1.052490
	H346	H	0.925081	-0.033216	1.062558
	H347	H	0.919583	-0.037538	1.051475
	O348	O	1.084527	0.972350	-0.016979
	H349	H	1.082731	0.956117	-0.015534
	H350	H	1.085796	0.980216	-0.015865
	O351	O	0.419418	0.521328	0.385226
	H352	H	0.416275	0.502548	0.392236
	H353	H	0.432312	0.517436	0.380483
	O354	O	0.704803	0.255951	1.272486
	H355	H	0.708732	0.233432	1.302044
	H356	H	0.725210	0.284267	1.261514
	O357	O	0.660502	0.553598	0.670214
	H358	H	0.659430	0.565806	0.660174
	H359	H	0.667856	0.560135	0.680928
	O360	O	1.074225	0.025857	-0.165471
	H361	H	1.078568	0.037369	-0.175031
	H362	H	1.052193	0.016818	-0.165404
	O363	O	-0.093324	0.834289	1.086379
	H364	H	-0.098545	0.826907	1.102421
	H365	H	-0.092191	0.827550	1.075557
	O366	O	0.466249	0.586093	0.371100
	H367	H	0.464435	0.605480	0.373429
	H368	H	0.443859	0.592165	0.375194
	O369	O	-0.627824	0.592372	-0.527060
	H370	H	-0.624605	0.585747	-0.525131
	H371	H	-0.636128	0.588478	-0.528770
	O372	O	0.540587	0.290365	0.336004
	H373	H	0.567290	0.300875	0.342726
	H374	H	0.559161	0.267228	0.320750
	O375	O	0.531655	0.493123	0.546829
	H376	H	0.510360	0.497040	0.532851
	H377	H	0.540652	0.495314	0.545996
	O378	O	1.581453	1.507325	-0.530433
	H379	H	1.581709	1.494895	-0.546685
	H380	H	1.561298	1.504806	-0.539242
	O381	O	0.948405	0.025564	0.064224
	H382	H	0.936457	0.027087	0.054027
	H383	H	0.955688	0.018941	0.069149
	O384	O	1.042753	1.089114	0.050450
	H385	H	1.038428	1.096617	0.059244
	H386	H	1.049005	1.083504	0.032879
	O387	O	0.403887	-0.402787	0.387298
	H388	H	0.403838	-0.408155	0.389228
	H389	H	0.389639	-0.414729	0.380338
	O390	O	0.609120	1.523691	-0.349134
	H391	H	0.603639	1.530132	-0.343322
	H392	H	0.606588	1.523338	-0.363430
	O393	O	1.072844	0.915042	0.968123
	H394	H	1.075458	0.918304	0.984700
	H395	H	1.066237	0.908105	0.962474
	O396	O	-0.098406	0.019954	0.065572
	H397	H	-0.102856	0.015586	0.071374
	H398	H	-0.098066	0.029038	0.070328
	O399	O	-0.075025	0.923633	1.167701
	H400	H	-0.069861	0.942438	1.166655
	H401	H	-0.064988	0.917252	1.175914
	O402	O	0.393865	0.298122	0.654748
	H403	H	0.401079	0.290505	0.658323
	H404	H	0.400374	0.302366	0.656652
	O405	O	0.920898	1.023092	0.072273
	H406	H	0.917892	1.021500	0.071909
	H407	H	0.923052	1.030891	0.069200
	O408	O	1.338580	1.544327	-0.435157
	H409	H	1.328576	1.534146	-0.417526
	H410	H	1.339615	1.542674	-0.423669
	O411	O	0.944029	-0.027257	0.943983
	H412	H	0.954606	-0.022440	0.939411
	H413	H	0.929559	-0.032834	0.948459
	O414	O	0.451016	0.463882	0.704555
	H415	H	0.445436	0.472802	0.702072
	H416	H	0.476903	0.473483	0.706987
	O417	O	0.418170	0.595782	0.348920
	H418	H	0.404197	0.599527	0.342742
	H419	H	0.414603	0.587653	0.348982
