data_Molecule from HDF5

_cell_length_a		16.449783
_cell_length_b		16.193980
_cell_length_c		16.318710
_cell_angle_alpha	89.955291
_cell_angle_beta	89.726067
_cell_angle_gamma	89.942652
_symmetry_space_group_name_H-M	'P 1'
_symmetry_Int_Tables_number		1

loop_
	_symmetry_equiv_pos_as_xyz
	x,y,z

loop_
	_atom_site_label
	_atom_site_type_symbol
	_atom_site_fract_x
	_atom_site_fract_y
	_atom_site_fract_z
	H0	H	0.397444	0.837992	0.717486
	H1	H	0.598065	0.164748	0.715607
	H2	H	0.599420	0.836811	0.285678
	H3	H	0.398445	0.164138	0.283402
	H4	H	0.721384	0.394583	0.840029
	H5	H	0.718181	0.602683	0.162090
	H6	H	0.281907	0.603650	0.840410
	H7	H	0.280865	0.396831	0.161850
	H8	H	0.838079	0.717469	0.399510
	H9	H	0.160850	0.717651	0.598181
	H10	H	0.838368	0.284513	0.601929
	H11	H	0.160440	0.282245	0.399709
	H12	H	0.840708	0.397279	0.722112
	H13	H	0.161344	0.602219	0.717128
	H14	H	0.838955	0.602765	0.281993
	H15	H	0.160101	0.396277	0.279900
	H16	H	0.402209	0.715769	0.838275
	H17	H	0.598814	0.715156	0.163694
	H18	H	0.599516	0.285628	0.836667
	H19	H	0.401218	0.285132	0.163245
	H20	H	0.716830	0.838373	0.398217
	H21	H	0.716514	0.163095	0.603376
	H22	H	0.283676	0.837251	0.600772
	H23	H	0.281412	0.162992	0.398054
	H24	H	0.900142	0.336124	0.216323
	H25	H	0.099171	0.664241	0.214846
	H26	H	0.102948	0.336565	0.784066
	H27	H	0.900892	0.663143	0.785021
	H28	H	0.217822	0.896892	0.339355
	H29	H	0.218243	0.106015	0.660842
	H30	H	0.780078	0.105894	0.339369
	H31	H	0.779228	0.896734	0.661625
	H32	H	0.339227	0.218438	0.900807
	H33	H	0.662272	0.215992	0.098216
	H34	H	0.339565	0.782544	0.103001
	H35	H	0.661945	0.783263	0.899499
	H36	H	0.340156	0.897273	0.220319
	H37	H	0.660447	0.103248	0.218529
	H38	H	0.338739	0.103891	0.783059
	H39	H	0.659819	0.897035	0.778649
	H40	H	0.899591	0.218571	0.338633
	H41	H	0.096780	0.214322	0.663887
	H42	H	0.097167	0.786009	0.337180
	H43	H	0.898362	0.784058	0.663036
	H44	H	0.219202	0.338032	0.898583
	H45	H	0.217043	0.662860	0.103238
	H46	H	0.782289	0.337078	0.103953
	H47	H	0.781893	0.662017	0.897722
	H48	H	0.404950	0.117260	0.589358
	H49	H	0.594163	0.883651	0.590090
	H50	H	0.590719	0.116505	0.410326
	H51	H	0.405047	0.883764	0.409794
	H52	H	0.591520	0.408566	0.114939
	H53	H	0.597298	0.600995	0.880671
	H54	H	0.421315	0.581315	0.109700
	H55	H	0.402593	0.404894	0.881399
	H56	H	0.110632	0.590655	0.415239
	H57	H	0.886284	0.588788	0.594555
	H58	H	0.113351	0.413038	0.595146
	H59	H	0.887603	0.405538	0.416051
	H60	H	0.117317	0.403415	0.595280
	H61	H	0.885096	0.591511	0.595959
	H62	H	0.112553	0.585164	0.402243
	H63	H	0.888533	0.418451	0.409958
	H64	H	0.409669	0.608636	0.121161
	H65	H	0.599744	0.580055	0.886814
	H66	H	0.591724	0.409623	0.114707
	H67	H	0.406717	0.417858	0.887561
	H68	H	0.590946	0.117213	0.408641
	H69	H	0.584464	0.885960	0.593509
	H70	H	0.406636	0.117121	0.594205
	H71	H	0.408980	0.884094	0.407280
	H72	H	0.902398	0.617410	0.089379
	H73	H	0.087523	0.384567	0.093477
	H74	H	0.094770	0.618290	0.907859
	H75	H	0.911878	0.381777	0.905278
	H76	H	0.088826	0.907515	0.615804
	H77	H	0.096290	0.091447	0.383756
	H78	H	0.912828	0.089582	0.613443
	H79	H	0.910923	0.900636	0.383248
	H80	H	0.613767	0.083820	0.898294
	H81	H	0.382532	0.093812	0.102313
	H82	H	0.615216	0.907969	0.092492
	H83	H	0.387880	0.908359	0.916664
	H84	H	0.614004	0.909157	0.091651
	H85	H	0.386657	0.099061	0.083983
	H86	H	0.618884	0.102423	0.903351
	H87	H	0.387174	0.915939	0.905981
	H88	H	0.903848	0.098017	0.618344
	H89	H	0.089777	0.085565	0.387714
	H90	H	0.093777	0.909184	0.616895
	H91	H	0.897389	0.912879	0.383494
	H92	H	0.088197	0.615152	0.907597
	H93	H	0.089911	0.386279	0.085604
	H94	H	0.908067	0.617381	0.096767
	H95	H	0.916831	0.386923	0.915867
	H96	H	0.409438	0.115749	0.590398
	H97	H	0.587179	0.887919	0.583416
	H98	H	0.589345	0.117024	0.409221
	H99	H	0.408758	0.885741	0.412378
	H100	H	0.590564	0.409647	0.114901
	H101	H	0.581628	0.589393	0.889868
	H102	H	0.390771	0.583153	0.118632
	H103	H	0.415988	0.407497	0.886928
	H104	H	0.116941	0.599145	0.405256
	H105	H	0.885681	0.591488	0.592878
	H106	H	0.113178	0.407102	0.587066
	H107	H	0.883269	0.408099	0.402112
	H108	H	0.911342	0.613577	0.088743
	H109	H	0.095312	0.382375	0.091450
	H110	H	0.092297	0.614231	0.913658
	H111	H	0.904268	0.383843	0.915988
	H112	H	0.090123	0.912821	0.614921
	H113	H	0.087515	0.094681	0.385313
	H114	H	0.900104	0.085234	0.614842
	H115	H	0.913061	0.917633	0.390314
	H116	H	0.610369	0.089807	0.916705
	H117	H	0.390301	0.080736	0.089969
	H118	H	0.615558	0.908673	0.092941
	H119	H	0.382897	0.902847	0.905397
	C120	C	0.377030	0.009167	0.621665
	C121	C	0.618965	0.992947	0.620471
	C122	C	0.620529	0.009086	0.379377
	C123	C	0.377797	0.992318	0.379166
	C124	C	0.622223	0.378481	0.008539
	C125	C	0.622121	0.620843	0.992770
	C126	C	0.378394	0.621712	0.009437
	C127	C	0.378358	0.379035	0.992136
	C128	C	0.007187	0.622027	0.378044
	C129	C	0.991925	0.621501	0.622695
	C130	C	0.008383	0.378286	0.623153
	C131	C	0.992082	0.378619	0.378605
	C132	C	0.877649	0.508340	0.122396
	C133	C	0.120722	0.491965	0.120830
	C134	C	0.122244	0.508666	0.879483
	C135	C	0.880015	0.491676	0.880879
	C136	C	0.120349	0.879772	0.508794
	C137	C	0.120457	0.121371	0.492142
	C138	C	0.876262	0.122731	0.508805
	C139	C	0.876708	0.879184	0.492115
	C140	C	0.508165	0.122757	0.877645
	C141	C	0.492471	0.121723	0.121736
	C142	C	0.508737	0.878346	0.122546
	C143	C	0.492015	0.878303	0.878256
	C144	C	0.377946	0.886671	0.678718
	C145	C	0.618333	0.115548	0.677652
	C146	C	0.619747	0.886161	0.323238
	C147	C	0.378623	0.115014	0.321809
	C148	C	0.681350	0.376819	0.887623
	C149	C	0.679065	0.621417	0.113948
	C150	C	0.321327	0.622598	0.888279
	C151	C	0.320346	0.378203	0.113660
	C152	C	0.886306	0.679119	0.379532
	C153	C	0.113015	0.678802	0.619352
	C154	C	0.886910	0.322097	0.622418
	C155	C	0.112285	0.320670	0.379370
	C156	C	0.888114	0.378348	0.681951
	C157	C	0.112985	0.621653	0.678598
	C158	C	0.886872	0.622075	0.320732
	C159	C	0.112257	0.377477	0.319896
	C160	C	0.380981	0.678258	0.887344
	C161	C	0.619831	0.677548	0.114692
	C162	C	0.620880	0.322218	0.886068
	C163	C	0.380005	0.322382	0.114280
	C164	C	0.678058	0.886920	0.379199
	C165	C	0.677408	0.114681	0.621904
	C166	C	0.321122	0.886431	0.620732
	C167	C	0.320403	0.114603	0.378882
	C168	C	0.880008	0.385296	0.178332
	C169	C	0.119363	0.614842	0.177201
	C170	C	0.122302	0.385678	0.822347
	C171	C	0.880599	0.614284	0.823563
	C172	C	0.178277	0.878670	0.387199
	C173	C	0.178100	0.123102	0.613289
	C174	C	0.819178	0.123893	0.387489
	C175	C	0.818514	0.878088	0.613361
	C176	C	0.387269	0.180205	0.880174
	C177	C	0.613769	0.178274	0.119315
	C178	C	0.387691	0.821374	0.122091
	C179	C	0.613397	0.821586	0.878952
	C180	C	0.388127	0.878274	0.180779
	C181	C	0.612930	0.122078	0.179031
	C182	C	0.387036	0.122983	0.821674
	C183	C	0.612268	0.878042	0.818999
	C184	C	0.878453	0.180232	0.387138
	C185	C	0.117868	0.177480	0.614700
	C186	C	0.118054	0.823579	0.386176
	C187	C	0.877945	0.822229	0.614271
	C188	C	0.180084	0.386399	0.879299
	C189	C	0.178127	0.614307	0.121616
	C190	C	0.821638	0.385510	0.122262
	C191	C	0.821602	0.613652	0.879854
	C192	C	0.400112	0.094731	0.598047
	C193	C	0.595415	0.907854	0.596134
	C194	C	0.597228	0.094875	0.402514
	C195	C	0.400988	0.906677	0.402830
	C196	C	0.598239	0.402554	0.093029
	C197	C	0.599455	0.597111	0.907814
	C198	C	0.400601	0.598017	0.094518
	C199	C	0.401513	0.403045	0.907303
	C200	C	0.091503	0.598543	0.401000
	C201	C	0.907493	0.597594	0.600701
	C202	C	0.092789	0.401189	0.599465
	C203	C	0.908136	0.403425	0.402469
	C204	C	0.900500	0.594053	0.098460
	C205	C	0.097735	0.406612	0.097068
	C206	C	0.098551	0.593664	0.902879
	C207	C	0.904024	0.406347	0.905233
	C208	C	0.097658	0.903168	0.593801
	C209	C	0.097735	0.097470	0.407613
	C210	C	0.898999	0.097979	0.593500
	C211	C	0.900215	0.903358	0.407549
	C212	C	0.592516	0.098933	0.899756
	C213	C	0.408402	0.098047	0.098901
	C214	C	0.592823	0.901637	0.098945
	C215	C	0.408041	0.901835	0.902308
	Zn216	Zn	0.498537	0.000843	0.749103
	Zn217	Zn	0.500065	0.000522	0.251477
	Zn218	Zn	0.750734	0.499338	0.001153
	Zn219	Zn	0.249671	0.500426	0.001034
	Zn220	Zn	-0.001251	0.751067	0.500487
	Zn221	Zn	-0.000762	0.249485	0.501190
	Zn222	Zn	0.000898	0.499814	0.752280
	Zn223	Zn	-0.000042	0.500342	0.248933
	Zn224	Zn	0.500275	0.749500	0.000533
	Zn225	Zn	0.500606	0.251189	-0.000123
	Zn226	Zn	0.748107	0.001006	0.500086
	Zn227	Zn	0.248857	0.000856	0.500587
	N228	N	0.411731	0.964167	0.679599
	N229	N	0.582696	0.038799	0.676731
	N230	N	0.584746	0.963317	0.323245
	N231	N	0.413383	0.037690	0.321654
	N232	N	0.682279	0.410940	0.964658
	N233	N	0.680588	0.587046	0.037014
	N234	N	0.319448	0.588353	0.965360
	N235	N	0.319132	0.412702	0.036513
	N236	N	0.962151	0.679301	0.414395
	N237	N	0.036631	0.678956	0.585271
	N238	N	0.962680	0.321989	0.586449
	N239	N	0.036387	0.321269	0.415010
	N240	N	0.964604	0.412495	0.682457
	N241	N	0.036650	0.587278	0.680993
	N242	N	0.963095	0.587171	0.319796
	N243	N	0.036399	0.412860	0.319346
	N244	N	0.415555	0.677847	0.963772
	N245	N	0.584994	0.677179	0.038193
	N246	N	0.584641	0.323239	0.962258
	N247	N	0.415194	0.322814	0.037813
	N248	N	0.678657	0.964452	0.413398
	N249	N	0.677814	0.037466	0.586880
	N250	N	0.320450	0.963944	0.586129
	N251	N	0.319617	0.037281	0.413616
	N252	N	0.914188	0.462847	0.178565
	N253	N	0.084401	0.537756	0.177009
	N254	N	0.087098	0.462780	0.822242
	N255	N	0.916233	0.537495	0.824313
	N256	N	0.179680	0.912833	0.464380
	N257	N	0.180009	0.089104	0.536185
	N258	N	0.817427	0.088998	0.464405
	N259	N	0.817814	0.913042	0.536541
	N260	N	0.463422	0.180120	0.914225
	N261	N	0.537836	0.178231	0.084484
	N262	N	0.463846	0.820988	0.086911
	N263	N	0.537751	0.821769	0.915183
	N264	N	0.464302	0.912998	0.181242
	N265	N	0.536606	0.087664	0.180705
	N266	N	0.463242	0.087922	0.820053
	N267	N	0.535802	0.912548	0.818349
	N268	N	0.912947	0.179566	0.463499
	N269	N	0.082662	0.176581	0.538299
	N270	N	0.082714	0.824116	0.462709
	N271	N	0.913188	0.822430	0.537762
	N272	N	0.180277	0.463649	0.914124
	N273	N	0.179221	0.536761	0.087477
	N274	N	0.820227	0.463065	0.088234
	N275	N	0.821170	0.536187	0.914612
	O276	O	0.133891	0.148426	0.108167
	H277	H	0.141834	0.147709	0.109538
	H278	H	0.123456	0.171856	0.112067
	O279	O	0.482444	0.597746	0.631564
	H280	H	0.487786	0.594173	0.634766
	H281	H	0.483877	0.605087	0.632985
	O282	O	1.634986	0.459327	0.403968
	H283	H	1.648235	0.456836	0.405188
	H284	H	1.624527	0.468138	0.410135
	O285	O	-0.013941	0.957291	0.154699
	H286	H	-0.008468	0.951847	0.163545
	H287	H	-0.014788	0.956816	0.157703
	O288	O	0.503727	0.518686	0.346740
	H289	H	0.502351	0.523984	0.337236
	H290	H	0.500183	0.526220	0.341920
	O291	O	0.510261	0.473834	0.582273
	H292	H	0.491728	0.470600	0.598188
	H293	H	0.509316	0.486096	0.587266
	O294	O	0.979831	0.919949	0.915483
	H295	H	0.993274	0.926431	0.905993
	H296	H	0.986795	0.927058	0.906804
	O297	O	-0.096385	-0.014790	-0.012446
	H298	H	-0.088671	-0.013107	-0.008313
	H299	H	-0.098298	-0.025383	-0.016807
	O300	O	0.451687	0.438274	0.566927
	H301	H	0.457141	0.443065	0.583547
	H302	H	0.463966	0.447005	0.563593
	O303	O	0.100009	0.970326	0.929058
	H304	H	0.114517	0.969457	0.919829
	H305	H	0.104015	0.957019	0.934183
	O306	O	0.681483	0.691566	0.606634
	H307	H	0.688624	0.698830	0.598522
	H308	H	0.691910	0.684980	0.607695
	O309	O	0.835107	0.034255	-0.057228
	H310	H	0.836077	0.024774	-0.069286
	H311	H	0.835540	0.037937	-0.060450
	O312	O	-0.064799	0.045682	0.933356
	H313	H	-0.058053	0.055914	0.933940
	H314	H	-0.076806	0.053332	0.935370
	O315	O	0.465922	0.592585	0.482683
	H316	H	0.464061	0.591855	0.471144
	H317	H	0.460186	0.581122	0.485465
	O318	O	0.320927	0.406878	0.480258
	H319	H	0.320701	0.402362	0.491311
	H320	H	0.317398	0.395825	0.485192
	O321	O	0.549647	0.388332	0.403933
	H322	H	0.551947	0.392147	0.392240
	H323	H	0.554344	0.385804	0.401798
	O324	O	0.464997	0.567351	0.498615
	H325	H	0.468539	0.563200	0.485594
	H326	H	0.462071	0.565068	0.499979
	O327	O	0.049141	1.027562	0.981476
	H328	H	0.071008	1.011968	0.976203
	H329	H	0.047310	1.026015	0.980992
	O330	O	0.402108	0.626886	0.443744
	H331	H	0.390498	0.632112	0.441265
	H332	H	0.394746	0.619640	0.434563
	O333	O	0.022111	0.846693	0.983961
	H334	H	0.010881	0.853037	0.979976
	H335	H	0.040309	0.842209	0.994625
	O336	O	1.023627	0.934678	0.940769
	H337	H	1.027202	0.927096	0.948829
	H338	H	1.012156	0.926091	0.932249
	O339	O	0.619544	0.372772	0.506914
	H340	H	0.624350	0.364232	0.499958
	H341	H	0.635096	0.375849	0.505058
	O342	O	1.100897	-0.109427	-0.076819
	H343	H	1.115397	-0.123356	-0.086583
	H344	H	1.102752	-0.105911	-0.079151
	O345	O	0.512312	0.467881	0.405896
	H346	H	0.513151	0.471942	0.393352
	H347	H	0.527471	0.453544	0.413028
	O348	O	0.881483	1.049936	1.059230
	H349	H	0.885554	1.042836	1.056169
	H350	H	0.870741	1.046066	1.061420
	O351	O	1.069816	1.025174	0.103925
	H352	H	1.079715	1.036988	0.101962
	H353	H	1.070953	1.032989	0.098167
	O354	O	0.641065	0.546230	0.619615
	H355	H	0.639926	0.545911	0.633460
	H356	H	0.640127	0.536002	0.617811
	O357	O	0.043145	0.138625	0.094297
	H358	H	0.044094	0.137105	0.086306
	H359	H	0.048185	0.147010	0.092209
	O360	O	0.124987	-0.063058	0.023896
	H361	H	0.115397	-0.062700	0.039752
	H362	H	0.119690	-0.060438	0.020462
	O363	O	0.472698	0.507394	0.656885
	H364	H	0.472405	0.502785	0.642398
	H365	H	0.492332	0.514348	0.656690
	O366	O	0.013544	0.091149	-0.054244
	H367	H	0.017863	0.082774	-0.042064
	H368	H	0.005136	0.101997	-0.050795
	O369	O	0.442166	0.459647	0.512174
	H370	H	0.443758	0.459076	0.514346
	H371	H	0.455497	0.458946	0.501740
	O372	O	0.535888	0.414068	0.512951
	H373	H	0.539416	0.419107	0.512822
	H374	H	0.544034	0.417282	0.515177
	O375	O	0.379332	0.541112	0.488024
	H376	H	0.387136	0.533124	0.490392
	H377	H	0.368958	0.545685	0.487584
	O378	O	0.480505	0.409576	0.484293
	H379	H	0.492690	0.411654	0.474212
	H380	H	0.481810	0.406521	0.489177
	O381	O	0.570129	0.556311	0.359163
	H382	H	0.559904	0.549986	0.356517
	H383	H	0.566918	0.563589	0.371288
	O384	O	-0.012292	0.872989	0.080050
	H385	H	-0.015022	0.872138	0.083873
	H386	H	-0.022444	0.888990	0.082214
	O387	O	1.013267	0.044286	0.907987
	H388	H	1.012649	0.033983	0.902544
	H389	H	1.006340	0.034259	0.909954
	O390	O	-0.044839	0.954565	-0.051950
	H391	H	-0.032778	0.968442	-0.047048
	H392	H	-0.054058	0.943245	-0.054449
	O393	O	0.903951	0.921732	0.049940
	H394	H	0.907442	0.910816	0.051307
	H395	H	0.909837	0.924379	0.030427
	O396	O	0.613556	0.597842	0.430858
	H397	H	0.603728	0.595995	0.432533
	H398	H	0.615999	0.607180	0.436759
	O399	O	0.044063	1.145013	1.086783
	H400	H	0.042431	1.134612	1.085884
	H401	H	0.036622	1.142074	1.091503
	O402	O	1.012731	1.019575	0.895838
	H403	H	1.007237	1.022531	0.905300
	H404	H	1.028745	1.025118	0.895358
	O405	O	0.445309	0.419581	0.605234
	H406	H	0.449549	0.402036	0.590046
	H407	H	0.435243	0.424422	0.609755
