data_Molecule from HDF5

_cell_length_a		16.476303
_cell_length_b		16.272070
_cell_length_c		16.216641
_cell_angle_alpha	90.378826
_cell_angle_beta	89.688956
_cell_angle_gamma	89.903348
_symmetry_space_group_name_H-M	'P 1'
_symmetry_Int_Tables_number		1

loop_
	_symmetry_equiv_pos_as_xyz
	x,y,z

loop_
	_atom_site_label
	_atom_site_type_symbol
	_atom_site_fract_x
	_atom_site_fract_y
	_atom_site_fract_z
	H0	H	0.400358	0.835009	0.716512
	H1	H	0.595951	0.162373	0.717783
	H2	H	0.599835	0.836703	0.283509
	H3	H	0.399909	0.162526	0.289872
	H4	H	0.717757	0.394918	0.841801
	H5	H	0.714240	0.604090	0.165947
	H6	H	0.280012	0.602731	0.840279
	H7	H	0.278909	0.398625	0.164653
	H8	H	0.839188	0.717827	0.402031
	H9	H	0.160271	0.716708	0.603598
	H10	H	0.838599	0.281833	0.603830
	H11	H	0.160857	0.280012	0.399565
	H12	H	0.838039	0.399273	0.719997
	H13	H	0.160301	0.599525	0.719404
	H14	H	0.837695	0.598082	0.289377
	H15	H	0.160756	0.398002	0.284675
	H16	H	0.399490	0.712813	0.838377
	H17	H	0.596536	0.717737	0.165034
	H18	H	0.597677	0.283339	0.839924
	H19	H	0.396095	0.284630	0.166645
	H20	H	0.719666	0.837991	0.395521
	H21	H	0.716121	0.161124	0.605375
	H22	H	0.280659	0.836582	0.606392
	H23	H	0.280150	0.159312	0.401377
	H24	H	0.900459	0.334728	0.216388
	H25	H	0.095943	0.662567	0.218787
	H26	H	0.098113	0.335572	0.786077
	H27	H	0.900766	0.663134	0.789559
	H28	H	0.219039	0.893009	0.340543
	H29	H	0.215304	0.100431	0.666126
	H30	H	0.783192	0.101292	0.339735
	H31	H	0.780060	0.896786	0.664394
	H32	H	0.336795	0.215162	0.903847
	H33	H	0.658163	0.219102	0.105667
	H34	H	0.336044	0.783396	0.101537
	H35	H	0.658761	0.779409	0.897382
	H36	H	0.336984	0.899905	0.220190
	H37	H	0.660048	0.100522	0.218903
	H38	H	0.337098	0.098042	0.787224
	H39	H	0.659994	0.898562	0.784020
	H40	H	0.901993	0.212142	0.338789
	H41	H	0.097767	0.214059	0.666803
	H42	H	0.099346	0.781961	0.338975
	H43	H	0.899990	0.785772	0.666931
	H44	H	0.218382	0.337852	0.897710
	H45	H	0.214463	0.661723	0.105816
	H46	H	0.780206	0.337366	0.106152
	H47	H	0.780481	0.661284	0.902041
	H48	H	0.410233	0.112715	0.594281
	H49	H	0.591434	0.884428	0.588791
	H50	H	0.593871	0.114921	0.413714
	H51	H	0.411166	0.885377	0.413722
	H52	H	0.590324	0.407476	0.120605
	H53	H	0.588575	0.588237	0.888326
	H54	H	0.403121	0.589386	0.118640
	H55	H	0.407645	0.414592	0.889430
	H56	H	0.114494	0.592436	0.409699
	H57	H	0.886063	0.588828	0.595335
	H58	H	0.113360	0.402475	0.588227
	H59	H	0.887725	0.408295	0.413330
	H60	H	0.111040	0.412471	0.592086
	H61	H	0.883909	0.593540	0.599133
	H62	H	0.112208	0.589144	0.413985
	H63	H	0.884641	0.405789	0.406802
	H64	H	0.407745	0.590258	0.116901
	H65	H	0.593341	0.589295	0.885873
	H66	H	0.591663	0.412200	0.120070
	H67	H	0.414126	0.404051	0.888273
	H68	H	0.592029	0.115366	0.410862
	H69	H	0.593754	0.882215	0.592113
	H70	H	0.403940	0.113586	0.590843
	H71	H	0.405895	0.882477	0.413090
	H72	H	0.901020	0.618311	0.103917
	H73	H	0.094983	0.384766	0.085712
	H74	H	0.081328	0.608666	0.924940
	H75	H	0.903656	0.385230	0.918579
	H76	H	0.090465	0.917882	0.615207
	H77	H	0.087128	0.086269	0.388807
	H78	H	0.904844	0.093025	0.619953
	H79	H	0.909351	0.902535	0.385401
	H80	H	0.610655	0.089461	0.912960
	H81	H	0.382641	0.093297	0.100787
	H82	H	0.612599	0.907007	0.095159
	H83	H	0.387191	0.912087	0.911757
	H84	H	0.610782	0.905708	0.087822
	H85	H	0.384153	0.095005	0.092990
	H86	H	0.612947	0.089362	0.906843
	H87	H	0.381976	0.905366	0.902018
	H88	H	0.904373	0.087557	0.618285
	H89	H	0.093736	0.092889	0.385213
	H90	H	0.083072	0.902887	0.617603
	H91	H	0.904929	0.910961	0.386395
	H92	H	0.105910	0.617386	0.915636
	H93	H	0.094531	0.380566	0.097935
	H94	H	0.913445	0.612217	0.096398
	H95	H	0.903012	0.380766	0.906367
	H96	H	0.404146	0.115926	0.597607
	H97	H	0.589255	0.883952	0.592739
	H98	H	0.590624	0.113816	0.413284
	H99	H	0.409912	0.881920	0.408763
	H100	H	0.587113	0.411239	0.118426
	H101	H	0.591852	0.583950	0.887042
	H102	H	0.404845	0.593738	0.120096
	H103	H	0.402557	0.404593	0.884271
	H104	H	0.113539	0.587327	0.408767
	H105	H	0.885005	0.594472	0.592820
	H106	H	0.115935	0.405392	0.598690
	H107	H	0.884780	0.401091	0.413231
	H108	H	0.900267	0.614276	0.088430
	H109	H	0.084201	0.385700	0.091910
	H110	H	0.083905	0.617259	0.898457
	H111	H	0.913834	0.385524	0.911149
	H112	H	0.099334	0.905500	0.622432
	H113	H	0.097144	0.083216	0.386977
	H114	H	0.909351	0.089965	0.618117
	H115	H	0.914232	0.910167	0.389481
	H116	H	0.613561	0.095121	0.910628
	H117	H	0.385975	0.088097	0.095928
	H118	H	0.610320	0.912545	0.091280
	H119	H	0.383123	0.899556	0.912989
	C120	C	0.377045	0.006711	0.623980
	C121	C	0.620706	0.990798	0.622791
	C122	C	0.621841	0.007680	0.380308
	C123	C	0.378818	0.990327	0.382272
	C124	C	0.619864	0.378414	0.012175
	C125	C	0.619997	0.620026	0.994339
	C126	C	0.376389	0.620565	0.010704
	C127	C	0.377183	0.378558	0.994655
	C128	C	0.007320	0.619491	0.381685
	C129	C	0.991123	0.621971	0.625356
	C130	C	0.007507	0.377056	0.623727
	C131	C	0.991559	0.375080	0.379968
	C132	C	0.876275	0.507237	0.125402
	C133	C	0.119706	0.491046	0.123406
	C134	C	0.120768	0.507543	0.881215
	C135	C	0.877060	0.491060	0.882247
	C136	C	0.121526	0.877022	0.511158
	C137	C	0.121367	0.118768	0.494561
	C138	C	0.878037	0.119594	0.510869
	C139	C	0.878598	0.878178	0.494389
	C140	C	0.506264	0.120884	0.881059
	C141	C	0.490147	0.122142	0.126238
	C142	C	0.505249	0.878243	0.122743
	C143	C	0.490470	0.875805	0.878722
	C144	C	0.379453	0.884034	0.679509
	C145	C	0.617199	0.113627	0.679497
	C146	C	0.620335	0.885572	0.321891
	C147	C	0.379601	0.113212	0.326816
	C148	C	0.677722	0.376989	0.889937
	C149	C	0.675632	0.621989	0.117072
	C150	C	0.319411	0.620836	0.888709
	C151	C	0.318647	0.379419	0.116557
	C152	C	0.886857	0.677675	0.382951
	C153	C	0.112406	0.677975	0.623488
	C154	C	0.886739	0.320380	0.623606
	C155	C	0.112522	0.318507	0.380194
	C156	C	0.886353	0.378947	0.681260
	C157	C	0.112144	0.620006	0.681408
	C158	C	0.886023	0.618235	0.326669
	C159	C	0.112524	0.377233	0.322884
	C160	C	0.378715	0.675732	0.887696
	C161	C	0.617210	0.678772	0.116517
	C162	C	0.618412	0.320953	0.889294
	C163	C	0.376799	0.322567	0.117465
	C164	C	0.679785	0.886040	0.377782
	C165	C	0.677006	0.112850	0.623696
	C166	C	0.319521	0.885075	0.625075
	C167	C	0.320175	0.111736	0.382309
	C168	C	0.879288	0.383938	0.179559
	C169	C	0.116669	0.613622	0.180693
	C170	C	0.119190	0.384833	0.823772
	C171	C	0.879813	0.614169	0.827252
	C172	C	0.179523	0.875256	0.389124
	C173	C	0.176995	0.119383	0.617357
	C174	C	0.822022	0.119724	0.388279
	C175	C	0.819828	0.878120	0.616098
	C176	C	0.385094	0.176881	0.883295
	C177	C	0.610642	0.179287	0.124527
	C178	C	0.384345	0.821850	0.121747
	C179	C	0.610547	0.817905	0.878073
	C180	C	0.384910	0.879547	0.181101
	C181	C	0.611498	0.120427	0.181234
	C182	C	0.385056	0.118384	0.825427
	C183	C	0.611544	0.877498	0.821996
	C184	C	0.881071	0.174947	0.387798
	C185	C	0.118466	0.175911	0.617669
	C186	C	0.120390	0.819598	0.388306
	C187	C	0.879737	0.822944	0.617578
	C188	C	0.178497	0.385759	0.879798
	C189	C	0.175417	0.613349	0.124120
	C190	C	0.819565	0.385253	0.124532
	C191	C	0.819801	0.613030	0.882899
	C192	C	0.399494	0.091855	0.600970
	C193	C	0.598212	0.905703	0.598293
	C194	C	0.598868	0.092542	0.405208
	C195	C	0.402259	0.905491	0.405132
	C196	C	0.596431	0.402997	0.097558
	C197	C	0.597758	0.594725	0.909095
	C198	C	0.398716	0.597751	0.096253
	C199	C	0.400990	0.401149	0.909423
	C200	C	0.091759	0.596414	0.404218
	C201	C	0.906954	0.598983	0.602399
	C202	C	0.091642	0.400016	0.599981
	C203	C	0.907420	0.398313	0.404162
	C204	C	0.898476	0.592486	0.103022
	C205	C	0.097544	0.405738	0.099031
	C206	C	0.097419	0.592327	0.905881
	C207	C	0.900148	0.406045	0.905221
	C208	C	0.097811	0.901448	0.596331
	C209	C	0.099149	0.094517	0.409346
	C210	C	0.899842	0.096748	0.596421
	C211	C	0.902651	0.901171	0.409141
	C212	C	0.590554	0.097920	0.903618
	C213	C	0.406049	0.098821	0.103273
	C214	C	0.589489	0.901636	0.098382
	C215	C	0.405974	0.898945	0.902224
	Zn216	Zn	0.498765	-0.001751	0.750900
	Zn217	Zn	0.499026	-0.000350	0.253666
	Zn218	Zn	0.748381	0.499315	0.004068
	Zn219	Zn	0.248885	0.499819	0.002522
	Zn220	Zn	-0.000250	0.749962	0.502919
	Zn221	Zn	-0.000293	0.246704	0.502414
	Zn222	Zn	-0.000790	0.499252	0.753434
	Zn223	Zn	-0.001672	0.497891	0.252246
	Zn224	Zn	0.497998	0.747539	0.001033
	Zn225	Zn	0.497847	0.250340	0.003520
	Zn226	Zn	0.750113	-0.000923	0.501655
	Zn227	Zn	0.249917	-0.002340	0.502839
	N228	N	0.414435	0.960638	0.679274
	N229	N	0.582959	0.036617	0.679143
	N230	N	0.585165	0.962284	0.323309
	N231	N	0.415582	0.036864	0.326984
	N232	N	0.678900	0.411803	0.967408
	N233	N	0.677691	0.586414	0.039820
	N234	N	0.317628	0.587404	0.966308
	N235	N	0.318642	0.413459	0.039052
	N236	N	0.963411	0.678753	0.416304
	N237	N	0.036092	0.679518	0.589656
	N238	N	0.962989	0.319077	0.588643
	N239	N	0.036142	0.316907	0.414849
	N240	N	0.962599	0.413488	0.681529
	N241	N	0.035847	0.585984	0.682711
	N242	N	0.961837	0.582758	0.325811
	N243	N	0.036268	0.411708	0.322786
	N244	N	0.413557	0.675719	0.964538
	N245	N	0.583320	0.677466	0.039244
	N246	N	0.583093	0.321838	0.966337
	N247	N	0.412650	0.321985	0.040789
	N248	N	0.680862	0.962951	0.413350
	N249	N	0.679108	0.035491	0.589051
	N250	N	0.317982	0.962321	0.591129
	N251	N	0.319420	0.034514	0.416057
	N252	N	0.913843	0.460738	0.180434
	N253	N	0.082667	0.536437	0.180296
	N254	N	0.084005	0.461458	0.824586
	N255	N	0.914738	0.537342	0.826611
	N256	N	0.180419	0.910112	0.466626
	N257	N	0.179155	0.084698	0.539756
	N258	N	0.819867	0.086072	0.465737
	N259	N	0.818929	0.911479	0.538392
	N260	N	0.461419	0.178606	0.916970
	N261	N	0.534255	0.180347	0.091000
	N262	N	0.460467	0.820919	0.086292
	N263	N	0.534113	0.816745	0.912430
	N264	N	0.461133	0.913734	0.181754
	N265	N	0.535593	0.085654	0.182404
	N266	N	0.461536	0.084272	0.823759
	N267	N	0.535676	0.912505	0.822017
	N268	N	0.915096	0.175231	0.465130
	N269	N	0.084709	0.175811	0.540316
	N270	N	0.084786	0.820502	0.465155
	N271	N	0.915582	0.822636	0.540830
	N272	N	0.179767	0.463159	0.914563
	N273	N	0.177522	0.536122	0.089340
	N274	N	0.817487	0.462974	0.091733
	N275	N	0.818261	0.535651	0.916553
	O276	O	0.020425	-0.068902	0.099361
	H277	H	0.013018	-0.077733	0.098507
	H278	H	0.020643	-0.086100	0.111264
	O279	O	0.449479	0.598962	0.402881
	H280	H	0.454717	0.607800	0.406427
	H281	H	0.434781	0.605559	0.403170
	O282	O	2.015767	1.014310	1.134395
	H283	H	2.017513	1.018647	1.144877
	H284	H	2.015578	1.004259	1.140976
	O285	O	-0.520281	0.417095	0.538832
	H286	H	-0.510432	0.418105	0.525440
	H287	H	-0.529629	0.408185	0.530717
	O288	O	0.518111	0.468828	0.469808
	H289	H	0.518945	0.458065	0.460114
	H290	H	0.523421	0.460836	0.484203
	O291	O	0.629418	0.507238	0.410315
	H292	H	0.626481	0.498876	0.411219
	H293	H	0.638901	0.522107	0.412138
	O294	O	0.852608	1.097877	0.969965
	H295	H	0.842213	1.094676	0.976952
	H296	H	0.859632	1.110623	0.965757
	O297	O	0.117836	-0.037108	-0.006527
	H298	H	0.118759	-0.048625	-0.022753
	H299	H	0.115302	-0.033308	-0.012411
	O300	O	0.303600	0.497591	0.534155
	H301	H	0.294959	0.500628	0.546073
	H302	H	0.300295	0.510925	0.527450
	O303	O	0.061732	1.050815	0.993273
	H304	H	0.062229	1.046171	0.996153
	H305	H	0.067049	1.047311	0.997624
	O306	O	0.648825	0.437598	0.515631
	H307	H	0.649641	0.449701	0.513449
	H308	H	0.645712	0.451370	0.520505
	O309	O	1.459638	0.481229	-0.342984
	H310	H	1.448499	0.483261	-0.358000
	H311	H	1.442671	0.468739	-0.323015
	O312	O	0.053109	0.002928	0.928042
	H313	H	0.047626	-0.005716	0.932941
	H314	H	0.058363	0.013732	0.930977
	O315	O	0.027182	1.124389	-0.069178
	H316	H	0.031914	1.137346	-0.072391
	H317	H	0.025919	1.127936	-0.071960
	O318	O	0.607773	0.638502	0.615607
	H319	H	0.607550	0.634923	0.620017
	H320	H	0.606982	0.650240	0.612657
	O321	O	0.376931	0.671931	0.384986
	H322	H	0.380442	0.671967	0.396322
	H323	H	0.360237	0.675562	0.391131
	O324	O	0.458636	0.480827	0.429659
	H325	H	0.470005	0.487837	0.425257
	H326	H	0.450693	0.472566	0.429827
	O327	O	0.435451	0.362503	0.443484
	H328	H	0.436388	0.348113	0.439460
	H329	H	0.430411	0.364902	0.450505
	O330	O	0.408849	0.379951	0.662134
	H331	H	0.404405	0.369363	0.652790
	H332	H	0.401503	0.375188	0.670703
	O333	O	0.035049	1.038129	1.106302
	H334	H	0.038091	1.042671	1.113904
	H335	H	0.043175	1.032688	1.108056
	O336	O	1.000412	1.088433	1.064140
	H337	H	1.017473	1.081175	1.061322
	H338	H	0.988844	1.088841	1.066245
	O339	O	0.475423	0.615872	0.551061
	H340	H	0.482099	0.609538	0.548590
	H341	H	0.468619	0.612396	0.547725
	O342	O	0.875796	-0.051911	0.082002
	H343	H	0.873719	-0.055356	0.083659
	H344	H	0.879472	-0.047664	0.091729
	O345	O	0.566545	0.396540	0.382433
	H346	H	0.564872	0.385581	0.382847
	H347	H	0.582667	0.400545	0.372074
	O348	O	0.984075	0.955687	1.116541
	H349	H	0.976741	0.950163	1.100764
	H350	H	0.990378	0.965916	1.126907
	O351	O	0.904195	1.019358	-0.071686
	H352	H	0.898432	1.025513	-0.072748
	H353	H	0.913303	1.029878	-0.072190
	O354	O	0.460890	0.386618	0.671303
	H355	H	0.471080	0.390632	0.669668
	H356	H	0.462329	0.393720	0.678438
	O357	O	0.065623	-0.113660	-0.078800
	H358	H	0.066831	-0.120300	-0.081203
	H359	H	0.067575	-0.102019	-0.083918
	O360	O	0.048629	0.043397	0.052890
	H361	H	0.044308	0.037067	0.052409
	H362	H	0.056985	0.041407	0.049351
	O363	O	0.542520	0.397375	0.382235
	H364	H	0.551711	0.400788	0.390341
	H365	H	0.538080	0.386445	0.367508
	O366	O	-0.026763	-0.026183	-0.097001
	H367	H	-0.037077	-0.025870	-0.098069
	H368	H	-0.020169	-0.029054	-0.108236
	O369	O	0.639703	0.473238	0.490423
	H370	H	0.636102	0.482665	0.480014
	H371	H	0.647578	0.494307	0.504184
	O372	O	0.604236	0.577425	0.576177
	H373	H	0.604651	0.570927	0.561799
	H374	H	0.599265	0.574858	0.577667
	O375	O	0.410305	0.491286	0.569739
	H376	H	0.413883	0.487016	0.568179
	H377	H	0.413390	0.472726	0.566775
	O378	O	0.335052	0.385434	0.493284
	H379	H	0.338745	0.392477	0.500943
	H380	H	0.329122	0.386229	0.508753
	O381	O	0.544322	0.538325	0.506312
	H382	H	0.536932	0.533889	0.514089
	H383	H	0.552680	0.550289	0.506923
	O384	O	0.077614	0.953905	-0.059351
	H385	H	0.085596	0.951911	-0.051709
	H386	H	0.071120	0.946416	-0.068562
	O387	O	0.940400	-0.117457	0.938391
	H388	H	0.946838	-0.127545	0.930421
	H389	H	0.942125	-0.112031	0.939465
	O390	O	-0.058641	0.971896	0.043700
	H391	H	-0.059384	0.975937	0.032469
	H392	H	-0.061729	0.978370	0.032589
	O393	O	0.925601	1.099522	-0.091220
	H394	H	0.923082	1.106673	-0.088955
	H395	H	0.931103	1.097140	-0.088243
	O396	O	0.528036	0.596503	0.514193
	H397	H	0.547418	0.588092	0.510044
	H398	H	0.523846	0.588437	0.530898
	O399	O	0.020669	1.005598	0.898452
	H400	H	0.018374	1.020518	0.899685
	H401	H	0.005921	1.009203	0.892372
	O402	O	0.915052	0.936383	1.048950
	H403	H	0.904722	0.930723	1.056318
	H404	H	0.906422	0.928060	1.057031
	O405	O	0.679996	0.445953	0.491884
	H406	H	0.669570	0.465292	0.498166
	H407	H	0.686052	0.439734	0.486553
