data_Molecule from HDF5

_cell_length_a		16.724126
_cell_length_b		16.479617
_cell_length_c		16.784344
_cell_angle_alpha	89.908721
_cell_angle_beta	89.880072
_cell_angle_gamma	90.146028
_symmetry_space_group_name_H-M	'P 1'
_symmetry_Int_Tables_number		1

loop_
	_symmetry_equiv_pos_as_xyz
	x,y,z

loop_
	_atom_site_label
	_atom_site_type_symbol
	_atom_site_fract_x
	_atom_site_fract_y
	_atom_site_fract_z
	H0	H	0.392288	0.845094	0.718125
	H1	H	0.597463	0.161877	0.721284
	H2	H	0.604656	0.851551	0.277115
	H3	H	0.389202	0.160487	0.281727
	H4	H	0.716009	0.399203	0.849317
	H5	H	0.716902	0.612323	0.155633
	H6	H	0.273139	0.609754	0.848685
	H7	H	0.272942	0.398937	0.158025
	H8	H	0.837949	0.723293	0.400359
	H9	H	0.146100	0.728837	0.609731
	H10	H	0.839843	0.280964	0.609441
	H11	H	0.149125	0.287176	0.400762
	H12	H	0.841775	0.393016	0.729421
	H13	H	0.144088	0.616539	0.728856
	H14	H	0.838532	0.608996	0.282079
	H15	H	0.147354	0.399369	0.281395
	H16	H	0.391880	0.722878	0.846667
	H17	H	0.601068	0.729161	0.154889
	H18	H	0.595887	0.286606	0.846850
	H19	H	0.392639	0.285861	0.159285
	H20	H	0.716767	0.850067	0.394849
	H21	H	0.714791	0.160634	0.607860
	H22	H	0.276100	0.846101	0.603442
	H23	H	0.275125	0.161563	0.397547
	H24	H	0.887012	0.348482	0.224035
	H25	H	0.098226	0.660908	0.221881
	H26	H	0.101706	0.349986	0.779913
	H27	H	0.887842	0.659804	0.781479
	H28	H	0.218149	0.896660	0.350665
	H29	H	0.216873	0.111517	0.655672
	H30	H	0.763756	0.120470	0.354818
	H31	H	0.767066	0.893204	0.652512
	H32	H	0.336691	0.222761	0.901080
	H33	H	0.649596	0.222938	0.103578
	H34	H	0.340726	0.780277	0.109865
	H35	H	0.650494	0.789592	0.903483
	H36	H	0.342598	0.893453	0.228561
	H37	H	0.646504	0.112524	0.224798
	H38	H	0.337662	0.109396	0.782577
	H39	H	0.650400	0.904167	0.785558
	H40	H	0.885816	0.230082	0.350247
	H41	H	0.101282	0.228124	0.654853
	H42	H	0.098771	0.782685	0.349185
	H43	H	0.884139	0.779345	0.654159
	H44	H	0.217859	0.350178	0.894011
	H45	H	0.213120	0.660869	0.106357
	H46	H	0.772899	0.348161	0.108416
	H47	H	0.771569	0.659352	0.895074
	H48	H	0.398282	0.119414	0.590762
	H49	H	0.588437	0.890229	0.591533
	H50	H	0.578189	0.113738	0.419705
	H51	H	0.404835	0.892555	0.418103
	H52	H	0.582392	0.416383	0.112512
	H53	H	0.584248	0.593266	0.892734
	H54	H	0.401769	0.591358	0.112909
	H55	H	0.400530	0.412157	0.890568
	H56	H	0.104749	0.591320	0.408785
	H57	H	0.883106	0.592239	0.592349
	H58	H	0.100952	0.425364	0.593234
	H59	H	0.880222	0.410513	0.414549
	H60	H	0.105981	0.415539	0.596023
	H61	H	0.884550	0.589869	0.590092
	H62	H	0.106510	0.596495	0.410056
	H63	H	0.884282	0.420765	0.417203
	H64	H	0.404942	0.591423	0.112521
	H65	H	0.584228	0.592768	0.893529
	H66	H	0.583907	0.411277	0.114467
	H67	H	0.401955	0.420832	0.894050
	H68	H	0.580957	0.115478	0.415953
	H69	H	0.579658	0.890382	0.597691
	H70	H	0.402774	0.120412	0.599242
	H71	H	0.404732	0.891395	0.411754
	H72	H	0.904304	0.618205	0.091289
	H73	H	0.089014	0.388275	0.093209
	H74	H	0.079152	0.616273	0.911301
	H75	H	0.906938	0.392183	0.913837
	H76	H	0.083591	0.917330	0.612631
	H77	H	0.089697	0.095395	0.391003
	H78	H	0.902678	0.094588	0.614931
	H79	H	0.900144	0.921989	0.391904
	H80	H	0.603775	0.095378	0.914182
	H81	H	0.381968	0.097622	0.089039
	H82	H	0.601447	0.918848	0.089479
	H83	H	0.380469	0.912030	0.909018
	H84	H	0.603144	0.920300	0.089799
	H85	H	0.385441	0.085536	0.089952
	H86	H	0.604459	0.091922	0.906337
	H87	H	0.381243	0.913887	0.910530
	H88	H	0.903441	0.083928	0.610041
	H89	H	0.084596	0.089871	0.393685
	H90	H	0.082833	0.916445	0.612906
	H91	H	0.911089	0.922249	0.396530
	H92	H	0.080079	0.613560	0.919679
	H93	H	0.076291	0.390854	0.098008
	H94	H	0.904574	0.618162	0.093466
	H95	H	0.908747	0.393524	0.918267
	H96	H	0.408026	0.116635	0.592221
	H97	H	0.578948	0.894859	0.588218
	H98	H	0.576150	0.114136	0.415473
	H99	H	0.409994	0.894183	0.414682
	H100	H	0.587544	0.416069	0.114953
	H101	H	0.583572	0.593256	0.892843
	H102	H	0.403446	0.593886	0.113840
	H103	H	0.408146	0.413934	0.894677
	H104	H	0.104045	0.593137	0.413329
	H105	H	0.883448	0.588480	0.592993
	H106	H	0.101810	0.416515	0.585463
	H107	H	0.880484	0.418864	0.406973
	H108	H	0.906558	0.616892	0.092463
	H109	H	0.079653	0.394412	0.085009
	H110	H	0.086776	0.617320	0.915446
	H111	H	0.903581	0.392690	0.917125
	H112	H	0.084421	0.916318	0.613359
	H113	H	0.082202	0.096832	0.391632
	H114	H	0.912988	0.091029	0.609554
	H115	H	0.906735	0.912139	0.391322
	H116	H	0.607250	0.099896	0.907777
	H117	H	0.381746	0.091322	0.099938
	H118	H	0.603856	0.919467	0.090585
	H119	H	0.380587	0.914756	0.908240
	C120	C	0.372961	0.013219	0.623322
	C121	C	0.614614	0.995869	0.623991
	C122	C	0.613767	0.013032	0.382634
	C123	C	0.373939	0.995942	0.382144
	C124	C	0.615839	0.382825	0.011558
	C125	C	0.616109	0.626110	0.994498
	C126	C	0.372399	0.625170	0.011057
	C127	C	0.371963	0.383086	0.995203
	C128	C	0.002030	0.625190	0.380335
	C129	C	0.984405	0.625739	0.624948
	C130	C	0.001958	0.383836	0.625023
	C131	C	0.984457	0.384357	0.381779
	C132	C	0.872572	0.513643	0.124203
	C133	C	0.113814	0.495176	0.123503
	C134	C	0.115399	0.513088	0.881795
	C135	C	0.873696	0.495815	0.883544
	C136	C	0.115543	0.883557	0.511135
	C137	C	0.116835	0.126647	0.493757
	C138	C	0.872211	0.125948	0.511574
	C139	C	0.871729	0.883813	0.493527
	C140	C	0.501608	0.126829	0.879608
	C141	C	0.485030	0.124852	0.123643
	C142	C	0.502103	0.883804	0.123902
	C143	C	0.484727	0.883738	0.880653
	C144	C	0.372758	0.893206	0.679984
	C145	C	0.616021	0.114252	0.682419
	C146	C	0.620266	0.897478	0.319234
	C147	C	0.371323	0.113373	0.321692
	C148	C	0.675232	0.381388	0.895213
	C149	C	0.676765	0.630242	0.109644
	C150	C	0.313222	0.627416	0.894843
	C151	C	0.313082	0.380884	0.111556
	C152	C	0.884804	0.684088	0.380672
	C153	C	0.099228	0.688634	0.627925
	C154	C	0.886554	0.321196	0.628095
	C155	C	0.101787	0.325990	0.381764
	C156	C	0.887075	0.377405	0.687395
	C157	C	0.098613	0.632414	0.687177
	C158	C	0.885076	0.627365	0.321878
	C159	C	0.100923	0.381608	0.322052
	C160	C	0.372418	0.683833	0.893906
	C161	C	0.618410	0.687631	0.109443
	C162	C	0.615773	0.325205	0.894179
	C163	C	0.372389	0.324478	0.112282
	C164	C	0.676336	0.897019	0.377540
	C165	C	0.674486	0.113671	0.626068
	C166	C	0.315276	0.893492	0.622780
	C167	C	0.314485	0.113877	0.379468
	C168	C	0.869643	0.395522	0.183826
	C169	C	0.116193	0.613649	0.182124
	C170	C	0.119394	0.396630	0.820198
	C171	C	0.869824	0.612839	0.821880
	C172	C	0.176481	0.879617	0.396116
	C173	C	0.176820	0.129647	0.609229
	C174	C	0.807024	0.134770	0.399023
	C175	C	0.808619	0.877145	0.607183
	C176	C	0.384003	0.184457	0.880937
	C177	C	0.602096	0.184368	0.123506
	C178	C	0.387103	0.821014	0.127758
	C179	C	0.603482	0.827943	0.883067
	C180	C	0.388097	0.876915	0.187186
	C181	C	0.601098	0.128815	0.183310
	C182	C	0.384507	0.128100	0.821912
	C183	C	0.603318	0.884680	0.824306
	C184	C	0.867828	0.189377	0.397066
	C185	C	0.119203	0.187662	0.608895
	C186	C	0.117346	0.822930	0.395540
	C187	C	0.867125	0.820516	0.608130
	C188	C	0.177116	0.396825	0.876985
	C189	C	0.173477	0.613527	0.124698
	C190	C	0.812624	0.395601	0.126450
	C191	C	0.812239	0.612546	0.878722
	C192	C	0.396372	0.096940	0.600632
	C193	C	0.589682	0.913228	0.599392
	C194	C	0.586196	0.093593	0.409469
	C195	C	0.399288	0.913942	0.407775
	C196	C	0.591504	0.407467	0.092806
	C197	C	0.591164	0.600377	0.914006
	C198	C	0.396590	0.599708	0.091947
	C199	C	0.396669	0.408237	0.914038
	C200	C	0.083628	0.600475	0.403907
	C201	C	0.904388	0.597964	0.599127
	C202	C	0.082086	0.411338	0.598989
	C203	C	0.902736	0.409530	0.405945
	C204	C	0.897916	0.596239	0.099455
	C205	C	0.088715	0.412627	0.099102
	C206	C	0.089341	0.594690	0.908030
	C207	C	0.899275	0.414128	0.909111
	C208	C	0.090716	0.909348	0.592026
	C209	C	0.092241	0.101200	0.412954
	C210	C	0.899058	0.097874	0.590919
	C211	C	0.898447	0.911039	0.413938
	C212	C	0.583754	0.102597	0.902752
	C213	C	0.404081	0.098813	0.099694
	C214	C	0.581875	0.911517	0.097542
	C215	C	0.402343	0.906624	0.902966
	Zn216	Zn	0.492683	0.004681	0.751531
	Zn217	Zn	0.494153	0.004438	0.253434
	Zn218	Zn	0.744944	0.504570	0.003216
	Zn219	Zn	0.242237	0.504192	0.003257
	Zn220	Zn	-0.007438	0.754561	0.502254
	Zn221	Zn	-0.006440	0.255099	0.503133
	Zn222	Zn	-0.006373	0.504266	0.754553
	Zn223	Zn	-0.006641	0.504198	0.251196
	Zn224	Zn	0.493813	0.754717	0.002136
	Zn225	Zn	0.493215	0.254002	0.002548
	Zn226	Zn	0.742384	0.004835	0.502794
	Zn227	Zn	0.245475	0.004885	0.502297
	N228	N	0.407786	0.968826	0.680694
	N229	N	0.579651	0.039752	0.681491
	N230	N	0.581778	0.970858	0.322194
	N231	N	0.407625	0.038868	0.323092
	N232	N	0.675559	0.416422	0.969342
	N233	N	0.675329	0.592397	0.037125
	N234	N	0.312810	0.591676	0.968806
	N235	N	0.312390	0.416513	0.037556
	N236	N	0.958668	0.683313	0.416261
	N237	N	0.027002	0.684761	0.589765
	N238	N	0.959076	0.325061	0.589917
	N239	N	0.028061	0.327297	0.417941
	N240	N	0.960082	0.415589	0.685800
	N241	N	0.026036	0.593843	0.685526
	N242	N	0.959204	0.591859	0.321217
	N243	N	0.026595	0.416869	0.321531
	N244	N	0.408234	0.682997	0.967353
	N245	N	0.581286	0.685175	0.036814
	N246	N	0.579584	0.325598	0.967621
	N247	N	0.408156	0.325617	0.038592
	N248	N	0.672476	0.969952	0.416345
	N249	N	0.673910	0.038727	0.590582
	N250	N	0.314837	0.969277	0.588711
	N251	N	0.315873	0.039560	0.416503
	N252	N	0.906193	0.470359	0.182695
	N253	N	0.079932	0.538879	0.181658
	N254	N	0.081844	0.470424	0.822675
	N255	N	0.907614	0.539025	0.824424
	N256	N	0.175396	0.916738	0.469086
	N257	N	0.175609	0.092492	0.536367
	N258	N	0.809885	0.095428	0.471197
	N259	N	0.811258	0.915876	0.534952
	N260	N	0.458191	0.184126	0.915953
	N261	N	0.528824	0.182232	0.087112
	N262	N	0.459144	0.824964	0.088976
	N263	N	0.528715	0.826786	0.917013
	N264	N	0.460721	0.915324	0.184911
	N265	N	0.527246	0.092577	0.183860
	N266	N	0.458929	0.093013	0.820772
	N267	N	0.528343	0.918457	0.822371
	N268	N	0.907892	0.183961	0.468032
	N269	N	0.082516	0.186159	0.536034
	N270	N	0.079963	0.825054	0.468366
	N271	N	0.905839	0.824415	0.536406
	N272	N	0.175009	0.470656	0.914438
	N273	N	0.172201	0.538637	0.088746
	N274	N	0.814194	0.470259	0.090008
	N275	N	0.814498	0.538702	0.916360
	O276	O	-0.054258	0.987850	0.189145
	H277	H	-0.060161	0.999756	0.188070
	H278	H	-0.032446	0.971654	0.192006
	O279	O	0.288086	0.304729	0.306163
	H280	H	0.261186	0.281088	0.281293
	H281	H	0.306830	0.333961	0.309100
	O282	O	1.285066	0.300141	0.710972
	H283	H	1.281545	0.315755	0.679814
	H284	H	1.297636	0.303826	0.717504
	O285	O	0.535670	0.292655	0.619777
	H286	H	0.526854	0.292296	0.616751
	H287	H	0.523534	0.282843	0.630981
	O288	O	0.554425	0.687742	0.396352
	H289	H	0.560037	0.683090	0.398033
	H290	H	0.556639	0.692125	0.390696
	O291	O	0.281054	0.292717	0.539241
	H292	H	0.273081	0.303060	0.537908
	H293	H	0.257109	0.289240	0.527916
	O294	O	1.088711	0.213392	0.948524
	H295	H	1.084369	0.213964	0.969750
	H296	H	1.084512	0.215428	0.952048
	O297	O	0.514549	0.427952	0.539281
	H298	H	0.527822	0.423720	0.539686
	H299	H	0.512393	0.424147	0.543092
	O300	O	-0.092784	-0.026481	1.026615
	H301	H	-0.090233	-0.028308	1.024925
	H302	H	-0.096138	-0.013777	1.030588
	O303	O	0.679054	0.690089	0.312609
	H304	H	0.673909	0.666641	0.336454
	H305	H	0.648744	0.674995	0.322373
	O306	O	0.729228	0.264763	0.265750
	H307	H	0.720013	0.278066	0.270466
	H308	H	0.704011	0.273130	0.290850
	O309	O	0.300458	0.683294	0.689764
	H310	H	0.306170	0.676912	0.681740
	H311	H	0.331355	0.674109	0.677055
	O312	O	0.330974	0.641902	0.553367
	H313	H	0.347515	0.644245	0.552009
	H314	H	0.325362	0.630485	0.558494
	O315	O	0.781917	0.840478	1.091635
	H316	H	0.793513	0.836171	1.088103
	H317	H	0.769741	0.837083	1.096271
	O318	O	0.732478	0.455410	0.564512
	H319	H	0.723588	0.435566	0.562487
	H320	H	0.740586	0.449380	0.577054
	O321	O	0.203729	0.800772	0.795197
	H322	H	0.202916	0.774977	0.774771
	H323	H	0.175695	0.806898	0.803753
	O324	O	1.090845	1.091580	0.032352
	H325	H	1.096384	1.079185	0.027338
	H326	H	1.079478	1.095232	0.032099
	O327	O	0.032622	0.049473	0.767629
	H328	H	0.038635	0.075433	0.776531
	H329	H	0.057334	0.059619	0.758383
	O330	O	0.437740	0.289907	0.456615
	H331	H	0.412686	0.289435	0.467393
	H332	H	0.433886	0.287892	0.455316
	O333	O	0.697227	0.310558	0.464859
	H334	H	0.687096	0.308353	0.463367
	H335	H	0.697884	0.295669	0.453734
	O336	O	0.803165	0.173278	0.152344
	H337	H	0.775401	0.199942	0.185805
	H338	H	0.804240	0.130010	0.162359
	O339	O	0.797519	-0.009434	1.212180
	H340	H	0.802806	-0.009284	1.232298
	H341	H	0.796138	-0.042961	1.213448
	O342	O	-0.045861	0.214230	-0.022110
	H343	H	-0.060406	0.211747	-0.001698
	H344	H	-0.056951	0.197904	-0.009726
	O345	O	-0.217044	0.987288	0.942647
	H346	H	-0.216772	1.005588	0.947176
	H347	H	-0.210685	0.999786	0.933271
	O348	O	0.207436	0.030167	0.167209
	H349	H	0.206505	0.025916	0.146546
	H350	H	0.209140	0.033173	0.170082
	O351	O	0.785827	0.791805	0.222858
	H352	H	0.771149	0.772413	0.233723
	H353	H	0.770285	0.791922	0.213071
	O354	O	0.227429	-0.024226	1.007942
	H355	H	0.223960	-0.036125	0.996871
	H356	H	0.232138	-0.027822	0.989113
	O357	O	0.671826	0.329132	0.691979
	H358	H	0.686321	0.320194	0.701874
	H359	H	0.667795	0.343407	0.676929
	O360	O	0.275667	0.478525	0.718207
	H361	H	0.293739	0.470150	0.719465
	H362	H	0.255902	0.484758	0.741148
	O363	O	0.217407	-0.199871	-0.010993
	H364	H	0.221017	-0.194647	-0.035212
	H365	H	0.227036	-0.227518	-0.023116
	O366	O	0.705397	0.531610	0.714944
	H367	H	0.719829	0.538728	0.733669
	H368	H	0.693811	0.539497	0.714082
	O369	O	1.156918	-0.023425	-0.200352
	H370	H	1.151650	-0.038737	-0.206837
	H371	H	1.168079	-0.040160	-0.219815
	O372	O	0.800433	0.810828	-0.117738
	H373	H	0.799559	0.829721	-0.094747
	H374	H	0.820555	0.821477	-0.104584
	O375	O	0.788806	0.027858	0.074081
	H376	H	0.794708	0.020667	0.068535
	H377	H	0.793544	0.000606	0.082250
	O378	O	0.497705	0.678257	0.637798
	H379	H	0.517567	0.692875	0.646967
	H380	H	0.508608	0.694098	0.639629
	O381	O	0.002298	0.789254	0.863364
	H382	H	-0.009732	0.805318	0.857178
	H383	H	-0.001439	0.777480	0.844422
	O384	O	0.783979	0.214134	0.785037
	H385	H	0.818994	0.217626	0.799447
	H386	H	0.770332	0.225389	0.809052
	O387	O	0.960271	0.811085	0.003287
	H388	H	0.960900	0.818491	0.007334
	H389	H	0.971668	0.808705	-0.002290
	O390	O	0.211175	0.231735	0.070416
	H391	H	0.226995	0.243436	0.081703
	H392	H	0.213108	0.230413	0.070819
	O393	O	0.510810	0.606272	0.450968
	H394	H	0.511256	0.613617	0.438002
	H395	H	0.512963	0.619691	0.442846
	O396	O	-0.049201	0.996907	0.892024
	H397	H	-0.040694	1.002712	0.876749
	H398	H	-0.053968	0.986258	0.890342
	O399	O	0.108111	-0.097589	1.112244
	H400	H	0.094220	-0.095485	1.108805
	H401	H	0.115240	-0.098452	1.120514
	O402	O	0.283569	0.501740	0.321488
	H403	H	0.272081	0.522572	0.310587
	H404	H	0.284244	0.524229	0.313139
	O405	O	0.772760	0.030238	0.767965
	H406	H	0.748357	0.051457	0.743356
	H407	H	0.768448	0.060145	0.771668
	O408	O	0.182948	0.199511	-0.152036
	H409	H	0.207640	0.219571	-0.171541
	H410	H	0.170403	0.203518	-0.125354
	O411	O	0.639191	0.627641	0.616648
	H412	H	0.622898	0.610177	0.619546
	H413	H	0.662705	0.635998	0.641068
	O414	O	0.467125	0.721005	0.279640
	H415	H	0.435237	0.704726	0.290627
	H416	H	0.462955	0.753823	0.248879
	O417	O	0.539413	0.290606	0.290075
	H418	H	0.513764	0.284111	0.291773
	H419	H	0.525017	0.289653	0.274032
	O420	O	0.354117	0.541691	0.449238
	H421	H	0.356745	0.537102	0.473968
	H422	H	0.341432	0.550544	0.444423
	O423	O	0.192611	0.031092	0.866840
	H424	H	0.187678	0.029226	0.846700
	H425	H	0.189481	0.041385	0.863803
	O426	O	0.701963	0.714095	0.532444
	H427	H	0.711392	0.715990	0.554547
	H428	H	0.712445	0.718554	0.531240
	O429	O	0.746356	0.754775	0.758809
	H430	H	0.748291	0.744416	0.761810
	H431	H	0.780937	0.787607	0.771606
	O432	O	0.604650	0.539730	0.550391
	H433	H	0.594821	0.553335	0.558492
	H434	H	0.595948	0.532008	0.545827
	O435	O	0.419843	0.405762	0.295027
	H436	H	0.419964	0.413865	0.307369
	H437	H	0.411169	0.421484	0.295950
	O438	O	-0.060977	0.175091	0.142391
	H439	H	-0.069919	0.164780	0.142183
	H440	H	-0.080773	0.166054	0.150132
	O441	O	0.030941	0.222800	0.228866
	H442	H	0.019845	0.204518	0.218580
	H443	H	0.024616	0.249176	0.259260
	O444	O	0.432314	0.346573	0.676805
	H445	H	0.443573	0.340824	0.685291
	H446	H	0.417581	0.350643	0.683020
	O447	O	0.185656	0.817253	1.197804
	H448	H	0.178119	0.846857	1.186604
	H449	H	0.165481	0.824844	1.166823
	O450	O	0.092915	0.799566	0.941635
	H451	H	0.092200	0.796108	0.922799
	H452	H	0.091231	0.807619	0.933224
	O453	O	0.285344	0.453788	0.477954
	H454	H	0.290437	0.468327	0.473297
	H455	H	0.297020	0.452179	0.472309
	O456	O	0.060471	-0.023015	0.975507
	H457	H	0.065035	-0.013455	0.977240
	H458	H	0.058278	-0.025588	0.977959
	O459	O	0.960541	0.786565	0.231349
	H460	H	0.960518	0.771506	0.241041
	H461	H	0.932106	0.777773	0.240248
	O462	O	0.666871	0.546038	0.379727
	H463	H	0.671075	0.544516	0.372983
	H464	H	0.664661	0.534625	0.380791
	O465	O	1.187589	0.175504	0.177143
	H466	H	1.146510	0.180619	0.176477
	H467	H	1.196779	0.150263	0.161201
	O468	O	0.489289	0.545936	0.373243
	H469	H	0.481940	0.539289	0.378472
	H470	H	0.476217	0.541973	0.387576
	O471	O	0.550084	0.628588	0.560923
	H472	H	0.567982	0.636386	0.583741
	H473	H	0.562482	0.631142	0.549172
	O474	O	0.548326	0.458272	0.721289
	H475	H	0.539957	0.463848	0.720501
	H476	H	0.555579	0.445814	0.711884
	O477	O	0.456043	0.517616	1.536779
	H478	H	0.462664	0.514880	1.536321
	H479	H	0.460143	0.518453	1.534258
	O480	O	0.277687	0.664344	0.294097
	H481	H	0.277260	0.673815	0.322564
	H482	H	0.250753	0.696288	0.267870
	O483	O	0.458197	0.524038	0.658955
	H484	H	0.463695	0.519668	0.655938
	H485	H	0.462481	0.528910	0.661045
	O486	O	0.966740	0.214323	0.777227
	H487	H	0.967247	0.233616	0.778056
	H488	H	0.970367	0.228042	0.787938
	O489	O	1.050287	0.954085	0.236585
	H490	H	1.044761	0.950619	0.234878
	H491	H	1.067224	0.948789	0.241169
	O492	O	0.274890	-0.285607	0.418128
	H493	H	0.260938	-0.284116	0.425863
	H494	H	0.260691	-0.281971	0.433090
	O495	O	-0.050325	0.918042	0.764433
	H496	H	-0.040655	0.941835	0.763631
	H497	H	-0.063447	0.946754	0.758403
	O498	O	0.771191	1.220197	0.958743
	H499	H	0.786903	1.207142	0.986839
	H500	H	0.741722	1.247016	0.970733
	O501	O	0.711157	0.474837	0.293583
	H502	H	0.727631	0.478788	0.285220
	H503	H	0.698253	0.482926	0.288275
